125951
  -OEChem-03292013323D

 61 61  0     1  0  0  0  0  0999 V2000
   -8.5806    2.8943   -0.9892 Br  0  0  0  0  0  0  0  0  0  0  0  0
    5.4708   -0.7752    0.1721 O   0  0  0  0  0  0  0  0  0  0  0  0
    3.7027    0.7046    0.5308 O   0  0  0  0  0  0  0  0  0  0  0  0
    8.2371    2.2386    0.5357 O   0  0  0  0  0  0  0  0  0  0  0  0
    8.9951   -0.2691   -0.6860 O   0  0  0  0  0  0  0  0  0  0  0  0
    5.4230    2.8705   -0.0666 O   0  0  0  0  0  0  0  0  0  0  0  0
    6.0660   -3.3230   -0.6706 O   0  0  0  0  0  0  0  0  0  0  0  0
  -10.2418   -0.1156   -1.2956 O   0  0  0  0  0  0  0  0  0  0  0  0
   -9.0385   -0.0554    0.6920 N   0  0  0  0  0  0  0  0  0  0  0  0
    7.3266    1.3906   -0.1662 C   0  0  1  0  0  0  0  0  0  0  0  0
    7.7810   -0.0559    0.0294 C   0  0  1  0  0  0  0  0  0  0  0  0
    5.9125    1.6042    0.3742 C   0  0  2  0  0  0  0  0  0  0  0  0
    6.7171   -1.0326   -0.4769 C   0  0  1  0  0  0  0  0  0  0  0  0
    4.9568    0.5209   -0.1255 C   0  0  1  0  0  0  0  0  0  0  0  0
    7.0965   -2.4813   -0.1863 C   0  0  0  0  0  0  0  0  0  0  0  0
    2.6463    0.0681   -0.1747 C   0  0  0  0  0  0  0  0  0  0  0  0
    1.3397    0.3189    0.5646 C   0  0  0  0  0  0  0  0  0  0  0  0
    0.1591   -0.3532   -0.1329 C   0  0  0  0  0  0  0  0  0  0  0  0
   -1.1555   -0.0607    0.5920 C   0  0  0  0  0  0  0  0  0  0  0  0
   -2.3332   -0.7616   -0.0873 C   0  0  0  0  0  0  0  0  0  0  0  0
   -3.6440   -0.4969    0.6574 C   0  0  0  0  0  0  0  0  0  0  0  0
   -4.8142   -1.2262   -0.0061 C   0  0  0  0  0  0  0  0  0  0  0  0
   -6.1665   -0.9391    0.6540 C   0  0  0  0  0  0  0  0  0  0  0  0
   -7.3317   -1.6951    0.0071 C   0  0  0  0  0  0  0  0  0  0  0  0
   -8.6588   -1.4408    0.7165 C   0  0  0  0  0  0  0  0  0  0  0  0
   -9.8074    0.4995   -0.3235 C   0  0  0  0  0  0  0  0  0  0  0  0
  -10.0580    1.9716   -0.1386 C   0  0  0  0  0  0  0  0  0  0  0  0
    7.3909    1.6811   -1.2214 H   0  0  0  0  0  0  0  0  0  0  0  0
    7.9911   -0.2358    1.0908 H   0  0  0  0  0  0  0  0  0  0  0  0
    5.9205    1.6325    1.4703 H   0  0  0  0  0  0  0  0  0  0  0  0
    6.5727   -0.9313   -1.5613 H   0  0  0  0  0  0  0  0  0  0  0  0
    4.8146    0.6241   -1.2105 H   0  0  0  0  0  0  0  0  0  0  0  0
    8.0349   -2.7570   -0.6766 H   0  0  0  0  0  0  0  0  0  0  0  0
    7.1872   -2.6520    0.8917 H   0  0  0  0  0  0  0  0  0  0  0  0
    2.8415   -1.0086   -0.2392 H   0  0  0  0  0  0  0  0  0  0  0  0
    2.5797    0.4774   -1.1897 H   0  0  0  0  0  0  0  0  0  0  0  0
    1.4287   -0.0456    1.5957 H   0  0  0  0  0  0  0  0  0  0  0  0
    1.1703    1.4001    0.6424 H   0  0  0  0  0  0  0  0  0  0  0  0
    0.0918    0.0015   -1.1686 H   0  0  0  0  0  0  0  0  0  0  0  0
    0.3259   -1.4365   -0.1723 H   0  0  0  0  0  0  0  0  0  0  0  0
   -1.3330    1.0214    0.6124 H   0  0  0  0  0  0  0  0  0  0  0  0
   -1.0812   -0.3959    1.6338 H   0  0  0  0  0  0  0  0  0  0  0  0
   -2.1453   -1.8416   -0.1238 H   0  0  0  0  0  0  0  0  0  0  0  0
   -2.4207   -0.4132   -1.1236 H   0  0  0  0  0  0  0  0  0  0  0  0
    8.1901    2.0161    1.4811 H   0  0  0  0  0  0  0  0  0  0  0  0
    8.8162   -0.1253   -1.6310 H   0  0  0  0  0  0  0  0  0  0  0  0
    5.4078    2.8662   -1.0389 H   0  0  0  0  0  0  0  0  0  0  0  0
   -3.8449    0.5811    0.6737 H   0  0  0  0  0  0  0  0  0  0  0  0
   -3.5535   -0.8255    1.6997 H   0  0  0  0  0  0  0  0  0  0  0  0
   -4.6248   -2.3066    0.0173 H   0  0  0  0  0  0  0  0  0  0  0  0
   -4.8690   -0.9378   -1.0633 H   0  0  0  0  0  0  0  0  0  0  0  0
   -6.1084   -1.2083    1.7160 H   0  0  0  0  0  0  0  0  0  0  0  0
   -6.3540    0.1405    0.6103 H   0  0  0  0  0  0  0  0  0  0  0  0
   -7.1219   -2.7711    0.0254 H   0  0  0  0  0  0  0  0  0  0  0  0
   -7.4121   -1.4002   -1.0464 H   0  0  0  0  0  0  0  0  0  0  0  0
    6.3259   -4.2386   -0.4717 H   0  0  0  0  0  0  0  0  0  0  0  0
   -8.5943   -1.7432    1.7672 H   0  0  0  0  0  0  0  0  0  0  0  0
   -9.4470   -2.0372    0.2441 H   0  0  0  0  0  0  0  0  0  0  0  0
   -8.7144    0.5389    1.4495 H   0  0  0  0  0  0  0  0  0  0  0  0
  -10.9827    2.2724   -0.6355 H   0  0  0  0  0  0  0  0  0  0  0  0
  -10.0814    2.2622    0.9138 H   0  0  0  0  0  0  0  0  0  0  0  0
  1 27  1  0  0  0  0
  2 13  1  0  0  0  0
  2 14  1  0  0  0  0
  3 14  1  0  0  0  0
  3 16  1  0  0  0  0
  4 10  1  0  0  0  0
  4 45  1  0  0  0  0
  5 11  1  0  0  0  0
  5 46  1  0  0  0  0
  6 12  1  0  0  0  0
  6 47  1  0  0  0  0
  7 15  1  0  0  0  0
  7 56  1  0  0  0  0
  8 26  2  0  0  0  0
  9 25  1  0  0  0  0
  9 26  1  0  0  0  0
  9 59  1  0  0  0  0
 10 11  1  0  0  0  0
 10 12  1  0  0  0  0
 10 28  1  0  0  0  0
 11 13  1  0  0  0  0
 11 29  1  0  0  0  0
 12 14  1  0  0  0  0
 12 30  1  0  0  0  0
 13 15  1  0  0  0  0
 13 31  1  0  0  0  0
 14 32  1  0  0  0  0
 15 33  1  0  0  0  0
 15 34  1  0  0  0  0
 16 17  1  0  0  0  0
 16 35  1  0  0  0  0
 16 36  1  0  0  0  0
 17 18  1  0  0  0  0
 17 37  1  0  0  0  0
 17 38  1  0  0  0  0
 18 19  1  0  0  0  0
 18 39  1  0  0  0  0
 18 40  1  0  0  0  0
 19 20  1  0  0  0  0
 19 41  1  0  0  0  0
 19 42  1  0  0  0  0
 20 21  1  0  0  0  0
 20 43  1  0  0  0  0
 20 44  1  0  0  0  0
 21 22  1  0  0  0  0
 21 48  1  0  0  0  0
 21 49  1  0  0  0  0
 22 23  1  0  0  0  0
 22 50  1  0  0  0  0
 22 51  1  0  0  0  0
 23 24  1  0  0  0  0
 23 52  1  0  0  0  0
 23 53  1  0  0  0  0
 24 25  1  0  0  0  0
 24 54  1  0  0  0  0
 24 55  1  0  0  0  0
 25 57  1  0  0  0  0
 25 58  1  0  0  0  0
 26 27  1  0  0  0  0
 27 60  1  0  0  0  0
 27 61  1  0  0  0  0
M  END
> <PUBCHEM_COMPOUND_CID>
125951

> <PUBCHEM_CONFORMER_RMSD>
1.2

> <PUBCHEM_CONFORMER_DIVERSEORDER>
1
77
99
42
22
104
166
147
130
124
45
43
137
50
47
38
132
89
125
55
97
65
33
44
141
21
98
127
169
36
115
37
153
71
54
96
154
172
121
46
108
69
66
19
52
78
73
133
109
83
165
145
25
162
155
64
144
100
160
24
103
113
171
156
101
85
81
140
34
139
158
60
8
56
84
76
134
6
14
74
163
157
143
123
23
136
48
142
151
116
122
58
53
93
31
118
72
26
13
92
110
91
57
88
86
9
32
112
120
29
102
35
67
173
39
59
28
150
117
79
68
90
164
61
170
63
10
40
119
131
80
152
168
18
105
159
75
95
106
49
62
126
16
135
111
87
2
17
11
174
30
5
167
41
51
138
15
7
146
148
27
82
12
20
107
114
70
129
3
94
149
128
161
4

> <PUBCHEM_MMFF94_PARTIAL_CHARGES>
24
1 -0.23
10 0.28
11 0.28
12 0.28
13 0.28
14 0.56
15 0.28
16 0.28
2 -0.56
25 0.3
26 0.57
27 0.29
3 -0.56
4 -0.68
45 0.4
46 0.4
47 0.4
5 -0.68
56 0.4
59 0.37
6 -0.68
7 -0.68
8 -0.57
9 -0.73

> <PUBCHEM_EFFECTIVE_ROTOR_COUNT>
16.2

> <PUBCHEM_PHARMACOPHORE_FEATURES>
14
1 1 hydrophobe
1 2 acceptor
1 3 acceptor
1 4 acceptor
1 4 donor
1 5 acceptor
1 5 donor
1 6 acceptor
1 6 donor
1 7 acceptor
1 7 donor
1 8 acceptor
1 9 donor
6 2 10 11 12 13 14 rings

> <PUBCHEM_HEAVY_ATOM_COUNT>
27

> <PUBCHEM_ATOM_DEF_STEREO_COUNT>
5

> <PUBCHEM_ATOM_UDEF_STEREO_COUNT>
0

> <PUBCHEM_BOND_DEF_STEREO_COUNT>
0

> <PUBCHEM_BOND_UDEF_STEREO_COUNT>
0

> <PUBCHEM_ISOTOPIC_ATOM_COUNT>
0

> <PUBCHEM_COMPONENT_COUNT>
1

> <PUBCHEM_CACTVS_TAUTO_COUNT>
2

> <PUBCHEM_CONFORMER_ID>
0001EBFF00000001

> <PUBCHEM_MMFF94_ENERGY>
37.8054

> <PUBCHEM_FEATURE_SELFOVERLAP>
71.111

> <PUBCHEM_SHAPE_FINGERPRINT>
10162869 55 14979954783312171153
10666366 153 18341057332600170487
10669705 176 18410293576318653625
12082328 90 18335699473575310287
13947934 56 18341611478150222680
14251764 46 17603304873206288187
14428016 248 16950568796224212421
15510794 2 18334576836820141635
1754911 235 18408602570136848291
21362267 2 17774708879349416120
21362267 20 9295287236545453085
21362267 313 18187357688969772680
21792961 116 18060701659359450033
232437 2 18342178899692411811
28498 318 18413390925742632643
42767 2 18272367573417864767
437795 83 17917431979105368817
439807 62 18201721765078800104
4625314 4 18410575123903483547
6691757 9 15697725904633083575
67123 10 18341614845393981011

> <PUBCHEM_SHAPE_MULTIPOLES>
515.52
44.48
2.73
0.85
50.82
0.69
0.06
9.11
5.85
-0.8
0.46
0.82
0.02
2.98

> <PUBCHEM_SHAPE_SELFOVERLAP>
982.533

> <PUBCHEM_SHAPE_VOLUME>
317.7

> <PUBCHEM_COORDINATE_TYPE>
2
5
10

$$$$
