125929
  -OEChem-03292013323D

 30 31  0     1  0  0  0  0  0999 V2000
    4.0155   -0.2664   -0.4201 P   0  0  0  0  0  0  0  0  0  0  0  0
   -3.0848   -0.3253   -0.2056 O   0  0  0  0  0  0  0  0  0  0  0  0
   -0.4250   -1.8130    1.7150 O   0  0  0  0  0  0  0  0  0  0  0  0
    2.4834    0.2298   -0.5453 O   0  0  0  0  0  0  0  0  0  0  0  0
   -3.8838   -2.4108   -0.6946 O   0  0  0  0  0  0  0  0  0  0  0  0
    3.9200   -1.5815    0.5162 O   0  0  0  0  0  0  0  0  0  0  0  0
    4.6680    0.8416    0.5604 O   0  0  0  0  0  0  0  0  0  0  0  0
    4.7316   -0.4584   -1.7250 O   0  0  0  0  0  0  0  0  0  0  0  0
   -1.6446   -2.2129   -0.2241 N   0  0  0  0  0  0  0  0  0  0  0  0
   -1.1480    2.7664    0.0461 N   0  0  0  0  0  0  0  0  0  0  0  0
   -0.7091   -0.0028    0.2117 C   0  0  0  0  0  0  0  0  0  0  0  0
   -0.5316   -1.4766    0.3383 C   0  0  1  0  0  0  0  0  0  0  0  0
    0.3490    0.8889    0.3754 C   0  0  0  0  0  0  0  0  0  0  0  0
   -1.9748    0.5106   -0.0307 C   0  0  0  0  0  0  0  0  0  0  0  0
   -2.1559    1.8806   -0.1036 C   0  0  0  0  0  0  0  0  0  0  0  0
    1.7405    0.4334    0.6535 C   0  0  0  0  0  0  0  0  0  0  0  0
    0.0797    2.2473    0.2814 C   0  0  0  0  0  0  0  0  0  0  0  0
   -2.9221   -1.7084   -0.3874 C   0  0  0  0  0  0  0  0  0  0  0  0
   -3.5079    2.4577   -0.3616 C   0  0  0  0  0  0  0  0  0  0  0  0
    0.3646   -1.8219   -0.1876 H   0  0  0  0  0  0  0  0  0  0  0  0
    2.2522    1.1910    1.2592 H   0  0  0  0  0  0  0  0  0  0  0  0
    1.7507   -0.4807    1.2539 H   0  0  0  0  0  0  0  0  0  0  0  0
   -1.5131   -3.2072   -0.3824 H   0  0  0  0  0  0  0  0  0  0  0  0
    0.8649    2.9884    0.3971 H   0  0  0  0  0  0  0  0  0  0  0  0
   -4.2066    2.1646    0.4284 H   0  0  0  0  0  0  0  0  0  0  0  0
   -3.4697    3.5520   -0.3850 H   0  0  0  0  0  0  0  0  0  0  0  0
   -3.8921    2.1158   -1.3280 H   0  0  0  0  0  0  0  0  0  0  0  0
   -0.4903   -2.7813    1.7722 H   0  0  0  0  0  0  0  0  0  0  0  0
    4.7335   -2.1019    0.6880 H   0  0  0  0  0  0  0  0  0  0  0  0
    5.6344    0.8181    0.7265 H   0  0  0  0  0  0  0  0  0  0  0  0
  1  4  1  0  0  0  0
  1  6  1  0  0  0  0
  1  7  1  0  0  0  0
  1  8  2  0  0  0  0
  2 14  1  0  0  0  0
  2 18  1  0  0  0  0
  3 12  1  0  0  0  0
  3 28  1  0  0  0  0
  4 16  1  0  0  0  0
  5 18  2  0  0  0  0
  6 29  1  0  0  0  0
  7 30  1  0  0  0  0
  9 12  1  0  0  0  0
  9 18  1  0  0  0  0
  9 23  1  0  0  0  0
 10 15  2  0  0  0  0
 10 17  1  0  0  0  0
 11 12  1  0  0  0  0
 11 13  1  0  0  0  0
 11 14  2  0  0  0  0
 12 20  1  0  0  0  0
 13 16  1  0  0  0  0
 13 17  2  0  0  0  0
 14 15  1  0  0  0  0
 15 19  1  0  0  0  0
 16 21  1  0  0  0  0
 16 22  1  0  0  0  0
 17 24  1  0  0  0  0
 19 25  1  0  0  0  0
 19 26  1  0  0  0  0
 19 27  1  0  0  0  0
M  END
> <PUBCHEM_COMPOUND_CID>
125929

> <PUBCHEM_CONFORMER_RMSD>
0.6

> <PUBCHEM_CONFORMER_DIVERSEORDER>
3
8
9
11
13
12
5
6
10
7
4
1
2

> <PUBCHEM_MMFF94_PARTIAL_CHARGES>
24
1 1.51
10 -0.62
11 -0.14
12 0.72
13 -0.14
14 0.08
15 0.17
16 0.42
17 0.16
18 0.78
19 0.14
2 -0.23
23 0.37
24 0.15
28 0.4
29 0.5
3 -0.68
30 0.5
4 -0.55
5 -0.57
6 -0.77
7 -0.77
8 -0.7
9 -0.73

> <PUBCHEM_EFFECTIVE_ROTOR_COUNT>
3.6

> <PUBCHEM_PHARMACOPHORE_FEATURES>
11
1 10 acceptor
1 3 acceptor
1 3 donor
1 5 acceptor
1 6 acceptor
1 7 acceptor
1 8 acceptor
1 9 donor
4 1 6 7 8 anion
6 10 11 13 14 15 17 rings
6 2 9 11 12 14 18 rings

> <PUBCHEM_HEAVY_ATOM_COUNT>
19

> <PUBCHEM_ATOM_DEF_STEREO_COUNT>
0

> <PUBCHEM_ATOM_UDEF_STEREO_COUNT>
1

> <PUBCHEM_BOND_DEF_STEREO_COUNT>
0

> <PUBCHEM_BOND_UDEF_STEREO_COUNT>
0

> <PUBCHEM_ISOTOPIC_ATOM_COUNT>
0

> <PUBCHEM_COMPONENT_COUNT>
1

> <PUBCHEM_CACTVS_TAUTO_COUNT>
2

> <PUBCHEM_CONFORMER_ID>
0001EBE900000003

> <PUBCHEM_MMFF94_ENERGY>
15.7199

> <PUBCHEM_FEATURE_SELFOVERLAP>
55.932

> <PUBCHEM_SHAPE_FINGERPRINT>
10062212 137 18189606164220690906
10616163 171 18412829058237079606
116883 192 18268706293559039781
12173636 292 18265046929925841292
12553582 1 18337117885548894242
14790565 3 17909552757566976161
15042514 8 18410014291236940529
16752209 62 18335411374629946435
16945 1 18338503240498623971
17870717 6 18057341517254095580
19141452 34 17988930024070308655
19591789 44 18123751950862870601
20645476 183 17749404632325140248
20871999 31 18408887347415824148
21524375 3 17900827045935879608
23402539 116 18408595959902475092
23419403 2 17202464753868415833
23557571 272 18343301505079464784
23559900 14 18271521993226016720
2748010 2 18194101131507114977
3759504 43 17749396923323087257
394222 165 17538003559120222121
559249 180 18262797338237009842
573450 72 18261661598422403210
633830 44 16588879962353127232
7364860 26 17766274658279032777
81228 2 18335139838281593880
9709674 26 18411143537176819446

> <PUBCHEM_SHAPE_MULTIPOLES>
343.81
7.77
2.94
0.97
9.16
0.2
0
-1.25
-2.36
-3.39
0.01
0.67
-0.31
-0.03

> <PUBCHEM_SHAPE_SELFOVERLAP>
715.256

> <PUBCHEM_SHAPE_VOLUME>
197.7

> <PUBCHEM_COORDINATE_TYPE>
2
5
10

$$$$
