125984
  -OEChem-03292013323D

 49 51  0     1  0  0  0  0  0999 V2000
    3.7976    1.4041    0.2005 O   0  0  0  0  0  0  0  0  0  0  0  0
    6.5018    2.1617    0.0910 O   0  0  0  0  0  0  0  0  0  0  0  0
    5.8553   -1.4836    0.1148 N   0  0  0  0  0  0  0  0  0  0  0  0
   -2.4441    0.7374    0.0776 N   0  0  0  0  0  0  0  0  0  0  0  0
   -3.2351   -1.9040   -0.1550 N   0  0  0  0  0  0  0  0  0  0  0  0
   -0.9613   -2.5808   -0.1883 N   0  0  0  0  0  0  0  0  0  0  0  0
   -5.4579   -1.2565   -0.1231 N   0  0  0  0  0  0  0  0  0  0  0  0
   -6.0665    1.0551    0.0666 N   0  0  0  0  0  0  0  0  0  0  0  0
   -4.3762    2.6985    0.2237 N   0  0  0  0  0  0  0  0  0  0  0  0
   -7.7118   -0.6031   -0.0907 N   0  0  0  0  0  0  0  0  0  0  0  0
    6.0550    0.9189   -0.4586 C   0  0  1  0  0  0  0  0  0  0  0  0
    6.2289   -0.1650    0.6080 C   0  0  0  0  0  0  0  0  0  0  0  0
    4.6097    1.0814   -0.9242 C   0  0  0  0  0  0  0  0  0  0  0  0
    2.4907    0.9984    0.1523 C   0  0  0  0  0  0  0  0  0  0  0  0
    6.0872   -2.5037    1.1397 C   0  0  0  0  0  0  0  0  0  0  0  0
    6.6006   -1.8105   -1.1028 C   0  0  0  0  0  0  0  0  0  0  0  0
   -0.1640    0.1742    0.0542 C   0  0  0  0  0  0  0  0  0  0  0  0
   -1.5446   -0.2541    0.0032 C   0  0  0  0  0  0  0  0  0  0  0  0
    1.8456    0.8961   -1.0757 C   0  0  0  0  0  0  0  0  0  0  0  0
    1.8202    0.6922    1.3317 C   0  0  0  0  0  0  0  0  0  0  0  0
    0.5143    0.4829   -1.1248 C   0  0  0  0  0  0  0  0  0  0  0  0
    0.4889    0.2789    1.2824 C   0  0  0  0  0  0  0  0  0  0  0  0
   -1.9338   -1.5589   -0.1117 C   0  0  0  0  0  0  0  0  0  0  0  0
   -3.7448    0.3907    0.0345 C   0  0  0  0  0  0  0  0  0  0  0  0
   -4.1584   -0.9379   -0.0826 C   0  0  0  0  0  0  0  0  0  0  0  0
   -4.7511    1.3350    0.1040 C   0  0  0  0  0  0  0  0  0  0  0  0
   -6.3464   -0.2479   -0.0467 C   0  0  0  0  0  0  0  0  0  0  0  0
    6.7022    0.7463   -1.3231 H   0  0  0  0  0  0  0  0  0  0  0  0
    5.6313    0.0907    1.4928 H   0  0  0  0  0  0  0  0  0  0  0  0
    7.2733   -0.1526    0.9512 H   0  0  0  0  0  0  0  0  0  0  0  0
    4.2889    0.1577   -1.4201 H   0  0  0  0  0  0  0  0  0  0  0  0
    4.5491    1.9147   -1.6344 H   0  0  0  0  0  0  0  0  0  0  0  0
    5.5114   -2.2771    2.0440 H   0  0  0  0  0  0  0  0  0  0  0  0
    7.1455   -2.5819    1.4141 H   0  0  0  0  0  0  0  0  0  0  0  0
    5.7468   -3.4850    0.7906 H   0  0  0  0  0  0  0  0  0  0  0  0
    6.2610   -1.2286   -1.9649 H   0  0  0  0  0  0  0  0  0  0  0  0
    6.4254   -2.8560   -1.3852 H   0  0  0  0  0  0  0  0  0  0  0  0
    7.6818   -1.6786   -0.9794 H   0  0  0  0  0  0  0  0  0  0  0  0
    5.9174    2.3825    0.8364 H   0  0  0  0  0  0  0  0  0  0  0  0
    2.3272    1.1559   -2.0134 H   0  0  0  0  0  0  0  0  0  0  0  0
    2.3255    0.7717    2.2900 H   0  0  0  0  0  0  0  0  0  0  0  0
    0.0170    0.4131   -2.0895 H   0  0  0  0  0  0  0  0  0  0  0  0
   -0.0257    0.0419    2.2106 H   0  0  0  0  0  0  0  0  0  0  0  0
   -1.3056   -3.5290   -0.2787 H   0  0  0  0  0  0  0  0  0  0  0  0
   -0.0738   -2.4486    0.2803 H   0  0  0  0  0  0  0  0  0  0  0  0
   -5.1243    3.3780    0.2831 H   0  0  0  0  0  0  0  0  0  0  0  0
   -3.4912    2.9149    0.6657 H   0  0  0  0  0  0  0  0  0  0  0  0
   -8.4157    0.1201   -0.0359 H   0  0  0  0  0  0  0  0  0  0  0  0
   -7.9698   -1.5766   -0.1752 H   0  0  0  0  0  0  0  0  0  0  0  0
  1 13  1  0  0  0  0
  1 14  1  0  0  0  0
  2 11  1  0  0  0  0
  2 39  1  0  0  0  0
  3 12  1  0  0  0  0
  3 15  1  0  0  0  0
  3 16  1  0  0  0  0
  4 18  2  0  0  0  0
  4 24  1  0  0  0  0
  5 23  2  0  0  0  0
  5 25  1  0  0  0  0
  6 23  1  0  0  0  0
  6 44  1  0  0  0  0
  6 45  1  0  0  0  0
  7 25  2  0  0  0  0
  7 27  1  0  0  0  0
  8 26  1  0  0  0  0
  8 27  2  0  0  0  0
  9 26  1  0  0  0  0
  9 46  1  0  0  0  0
  9 47  1  0  0  0  0
 10 27  1  0  0  0  0
 10 48  1  0  0  0  0
 10 49  1  0  0  0  0
 11 12  1  0  0  0  0
 11 13  1  0  0  0  0
 11 28  1  0  0  0  0
 12 29  1  0  0  0  0
 12 30  1  0  0  0  0
 13 31  1  0  0  0  0
 13 32  1  0  0  0  0
 14 19  2  0  0  0  0
 14 20  1  0  0  0  0
 15 33  1  0  0  0  0
 15 34  1  0  0  0  0
 15 35  1  0  0  0  0
 16 36  1  0  0  0  0
 16 37  1  0  0  0  0
 16 38  1  0  0  0  0
 17 18  1  0  0  0  0
 17 21  2  0  0  0  0
 17 22  1  0  0  0  0
 18 23  1  0  0  0  0
 19 21  1  0  0  0  0
 19 40  1  0  0  0  0
 20 22  2  0  0  0  0
 20 41  1  0  0  0  0
 21 42  1  0  0  0  0
 22 43  1  0  0  0  0
 24 25  1  0  0  0  0
 24 26  2  0  0  0  0
M  END
> <PUBCHEM_COMPOUND_CID>
125984

> <PUBCHEM_CONFORMER_RMSD>
0.8

> <PUBCHEM_CONFORMER_DIVERSEORDER>
1
46
60
19
30
56
39
50
48
37
11
58
47
55
59
32
53
16
13
31
35
40
44
57
6
45
43
18
63
26
52
42
4
62
33
54
34
64
24
51
38
36
15
25
27
23
49
17
61
21
8
9
12
3
14
10
29
28
2
41
7
5
22
20

> <PUBCHEM_MMFF94_PARTIAL_CHARGES>
37
1 -0.36
10 -0.9
11 0.28
12 0.27
13 0.28
14 0.08
15 0.27
16 0.27
18 0.31
19 -0.15
2 -0.68
20 -0.15
21 -0.15
22 -0.15
23 0.41
24 0.31
25 0.62
26 0.41
27 0.72
3 -0.81
39 0.4
4 -0.62
40 0.15
41 0.15
42 0.15
43 0.15
44 0.4
45 0.4
46 0.4
47 0.4
48 0.4
49 0.4
5 -0.62
6 -0.9
7 -0.62
8 -0.62
9 -0.9

> <PUBCHEM_EFFECTIVE_ROTOR_COUNT>
6

> <PUBCHEM_PHARMACOPHORE_FEATURES>
14
1 1 acceptor
1 10 donor
1 2 acceptor
1 2 donor
1 3 cation
1 4 acceptor
1 6 donor
1 9 cation
1 9 donor
3 5 6 23 cation
4 7 8 10 27 cation
6 14 17 19 20 21 22 rings
6 4 5 18 23 24 25 rings
6 7 8 24 25 26 27 rings

> <PUBCHEM_HEAVY_ATOM_COUNT>
27

> <PUBCHEM_ATOM_DEF_STEREO_COUNT>
0

> <PUBCHEM_ATOM_UDEF_STEREO_COUNT>
1

> <PUBCHEM_BOND_DEF_STEREO_COUNT>
0

> <PUBCHEM_BOND_UDEF_STEREO_COUNT>
0

> <PUBCHEM_ISOTOPIC_ATOM_COUNT>
0

> <PUBCHEM_COMPONENT_COUNT>
1

> <PUBCHEM_CACTVS_TAUTO_COUNT>
40

> <PUBCHEM_CONFORMER_ID>
0001EC2000000001

> <PUBCHEM_MMFF94_ENERGY>
109.5537

> <PUBCHEM_FEATURE_SELFOVERLAP>
71.094

> <PUBCHEM_SHAPE_FINGERPRINT>
10319926 262 18272640273233135907
10595046 47 18336829818145420316
10670039 82 18410570665859792673
11524674 6 16917349255646075311
11578080 2 17097755887129456655
11719270 70 17632297856833421406
11796584 16 18272656787862741910
11991303 11 13840276904862520824
12166972 35 18410295834596394737
12236239 1 17967250935877471685
13533116 47 18412543207147136544
13782708 43 17631728404341737479
14251752 14 18413107247062233000
14251764 18 18343865524099700663
14347332 77 17968933081562837892
15183329 4 18411987944636607072
15419008 42 17841430328423662012
15849732 13 17967250918649928743
1813 80 17095240324578305244
19611394 137 17896616153552705163
20281389 69 18408603673294954109
20567600 234 13398621767319465594
21267235 1 18261115192825463025
21279426 13 18271529693595853182
21641784 216 14346069777243315246
23198884 109 18407761447751691537
23402539 116 18271523186757660773
23536379 177 18409730664429087808
23559900 14 18201432644438193561
23569943 247 17387402438025483466
25269216 80 16082236136734772122
3004659 81 18410578367004783622
3009799 131 15770060527232372569
350125 39 18410571752290872123
404807 14 17406003855543719206
4072396 5 17060621084207159188
4073 2 18115311223640559706
4197921 191 18335707152164737972
59755656 215 18410294692029092343
59755656 520 18409724097788349271
6299153 45 18336549300455728521
9965369 4 18410011009628738201
9996256 80 18408884031637670445

> <PUBCHEM_SHAPE_MULTIPOLES>
504.06
20.2
2.3
0.99
3.33
0.61
-0.06
2.48
0.49
1.53
-0.08
1.2
0.03
-0.69

> <PUBCHEM_SHAPE_SELFOVERLAP>
1088.099

> <PUBCHEM_SHAPE_VOLUME>
276.3

> <PUBCHEM_COORDINATE_TYPE>
2
5
10

$$$$
