125902
  -OEChem-03292013323D

 30 31  0     1  0  0  0  0  0999 V2000
    5.2710   -0.2172    0.3731 P   0  0  2  0  0  0  0  0  0  0  0  0
    6.1165    1.1043    0.2695 F   0  0  0  0  0  0  0  0  0  0  0  0
    3.7498    0.3308    0.3649 O   0  0  0  0  0  0  0  0  0  0  0  0
   -2.0417   -2.7637   -0.1462 O   0  0  0  0  0  0  0  0  0  0  0  0
    5.6262   -0.9519    1.6346 O   0  0  0  0  0  0  0  0  0  0  0  0
   -5.2425    1.7673    0.3818 O   0  5  0  0  0  0  0  0  0  0  0  0
   -5.3750   -0.4235    0.3323 O   0  0  0  0  0  0  0  0  0  0  0  0
    1.0256    0.3318   -0.4349 N   0  0  0  0  0  0  0  0  0  0  0  0
   -0.8557   -2.0608   -0.2717 N   0  0  0  0  0  0  0  0  0  0  0  0
   -3.1274   -1.9194    0.0113 N   0  0  0  0  0  0  0  0  0  0  0  0
   -4.6987    0.6368    0.2803 N   0  3  0  0  0  0  0  0  0  0  0  0
    1.8444    1.5081   -0.5026 C   0  0  0  0  0  0  0  0  0  0  0  0
   -0.3649    0.3737   -0.2621 C   0  0  0  0  0  0  0  0  0  0  0  0
    3.2955    1.1191   -0.7280 C   0  0  0  0  0  0  0  0  0  0  0  0
   -1.1873   -0.7659   -0.1938 C   0  0  0  0  0  0  0  0  0  0  0  0
   -2.6313   -0.6761   -0.0138 C   0  0  0  0  0  0  0  0  0  0  0  0
   -1.0533    1.5947   -0.1424 C   0  0  0  0  0  0  0  0  0  0  0  0
   -3.2999    0.5563    0.1037 C   0  0  0  0  0  0  0  0  0  0  0  0
   -2.4594    1.6820    0.0327 C   0  0  0  0  0  0  0  0  0  0  0  0
    5.4081   -1.2262   -1.0888 C   0  0  0  0  0  0  0  0  0  0  0  0
    1.7694    2.0647    0.4391 H   0  0  0  0  0  0  0  0  0  0  0  0
    1.5241    2.1577   -1.3250 H   0  0  0  0  0  0  0  0  0  0  0  0
    1.4542   -0.5842   -0.5098 H   0  0  0  0  0  0  0  0  0  0  0  0
    3.9198    2.0151   -0.8022 H   0  0  0  0  0  0  0  0  0  0  0  0
    3.3885    0.5472   -1.6559 H   0  0  0  0  0  0  0  0  0  0  0  0
   -0.5152    2.5406   -0.1801 H   0  0  0  0  0  0  0  0  0  0  0  0
   -2.8836    2.6828    0.1143 H   0  0  0  0  0  0  0  0  0  0  0  0
    4.6589   -2.0225   -1.0805 H   0  0  0  0  0  0  0  0  0  0  0  0
    5.2822   -0.6346   -1.9987 H   0  0  0  0  0  0  0  0  0  0  0  0
    6.3990   -1.6877   -1.1299 H   0  0  0  0  0  0  0  0  0  0  0  0
  1  2  1  0  0  0  0
  1  3  1  0  0  0  0
  1  5  2  0  0  0  0
  1 20  1  0  0  0  0
  3 14  1  0  0  0  0
  4  9  1  0  0  0  0
  4 10  1  0  0  0  0
  6 11  1  0  0  0  0
  7 11  2  0  0  0  0
  8 12  1  0  0  0  0
  8 13  1  0  0  0  0
  8 23  1  0  0  0  0
  9 15  2  0  0  0  0
 10 16  2  0  0  0  0
 11 18  1  0  0  0  0
 12 14  1  0  0  0  0
 12 21  1  0  0  0  0
 12 22  1  0  0  0  0
 13 15  1  0  0  0  0
 13 17  2  0  0  0  0
 14 24  1  0  0  0  0
 14 25  1  0  0  0  0
 15 16  1  0  0  0  0
 16 18  1  0  0  0  0
 17 19  1  0  0  0  0
 17 26  1  0  0  0  0
 18 19  2  0  0  0  0
 19 27  1  0  0  0  0
 20 28  1  0  0  0  0
 20 29  1  0  0  0  0
 20 30  1  0  0  0  0
M  CHG  2   6  -1  11   1
M  END
> <PUBCHEM_COMPOUND_CID>
125902

> <PUBCHEM_CONFORMER_RMSD>
0.8

> <PUBCHEM_CONFORMER_DIVERSEORDER>
4
103
25
111
9
35
99
91
87
52
107
12
1
123
28
85
45
57
32
110
19
69
17
120
15
118
7
74
61
96
20
102
104
64
3
75
88
8
29
113
68
5
114
42
106
92
55
71
2
90
109
89
63
37
116
108
18
70
47
97
39
72
59
58
95
78
10
24
13
105
14
84
44
94
41
122
117
6
79
65
98
100
101
50
36
112
27
119
66
115
53
31
16
82
38
93
56
48
26
21
43
49
81
62
22
76
80
77
83
46
33
67
121
11
60
73
30
51
86
23
34
54
40

> <PUBCHEM_MMFF94_PARTIAL_CHARGES>
22
1 1.3
10 -0.41
11 0.91
12 0.37
13 0.1
14 0.28
15 0.29
16 0.29
17 -0.15
18 0.13
19 -0.15
2 -0.33
23 0.4
26 0.15
27 0.15
3 -0.55
4 0.24
5 -0.7
6 -0.52
7 -0.52
8 -0.87
9 -0.41

> <PUBCHEM_EFFECTIVE_ROTOR_COUNT>
6

> <PUBCHEM_PHARMACOPHORE_FEATURES>
9
1 10 acceptor
1 6 acceptor
1 6 anion
1 7 acceptor
1 8 cation
1 8 donor
1 9 acceptor
5 4 9 10 15 16 rings
6 13 15 16 17 18 19 rings

> <PUBCHEM_HEAVY_ATOM_COUNT>
20

> <PUBCHEM_ATOM_DEF_STEREO_COUNT>
0

> <PUBCHEM_ATOM_UDEF_STEREO_COUNT>
1

> <PUBCHEM_BOND_DEF_STEREO_COUNT>
0

> <PUBCHEM_BOND_UDEF_STEREO_COUNT>
0

> <PUBCHEM_ISOTOPIC_ATOM_COUNT>
0

> <PUBCHEM_COMPONENT_COUNT>
1

> <PUBCHEM_CACTVS_TAUTO_COUNT>
2

> <PUBCHEM_CONFORMER_ID>
0001EBCE00000004

> <PUBCHEM_MMFF94_ENERGY>
51.4303

> <PUBCHEM_FEATURE_SELFOVERLAP>
45.931

> <PUBCHEM_SHAPE_FINGERPRINT>
11405975 8 18339079401487053000
12236239 1 18040154015470462064
13167823 11 18261392278234866216
13533116 47 17131556029655134254
13551218 46 18261107418454973298
13862211 1 18339080497262661695
14341114 176 18341618114091011400
14420673 8 18337112242463286858
15042514 8 18337115678426184347
15196674 1 18338519741420174796
15537594 2 17894352164321432106
17804303 29 18412266163896479044
1813 80 17168150009915204508
19141452 34 18409729577712457462
21267235 1 18335149695109770207
21478907 32 17908141332872069607
21859007 373 17970047990068882140
2215653 11 18059862718880950846
23402539 116 18272365374073213037
23559900 14 18272372009961267268
3004659 81 18334301963930630972
335352 9 18410577288345604501
351380 3 17748822999896789552
4214541 1 18410856585905718964
5104073 3 18338519754242046600
559249 180 18261386728461938635
573450 72 18409443721927146410
5924683 9 17988071326341496607
59755656 215 18269278975987482030
67856867 119 18190744335524688716
7226269 152 17988646272455145281

> <PUBCHEM_SHAPE_MULTIPOLES>
358.9
13.68
2.16
0.84
13.27
0.89
-0.1
-0.04
-2.72
-1.42
0.17
1.18
0.11
-0.32

> <PUBCHEM_SHAPE_SELFOVERLAP>
735.787

> <PUBCHEM_SHAPE_VOLUME>
209.2

> <PUBCHEM_COORDINATE_TYPE>
2
5
10

$$$$
