125924
  -OEChem-03292013323D

 29 30  0     1  0  0  0  0  0999 V2000
   -1.5237   -0.1297    1.3154 S   0  0  0  0  0  0  0  0  0  0  0  0
   -3.1707    2.1233   -0.3990 O   0  0  0  0  0  0  0  0  0  0  0  0
   -3.3883   -2.5025    0.8128 O   0  0  0  0  0  0  0  0  0  0  0  0
    1.8240    2.2595    0.8168 O   0  0  0  0  0  0  0  0  0  0  0  0
    0.8016    0.3367    0.0524 N   0  0  0  0  0  0  0  0  0  0  0  0
    3.1985    0.5377    0.2709 N   0  0  0  0  0  0  0  0  0  0  0  0
    4.6015   -1.2296   -0.2919 N   0  0  0  0  0  0  0  0  0  0  0  0
   -2.7734    0.8250   -0.8386 C   0  0  1  0  0  0  0  0  0  0  0  0
   -1.2828    0.8132   -1.1628 C   0  0  0  0  0  0  0  0  0  0  0  0
   -3.0186   -0.2067    0.2643 C   0  0  1  0  0  0  0  0  0  0  0  0
   -0.5301    0.8565    0.1624 C   0  0  1  0  0  0  0  0  0  0  0  0
   -3.1774   -1.6226   -0.2770 C   0  0  0  0  0  0  0  0  0  0  0  0
    0.9768   -0.9589   -0.4123 C   0  0  0  0  0  0  0  0  0  0  0  0
    1.9424    1.1050    0.4023 C   0  0  0  0  0  0  0  0  0  0  0  0
    2.1761   -1.5219   -0.5470 C   0  0  0  0  0  0  0  0  0  0  0  0
    3.3443   -0.6848   -0.1686 C   0  0  0  0  0  0  0  0  0  0  0  0
   -3.3700    0.5996   -1.7293 H   0  0  0  0  0  0  0  0  0  0  0  0
   -1.0569   -0.0691   -1.7709 H   0  0  0  0  0  0  0  0  0  0  0  0
   -1.0003    1.6829   -1.7687 H   0  0  0  0  0  0  0  0  0  0  0  0
   -0.5141    1.8826    0.5442 H   0  0  0  0  0  0  0  0  0  0  0  0
   -3.8764    0.0613    0.8905 H   0  0  0  0  0  0  0  0  0  0  0  0
   -2.3135   -1.9698   -0.8527 H   0  0  0  0  0  0  0  0  0  0  0  0
   -4.0554   -1.6829   -0.9284 H   0  0  0  0  0  0  0  0  0  0  0  0
   -2.9790    2.7470   -1.1200 H   0  0  0  0  0  0  0  0  0  0  0  0
    0.0960   -1.5361   -0.6664 H   0  0  0  0  0  0  0  0  0  0  0  0
   -2.6028   -2.4543    1.3841 H   0  0  0  0  0  0  0  0  0  0  0  0
    2.3182   -2.5328   -0.9049 H   0  0  0  0  0  0  0  0  0  0  0  0
    4.7472   -2.1754   -0.6292 H   0  0  0  0  0  0  0  0  0  0  0  0
    5.4271   -0.6946   -0.0448 H   0  0  0  0  0  0  0  0  0  0  0  0
  1 10  1  0  0  0  0
  1 11  1  0  0  0  0
  2  8  1  0  0  0  0
  2 24  1  0  0  0  0
  3 12  1  0  0  0  0
  3 26  1  0  0  0  0
  4 14  2  0  0  0  0
  5 11  1  0  0  0  0
  5 13  1  0  0  0  0
  5 14  1  0  0  0  0
  6 14  1  0  0  0  0
  6 16  2  0  0  0  0
  7 16  1  0  0  0  0
  7 28  1  0  0  0  0
  7 29  1  0  0  0  0
  8  9  1  0  0  0  0
  8 10  1  0  0  0  0
  8 17  1  0  0  0  0
  9 11  1  0  0  0  0
  9 18  1  0  0  0  0
  9 19  1  0  0  0  0
 10 12  1  0  0  0  0
 10 21  1  0  0  0  0
 11 20  1  0  0  0  0
 12 22  1  0  0  0  0
 12 23  1  0  0  0  0
 13 15  2  0  0  0  0
 13 25  1  0  0  0  0
 15 16  1  0  0  0  0
 15 27  1  0  0  0  0
M  END
> <PUBCHEM_COMPOUND_CID>
125924

> <PUBCHEM_CONFORMER_RMSD>
0.6

> <PUBCHEM_CONFORMER_DIVERSEORDER>
3
15
20
11
24
5
19
21
16
18
13
17
6
8
4
23
10
22
2
7
9
1
12
14

> <PUBCHEM_MMFF94_PARTIAL_CHARGES>
21
1 -0.46
10 0.23
11 0.53
12 0.28
13 -0.04
14 0.84
15 -0.14
16 0.49
2 -0.68
24 0.4
25 0.15
26 0.4
27 0.15
28 0.4
29 0.4
3 -0.68
4 -0.57
5 -0.47
6 -0.66
7 -0.85
8 0.28

> <PUBCHEM_EFFECTIVE_ROTOR_COUNT>
3

> <PUBCHEM_PHARMACOPHORE_FEATURES>
9
1 2 acceptor
1 2 donor
1 3 acceptor
1 3 donor
1 4 acceptor
1 6 donor
1 7 donor
5 1 8 9 10 11 rings
6 5 6 13 14 15 16 rings

> <PUBCHEM_HEAVY_ATOM_COUNT>
16

> <PUBCHEM_ATOM_DEF_STEREO_COUNT>
2

> <PUBCHEM_ATOM_UDEF_STEREO_COUNT>
1

> <PUBCHEM_BOND_DEF_STEREO_COUNT>
0

> <PUBCHEM_BOND_UDEF_STEREO_COUNT>
0

> <PUBCHEM_ISOTOPIC_ATOM_COUNT>
0

> <PUBCHEM_COMPONENT_COUNT>
1

> <PUBCHEM_CACTVS_TAUTO_COUNT>
3

> <PUBCHEM_CONFORMER_ID>
0001EBE400000003

> <PUBCHEM_MMFF94_ENERGY>
41.9802

> <PUBCHEM_FEATURE_SELFOVERLAP>
45.718

> <PUBCHEM_SHAPE_FINGERPRINT>
10608611 8 18411411821697144829
11543360 7 17603878818576589838
12032990 46 18272093756188682894
12500047 106 18262232201717518925
12932764 1 17676759886266996057
13296908 3 18411417319170439424
13760787 19 17968098556358262794
14115302 16 18261966123882228909
14965852 173 18409448072639430997
15219456 202 18411414033525966640
15375462 6 18266457796459309989
15653759 3 18333448729283972768
16945 1 18271250404346175609
17834074 16 18410854377865241407
17844478 74 18338517551097656023
18175812 5 18409445886226770996
18186145 218 18114453474930863821
19141452 34 18339931519357889211
200 152 17775557637694612039
20201158 50 18339641135742877974
20279233 1 18339923718773658919
20524608 308 18334292025112492101
20645476 183 14129060348194878243
20645477 56 18261956233089647029
20645477 70 17846207822431349908
21501502 16 18334301993172644349
221490 88 18411703226938703322
23402539 116 16660363641317484246
23559900 14 18409440418733584729
2748010 2 18340475759494486445
2871803 45 18262510502824667551
3286 77 18411980303626076020
5104073 3 18413668006956900034
5493415 88 18413388726671514642
57812782 119 18409160047568477635
6049 1 18410571820672979073
69090 78 18337668621179392757
77492 1 16702300161203856600
81228 2 17895197744529136401
8809292 202 18408325471114601331
93112 12 18410851036507259725
9709674 26 18341612594773277735

> <PUBCHEM_SHAPE_MULTIPOLES>
300.57
7.04
2.13
1.01
2.8
0.14
-0.08
2.34
0.31
-0.95
-0.17
-0.48
-0.07
1.11

> <PUBCHEM_SHAPE_SELFOVERLAP>
613.633

> <PUBCHEM_SHAPE_VOLUME>
175.3

> <PUBCHEM_COORDINATE_TYPE>
2
5
10

$$$$
