125932
  -OEChem-03292013323D

 29 28  0     0  0  0  0  0  0999 V2000
    3.9180    0.2398    0.0963 S   0  0  0  0  0  0  0  0  0  0  0  0
    5.0118   -0.8724   -0.3807 O   0  0  0  0  0  0  0  0  0  0  0  0
    3.9279    0.3117    1.5462 O   0  0  0  0  0  0  0  0  0  0  0  0
    4.0742    1.4279   -0.7233 O   0  0  0  0  0  0  0  0  0  0  0  0
   -2.3601   -3.0290   -0.8504 O   0  0  0  0  0  0  0  0  0  0  0  0
   -3.3525    2.5037   -0.8760 O   0  0  0  0  0  0  0  0  0  0  0  0
   -2.3112   -2.3720    1.3241 O   0  0  0  0  0  0  0  0  0  0  0  0
   -2.7059    2.2379    1.2859 O   0  0  0  0  0  0  0  0  0  0  0  0
   -1.2442    0.0306    0.0312 N   0  0  0  0  0  0  0  0  0  0  0  0
   -0.0441   -0.6569   -0.4305 C   0  0  0  0  0  0  0  0  0  0  0  0
    1.2053    0.0835    0.0399 C   0  0  0  0  0  0  0  0  0  0  0  0
    2.4698   -0.6239   -0.4244 C   0  0  0  0  0  0  0  0  0  0  0  0
   -2.4463   -0.6880   -0.3953 C   0  0  0  0  0  0  0  0  0  0  0  0
   -1.2730    1.4074   -0.4655 C   0  0  0  0  0  0  0  0  0  0  0  0
   -2.3791   -2.0941    0.1334 C   0  0  0  0  0  0  0  0  0  0  0  0
   -2.4906    2.0937    0.0891 C   0  0  0  0  0  0  0  0  0  0  0  0
   -0.0336   -0.7432   -1.5254 H   0  0  0  0  0  0  0  0  0  0  0  0
    0.0199   -1.6725   -0.0239 H   0  0  0  0  0  0  0  0  0  0  0  0
    1.2024    0.1729    1.1334 H   0  0  0  0  0  0  0  0  0  0  0  0
    1.2618    1.0967   -0.3680 H   0  0  0  0  0  0  0  0  0  0  0  0
    2.5041   -0.7004   -1.5158 H   0  0  0  0  0  0  0  0  0  0  0  0
    2.5178   -1.6305    0.0041 H   0  0  0  0  0  0  0  0  0  0  0  0
   -2.5419   -0.7088   -1.4883 H   0  0  0  0  0  0  0  0  0  0  0  0
   -3.3705   -0.2603    0.0088 H   0  0  0  0  0  0  0  0  0  0  0  0
   -1.2804    1.4519   -1.5615 H   0  0  0  0  0  0  0  0  0  0  0  0
   -0.4457    2.0274   -0.1093 H   0  0  0  0  0  0  0  0  0  0  0  0
    5.0396   -1.6983    0.1574 H   0  0  0  0  0  0  0  0  0  0  0  0
   -2.2961   -3.9388   -0.4891 H   0  0  0  0  0  0  0  0  0  0  0  0
   -4.1499    2.9312   -0.4967 H   0  0  0  0  0  0  0  0  0  0  0  0
  1  2  1  0  0  0  0
  1  3  2  0  0  0  0
  1  4  2  0  0  0  0
  1 12  1  0  0  0  0
  2 27  1  0  0  0  0
  5 15  1  0  0  0  0
  5 28  1  0  0  0  0
  6 16  1  0  0  0  0
  6 29  1  0  0  0  0
  7 15  2  0  0  0  0
  8 16  2  0  0  0  0
  9 10  1  0  0  0  0
  9 13  1  0  0  0  0
  9 14  1  0  0  0  0
 10 11  1  0  0  0  0
 10 17  1  0  0  0  0
 10 18  1  0  0  0  0
 11 12  1  0  0  0  0
 11 19  1  0  0  0  0
 11 20  1  0  0  0  0
 12 21  1  0  0  0  0
 12 22  1  0  0  0  0
 13 15  1  0  0  0  0
 13 23  1  0  0  0  0
 13 24  1  0  0  0  0
 14 16  1  0  0  0  0
 14 25  1  0  0  0  0
 14 26  1  0  0  0  0
M  END
> <PUBCHEM_COMPOUND_CID>
125932

> <PUBCHEM_CONFORMER_RMSD>
0.8

> <PUBCHEM_CONFORMER_DIVERSEORDER>
1
13
3
33
12
38
39
17
36
25
35
32
14
10
37
11
5
16
7
18
34
30
20
28
21
29
27
31
6
23
26
4
19
2
15
24
8
9
22

> <PUBCHEM_MMFF94_PARTIAL_CHARGES>
18
1 1.38
10 0.27
12 0.11
13 0.33
14 0.33
15 0.66
16 0.66
2 -0.68
27 0.5
28 0.5
29 0.5
3 -0.65
4 -0.65
5 -0.65
6 -0.65
7 -0.57
8 -0.57
9 -0.81

> <PUBCHEM_EFFECTIVE_ROTOR_COUNT>
8

> <PUBCHEM_PHARMACOPHORE_FEATURES>
11
1 2 acceptor
1 3 acceptor
1 4 acceptor
1 5 acceptor
1 6 acceptor
1 7 acceptor
1 8 acceptor
1 9 cation
3 5 7 15 anion
3 6 8 16 anion
4 1 2 3 4 anion

> <PUBCHEM_HEAVY_ATOM_COUNT>
16

> <PUBCHEM_ATOM_DEF_STEREO_COUNT>
0

> <PUBCHEM_ATOM_UDEF_STEREO_COUNT>
0

> <PUBCHEM_BOND_DEF_STEREO_COUNT>
0

> <PUBCHEM_BOND_UDEF_STEREO_COUNT>
0

> <PUBCHEM_ISOTOPIC_ATOM_COUNT>
0

> <PUBCHEM_COMPONENT_COUNT>
1

> <PUBCHEM_CACTVS_TAUTO_COUNT>
1

> <PUBCHEM_CONFORMER_ID>
0001EBEC00000001

> <PUBCHEM_MMFF94_ENERGY>
24.9021

> <PUBCHEM_FEATURE_SELFOVERLAP>
55.996

> <PUBCHEM_SHAPE_FINGERPRINT>
11357001 24 18334300894051205403
11405975 8 18340486678066094610
12500047 106 18339640027931388046
12932764 1 17168139010488238540
14289901 80 18339080492735637714
15806764 133 17632030731585162472
1741750 31 18341894026441242241
204376 136 18265900142696605609
20645477 56 18339367365942836125
20645477 70 16916789522860333958
20681677 76 18058999683804959216
21339142 126 18341053016395687183
21524375 3 18054501414020973917
22943178 12 18060139838787333054
2306618 200 17988650713287571523
23402539 116 18342731940992420023
23500284 214 18200880552188509129
23503958 25 18060136600434973472
23532345 11 18335423460836605446
23557571 272 18272380775656943124
23559900 14 18271526374108691014
23598288 3 18335431204757618367
312423 11 18041009487583597444
474229 33 18338238168376790349
5104073 3 18410571782793357408
559249 180 18263919939471877474
6049 1 17917145113047266048
7615 1 17749680683111493572
81228 2 18336837463171194411

> <PUBCHEM_SHAPE_MULTIPOLES>
287.06
8.34
2.93
1.04
11.13
0.47
-0.32
-1.14
-0.2
-4.66
0.02
-0.04
-0.03
0.09

> <PUBCHEM_SHAPE_SELFOVERLAP>
545.661

> <PUBCHEM_SHAPE_VOLUME>
176.7

> <PUBCHEM_COORDINATE_TYPE>
2
5
10

$$$$
