126008
  -OEChem-03292013323D

 43 47  0     1  0  0  0  0  0999 V2000
    3.4606    2.6304    0.5124 S   0  0  0  0  0  0  0  0  0  0  0  0
   -4.1233   -1.7499    0.6298 O   0  0  0  0  0  0  0  0  0  0  0  0
   -5.3317    2.4051    0.5900 O   0  0  0  0  0  0  0  0  0  0  0  0
   -1.8823   -3.5445    0.1906 O   0  0  0  0  0  0  0  0  0  0  0  0
    3.4194    1.5514   -0.7244 O   0  0  0  0  0  0  0  0  0  0  0  0
    3.0964   -3.8275    0.4508 O   0  0  0  0  0  0  0  0  0  0  0  0
    3.4816    4.0823   -0.2336 O   0  0  0  0  0  0  0  0  0  0  0  0
    2.2247    2.5344    1.2672 O   0  0  0  0  0  0  0  0  0  0  0  0
    4.7356    2.4721    1.1878 O   0  0  0  0  0  0  0  0  0  0  0  0
   -1.6728    0.6316   -0.7461 C   0  0  2  0  0  0  0  0  0  0  0  0
   -1.6944    2.0531   -0.1010 C   0  0  0  0  0  0  0  0  0  0  0  0
   -2.8295   -0.1005   -0.1680 C   0  0  0  0  0  0  0  0  0  0  0  0
   -0.4324   -0.2317   -0.4225 C   0  0  0  0  0  0  0  0  0  0  0  0
   -3.0744    2.7571   -0.2031 C   0  0  0  0  0  0  0  0  0  0  0  0
   -1.8058    0.7288   -2.2797 C   0  0  0  0  0  0  0  0  0  0  0  0
   -4.0336    0.4765    0.2744 C   0  0  0  0  0  0  0  0  0  0  0  0
   -2.9003   -1.4273    0.1371 C   0  0  0  0  0  0  0  0  0  0  0  0
   -0.4889   -1.6241   -0.1210 C   0  0  0  0  0  0  0  0  0  0  0  0
   -4.2590    1.9026    0.2696 C   0  0  0  0  0  0  0  0  0  0  0  0
   -1.8032   -2.3310    0.0655 C   0  0  0  0  0  0  0  0  0  0  0  0
    0.8426    0.3565   -0.5260 C   0  0  0  0  0  0  0  0  0  0  0  0
   -4.8176   -0.5688    0.7098 C   0  0  0  0  0  0  0  0  0  0  0  0
    0.6833   -2.3687    0.0692 C   0  0  0  0  0  0  0  0  0  0  0  0
    2.0241   -0.3820   -0.3316 C   0  0  0  0  0  0  0  0  0  0  0  0
    1.9426   -1.7598   -0.0323 C   0  0  0  0  0  0  0  0  0  0  0  0
    3.2879    0.2228   -0.4353 C   0  0  0  0  0  0  0  0  0  0  0  0
    3.1254   -2.4931    0.1590 C   0  0  0  0  0  0  0  0  0  0  0  0
    4.4532   -0.5197   -0.2429 C   0  0  0  0  0  0  0  0  0  0  0  0
    4.3720   -1.8762    0.0542 C   0  0  0  0  0  0  0  0  0  0  0  0
   -0.9381    2.7022   -0.5583 H   0  0  0  0  0  0  0  0  0  0  0  0
   -1.4312    1.9721    0.9636 H   0  0  0  0  0  0  0  0  0  0  0  0
   -3.2714    3.0527   -1.2394 H   0  0  0  0  0  0  0  0  0  0  0  0
   -3.0508    3.6676    0.4065 H   0  0  0  0  0  0  0  0  0  0  0  0
   -0.9803    1.3040   -2.7146 H   0  0  0  0  0  0  0  0  0  0  0  0
   -1.7957   -0.2633   -2.7488 H   0  0  0  0  0  0  0  0  0  0  0  0
   -2.7425    1.2100   -2.5815 H   0  0  0  0  0  0  0  0  0  0  0  0
    0.9066    1.4059   -0.8050 H   0  0  0  0  0  0  0  0  0  0  0  0
   -5.8120   -0.6450    1.1254 H   0  0  0  0  0  0  0  0  0  0  0  0
    0.6119   -3.4276    0.3095 H   0  0  0  0  0  0  0  0  0  0  0  0
    5.4281   -0.0469   -0.3264 H   0  0  0  0  0  0  0  0  0  0  0  0
    5.2886   -2.4415    0.2007 H   0  0  0  0  0  0  0  0  0  0  0  0
    4.0068   -4.1560    0.5461 H   0  0  0  0  0  0  0  0  0  0  0  0
    4.1196    4.1624   -0.9809 H   0  0  0  0  0  0  0  0  0  0  0  0
  1  5  1  0  0  0  0
  1  7  1  0  0  0  0
  1  8  2  0  0  0  0
  1  9  2  0  0  0  0
  2 17  1  0  0  0  0
  2 22  1  0  0  0  0
  3 19  2  0  0  0  0
  4 20  2  0  0  0  0
  5 26  1  0  0  0  0
  6 27  1  0  0  0  0
  6 42  1  0  0  0  0
  7 43  1  0  0  0  0
 10 11  1  0  0  0  0
 10 12  1  0  0  0  0
 10 13  1  0  0  0  0
 10 15  1  0  0  0  0
 11 14  1  0  0  0  0
 11 30  1  0  0  0  0
 11 31  1  0  0  0  0
 12 16  1  0  0  0  0
 12 17  2  0  0  0  0
 13 18  1  0  0  0  0
 13 21  2  0  0  0  0
 14 19  1  0  0  0  0
 14 32  1  0  0  0  0
 14 33  1  0  0  0  0
 15 34  1  0  0  0  0
 15 35  1  0  0  0  0
 15 36  1  0  0  0  0
 16 19  1  0  0  0  0
 16 22  2  0  0  0  0
 17 20  1  0  0  0  0
 18 20  1  0  0  0  0
 18 23  2  0  0  0  0
 21 24  1  0  0  0  0
 21 37  1  0  0  0  0
 22 38  1  0  0  0  0
 23 25  1  0  0  0  0
 23 39  1  0  0  0  0
 24 25  1  0  0  0  0
 24 26  2  0  0  0  0
 25 27  2  0  0  0  0
 26 28  1  0  0  0  0
 27 29  1  0  0  0  0
 28 29  2  0  0  0  0
 28 40  1  0  0  0  0
 29 41  1  0  0  0  0
M  END
> <PUBCHEM_COMPOUND_CID>
126008

> <PUBCHEM_CONFORMER_RMSD>
0.6

> <PUBCHEM_CONFORMER_DIVERSEORDER>
1
2
3

> <PUBCHEM_MMFF94_PARTIAL_CHARGES>
32
1 1.67
10 0.32
12 -0.18
13 -0.14
14 0.06
16 -0.09
17 0.05
18 0.09
19 0.6
2 -0.28
20 0.57
21 -0.15
22 -0.01
23 -0.15
26 0.08
27 0.08
28 -0.15
29 -0.15
3 -0.57
37 0.15
38 0.15
39 0.15
4 -0.57
40 0.15
41 0.15
42 0.45
43 0.5
5 -0.27
6 -0.53
7 -0.68
8 -0.65
9 -0.65

> <PUBCHEM_EFFECTIVE_ROTOR_COUNT>
2.4

> <PUBCHEM_PHARMACOPHORE_FEATURES>
13
1 2 acceptor
1 3 acceptor
1 4 acceptor
1 6 donor
1 7 acceptor
1 8 acceptor
1 9 acceptor
4 1 7 8 9 anion
5 2 12 16 17 22 rings
6 10 11 12 14 16 19 rings
6 10 12 13 17 18 20 rings
6 13 18 21 23 24 25 rings
6 24 25 26 27 28 29 rings

> <PUBCHEM_HEAVY_ATOM_COUNT>
29

> <PUBCHEM_ATOM_DEF_STEREO_COUNT>
1

> <PUBCHEM_ATOM_UDEF_STEREO_COUNT>
0

> <PUBCHEM_BOND_DEF_STEREO_COUNT>
0

> <PUBCHEM_BOND_UDEF_STEREO_COUNT>
0

> <PUBCHEM_ISOTOPIC_ATOM_COUNT>
0

> <PUBCHEM_COMPONENT_COUNT>
1

> <PUBCHEM_CACTVS_TAUTO_COUNT>
12

> <PUBCHEM_CONFORMER_ID>
0001EC3800000001

> <PUBCHEM_MMFF94_ENERGY>
83.1571

> <PUBCHEM_FEATURE_SELFOVERLAP>
66.311

> <PUBCHEM_SHAPE_FINGERPRINT>
10165383 225 18261406515904130412
10319926 262 18339070575851083762
1100329 8 17979356360961609321
11578080 2 17560220540100013394
11595378 159 17603852438360086408
12107183 9 17687748238024090851
12403259 226 18116993286930366926
12633257 1 18197789803875972105
12788726 201 17489317330208015352
12892183 10 18336273439470882239
12925494 130 18194682558463195729
13140716 1 18336834083200653163
13757389 114 17330851621793953380
14081887 123 18266738171887151273
14178342 30 18190741027829424278
14223421 5 18408320007884350990
14341114 176 18192721050517943303
14466204 15 17978224959233042824
14790565 3 18339649945396061297
14849402 71 18336548309289252920
14955137 171 18196937656705872862
15196674 1 18335988554163680903
1813 80 16371304228876959967
19591789 44 18409450254488046583
19930381 70 18265894833536779176
21033648 144 18337379474679318845
21033648 29 17677320603096315829
21065198 57 18410576158589610187
21133410 127 18040713718614401028
21756936 100 17912920875642526596
21859007 373 17388520628376579349
22122407 14 18058463002114718273
23227448 37 18343301508883568399
23559900 14 18269836419766741390
335352 9 18192997019383919951
350125 39 18335707135052713110
392239 28 18269851847848282593
469060 322 17688328088695070691
5104073 3 18334860498082737371
6287921 2 18189622807514225788
7808743 9 17617659204209276472
9709674 26 18411144601669800335
9981440 41 18193269926290745802

> <PUBCHEM_SHAPE_MULTIPOLES>
553.7
10.16
4.4
1
1.18
0.78
0.33
3.44
-2.17
-2.98
-0.92
0.18
0.39
0.6

> <PUBCHEM_SHAPE_SELFOVERLAP>
1252.835

> <PUBCHEM_SHAPE_VOLUME>
293.2

> <PUBCHEM_COORDINATE_TYPE>
2
5
10

$$$$
