126051
  -OEChem-03292013323D

 30 30  0     0  0  0  0  0  0999 V2000
    3.4037   -0.1390   -0.2001 S   0  0  0  0  0  0  0  0  0  0  0  0
    3.5505   -1.3166   -1.0389 O   0  0  0  0  0  0  0  0  0  0  0  0
    3.8150    1.1684   -0.6830 O   0  0  0  0  0  0  0  0  0  0  0  0
   -1.2247   -1.9037   -0.6254 O   0  0  0  0  0  0  0  0  0  0  0  0
   -4.0968   -1.8523    0.1876 O   0  5  0  0  0  0  0  0  0  0  0  0
   -4.8899    0.1260    0.7249 O   0  0  0  0  0  0  0  0  0  0  0  0
   -0.6283    0.3674   -0.4310 N   0  0  0  0  0  0  0  0  0  0  0  0
   -2.5046    1.3137    0.2450 N   0  0  0  0  0  0  0  0  0  0  0  0
   -3.9383   -0.6093    0.3411 N   0  3  0  0  0  0  0  0  0  0  0  0
    1.7186   -0.0332    0.3136 C   0  0  0  0  0  0  0  0  0  0  0  0
    0.7655    0.2338   -0.8427 C   0  0  0  0  0  0  0  0  0  0  0  0
    4.2774   -0.4493    1.3174 C   0  0  0  0  0  0  0  0  0  0  0  0
   -1.2466    1.5234   -0.0738 C   0  0  0  0  0  0  0  0  0  0  0  0
   -1.5278   -0.6461   -0.3404 C   0  0  0  0  0  0  0  0  0  0  0  0
    5.7664   -0.5745    1.0845 C   0  0  0  0  0  0  0  0  0  0  0  0
   -2.6862   -0.0368    0.0814 C   0  0  0  0  0  0  0  0  0  0  0  0
   -0.5540    2.8280   -0.0601 C   0  0  0  0  0  0  0  0  0  0  0  0
    1.6564    0.7645    1.0608 H   0  0  0  0  0  0  0  0  0  0  0  0
    1.4671   -0.9788    0.8056 H   0  0  0  0  0  0  0  0  0  0  0  0
    1.0454    1.1571   -1.3628 H   0  0  0  0  0  0  0  0  0  0  0  0
    0.8278   -0.5506   -1.6049 H   0  0  0  0  0  0  0  0  0  0  0  0
    4.0649    0.3815    1.9967 H   0  0  0  0  0  0  0  0  0  0  0  0
    3.8780   -1.3734    1.7454 H   0  0  0  0  0  0  0  0  0  0  0  0
    6.2846   -0.7650    2.0293 H   0  0  0  0  0  0  0  0  0  0  0  0
    5.9924   -1.3987    0.4003 H   0  0  0  0  0  0  0  0  0  0  0  0
    6.1778    0.3421    0.6496 H   0  0  0  0  0  0  0  0  0  0  0  0
    0.3406    2.7996    0.5688 H   0  0  0  0  0  0  0  0  0  0  0  0
   -0.2670    3.1296   -1.0722 H   0  0  0  0  0  0  0  0  0  0  0  0
   -1.2139    3.6042    0.3413 H   0  0  0  0  0  0  0  0  0  0  0  0
   -0.2702   -1.9900   -0.7771 H   0  0  0  0  0  0  0  0  0  0  0  0
  1  2  2  0  0  0  0
  1  3  2  0  0  0  0
  1 10  1  0  0  0  0
  1 12  1  0  0  0  0
  4 14  1  0  0  0  0
  4 30  1  0  0  0  0
  5  9  1  0  0  0  0
  6  9  2  0  0  0  0
  7 11  1  0  0  0  0
  7 13  1  0  0  0  0
  7 14  1  0  0  0  0
  8 13  2  0  0  0  0
  8 16  1  0  0  0  0
  9 16  1  0  0  0  0
 10 11  1  0  0  0  0
 10 18  1  0  0  0  0
 10 19  1  0  0  0  0
 11 20  1  0  0  0  0
 11 21  1  0  0  0  0
 12 15  1  0  0  0  0
 12 22  1  0  0  0  0
 12 23  1  0  0  0  0
 13 17  1  0  0  0  0
 14 16  2  0  0  0  0
 15 24  1  0  0  0  0
 15 25  1  0  0  0  0
 15 26  1  0  0  0  0
 17 27  1  0  0  0  0
 17 28  1  0  0  0  0
 17 29  1  0  0  0  0
M  CHG  2   5  -1   9   1
M  END
> <PUBCHEM_COMPOUND_CID>
126051

> <PUBCHEM_CONFORMER_RMSD>
0.6

> <PUBCHEM_CONFORMER_DIVERSEORDER>
1
8
27
17
19
14
18
11
25
29
7
5
9
2
16
3
28
10
4
21
15
13
23
26
6
12
24
22
20

> <PUBCHEM_MMFF94_PARTIAL_CHARGES>
17
1 1.09
10 0.11
11 0.26
12 0.11
13 0.01
14 -0.09
16 0.31
17 0.18
2 -0.65
3 -0.65
30 0.45
4 -0.51
5 -0.52
6 -0.52
7 0.05
8 -0.57
9 0.96

> <PUBCHEM_EFFECTIVE_ROTOR_COUNT>
5

> <PUBCHEM_PHARMACOPHORE_FEATURES>
8
1 2 acceptor
1 3 acceptor
1 4 donor
1 5 acceptor
1 5 anion
1 6 acceptor
3 7 8 13 cation
5 7 8 13 14 16 rings

> <PUBCHEM_HEAVY_ATOM_COUNT>
17

> <PUBCHEM_ATOM_DEF_STEREO_COUNT>
0

> <PUBCHEM_ATOM_UDEF_STEREO_COUNT>
0

> <PUBCHEM_BOND_DEF_STEREO_COUNT>
0

> <PUBCHEM_BOND_UDEF_STEREO_COUNT>
0

> <PUBCHEM_ISOTOPIC_ATOM_COUNT>
0

> <PUBCHEM_COMPONENT_COUNT>
1

> <PUBCHEM_CACTVS_TAUTO_COUNT>
1

> <PUBCHEM_CONFORMER_ID>
0001EC6300000001

> <PUBCHEM_MMFF94_ENERGY>
16.1743

> <PUBCHEM_FEATURE_SELFOVERLAP>
40.694

> <PUBCHEM_SHAPE_FINGERPRINT>
10465860 250 18408039619793036801
11132069 177 18202845443801858599
12236239 1 17821731628249915892
12251169 10 18131348630980452388
12507560 40 17988641831727381998
13862211 1 18410571829748320775
14178342 30 18119240667633920648
14420673 8 17762052139230412218
15342168 16 15051439579205544928
15375462 189 18186515527149749698
17862501 102 18040428868045101674
1813 80 17676494912976500478
19050596 39 18410853287412780222
19784866 240 16732981982048749746
200 152 16081083758195578704
20112054 13 15554446310205702184
20510252 161 18201158745725783640
20645477 56 17774995787342469588
20645477 70 14562531752553232434
20671657 53 17168147857488034885
21065199 12 18199743662066699018
21650355 55 18410852166110064737
22854114 59 17060338530645069698
22959321 94 18408035221767631290
2297311 6 18343029865641009644
23366157 5 17828487195422153885
23402539 116 18271516555164378591
23402655 69 11024104370004730746
23532345 42 18272375290682889117
23557571 272 18129678399798506140
23559900 14 18127422154957154014
26918003 58 17967811652089040667
2838139 119 14619687583737155387
312423 11 18040727935303068492
42 15 18408885131355033018
43471831 8 18262801740008931971
474 4 17315087790495712668
5104073 3 18338804519263926369
5374978 207 18410012148011524840
69474 34 18131626807301467649

> <PUBCHEM_SHAPE_MULTIPOLES>
309.41
10.29
1.92
0.97
6.32
0.92
0.05
-3.7
3.53
-1.32
-0.17
0.89
-0.14
-0.25

> <PUBCHEM_SHAPE_SELFOVERLAP>
617.29

> <PUBCHEM_SHAPE_VOLUME>
185.7

> <PUBCHEM_COORDINATE_TYPE>
2
5
10

$$$$
