126049
  -OEChem-03292013323D

 55 58  0     1  0  0  0  0  0999 V2000
   -3.0799    0.5082   -2.0015 O   0  0  0  0  0  0  0  0  0  0  0  0
   -2.9182   -1.2072    1.7331 O   0  0  0  0  0  0  0  0  0  0  0  0
    0.4998   -2.4690    0.4320 O   0  0  0  0  0  0  0  0  0  0  0  0
   -5.0253    0.2810    0.8040 O   0  0  0  0  0  0  0  0  0  0  0  0
   -5.9744   -1.8308   -0.5592 O   0  0  0  0  0  0  0  0  0  0  0  0
    6.5571   -0.3006   -1.1103 O   0  0  0  0  0  0  0  0  0  0  0  0
   -1.8245    0.1096    0.0665 C   0  0  1  0  0  0  0  0  0  0  0  0
   -0.8729    1.2890   -0.2496 C   0  0  2  0  0  0  0  0  0  0  0  0
    0.5211    1.1190    0.3711 C   0  0  1  0  0  0  0  0  0  0  0  0
    1.1713   -0.1884   -0.1735 C   0  0  1  0  0  0  0  0  0  0  0  0
   -3.1241    0.6465   -0.5840 C   0  0  1  0  0  0  0  0  0  0  0  0
   -1.6902    2.5203    0.1352 C   0  0  0  0  0  0  0  0  0  0  0  0
    2.6246   -0.4323    0.3797 C   0  0  2  0  0  0  0  0  0  0  0  0
   -1.2249   -1.1534   -0.5591 C   0  0  0  0  0  0  0  0  0  0  0  0
   -3.1439    2.1445   -0.2134 C   0  0  0  0  0  0  0  0  0  0  0  0
    1.4183    2.3223    0.0553 C   0  0  0  0  0  0  0  0  0  0  0  0
    0.1852   -1.3708   -0.0230 C   0  0  0  0  0  0  0  0  0  0  0  0
   -2.0310   -0.1245    1.5889 C   0  0  0  0  0  0  0  0  0  0  0  0
    3.4527    0.8518    0.2056 C   0  0  0  0  0  0  0  0  0  0  0  0
    2.8074    2.1426    0.6515 C   0  0  0  0  0  0  0  0  0  0  0  0
    3.2782   -1.5873   -0.4361 C   0  0  0  0  0  0  0  0  0  0  0  0
   -4.3740   -0.0736   -0.1775 C   0  0  0  0  0  0  0  0  0  0  0  0
    2.6276   -0.7907    1.8832 C   0  0  0  0  0  0  0  0  0  0  0  0
    4.7873   -1.6758   -0.2697 C   0  0  0  0  0  0  0  0  0  0  0  0
    4.7025    0.8822   -0.2873 C   0  0  0  0  0  0  0  0  0  0  0  0
    5.4302   -0.3621   -0.6230 C   0  0  0  0  0  0  0  0  0  0  0  0
   -4.7801   -1.2505   -1.0389 C   0  0  0  0  0  0  0  0  0  0  0  0
   -0.7281    1.3429   -1.3411 H   0  0  0  0  0  0  0  0  0  0  0  0
    0.4183    1.0567    1.4601 H   0  0  0  0  0  0  0  0  0  0  0  0
    1.2682   -0.0637   -1.2644 H   0  0  0  0  0  0  0  0  0  0  0  0
   -1.3698    3.4105   -0.4158 H   0  0  0  0  0  0  0  0  0  0  0  0
   -1.5997    2.7441    1.2041 H   0  0  0  0  0  0  0  0  0  0  0  0
   -1.1429   -1.0768   -1.6494 H   0  0  0  0  0  0  0  0  0  0  0  0
   -1.8218   -2.0451   -0.3451 H   0  0  0  0  0  0  0  0  0  0  0  0
   -3.7809    2.3714    0.6482 H   0  0  0  0  0  0  0  0  0  0  0  0
   -3.4952    2.7625   -1.0477 H   0  0  0  0  0  0  0  0  0  0  0  0
    0.9787    3.2404    0.4620 H   0  0  0  0  0  0  0  0  0  0  0  0
    1.4967    2.4610   -1.0309 H   0  0  0  0  0  0  0  0  0  0  0  0
   -2.4593    0.7459    2.0947 H   0  0  0  0  0  0  0  0  0  0  0  0
   -1.1013   -0.3835    2.1029 H   0  0  0  0  0  0  0  0  0  0  0  0
    2.7408    2.1480    1.7465 H   0  0  0  0  0  0  0  0  0  0  0  0
    3.4204    3.0105    0.3784 H   0  0  0  0  0  0  0  0  0  0  0  0
    3.0626   -1.4469   -1.5047 H   0  0  0  0  0  0  0  0  0  0  0  0
    2.8499   -2.5568   -0.1609 H   0  0  0  0  0  0  0  0  0  0  0  0
    3.6462   -0.8105    2.2887 H   0  0  0  0  0  0  0  0  0  0  0  0
    2.0637   -0.0695    2.4829 H   0  0  0  0  0  0  0  0  0  0  0  0
    2.1954   -1.7778    2.0712 H   0  0  0  0  0  0  0  0  0  0  0  0
   -3.7890    1.0515   -2.3862 H   0  0  0  0  0  0  0  0  0  0  0  0
    5.1780   -2.4460   -0.9440 H   0  0  0  0  0  0  0  0  0  0  0  0
    5.0698   -1.9436    0.7532 H   0  0  0  0  0  0  0  0  0  0  0  0
    5.2496    1.8117   -0.4053 H   0  0  0  0  0  0  0  0  0  0  0  0
   -3.0482   -1.3513    2.6858 H   0  0  0  0  0  0  0  0  0  0  0  0
   -4.0022   -2.0151   -1.0161 H   0  0  0  0  0  0  0  0  0  0  0  0
   -4.9630   -0.9396   -2.0703 H   0  0  0  0  0  0  0  0  0  0  0  0
   -6.6827   -1.1726   -0.6626 H   0  0  0  0  0  0  0  0  0  0  0  0
  1 11  1  0  0  0  0
  1 48  1  0  0  0  0
  2 18  1  0  0  0  0
  2 52  1  0  0  0  0
  3 17  2  0  0  0  0
  4 22  2  0  0  0  0
  5 27  1  0  0  0  0
  5 55  1  0  0  0  0
  6 26  2  0  0  0  0
  7  8  1  0  0  0  0
  7 11  1  0  0  0  0
  7 14  1  0  0  0  0
  7 18  1  0  0  0  0
  8  9  1  0  0  0  0
  8 12  1  0  0  0  0
  8 28  1  0  0  0  0
  9 10  1  0  0  0  0
  9 16  1  0  0  0  0
  9 29  1  0  0  0  0
 10 13  1  0  0  0  0
 10 17  1  0  0  0  0
 10 30  1  0  0  0  0
 11 15  1  0  0  0  0
 11 22  1  0  0  0  0
 12 15  1  0  0  0  0
 12 31  1  0  0  0  0
 12 32  1  0  0  0  0
 13 19  1  0  0  0  0
 13 21  1  0  0  0  0
 13 23  1  0  0  0  0
 14 17  1  0  0  0  0
 14 33  1  0  0  0  0
 14 34  1  0  0  0  0
 15 35  1  0  0  0  0
 15 36  1  0  0  0  0
 16 20  1  0  0  0  0
 16 37  1  0  0  0  0
 16 38  1  0  0  0  0
 18 39  1  0  0  0  0
 18 40  1  0  0  0  0
 19 20  1  0  0  0  0
 19 25  2  0  0  0  0
 20 41  1  0  0  0  0
 20 42  1  0  0  0  0
 21 24  1  0  0  0  0
 21 43  1  0  0  0  0
 21 44  1  0  0  0  0
 22 27  1  0  0  0  0
 23 45  1  0  0  0  0
 23 46  1  0  0  0  0
 23 47  1  0  0  0  0
 24 26  1  0  0  0  0
 24 49  1  0  0  0  0
 24 50  1  0  0  0  0
 25 26  1  0  0  0  0
 25 51  1  0  0  0  0
 27 53  1  0  0  0  0
 27 54  1  0  0  0  0
M  END
> <PUBCHEM_COMPOUND_CID>
126049

> <PUBCHEM_CONFORMER_RMSD>
0.8

> <PUBCHEM_CONFORMER_DIVERSEORDER>
1
3
2

> <PUBCHEM_MMFF94_PARTIAL_CHARGES>
23
1 -0.68
10 0.06
11 0.34
13 0.14
14 0.06
17 0.45
18 0.28
19 -0.28
2 -0.68
20 0.14
22 0.45
24 0.06
25 -0.14
26 0.49
27 0.34
3 -0.57
4 -0.57
48 0.4
5 -0.68
51 0.15
52 0.4
55 0.4
6 -0.57

> <PUBCHEM_EFFECTIVE_ROTOR_COUNT>
4.6

> <PUBCHEM_PHARMACOPHORE_FEATURES>
13
1 1 acceptor
1 1 donor
1 2 acceptor
1 2 donor
1 3 acceptor
1 4 acceptor
1 5 acceptor
1 5 donor
1 6 acceptor
5 7 8 11 12 15 rings
6 13 19 21 24 25 26 rings
6 7 8 9 10 14 17 rings
6 9 10 13 16 19 20 rings

> <PUBCHEM_HEAVY_ATOM_COUNT>
27

> <PUBCHEM_ATOM_DEF_STEREO_COUNT>
6

> <PUBCHEM_ATOM_UDEF_STEREO_COUNT>
0

> <PUBCHEM_BOND_DEF_STEREO_COUNT>
0

> <PUBCHEM_BOND_UDEF_STEREO_COUNT>
0

> <PUBCHEM_ISOTOPIC_ATOM_COUNT>
0

> <PUBCHEM_COMPONENT_COUNT>
1

> <PUBCHEM_CACTVS_TAUTO_COUNT>
45

> <PUBCHEM_CONFORMER_ID>
0001EC6100000001

> <PUBCHEM_MMFF94_ENERGY>
82.7211

> <PUBCHEM_FEATURE_SELFOVERLAP>
66.083

> <PUBCHEM_SHAPE_FINGERPRINT>
10366900 7 18113336422666843505
12011746 2 18261111880656610966
12166972 35 17989208187052143512
12236239 1 17561368400063525681
12403259 226 18340760472903321168
12403259 415 18334569140202044997
12553582 1 18341037558586628296
12788726 201 18265330616789812025
13140716 1 18338790242602522107
13224815 77 18409443678671557401
13533116 47 17846214535307224504
13583140 156 16370732534296140528
13862211 1 18411415099221194450
14787075 74 18335139799542264379
14790565 3 18339369560756111456
15196674 1 18411698747156035780
16752209 62 18339634551953795152
16945 1 18266724827819531377
17349148 13 18186799162642715941
18608769 82 18263931097453819914
19591789 44 18411978035777829150
200 152 17988923374901459785
20028762 73 18130499816457452055
20645477 70 18410850001720964556
20775438 99 17266057328017080535
21033648 29 18334283275779313596
21267235 1 18341899609925100887
21857420 4 15329771189294891174
221357 26 18413105056797950996
22393880 68 18336254657067148700
23402539 116 18272367555388838269
23522609 53 18126035782042587456
23559900 14 17749392610764497681
335352 9 18413106139857840101
34797466 226 15791747290484184014
350125 39 18412548678229174345
4280585 95 17333654873892345902
465052 167 18202004368951654983
5104073 3 18271519814775739280
59755656 215 18408039619729993359
7495541 125 17203321239019254618
9709674 26 18408039636772491553

> <PUBCHEM_SHAPE_MULTIPOLES>
520.43
11.82
2.37
1.23
2.58
0.61
0.28
-3.6
-3.12
-0.24
0.03
-0.4
-0.25
0.11

> <PUBCHEM_SHAPE_SELFOVERLAP>
1128.234

> <PUBCHEM_SHAPE_VOLUME>
281.1

> <PUBCHEM_COORDINATE_TYPE>
2
5
10

$$$$
