126050
  -OEChem-03292013323D

 50 52  0     1  0  0  0  0  0999 V2000
   -7.5690   -1.2480   -0.1341 S   0  0  0  0  0  0  0  0  0  0  0  0
    3.2377   -0.4752    0.3379 O   0  0  0  0  0  0  0  0  0  0  0  0
    2.1750    1.5227   -0.2293 O   0  0  0  0  0  0  0  0  0  0  0  0
    6.9052    1.0022   -0.7753 O   0  0  0  0  0  0  0  0  0  0  0  0
    4.4338    2.2703   -1.7536 O   0  0  0  0  0  0  0  0  0  0  0  0
    6.5091   -1.8662   -0.5229 O   0  0  0  0  0  0  0  0  0  0  0  0
    4.8998   -3.5213    0.8722 O   0  0  0  0  0  0  0  0  0  0  0  0
    3.3332   -2.3626    2.0550 O   0  0  0  0  0  0  0  0  0  0  0  0
    0.5775   -0.1352   -0.2921 O   0  0  0  0  0  0  0  0  0  0  0  0
   -6.2553    0.9561    1.3006 O   0  0  0  0  0  0  0  0  0  0  0  0
    5.6569    0.3391   -0.9810 C   0  0  2  0  0  0  0  0  0  0  0  0
    4.5104    1.3107   -0.6996 C   0  0  2  0  0  0  0  0  0  0  0  0
    5.6046   -0.8707   -0.0475 C   0  0  1  0  0  0  0  0  0  0  0  0
    3.1708    0.5780   -0.6201 C   0  0  1  0  0  0  0  0  0  0  0  0
    4.2013   -1.4630   -0.0093 C   0  0  1  0  0  0  0  0  0  0  0  0
    4.0745   -2.4683    1.0892 C   0  0  0  0  0  0  0  0  0  0  0  0
   -0.0461    2.1537    0.2903 C   0  0  1  0  0  0  0  0  0  0  0  0
    0.9043    1.0289   -0.1000 C   0  0  0  0  0  0  0  0  0  0  0  0
   -1.4879    1.6767    0.3550 C   0  0  0  0  0  0  0  0  0  0  0  0
    0.4047    2.8154    1.5956 C   0  0  0  0  0  0  0  0  0  0  0  0
   -2.4103    2.2163   -0.5194 C   0  0  0  0  0  0  0  0  0  0  0  0
   -1.8343    0.7170    1.2852 C   0  0  0  0  0  0  0  0  0  0  0  0
   -3.7334    1.7783   -0.4612 C   0  0  0  0  0  0  0  0  0  0  0  0
   -3.1573    0.2788    1.3434 C   0  0  0  0  0  0  0  0  0  0  0  0
   -4.1068    0.8096    0.4702 C   0  0  0  0  0  0  0  0  0  0  0  0
   -5.4865    0.3537    0.5325 C   0  0  0  0  0  0  0  0  0  0  0  0
   -5.9491   -0.7950   -0.2751 C   0  0  0  0  0  0  0  0  0  0  0  0
   -5.2171   -1.5370   -1.1268 C   0  0  0  0  0  0  0  0  0  0  0  0
   -6.0225   -2.5540   -1.7159 C   0  0  0  0  0  0  0  0  0  0  0  0
   -7.3230   -2.5108   -1.2640 C   0  0  0  0  0  0  0  0  0  0  0  0
    5.6414    0.0282   -2.0331 H   0  0  0  0  0  0  0  0  0  0  0  0
    4.6977    1.8659    0.2280 H   0  0  0  0  0  0  0  0  0  0  0  0
    5.9389   -0.5815    0.9565 H   0  0  0  0  0  0  0  0  0  0  0  0
    2.8933    0.1791   -1.6057 H   0  0  0  0  0  0  0  0  0  0  0  0
    3.9114   -1.9470   -0.9503 H   0  0  0  0  0  0  0  0  0  0  0  0
    7.6105    0.3566   -0.9533 H   0  0  0  0  0  0  0  0  0  0  0  0
    5.2993    2.7105   -1.8086 H   0  0  0  0  0  0  0  0  0  0  0  0
    6.2238   -2.1323   -1.4137 H   0  0  0  0  0  0  0  0  0  0  0  0
    0.0324    2.9015   -0.5111 H   0  0  0  0  0  0  0  0  0  0  0  0
    0.4935    2.0885    2.4107 H   0  0  0  0  0  0  0  0  0  0  0  0
    1.3857    3.2890    1.4791 H   0  0  0  0  0  0  0  0  0  0  0  0
   -0.3030    3.5909    1.9087 H   0  0  0  0  0  0  0  0  0  0  0  0
    4.8325   -4.1926    1.5844 H   0  0  0  0  0  0  0  0  0  0  0  0
   -2.1321    2.9708   -1.2489 H   0  0  0  0  0  0  0  0  0  0  0  0
   -1.1074    0.2938    1.9717 H   0  0  0  0  0  0  0  0  0  0  0  0
   -4.4650    2.1991   -1.1462 H   0  0  0  0  0  0  0  0  0  0  0  0
   -3.4371   -0.4764    2.0735 H   0  0  0  0  0  0  0  0  0  0  0  0
   -4.1667   -1.3983   -1.3474 H   0  0  0  0  0  0  0  0  0  0  0  0
   -5.6662   -3.2804   -2.4346 H   0  0  0  0  0  0  0  0  0  0  0  0
   -8.1405   -3.1604   -1.5433 H   0  0  0  0  0  0  0  0  0  0  0  0
  1 27  1  0  0  0  0
  1 30  1  0  0  0  0
  2 14  1  0  0  0  0
  2 15  1  0  0  0  0
  3 14  1  0  0  0  0
  3 18  1  0  0  0  0
  4 11  1  0  0  0  0
  4 36  1  0  0  0  0
  5 12  1  0  0  0  0
  5 37  1  0  0  0  0
  6 13  1  0  0  0  0
  6 38  1  0  0  0  0
  7 16  1  0  0  0  0
  7 43  1  0  0  0  0
  8 16  2  0  0  0  0
  9 18  2  0  0  0  0
 10 26  2  0  0  0  0
 11 12  1  0  0  0  0
 11 13  1  0  0  0  0
 11 31  1  0  0  0  0
 12 14  1  0  0  0  0
 12 32  1  0  0  0  0
 13 15  1  0  0  0  0
 13 33  1  0  0  0  0
 14 34  1  0  0  0  0
 15 16  1  0  0  0  0
 15 35  1  0  0  0  0
 17 18  1  0  0  0  0
 17 19  1  0  0  0  0
 17 20  1  0  0  0  0
 17 39  1  0  0  0  0
 19 21  2  0  0  0  0
 19 22  1  0  0  0  0
 20 40  1  0  0  0  0
 20 41  1  0  0  0  0
 20 42  1  0  0  0  0
 21 23  1  0  0  0  0
 21 44  1  0  0  0  0
 22 24  2  0  0  0  0
 22 45  1  0  0  0  0
 23 25  2  0  0  0  0
 23 46  1  0  0  0  0
 24 25  1  0  0  0  0
 24 47  1  0  0  0  0
 25 26  1  0  0  0  0
 26 27  1  0  0  0  0
 27 28  2  0  0  0  0
 28 29  1  0  0  0  0
 28 48  1  0  0  0  0
 29 30  2  0  0  0  0
 29 49  1  0  0  0  0
 30 50  1  0  0  0  0
M  END
> <PUBCHEM_COMPOUND_CID>
126050

> <PUBCHEM_CONFORMER_RMSD>
1

> <PUBCHEM_CONFORMER_DIVERSEORDER>
1
278
293
315
140
41
15
14
254
150
184
275
319
269
253
256
42
199
87
98
155
224
238
10
301
209
286
101
26
241
83
116
213
16
6
272
267
92
127
208
128
82
250
232
229
50
121
107
287
237
318
149
129
220
327
284
20
106
135
151
75
22
311
295
84
179
191
109
207
281
71
181
216
320
279
167
198
147
261
86
73
122
29
103
325
202
196
68
40
93
260
30
173
164
74
37
89
307
190
45
162
291
282
9
285
63
57
104
18
44
200
274
219
24
145
215
305
144
32
177
297
38
248
111
235
204
80
262
8
324
12
143
258
39
31
210
236
131
136
137
271
289
100
55
244
114
228
211
306
195
48
153
7
180
175
110
326
130
242
298
62
56
205
234
168
182
171
163
302
13
53
233
77
96
5
146
247
203
277
160
257
296
138
28
276
316
123
243
176
66
61
270
2
108
126
166
230
133
88
97
27
170
21
165
185
72
206
19
99
321
308
118
240
225
124
69
314
193
54
117
231
280
283
174
49
34
58
303
290
120
172
51
212
46
252
263
304
300
70
156
251
292
188
227
47
23
94
112
217
141
33
132
264
4
288
187
115
139
323
59
294
226
161
255
95
76
223
35
154
65
313
169
310
91
52
43
201
36
78
157
142
102
249
309
64
192
113
312
105
317
3
85
221
186
158
246
322
222
266
60
125
214
183
81
17
218
79
90
268
148
273
119
239
265
11
259
189
159
194
67
197
299
245
178
152
25
134

> <PUBCHEM_MMFF94_PARTIAL_CHARGES>
40
1 -0.08
10 -0.57
11 0.28
12 0.28
13 0.28
14 0.56
15 0.34
16 0.66
17 0.2
18 0.66
19 -0.14
2 -0.56
21 -0.15
22 -0.15
23 -0.15
24 -0.15
25 0.09
26 0.57
27 -0.05
28 -0.15
29 -0.15
3 -0.43
30 -0.11
36 0.4
37 0.4
38 0.4
4 -0.68
43 0.5
44 0.15
45 0.15
46 0.15
47 0.15
48 0.15
49 0.15
5 -0.68
50 0.15
6 -0.68
7 -0.65
8 -0.57
9 -0.57

> <PUBCHEM_EFFECTIVE_ROTOR_COUNT>
8.2

> <PUBCHEM_PHARMACOPHORE_FEATURES>
16
1 10 acceptor
1 2 acceptor
1 20 hydrophobe
1 4 acceptor
1 4 donor
1 5 acceptor
1 5 donor
1 6 acceptor
1 6 donor
1 7 acceptor
1 8 acceptor
1 9 acceptor
3 7 8 16 anion
5 1 27 28 29 30 rings
6 19 21 22 23 24 25 rings
6 2 11 12 13 14 15 rings

> <PUBCHEM_HEAVY_ATOM_COUNT>
30

> <PUBCHEM_ATOM_DEF_STEREO_COUNT>
5

> <PUBCHEM_ATOM_UDEF_STEREO_COUNT>
1

> <PUBCHEM_BOND_DEF_STEREO_COUNT>
0

> <PUBCHEM_BOND_UDEF_STEREO_COUNT>
0

> <PUBCHEM_ISOTOPIC_ATOM_COUNT>
0

> <PUBCHEM_COMPONENT_COUNT>
1

> <PUBCHEM_CACTVS_TAUTO_COUNT>
1

> <PUBCHEM_CONFORMER_ID>
0001EC6200000001

> <PUBCHEM_MMFF94_ENERGY>
75.7658

> <PUBCHEM_FEATURE_SELFOVERLAP>
81.291

> <PUBCHEM_SHAPE_FINGERPRINT>
10 15 10735886088665560485
10299344 5 18341900701516791325
10319926 262 16845857889069722185
10595046 47 18335706030898607940
10622 236 18044360635152404219
11475781 23 14779536873037165103
11497681 19 18337956697610670966
11524674 6 16343704344558640965
11796584 16 18198624337037810092
11963148 33 18202563955967523670
12144603 126 18341625814835770905
12166972 35 18410016545826479652
13533116 47 18334017168490571696
1361 4 18410293618551427991
13668630 136 18060427897658784404
13690498 29 18408599267581616389
13782708 43 18341331167178279069
14068700 675 17989207079625723417
14347332 77 18335697213800091601
15001296 14 18334010627060668634
15183329 4 18114178653317391699
15238133 3 11169909493871341639
15348495 7 13470679373904503453
15728490 51 18202279238901445900
17134984 74 17967531310957751571
17492 89 18122628254242959482
17857418 61 18410855451891791547
19958102 18 17022901225092986179
20028762 73 18271807891439566958
20567600 247 18410292523244538153
21223535 225 16298658392139716093
21585483 132 17985529273492964639
23516275 137 18053693324710151155
23522609 53 18125192465688888529
23559900 14 17749962170567592952
23569943 247 18409165477510382371
25222932 49 18342737433864961260
2838139 119 11530485553835856517
3004659 81 18187368692813368464
314194 84 18409455794980183969
397830 11 14691992726699919191
4015057 19 18041570238266668273
4046055 25 18261114045495280565
4098825 35 17895187771736544213
439807 62 18409446995135344335
45377200 153 17632589283486948486
474113 269 17130410489580441615
4756088 132 16819100989592982490
5104073 3 17346599716517222953
531348 171 18335980858236342845
559249 180 18202004331462565085
5718773 13 18343299284322799495
59682541 52 17530681000377725671
6700243 42 17771658730513570965
96874 4 18341887498561100447
999808 66 18261685878395254283

> <PUBCHEM_SHAPE_MULTIPOLES>
568.41
21.29
3.38
1.45
8.1
1.33
0.21
14.96
-5.42
-0.71
0.33
-0.17
0.24
-4.1

> <PUBCHEM_SHAPE_SELFOVERLAP>
1210.802

> <PUBCHEM_SHAPE_VOLUME>
316.2

> <PUBCHEM_COORDINATE_TYPE>
2
5
10

$$$$
