126079
  -OEChem-03292013323D

 50 52  0     0  0  0  0  0  0999 V2000
    5.2851    1.1099    0.8303 O   0  0  0  0  0  0  0  0  0  0  0  0
    3.0067   -2.9000   -0.0512 O   0  0  0  0  0  0  0  0  0  0  0  0
   -5.7532   -0.0664   -0.7272 O   0  0  0  0  0  0  0  0  0  0  0  0
   -8.6328   -1.0018    1.1971 O   0  0  0  0  0  0  0  0  0  0  0  0
   -8.2786    0.7884   -0.1659 O   0  0  0  0  0  0  0  0  0  0  0  0
    2.9764    1.1945    0.5530 N   0  0  0  0  0  0  0  0  0  0  0  0
    4.1738   -0.9048    0.3919 N   0  0  0  0  0  0  0  0  0  0  0  0
    0.5356   -1.2278   -0.1136 N   0  0  0  0  0  0  0  0  0  0  0  0
    0.5482    0.9772    0.2157 N   0  0  0  0  0  0  0  0  0  0  0  0
    1.8182    0.4726    0.2999 C   0  0  0  0  0  0  0  0  0  0  0  0
    1.8386   -0.8810    0.1011 C   0  0  0  0  0  0  0  0  0  0  0  0
    2.9038    2.6360    0.7584 C   0  0  0  0  0  0  0  0  0  0  0  0
    4.2216    0.5198    0.6089 C   0  0  0  0  0  0  0  0  0  0  0  0
    5.4454   -1.6177    0.4468 C   0  0  0  0  0  0  0  0  0  0  0  0
    3.0168   -1.6858    0.1300 C   0  0  0  0  0  0  0  0  0  0  0  0
    3.0489    3.4156   -0.5430 C   0  0  0  0  0  0  0  0  0  0  0  0
   -0.2029   -0.0753   -0.0348 C   0  0  0  0  0  0  0  0  0  0  0  0
    6.1261   -1.6964   -0.9144 C   0  0  0  0  0  0  0  0  0  0  0  0
   -1.6352   -0.0730   -0.2136 C   0  0  0  0  0  0  0  0  0  0  0  0
    2.9961    4.9225   -0.3349 C   0  0  0  0  0  0  0  0  0  0  0  0
    7.4434   -2.4578   -0.8702 C   0  0  0  0  0  0  0  0  0  0  0  0
   -2.2695    1.0511   -0.7411 C   0  0  0  0  0  0  0  0  0  0  0  0
   -2.3833   -1.1950    0.1415 C   0  0  0  0  0  0  0  0  0  0  0  0
   -3.6537    1.0533   -0.9137 C   0  0  0  0  0  0  0  0  0  0  0  0
   -3.7674   -1.1928   -0.0313 C   0  0  0  0  0  0  0  0  0  0  0  0
   -4.4026   -0.0687   -0.5588 C   0  0  0  0  0  0  0  0  0  0  0  0
   -6.5220   -0.8544    0.1804 C   0  0  0  0  0  0  0  0  0  0  0  0
   -7.8836   -0.2420    0.3588 C   0  0  0  0  0  0  0  0  0  0  0  0
    3.7074    2.9290    1.4448 H   0  0  0  0  0  0  0  0  0  0  0  0
    1.9603    2.8851    1.2586 H   0  0  0  0  0  0  0  0  0  0  0  0
    5.2729   -2.6312    0.8283 H   0  0  0  0  0  0  0  0  0  0  0  0
    6.1106   -1.1229    1.1640 H   0  0  0  0  0  0  0  0  0  0  0  0
    0.1931   -2.1599   -0.3075 H   0  0  0  0  0  0  0  0  0  0  0  0
    3.9978    3.1552   -1.0274 H   0  0  0  0  0  0  0  0  0  0  0  0
    2.2543    3.1243   -1.2404 H   0  0  0  0  0  0  0  0  0  0  0  0
    6.3106   -0.6850   -1.2960 H   0  0  0  0  0  0  0  0  0  0  0  0
    5.4583   -2.1826   -1.6358 H   0  0  0  0  0  0  0  0  0  0  0  0
    3.8040    5.2542    0.3249 H   0  0  0  0  0  0  0  0  0  0  0  0
    3.1027    5.4419   -1.2923 H   0  0  0  0  0  0  0  0  0  0  0  0
    2.0423    5.2216    0.1111 H   0  0  0  0  0  0  0  0  0  0  0  0
    7.2882   -3.4876   -0.5332 H   0  0  0  0  0  0  0  0  0  0  0  0
    7.8971   -2.4896   -1.8657 H   0  0  0  0  0  0  0  0  0  0  0  0
    8.1506   -1.9752   -0.1883 H   0  0  0  0  0  0  0  0  0  0  0  0
   -1.7043    1.9350   -1.0270 H   0  0  0  0  0  0  0  0  0  0  0  0
   -1.9205   -2.0842    0.5621 H   0  0  0  0  0  0  0  0  0  0  0  0
   -4.1432    1.9315   -1.3255 H   0  0  0  0  0  0  0  0  0  0  0  0
   -4.3108   -2.0946    0.2350 H   0  0  0  0  0  0  0  0  0  0  0  0
   -6.6419   -1.8607   -0.2344 H   0  0  0  0  0  0  0  0  0  0  0  0
   -6.0639   -0.8838    1.1768 H   0  0  0  0  0  0  0  0  0  0  0  0
   -9.5284   -0.6247    1.3311 H   0  0  0  0  0  0  0  0  0  0  0  0
  1 13  2  0  0  0  0
  2 15  2  0  0  0  0
  3 26  1  0  0  0  0
  3 27  1  0  0  0  0
  4 28  1  0  0  0  0
  4 50  1  0  0  0  0
  5 28  2  0  0  0  0
  6 10  1  0  0  0  0
  6 12  1  0  0  0  0
  6 13  1  0  0  0  0
  7 13  1  0  0  0  0
  7 14  1  0  0  0  0
  7 15  1  0  0  0  0
  8 11  1  0  0  0  0
  8 17  1  0  0  0  0
  8 33  1  0  0  0  0
  9 10  1  0  0  0  0
  9 17  2  0  0  0  0
 10 11  2  0  0  0  0
 11 15  1  0  0  0  0
 12 16  1  0  0  0  0
 12 29  1  0  0  0  0
 12 30  1  0  0  0  0
 14 18  1  0  0  0  0
 14 31  1  0  0  0  0
 14 32  1  0  0  0  0
 16 20  1  0  0  0  0
 16 34  1  0  0  0  0
 16 35  1  0  0  0  0
 17 19  1  0  0  0  0
 18 21  1  0  0  0  0
 18 36  1  0  0  0  0
 18 37  1  0  0  0  0
 19 22  2  0  0  0  0
 19 23  1  0  0  0  0
 20 38  1  0  0  0  0
 20 39  1  0  0  0  0
 20 40  1  0  0  0  0
 21 41  1  0  0  0  0
 21 42  1  0  0  0  0
 21 43  1  0  0  0  0
 22 24  1  0  0  0  0
 22 44  1  0  0  0  0
 23 25  2  0  0  0  0
 23 45  1  0  0  0  0
 24 26  2  0  0  0  0
 24 46  1  0  0  0  0
 25 26  1  0  0  0  0
 25 47  1  0  0  0  0
 27 28  1  0  0  0  0
 27 48  1  0  0  0  0
 27 49  1  0  0  0  0
M  END
> <PUBCHEM_COMPOUND_CID>
126079

> <PUBCHEM_CONFORMER_RMSD>
1

> <PUBCHEM_CONFORMER_DIVERSEORDER>
1
10
20
22
16
17
9
19
18
12
13
21
5
15
3
8
4
11
2
7
6
23
14

> <PUBCHEM_MMFF94_PARTIAL_CHARGES>
30
1 -0.57
10 0.29
11 -0.24
12 0.3
13 0.69
14 0.3
15 0.71
17 0.13
19 0.05
2 -0.57
22 -0.15
23 -0.15
24 -0.15
25 -0.15
26 0.08
27 0.34
28 0.66
3 -0.36
33 0.27
4 -0.65
44 0.15
45 0.15
46 0.15
47 0.15
5 -0.57
50 0.5
6 -0.42
7 -0.42
8 0.03
9 -0.57

> <PUBCHEM_EFFECTIVE_ROTOR_COUNT>
8

> <PUBCHEM_PHARMACOPHORE_FEATURES>
13
1 1 acceptor
1 2 acceptor
1 20 hydrophobe
1 21 hydrophobe
1 3 acceptor
1 4 acceptor
1 5 acceptor
1 8 donor
3 4 5 28 anion
3 8 9 17 cation
5 8 9 10 11 17 rings
6 19 22 23 24 25 26 rings
6 6 7 10 11 13 15 rings

> <PUBCHEM_HEAVY_ATOM_COUNT>
28

> <PUBCHEM_ATOM_DEF_STEREO_COUNT>
0

> <PUBCHEM_ATOM_UDEF_STEREO_COUNT>
0

> <PUBCHEM_BOND_DEF_STEREO_COUNT>
0

> <PUBCHEM_BOND_UDEF_STEREO_COUNT>
0

> <PUBCHEM_ISOTOPIC_ATOM_COUNT>
0

> <PUBCHEM_COMPONENT_COUNT>
1

> <PUBCHEM_CACTVS_TAUTO_COUNT>
3

> <PUBCHEM_CONFORMER_ID>
0001EC7F00000001

> <PUBCHEM_MMFF94_ENERGY>
49.6994

> <PUBCHEM_FEATURE_SELFOVERLAP>
66.148

> <PUBCHEM_SHAPE_FINGERPRINT>
10050765 1 18265897054288267047
10411042 1 18266457608451257922
12166972 35 18272087188893745112
12236239 1 17346593097518821463
12616971 3 17989197179557106213
13533116 47 18341611555343797025
13673619 4 18261110742606562772
13685833 64 18409167693053661971
14114211 68 18045516454176438180
14170010 4 18412259549852474064
14341114 176 18412823590263384316
15419008 47 17967807228515943309
15439362 3 18193840564705884844
15475509 35 16516224285218295344
15840311 113 18334857260495333237
16120349 18 18410006676919515573
17844677 252 18411139117550048317
18681886 176 18412537709425947970
19427546 62 18264768933624499442
20105231 36 18261118456880139979
20771845 65 18060138718186224976
21049683 271 18333455322707937508
21130935 74 17988074603818469199
21133410 127 17751631280790600245
21150785 3 15213306313571041927
21267235 1 18412266103513748743
21365058 113 18336271167676081812
21781055 127 16629986363929801043
221357 26 18410007711236351108
22956985 138 14637082965431704745
23081809 10 17845649369989058773
23559900 14 18409441522877465256
249057 3 18342737416532721566
3178227 256 18411699880985437946
335352 9 18413107255789831150
3545911 37 18407755932881807991
397830 11 17896325899578419131
4073 2 18187366579732059899
46194498 28 18187358857259509772
5104073 3 18337380531800092033
9962374 69 18341040896008657527

> <PUBCHEM_SHAPE_MULTIPOLES>
526.96
20.92
3.55
0.88
35.7
4.88
0.03
-9.47
-0.74
-8.22
0.5
-0.09
0.03
1.44

> <PUBCHEM_SHAPE_SELFOVERLAP>
1123.002

> <PUBCHEM_SHAPE_VOLUME>
293.2

> <PUBCHEM_COORDINATE_TYPE>
2
5
10

$$$$
