126087
  -OEChem-03292013323D

 47 50  0     1  0  0  0  0  0999 V2000
   -2.6284   -2.6272    1.2747 O   0  0  0  0  0  0  0  0  0  0  0  0
    0.4431   -3.0597    0.1442 O   0  0  0  0  0  0  0  0  0  0  0  0
   -3.6835    1.9115    1.2168 O   0  0  0  0  0  0  0  0  0  0  0  0
    2.8687   -2.3626    0.2120 O   0  0  0  0  0  0  0  0  0  0  0  0
    1.5904    2.7932   -0.3569 O   0  0  0  0  0  0  0  0  0  0  0  0
   -3.4772    2.6111   -0.9803 O   0  0  0  0  0  0  0  0  0  0  0  0
    5.3726   -1.8214    0.3007 O   0  0  0  0  0  0  0  0  0  0  0  0
   -2.2652   -2.4119   -0.0873 C   0  0  2  0  0  0  0  0  0  0  0  0
   -1.1938   -1.3573   -0.1247 C   0  0  0  0  0  0  0  0  0  0  0  0
   -3.4941   -1.9964   -0.8997 C   0  0  0  0  0  0  0  0  0  0  0  0
   -1.5483   -0.0002   -0.2474 C   0  0  0  0  0  0  0  0  0  0  0  0
   -3.9085   -0.5528   -0.6626 C   0  0  0  0  0  0  0  0  0  0  0  0
   -2.9835    0.3823   -0.3431 C   0  0  0  0  0  0  0  0  0  0  0  0
    0.1540   -1.7327   -0.0073 C   0  0  0  0  0  0  0  0  0  0  0  0
    1.1627   -0.7666   -0.0369 C   0  0  0  0  0  0  0  0  0  0  0  0
    0.8271    0.5767   -0.1824 C   0  0  0  0  0  0  0  0  0  0  0  0
   -0.5196    0.9565   -0.2884 C   0  0  0  0  0  0  0  0  0  0  0  0
   -5.3935   -0.3396   -0.8192 C   0  0  0  0  0  0  0  0  0  0  0  0
    2.5758   -1.1806    0.0816 C   0  0  0  0  0  0  0  0  0  0  0  0
    1.8825    1.6110   -0.2262 C   0  0  0  0  0  0  0  0  0  0  0  0
    3.6308   -0.1480    0.0412 C   0  0  0  0  0  0  0  0  0  0  0  0
    3.2961    1.1993   -0.1080 C   0  0  0  0  0  0  0  0  0  0  0  0
   -3.4073    1.7743   -0.1015 C   0  0  0  0  0  0  0  0  0  0  0  0
   -6.0864   -0.5532    0.5043 C   0  0  0  0  0  0  0  0  0  0  0  0
    4.9742   -0.5258    0.1526 C   0  0  0  0  0  0  0  0  0  0  0  0
    4.3052    2.1691   -0.1468 C   0  0  0  0  0  0  0  0  0  0  0  0
    5.9764    0.4438    0.1146 C   0  0  0  0  0  0  0  0  0  0  0  0
    5.6427    1.7885   -0.0350 C   0  0  0  0  0  0  0  0  0  0  0  0
   -4.1127    3.2188    1.6112 C   0  0  0  0  0  0  0  0  0  0  0  0
   -1.9011   -3.3639   -0.4903 H   0  0  0  0  0  0  0  0  0  0  0  0
   -4.3215   -2.6711   -0.6475 H   0  0  0  0  0  0  0  0  0  0  0  0
   -3.2937   -2.1135   -1.9728 H   0  0  0  0  0  0  0  0  0  0  0  0
   -0.7694    2.0093   -0.4003 H   0  0  0  0  0  0  0  0  0  0  0  0
   -5.8011   -1.0141   -1.5815 H   0  0  0  0  0  0  0  0  0  0  0  0
   -5.6020    0.6745   -1.1791 H   0  0  0  0  0  0  0  0  0  0  0  0
   -3.3090   -3.3215    1.2915 H   0  0  0  0  0  0  0  0  0  0  0  0
   -5.9344   -1.5700    0.8823 H   0  0  0  0  0  0  0  0  0  0  0  0
   -5.7361    0.1460    1.2698 H   0  0  0  0  0  0  0  0  0  0  0  0
   -7.1651   -0.4022    0.3908 H   0  0  0  0  0  0  0  0  0  0  0  0
    1.3944   -3.2232    0.0696 H   0  0  0  0  0  0  0  0  0  0  0  0
    4.0711    3.2240   -0.2625 H   0  0  0  0  0  0  0  0  0  0  0  0
    7.0246    0.1688    0.2000 H   0  0  0  0  0  0  0  0  0  0  0  0
    6.4248    2.5417   -0.0647 H   0  0  0  0  0  0  0  0  0  0  0  0
    6.3424   -1.8608    0.3585 H   0  0  0  0  0  0  0  0  0  0  0  0
   -3.3299    3.9541    1.4014 H   0  0  0  0  0  0  0  0  0  0  0  0
   -5.0410    3.4838    1.0959 H   0  0  0  0  0  0  0  0  0  0  0  0
   -4.3010    3.2040    2.6879 H   0  0  0  0  0  0  0  0  0  0  0  0
  1  8  1  0  0  0  0
  1 36  1  0  0  0  0
  2 14  1  0  0  0  0
  2 40  1  0  0  0  0
  3 23  1  0  0  0  0
  3 29  1  0  0  0  0
  4 19  2  0  0  0  0
  5 20  2  0  0  0  0
  6 23  2  0  0  0  0
  7 25  1  0  0  0  0
  7 44  1  0  0  0  0
  8  9  1  0  0  0  0
  8 10  1  0  0  0  0
  8 30  1  0  0  0  0
  9 11  1  0  0  0  0
  9 14  2  0  0  0  0
 10 12  1  0  0  0  0
 10 31  1  0  0  0  0
 10 32  1  0  0  0  0
 11 13  1  0  0  0  0
 11 17  2  0  0  0  0
 12 13  2  0  0  0  0
 12 18  1  0  0  0  0
 13 23  1  0  0  0  0
 14 15  1  0  0  0  0
 15 16  2  0  0  0  0
 15 19  1  0  0  0  0
 16 17  1  0  0  0  0
 16 20  1  0  0  0  0
 17 33  1  0  0  0  0
 18 24  1  0  0  0  0
 18 34  1  0  0  0  0
 18 35  1  0  0  0  0
 19 21  1  0  0  0  0
 20 22  1  0  0  0  0
 21 22  2  0  0  0  0
 21 25  1  0  0  0  0
 22 26  1  0  0  0  0
 24 37  1  0  0  0  0
 24 38  1  0  0  0  0
 24 39  1  0  0  0  0
 25 27  2  0  0  0  0
 26 28  2  0  0  0  0
 26 41  1  0  0  0  0
 27 28  1  0  0  0  0
 27 42  1  0  0  0  0
 28 43  1  0  0  0  0
 29 45  1  0  0  0  0
 29 46  1  0  0  0  0
 29 47  1  0  0  0  0
M  END
> <PUBCHEM_COMPOUND_CID>
126087

> <PUBCHEM_CONFORMER_RMSD>
0.8

> <PUBCHEM_CONFORMER_DIVERSEORDER>
1
2
4
3

> <PUBCHEM_MMFF94_PARTIAL_CHARGES>
35
1 -0.68
10 0.14
11 0.03
12 -0.28
13 -0.01
14 0.08
15 0.09
16 0.09
17 -0.15
18 0.14
19 0.4
2 -0.53
20 0.4
21 0.09
22 0.09
23 0.71
25 0.08
26 -0.15
27 -0.15
28 -0.15
29 0.28
3 -0.43
33 0.15
36 0.4
4 -0.57
40 0.45
41 0.15
42 0.15
43 0.15
44 0.45
5 -0.57
6 -0.57
7 -0.53
8 0.42
9 -0.14

> <PUBCHEM_EFFECTIVE_ROTOR_COUNT>
3.4

> <PUBCHEM_PHARMACOPHORE_FEATURES>
12
1 1 acceptor
1 1 donor
1 2 donor
1 24 hydrophobe
1 4 acceptor
1 5 acceptor
1 6 acceptor
1 7 donor
6 15 16 19 20 21 22 rings
6 21 22 25 26 27 28 rings
6 8 9 10 11 12 13 rings
6 9 11 14 15 16 17 rings

> <PUBCHEM_HEAVY_ATOM_COUNT>
29

> <PUBCHEM_ATOM_DEF_STEREO_COUNT>
0

> <PUBCHEM_ATOM_UDEF_STEREO_COUNT>
1

> <PUBCHEM_BOND_DEF_STEREO_COUNT>
0

> <PUBCHEM_BOND_UDEF_STEREO_COUNT>
0

> <PUBCHEM_ISOTOPIC_ATOM_COUNT>
0

> <PUBCHEM_COMPONENT_COUNT>
1

> <PUBCHEM_CACTVS_TAUTO_COUNT>
24

> <PUBCHEM_CONFORMER_ID>
0001EC8700000001

> <PUBCHEM_MMFF94_ENERGY>
90.4044

> <PUBCHEM_FEATURE_SELFOVERLAP>
60.961

> <PUBCHEM_SHAPE_FINGERPRINT>
10411042 1 17977097956275096146
10595046 47 18341609356267404238
1100329 8 18195246607394526778
11578080 2 14116423574851658041
12107183 9 17908705033747636762
12236239 1 18131068251241579367
12390115 104 18271819973224229081
12788726 201 18060140934072617561
13140716 1 18336832996199653858
14341114 176 18335703874850742981
14790565 3 18410014308464646164
15183329 4 18408601457697893318
15196674 1 18409727379058486374
1601671 61 18411417281228052692
1813 80 16877942733199946572
18608769 82 18264208174700686555
20775438 99 16040235037472860415
21033648 144 18260819427812129134
21033648 29 17560785659280463722
21236236 1 18412261731416298573
21267235 1 18409733954163124494
21279426 13 18338796702797642924
21421861 104 17897720964896038450
23559900 14 18267856366580934625
3004659 81 18260263045834361118
335352 9 18408882967050394310
34797466 226 16988566853102613788
350125 39 18411136974097441573
3545911 37 18335982055476761383
3633792 109 18335126567671159645
3680242 22 18189329075128081298
392239 28 18336845177380988035
4073 2 18041562559149388754
4214541 1 18411134744809039516
460360 51 18264509367734778030
5104073 3 18408599263027537082
59755656 215 18408318899693066165
9709674 26 18410858763195922230

> <PUBCHEM_SHAPE_MULTIPOLES>
555.72
13.16
3.39
0.9
4.85
0.54
0.16
2.86
0.64
-1.49
0.67
-1.02
0.27
-1.09

> <PUBCHEM_SHAPE_SELFOVERLAP>
1246.02

> <PUBCHEM_SHAPE_VOLUME>
291.6

> <PUBCHEM_COORDINATE_TYPE>
2
5
10

$$$$
