126010
  -OEChem-03292013323D

 51 53  0     1  0  0  0  0  0999 V2000
   -4.3239   -0.1868    1.1272 S   0  0  0  0  0  0  0  0  0  0  0  0
    2.1281    0.7964    1.7003 O   0  0  0  0  0  0  0  0  0  0  0  0
    5.9442    1.2021    1.4378 O   0  0  0  0  0  0  0  0  0  0  0  0
    5.1998   -0.8283    0.7171 O   0  0  0  0  0  0  0  0  0  0  0  0
   -1.3265    1.2317   -1.0733 O   0  0  0  0  0  0  0  0  0  0  0  0
   -4.9852    2.8671   -0.9529 O   0  0  0  0  0  0  0  0  0  0  0  0
    3.0407    0.4162   -0.3923 N   0  0  0  0  0  0  0  0  0  0  0  0
   -0.2647    0.3438    0.8002 N   0  0  0  0  0  0  0  0  0  0  0  0
   -3.1177    2.5609    0.3302 N   0  0  0  0  0  0  0  0  0  0  0  0
   -1.2008   -3.2435    1.0003 N   0  0  0  0  0  0  0  0  0  0  0  0
   -2.1644   -3.5247   -0.9807 N   0  0  0  0  0  0  0  0  0  0  0  0
    4.2514    1.2014   -0.1913 C   0  0  2  0  0  0  0  0  0  0  0  0
    4.8277    1.3892   -1.5899 C   0  0  0  0  0  0  0  0  0  0  0  0
    2.9744   -0.1112   -1.7530 C   0  0  0  0  0  0  0  0  0  0  0  0
    4.3546    0.1456   -2.3387 C   0  0  0  0  0  0  0  0  0  0  0  0
    0.7792   -0.3697    0.1224 C   0  0  1  0  0  0  0  0  0  0  0  0
    2.0363    0.3390    0.5599 C   0  0  0  0  0  0  0  0  0  0  0  0
    0.8423   -1.8425    0.5066 C   0  0  0  0  0  0  0  0  0  0  0  0
    5.1623    0.3927    0.6824 C   0  0  0  0  0  0  0  0  0  0  0  0
   -2.2216    1.7121    1.0875 C   0  0  2  0  0  0  0  0  0  0  0  0
   -1.2366    1.0897    0.1433 C   0  0  0  0  0  0  0  0  0  0  0  0
   -2.9642    0.7068    1.9546 C   0  0  0  0  0  0  0  0  0  0  0  0
   -0.4115   -2.5812    0.1028 C   0  0  0  0  0  0  0  0  0  0  0  0
   -4.3001    0.5885   -0.5207 C   0  0  2  0  0  0  0  0  0  0  0  0
   -4.1988    2.1007   -0.3959 C   0  0  0  0  0  0  0  0  0  0  0  0
   -1.0262   -2.7694   -1.1127 C   0  0  0  0  0  0  0  0  0  0  0  0
   -5.5581    0.1675   -1.2751 C   0  0  0  0  0  0  0  0  0  0  0  0
   -2.2405   -3.7941    0.3037 C   0  0  0  0  0  0  0  0  0  0  0  0
    3.9991    2.1454    0.3033 H   0  0  0  0  0  0  0  0  0  0  0  0
    4.3888    2.2802   -2.0552 H   0  0  0  0  0  0  0  0  0  0  0  0
    5.9168    1.4932   -1.6071 H   0  0  0  0  0  0  0  0  0  0  0  0
    2.7083   -1.1709   -1.7560 H   0  0  0  0  0  0  0  0  0  0  0  0
    2.2140    0.4559   -2.3010 H   0  0  0  0  0  0  0  0  0  0  0  0
    5.0199   -0.6979   -2.1194 H   0  0  0  0  0  0  0  0  0  0  0  0
    4.3318    0.2847   -3.4231 H   0  0  0  0  0  0  0  0  0  0  0  0
    0.6161   -0.2634   -0.9526 H   0  0  0  0  0  0  0  0  0  0  0  0
    0.9943   -1.9463    1.5894 H   0  0  0  0  0  0  0  0  0  0  0  0
    1.7005   -2.3303    0.0294 H   0  0  0  0  0  0  0  0  0  0  0  0
   -0.2468    0.3466    1.8161 H   0  0  0  0  0  0  0  0  0  0  0  0
   -1.6482    2.3827    1.7405 H   0  0  0  0  0  0  0  0  0  0  0  0
   -2.2998   -0.0387    2.4008 H   0  0  0  0  0  0  0  0  0  0  0  0
   -3.4319    1.2419    2.7895 H   0  0  0  0  0  0  0  0  0  0  0  0
   -2.9881    3.5661    0.3953 H   0  0  0  0  0  0  0  0  0  0  0  0
   -3.4499    0.1996   -1.0833 H   0  0  0  0  0  0  0  0  0  0  0  0
    6.5477    0.6910    2.0181 H   0  0  0  0  0  0  0  0  0  0  0  0
   -1.0480   -3.3141    1.9976 H   0  0  0  0  0  0  0  0  0  0  0  0
   -0.7093   -2.3993   -2.0770 H   0  0  0  0  0  0  0  0  0  0  0  0
   -5.6199   -0.9218   -1.3776 H   0  0  0  0  0  0  0  0  0  0  0  0
   -5.5562    0.5896   -2.2868 H   0  0  0  0  0  0  0  0  0  0  0  0
   -6.4702    0.5220   -0.7806 H   0  0  0  0  0  0  0  0  0  0  0  0
   -3.0133   -4.3736    0.7882 H   0  0  0  0  0  0  0  0  0  0  0  0
  1 22  1  0  0  0  0
  1 24  1  0  0  0  0
  2 17  2  0  0  0  0
  3 19  1  0  0  0  0
  3 45  1  0  0  0  0
  4 19  2  0  0  0  0
  5 21  2  0  0  0  0
  6 25  2  0  0  0  0
  7 12  1  0  0  0  0
  7 14  1  0  0  0  0
  7 17  1  0  0  0  0
  8 16  1  0  0  0  0
  8 21  1  0  0  0  0
  8 39  1  0  0  0  0
  9 20  1  0  0  0  0
  9 25  1  0  0  0  0
  9 43  1  0  0  0  0
 10 23  1  0  0  0  0
 10 28  1  0  0  0  0
 10 46  1  0  0  0  0
 11 26  1  0  0  0  0
 11 28  2  0  0  0  0
 12 13  1  0  0  0  0
 12 19  1  0  0  0  0
 12 29  1  0  0  0  0
 13 15  1  0  0  0  0
 13 30  1  0  0  0  0
 13 31  1  0  0  0  0
 14 15  1  0  0  0  0
 14 32  1  0  0  0  0
 14 33  1  0  0  0  0
 15 34  1  0  0  0  0
 15 35  1  0  0  0  0
 16 17  1  0  0  0  0
 16 18  1  0  0  0  0
 16 36  1  0  0  0  0
 18 23  1  0  0  0  0
 18 37  1  0  0  0  0
 18 38  1  0  0  0  0
 20 21  1  0  0  0  0
 20 22  1  0  0  0  0
 20 40  1  0  0  0  0
 22 41  1  0  0  0  0
 22 42  1  0  0  0  0
 23 26  2  0  0  0  0
 24 25  1  0  0  0  0
 24 27  1  0  0  0  0
 24 44  1  0  0  0  0
 26 47  1  0  0  0  0
 27 48  1  0  0  0  0
 27 49  1  0  0  0  0
 27 50  1  0  0  0  0
 28 51  1  0  0  0  0
M  END
> <PUBCHEM_COMPOUND_CID>
126010

> <PUBCHEM_CONFORMER_RMSD>
1.4

> <PUBCHEM_CONFORMER_DIVERSEORDER>
1
478
437
297
58
187
206
264
267
159
200
282
475
337
96
39
62
414
125
154
335
453
304
467
360
408
118
152
514
66
95
383
363
88
119
488
72
193
113
43
472
8
59
38
433
245
522
237
136
44
407
253
288
483
496
227
55
12
156
213
80
16
336
181
456
411
370
250
262
432
361
259
19
172
141
146
14
6
50
68
162
183
247
63
9
471
77
26
419
45
31
506
124
78
165
138
449
131
65
70
176
255
236
29
108
164
57
235
307
382
93
305
135
2
10
51
313
129
241
7
201
351
280
54
64
378
84
23
3
127
155
198
89
331
295
11
487
40
85
106
450
30
439
275
27
5
240
90
61
103
299
82
41
287

> <PUBCHEM_MMFF94_PARTIAL_CHARGES>
31
1 -0.46
10 0.03
11 -0.57
12 0.36
14 0.3
16 0.36
17 0.57
18 0.18
19 0.66
2 -0.57
20 0.36
21 0.57
22 0.23
23 -0.33
24 0.29
25 0.57
26 0.08
28 0.04
3 -0.65
39 0.37
4 -0.57
43 0.37
45 0.5
46 0.27
47 0.15
5 -0.57
51 0.15
6 -0.57
7 -0.66
8 -0.73
9 -0.73

> <PUBCHEM_EFFECTIVE_ROTOR_COUNT>
10

> <PUBCHEM_PHARMACOPHORE_FEATURES>
13
1 10 donor
1 2 acceptor
1 3 acceptor
1 4 acceptor
1 5 acceptor
1 6 acceptor
1 8 donor
1 9 donor
3 10 11 28 cation
3 3 4 19 anion
5 10 11 23 26 28 rings
5 7 12 13 14 15 rings
6 1 9 20 22 24 25 rings

> <PUBCHEM_HEAVY_ATOM_COUNT>
28

> <PUBCHEM_ATOM_DEF_STEREO_COUNT>
0

> <PUBCHEM_ATOM_UDEF_STEREO_COUNT>
4

> <PUBCHEM_BOND_DEF_STEREO_COUNT>
0

> <PUBCHEM_BOND_UDEF_STEREO_COUNT>
0

> <PUBCHEM_ISOTOPIC_ATOM_COUNT>
0

> <PUBCHEM_COMPONENT_COUNT>
1

> <PUBCHEM_CACTVS_TAUTO_COUNT>
8

> <PUBCHEM_CONFORMER_ID>
0001EC3A00000001

> <PUBCHEM_MMFF94_ENERGY>
61.8359

> <PUBCHEM_FEATURE_SELFOVERLAP>
66.028

> <PUBCHEM_SHAPE_FINGERPRINT>
105312 117 18408888425547385679
10675989 125 17543907906966456529
11370993 144 14129055924062162076
11578080 2 17487336199211569128
121448 382 18343864407629684877
12422481 6 18041275474724115822
12788726 201 18047199823721001414
13052359 8 18409449227980677275
13583140 156 17168719642374007856
14251757 5 18192439786327420431
15131766 46 15648763624617266406
173720 79 18259980478991899974
17492 54 18337940269529795903
17980427 23 17385737884979757165
1813 80 17766292242070490062
19377110 9 11240002235768069686
20197701 30 18338233769454683375
20511986 3 17458334273400046700
21344244 181 17703802387927563719
23559900 14 17761483700139013617
338550 245 18260832579556383506
4015057 19 17060339639010415800
460360 51 18410303484170415458
469060 322 17896609568983341323
5171179 24 17412729975959700529
59755656 520 18337662049309847830
9981440 41 18261675866367161739

> <PUBCHEM_SHAPE_MULTIPOLES>
525.82
12.25
3.6
1.74
7.93
3.78
0.27
-7.36
1.75
-4.65
0.3
0.9
-0.28
0.2

> <PUBCHEM_SHAPE_SELFOVERLAP>
1094.987

> <PUBCHEM_SHAPE_VOLUME>
299.4

> <PUBCHEM_COORDINATE_TYPE>
2
5
10

$$$$
