126101
  -OEChem-03292013323D

 57 63  0     1  0  0  0  0  0999 V2000
   -4.4065    1.4556    0.9864 O   0  0  0  0  0  0  0  0  0  0  0  0
   -5.4716    3.0762   -2.0349 O   0  0  0  0  0  0  0  0  0  0  0  0
   -7.0532    1.7893    1.8942 O   0  0  0  0  0  0  0  0  0  0  0  0
   -2.6856    0.0710    0.1268 N   0  0  0  0  0  0  0  0  0  0  0  0
   -0.3917    0.5901    0.1332 N   0  0  0  0  0  0  0  0  0  0  0  0
   -1.2691   -1.6444   -0.0172 N   0  0  0  0  0  0  0  0  0  0  0  0
   -4.7981   -1.1265    0.0661 N   0  0  0  0  0  0  0  0  0  0  0  0
   -4.4467   -3.5349   -0.1143 N   0  0  0  0  0  0  0  0  0  0  0  0
   -2.2638   -4.5106   -0.2163 N   0  0  0  0  0  0  0  0  0  0  0  0
   -3.1804    1.4444    0.2313 C   0  0  1  0  0  0  0  0  0  0  0  0
   -3.4612    2.1022   -1.1147 C   0  0  0  0  0  0  0  0  0  0  0  0
   -4.9684    2.0340   -1.2245 C   0  0  1  0  0  0  0  0  0  0  0  0
   -5.3910    2.1757    0.2279 C   0  0  1  0  0  0  0  0  0  0  0  0
   -6.7710    1.6133    0.5169 C   0  0  0  0  0  0  0  0  0  0  0  0
   -1.4176   -0.3724    0.0774 C   0  0  0  0  0  0  0  0  0  0  0  0
   -3.4587   -1.0526    0.0546 C   0  0  0  0  0  0  0  0  0  0  0  0
   -2.5616   -2.1051   -0.0337 C   0  0  0  0  0  0  0  0  0  0  0  0
    1.0157    0.4890    0.1054 C   0  0  0  0  0  0  0  0  0  0  0  0
    3.8121    0.2879    0.0504 C   0  0  0  0  0  0  0  0  0  0  0  0
    5.2251    0.1862    0.0226 C   0  0  0  0  0  0  0  0  0  0  0  0
    3.0177   -0.8801   -0.0228 C   0  0  0  0  0  0  0  0  0  0  0  0
    3.1965    1.5573    0.1512 C   0  0  0  0  0  0  0  0  0  0  0  0
    1.6204   -0.7628    0.0058 C   0  0  0  0  0  0  0  0  0  0  0  0
    1.7968    1.6412    0.1776 C   0  0  0  0  0  0  0  0  0  0  0  0
   -3.1002   -3.3850   -0.1201 C   0  0  0  0  0  0  0  0  0  0  0  0
    6.0194    1.3542    0.0957 C   0  0  0  0  0  0  0  0  0  0  0  0
    5.8406   -1.0832   -0.0782 C   0  0  0  0  0  0  0  0  0  0  0  0
    3.6450   -2.1292   -0.1224 C   0  0  0  0  0  0  0  0  0  0  0  0
    3.9997    2.7034    0.2227 C   0  0  0  0  0  0  0  0  0  0  0  0
    5.3920    2.6033    0.1953 C   0  0  0  0  0  0  0  0  0  0  0  0
    5.0376   -2.2294   -0.1496 C   0  0  0  0  0  0  0  0  0  0  0  0
   -5.2008   -2.4129   -0.0229 C   0  0  0  0  0  0  0  0  0  0  0  0
    7.4167    1.2370    0.0670 C   0  0  0  0  0  0  0  0  0  0  0  0
    7.2404   -1.1671   -0.1044 C   0  0  0  0  0  0  0  0  0  0  0  0
    8.0214   -0.0149   -0.0323 C   0  0  0  0  0  0  0  0  0  0  0  0
   -2.4591    2.0209    0.8167 H   0  0  0  0  0  0  0  0  0  0  0  0
   -2.9539    1.6274   -1.9609 H   0  0  0  0  0  0  0  0  0  0  0  0
   -3.1258    3.1470   -1.0953 H   0  0  0  0  0  0  0  0  0  0  0  0
   -5.2767    1.0723   -1.6482 H   0  0  0  0  0  0  0  0  0  0  0  0
   -5.3510    3.2221    0.5578 H   0  0  0  0  0  0  0  0  0  0  0  0
   -6.8273    0.5438    0.2993 H   0  0  0  0  0  0  0  0  0  0  0  0
   -7.5345    2.1365   -0.0673 H   0  0  0  0  0  0  0  0  0  0  0  0
   -5.2103    3.9253   -1.6403 H   0  0  0  0  0  0  0  0  0  0  0  0
   -0.6731    1.5665    0.1684 H   0  0  0  0  0  0  0  0  0  0  0  0
    1.0405   -1.6771   -0.0520 H   0  0  0  0  0  0  0  0  0  0  0  0
    1.3158    2.6151    0.2554 H   0  0  0  0  0  0  0  0  0  0  0  0
   -7.9421    1.4286    2.0532 H   0  0  0  0  0  0  0  0  0  0  0  0
    3.0554   -3.0420   -0.1801 H   0  0  0  0  0  0  0  0  0  0  0  0
    3.5487    3.6907    0.3008 H   0  0  0  0  0  0  0  0  0  0  0  0
    5.9825    3.5155    0.2529 H   0  0  0  0  0  0  0  0  0  0  0  0
    5.4887   -3.2165   -0.2277 H   0  0  0  0  0  0  0  0  0  0  0  0
   -6.2742   -2.5697   -0.0210 H   0  0  0  0  0  0  0  0  0  0  0  0
    8.0479    2.1214    0.1220 H   0  0  0  0  0  0  0  0  0  0  0  0
    7.7360   -2.1326   -0.1815 H   0  0  0  0  0  0  0  0  0  0  0  0
    9.1048   -0.0928   -0.0536 H   0  0  0  0  0  0  0  0  0  0  0  0
   -2.6789   -5.4301   -0.2787 H   0  0  0  0  0  0  0  0  0  0  0  0
   -1.2587   -4.4010   -0.2215 H   0  0  0  0  0  0  0  0  0  0  0  0
  1 10  1  0  0  0  0
  1 13  1  0  0  0  0
  2 12  1  0  0  0  0
  2 43  1  0  0  0  0
  3 14  1  0  0  0  0
  3 47  1  0  0  0  0
  4 10  1  0  0  0  0
  4 15  1  0  0  0  0
  4 16  1  0  0  0  0
  5 15  1  0  0  0  0
  5 18  1  0  0  0  0
  5 44  1  0  0  0  0
  6 15  2  0  0  0  0
  6 17  1  0  0  0  0
  7 16  2  0  0  0  0
  7 32  1  0  0  0  0
  8 25  1  0  0  0  0
  8 32  2  0  0  0  0
  9 25  1  0  0  0  0
  9 56  1  0  0  0  0
  9 57  1  0  0  0  0
 10 11  1  0  0  0  0
 10 36  1  0  0  0  0
 11 12  1  0  0  0  0
 11 37  1  0  0  0  0
 11 38  1  0  0  0  0
 12 13  1  0  0  0  0
 12 39  1  0  0  0  0
 13 14  1  0  0  0  0
 13 40  1  0  0  0  0
 14 41  1  0  0  0  0
 14 42  1  0  0  0  0
 16 17  1  0  0  0  0
 17 25  2  0  0  0  0
 18 23  2  0  0  0  0
 18 24  1  0  0  0  0
 19 20  1  0  0  0  0
 19 21  2  0  0  0  0
 19 22  1  0  0  0  0
 20 26  2  0  0  0  0
 20 27  1  0  0  0  0
 21 23  1  0  0  0  0
 21 28  1  0  0  0  0
 22 24  2  0  0  0  0
 22 29  1  0  0  0  0
 23 45  1  0  0  0  0
 24 46  1  0  0  0  0
 26 30  1  0  0  0  0
 26 33  1  0  0  0  0
 27 31  1  0  0  0  0
 27 34  2  0  0  0  0
 28 31  2  0  0  0  0
 28 48  1  0  0  0  0
 29 30  2  0  0  0  0
 29 49  1  0  0  0  0
 30 50  1  0  0  0  0
 31 51  1  0  0  0  0
 32 52  1  0  0  0  0
 33 35  2  0  0  0  0
 33 53  1  0  0  0  0
 34 35  1  0  0  0  0
 34 54  1  0  0  0  0
 35 55  1  0  0  0  0
M  END
> <PUBCHEM_COMPOUND_CID>
126101

> <PUBCHEM_CONFORMER_RMSD>
0.8

> <PUBCHEM_CONFORMER_DIVERSEORDER>
1
63
39
59
52
62
12
65
36
40
42
45
69
58
22
54
71
64
28
3
53
46
11
10
61
7
70
66
38
18
51
35
56
2
47
60
43
31
6
4
48
44
19
26
23
41
17
37
5
68
20
33
55
15
21
25
9
27
8
49
24
14
32
29
57
67
16
50
30
13
34

> <PUBCHEM_MMFF94_PARTIAL_CHARGES>
43
1 -0.56
10 0.54
12 0.28
13 0.28
14 0.28
15 0.27
16 0.11
17 0.23
18 0.1
2 -0.68
23 -0.15
24 -0.15
25 0.41
28 -0.15
29 -0.15
3 -0.68
30 -0.15
31 -0.15
32 0.47
33 -0.15
34 -0.15
35 -0.15
4 0.05
43 0.4
44 0.4
45 0.15
46 0.15
47 0.4
48 0.15
49 0.15
5 -0.58
50 0.15
51 0.15
52 0.15
53 0.15
54 0.15
55 0.15
56 0.4
57 0.4
6 -0.57
7 -0.57
8 -0.62
9 -0.9

> <PUBCHEM_EFFECTIVE_ROTOR_COUNT>
5

> <PUBCHEM_PHARMACOPHORE_FEATURES>
17
1 1 acceptor
1 2 acceptor
1 2 donor
1 3 acceptor
1 3 donor
1 5 donor
1 9 cation
1 9 donor
3 7 8 32 cation
4 4 5 6 15 cation
5 1 10 11 12 13 rings
5 4 6 15 16 17 rings
6 18 19 21 22 23 24 rings
6 19 20 21 27 28 31 rings
6 19 20 22 26 29 30 rings
6 20 26 27 33 34 35 rings
6 7 8 16 17 25 32 rings

> <PUBCHEM_HEAVY_ATOM_COUNT>
35

> <PUBCHEM_ATOM_DEF_STEREO_COUNT>
2

> <PUBCHEM_ATOM_UDEF_STEREO_COUNT>
1

> <PUBCHEM_BOND_DEF_STEREO_COUNT>
0

> <PUBCHEM_BOND_UDEF_STEREO_COUNT>
0

> <PUBCHEM_ISOTOPIC_ATOM_COUNT>
0

> <PUBCHEM_COMPONENT_COUNT>
1

> <PUBCHEM_CACTVS_TAUTO_COUNT>
6

> <PUBCHEM_CONFORMER_ID>
0001EC9500000001

> <PUBCHEM_MMFF94_ENERGY>
117.3408

> <PUBCHEM_FEATURE_SELFOVERLAP>
86.55

> <PUBCHEM_SHAPE_FINGERPRINT>
10 15 18041001713239578769
10050765 1 18339360876743175936
100830 39 18409728447951942285
10165383 225 18341615872666845937
10411042 1 17906733954084101267
10580692 12 18411419539942818744
10595046 47 18266177417094703718
10835480 77 18341887507309076064
12107183 9 18266739078378959042
13383668 254 16558461006908545576
15021287 119 17313391140594647613
15064986 266 18263372528261539115
15131766 46 14637441608334028063
15183329 4 18409161082909011416
15230672 131 18335978658749182034
15361156 5 18040726891467831476
15400415 2 18411699898429050978
15419008 42 18200593575769883382
15439362 3 18050283662169286973
16112460 7 18270971128382477000
17844677 252 18339367465138404010
19301679 30 18046639072896889819
19958102 18 18408595968608552063
20511986 3 18341884195941759226
21033648 144 18410284787992757293
21033648 29 17774988120847114834
21133410 171 17332184092106369062
21236236 1 18412261766203246391
21279426 13 18412546488328129334
21859007 373 17824535279843240061
21927370 108 17968948634267222971
23559900 14 18343576339799333264
24771293 8 18041277794750605644
249057 3 18411420583788890972
32027 91 17914068499372867630
335352 9 18411983534317202100
4046055 25 17977094988362433375
4073 2 18187932828325515234
4098825 35 18409730677034239768
4144715 1 18410302432204107986
5104073 3 18411975888732005752
59755656 520 18412263913845247409
6086070 43 17131823309237255120
6698420 124 18201444645167844569
9831232 110 18342465799592743126

> <PUBCHEM_SHAPE_MULTIPOLES>
672.79
21.53
4.14
0.89
10.84
2.67
0.1
-6.61
-0.96
-5.44
0.53
-1.54
-0.65
0.64

> <PUBCHEM_SHAPE_SELFOVERLAP>
1545.98

> <PUBCHEM_SHAPE_VOLUME>
343.2

> <PUBCHEM_COORDINATE_TYPE>
2
5
10

$$$$
