126113
  -OEChem-03292013323D

 36 37  0     1  0  0  0  0  0999 V2000
   -1.5212   -0.8071   -0.8696 O   0  0  0  0  0  0  0  0  0  0  0  0
   -4.5660    1.9119   -0.2480 O   0  0  0  0  0  0  0  0  0  0  0  0
   -4.7094   -0.6826    0.9766 O   0  0  0  0  0  0  0  0  0  0  0  0
   -0.3970    0.6972    0.5773 O   0  0  0  0  0  0  0  0  0  0  0  0
   -1.8382    2.8380   -0.5247 O   0  0  0  0  0  0  0  0  0  0  0  0
   -1.6309   -3.4348   -0.1379 O   0  0  0  0  0  0  0  0  0  0  0  0
    5.0480   -0.3733    0.5499 N   0  0  0  0  0  0  0  0  0  0  0  0
    5.5826   -0.1359   -0.5554 N   0  3  0  0  0  0  0  0  0  0  0  0
    6.0765    0.0786   -1.5616 N   0  5  0  0  0  0  0  0  0  0  0  0
   -3.4196    1.1363    0.1091 C   0  0  1  0  0  0  0  0  0  0  0  0
   -3.7748   -0.3439   -0.0453 C   0  0  1  0  0  0  0  0  0  0  0  0
   -2.2584    1.5087   -0.8105 C   0  0  2  0  0  0  0  0  0  0  0  0
   -2.5251   -1.2284    0.0609 C   0  0  1  0  0  0  0  0  0  0  0  0
   -1.0858    0.5380   -0.6615 C   0  0  2  0  0  0  0  0  0  0  0  0
   -2.8311   -2.6919   -0.2462 C   0  0  0  0  0  0  0  0  0  0  0  0
    0.9457    0.4330    0.5709 C   0  0  0  0  0  0  0  0  0  0  0  0
    1.3982   -0.8340    0.2166 C   0  0  0  0  0  0  0  0  0  0  0  0
    1.8476    1.4337    0.9187 C   0  0  0  0  0  0  0  0  0  0  0  0
    2.7668   -1.1034    0.2103 C   0  0  0  0  0  0  0  0  0  0  0  0
    3.2162    1.1642    0.9123 C   0  0  0  0  0  0  0  0  0  0  0  0
    3.6757   -0.1043    0.5581 C   0  0  0  0  0  0  0  0  0  0  0  0
   -3.1851    1.3830    1.1520 H   0  0  0  0  0  0  0  0  0  0  0  0
   -4.2666   -0.5053   -1.0133 H   0  0  0  0  0  0  0  0  0  0  0  0
   -2.6149    1.4963   -1.8479 H   0  0  0  0  0  0  0  0  0  0  0  0
   -2.1047   -1.1806    1.0743 H   0  0  0  0  0  0  0  0  0  0  0  0
   -0.3849    0.7728   -1.4746 H   0  0  0  0  0  0  0  0  0  0  0  0
   -3.2125   -2.8171   -1.2650 H   0  0  0  0  0  0  0  0  0  0  0  0
   -3.5601   -3.1059    0.4563 H   0  0  0  0  0  0  0  0  0  0  0  0
   -5.2478    1.7588    0.4274 H   0  0  0  0  0  0  0  0  0  0  0  0
   -5.5392   -0.2140    0.7863 H   0  0  0  0  0  0  0  0  0  0  0  0
   -1.4726    2.8460    0.3766 H   0  0  0  0  0  0  0  0  0  0  0  0
   -1.0091   -3.0849   -0.7985 H   0  0  0  0  0  0  0  0  0  0  0  0
    0.7111   -1.6330   -0.0384 H   0  0  0  0  0  0  0  0  0  0  0  0
    1.4937    2.4231    1.1947 H   0  0  0  0  0  0  0  0  0  0  0  0
    3.1146   -2.0964   -0.0626 H   0  0  0  0  0  0  0  0  0  0  0  0
    3.9164    1.9495    1.1853 H   0  0  0  0  0  0  0  0  0  0  0  0
  1 13  1  0  0  0  0
  1 14  1  0  0  0  0
  2 10  1  0  0  0  0
  2 29  1  0  0  0  0
  3 11  1  0  0  0  0
  3 30  1  0  0  0  0
  4 14  1  0  0  0  0
  4 16  1  0  0  0  0
  5 12  1  0  0  0  0
  5 31  1  0  0  0  0
  6 15  1  0  0  0  0
  6 32  1  0  0  0  0
  7  8  2  0  0  0  0
  7 21  1  0  0  0  0
  8  9  2  0  0  0  0
 10 11  1  0  0  0  0
 10 12  1  0  0  0  0
 10 22  1  0  0  0  0
 11 13  1  0  0  0  0
 11 23  1  0  0  0  0
 12 14  1  0  0  0  0
 12 24  1  0  0  0  0
 13 15  1  0  0  0  0
 13 25  1  0  0  0  0
 14 26  1  0  0  0  0
 15 27  1  0  0  0  0
 15 28  1  0  0  0  0
 16 17  2  0  0  0  0
 16 18  1  0  0  0  0
 17 19  1  0  0  0  0
 17 33  1  0  0  0  0
 18 20  2  0  0  0  0
 18 34  1  0  0  0  0
 19 21  2  0  0  0  0
 19 35  1  0  0  0  0
 20 21  1  0  0  0  0
 20 36  1  0  0  0  0
M  CHG  2   8   1   9  -1
M  END
> <PUBCHEM_COMPOUND_CID>
126113

> <PUBCHEM_CONFORMER_RMSD>
0.8

> <PUBCHEM_CONFORMER_DIVERSEORDER>
1
31
43
33
9
38
41
8
10
39
35
22
18
17
44
5
14
45
26
42
40
3
21
16
24
34
30
25
19
37
20
28
27
6
4
32
12
36
29
15
7
13
2
11
23

> <PUBCHEM_MMFF94_PARTIAL_CHARGES>
29
1 -0.56
10 0.28
11 0.28
12 0.28
13 0.28
14 0.56
15 0.28
16 0.08
17 -0.15
18 -0.15
19 -0.15
2 -0.68
20 -0.15
21 0.18
29 0.4
3 -0.68
30 0.4
31 0.4
32 0.4
33 0.15
34 0.15
35 0.15
36 0.15
4 -0.36
5 -0.68
6 -0.68
7 -0.5
8 0.69
9 -0.37

> <PUBCHEM_EFFECTIVE_ROTOR_COUNT>
5.2

> <PUBCHEM_PHARMACOPHORE_FEATURES>
12
1 1 acceptor
1 2 acceptor
1 2 donor
1 3 acceptor
1 3 donor
1 4 acceptor
1 5 acceptor
1 5 donor
1 6 acceptor
1 6 donor
6 1 10 11 12 13 14 rings
6 16 17 18 19 20 21 rings

> <PUBCHEM_HEAVY_ATOM_COUNT>
21

> <PUBCHEM_ATOM_DEF_STEREO_COUNT>
5

> <PUBCHEM_ATOM_UDEF_STEREO_COUNT>
0

> <PUBCHEM_BOND_DEF_STEREO_COUNT>
0

> <PUBCHEM_BOND_UDEF_STEREO_COUNT>
0

> <PUBCHEM_ISOTOPIC_ATOM_COUNT>
0

> <PUBCHEM_COMPONENT_COUNT>
1

> <PUBCHEM_CACTVS_TAUTO_COUNT>
1

> <PUBCHEM_CONFORMER_ID>
0001ECA100000001

> <PUBCHEM_MMFF94_ENERGY>
64.5828

> <PUBCHEM_FEATURE_SELFOVERLAP>
60.954

> <PUBCHEM_SHAPE_FINGERPRINT>
10366900 7 18410002252090331267
10616163 171 18410851096547579210
10759866 29 18115303376434960794
11014199 57 17690560105678932234
11128504 68 17240204357021231028
11552529 35 17773873288981731755
12011746 2 18411972568975499557
12166972 35 13038887950626000971
12173636 292 18265319621794489501
12236239 1 17240202114441705924
12390115 104 18199759042044392977
12500047 106 18411409597077743091
12553582 1 18335688494604829435
12616971 3 17313095342339659234
12633257 1 18059303153251086283
13167823 11 17968650515654014946
13675066 3 17774713268799482648
13760787 19 18261108552568809026
14251757 5 18411707594930882454
14617045 38 18410863161042025106
15042514 8 18265615575691796515
16988056 13 14943900293736417052
17349148 13 10952041264975148944
17804303 29 18413105078151507041
1813 80 17459177646368698301
19489759 90 9079118847527617206
20645477 70 16917062266263502788
20871999 31 18408323311194366334
21267235 1 18410016571906941531
221490 88 18269554013108714272
2297311 6 18411427210501487636
23175994 123 17275385421299638176
23402539 116 17167857548190746696
23557571 272 18342463642442532388
23559900 14 18270389598569383384
23566358 27 18045789145680576021
3004659 81 18263645074908771282
4214541 1 18412258441286688160
5104073 3 18271515503002873802
542803 24 17530684295050275216
58051976 100 18412822508153035452
6287921 2 17976815707523458856
8809292 202 18411975901210998106
9709674 26 18272082807694787102

> <PUBCHEM_SHAPE_MULTIPOLES>
382.01
10.93
2.53
0.98
11.3
1.06
0.12
0.09
1.48
-3.25
0.23
0.7
-0.15
0.56

> <PUBCHEM_SHAPE_SELFOVERLAP>
801.073

> <PUBCHEM_SHAPE_VOLUME>
212.5

> <PUBCHEM_COORDINATE_TYPE>
2
5
10

$$$$
