126105
  -OEChem-03292013323D

 35 37  0     1  0  0  0  0  0999 V2000
    5.4038    2.9085   -1.3072 Br  0  0  0  0  0  0  0  0  0  0  0  0
    3.0542    0.7623   -1.2592 S   0  0  0  0  0  0  0  0  0  0  0  0
   -2.3347    0.4923    0.8725 O   0  0  0  0  0  0  0  0  0  0  0  0
   -3.8961    1.5929   -2.1660 O   0  0  0  0  0  0  0  0  0  0  0  0
   -3.0329    2.9939    1.9554 O   0  0  0  0  0  0  0  0  0  0  0  0
   -1.7295   -3.4953    0.0462 O   0  0  0  0  0  0  0  0  0  0  0  0
    2.7936   -2.6893    0.1835 O   0  0  0  0  0  0  0  0  0  0  0  0
   -1.0006   -1.2807    0.1187 N   0  0  0  0  0  0  0  0  0  0  0  0
    0.5238   -3.0743    0.0998 N   0  0  0  0  0  0  0  0  0  0  0  0
   -2.3215   -0.7234    0.1071 C   0  0  2  0  0  0  0  0  0  0  0  0
   -3.7207    0.7948   -1.0144 C   0  0  1  0  0  0  0  0  0  0  0  0
   -2.8070   -0.3757   -1.2882 C   0  0  0  0  0  0  0  0  0  0  0  0
   -2.9567    1.5194    0.0823 C   0  0  1  0  0  0  0  0  0  0  0  0
   -3.8414    2.3781    0.9685 C   0  0  0  0  0  0  0  0  0  0  0  0
    0.0657   -0.4045    0.1601 C   0  0  0  0  0  0  0  0  0  0  0  0
   -0.8153   -2.6690    0.0848 C   0  0  0  0  0  0  0  0  0  0  0  0
    1.3470   -0.7983    0.1761 C   0  0  0  0  0  0  0  0  0  0  0  0
    1.6441   -2.2577    0.1511 C   0  0  0  0  0  0  0  0  0  0  0  0
    2.4016    0.1644    0.2115 C   0  0  0  0  0  0  0  0  0  0  0  0
    3.0232    0.7308    1.3093 C   0  0  0  0  0  0  0  0  0  0  0  0
    4.0387    1.6587    0.9379 C   0  0  0  0  0  0  0  0  0  0  0  0
    4.1608    1.7718   -0.4296 C   0  0  0  0  0  0  0  0  0  0  0  0
   -3.0231   -1.4152    0.5885 H   0  0  0  0  0  0  0  0  0  0  0  0
   -4.6982    0.4428   -0.6656 H   0  0  0  0  0  0  0  0  0  0  0  0
   -3.3159   -1.2113   -1.7794 H   0  0  0  0  0  0  0  0  0  0  0  0
   -1.9842   -0.0787   -1.9514 H   0  0  0  0  0  0  0  0  0  0  0  0
   -2.1520    2.1406   -0.3315 H   0  0  0  0  0  0  0  0  0  0  0  0
   -4.5981    1.7780    1.4843 H   0  0  0  0  0  0  0  0  0  0  0  0
   -4.3429    3.1605    0.3913 H   0  0  0  0  0  0  0  0  0  0  0  0
   -0.1615    0.6568    0.1555 H   0  0  0  0  0  0  0  0  0  0  0  0
   -3.0237    1.9083   -2.4570 H   0  0  0  0  0  0  0  0  0  0  0  0
    0.6927   -4.0761    0.0793 H   0  0  0  0  0  0  0  0  0  0  0  0
   -2.5892    2.2872    2.4548 H   0  0  0  0  0  0  0  0  0  0  0  0
    2.7636    0.4922    2.3334 H   0  0  0  0  0  0  0  0  0  0  0  0
    4.6438    2.2106    1.6464 H   0  0  0  0  0  0  0  0  0  0  0  0
  1 22  1  0  0  0  0
  2 19  1  0  0  0  0
  2 22  1  0  0  0  0
  3 10  1  0  0  0  0
  3 13  1  0  0  0  0
  4 11  1  0  0  0  0
  4 31  1  0  0  0  0
  5 14  1  0  0  0  0
  5 33  1  0  0  0  0
  6 16  2  0  0  0  0
  7 18  2  0  0  0  0
  8 10  1  0  0  0  0
  8 15  1  0  0  0  0
  8 16  1  0  0  0  0
  9 16  1  0  0  0  0
  9 18  1  0  0  0  0
  9 32  1  0  0  0  0
 10 12  1  0  0  0  0
 10 23  1  0  0  0  0
 11 12  1  0  0  0  0
 11 13  1  0  0  0  0
 11 24  1  0  0  0  0
 12 25  1  0  0  0  0
 12 26  1  0  0  0  0
 13 14  1  0  0  0  0
 13 27  1  0  0  0  0
 14 28  1  0  0  0  0
 14 29  1  0  0  0  0
 15 17  2  0  0  0  0
 15 30  1  0  0  0  0
 17 18  1  0  0  0  0
 17 19  1  0  0  0  0
 19 20  2  0  0  0  0
 20 21  1  0  0  0  0
 20 34  1  0  0  0  0
 21 22  2  0  0  0  0
 21 35  1  0  0  0  0
M  END
> <PUBCHEM_COMPOUND_CID>
126105

> <PUBCHEM_CONFORMER_RMSD>
0.6

> <PUBCHEM_CONFORMER_DIVERSEORDER>
1
67
39
53
102
4
117
121
24
75
76
96
69
111
29
35
31
84
89
59
116
5
66
85
79
14
106
119
10
3
30
70
54
98
95
71
63
91
110
51
7
47
56
104
61
82
68
27
9
33
32
120
108
72
112
25
86
42
36
16
92
73
15
114
21
115
109
17
87
74
94
26
19
83
78
8
13
64
77
11
28
113
62
99
50
97
6
34
80
65
90
101
12
43
88
44
45
22
60
2
118
93
107
38
41
81
49
37
52
103
40
58
100
57
48
23
55
46
18
20
105

> <PUBCHEM_MMFF94_PARTIAL_CHARGES>
27
1 -0.06
10 0.58
11 0.28
13 0.28
14 0.28
15 -0.04
16 0.69
17 0.06
18 0.62
19 -0.01
2 -0.08
20 -0.15
21 -0.15
22 0.1
3 -0.56
30 0.15
31 0.4
32 0.37
33 0.4
34 0.15
35 0.15
4 -0.68
5 -0.68
6 -0.57
7 -0.57
8 -0.47
9 -0.49

> <PUBCHEM_EFFECTIVE_ROTOR_COUNT>
4

> <PUBCHEM_PHARMACOPHORE_FEATURES>
12
1 1 hydrophobe
1 3 acceptor
1 4 acceptor
1 4 donor
1 5 acceptor
1 5 donor
1 6 acceptor
1 7 acceptor
1 9 donor
5 2 19 20 21 22 rings
5 3 10 11 12 13 rings
6 8 9 15 16 17 18 rings

> <PUBCHEM_HEAVY_ATOM_COUNT>
22

> <PUBCHEM_ATOM_DEF_STEREO_COUNT>
2

> <PUBCHEM_ATOM_UDEF_STEREO_COUNT>
1

> <PUBCHEM_BOND_DEF_STEREO_COUNT>
0

> <PUBCHEM_BOND_UDEF_STEREO_COUNT>
0

> <PUBCHEM_ISOTOPIC_ATOM_COUNT>
0

> <PUBCHEM_COMPONENT_COUNT>
1

> <PUBCHEM_CACTVS_TAUTO_COUNT>
3

> <PUBCHEM_CONFORMER_ID>
0001EC9900000001

> <PUBCHEM_MMFF94_ENERGY>
51.9607

> <PUBCHEM_FEATURE_SELFOVERLAP>
60.902

> <PUBCHEM_SHAPE_FINGERPRINT>
10498660 4 18339076094351776348
10670039 82 18118688962000138004
11370993 144 13841081725936209844
12107183 9 18334564730261681688
12173636 292 18342181055259000959
12363563 72 9727635003198556512
12390115 104 18263942079838079164
12788726 201 17828759882969604290
13134695 92 17538554418492933938
13140716 1 18264773168736677107
13464514 151 18272379642001711470
13583140 156 17313378964172478859
13590594 115 17760088411198563648
13965767 371 18041544898107016052
14251764 75 18127710252584472977
14508225 48 17046542129529230006
14713325 29 18119260694760941282
14739800 52 17616517894207995000
14767858 380 18195506290361507375
14848178 96 18410007706836233156
15163728 17 18191327025120961140
15342168 16 18335988575728220749
1741750 31 18411417340766809706
17980427 23 17699263496432446058
18186145 218 18338516309704583495
20510252 161 18051414268811757226
21713013 43 14979949298486362877
21864079 5 18129104429038085465
2255824 54 18195524779399403595
22749437 52 18409156714695052364
22907989 373 18123185980983178534
23557571 272 18125168379126170398
23559900 14 18271535264959707342
283562 15 18047473610426982874
350125 39 18409457968191976635
38570 142 17913801377554036032
469060 322 18045236074504967627
474 4 18337667491170327891
5048184 11 18411141333288981928
5895379 119 16914819107354428680
6034566 193 18261119594745760661
6327066 14 18114452461403212628
6328613 192 18408599293546352096
633830 44 18128824049261918677
7808743 9 18337398265604505680
84936 182 18201429229933613336
9981440 41 18340752840909746506

> <PUBCHEM_SHAPE_MULTIPOLES>
423.23
9.49
4
1.43
6.59
1.88
0.16
-10.19
2.15
-1.08
-0.49
-0.51
-1.27
-1.33

> <PUBCHEM_SHAPE_SELFOVERLAP>
882.864

> <PUBCHEM_SHAPE_VOLUME>
244

> <PUBCHEM_COORDINATE_TYPE>
2
5
10

$$$$
