126178
  -OEChem-03292013323D

 47 50  0     1  0  0  0  0  0999 V2000
   -6.7387   -3.5830    0.9898 Br  0  0  0  0  0  0  0  0  0  0  0  0
    0.6776    1.3971    0.8934 O   0  0  0  0  0  0  0  0  0  0  0  0
    3.7942    2.7218   -0.3116 O   0  0  0  0  0  0  0  0  0  0  0  0
    2.0548    4.0923    1.2635 O   0  0  0  0  0  0  0  0  0  0  0  0
   -1.8627    1.8363   -0.2099 O   0  0  0  0  0  0  0  0  0  0  0  0
   -2.1980    0.9745   -2.3181 O   0  0  0  0  0  0  0  0  0  0  0  0
    2.3546   -0.0848    0.1049 N   0  0  0  0  0  0  0  0  0  0  0  0
    2.0301   -2.0190   -0.9591 N   0  0  0  0  0  0  0  0  0  0  0  0
    4.5870   -0.4653    0.9846 N   0  0  0  0  0  0  0  0  0  0  0  0
    5.4294   -2.6655    0.3478 N   0  0  0  0  0  0  0  0  0  0  0  0
    4.1540   -4.1948   -0.9796 N   0  0  0  0  0  0  0  0  0  0  0  0
    2.4270    2.3702   -0.3720 C   0  0  2  0  0  0  0  0  0  0  0  0
    1.5072    3.4809    0.0954 C   0  0  1  0  0  0  0  0  0  0  0  0
    2.0830    1.2596    0.6086 C   0  0  1  0  0  0  0  0  0  0  0  0
    0.2463    2.7162    0.4858 C   0  0  1  0  0  0  0  0  0  0  0  0
   -0.7368    2.5650   -0.6667 C   0  0  0  0  0  0  0  0  0  0  0  0
    3.4908   -0.8201    0.2975 C   0  0  0  0  0  0  0  0  0  0  0  0
    1.5077   -0.8491   -0.6555 C   0  0  0  0  0  0  0  0  0  0  0  0
    3.2695   -2.0142   -0.3699 C   0  0  0  0  0  0  0  0  0  0  0  0
    4.2923   -2.9565   -0.3289 C   0  0  0  0  0  0  0  0  0  0  0  0
   -2.5073    1.0765   -1.1411 C   0  0  0  0  0  0  0  0  0  0  0  0
    5.5049   -1.4558    0.9536 C   0  0  0  0  0  0  0  0  0  0  0  0
   -3.6645    0.3675   -0.5388 C   0  0  0  0  0  0  0  0  0  0  0  0
   -4.7592    0.0853   -1.3299 C   0  0  0  0  0  0  0  0  0  0  0  0
   -3.6091    0.0125    0.7935 C   0  0  0  0  0  0  0  0  0  0  0  0
   -5.8462   -0.5809   -0.7640 C   0  0  0  0  0  0  0  0  0  0  0  0
   -4.6960   -0.6539    1.3596 C   0  0  0  0  0  0  0  0  0  0  0  0
   -5.8146   -0.9506    0.5807 C   0  0  0  0  0  0  0  0  0  0  0  0
   -6.9773   -1.6624    1.1859 C   0  0  0  0  0  0  0  0  0  0  0  0
    2.1850    2.0818   -1.4014 H   0  0  0  0  0  0  0  0  0  0  0  0
    1.3560    4.2640   -0.6530 H   0  0  0  0  0  0  0  0  0  0  0  0
    2.6261    1.3584    1.5566 H   0  0  0  0  0  0  0  0  0  0  0  0
   -0.2597    3.1608    1.3503 H   0  0  0  0  0  0  0  0  0  0  0  0
   -0.2493    2.0495   -1.5022 H   0  0  0  0  0  0  0  0  0  0  0  0
   -1.0752    3.5493   -1.0077 H   0  0  0  0  0  0  0  0  0  0  0  0
    3.9871    3.0255    0.5917 H   0  0  0  0  0  0  0  0  0  0  0  0
    1.4199    4.7654    1.5629 H   0  0  0  0  0  0  0  0  0  0  0  0
    0.5292   -0.5058   -0.9627 H   0  0  0  0  0  0  0  0  0  0  0  0
    6.4289   -1.2566    1.4858 H   0  0  0  0  0  0  0  0  0  0  0  0
    4.9116   -4.8626   -0.9357 H   0  0  0  0  0  0  0  0  0  0  0  0
    3.3067   -4.4140   -1.4857 H   0  0  0  0  0  0  0  0  0  0  0  0
   -4.7967    0.3707   -2.3770 H   0  0  0  0  0  0  0  0  0  0  0  0
   -2.7445    0.2197    1.4171 H   0  0  0  0  0  0  0  0  0  0  0  0
   -6.7118   -0.8060   -1.3814 H   0  0  0  0  0  0  0  0  0  0  0  0
   -4.6576   -0.9396    2.4075 H   0  0  0  0  0  0  0  0  0  0  0  0
   -7.0761   -1.4570    2.2561 H   0  0  0  0  0  0  0  0  0  0  0  0
   -7.9210   -1.4027    0.6968 H   0  0  0  0  0  0  0  0  0  0  0  0
  1 29  1  0  0  0  0
  2 14  1  0  0  0  0
  2 15  1  0  0  0  0
  3 12  1  0  0  0  0
  3 36  1  0  0  0  0
  4 13  1  0  0  0  0
  4 37  1  0  0  0  0
  5 16  1  0  0  0  0
  5 21  1  0  0  0  0
  6 21  2  0  0  0  0
  7 14  1  0  0  0  0
  7 17  1  0  0  0  0
  7 18  1  0  0  0  0
  8 18  2  0  0  0  0
  8 19  1  0  0  0  0
  9 17  2  0  0  0  0
  9 22  1  0  0  0  0
 10 20  1  0  0  0  0
 10 22  2  0  0  0  0
 11 20  1  0  0  0  0
 11 40  1  0  0  0  0
 11 41  1  0  0  0  0
 12 13  1  0  0  0  0
 12 14  1  0  0  0  0
 12 30  1  0  0  0  0
 13 15  1  0  0  0  0
 13 31  1  0  0  0  0
 14 32  1  0  0  0  0
 15 16  1  0  0  0  0
 15 33  1  0  0  0  0
 16 34  1  0  0  0  0
 16 35  1  0  0  0  0
 17 19  1  0  0  0  0
 18 38  1  0  0  0  0
 19 20  2  0  0  0  0
 21 23  1  0  0  0  0
 22 39  1  0  0  0  0
 23 24  2  0  0  0  0
 23 25  1  0  0  0  0
 24 26  1  0  0  0  0
 24 42  1  0  0  0  0
 25 27  2  0  0  0  0
 25 43  1  0  0  0  0
 26 28  2  0  0  0  0
 26 44  1  0  0  0  0
 27 28  1  0  0  0  0
 27 45  1  0  0  0  0
 28 29  1  0  0  0  0
 29 46  1  0  0  0  0
 29 47  1  0  0  0  0
M  END
> <PUBCHEM_COMPOUND_CID>
126178

> <PUBCHEM_CONFORMER_RMSD>
1

> <PUBCHEM_CONFORMER_DIVERSEORDER>
7
188
189
29
146
97
285
63
135
315
15
233
71
318
121
307
67
186
3
310
61
202
299
128
9
36
81
295
247
240
62
226
134
183
74
103
1
69
213
161
160
31
85
68
230
196
152
95
317
14
228
259
166
5
326
313
165
176
306
291
129
301
185
235
162
194
57
262
200
175
248
156
42
199
151
59
290
209
127
91
239
174
187
84
177
124
39
316
24
50
38
329
328
182
118
181
40
99
64
158
211
113
167
117
43
114
155
66
72
203
96
65
279
232
214
201
25
86
45
76
294
54
23
276
77
220
267
145
46
249
4
311
111
221
137
92
334
2
251
296
133
180
281
147
312
258
184
136
300
273
218
88
304
19
323
255
58
82
263
144
242
190
142
8
297
52
123
100
320
26
260
106
305
241
17
237
131
207
47
116
252
293
283
89
321
257
143
198
319
309
33
56
250
331
18
13
288
28
60
278
148
277
225
20
138
256
275
169
268
48
168
125
30
208
192
90
191
164
333
94
157
132
229
154
217
53
11
215
37
253
330
140
219
104
139
282
115
197
75
108
34
35
204
272
78
324
269
107
119
83
243
212
254
289
244
178
227
102
327
332
112
41
105
163
153
93
149
16
120
110
126
292
286
6
79
101
193
280
298
109
238
206
130
70
236
234
284
210
21
287
303
80
150
12
73
98
32
308
44
170
49
314
195
10
246
322
27
51
173
261
325
223
172
141
266
271
245
22
270
159
231
302
264
87
274
122
216
224
265
55
222
205
171
179

> <PUBCHEM_MMFF94_PARTIAL_CHARGES>
39
1 -0.23
10 -0.62
11 -0.9
12 0.28
13 0.28
14 0.54
15 0.28
16 0.28
17 0.11
18 0.04
19 0.23
2 -0.56
20 0.41
21 0.63
22 0.47
23 0.09
24 -0.15
25 -0.15
26 -0.15
27 -0.15
28 -0.14
29 0.37
3 -0.68
36 0.4
37 0.4
38 0.15
39 0.15
4 -0.68
40 0.4
41 0.4
42 0.15
43 0.15
44 0.15
45 0.15
5 -0.43
6 -0.57
7 0.05
8 -0.57
9 -0.57

> <PUBCHEM_EFFECTIVE_ROTOR_COUNT>
7

> <PUBCHEM_PHARMACOPHORE_FEATURES>
16
1 1 hydrophobe
1 11 cation
1 11 donor
1 2 acceptor
1 3 acceptor
1 3 donor
1 4 acceptor
1 4 donor
1 6 acceptor
3 7 8 18 cation
3 7 9 17 cation
3 9 10 22 cation
5 2 12 13 14 15 rings
5 7 8 17 18 19 rings
6 23 24 25 26 27 28 rings
6 9 10 17 19 20 22 rings

> <PUBCHEM_HEAVY_ATOM_COUNT>
29

> <PUBCHEM_ATOM_DEF_STEREO_COUNT>
3

> <PUBCHEM_ATOM_UDEF_STEREO_COUNT>
1

> <PUBCHEM_BOND_DEF_STEREO_COUNT>
0

> <PUBCHEM_BOND_UDEF_STEREO_COUNT>
0

> <PUBCHEM_ISOTOPIC_ATOM_COUNT>
0

> <PUBCHEM_COMPONENT_COUNT>
1

> <PUBCHEM_CACTVS_TAUTO_COUNT>
3

> <PUBCHEM_CONFORMER_ID>
0001ECE200000007

> <PUBCHEM_MMFF94_ENERGY>
75.6805

> <PUBCHEM_FEATURE_SELFOVERLAP>
81.814

> <PUBCHEM_SHAPE_FINGERPRINT>
11135609 12 18337949000296287184
11135926 11 18267293425391807412
11796584 16 17896590705001199909
11828532 37 17677625327153291939
11963148 33 18117834619336839890
12107183 9 18127705842259156345
12342043 65 18187648033534061669
12422481 6 16987153816956097886
12623949 98 18336837497483590375
12730499 353 18194124237935509769
13103583 49 16128358377096503573
13402501 40 18259983803549613099
13533116 47 18340773749522387537
13782708 43 18040714766759486507
13947930 73 18187644730050973779
13955234 65 18199183069301900009
13989917 61 18265337386011957891
14028597 1 17560526213307929584
14251764 30 18408046195615034755
15183329 4 13118269396740342807
15510800 12 18261385681339679667
17859628 70 18339645649832932633
19319366 153 17840867691956048609
1979834 28 18265608982262993049
20567600 70 18335697226484312922
21033650 10 16153699870155952989
21049683 271 18335708273562717660
21197605 99 17904486547409614835
21315759 227 18188481359598917926
21344244 246 18261405447132396636
22393880 68 11530780209629654065
23424784 1240 18043823198190846963
23559900 14 17967527983038429693
23569914 2 12173664474482889171
239999 70 17750227183282843649
314194 84 18343291578782237916
3178227 256 18268429225573034520
329604 57 18261958449244883326
3421961 26 18411980286494179809
345986 75 17703517644496564817
3991529 202 18267609956983605467
4435113 14 17896896537297168267
46194498 28 17967246520619735900
5309563 4 18340487755628372407
56633871 153 18273210885661966383
613672 6 18196070167378952438
6695519 79 16699166485099956442
6823239 73 17313095358976658101
7970288 3 18339081462865990395
8863177 126 18261675965056775187

> <PUBCHEM_SHAPE_MULTIPOLES>
548.5
16.22
4.91
1.34
20.09
0.3
-0.26
17.46
3.85
-5.59
0.27
1.04
-0.07
2.6

> <PUBCHEM_SHAPE_SELFOVERLAP>
1183.587

> <PUBCHEM_SHAPE_VOLUME>
308.7

> <PUBCHEM_COORDINATE_TYPE>
2
5
10

$$$$
