126104
  -OEChem-03292013323D

 35 35  0     1  0  0  0  0  0999 V2000
    1.1895    0.4814   -0.0427 S   0  0  0  0  0  0  0  0  0  0  0  0
   -1.6185    2.3143   -1.7533 O   0  0  0  0  0  0  0  0  0  0  0  0
   -0.7512    3.6971   -0.1798 O   0  0  0  0  0  0  0  0  0  0  0  0
   -3.2683   -0.3079    1.7574 O   0  0  0  0  0  0  0  0  0  0  0  0
   -5.4968   -2.6586   -1.0749 O   0  0  0  0  0  0  0  0  0  0  0  0
   -5.7663   -0.7383    0.1115 O   0  0  0  0  0  0  0  0  0  0  0  0
   -2.0807    0.3388   -0.1299 N   0  0  0  0  0  0  0  0  0  0  0  0
   -1.3984    1.4553    0.4796 C   0  0  1  0  0  0  0  0  0  0  0  0
   -0.0843    1.0320    1.1405 C   0  0  0  0  0  0  0  0  0  0  0  0
    2.5123    0.1520    1.1424 C   0  0  0  0  0  0  0  0  0  0  0  0
    3.7652   -0.3401    0.4719 C   0  0  0  0  0  0  0  0  0  0  0  0
   -1.2110    2.6062   -0.4950 C   0  0  0  0  0  0  0  0  0  0  0  0
   -2.9699   -0.4569    0.5751 C   0  0  0  0  0  0  0  0  0  0  0  0
   -3.5349   -1.5705   -0.2779 C   0  0  0  0  0  0  0  0  0  0  0  0
    4.7220    0.5748    0.0519 C   0  0  0  0  0  0  0  0  0  0  0  0
    3.9503   -1.7032    0.2813 C   0  0  0  0  0  0  0  0  0  0  0  0
    5.8843    0.1186   -0.5698 C   0  0  0  0  0  0  0  0  0  0  0  0
    5.1126   -2.1593   -0.3403 C   0  0  0  0  0  0  0  0  0  0  0  0
    6.0796   -1.2485   -0.7658 C   0  0  0  0  0  0  0  0  0  0  0  0
   -5.0357   -1.5872   -0.3822 C   0  0  0  0  0  0  0  0  0  0  0  0
   -2.0641    1.8437    1.2616 H   0  0  0  0  0  0  0  0  0  0  0  0
    0.3277    1.8805    1.6982 H   0  0  0  0  0  0  0  0  0  0  0  0
   -0.2683    0.2183    1.8506 H   0  0  0  0  0  0  0  0  0  0  0  0
   -1.8741    0.1299   -1.1022 H   0  0  0  0  0  0  0  0  0  0  0  0
    2.1688   -0.5908    1.8719 H   0  0  0  0  0  0  0  0  0  0  0  0
    2.7313    1.0670    1.7053 H   0  0  0  0  0  0  0  0  0  0  0  0
   -3.2097   -2.5136    0.1761 H   0  0  0  0  0  0  0  0  0  0  0  0
   -3.1338   -1.5253   -1.2960 H   0  0  0  0  0  0  0  0  0  0  0  0
    4.5800    1.6419    0.1986 H   0  0  0  0  0  0  0  0  0  0  0  0
    3.2036   -2.4216    0.6077 H   0  0  0  0  0  0  0  0  0  0  0  0
    6.6371    0.8277   -0.9014 H   0  0  0  0  0  0  0  0  0  0  0  0
    5.2648   -3.2238   -0.4934 H   0  0  0  0  0  0  0  0  0  0  0  0
    6.9846   -1.6038   -1.2500 H   0  0  0  0  0  0  0  0  0  0  0  0
   -1.4950    3.0720   -2.3640 H   0  0  0  0  0  0  0  0  0  0  0  0
   -6.4761   -2.6639   -1.1319 H   0  0  0  0  0  0  0  0  0  0  0  0
  1  9  1  0  0  0  0
  1 10  1  0  0  0  0
  2 12  1  0  0  0  0
  2 34  1  0  0  0  0
  3 12  2  0  0  0  0
  4 13  2  0  0  0  0
  5 20  1  0  0  0  0
  5 35  1  0  0  0  0
  6 20  2  0  0  0  0
  7  8  1  0  0  0  0
  7 13  1  0  0  0  0
  7 24  1  0  0  0  0
  8  9  1  0  0  0  0
  8 12  1  0  0  0  0
  8 21  1  0  0  0  0
  9 22  1  0  0  0  0
  9 23  1  0  0  0  0
 10 11  1  0  0  0  0
 10 25  1  0  0  0  0
 10 26  1  0  0  0  0
 11 15  2  0  0  0  0
 11 16  1  0  0  0  0
 13 14  1  0  0  0  0
 14 20  1  0  0  0  0
 14 27  1  0  0  0  0
 14 28  1  0  0  0  0
 15 17  1  0  0  0  0
 15 29  1  0  0  0  0
 16 18  2  0  0  0  0
 16 30  1  0  0  0  0
 17 19  2  0  0  0  0
 17 31  1  0  0  0  0
 18 19  1  0  0  0  0
 18 32  1  0  0  0  0
 19 33  1  0  0  0  0
M  END
> <PUBCHEM_COMPOUND_CID>
126104

> <PUBCHEM_CONFORMER_RMSD>
0.8

> <PUBCHEM_CONFORMER_DIVERSEORDER>
1
89
30
43
11
92
9
100
83
10
13
23
34
22
65
108
59
97
72
73
86
67
47
62
70
42
81
90
55
32
26
8
80
41
104
64
76
33
82
88
44
15
49
93
46
61
36
91
105
6
98
99
4
45
106
96
17
48
68
39
21
101
38
54
103
75
50
5
40
87
31
66
102
19
14
7
24
63
18
94
74
51
37
53
3
107
77
56
84
78
2
20
57
35
29
52
60
27
69
79
28
58
16
71
12
85
25
95

> <PUBCHEM_MMFF94_PARTIAL_CHARGES>
28
1 -0.46
10 0.37
11 -0.14
12 0.66
13 0.57
14 0.12
15 -0.15
16 -0.15
17 -0.15
18 -0.15
19 -0.15
2 -0.65
20 0.66
24 0.37
29 0.15
3 -0.57
30 0.15
31 0.15
32 0.15
33 0.15
34 0.5
35 0.5
4 -0.57
5 -0.65
6 -0.57
7 -0.73
8 0.36
9 0.23

> <PUBCHEM_EFFECTIVE_ROTOR_COUNT>
9

> <PUBCHEM_PHARMACOPHORE_FEATURES>
10
1 14 anion
1 2 acceptor
1 3 acceptor
1 4 acceptor
1 5 acceptor
1 6 acceptor
1 7 donor
3 2 3 12 anion
3 5 6 20 anion
6 11 15 16 17 18 19 rings

> <PUBCHEM_HEAVY_ATOM_COUNT>
20

> <PUBCHEM_ATOM_DEF_STEREO_COUNT>
1

> <PUBCHEM_ATOM_UDEF_STEREO_COUNT>
0

> <PUBCHEM_BOND_DEF_STEREO_COUNT>
0

> <PUBCHEM_BOND_UDEF_STEREO_COUNT>
0

> <PUBCHEM_ISOTOPIC_ATOM_COUNT>
0

> <PUBCHEM_COMPONENT_COUNT>
1

> <PUBCHEM_CACTVS_TAUTO_COUNT>
2

> <PUBCHEM_CONFORMER_ID>
0001EC9800000001

> <PUBCHEM_MMFF94_ENERGY>
36.9711

> <PUBCHEM_FEATURE_SELFOVERLAP>
51.131

> <PUBCHEM_SHAPE_FINGERPRINT>
10042902 136 18129377266656339287
11265709 11 18408888460107954049
12592606 108 18342174527653315111
12596602 18 16774082890452176570
12633257 1 15482387663716242023
12788726 201 18041271089219304081
12895836 83 14056991750799144035
12916754 54 18412829058305625384
13103583 49 17059790978234074179
13167372 99 11097843099852028270
13533116 47 17773310343322706731
14123256 34 18339648940052421875
14178000 29 18338793541580562193
14251764 30 18343016722381837391
14347332 77 18335697179350520330
14556957 393 17531262637981980852
15880784 105 18060706108391856402
16994733 274 13912590625391348903
18222031 100 18339072791426473753
19784866 240 18270120240333432059
20871999 31 18040989627380877665
21403212 168 12175633836581595077
22950370 63 18343022206954587649
23503953 91 12031777072756962946
23557571 272 18335987476010734788
23559900 14 17895760741326544160
2838139 119 11891328781165476331
2871803 45 18260265244240587962
2916195 48 7997974570046951267
3014063 24 17917139611347576031
3268164 11 17531250513500325596
351380 3 18202562899421021838
465052 167 17632863048917870310
497634 4 18201728314535180928
59755656 520 18052820252469330673

> <PUBCHEM_SHAPE_MULTIPOLES>
381.11
14.89
2.98
1.14
4.6
1.58
0.06
-12.44
-3
-2.65
-1.06
-0.49
0.21
-0.08

> <PUBCHEM_SHAPE_SELFOVERLAP>
761.84

> <PUBCHEM_SHAPE_VOLUME>
224

> <PUBCHEM_COORDINATE_TYPE>
2
5
10

$$$$
