126110
  -OEChem-03292013323D

 30 30  0     1  0  0  0  0  0999 V2000
   -0.8168    0.7354    0.8042 S   0  0  0  0  0  0  0  0  0  0  0  0
    4.1047    1.5406    0.5766 O   0  0  0  0  0  0  0  0  0  0  0  0
   -4.4760    1.0921    1.1801 O   0  0  0  0  0  0  0  0  0  0  0  0
    3.0905    2.1055   -1.3748 O   0  0  0  0  0  0  0  0  0  0  0  0
   -3.9740    1.3171   -1.0208 O   0  0  0  0  0  0  0  0  0  0  0  0
    1.5814   -1.4544   -1.0392 N   0  0  0  0  0  0  0  0  0  0  0  0
   -3.8015   -1.6072   -0.7297 N   0  0  0  0  0  0  0  0  0  0  0  0
    2.2307   -2.6847    0.6919 N   0  0  0  0  0  0  0  0  0  0  0  0
    0.7987    0.6703   -0.0017 C   0  0  1  0  0  0  0  0  0  0  0  0
    1.7200    1.7466    0.5838 C   0  0  0  0  0  0  0  0  0  0  0  0
    1.3789   -0.7320    0.0718 C   0  0  0  0  0  0  0  0  0  0  0  0
   -1.6746   -0.4889   -0.2363 C   0  0  0  0  0  0  0  0  0  0  0  0
   -3.1485   -0.6332    0.1473 C   0  0  1  0  0  0  0  0  0  0  0  0
    1.7682   -1.4675    1.1253 C   0  0  0  0  0  0  0  0  0  0  0  0
    3.0203    1.8296   -0.1836 C   0  0  0  0  0  0  0  0  0  0  0  0
   -3.9061    0.6753    0.0211 C   0  0  0  0  0  0  0  0  0  0  0  0
    2.1042   -2.6446   -0.6159 C   0  0  0  0  0  0  0  0  0  0  0  0
    0.6310    0.9224   -1.0575 H   0  0  0  0  0  0  0  0  0  0  0  0
    1.2619    2.7424    0.5400 H   0  0  0  0  0  0  0  0  0  0  0  0
    1.9451    1.5444    1.6389 H   0  0  0  0  0  0  0  0  0  0  0  0
   -1.1907   -1.4644   -0.1269 H   0  0  0  0  0  0  0  0  0  0  0  0
   -1.5838   -0.1723   -1.2820 H   0  0  0  0  0  0  0  0  0  0  0  0
   -3.2278   -0.9934    1.1804 H   0  0  0  0  0  0  0  0  0  0  0  0
    1.3915   -1.1891   -1.9971 H   0  0  0  0  0  0  0  0  0  0  0  0
    1.7548   -1.2168    2.1759 H   0  0  0  0  0  0  0  0  0  0  0  0
    2.3689   -3.4333   -1.3058 H   0  0  0  0  0  0  0  0  0  0  0  0
   -4.7531   -1.7752   -0.4047 H   0  0  0  0  0  0  0  0  0  0  0  0
   -3.3184   -2.5026   -0.6659 H   0  0  0  0  0  0  0  0  0  0  0  0
    4.9371    1.5861    0.0596 H   0  0  0  0  0  0  0  0  0  0  0  0
   -4.9439    1.9472    1.0708 H   0  0  0  0  0  0  0  0  0  0  0  0
  1  9  1  0  0  0  0
  1 12  1  0  0  0  0
  2 15  1  0  0  0  0
  2 29  1  0  0  0  0
  3 16  1  0  0  0  0
  3 30  1  0  0  0  0
  4 15  2  0  0  0  0
  5 16  2  0  0  0  0
  6 11  1  0  0  0  0
  6 17  1  0  0  0  0
  6 24  1  0  0  0  0
  7 13  1  0  0  0  0
  7 27  1  0  0  0  0
  7 28  1  0  0  0  0
  8 14  1  0  0  0  0
  8 17  2  0  0  0  0
  9 10  1  0  0  0  0
  9 11  1  0  0  0  0
  9 18  1  0  0  0  0
 10 15  1  0  0  0  0
 10 19  1  0  0  0  0
 10 20  1  0  0  0  0
 11 14  2  0  0  0  0
 12 13  1  0  0  0  0
 12 21  1  0  0  0  0
 12 22  1  0  0  0  0
 13 16  1  0  0  0  0
 13 23  1  0  0  0  0
 14 25  1  0  0  0  0
 17 26  1  0  0  0  0
M  END
> <PUBCHEM_COMPOUND_CID>
126110

> <PUBCHEM_CONFORMER_RMSD>
0.8

> <PUBCHEM_CONFORMER_DIVERSEORDER>
1
117
63
105
148
27
115
16
144
45
112
136
97
59
6
66
101
121
120
78
138
39
92
69
48
31
77
142
124
15
82
23
51
50
96
81
137
133
57
47
22
106
68
33
118
140
91
85
150
49
29
56
41
34
93
13
122
26
71
149
89
128
113
14
74
147
17
25
94
37
119
73
151
132
88
125
30
4
5
40
134
152
55
64
99
24
79
103
114
111
139
123
146
43
90
95
84
72
126
131
61
127
9
18
143
130
28
12
36
135
75
20
19
102
141
35
116
38
70
80
54
109
11
67
3
8
83
86
98
110
52
46
2
129
108
65
42
104
10
145
100
58
60
53
62
107
7
76
21
87
44
32

> <PUBCHEM_MMFF94_PARTIAL_CHARGES>
24
1 -0.46
10 0.06
11 -0.33
12 0.23
13 0.33
14 0.08
15 0.66
16 0.66
17 0.04
2 -0.65
24 0.27
25 0.15
26 0.15
27 0.36
28 0.36
29 0.5
3 -0.65
30 0.5
4 -0.57
5 -0.57
6 0.03
7 -0.99
8 -0.57
9 0.41

> <PUBCHEM_EFFECTIVE_ROTOR_COUNT>
7

> <PUBCHEM_PHARMACOPHORE_FEATURES>
12
1 2 acceptor
1 3 acceptor
1 4 acceptor
1 5 acceptor
1 6 donor
1 7 cation
1 7 donor
3 2 4 15 anion
3 3 5 16 anion
3 6 8 17 cation
4 1 9 10 12 hydrophobe
5 6 8 11 14 17 rings

> <PUBCHEM_HEAVY_ATOM_COUNT>
17

> <PUBCHEM_ATOM_DEF_STEREO_COUNT>
0

> <PUBCHEM_ATOM_UDEF_STEREO_COUNT>
2

> <PUBCHEM_BOND_DEF_STEREO_COUNT>
0

> <PUBCHEM_BOND_UDEF_STEREO_COUNT>
0

> <PUBCHEM_ISOTOPIC_ATOM_COUNT>
0

> <PUBCHEM_COMPONENT_COUNT>
1

> <PUBCHEM_CACTVS_TAUTO_COUNT>
2

> <PUBCHEM_CONFORMER_ID>
0001EC9E00000001

> <PUBCHEM_MMFF94_ENERGY>
21.4716

> <PUBCHEM_FEATURE_SELFOVERLAP>
61.012

> <PUBCHEM_SHAPE_FINGERPRINT>
10980938 120 18411417327834311517
11265709 11 17976257933343025282
116883 192 18053096220690877421
12553582 1 18051417266540992419
13464514 151 18409175423778289666
14251751 93 17844809389442905615
14415576 193 18333731359633584780
15163728 17 17315667181240772412
15442244 35 18125443016594190417
15502722 9 18409168818012976342
18186145 218 18261676970004938171
19784866 9 18412543219420427184
201361 129 18412265068405388445
20645477 70 18411131399451398639
20671657 53 18120657924620329394
21501502 16 18341607127474854527
21524375 3 18192990645952586858
21618674 54 18411415137886371727
2255824 54 18336267846922504426
23419403 2 17534033330407178262
23532345 88 18337381669518071095
23557571 272 15574981880445944023
23559900 14 18199743652786129138
23598291 2 18272087163318704135
474 4 18261116321779694336
543358 83 18270126694920159273
58051976 378 18265611172753900847
6138700 20 18410580557627891854
633830 44 18200882901667820284
7364860 26 18341895152060296818
74978 22 18340486665007249099
81228 2 17476639776476756130
81539 233 18335421296378803500

> <PUBCHEM_SHAPE_MULTIPOLES>
315.28
7.9
2.82
1.09
7.77
1.08
-0.03
-2.68
-0.42
-3
-0.26
-0.1
-0.06
-0.59

> <PUBCHEM_SHAPE_SELFOVERLAP>
627.997

> <PUBCHEM_SHAPE_VOLUME>
188.1

> <PUBCHEM_COORDINATE_TYPE>
2
5
10

$$$$
