126106
  -OEChem-03292013323D

 35 37  0     1  0  0  0  0  0999 V2000
   -5.2199    2.8277    1.3237 Cl  0  0  0  0  0  0  0  0  0  0  0  0
   -3.0509    0.8005    1.2654 S   0  0  0  0  0  0  0  0  0  0  0  0
    2.3323    0.4743   -0.8738 O   0  0  0  0  0  0  0  0  0  0  0  0
    3.9101    1.5470    2.1662 O   0  0  0  0  0  0  0  0  0  0  0  0
    3.0586    2.9710   -1.9498 O   0  0  0  0  0  0  0  0  0  0  0  0
    1.6813   -3.5084   -0.0592 O   0  0  0  0  0  0  0  0  0  0  0  0
   -2.8322   -2.6491   -0.1885 O   0  0  0  0  0  0  0  0  0  0  0  0
    0.9784   -1.2853   -0.1239 N   0  0  0  0  0  0  0  0  0  0  0  0
   -0.5669   -3.0609   -0.1088 N   0  0  0  0  0  0  0  0  0  0  0  0
    2.3057   -0.7435   -0.1122 C   0  0  2  0  0  0  0  0  0  0  0  0
    3.7240    0.7547    1.0123 C   0  0  1  0  0  0  0  0  0  0  0  0
    2.7970   -0.4059    1.2836 C   0  0  0  0  0  0  0  0  0  0  0  0
    2.9673    1.4916   -0.0812 C   0  0  1  0  0  0  0  0  0  0  0  0
    3.8609    2.3427   -0.9658 C   0  0  0  0  0  0  0  0  0  0  0  0
   -0.0776   -0.3965   -0.1613 C   0  0  0  0  0  0  0  0  0  0  0  0
    0.7769   -2.6714   -0.0941 C   0  0  0  0  0  0  0  0  0  0  0  0
   -1.3634   -0.7752   -0.1770 C   0  0  0  0  0  0  0  0  0  0  0  0
   -1.6776   -2.2311   -0.1561 C   0  0  0  0  0  0  0  0  0  0  0  0
   -2.4068    0.2000   -0.2081 C   0  0  0  0  0  0  0  0  0  0  0  0
   -3.0230    0.7770   -1.3035 C   0  0  0  0  0  0  0  0  0  0  0  0
   -4.0273    1.7153   -0.9279 C   0  0  0  0  0  0  0  0  0  0  0  0
   -4.1467    1.8254    0.4401 C   0  0  0  0  0  0  0  0  0  0  0  0
    2.9986   -1.4420   -0.5966 H   0  0  0  0  0  0  0  0  0  0  0  0
    4.6969    0.3923    0.6612 H   0  0  0  0  0  0  0  0  0  0  0  0
    3.2965   -1.2490    1.7715 H   0  0  0  0  0  0  0  0  0  0  0  0
    1.9785   -0.1014    1.9488 H   0  0  0  0  0  0  0  0  0  0  0  0
    2.1704    2.1208    0.3355 H   0  0  0  0  0  0  0  0  0  0  0  0
    4.6099    1.7353   -1.4845 H   0  0  0  0  0  0  0  0  0  0  0  0
    4.3722    3.1172   -0.3868 H   0  0  0  0  0  0  0  0  0  0  0  0
    0.1620    0.6620   -0.1537 H   0  0  0  0  0  0  0  0  0  0  0  0
    3.0418    1.8716    2.4592 H   0  0  0  0  0  0  0  0  0  0  0  0
   -0.7476   -4.0607   -0.0911 H   0  0  0  0  0  0  0  0  0  0  0  0
    2.6059    2.2711   -2.4508 H   0  0  0  0  0  0  0  0  0  0  0  0
   -2.7672    0.5387   -2.3287 H   0  0  0  0  0  0  0  0  0  0  0  0
   -4.6285    2.2780   -1.6309 H   0  0  0  0  0  0  0  0  0  0  0  0
  1 22  1  0  0  0  0
  2 19  1  0  0  0  0
  2 22  1  0  0  0  0
  3 10  1  0  0  0  0
  3 13  1  0  0  0  0
  4 11  1  0  0  0  0
  4 31  1  0  0  0  0
  5 14  1  0  0  0  0
  5 33  1  0  0  0  0
  6 16  2  0  0  0  0
  7 18  2  0  0  0  0
  8 10  1  0  0  0  0
  8 15  1  0  0  0  0
  8 16  1  0  0  0  0
  9 16  1  0  0  0  0
  9 18  1  0  0  0  0
  9 32  1  0  0  0  0
 10 12  1  0  0  0  0
 10 23  1  0  0  0  0
 11 12  1  0  0  0  0
 11 13  1  0  0  0  0
 11 24  1  0  0  0  0
 12 25  1  0  0  0  0
 12 26  1  0  0  0  0
 13 14  1  0  0  0  0
 13 27  1  0  0  0  0
 14 28  1  0  0  0  0
 14 29  1  0  0  0  0
 15 17  2  0  0  0  0
 15 30  1  0  0  0  0
 17 18  1  0  0  0  0
 17 19  1  0  0  0  0
 19 20  2  0  0  0  0
 20 21  1  0  0  0  0
 20 34  1  0  0  0  0
 21 22  2  0  0  0  0
 21 35  1  0  0  0  0
M  END
> <PUBCHEM_COMPOUND_CID>
126106

> <PUBCHEM_CONFORMER_RMSD>
0.6

> <PUBCHEM_CONFORMER_DIVERSEORDER>
1
180
172
9
92
60
147
96
205
133
185
199
207
181
148
109
204
21
47
138
161
40
117
5
81
169
113
13
209
134
86
62
139
65
106
57
108
166
187
212
88
193
177
17
112
114
18
126
45
110
168
182
167
77
19
64
116
200
122
111
157
10
31
107
198
44
89
144
121
190
93
171
174
28
63
36
50
100
120
189
208
49
103
46
85
137
156
51
54
194
79
183
142
186
196
43
123
15
16
149
191
104
68
71
42
26
162
203
202
146
30
91
125
99
175
124
153
197
29
155
152
164
118
178
41
22
24
4
135
48
25
14
3
75
73
201
210
98
158
53
37
119
2
101
129
132
115
154
74
7
136
55
11
159
76
69
179
95
23
206
97
56
141
143
38
145
52
165
33
70
12
58
195
67
35
6
84
83
128
163
102
8
131
151
82
80
150
27
39
87
173
34
105
184
140
211
72
66
188
32
127
94
160
20
130
59
78
176
170
192
90
61

> <PUBCHEM_MMFF94_PARTIAL_CHARGES>
27
1 -0.12
10 0.58
11 0.28
13 0.28
14 0.28
15 -0.04
16 0.69
17 0.06
18 0.62
19 -0.01
2 -0.08
20 -0.15
21 -0.15
22 0.16
3 -0.56
30 0.15
31 0.4
32 0.37
33 0.4
34 0.15
35 0.15
4 -0.68
5 -0.68
6 -0.57
7 -0.57
8 -0.47
9 -0.49

> <PUBCHEM_EFFECTIVE_ROTOR_COUNT>
4

> <PUBCHEM_PHARMACOPHORE_FEATURES>
11
1 3 acceptor
1 4 acceptor
1 4 donor
1 5 acceptor
1 5 donor
1 6 acceptor
1 7 acceptor
1 9 donor
5 2 19 20 21 22 rings
5 3 10 11 12 13 rings
6 8 9 15 16 17 18 rings

> <PUBCHEM_HEAVY_ATOM_COUNT>
22

> <PUBCHEM_ATOM_DEF_STEREO_COUNT>
1

> <PUBCHEM_ATOM_UDEF_STEREO_COUNT>
2

> <PUBCHEM_BOND_DEF_STEREO_COUNT>
0

> <PUBCHEM_BOND_UDEF_STEREO_COUNT>
0

> <PUBCHEM_ISOTOPIC_ATOM_COUNT>
0

> <PUBCHEM_COMPONENT_COUNT>
1

> <PUBCHEM_CACTVS_TAUTO_COUNT>
3

> <PUBCHEM_CONFORMER_ID>
0001EC9A00000001

> <PUBCHEM_MMFF94_ENERGY>
51.9195

> <PUBCHEM_FEATURE_SELFOVERLAP>
55.827

> <PUBCHEM_SHAPE_FINGERPRINT>
10670039 82 18192723460516979284
11582403 64 16012642393915046159
11725454 13 16590523728047102991
12173636 292 18269268122431096935
12390115 104 18340782531844316693
12403259 118 18114173151285034905
12633257 1 17967800648678467608
12788726 201 18050566545288855951
13134695 92 17685211673336621383
13140716 1 18338513019923697819
13878862 14 17905315235864761597
13965767 371 18263348236100605840
14178342 30 18409161138590657459
14251764 75 18336844068488965861
14848178 96 18342452595750048521
151778 21 18336276655947816757
15342168 16 18338525144943129501
16752209 62 18196648721075225478
1741750 31 18341889701651917651
17980427 23 17556266532961981626
1798214 55 18342174449240922073
1813 80 7853569136539154817
18186145 218 18198060270862013607
18222031 100 11169922679811603425
18785283 64 18191596254687026451
19752476 56 17632008646282902720
19784866 34 18201430351141857417
20510252 161 18197499742853701523
20739085 24 17834124047602059427
21864079 5 18115875264046474588
22149856 69 18342184350332568643
22182937 141 18342455971820715857
22749437 52 18412252939449432057
22907989 373 18123463053908405391
23419403 2 16618370921410068986
235170 7 15338831014589087053
23558518 356 18335133228227243994
23559900 14 18058444318526840830
283562 15 18194117653998727147
312425 83 15123522388453564736
474 4 18338797806393435769
49207404 50 18189070736902700259
5048184 11 18337398226464367077
6034566 193 18262531397888139693
6328613 192 18411694418704857504
633830 44 17915738670414163517
7064713 232 18410287042782171140
7097593 13 17750210574754703418
7808743 9 18265624353998255548
84936 182 18058719192064412841
960060 61 11671771655343838177
9981440 41 18198885037352818595

> <PUBCHEM_SHAPE_MULTIPOLES>
419.16
9.19
3.93
1.42
4.79
1.96
0.19
-9.63
1.94
-0.73
-0.55
-0.55
-1.25
-1.29

> <PUBCHEM_SHAPE_SELFOVERLAP>
880.62

> <PUBCHEM_SHAPE_VOLUME>
238.3

> <PUBCHEM_COORDINATE_TYPE>
2
5
10

$$$$
