126125
  -OEChem-03292013323D

 41 43  0     1  0  0  0  0  0999 V2000
    2.6361   -1.5250    0.5990 S   0  0  0  0  0  0  0  0  0  0  0  0
    4.2689    1.7561   -0.1095 F   0  0  0  0  0  0  0  0  0  0  0  0
   -0.4031   -1.5721    1.0467 O   0  0  0  0  0  0  0  0  0  0  0  0
   -3.1473   -2.4593   -1.0986 O   0  0  0  0  0  0  0  0  0  0  0  0
   -1.6694   -4.2480    0.3161 O   0  0  0  0  0  0  0  0  0  0  0  0
   -1.9782    0.0852    0.4119 N   0  0  0  0  0  0  0  0  0  0  0  0
   -3.0921    2.0183    0.4052 N   0  0  0  0  0  0  0  0  0  0  0  0
    0.2450    0.8861   -0.1525 N   0  0  0  0  0  0  0  0  0  0  0  0
    0.2660    3.3075   -0.4564 N   0  0  0  0  0  0  0  0  0  0  0  0
   -1.6993    4.6505   -0.2092 N   0  0  0  0  0  0  0  0  0  0  0  0
   -1.8165   -2.1112   -0.7755 C   0  0  2  0  0  0  0  0  0  0  0  0
   -0.9424   -3.3147   -0.4829 C   0  0  1  0  0  0  0  0  0  0  0  0
   -1.7325   -1.3496    0.5385 C   0  0  1  0  0  0  0  0  0  0  0  0
    0.1736   -2.7083    0.3621 C   0  0  1  0  0  0  0  0  0  0  0  0
    1.3504   -2.2202   -0.4710 C   0  0  0  0  0  0  0  0  0  0  0  0
   -1.0621    1.0509    0.1007 C   0  0  0  0  0  0  0  0  0  0  0  0
   -3.1824    0.7171    0.5847 C   0  0  0  0  0  0  0  0  0  0  0  0
   -1.7722    2.2408    0.1022 C   0  0  0  0  0  0  0  0  0  0  0  0
    3.8283   -1.0661   -0.6804 C   0  0  0  0  0  0  0  0  0  0  0  0
   -1.0592    3.3992   -0.1900 C   0  0  0  0  0  0  0  0  0  0  0  0
    5.1013   -0.4414   -0.1102 C   0  0  0  0  0  0  0  0  0  0  0  0
    0.8275    2.0748   -0.4216 C   0  0  0  0  0  0  0  0  0  0  0  0
    4.8597    0.8293    0.6908 C   0  0  0  0  0  0  0  0  0  0  0  0
   -1.3965   -1.5269   -1.6023 H   0  0  0  0  0  0  0  0  0  0  0  0
   -0.6054   -3.8358   -1.3835 H   0  0  0  0  0  0  0  0  0  0  0  0
   -2.4455   -1.7244    1.2836 H   0  0  0  0  0  0  0  0  0  0  0  0
    0.5133   -3.4165    1.1277 H   0  0  0  0  0  0  0  0  0  0  0  0
    1.0379   -1.4495   -1.1814 H   0  0  0  0  0  0  0  0  0  0  0  0
    1.7771   -3.0565   -1.0343 H   0  0  0  0  0  0  0  0  0  0  0  0
   -3.4931   -3.0213   -0.3845 H   0  0  0  0  0  0  0  0  0  0  0  0
   -1.0698   -4.9869    0.5169 H   0  0  0  0  0  0  0  0  0  0  0  0
   -4.0857    0.1791    0.8378 H   0  0  0  0  0  0  0  0  0  0  0  0
    3.3518   -0.3607   -1.3697 H   0  0  0  0  0  0  0  0  0  0  0  0
    4.0974   -1.9623   -1.2493 H   0  0  0  0  0  0  0  0  0  0  0  0
    5.7631   -0.2014   -0.9512 H   0  0  0  0  0  0  0  0  0  0  0  0
    5.6302   -1.1709    0.5146 H   0  0  0  0  0  0  0  0  0  0  0  0
    1.8864    2.0385   -0.6477 H   0  0  0  0  0  0  0  0  0  0  0  0
    5.8114    1.2479    1.0320 H   0  0  0  0  0  0  0  0  0  0  0  0
    4.2254    0.6752    1.5670 H   0  0  0  0  0  0  0  0  0  0  0  0
   -2.6880    4.7216   -0.0098 H   0  0  0  0  0  0  0  0  0  0  0  0
   -1.1594    5.4778   -0.4234 H   0  0  0  0  0  0  0  0  0  0  0  0
  1 15  1  0  0  0  0
  1 19  1  0  0  0  0
  2 23  1  0  0  0  0
  3 13  1  0  0  0  0
  3 14  1  0  0  0  0
  4 11  1  0  0  0  0
  4 30  1  0  0  0  0
  5 12  1  0  0  0  0
  5 31  1  0  0  0  0
  6 13  1  0  0  0  0
  6 16  1  0  0  0  0
  6 17  1  0  0  0  0
  7 17  2  0  0  0  0
  7 18  1  0  0  0  0
  8 16  2  0  0  0  0
  8 22  1  0  0  0  0
  9 20  1  0  0  0  0
  9 22  2  0  0  0  0
 10 20  1  0  0  0  0
 10 40  1  0  0  0  0
 10 41  1  0  0  0  0
 11 12  1  0  0  0  0
 11 13  1  0  0  0  0
 11 24  1  0  0  0  0
 12 14  1  0  0  0  0
 12 25  1  0  0  0  0
 13 26  1  0  0  0  0
 14 15  1  0  0  0  0
 14 27  1  0  0  0  0
 15 28  1  0  0  0  0
 15 29  1  0  0  0  0
 16 18  1  0  0  0  0
 17 32  1  0  0  0  0
 18 20  2  0  0  0  0
 19 21  1  0  0  0  0
 19 33  1  0  0  0  0
 19 34  1  0  0  0  0
 21 23  1  0  0  0  0
 21 35  1  0  0  0  0
 21 36  1  0  0  0  0
 22 37  1  0  0  0  0
 23 38  1  0  0  0  0
 23 39  1  0  0  0  0
M  END
> <PUBCHEM_COMPOUND_CID>
126125

> <PUBCHEM_CONFORMER_RMSD>
0.8

> <PUBCHEM_CONFORMER_DIVERSEORDER>
4
162
241
117
136
194
197
257
7
179
128
225
226
206
209
205
23
73
82
223
21
198
266
39
122
262
213
77
285
137
12
100
108
110
279
170
27
24
221
133
300
14
248
165
104
283
190
306
10
176
36
18
155
20
102
276
139
40
131
186
92
303
222
216
9
152
134
90
275
138
212
232
22
33
156
287
172
1
260
119
154
34
286
35
273
105
204
143
19
157
191
305
242
144
74
263
291
261
13
256
274
296
217
5
214
238
44
184
169
124
151
16
234
159
208
86
145
189
2
121
70
301
78
67
277
249
230
229
207
58
46
220
182
25
75
109
98
178
28
107
236
288
254
250
302
48
175
268
52
97
153
111
299
264
53
62
188
267
142
180
17
120
125
163
265
140
93
51
71
258
79
282
253
245
141
252
149
55
65
66
281
244
255
269
210
304
200
113
61
43
49
95
280
29
168
272
243
129
307
103
215
271
174
233
247
76
68
246
171
158
240
183
193
118
114
228
80
112
101
203
292
231
166
311
3
83
147
115
8
69
224
235
239
295
312
310
146
15
259
85
106
309
31
30
89
173
177
227
45
298
218
94
72
130
202
42
308
195
47
290
32
237
50
11
199
96
192
289
278
41
160
56
187
284
116
84
64
270
196
132
185
293
88
126
38
297
201
127
57
6
164
87
91
150
161
294
60
63
37
54
81
211
99
181
59
26
135
123
251
148
167
219

> <PUBCHEM_MMFF94_PARTIAL_CHARGES>
28
1 -0.46
10 -0.9
11 0.28
12 0.28
13 0.54
14 0.28
15 0.23
16 0.11
17 0.04
18 0.23
19 0.23
2 -0.34
20 0.41
22 0.47
23 0.34
3 -0.56
30 0.4
31 0.4
32 0.15
37 0.15
4 -0.68
40 0.4
41 0.4
5 -0.68
6 0.05
7 -0.57
8 -0.57
9 -0.62

> <PUBCHEM_EFFECTIVE_ROTOR_COUNT>
7

> <PUBCHEM_PHARMACOPHORE_FEATURES>
14
1 10 cation
1 10 donor
1 3 acceptor
1 4 acceptor
1 4 donor
1 5 acceptor
1 5 donor
3 6 7 17 cation
3 6 8 16 cation
3 8 9 22 cation
4 1 15 19 21 hydrophobe
5 3 11 12 13 14 rings
5 6 7 16 17 18 rings
6 8 9 16 18 20 22 rings

> <PUBCHEM_HEAVY_ATOM_COUNT>
23

> <PUBCHEM_ATOM_DEF_STEREO_COUNT>
3

> <PUBCHEM_ATOM_UDEF_STEREO_COUNT>
1

> <PUBCHEM_BOND_DEF_STEREO_COUNT>
0

> <PUBCHEM_BOND_UDEF_STEREO_COUNT>
0

> <PUBCHEM_ISOTOPIC_ATOM_COUNT>
0

> <PUBCHEM_COMPONENT_COUNT>
1

> <PUBCHEM_CACTVS_TAUTO_COUNT>
3

> <PUBCHEM_CONFORMER_ID>
0001ECAD00000004

> <PUBCHEM_MMFF94_ENERGY>
49.8282

> <PUBCHEM_FEATURE_SELFOVERLAP>
71.663

> <PUBCHEM_SHAPE_FINGERPRINT>
10411042 1 18122348149102957578
10498660 4 18410004429965921374
10670039 82 18191598643580354748
10871710 139 18410857698149397814
1100329 8 18265900335874935163
11370993 70 18193835934345588964
12173636 292 18266175037492878996
12553582 1 17977120259685758108
13140716 1 18337121179577716280
138480 1 16609133808076005518
14081887 123 18340759417021361392
14790565 3 18268155266551584881
19591789 44 18194967340094290128
19930381 70 17473260977255591360
20621476 13 16966883040409159580
221490 88 12935616806371743681
23227448 37 18341892957321576190
23557571 272 18201166533208405446
23559900 14 17331391485618280353
238 59 16817958618369092300
2748010 2 17473271976887771875
5939293 188 16679218890859368250
9981440 41 18047191847639685866

> <PUBCHEM_SHAPE_MULTIPOLES>
427.39
6.93
5.65
0.85
10.12
0.27
0
-3.81
-0.38
-3.73
0.78
0.02
0.29
-0.11

> <PUBCHEM_SHAPE_SELFOVERLAP>
894.226

> <PUBCHEM_SHAPE_VOLUME>
246.9

> <PUBCHEM_COORDINATE_TYPE>
2
5
10

$$$$
