126256
  -OEChem-03292013323D

 34 36  0     1  0  0  0  0  0999 V2000
    1.9091   -0.4050   -0.8767 O   0  0  0  0  0  0  0  0  0  0  0  0
    3.5672    0.6849    2.1141 O   0  0  0  0  0  0  0  0  0  0  0  0
   -0.7007    0.1834   -1.8826 O   0  0  0  0  0  0  0  0  0  0  0  0
    3.7699    1.1596   -2.2938 O   0  0  0  0  0  0  0  0  0  0  0  0
   -0.6947   -3.3601    0.4989 O   0  0  0  0  0  0  0  0  0  0  0  0
   -4.4404    0.0587   -0.6135 O   0  0  0  0  0  0  0  0  0  0  0  0
   -0.1490   -1.1560   -0.0450 N   0  0  0  0  0  0  0  0  0  0  0  0
   -2.3100   -1.7522    0.1121 N   0  0  0  0  0  0  0  0  0  0  0  0
   -0.6259    1.2211    0.3542 N   0  0  0  0  0  0  0  0  0  0  0  0
   -2.9441    1.6851    0.1728 N   0  0  0  0  0  0  0  0  0  0  0  0
   -1.5090    3.2052    1.2152 N   0  0  0  0  0  0  0  0  0  0  0  0
    1.2744   -1.2418    0.1035 C   0  0  2  0  0  0  0  0  0  0  0  0
    1.7582   -0.7773    1.4650 C   0  0  0  0  0  0  0  0  0  0  0  0
    3.1291   -0.2358    1.1372 C   0  0  1  0  0  0  0  0  0  0  0  0
    2.8752    0.4237   -0.2088 C   0  0  1  0  0  0  0  0  0  0  0  0
   -0.8392    0.0419   -0.4780 C   0  0  1  0  0  0  0  0  0  0  0  0
    4.1220    0.5451   -1.0668 C   0  0  0  0  0  0  0  0  0  0  0  0
   -2.1985   -0.5091   -0.2184 C   0  0  0  0  0  0  0  0  0  0  0  0
   -1.0145   -2.2134    0.2109 C   0  0  0  0  0  0  0  0  0  0  0  0
   -3.3369    0.4378   -0.2685 C   0  0  0  0  0  0  0  0  0  0  0  0
   -1.6421    2.0043    0.5682 C   0  0  0  0  0  0  0  0  0  0  0  0
    1.5985   -2.2733   -0.0777 H   0  0  0  0  0  0  0  0  0  0  0  0
    1.7845   -1.5885    2.1999 H   0  0  0  0  0  0  0  0  0  0  0  0
    1.1281    0.0086    1.8972 H   0  0  0  0  0  0  0  0  0  0  0  0
    3.8503   -1.0583    1.0610 H   0  0  0  0  0  0  0  0  0  0  0  0
    2.4215    1.4158   -0.0873 H   0  0  0  0  0  0  0  0  0  0  0  0
    4.5495   -0.4365   -1.2962 H   0  0  0  0  0  0  0  0  0  0  0  0
    4.8850    1.1579   -0.5786 H   0  0  0  0  0  0  0  0  0  0  0  0
    4.4130    1.0553    1.8099 H   0  0  0  0  0  0  0  0  0  0  0  0
   -0.5929   -0.7089   -2.2534 H   0  0  0  0  0  0  0  0  0  0  0  0
   -3.6628    2.3939    0.2862 H   0  0  0  0  0  0  0  0  0  0  0  0
    3.0886    0.6074   -2.7142 H   0  0  0  0  0  0  0  0  0  0  0  0
   -0.6056    3.5256    1.5465 H   0  0  0  0  0  0  0  0  0  0  0  0
   -2.3077    3.8072    1.3830 H   0  0  0  0  0  0  0  0  0  0  0  0
  1 12  1  0  0  0  0
  1 15  1  0  0  0  0
  2 14  1  0  0  0  0
  2 29  1  0  0  0  0
  3 16  1  0  0  0  0
  3 30  1  0  0  0  0
  4 17  1  0  0  0  0
  4 32  1  0  0  0  0
  5 19  2  0  0  0  0
  6 20  2  0  0  0  0
  7 12  1  0  0  0  0
  7 16  1  0  0  0  0
  7 19  1  0  0  0  0
  8 18  2  0  0  0  0
  8 19  1  0  0  0  0
  9 16  1  0  0  0  0
  9 21  2  0  0  0  0
 10 20  1  0  0  0  0
 10 21  1  0  0  0  0
 10 31  1  0  0  0  0
 11 21  1  0  0  0  0
 11 33  1  0  0  0  0
 11 34  1  0  0  0  0
 12 13  1  0  0  0  0
 12 22  1  0  0  0  0
 13 14  1  0  0  0  0
 13 23  1  0  0  0  0
 13 24  1  0  0  0  0
 14 15  1  0  0  0  0
 14 25  1  0  0  0  0
 15 17  1  0  0  0  0
 15 26  1  0  0  0  0
 16 18  1  0  0  0  0
 17 27  1  0  0  0  0
 17 28  1  0  0  0  0
 18 20  1  0  0  0  0
M  END
> <PUBCHEM_COMPOUND_CID>
126256

> <PUBCHEM_CONFORMER_RMSD>
0.6

> <PUBCHEM_CONFORMER_DIVERSEORDER>
2
22
12
9
14
19
17
11
21
5
15
13
4
1
18
6
8
7
10
3
20
16

> <PUBCHEM_MMFF94_PARTIAL_CHARGES>
26
1 -0.56
10 -0.49
11 -0.85
12 0.58
14 0.28
15 0.28
16 0.89
17 0.28
18 0.39
19 0.84
2 -0.68
20 0.63
21 0.56
29 0.4
3 -0.68
30 0.4
31 0.37
32 0.4
33 0.4
34 0.4
4 -0.68
5 -0.57
6 -0.57
7 -0.66
8 -0.66
9 -0.7

> <PUBCHEM_EFFECTIVE_ROTOR_COUNT>
3.4

> <PUBCHEM_PHARMACOPHORE_FEATURES>
16
1 1 acceptor
1 10 donor
1 11 donor
1 2 acceptor
1 2 donor
1 3 acceptor
1 3 donor
1 4 acceptor
1 4 donor
1 5 acceptor
1 6 acceptor
1 8 acceptor
1 8 donor
5 1 12 13 14 15 rings
5 7 8 16 18 19 rings
6 9 10 16 18 20 21 rings

> <PUBCHEM_HEAVY_ATOM_COUNT>
21

> <PUBCHEM_ATOM_DEF_STEREO_COUNT>
3

> <PUBCHEM_ATOM_UDEF_STEREO_COUNT>
1

> <PUBCHEM_BOND_DEF_STEREO_COUNT>
0

> <PUBCHEM_BOND_UDEF_STEREO_COUNT>
0

> <PUBCHEM_ISOTOPIC_ATOM_COUNT>
0

> <PUBCHEM_COMPONENT_COUNT>
1

> <PUBCHEM_CACTVS_TAUTO_COUNT>
5

> <PUBCHEM_CONFORMER_ID>
0001ED3000000002

> <PUBCHEM_MMFF94_ENERGY>
49.0565

> <PUBCHEM_FEATURE_SELFOVERLAP>
81.466

> <PUBCHEM_SHAPE_FINGERPRINT>
10498660 4 18413108393961205088
11471102 22 15791725283419691498
11640471 11 17749400294761482532
12173636 292 18411131416093009311
12236239 1 17894344497461741826
12403814 3 17313371349332398439
12553582 1 17904485460287464771
13027679 85 18049169053367228031
13140716 1 18195799897871482721
13538477 17 18261391182696439442
13764800 53 18410859862501438475
13965767 371 17685201777837460216
14115302 16 18334002909119865178
14787075 74 18334859467739121483
14790565 3 18340221708628311537
15775835 57 17748829635320574910
16752209 62 18411698764298942717
16945 1 18412546534913555371
20510252 161 18410864286560554187
20715895 44 17463668915520106549
21524375 3 18055632819753954638
22802520 49 17846507989242810722
23402539 116 18199164296041598542
23419403 2 16967400312978946486
23526113 38 17345773884220875222
23557571 272 18127405881378797090
23558518 356 18124319294341144811
23559900 14 18341898476523525710
350125 39 18050849918577561043
458136 41 18194700171785790779
537710 114 18408036317052779005
7364860 26 17695619663274109475
77492 1 17749664177473222122
81228 2 18342744034960676065

> <PUBCHEM_SHAPE_MULTIPOLES>
372.05
6.62
2.55
1.51
2.4
0.35
0.18
-2.28
1.1
-1.82
-0.86
1.79
-0.57
-0.83

> <PUBCHEM_SHAPE_SELFOVERLAP>
809.673

> <PUBCHEM_SHAPE_VOLUME>
202.6

> <PUBCHEM_COORDINATE_TYPE>
2
5
10

$$$$
