126200
  -OEChem-03292013323D

 31 33  0     0  0  0  0  0  0999 V2000
    2.1879    2.3721    0.8238 S   0  0  0  0  0  0  0  0  0  0  0  0
    0.2400   -1.8956    0.3790 O   0  0  0  0  0  0  0  0  0  0  0  0
   -4.6889    0.2265   -0.2532 O   0  0  0  0  0  0  0  0  0  0  0  0
    5.5609   -0.5479   -0.1342 O   0  0  0  0  0  0  0  0  0  0  0  0
   -2.2214    1.9142   -0.2286 N   0  0  0  0  0  0  0  0  0  0  0  0
    2.0110    0.0242   -0.2432 N   0  0  0  0  0  0  0  0  0  0  0  0
   -1.9254   -3.5802    0.3772 N   0  0  0  0  0  0  0  0  0  0  0  0
    3.9009   -1.8977   -0.9205 N   0  0  0  0  0  0  0  0  0  0  0  0
   -1.0891    0.0222    0.0653 C   0  0  0  0  0  0  0  0  0  0  0  0
   -2.3486    0.5578   -0.0957 C   0  0  0  0  0  0  0  0  0  0  0  0
   -0.1667    1.0980    0.0271 C   0  0  0  0  0  0  0  0  0  0  0  0
   -0.8945    2.2548   -0.1550 C   0  0  0  0  0  0  0  0  0  0  0  0
   -0.8704   -1.3974    0.2343 C   0  0  0  0  0  0  0  0  0  0  0  0
   -3.5542   -0.2181   -0.1128 C   0  0  0  0  0  0  0  0  0  0  0  0
    1.2973    1.0615    0.1519 C   0  0  0  0  0  0  0  0  0  0  0  0
   -2.1263   -2.2372    0.2188 C   0  0  0  0  0  0  0  0  0  0  0  0
   -3.2948    2.8649   -0.4176 C   0  0  0  0  0  0  0  0  0  0  0  0
   -3.3457   -1.6855    0.0599 C   0  0  0  0  0  0  0  0  0  0  0  0
    3.3480    0.2742   -0.0026 C   0  0  0  0  0  0  0  0  0  0  0  0
    3.6393    1.4941    0.5709 C   0  0  0  0  0  0  0  0  0  0  0  0
    4.3407   -0.7050   -0.3449 C   0  0  0  0  0  0  0  0  0  0  0  0
   -0.5871    3.2890   -0.2445 H   0  0  0  0  0  0  0  0  0  0  0  0
   -2.8826    3.8747   -0.4902 H   0  0  0  0  0  0  0  0  0  0  0  0
   -3.8191    2.6152   -1.3434 H   0  0  0  0  0  0  0  0  0  0  0  0
   -3.9665    2.8039    0.4422 H   0  0  0  0  0  0  0  0  0  0  0  0
   -4.2404   -2.3012    0.0511 H   0  0  0  0  0  0  0  0  0  0  0  0
    4.5995    1.9065    0.8477 H   0  0  0  0  0  0  0  0  0  0  0  0
   -0.9862   -3.9399    0.4930 H   0  0  0  0  0  0  0  0  0  0  0  0
   -2.7153   -4.2133    0.3789 H   0  0  0  0  0  0  0  0  0  0  0  0
    4.5581   -2.6276   -1.1748 H   0  0  0  0  0  0  0  0  0  0  0  0
    2.9186   -2.0781   -1.1027 H   0  0  0  0  0  0  0  0  0  0  0  0
  1 15  1  0  0  0  0
  1 20  1  0  0  0  0
  2 13  2  0  0  0  0
  3 14  2  0  0  0  0
  4 21  2  0  0  0  0
  5 10  1  0  0  0  0
  5 12  1  0  0  0  0
  5 17  1  0  0  0  0
  6 15  2  0  0  0  0
  6 19  1  0  0  0  0
  7 16  1  0  0  0  0
  7 28  1  0  0  0  0
  7 29  1  0  0  0  0
  8 21  1  0  0  0  0
  8 30  1  0  0  0  0
  8 31  1  0  0  0  0
  9 10  2  0  0  0  0
  9 11  1  0  0  0  0
  9 13  1  0  0  0  0
 10 14  1  0  0  0  0
 11 12  2  0  0  0  0
 11 15  1  0  0  0  0
 12 22  1  0  0  0  0
 13 16  1  0  0  0  0
 14 18  1  0  0  0  0
 16 18  2  0  0  0  0
 17 23  1  0  0  0  0
 17 24  1  0  0  0  0
 17 25  1  0  0  0  0
 18 26  1  0  0  0  0
 19 20  2  0  0  0  0
 19 21  1  0  0  0  0
 20 27  1  0  0  0  0
M  END
> <PUBCHEM_COMPOUND_CID>
126200

> <PUBCHEM_CONFORMER_RMSD>
0.6

> <PUBCHEM_CONFORMER_DIVERSEORDER>
1
12
7
9
6
4
2
11
8
5
10
3

> <PUBCHEM_MMFF94_PARTIAL_CHARGES>
27
1 -0.08
10 -0.24
12 -0.3
13 0.64
14 0.64
15 0.38
16 0.11
17 0.26
18 -0.14
19 0.14
2 -0.57
20 -0.11
21 0.72
22 0.15
26 0.15
27 0.15
28 0.4
29 0.4
3 -0.57
30 0.37
31 0.37
4 -0.57
5 0.05
6 -0.57
7 -0.9
8 -0.8
9 -0.09

> <PUBCHEM_EFFECTIVE_ROTOR_COUNT>
2

> <PUBCHEM_PHARMACOPHORE_FEATURES>
11
1 2 acceptor
1 3 acceptor
1 4 acceptor
1 5 cation
1 6 acceptor
1 7 cation
1 7 donor
1 8 donor
5 1 6 15 19 20 rings
5 5 9 10 11 12 rings
6 9 10 13 14 16 18 rings

> <PUBCHEM_HEAVY_ATOM_COUNT>
21

> <PUBCHEM_ATOM_DEF_STEREO_COUNT>
0

> <PUBCHEM_ATOM_UDEF_STEREO_COUNT>
0

> <PUBCHEM_BOND_DEF_STEREO_COUNT>
0

> <PUBCHEM_BOND_UDEF_STEREO_COUNT>
0

> <PUBCHEM_ISOTOPIC_ATOM_COUNT>
0

> <PUBCHEM_COMPONENT_COUNT>
1

> <PUBCHEM_CACTVS_TAUTO_COUNT>
6

> <PUBCHEM_CONFORMER_ID>
0001ECF800000001

> <PUBCHEM_MMFF94_ENERGY>
36.6922

> <PUBCHEM_FEATURE_SELFOVERLAP>
55.914

> <PUBCHEM_SHAPE_FINGERPRINT>
10411042 1 18048600614367364707
10608611 8 18341045315387352720
10616163 171 18195249038567484334
10693767 8 18057861702514355567
10967382 1 18409726262050510753
11458722 379 18408041796988047514
11578080 2 16771809198999909275
12403259 226 18341045319481866449
13140716 1 18193564591259747601
13402501 40 18342461422124054758
13544592 145 18412260653194962345
14115302 16 18260556640375331596
14223421 5 18268425926784209256
14790565 3 17548424700074029560
14866123 147 17048812084385186362
15042514 8 18263086672966832131
15163728 17 16155655841258924389
15196674 1 18338797930525331843
15536298 74 18342173414348677224
16752209 62 18335410249569866041
16945 1 18335975459003288441
17804303 29 18411141358989895548
1813 80 17313940964864216021
19141452 34 18200598111245057295
19591789 44 18337673018846043779
200 152 17489867150229549469
20510252 161 18342173371478781889
20645477 70 17561367279662689172
20871999 31 18335430054059823756
21267235 1 18409737269756408195
21279426 13 18123470483895833239
21521239 73 18057866096339310495
221490 88 18339928237722871376
2334 1 17760085520743614993
23402539 116 18341606027905087941
23558518 356 18188492496596926400
23559900 14 18340483478147043624
23566358 2 18196371416543388679
2748010 2 17977376463248926825
3004659 81 18189341174346599670
335352 9 18410573985631603381
350125 39 18337392622154492457
4214541 1 18410856538613729284
5104073 3 18341331197074044640
54173680 148 18264490761804524563
559249 180 18116427047385515602
59755656 215 18335979762676420949
69090 78 18272365403757824927
81228 2 18116151249949498825
8809292 202 18410294739389367754
9709674 26 18340484581620803028

> <PUBCHEM_SHAPE_MULTIPOLES>
398.49
8.71
3.33
0.72
6.75
0.59
-0.02
1.39
0.98
-2
-0.18
0.24
-0.04
1.28

> <PUBCHEM_SHAPE_SELFOVERLAP>
874.499

> <PUBCHEM_SHAPE_VOLUME>
218.4

> <PUBCHEM_COORDINATE_TYPE>
2
5
10

$$$$
