126268
  -OEChem-03292013323D

 55 60  0     1  0  0  0  0  0999 V2000
   -4.0189   -0.5477   -1.7074 O   0  0  0  0  0  0  0  0  0  0  0  0
   -2.0240    2.3333    0.3742 O   0  0  0  0  0  0  0  0  0  0  0  0
   -5.1901   -2.3821   -2.4961 O   0  0  0  0  0  0  0  0  0  0  0  0
    2.1597    0.4258   -0.7446 O   0  0  0  0  0  0  0  0  0  0  0  0
    2.3018   -0.4556    1.4087 O   0  0  0  0  0  0  0  0  0  0  0  0
    8.4128    0.5964   -0.1508 N   0  0  0  0  0  0  0  0  0  0  0  0
   10.5438   -0.3591   -0.1845 N   0  0  0  0  0  0  0  0  0  0  0  0
    8.7807   -1.7643    0.1694 N   0  0  0  0  0  0  0  0  0  0  0  0
   -3.5020   -0.0542   -0.4309 C   0  0  1  0  0  0  0  0  0  0  0  0
   -3.9263   -1.1397    0.5050 C   0  0  0  0  0  0  0  0  0  0  0  0
   -1.9956    0.0704   -0.5469 C   0  0  0  0  0  0  0  0  0  0  0  0
   -4.1670    1.2754   -0.1339 C   0  0  0  0  0  0  0  0  0  0  0  0
   -4.6052   -2.1219   -0.1937 C   0  0  0  0  0  0  0  0  0  0  0  0
   -1.3560    1.2408   -0.1232 C   0  0  0  0  0  0  0  0  0  0  0  0
   -3.3928    2.3714    0.2635 C   0  0  0  0  0  0  0  0  0  0  0  0
   -4.6672   -1.7516   -1.5992 C   0  0  0  0  0  0  0  0  0  0  0  0
   -3.7342   -1.2636    1.8721 C   0  0  0  0  0  0  0  0  0  0  0  0
   -1.2038   -0.9792   -1.0453 C   0  0  0  0  0  0  0  0  0  0  0  0
   -5.5612    1.4387   -0.2164 C   0  0  0  0  0  0  0  0  0  0  0  0
   -5.1179   -3.2532    0.4138 C   0  0  0  0  0  0  0  0  0  0  0  0
    0.0367    1.3578   -0.1845 C   0  0  0  0  0  0  0  0  0  0  0  0
   -3.9931    3.5947    0.5799 C   0  0  0  0  0  0  0  0  0  0  0  0
    0.1855   -0.8597   -1.1133 C   0  0  0  0  0  0  0  0  0  0  0  0
   -4.2411   -2.3971    2.5145 C   0  0  0  0  0  0  0  0  0  0  0  0
    0.8057    0.3084   -0.6807 C   0  0  0  0  0  0  0  0  0  0  0  0
   -6.1596    2.6614    0.0930 C   0  0  0  0  0  0  0  0  0  0  0  0
   -4.9283   -3.3852    1.7897 C   0  0  0  0  0  0  0  0  0  0  0  0
   -5.3754    3.7389    0.4929 C   0  0  0  0  0  0  0  0  0  0  0  0
    2.8302   -0.0105    0.4009 C   0  0  0  0  0  0  0  0  0  0  0  0
    4.2992    0.1488    0.2557 C   0  0  0  0  0  0  0  0  0  0  0  0
    5.0575    0.3968    1.3814 C   0  0  0  0  0  0  0  0  0  0  0  0
    4.8604    0.0440   -1.0005 C   0  0  0  0  0  0  0  0  0  0  0  0
    6.4375    0.5469    1.2450 C   0  0  0  0  0  0  0  0  0  0  0  0
    6.2405    0.1939   -1.1371 C   0  0  0  0  0  0  0  0  0  0  0  0
    7.0292    0.4453   -0.0142 C   0  0  0  0  0  0  0  0  0  0  0  0
    9.1788   -0.4643   -0.0563 C   0  0  0  0  0  0  0  0  0  0  0  0
   -3.2044   -0.5041    2.4372 H   0  0  0  0  0  0  0  0  0  0  0  0
   -1.6608   -1.9065   -1.3817 H   0  0  0  0  0  0  0  0  0  0  0  0
   -6.1991    0.6116   -0.5176 H   0  0  0  0  0  0  0  0  0  0  0  0
   -5.6476   -4.0135   -0.1486 H   0  0  0  0  0  0  0  0  0  0  0  0
    0.5208    2.2720    0.1510 H   0  0  0  0  0  0  0  0  0  0  0  0
   -3.3858    4.4407    0.8913 H   0  0  0  0  0  0  0  0  0  0  0  0
    0.7764   -1.6846   -1.5022 H   0  0  0  0  0  0  0  0  0  0  0  0
   -4.1028   -2.5164    3.5857 H   0  0  0  0  0  0  0  0  0  0  0  0
   -7.2381    2.7697    0.0250 H   0  0  0  0  0  0  0  0  0  0  0  0
   -5.3149   -4.2590    2.3070 H   0  0  0  0  0  0  0  0  0  0  0  0
   -5.8399    4.6898    0.7363 H   0  0  0  0  0  0  0  0  0  0  0  0
    4.6081    0.4814    2.3664 H   0  0  0  0  0  0  0  0  0  0  0  0
    4.2694   -0.1642   -1.8873 H   0  0  0  0  0  0  0  0  0  0  0  0
    7.0434    0.7440    2.1256 H   0  0  0  0  0  0  0  0  0  0  0  0
    6.6926    0.1107   -2.1220 H   0  0  0  0  0  0  0  0  0  0  0  0
   10.9863    0.5377   -0.3537 H   0  0  0  0  0  0  0  0  0  0  0  0
   11.1472   -1.1709   -0.1127 H   0  0  0  0  0  0  0  0  0  0  0  0
    9.4589   -2.5164    0.2260 H   0  0  0  0  0  0  0  0  0  0  0  0
    7.8060   -2.0174    0.2875 H   0  0  0  0  0  0  0  0  0  0  0  0
  1  9  1  0  0  0  0
  1 16  1  0  0  0  0
  2 14  1  0  0  0  0
  2 15  1  0  0  0  0
  3 16  2  0  0  0  0
  4 25  1  0  0  0  0
  4 29  1  0  0  0  0
  5 29  2  0  0  0  0
  6 35  1  0  0  0  0
  6 36  2  0  0  0  0
  7 36  1  0  0  0  0
  7 52  1  0  0  0  0
  7 53  1  0  0  0  0
  8 36  1  0  0  0  0
  8 54  1  0  0  0  0
  8 55  1  0  0  0  0
  9 10  1  0  0  0  0
  9 11  1  0  0  0  0
  9 12  1  0  0  0  0
 10 13  1  0  0  0  0
 10 17  2  0  0  0  0
 11 14  2  0  0  0  0
 11 18  1  0  0  0  0
 12 15  1  0  0  0  0
 12 19  2  0  0  0  0
 13 16  1  0  0  0  0
 13 20  2  0  0  0  0
 14 21  1  0  0  0  0
 15 22  2  0  0  0  0
 17 24  1  0  0  0  0
 17 37  1  0  0  0  0
 18 23  2  0  0  0  0
 18 38  1  0  0  0  0
 19 26  1  0  0  0  0
 19 39  1  0  0  0  0
 20 27  1  0  0  0  0
 20 40  1  0  0  0  0
 21 25  2  0  0  0  0
 21 41  1  0  0  0  0
 22 28  1  0  0  0  0
 22 42  1  0  0  0  0
 23 25  1  0  0  0  0
 23 43  1  0  0  0  0
 24 27  2  0  0  0  0
 24 44  1  0  0  0  0
 26 28  2  0  0  0  0
 26 45  1  0  0  0  0
 27 46  1  0  0  0  0
 28 47  1  0  0  0  0
 29 30  1  0  0  0  0
 30 31  2  0  0  0  0
 30 32  1  0  0  0  0
 31 33  1  0  0  0  0
 31 48  1  0  0  0  0
 32 34  2  0  0  0  0
 32 49  1  0  0  0  0
 33 35  2  0  0  0  0
 33 50  1  0  0  0  0
 34 35  1  0  0  0  0
 34 51  1  0  0  0  0
M  END
> <PUBCHEM_COMPOUND_CID>
126268

> <PUBCHEM_CONFORMER_RMSD>
0.8

> <PUBCHEM_CONFORMER_DIVERSEORDER>
2
67
79
34
98
132
80
134
140
146
31
9
128
113
77
12
65
103
133
19
84
60
90
66
6
123
131
75
45
121
116
117
30
89
62
13
129
49
70
93
126
143
23
95
52
48
88
44
125
142
37
99
29
151
104
122
100
149
105
138
46
21
81
97
41
135
94
20
144
3
110
59
108
10
83
78
124
58
22
87
64
114
61
4
127
72
15
147
24
130
68
17
139
150
57
63
33
106
137
7
91
27
69
107
148
85
145
8
56
115
26
92
50
71
18
118
32
119
16
102
82
1
14
51
54
25
53
141
86
5
76
96
11
55
136
36
28
109
40
47
39
120
73
101
111
42
112
38
74
43
35

> <PUBCHEM_MMFF94_PARTIAL_CHARGES>
55
1 -0.43
10 -0.14
11 -0.14
12 -0.14
13 0.09
14 0.08
15 0.08
16 0.63
17 -0.15
18 -0.15
19 -0.15
2 -0.17
20 -0.15
21 -0.15
22 -0.15
23 -0.15
24 -0.15
25 0.08
26 -0.15
27 -0.15
28 -0.15
29 0.63
3 -0.57
30 0.09
31 -0.15
32 -0.15
33 -0.15
34 -0.15
35 0.18
36 0.55
37 0.15
38 0.15
39 0.15
4 -0.23
40 0.15
41 0.15
42 0.15
43 0.15
44 0.15
45 0.15
46 0.15
47 0.15
48 0.15
49 0.15
5 -0.57
50 0.15
51 0.15
52 0.4
53 0.4
54 0.4
55 0.4
6 -0.63
7 -0.85
8 -0.85
9 0.71

> <PUBCHEM_EFFECTIVE_ROTOR_COUNT>
4.4

> <PUBCHEM_PHARMACOPHORE_FEATURES>
12
1 2 acceptor
1 3 acceptor
1 5 acceptor
1 7 donor
1 8 donor
4 6 7 8 36 cation
5 1 9 10 13 16 rings
6 10 13 17 20 24 27 rings
6 11 14 18 21 23 25 rings
6 12 15 19 22 26 28 rings
6 2 9 11 12 14 15 rings
6 30 31 32 33 34 35 rings

> <PUBCHEM_HEAVY_ATOM_COUNT>
36

> <PUBCHEM_ATOM_DEF_STEREO_COUNT>
0

> <PUBCHEM_ATOM_UDEF_STEREO_COUNT>
1

> <PUBCHEM_BOND_DEF_STEREO_COUNT>
0

> <PUBCHEM_BOND_UDEF_STEREO_COUNT>
0

> <PUBCHEM_ISOTOPIC_ATOM_COUNT>
0

> <PUBCHEM_COMPONENT_COUNT>
1

> <PUBCHEM_CACTVS_TAUTO_COUNT>
3

> <PUBCHEM_CONFORMER_ID>
0001ED3C00000002

> <PUBCHEM_MMFF94_ENERGY>
128.1186

> <PUBCHEM_FEATURE_SELFOVERLAP>
61.1

> <PUBCHEM_SHAPE_FINGERPRINT>
10411042 1 18055626472921484951
10677351 14 17989202686037878604
11007060 377 17917419990849032854
11135926 11 17458060443897477570
11315181 36 18041276655565426183
12082328 90 18408886244131370894
12089408 11 18260548919305891500
13560911 23 18334005116928962040
13631057 29 17968376857264640371
13782708 43 18060419127815795534
14068700 675 17969508302391012603
14844126 61 18412261775141509595
14856354 85 18040715878870841783
15131766 46 16011601341271960837
15183329 4 16443058431147118858
15444296 121 18408890615891906169
1577012 14 18040991814072879320
16989713 51 17274248582132030086
17093844 174 18202563973104375261
18927931 339 18341896329129360111
19611394 137 18340773736041620912
21033648 29 17703491251732399304
21647283 7 18344144805129267280
21792961 116 17131836422700843628
21927370 108 17968103070906610301
2303208 19 17774733012848525532
23522609 53 17532397338646558524
23523787 8 15767777830495826997
2747138 104 18267021837281716442
335507 130 18410863174475027214
395649 100 18334013900136347928
4015057 19 14562819914129300612
4073 2 18336551534292565226
44389302 135 18190169102872305706
484985 159 17967818301764318083
4918590 53 16486966306799371234
4938544 92 18409169892177131425
5028188 123 18261402140038824244
504579 68 18187638107379182020
54131252 152 15646767891296859936
58083652 198 15913037730049100992
58260988 114 16951144970856529793
6009941 240 18410576154284372896
6086070 43 16916488294680143050
6441014 3 17174353677267995794
6691757 9 18410016499409826193
9896288 288 18410015429409133651
9981440 41 18271526391304267351

> <PUBCHEM_SHAPE_MULTIPOLES>
696.57
25.12
3.52
1.62
77
0.66
0.11
-3.13
1.21
-11.19
1.21
-1.9
-1.28
0.14

> <PUBCHEM_SHAPE_SELFOVERLAP>
1587.62

> <PUBCHEM_SHAPE_VOLUME>
357.2

> <PUBCHEM_COORDINATE_TYPE>
2
5
10

$$$$
