126281
  -OEChem-03292013323D

 32 34  0     1  0  0  0  0  0999 V2000
   -4.6837   -0.0478   -0.2494 F   0  0  0  0  0  0  0  0  0  0  0  0
    1.5631    0.5090    1.0339 O   0  0  0  0  0  0  0  0  0  0  0  0
    2.2060   -2.1408   -1.3083 O   0  0  0  0  0  0  0  0  0  0  0  0
    4.1199   -0.9195    0.1853 O   0  0  0  0  0  0  0  0  0  0  0  0
    1.8817    3.2571    0.5766 O   0  0  0  0  0  0  0  0  0  0  0  0
   -0.2233   -0.8749    0.3101 N   0  0  0  0  0  0  0  0  0  0  0  0
   -2.2629   -1.7831    0.2400 N   0  0  0  0  0  0  0  0  0  0  0  0
   -0.7967    1.4532   -0.0845 N   0  0  0  0  0  0  0  0  0  0  0  0
   -0.3599   -3.2013    0.6316 N   0  0  0  0  0  0  0  0  0  0  0  0
   -3.2039    1.7425   -0.3639 N   0  0  0  0  0  0  0  0  0  0  0  0
    1.2277   -0.7583    0.4367 C   0  0  1  0  0  0  0  0  0  0  0  0
    1.9719   -0.8120   -0.8888 C   0  0  1  0  0  0  0  0  0  0  0  0
    3.2458   -0.0632   -0.5500 C   0  0  1  0  0  0  0  0  0  0  0  0
    2.7394    1.0366    0.3780 C   0  0  1  0  0  0  0  0  0  0  0  0
    2.3462    2.3057   -0.3650 C   0  0  0  0  0  0  0  0  0  0  0  0
   -1.0937    0.1548    0.0748 C   0  0  0  0  0  0  0  0  0  0  0  0
   -0.9773   -2.0182    0.4006 C   0  0  0  0  0  0  0  0  0  0  0  0
   -2.3499   -0.4290    0.0356 C   0  0  0  0  0  0  0  0  0  0  0  0
   -3.4299    0.4176   -0.1936 C   0  0  0  0  0  0  0  0  0  0  0  0
   -1.9202    2.1717   -0.2997 C   0  0  0  0  0  0  0  0  0  0  0  0
    1.5647   -1.5289    1.1379 H   0  0  0  0  0  0  0  0  0  0  0  0
    1.4201   -0.2873   -1.6773 H   0  0  0  0  0  0  0  0  0  0  0  0
    3.7879    0.2929   -1.4305 H   0  0  0  0  0  0  0  0  0  0  0  0
    3.4577    1.2765    1.1701 H   0  0  0  0  0  0  0  0  0  0  0  0
    1.5544    2.1353   -1.0995 H   0  0  0  0  0  0  0  0  0  0  0  0
    3.2092    2.7340   -0.8837 H   0  0  0  0  0  0  0  0  0  0  0  0
    2.7397   -2.5820   -0.6256 H   0  0  0  0  0  0  0  0  0  0  0  0
    4.9033   -0.3961    0.4262 H   0  0  0  0  0  0  0  0  0  0  0  0
    1.1145    2.8685    1.0307 H   0  0  0  0  0  0  0  0  0  0  0  0
    0.6451   -3.3127    0.7069 H   0  0  0  0  0  0  0  0  0  0  0  0
   -0.8948   -4.0607    0.7091 H   0  0  0  0  0  0  0  0  0  0  0  0
   -1.7757    3.2376   -0.4402 H   0  0  0  0  0  0  0  0  0  0  0  0
  1 19  1  0  0  0  0
  2 11  1  0  0  0  0
  2 14  1  0  0  0  0
  3 12  1  0  0  0  0
  3 27  1  0  0  0  0
  4 13  1  0  0  0  0
  4 28  1  0  0  0  0
  5 15  1  0  0  0  0
  5 29  1  0  0  0  0
  6 11  1  0  0  0  0
  6 16  1  0  0  0  0
  6 17  1  0  0  0  0
  7 17  2  0  0  0  0
  7 18  1  0  0  0  0
  8 16  1  0  0  0  0
  8 20  2  0  0  0  0
  9 17  1  0  0  0  0
  9 30  1  0  0  0  0
  9 31  1  0  0  0  0
 10 19  2  0  0  0  0
 10 20  1  0  0  0  0
 11 12  1  0  0  0  0
 11 21  1  0  0  0  0
 12 13  1  0  0  0  0
 12 22  1  0  0  0  0
 13 14  1  0  0  0  0
 13 23  1  0  0  0  0
 14 15  1  0  0  0  0
 14 24  1  0  0  0  0
 15 25  1  0  0  0  0
 15 26  1  0  0  0  0
 16 18  2  0  0  0  0
 18 19  1  0  0  0  0
 20 32  1  0  0  0  0
M  END
> <PUBCHEM_COMPOUND_CID>
126281

> <PUBCHEM_CONFORMER_RMSD>
0.6

> <PUBCHEM_CONFORMER_DIVERSEORDER>
2
7
14
21
25
9
17
1
23
24
11
4
15
19
22
5
13
10
8
16
18
12
20
3
6

> <PUBCHEM_MMFF94_PARTIAL_CHARGES>
26
1 -0.19
10 -0.62
11 0.54
12 0.28
13 0.28
14 0.28
15 0.28
16 0.11
17 0.27
18 0.23
19 0.5
2 -0.56
20 0.47
27 0.4
28 0.4
29 0.4
3 -0.68
30 0.4
31 0.4
32 0.15
4 -0.68
5 -0.68
6 0.05
7 -0.57
8 -0.57
9 -0.88

> <PUBCHEM_EFFECTIVE_ROTOR_COUNT>
3

> <PUBCHEM_PHARMACOPHORE_FEATURES>
14
1 10 acceptor
1 2 acceptor
1 3 acceptor
1 3 donor
1 4 acceptor
1 4 donor
1 5 acceptor
1 5 donor
1 9 donor
3 8 10 20 cation
4 6 7 9 17 cation
5 2 11 12 13 14 rings
5 6 7 16 17 18 rings
6 8 10 16 18 19 20 rings

> <PUBCHEM_HEAVY_ATOM_COUNT>
20

> <PUBCHEM_ATOM_DEF_STEREO_COUNT>
3

> <PUBCHEM_ATOM_UDEF_STEREO_COUNT>
1

> <PUBCHEM_BOND_DEF_STEREO_COUNT>
0

> <PUBCHEM_BOND_UDEF_STEREO_COUNT>
0

> <PUBCHEM_ISOTOPIC_ATOM_COUNT>
0

> <PUBCHEM_COMPONENT_COUNT>
1

> <PUBCHEM_CACTVS_TAUTO_COUNT>
2

> <PUBCHEM_CONFORMER_ID>
0001ED4900000002

> <PUBCHEM_MMFF94_ENERGY>
45.6503

> <PUBCHEM_FEATURE_SELFOVERLAP>
71.197

> <PUBCHEM_SHAPE_FINGERPRINT>
10498660 4 18188768332445211957
10608611 8 18339080509472271824
10616163 171 18049164667910538068
10967382 1 18409448050900700953
12403259 226 18335416820753725869
12403260 363 18409719651868975847
13140716 1 18337112396427280611
13897977 150 18339923847775885717
14250199 8 18342175570364523357
14648413 74 18339645645822535712
15219456 202 18341615979022513578
15375462 6 17977950408197332622
15775835 57 17895194355230084584
16945 1 18339936968948304858
17802600 8 18335978701107601957
18186145 218 18340206276451471045
18219364 16 18262808341500097617
19591789 44 18408886274101209499
200 152 17275101708608042527
20201158 50 18272937102681135830
20510252 161 18338802337604863595
20905425 154 17977954801701041196
21501502 16 18339363092624254908
21524375 3 18187082806641636995
22802520 49 18340215166722453042
2334 1 18049445043217066553
23402539 116 18268981012747281806
23419403 2 14176883936962447092
23557571 272 18121511412105399262
23559900 14 18413105091495026568
238 59 17976221748095558709
25 1 18265617572012260367
2748010 2 17979361085594134426
495365 180 17702934963109684632
5262128 65 17844542019043719348
6333272 397 18335417980616474281
69090 78 18343298171831447735
7097593 13 17970319647276978426
7364860 26 18342175609161887512
74978 22 18335983146704435650
7832392 63 17908987599857458865
81228 2 17898855909492472067
8809292 202 18409452505077380946
9709674 26 18413394249694009055
9981440 41 17393049847863703992

> <PUBCHEM_SHAPE_MULTIPOLES>
355.93
6.26
3.06
0.84
1.64
0.28
0.07
1.11
0.77
-0.5
-0.22
-0.4
-0.15
0.75

> <PUBCHEM_SHAPE_SELFOVERLAP>
779.176

> <PUBCHEM_SHAPE_VOLUME>
194.8

> <PUBCHEM_COORDINATE_TYPE>
2
5
10

$$$$
