126213
  -OEChem-03292013323D

 20 20  0     0  0  0  0  0  0999 V2000
   -1.5979    1.7000   -0.0257 S   0  0  0  0  0  0  0  0  0  0  0  0
   -3.0659   -2.0893    1.7990 S   0  0  0  0  0  0  0  0  0  0  0  0
    4.4931   -0.0364    1.8743 S   0  0  0  0  0  0  0  0  0  0  0  0
   -2.2068    1.3058    1.4383 O   0  0  0  0  0  0  0  0  0  0  0  0
   -0.9062    2.9701    0.1275 O   0  0  0  0  0  0  0  0  0  0  0  0
   -2.6518    1.5402   -1.0137 O   0  0  0  0  0  0  0  0  0  0  0  0
   -2.1138   -1.2269   -0.6590 N   0  0  0  0  0  0  0  0  0  0  0  0
    3.2815    0.2300   -0.6072 N   0  0  0  0  0  0  0  0  0  0  0  0
   -0.3967    0.4729   -0.3649 C   0  0  0  0  0  0  0  0  0  0  0  0
   -0.7668   -0.8434   -0.6412 C   0  0  0  0  0  0  0  0  0  0  0  0
    0.9516    0.8305   -0.3534 C   0  0  0  0  0  0  0  0  0  0  0  0
    1.9296   -0.1282   -0.6183 C   0  0  0  0  0  0  0  0  0  0  0  0
    0.2112   -1.8020   -0.9060 C   0  0  0  0  0  0  0  0  0  0  0  0
    1.5593   -1.4444   -0.8946 C   0  0  0  0  0  0  0  0  0  0  0  0
   -2.5068   -1.5912    0.3918 C   0  0  0  0  0  0  0  0  0  0  0  0
    3.7864    0.1125    0.4532 C   0  0  0  0  0  0  0  0  0  0  0  0
    1.2623    1.8499   -0.1406 H   0  0  0  0  0  0  0  0  0  0  0  0
   -0.0641   -2.8304   -1.1257 H   0  0  0  0  0  0  0  0  0  0  0  0
    2.3126   -2.1993   -1.1052 H   0  0  0  0  0  0  0  0  0  0  0  0
   -1.5575    1.3052    2.1804 H   0  0  0  0  0  0  0  0  0  0  0  0
  1  4  1  0  0  0  0
  1  5  2  0  0  0  0
  1  6  2  0  0  0  0
  1  9  1  0  0  0  0
  2 15  2  0  0  0  0
  3 16  2  0  0  0  0
  4 20  1  0  0  0  0
  7 10  1  0  0  0  0
  7 15  2  0  0  0  0
  8 12  1  0  0  0  0
  8 16  2  0  0  0  0
  9 10  2  0  0  0  0
  9 11  1  0  0  0  0
 10 13  1  0  0  0  0
 11 12  2  0  0  0  0
 11 17  1  0  0  0  0
 12 14  1  0  0  0  0
 13 14  2  0  0  0  0
 13 18  1  0  0  0  0
 14 19  1  0  0  0  0
M  END
> <PUBCHEM_COMPOUND_CID>
126213

> <PUBCHEM_CONFORMER_RMSD>
0.6

> <PUBCHEM_CONFORMER_DIVERSEORDER>
1
21
17
18
12
6
22
4
14
9
15
20
3
13
10
11
2
19
16
8
5
7

> <PUBCHEM_MMFF94_PARTIAL_CHARGES>
20
1 1.49
10 0.18
11 -0.15
12 0.18
13 -0.15
14 -0.15
15 0.57
16 0.57
17 0.15
18 0.15
19 0.15
2 -0.27
20 0.5
3 -0.27
4 -0.68
5 -0.65
6 -0.65
7 -0.48
8 -0.48
9 -0.01

> <PUBCHEM_EFFECTIVE_ROTOR_COUNT>
3

> <PUBCHEM_PHARMACOPHORE_FEATURES>
9
1 2 acceptor
1 3 acceptor
1 4 acceptor
1 5 acceptor
1 6 acceptor
1 7 acceptor
1 8 acceptor
4 1 4 5 6 anion
6 9 10 11 12 13 14 rings

> <PUBCHEM_HEAVY_ATOM_COUNT>
16

> <PUBCHEM_ATOM_DEF_STEREO_COUNT>
0

> <PUBCHEM_ATOM_UDEF_STEREO_COUNT>
0

> <PUBCHEM_BOND_DEF_STEREO_COUNT>
0

> <PUBCHEM_BOND_UDEF_STEREO_COUNT>
0

> <PUBCHEM_ISOTOPIC_ATOM_COUNT>
0

> <PUBCHEM_COMPONENT_COUNT>
1

> <PUBCHEM_CACTVS_TAUTO_COUNT>
1

> <PUBCHEM_CONFORMER_ID>
0001ED0500000001

> <PUBCHEM_MMFF94_ENERGY>
32.8723

> <PUBCHEM_FEATURE_SELFOVERLAP>
45.745

> <PUBCHEM_SHAPE_FINGERPRINT>
11127187 94 10665225917470684594
11132069 177 17988646349569130446
11357001 24 18334573538216400897
11680611 10 17895208700442030294
11680986 33 18196939872639783990
11769659 78 16660915703381513226
12173636 292 14261066644778911622
12382932 28 18340770351570188372
12596599 1 17242429669692910234
12824470 246 17095800026777113634
13140716 1 18411140268015987680
13296909 8 18340474626050225852
13380535 21 18126587646832208126
13380535 76 18268139868771237574
13544592 271 18271515421140154893
13764800 53 18130511842285908128
14022349 108 17838052972232088232
14178342 30 18338806610833546304
14420673 8 17906721520148440234
14787075 74 17247531691271149710
15163728 17 11310130246179993443
15295992 7 17559121969159342754
15852999 172 18191855734956450829
16945 1 18265910063485256988
18981168 100 17203327750237382322
20388701 513 18412834598264655070
20510252 161 18272930557356445192
21069387 34 15285636633484058682
21486144 27 16558758952968739150
23402539 116 18058146466670584423
23419403 2 15765231622745725871
23559900 14 18272650096503661222
2748010 2 18199480886802862062
3071541 236 18188485766282654373
6049 1 17916605149774643726
633830 44 15195293070845164122
81228 2 18264227849787042055
90316 7 18269546298978373578
9981440 41 17986085453928411354

> <PUBCHEM_SHAPE_MULTIPOLES>
313.25
6.34
2.47
1.51
6.21
1.01
0.72
-1.55
3.66
-2.62
0.31
0.24
-0.54
0.64

> <PUBCHEM_SHAPE_SELFOVERLAP>
632

> <PUBCHEM_SHAPE_VOLUME>
184.5

> <PUBCHEM_COORDINATE_TYPE>
2
5
10

$$$$
