126239
  -OEChem-03292013323D

 38 40  0     1  0  0  0  0  0999 V2000
    3.5157   -2.8227   -0.0074 O   0  0  0  0  0  0  0  0  0  0  0  0
    5.1277   -1.2195   -0.1741 O   0  0  0  0  0  0  0  0  0  0  0  0
    3.3689    0.7247   -0.4811 N   0  0  0  0  0  0  0  0  0  0  0  0
   -4.5289    0.1021    0.2655 N   0  0  0  0  0  0  0  0  0  0  0  0
   -3.2528   -1.5894   -0.5331 N   0  0  0  0  0  0  0  0  0  0  0  0
   -4.9926   -1.1196    0.5639 N   0  0  0  0  0  0  0  0  0  0  0  0
   -4.2683   -2.1521    0.1105 N   0  0  0  0  0  0  0  0  0  0  0  0
    0.8175    0.4063    0.9712 C   0  0  1  0  0  0  0  0  0  0  0  0
    1.4243    1.7874    0.6482 C   0  0  2  0  0  0  0  0  0  0  0  0
   -0.3280    0.0341    0.0129 C   0  0  0  0  0  0  0  0  0  0  0  0
   -1.4096    1.1215   -0.0297 C   0  0  1  0  0  0  0  0  0  0  0  0
    0.3353    2.8636    0.5352 C   0  0  0  0  0  0  0  0  0  0  0  0
    1.9205   -0.6644    0.9761 C   0  0  0  0  0  0  0  0  0  0  0  0
   -0.8033    2.4777   -0.4060 C   0  0  0  0  0  0  0  0  0  0  0  0
    2.3116    1.7332   -0.6094 C   0  0  0  0  0  0  0  0  0  0  0  0
    2.7940   -0.6057   -0.2789 C   0  0  2  0  0  0  0  0  0  0  0  0
   -2.5208    0.7390   -1.0062 C   0  0  0  0  0  0  0  0  0  0  0  0
    3.9505   -1.5469   -0.1509 C   0  0  0  0  0  0  0  0  0  0  0  0
   -3.4617   -0.2693   -0.4068 C   0  0  0  0  0  0  0  0  0  0  0  0
    0.3916    0.4487    1.9835 H   0  0  0  0  0  0  0  0  0  0  0  0
    2.0737    2.0734    1.4886 H   0  0  0  0  0  0  0  0  0  0  0  0
    0.0570   -0.1378   -0.9991 H   0  0  0  0  0  0  0  0  0  0  0  0
   -0.7635   -0.9161    0.3444 H   0  0  0  0  0  0  0  0  0  0  0  0
   -1.8345    1.2208    0.9795 H   0  0  0  0  0  0  0  0  0  0  0  0
   -0.0840    3.0429    1.5339 H   0  0  0  0  0  0  0  0  0  0  0  0
    0.7746    3.8140    0.2097 H   0  0  0  0  0  0  0  0  0  0  0  0
    2.5487   -0.5174    1.8661 H   0  0  0  0  0  0  0  0  0  0  0  0
    1.4708   -1.6589    1.0883 H   0  0  0  0  0  0  0  0  0  0  0  0
   -0.4395    2.4540   -1.4405 H   0  0  0  0  0  0  0  0  0  0  0  0
   -1.5757    3.2555   -0.3646 H   0  0  0  0  0  0  0  0  0  0  0  0
    2.7889    2.7094   -0.7537 H   0  0  0  0  0  0  0  0  0  0  0  0
    1.7222    1.5369   -1.5124 H   0  0  0  0  0  0  0  0  0  0  0  0
    2.2306   -0.8994   -1.1729 H   0  0  0  0  0  0  0  0  0  0  0  0
    3.9326    0.7288   -1.3313 H   0  0  0  0  0  0  0  0  0  0  0  0
   -3.1060    1.6271   -1.2792 H   0  0  0  0  0  0  0  0  0  0  0  0
   -2.1066    0.3440   -1.9419 H   0  0  0  0  0  0  0  0  0  0  0  0
    4.2600   -3.4561    0.0776 H   0  0  0  0  0  0  0  0  0  0  0  0
   -5.8423   -1.2551    1.1012 H   0  0  0  0  0  0  0  0  0  0  0  0
  1 18  1  0  0  0  0
  1 37  1  0  0  0  0
  2 18  2  0  0  0  0
  3 15  1  0  0  0  0
  3 16  1  0  0  0  0
  3 34  1  0  0  0  0
  4  6  1  0  0  0  0
  4 19  2  0  0  0  0
  5  7  2  0  0  0  0
  5 19  1  0  0  0  0
  6  7  1  0  0  0  0
  6 38  1  0  0  0  0
  8  9  1  0  0  0  0
  8 10  1  0  0  0  0
  8 13  1  0  0  0  0
  8 20  1  0  0  0  0
  9 12  1  0  0  0  0
  9 15  1  0  0  0  0
  9 21  1  0  0  0  0
 10 11  1  0  0  0  0
 10 22  1  0  0  0  0
 10 23  1  0  0  0  0
 11 14  1  0  0  0  0
 11 17  1  0  0  0  0
 11 24  1  0  0  0  0
 12 14  1  0  0  0  0
 12 25  1  0  0  0  0
 12 26  1  0  0  0  0
 13 16  1  0  0  0  0
 13 27  1  0  0  0  0
 13 28  1  0  0  0  0
 14 29  1  0  0  0  0
 14 30  1  0  0  0  0
 15 31  1  0  0  0  0
 15 32  1  0  0  0  0
 16 18  1  0  0  0  0
 16 33  1  0  0  0  0
 17 19  1  0  0  0  0
 17 35  1  0  0  0  0
 17 36  1  0  0  0  0
M  END
> <PUBCHEM_COMPOUND_CID>
126239

> <PUBCHEM_CONFORMER_RMSD>
0.6

> <PUBCHEM_CONFORMER_DIVERSEORDER>
1
32
14
15
22
34
21
6
18
24
13
19
16
26
9
28
23
8
11
25
31
5
7
2
10
20
27
3
30
12
17
33
4
29

> <PUBCHEM_MMFF94_PARTIAL_CHARGES>
15
1 -0.65
15 0.27
16 0.33
17 0.18
18 0.66
19 0.34
2 -0.57
3 -0.9
34 0.36
37 0.5
38 0.27
4 -0.71
5 -0.23
6 0.57
7 -0.42

> <PUBCHEM_EFFECTIVE_ROTOR_COUNT>
4.6

> <PUBCHEM_PHARMACOPHORE_FEATURES>
9
1 1 acceptor
1 2 acceptor
1 3 cation
1 3 donor
3 1 2 18 anion
3 4 5 19 cation
5 4 5 6 7 19 rings
6 3 8 9 13 15 16 rings
6 8 9 10 11 12 14 rings

> <PUBCHEM_HEAVY_ATOM_COUNT>
19

> <PUBCHEM_ATOM_DEF_STEREO_COUNT>
4

> <PUBCHEM_ATOM_UDEF_STEREO_COUNT>
0

> <PUBCHEM_BOND_DEF_STEREO_COUNT>
0

> <PUBCHEM_BOND_UDEF_STEREO_COUNT>
0

> <PUBCHEM_ISOTOPIC_ATOM_COUNT>
0

> <PUBCHEM_COMPONENT_COUNT>
1

> <PUBCHEM_CACTVS_TAUTO_COUNT>
2

> <PUBCHEM_CONFORMER_ID>
0001ED1F00000001

> <PUBCHEM_MMFF94_ENERGY>
23.2515

> <PUBCHEM_FEATURE_SELFOVERLAP>
45.781

> <PUBCHEM_SHAPE_FINGERPRINT>
11045515 52 18114182990965744908
11552529 35 17699292371962053779
11806522 49 18335983087007559396
12032990 46 18410009940208469517
12107183 9 18271257019555940449
12553582 1 18338221700786661243
12633257 1 15410600489435546014
12841375 25 18411416202553009913
13103583 49 17988658393158348323
13533116 47 18055911237711222975
13740256 8 18411700997613228418
14123255 352 9439398029934880083
14251764 30 17895489106499743347
14252887 29 18340480174731533488
14576447 43 18335141956317492958
14866123 147 17981327781584800817
14957384 54 9871452198133043462
15188451 53 15912749701115872239
15352361 1 18411418392912601310
17492 89 18194965137156635518
18186145 218 17748816432617545485
18915474 69 18334296495661757391
193927 3 18130795503849501966
19422 9 18411705387191377545
19784866 135 18270961237352173977
20281475 54 18411983576549670829
20291156 8 18411134723265384341
20388580 30 18334298677558138356
20645477 70 18265594654583584541
20871998 22 18412537734462600177
20871999 31 18189050910753412901
21713013 43 17894905222495464725
221490 88 18335704987125985875
2255824 54 17976538635077968405
22950370 63 18411426111221740923
231179 274 8214137482504983630
23379529 103 18341621390808628486
23402539 116 18263079925435657062
23557571 272 17987235521937988012
23559900 14 18336255799554881420
2871803 45 18041270045879808647
3004659 81 18187363216513723054
328317 168 8142082053093656107
3323516 105 18334574693673327697
3421961 26 18341891939060996624
4416823 128 18411417302043558165
465052 167 18271813470807306055
5104073 3 18057313995367608450
7364860 26 18197774607865298072
83771 10 18411138047807591125
9709674 26 18118963835475126835

> <PUBCHEM_SHAPE_MULTIPOLES>
354.37
9.23
2.85
0.88
3.84
0.38
-0.05
-7.81
0.54
-0.86
-0.05
0
0.15
0.26

> <PUBCHEM_SHAPE_SELFOVERLAP>
745.057

> <PUBCHEM_SHAPE_VOLUME>
197.3

> <PUBCHEM_COORDINATE_TYPE>
2
5
10

$$$$
