126248
  -OEChem-03292013323D

 28 28  0     1  0  0  0  0  0999 V2000
    4.4799   -0.8143    0.3566 Cl  0  0  0  0  0  0  0  0  0  0  0  0
   -2.2003   -1.5030   -0.0740 S   0  0  0  0  0  0  0  0  0  0  0  0
   -3.3433   -1.9685   -1.1397 O   0  0  0  0  0  0  0  0  0  0  0  0
   -2.7490   -1.5829    1.2662 O   0  0  0  0  0  0  0  0  0  0  0  0
   -0.9465   -2.1430   -0.4237 O   0  0  0  0  0  0  0  0  0  0  0  0
    2.9504    0.2629   -1.9976 O   0  0  0  0  0  0  0  0  0  0  0  0
   -2.6522    3.0777    0.0269 N   0  0  0  0  0  0  0  0  0  0  0  0
   -1.2337    1.0370    0.3779 C   0  0  1  0  0  0  0  0  0  0  0  0
   -2.1209    0.1972   -0.5562 C   0  0  0  0  0  0  0  0  0  0  0  0
    0.2167    0.5688    0.3648 C   0  0  0  0  0  0  0  0  0  0  0  0
   -1.2928    2.5448    0.0437 C   0  0  0  0  0  0  0  0  0  0  0  0
    0.9246    0.6301   -0.8168 C   0  0  0  0  0  0  0  0  0  0  0  0
    0.7737    0.0990    1.5351 C   0  0  0  0  0  0  0  0  0  0  0  0
    2.2520    0.2017   -0.8285 C   0  0  0  0  0  0  0  0  0  0  0  0
    2.1010   -0.3294    1.5236 C   0  0  0  0  0  0  0  0  0  0  0  0
    2.8403   -0.2783    0.3417 C   0  0  0  0  0  0  0  0  0  0  0  0
   -1.6274    0.9209    1.3979 H   0  0  0  0  0  0  0  0  0  0  0  0
   -3.1535    0.5619   -0.5262 H   0  0  0  0  0  0  0  0  0  0  0  0
   -1.7791    0.2301   -1.5958 H   0  0  0  0  0  0  0  0  0  0  0  0
   -0.7012    3.1081    0.7760 H   0  0  0  0  0  0  0  0  0  0  0  0
   -0.8523    2.7453   -0.9392 H   0  0  0  0  0  0  0  0  0  0  0  0
    0.4771    0.9978   -1.7353 H   0  0  0  0  0  0  0  0  0  0  0  0
    0.2074    0.0536    2.4604 H   0  0  0  0  0  0  0  0  0  0  0  0
   -2.6188    4.0848   -0.1254 H   0  0  0  0  0  0  0  0  0  0  0  0
   -3.0833    2.9397    0.9400 H   0  0  0  0  0  0  0  0  0  0  0  0
    2.5450   -0.7010    2.4436 H   0  0  0  0  0  0  0  0  0  0  0  0
   -4.2561   -1.6469   -0.9509 H   0  0  0  0  0  0  0  0  0  0  0  0
    3.8497   -0.0699   -1.8330 H   0  0  0  0  0  0  0  0  0  0  0  0
  1 16  1  0  0  0  0
  2  3  1  0  0  0  0
  2  4  2  0  0  0  0
  2  5  2  0  0  0  0
  2  9  1  0  0  0  0
  3 27  1  0  0  0  0
  6 14  1  0  0  0  0
  6 28  1  0  0  0  0
  7 11  1  0  0  0  0
  7 24  1  0  0  0  0
  7 25  1  0  0  0  0
  8  9  1  0  0  0  0
  8 10  1  0  0  0  0
  8 11  1  0  0  0  0
  8 17  1  0  0  0  0
  9 18  1  0  0  0  0
  9 19  1  0  0  0  0
 10 12  2  0  0  0  0
 10 13  1  0  0  0  0
 11 20  1  0  0  0  0
 11 21  1  0  0  0  0
 12 14  1  0  0  0  0
 12 22  1  0  0  0  0
 13 15  2  0  0  0  0
 13 23  1  0  0  0  0
 14 16  2  0  0  0  0
 15 16  1  0  0  0  0
 15 26  1  0  0  0  0
M  END
> <PUBCHEM_COMPOUND_CID>
126248

> <PUBCHEM_CONFORMER_RMSD>
0.6

> <PUBCHEM_CONFORMER_DIVERSEORDER>
1
26
24
3
9
6
20
10
25
27
23
8
7
11
17
14
21
5
19
18
15
2
4
12
22
16
13

> <PUBCHEM_MMFF94_PARTIAL_CHARGES>
23
1 -0.18
10 -0.14
11 0.27
12 -0.15
13 -0.15
14 0.08
15 -0.15
16 0.18
2 1.38
22 0.15
23 0.15
24 0.36
25 0.36
26 0.15
27 0.5
28 0.45
3 -0.68
4 -0.65
5 -0.65
6 -0.53
7 -0.99
8 0.14
9 0.11

> <PUBCHEM_EFFECTIVE_ROTOR_COUNT>
4

> <PUBCHEM_PHARMACOPHORE_FEATURES>
8
1 3 acceptor
1 4 acceptor
1 5 acceptor
1 6 donor
1 7 cation
1 7 donor
4 2 3 4 5 anion
6 10 12 13 14 15 16 rings

> <PUBCHEM_HEAVY_ATOM_COUNT>
16

> <PUBCHEM_ATOM_DEF_STEREO_COUNT>
0

> <PUBCHEM_ATOM_UDEF_STEREO_COUNT>
1

> <PUBCHEM_BOND_DEF_STEREO_COUNT>
0

> <PUBCHEM_BOND_UDEF_STEREO_COUNT>
0

> <PUBCHEM_ISOTOPIC_ATOM_COUNT>
0

> <PUBCHEM_COMPONENT_COUNT>
1

> <PUBCHEM_CACTVS_TAUTO_COUNT>
9

> <PUBCHEM_CONFORMER_ID>
0001ED2800000001

> <PUBCHEM_MMFF94_ENERGY>
28.7968

> <PUBCHEM_FEATURE_SELFOVERLAP>
40.648

> <PUBCHEM_SHAPE_FINGERPRINT>
11471102 22 15841554102218207842
12202030 40 17489317373135991118
12500047 106 18197205950221768912
12553582 1 18267031737308057191
12716301 132 18200579311698137674
13538477 17 18187644669820548321
13583140 156 17845067625137522050
14115302 16 18040703792859192463
14817 1 7873398807355550833
15279307 12 18042686087527265874
15852999 172 17842834425993817204
15906896 17 18261960631178167913
16752209 62 18337098008661521407
16945 1 18412548712366833916
18186145 218 16370720465548710878
20361792 2 18197214961105392855
20645476 183 18118402847889119393
20645477 70 17331388187795677231
20711985 344 18411700989313418161
21061003 4 16774079587642833424
21524375 3 17973445399715726681
22112679 90 18114467777462135892
228727 97 17896054293492561956
23402539 116 18269540677088034957
23419403 2 16843854629927623873
23526113 38 17202475598634314312
23557571 272 18273214184217850928
23559900 14 17915171322757473082
23598288 3 18261687999222497809
23598291 2 17895204268241392516
23598294 1 18337405875859026553
2748010 2 18196637713300801633
7364860 26 17477479180832731305
77492 1 17894911793721729984
81228 2 18411695491839922489
88987 49 18340205185440328036
90525 40 18188773821128053097

> <PUBCHEM_SHAPE_MULTIPOLES>
306.53
5.96
2.41
1.39
3.61
0.87
-0.07
-1.78
-0.55
-3.52
-0.1
0.69
-0.18
-0.52

> <PUBCHEM_SHAPE_SELFOVERLAP>
611.108

> <PUBCHEM_SHAPE_VOLUME>
183

> <PUBCHEM_COORDINATE_TYPE>
2
5
10

$$$$
