126261
  -OEChem-03292013323D

 39 38  0     1  0  0  0  0  0999 V2000
   -2.8334    2.0332    0.6338 O   0  0  0  0  0  0  0  0  0  0  0  0
   -4.0829    1.1474   -1.0297 O   0  0  0  0  0  0  0  0  0  0  0  0
    0.6735    1.0773   -1.5255 O   0  0  0  0  0  0  0  0  0  0  0  0
    2.8370   -1.3313    0.8220 O   0  0  0  0  0  0  0  0  0  0  0  0
   -0.7591    0.4869    0.2026 N   0  0  0  0  0  0  0  0  0  0  0  0
    2.7823    0.9150    0.2311 N   0  0  0  0  0  0  0  0  0  0  0  0
    5.0140   -1.7115   -0.8078 N   0  0  0  0  0  0  0  0  0  0  0  0
   -2.3659   -1.2937   -0.4701 C   0  0  2  0  0  0  0  0  0  0  0  0
   -1.9030    0.1765   -0.6168 C   0  0  1  0  0  0  0  0  0  0  0  0
   -2.9765   -1.5207    0.9299 C   0  0  0  0  0  0  0  0  0  0  0  0
   -1.2428   -2.2960   -0.7703 C   0  0  0  0  0  0  0  0  0  0  0  0
    1.4779    1.2219    0.7561 C   0  0  2  0  0  0  0  0  0  0  0  0
   -3.5239   -2.9266    1.1357 C   0  0  0  0  0  0  0  0  0  0  0  0
   -3.0489    1.1497   -0.3704 C   0  0  0  0  0  0  0  0  0  0  0  0
    0.4514    0.9177   -0.3270 C   0  0  0  0  0  0  0  0  0  0  0  0
    1.3872    2.6742    1.1983 C   0  0  0  0  0  0  0  0  0  0  0  0
    3.3622   -0.3469    0.3065 C   0  0  0  0  0  0  0  0  0  0  0  0
    4.7508   -0.3732   -0.2983 C   0  0  0  0  0  0  0  0  0  0  0  0
   -3.1624   -1.4651   -1.2075 H   0  0  0  0  0  0  0  0  0  0  0  0
   -1.6166    0.3373   -1.6640 H   0  0  0  0  0  0  0  0  0  0  0  0
   -3.8029   -0.8214    1.0996 H   0  0  0  0  0  0  0  0  0  0  0  0
   -2.2307   -1.3244    1.7091 H   0  0  0  0  0  0  0  0  0  0  0  0
   -1.6342   -3.3137   -0.8633 H   0  0  0  0  0  0  0  0  0  0  0  0
   -0.7529   -2.0508   -1.7188 H   0  0  0  0  0  0  0  0  0  0  0  0
   -0.4810   -2.2948    0.0163 H   0  0  0  0  0  0  0  0  0  0  0  0
   -0.8707    0.4469    1.2114 H   0  0  0  0  0  0  0  0  0  0  0  0
    1.2969    0.5694    1.6186 H   0  0  0  0  0  0  0  0  0  0  0  0
   -2.7241   -3.6727    1.1499 H   0  0  0  0  0  0  0  0  0  0  0  0
   -4.0452   -2.9881    2.0966 H   0  0  0  0  0  0  0  0  0  0  0  0
   -4.2357   -3.1912    0.3475 H   0  0  0  0  0  0  0  0  0  0  0  0
    1.5559    3.3573    0.3580 H   0  0  0  0  0  0  0  0  0  0  0  0
    0.3975    2.8971    1.6109 H   0  0  0  0  0  0  0  0  0  0  0  0
    2.1372    2.8966    1.9647 H   0  0  0  0  0  0  0  0  0  0  0  0
    3.2769    1.6519   -0.2638 H   0  0  0  0  0  0  0  0  0  0  0  0
   -3.5925    2.6424    0.7556 H   0  0  0  0  0  0  0  0  0  0  0  0
    4.8380    0.3553   -1.1104 H   0  0  0  0  0  0  0  0  0  0  0  0
    5.4712   -0.1166    0.4844 H   0  0  0  0  0  0  0  0  0  0  0  0
    4.3750   -1.9175   -1.5751 H   0  0  0  0  0  0  0  0  0  0  0  0
    5.9515   -1.7416   -1.2067 H   0  0  0  0  0  0  0  0  0  0  0  0
  1 14  1  0  0  0  0
  1 35  1  0  0  0  0
  2 14  2  0  0  0  0
  3 15  2  0  0  0  0
  4 17  2  0  0  0  0
  5  9  1  0  0  0  0
  5 15  1  0  0  0  0
  5 26  1  0  0  0  0
  6 12  1  0  0  0  0
  6 17  1  0  0  0  0
  6 34  1  0  0  0  0
  7 18  1  0  0  0  0
  7 38  1  0  0  0  0
  7 39  1  0  0  0  0
  8  9  1  0  0  0  0
  8 10  1  0  0  0  0
  8 11  1  0  0  0  0
  8 19  1  0  0  0  0
  9 14  1  0  0  0  0
  9 20  1  0  0  0  0
 10 13  1  0  0  0  0
 10 21  1  0  0  0  0
 10 22  1  0  0  0  0
 11 23  1  0  0  0  0
 11 24  1  0  0  0  0
 11 25  1  0  0  0  0
 12 15  1  0  0  0  0
 12 16  1  0  0  0  0
 12 27  1  0  0  0  0
 13 28  1  0  0  0  0
 13 29  1  0  0  0  0
 13 30  1  0  0  0  0
 16 31  1  0  0  0  0
 16 32  1  0  0  0  0
 16 33  1  0  0  0  0
 17 18  1  0  0  0  0
 18 36  1  0  0  0  0
 18 37  1  0  0  0  0
M  END
> <PUBCHEM_COMPOUND_CID>
126261

> <PUBCHEM_CONFORMER_RMSD>
0.8

> <PUBCHEM_CONFORMER_DIVERSEORDER>
1
101
84
159
96
34
106
47
58
168
173
110
60
176
130
137
105
59
61
171
32
157
94
126
41
91
19
83
39
72
4
136
16
174
117
44
140
123
64
56
55
134
114
150
50
98
151
90
118
163
164
11
36
51
148
165
124
113
160
33
100
37
125
38
108
81
78
62
146
54
2
40
181
120
115
43
27
155
152
65
93
104
7
23
127
82
141
95
129
103
35
109
52
107
178
133
138
70
49
149
75
66
144
158
26
122
8
119
112
69
180
71
128
73
182
21
97
102
48
80
79
31
121
63
99
42
131
166
145
30
116
179
20
6
153
24
92
45
135
139
74
3
143
170
53
132
177
5
18
89
142
28
167
86
183
162
85
88
67
25
77
156
17
111
15
57
13
68
169
172
87
14
76
46
29
22
9
161
10
147
154
12
175

> <PUBCHEM_MMFF94_PARTIAL_CHARGES>
18
1 -0.65
12 0.36
14 0.66
15 0.57
17 0.57
18 0.33
2 -0.57
26 0.37
3 -0.57
34 0.37
35 0.5
38 0.36
39 0.36
4 -0.57
5 -0.73
6 -0.73
7 -0.99
9 0.36

> <PUBCHEM_EFFECTIVE_ROTOR_COUNT>
9

> <PUBCHEM_PHARMACOPHORE_FEATURES>
11
1 1 acceptor
1 11 hydrophobe
1 13 hydrophobe
1 2 acceptor
1 3 acceptor
1 4 acceptor
1 5 donor
1 6 donor
1 7 cation
1 7 donor
3 1 2 14 anion

> <PUBCHEM_HEAVY_ATOM_COUNT>
18

> <PUBCHEM_ATOM_DEF_STEREO_COUNT>
3

> <PUBCHEM_ATOM_UDEF_STEREO_COUNT>
0

> <PUBCHEM_BOND_DEF_STEREO_COUNT>
0

> <PUBCHEM_BOND_UDEF_STEREO_COUNT>
0

> <PUBCHEM_ISOTOPIC_ATOM_COUNT>
0

> <PUBCHEM_COMPONENT_COUNT>
1

> <PUBCHEM_CACTVS_TAUTO_COUNT>
4

> <PUBCHEM_CONFORMER_ID>
0001ED3500000001

> <PUBCHEM_MMFF94_ENERGY>
27.8979

> <PUBCHEM_FEATURE_SELFOVERLAP>
55.882

> <PUBCHEM_SHAPE_FINGERPRINT>
124424 183 18130783438854038829
12500047 106 18334846204384213285
12507560 40 18341325712042331521
12633257 1 17344929605077154779
12788726 201 17841991088107292192
12932764 1 17985267619051137781
14251710 61 18336551619912362290
14251757 5 18339083662221334412
15295992 7 17846217782787816873
15415430 112 18261112954757312934
15422964 175 17612593732374788123
17804303 29 18411138043327786717
17834074 16 18410288142525400808
18522851 12 17531236232396190352
20281475 54 18114174212389513090
20600515 1 18269850730867037988
20645477 70 18199735002790112398
20871999 31 17749110014975409126
221490 88 18339081609342582928
23402539 116 17774709880139546429
23559900 14 18337942497710616961
23598291 2 17749683972634546717
45790113 53 18198907087898927803
5104073 3 18410851084147507168
58051976 100 18260828206725288261
59755656 215 18266449920275162853
59755656 520 18336544911980405157
6049 1 18267017435056308281
633830 44 15213027046191528732
74978 22 18342448279096808905
9709674 26 18268981154175370775

> <PUBCHEM_SHAPE_MULTIPOLES>
332.01
8.57
2.91
1.17
6.18
0.4
-0.01
4.09
0.26
-1.5
-0.71
-0.32
0
1.51

> <PUBCHEM_SHAPE_SELFOVERLAP>
639.626

> <PUBCHEM_SHAPE_VOLUME>
201.7

> <PUBCHEM_COORDINATE_TYPE>
2
5
10

$$$$
