126255
  -OEChem-03292013323D

 43 43  0     1  0  0  0  0  0999 V2000
    1.9034   -1.7035    1.1693 S   0  0  0  0  0  0  0  0  0  0  0  0
   -4.6828    2.2903    1.0960 O   0  0  0  0  0  0  0  0  0  0  0  0
   -0.3835    2.5066    0.5801 O   0  0  0  0  0  0  0  0  0  0  0  0
   -5.4238    0.1861    0.6795 O   0  0  0  0  0  0  0  0  0  0  0  0
   -4.4663   -0.8450   -1.8338 O   0  0  0  0  0  0  0  0  0  0  0  0
   -1.4882   -1.4122    1.6306 O   0  0  0  0  0  0  0  0  0  0  0  0
    3.3075    0.4427   -1.6159 O   0  0  0  0  0  0  0  0  0  0  0  0
    5.4392   -1.4644    0.5230 O   0  0  0  0  0  0  0  0  0  0  0  0
    7.4204   -0.9892   -0.4755 O   0  0  0  0  0  0  0  0  0  0  0  0
   -3.0034   -0.6858   -0.0057 N   0  0  0  0  0  0  0  0  0  0  0  0
    0.9139    0.8990   -0.4798 N   0  0  0  0  0  0  0  0  0  0  0  0
    4.4812    0.9570    0.3181 N   0  0  0  0  0  0  0  0  0  0  0  0
   -3.0786    0.7220    0.2912 C   0  0  1  0  0  0  0  0  0  0  0  0
   -2.7029    1.5934   -0.9102 C   0  0  0  0  0  0  0  0  0  0  0  0
   -1.2619    1.3899   -1.3817 C   0  0  0  0  0  0  0  0  0  0  0  0
    2.0615    0.9954    0.3921 C   0  0  1  0  0  0  0  0  0  0  0  0
   -0.2243    1.6733   -0.3079 C   0  0  0  0  0  0  0  0  0  0  0  0
   -4.5081    0.9981    0.7131 C   0  0  0  0  0  0  0  0  0  0  0  0
   -3.6919   -1.3116   -1.0157 C   0  0  0  0  0  0  0  0  0  0  0  0
   -2.2324   -1.5919    0.6817 C   0  0  0  0  0  0  0  0  0  0  0  0
    1.9527    0.0661    1.6035 C   0  0  0  0  0  0  0  0  0  0  0  0
   -3.3221   -2.7346   -0.9547 C   0  0  0  0  0  0  0  0  0  0  0  0
   -2.4593   -2.9002    0.0488 C   0  0  0  0  0  0  0  0  0  0  0  0
    3.3282    0.7713   -0.4314 C   0  0  0  0  0  0  0  0  0  0  0  0
    5.8048    0.7785   -0.2314 C   0  0  0  0  0  0  0  0  0  0  0  0
    6.3165   -0.6313   -0.0834 C   0  0  0  0  0  0  0  0  0  0  0  0
   -2.4426    0.9332    1.1578 H   0  0  0  0  0  0  0  0  0  0  0  0
   -2.8292    2.6504   -0.6409 H   0  0  0  0  0  0  0  0  0  0  0  0
   -3.3810    1.4253   -1.7549 H   0  0  0  0  0  0  0  0  0  0  0  0
   -1.1406    0.3698   -1.7636 H   0  0  0  0  0  0  0  0  0  0  0  0
   -1.0545    2.0694   -2.2169 H   0  0  0  0  0  0  0  0  0  0  0  0
    2.1082    2.0280    0.7629 H   0  0  0  0  0  0  0  0  0  0  0  0
    0.9489    0.2254   -1.2396 H   0  0  0  0  0  0  0  0  0  0  0  0
    2.7878    0.2118    2.2953 H   0  0  0  0  0  0  0  0  0  0  0  0
    1.0341    0.2871    2.1581 H   0  0  0  0  0  0  0  0  0  0  0  0
   -3.6991   -3.4918   -1.6211 H   0  0  0  0  0  0  0  0  0  0  0  0
   -1.9933   -3.8188    0.3628 H   0  0  0  0  0  0  0  0  0  0  0  0
    4.4105    1.2458    1.2888 H   0  0  0  0  0  0  0  0  0  0  0  0
   -5.6131    2.4744    1.3470 H   0  0  0  0  0  0  0  0  0  0  0  0
    6.4741    1.4513    0.3119 H   0  0  0  0  0  0  0  0  0  0  0  0
    5.7930    1.0354   -1.2948 H   0  0  0  0  0  0  0  0  0  0  0  0
    3.1433   -1.7772    0.6640 H   0  0  0  0  0  0  0  0  0  0  0  0
    5.7944   -2.3750    0.6064 H   0  0  0  0  0  0  0  0  0  0  0  0
  1 21  1  0  0  0  0
  1 42  1  0  0  0  0
  2 18  1  0  0  0  0
  2 39  1  0  0  0  0
  3 17  2  0  0  0  0
  4 18  2  0  0  0  0
  5 19  2  0  0  0  0
  6 20  2  0  0  0  0
  7 24  2  0  0  0  0
  8 26  1  0  0  0  0
  8 43  1  0  0  0  0
  9 26  2  0  0  0  0
 10 13  1  0  0  0  0
 10 19  1  0  0  0  0
 10 20  1  0  0  0  0
 11 16  1  0  0  0  0
 11 17  1  0  0  0  0
 11 33  1  0  0  0  0
 12 24  1  0  0  0  0
 12 25  1  0  0  0  0
 12 38  1  0  0  0  0
 13 14  1  0  0  0  0
 13 18  1  0  0  0  0
 13 27  1  0  0  0  0
 14 15  1  0  0  0  0
 14 28  1  0  0  0  0
 14 29  1  0  0  0  0
 15 17  1  0  0  0  0
 15 30  1  0  0  0  0
 15 31  1  0  0  0  0
 16 21  1  0  0  0  0
 16 24  1  0  0  0  0
 16 32  1  0  0  0  0
 19 22  1  0  0  0  0
 20 23  1  0  0  0  0
 21 34  1  0  0  0  0
 21 35  1  0  0  0  0
 22 23  2  0  0  0  0
 22 36  1  0  0  0  0
 23 37  1  0  0  0  0
 25 26  1  0  0  0  0
 25 40  1  0  0  0  0
 25 41  1  0  0  0  0
M  END
> <PUBCHEM_COMPOUND_CID>
126255

> <PUBCHEM_CONFORMER_RMSD>
1

> <PUBCHEM_CONFORMER_DIVERSEORDER>
1
31
39
46
3
50
13
29
41
53
20
36
52
24
44
49
7
27
32
2
6
42
8
47
54
40
33
34
25
43
21
48
28
45
22
11
15
17
51
19
26
35
38
14
4
30
23
9
10
16
12
5
18
37

> <PUBCHEM_MMFF94_PARTIAL_CHARGES>
32
1 -0.41
10 -0.42
11 -0.73
12 -0.73
13 0.36
15 0.06
16 0.36
17 0.57
18 0.66
19 0.62
2 -0.65
20 0.62
21 0.23
22 -0.14
23 -0.14
24 0.57
25 0.36
26 0.66
3 -0.57
33 0.37
36 0.15
37 0.15
38 0.37
39 0.5
4 -0.57
42 0.18
43 0.5
5 -0.57
6 -0.57
7 -0.57
8 -0.65
9 -0.57

> <PUBCHEM_EFFECTIVE_ROTOR_COUNT>
12.2

> <PUBCHEM_PHARMACOPHORE_FEATURES>
13
1 11 donor
1 12 donor
1 2 acceptor
1 3 acceptor
1 4 acceptor
1 5 acceptor
1 6 acceptor
1 7 acceptor
1 8 acceptor
1 9 acceptor
3 2 4 18 anion
3 8 9 26 anion
5 10 19 20 22 23 rings

> <PUBCHEM_HEAVY_ATOM_COUNT>
26

> <PUBCHEM_ATOM_DEF_STEREO_COUNT>
2

> <PUBCHEM_ATOM_UDEF_STEREO_COUNT>
0

> <PUBCHEM_BOND_DEF_STEREO_COUNT>
0

> <PUBCHEM_BOND_UDEF_STEREO_COUNT>
0

> <PUBCHEM_ISOTOPIC_ATOM_COUNT>
0

> <PUBCHEM_COMPONENT_COUNT>
1

> <PUBCHEM_CACTVS_TAUTO_COUNT>
4

> <PUBCHEM_CONFORMER_ID>
0001ED2F00000001

> <PUBCHEM_MMFF94_ENERGY>
41.2228

> <PUBCHEM_FEATURE_SELFOVERLAP>
66.098

> <PUBCHEM_SHAPE_FINGERPRINT>
11315181 36 18341610464258450244
11524674 6 17489868224129785822
11796584 16 18201725037933933310
12293681 4 17846787277775733128
12553582 1 18040987475481092553
12596602 18 15769765888761440574
12616971 3 17967541189772883364
12788726 201 17916307138847244529
13583140 156 15697999665056654773
13947920 75 18343014489367822593
14840074 17 17676491635489094302
14931854 50 18115004403772217943
15183329 4 18187640306809112874
15348495 7 17988636424485278680
15537594 2 17894628136811904210
17492 89 17981040040114096831
17857418 61 18334007286203327010
20681677 155 18412547595849754817
21403212 168 18270410391450263481
23402539 116 18409449202579755228
23559900 14 18268982257892769417
25122255 55 18200886072123590870
5104073 3 18059855112393980544
559249 180 18413107256037224589
59755656 215 18337397041797061894
70251023 43 17614285893586622987
7495541 125 18059852913798018432

> <PUBCHEM_SHAPE_MULTIPOLES>
477.02
14.18
2.7
1.38
20.89
0.89
0.07
2.28
1.37
-2.62
-0.05
-0.75
0.11
-1.18

> <PUBCHEM_SHAPE_SELFOVERLAP>
971.016

> <PUBCHEM_SHAPE_VOLUME>
277.6

> <PUBCHEM_COORDINATE_TYPE>
2
5
10

$$$$
