126317
  -OEChem-03292013323D

 32 35  0     0  0  0  0  0  0999 V2000
   -1.4183   -3.5978   -0.0602 O   0  0  0  0  0  0  0  0  0  0  0  0
    1.4183    3.5975    0.0608 O   0  0  0  0  0  0  0  0  0  0  0  0
    1.2980   -3.5697    0.0508 O   0  0  0  0  0  0  0  0  0  0  0  0
   -1.2978    3.5696   -0.0513 O   0  0  0  0  0  0  0  0  0  0  0  0
   -5.5495    1.1167    0.0043 O   0  5  0  0  0  0  0  0  0  0  0  0
    5.5499   -1.1160   -0.0035 O   0  5  0  0  0  0  0  0  0  0  0  0
   -5.5524   -1.0828    0.0130 O   0  0  0  0  0  0  0  0  0  0  0  0
    5.5519    1.0835   -0.0140 O   0  0  0  0  0  0  0  0  0  0  0  0
   -0.6903   -2.3972   -0.0123 N   0  0  0  0  0  0  0  0  0  0  0  0
    0.6904    2.3970    0.0123 N   0  0  0  0  0  0  0  0  0  0  0  0
   -4.9486    0.0162    0.0082 N   0  3  0  0  0  0  0  0  0  0  0  0
    4.9485   -0.0157   -0.0077 N   0  3  0  0  0  0  0  0  0  0  0  0
   -0.7295    0.0072    0.0002 C   0  0  0  0  0  0  0  0  0  0  0  0
    0.7295   -0.0073   -0.0003 C   0  0  0  0  0  0  0  0  0  0  0  0
   -1.4370   -1.2049    0.0014 C   0  0  0  0  0  0  0  0  0  0  0  0
    1.4370    1.2047   -0.0014 C   0  0  0  0  0  0  0  0  0  0  0  0
    1.4361   -1.2206    0.0033 C   0  0  0  0  0  0  0  0  0  0  0  0
   -1.4361    1.2204   -0.0033 C   0  0  0  0  0  0  0  0  0  0  0  0
    0.6848   -2.5063    0.0167 C   0  0  0  0  0  0  0  0  0  0  0  0
   -0.6846    2.5061   -0.0171 C   0  0  0  0  0  0  0  0  0  0  0  0
   -2.8360   -1.1983    0.0057 C   0  0  0  0  0  0  0  0  0  0  0  0
    2.8360    1.1981   -0.0057 C   0  0  0  0  0  0  0  0  0  0  0  0
    2.8338   -1.2241   -0.0001 C   0  0  0  0  0  0  0  0  0  0  0  0
   -2.8338    1.2239    0.0002 C   0  0  0  0  0  0  0  0  0  0  0  0
   -3.5281    0.0141    0.0063 C   0  0  0  0  0  0  0  0  0  0  0  0
    3.5280   -0.0143   -0.0062 C   0  0  0  0  0  0  0  0  0  0  0  0
   -3.3748   -2.1423    0.0072 H   0  0  0  0  0  0  0  0  0  0  0  0
    3.3747    2.1422   -0.0072 H   0  0  0  0  0  0  0  0  0  0  0  0
    3.3640   -2.1731    0.0023 H   0  0  0  0  0  0  0  0  0  0  0  0
   -3.3640    2.1729   -0.0023 H   0  0  0  0  0  0  0  0  0  0  0  0
   -1.3026   -3.8384   -0.9956 H   0  0  0  0  0  0  0  0  0  0  0  0
    1.3026    3.8378    0.9961 H   0  0  0  0  0  0  0  0  0  0  0  0
  1  9  1  0  0  0  0
  1 31  1  0  0  0  0
  2 10  1  0  0  0  0
  2 32  1  0  0  0  0
  3 19  2  0  0  0  0
  4 20  2  0  0  0  0
  5 11  1  0  0  0  0
  6 12  1  0  0  0  0
  7 11  2  0  0  0  0
  8 12  2  0  0  0  0
  9 15  1  0  0  0  0
  9 19  1  0  0  0  0
 10 16  1  0  0  0  0
 10 20  1  0  0  0  0
 11 25  1  0  0  0  0
 12 26  1  0  0  0  0
 13 14  1  0  0  0  0
 13 15  1  0  0  0  0
 13 18  2  0  0  0  0
 14 16  1  0  0  0  0
 14 17  2  0  0  0  0
 15 21  2  0  0  0  0
 16 22  2  0  0  0  0
 17 19  1  0  0  0  0
 17 23  1  0  0  0  0
 18 20  1  0  0  0  0
 18 24  1  0  0  0  0
 21 25  1  0  0  0  0
 21 27  1  0  0  0  0
 22 26  1  0  0  0  0
 22 28  1  0  0  0  0
 23 26  2  0  0  0  0
 23 29  1  0  0  0  0
 24 25  2  0  0  0  0
 24 30  1  0  0  0  0
M  CHG  4   5  -1   6  -1  11   1  12   1
M  END
> <PUBCHEM_COMPOUND_CID>
126317

> <PUBCHEM_CONFORMER_RMSD>
0.6

> <PUBCHEM_CONFORMER_DIVERSEORDER>
1

> <PUBCHEM_MMFF94_PARTIAL_CHARGES>
30
1 -0.44
10 -0.14
11 0.91
12 0.91
15 0.12
16 0.12
17 0.09
18 0.09
19 0.54
2 -0.44
20 0.54
21 -0.15
22 -0.15
23 -0.15
24 -0.15
25 0.13
26 0.13
27 0.15
28 0.15
29 0.15
3 -0.57
30 0.15
31 0.4
32 0.4
4 -0.57
5 -0.52
6 -0.52
7 -0.52
8 -0.52
9 -0.14

> <PUBCHEM_EFFECTIVE_ROTOR_COUNT>
2

> <PUBCHEM_PHARMACOPHORE_FEATURES>
12
1 3 acceptor
1 4 acceptor
1 5 acceptor
1 5 anion
1 6 acceptor
1 6 anion
1 7 acceptor
1 8 acceptor
6 10 13 14 16 18 20 rings
6 13 15 18 21 24 25 rings
6 14 16 17 22 23 26 rings
6 9 13 14 15 17 19 rings

> <PUBCHEM_HEAVY_ATOM_COUNT>
26

> <PUBCHEM_ATOM_DEF_STEREO_COUNT>
0

> <PUBCHEM_ATOM_UDEF_STEREO_COUNT>
0

> <PUBCHEM_BOND_DEF_STEREO_COUNT>
0

> <PUBCHEM_BOND_UDEF_STEREO_COUNT>
0

> <PUBCHEM_ISOTOPIC_ATOM_COUNT>
0

> <PUBCHEM_COMPONENT_COUNT>
1

> <PUBCHEM_CACTVS_TAUTO_COUNT>
1

> <PUBCHEM_CONFORMER_ID>
0001ED6D00000001

> <PUBCHEM_MMFF94_ENERGY>
90.5479

> <PUBCHEM_FEATURE_SELFOVERLAP>
61.181

> <PUBCHEM_SHAPE_FINGERPRINT>
10693767 8 18130490969193905839
10906281 52 18337692852651783609
10967382 1 18410855451680827395
1100329 8 18338797943399645234
12011746 2 18410575076078419293
12035758 1 18338799021436443720
12553582 1 18338502097472944111
12838862 33 18338497699432097509
13140716 1 18266458891570150795
13402501 40 18410575084663078912
138480 1 17041479411090329486
13862211 1 18410570686632684391
14178342 30 17762042247286791594
14223421 5 18122626046049169959
14787075 74 18259705592484368115
14790565 3 18410864260522218565
15042514 8 18336830887260253450
15081414 286 18341623564124616809
15099037 51 18410293639835632935
15196674 1 18410575084663078916
15927050 60 17764591310424894788
1601671 61 18410011022328952219
16728300 4 17462537560835869674
16945 1 18410851044901781510
19591789 44 18410855490198207623
20028762 73 18129942416044856295
20510252 161 18271244911468347040
20642791 178 18115601468355316133
20905425 154 18125441904076257022
21267235 1 18410582781249806567
21421861 104 17972035842856516163
22113638 7 18338794623490210965
2334 1 17978511162915946503
23402539 116 18343577456158416823
23558518 356 17901115126614398545
23559900 14 18270678796609429016
23566358 2 18195807358208570327
266924 87 18193548970342820957
2748010 2 18122343737854039525
283562 15 18340207384199891681
3178227 256 18336560394989055691
335352 9 18410856581114626492
34934 24 18410852161651761967
350125 39 18194120711993842714
3680242 22 18335420123641800562
474229 33 18410292497453596258
484989 97 18048031059218452871
5104073 3 18338797934809711554
5486654 2 18410859862691277468
59755656 215 18338802208824975158
6138700 20 18410294679191565558

> <PUBCHEM_SHAPE_MULTIPOLES>
468.19
9.3
3.79
0.57
0
0
0
0
0
0
0
0
0
0

> <PUBCHEM_SHAPE_SELFOVERLAP>
1069.579

> <PUBCHEM_SHAPE_VOLUME>
241.7

> <PUBCHEM_COORDINATE_TYPE>
2
5
10

$$$$
