126350
  -OEChem-03292013323D

 58 58  0     1  0  0  0  0  0999 V2000
   -1.0748   -2.3261   -0.4791 O   0  0  0  0  0  0  0  0  0  0  0  0
   -4.9509   -1.0365    0.2191 O   0  0  0  0  0  0  0  0  0  0  0  0
   -1.6796   -1.3934   -2.5764 O   0  0  0  0  0  0  0  0  0  0  0  0
    1.8619    0.7612    3.2936 O   0  0  0  0  0  0  0  0  0  0  0  0
    2.0839    1.9472   -2.6658 O   0  0  0  0  0  0  0  0  0  0  0  0
    2.5394    3.9074   -1.6176 O   0  0  0  0  0  0  0  0  0  0  0  0
   -2.6079   -0.9329    0.8323 C   0  0  1  0  0  0  0  0  0  0  0  0
   -3.6302   -1.0153   -0.3148 C   0  0  1  0  0  0  0  0  0  0  0  0
   -1.1809   -1.1133    0.2741 C   0  0  1  0  0  0  0  0  0  0  0  0
   -3.4059   -2.2788   -1.1440 C   0  0  0  0  0  0  0  0  0  0  0  0
   -2.7658    0.3829    1.6038 C   0  0  0  0  0  0  0  0  0  0  0  0
   -1.9567   -2.3921   -1.5999 C   0  0  2  0  0  0  0  0  0  0  0  0
   -0.1448   -1.1915    1.3494 C   0  0  0  0  0  0  0  0  0  0  0  0
   -2.5112    1.6436    0.8337 C   0  0  0  0  0  0  0  0  0  0  0  0
    0.8954   -0.3507    1.4466 C   0  0  0  0  0  0  0  0  0  0  0  0
   -1.6165    2.6043    1.1107 C   0  0  0  0  0  0  0  0  0  0  0  0
    1.9406   -0.4386    2.5236 C   0  0  1  0  0  0  0  0  0  0  0  0
   -1.4271    3.8319    0.2680 C   0  0  0  0  0  0  0  0  0  0  0  0
    3.3584   -0.5638    1.9491 C   0  0  0  0  0  0  0  0  0  0  0  0
   -0.0126    3.9696   -0.3118 C   0  0  0  0  0  0  0  0  0  0  0  0
    0.3968    2.8161   -1.2327 C   0  0  0  0  0  0  0  0  0  0  0  0
    3.5271   -1.7818    1.0874 C   0  0  0  0  0  0  0  0  0  0  0  0
    3.8566   -1.7347   -0.2117 C   0  0  0  0  0  0  0  0  0  0  0  0
    1.7812    2.9698   -1.8240 C   0  0  0  0  0  0  0  0  0  0  0  0
    4.0185   -2.9502   -1.0750 C   0  0  0  0  0  0  0  0  0  0  0  0
    2.7051   -3.3343   -1.7386 C   0  0  0  0  0  0  0  0  0  0  0  0
   -2.8284   -1.7537    1.5307 H   0  0  0  0  0  0  0  0  0  0  0  0
   -3.5537   -0.1468   -0.9774 H   0  0  0  0  0  0  0  0  0  0  0  0
   -0.9383   -0.2857   -0.4047 H   0  0  0  0  0  0  0  0  0  0  0  0
   -3.6697   -3.1520   -0.5334 H   0  0  0  0  0  0  0  0  0  0  0  0
   -4.0858   -2.2768   -2.0044 H   0  0  0  0  0  0  0  0  0  0  0  0
   -3.7870    0.4440    2.0021 H   0  0  0  0  0  0  0  0  0  0  0  0
   -2.1197    0.3614    2.4908 H   0  0  0  0  0  0  0  0  0  0  0  0
   -1.8129   -3.3685   -2.0752 H   0  0  0  0  0  0  0  0  0  0  0  0
   -0.2524   -1.9886    2.0816 H   0  0  0  0  0  0  0  0  0  0  0  0
   -3.1495    1.7994   -0.0334 H   0  0  0  0  0  0  0  0  0  0  0  0
   -5.5690   -1.0932   -0.5295 H   0  0  0  0  0  0  0  0  0  0  0  0
    1.0169    0.4415    0.7181 H   0  0  0  0  0  0  0  0  0  0  0  0
   -0.9532   -1.7277   -3.1294 H   0  0  0  0  0  0  0  0  0  0  0  0
   -0.9755    2.4983    1.9821 H   0  0  0  0  0  0  0  0  0  0  0  0
    1.7387   -1.2742    3.2038 H   0  0  0  0  0  0  0  0  0  0  0  0
   -1.6367    4.7091    0.8920 H   0  0  0  0  0  0  0  0  0  0  0  0
   -2.1526    3.8561   -0.5545 H   0  0  0  0  0  0  0  0  0  0  0  0
    4.0767   -0.6126    2.7773 H   0  0  0  0  0  0  0  0  0  0  0  0
    3.6200    0.3484    1.3958 H   0  0  0  0  0  0  0  0  0  0  0  0
    0.7117    4.0496    0.5093 H   0  0  0  0  0  0  0  0  0  0  0  0
    0.0488    4.9147   -0.8660 H   0  0  0  0  0  0  0  0  0  0  0  0
   -0.3131    2.7573   -2.0661 H   0  0  0  0  0  0  0  0  0  0  0  0
    0.3714    1.8696   -0.6936 H   0  0  0  0  0  0  0  0  0  0  0  0
    2.0823    1.5107    2.7140 H   0  0  0  0  0  0  0  0  0  0  0  0
    3.3795   -2.7468    1.5660 H   0  0  0  0  0  0  0  0  0  0  0  0
    3.9959   -0.7708   -0.6948 H   0  0  0  0  0  0  0  0  0  0  0  0
    4.7798   -2.7494   -1.8372 H   0  0  0  0  0  0  0  0  0  0  0  0
    4.3859   -3.7949   -0.4802 H   0  0  0  0  0  0  0  0  0  0  0  0
    1.9399   -3.5814   -0.9946 H   0  0  0  0  0  0  0  0  0  0  0  0
    2.8477   -4.2105   -2.3791 H   0  0  0  0  0  0  0  0  0  0  0  0
    2.3224   -2.5187   -2.3617 H   0  0  0  0  0  0  0  0  0  0  0  0
    2.9740    2.0531   -3.0643 H   0  0  0  0  0  0  0  0  0  0  0  0
  1  9  1  0  0  0  0
  1 12  1  0  0  0  0
  2  8  1  0  0  0  0
  2 37  1  0  0  0  0
  3 12  1  0  0  0  0
  3 39  1  0  0  0  0
  4 17  1  0  0  0  0
  4 50  1  0  0  0  0
  5 24  1  0  0  0  0
  5 58  1  0  0  0  0
  6 24  2  0  0  0  0
  7  8  1  0  0  0  0
  7  9  1  0  0  0  0
  7 11  1  0  0  0  0
  7 27  1  0  0  0  0
  8 10  1  0  0  0  0
  8 28  1  0  0  0  0
  9 13  1  0  0  0  0
  9 29  1  0  0  0  0
 10 12  1  0  0  0  0
 10 30  1  0  0  0  0
 10 31  1  0  0  0  0
 11 14  1  0  0  0  0
 11 32  1  0  0  0  0
 11 33  1  0  0  0  0
 12 34  1  0  0  0  0
 13 15  2  3  0  0  0
 13 35  1  0  0  0  0
 14 16  2  3  0  0  0
 14 36  1  0  0  0  0
 15 17  1  0  0  0  0
 15 38  1  0  0  0  0
 16 18  1  0  0  0  0
 16 40  1  0  0  0  0
 17 19  1  0  0  0  0
 17 41  1  0  0  0  0
 18 20  1  0  0  0  0
 18 42  1  0  0  0  0
 18 43  1  0  0  0  0
 19 22  1  0  0  0  0
 19 44  1  0  0  0  0
 19 45  1  0  0  0  0
 20 21  1  0  0  0  0
 20 46  1  0  0  0  0
 20 47  1  0  0  0  0
 21 24  1  0  0  0  0
 21 48  1  0  0  0  0
 21 49  1  0  0  0  0
 22 23  2  3  0  0  0
 22 51  1  0  0  0  0
 23 25  1  0  0  0  0
 23 52  1  0  0  0  0
 25 26  1  0  0  0  0
 25 53  1  0  0  0  0
 25 54  1  0  0  0  0
 26 55  1  0  0  0  0
 26 56  1  0  0  0  0
 26 57  1  0  0  0  0
M  END
> <PUBCHEM_COMPOUND_CID>
126350

> <PUBCHEM_CONFORMER_RMSD>
1

> <PUBCHEM_CONFORMER_DIVERSEORDER>
1
130
73
27
79
80
118
63
51
84
102
43
23
117
148
35
122
71
5
141
154
33
119
115
26
116
40
106
32
132
54
105
112
7
144
72
136
70
16
135
114
158
160
92
96
145
125
58
17
81
24
156
2
59
104
149
42
163
53
75
108
95
76
89
151
138
52
64
152
128
22
121
15
65
34
85
46
20
157
69
77
61
88
39
142
56
111
86
137
94
48
161
38
113
28
82
123
60
49
55
78
25
90
131
133
31
129
99
18
103
66
162
3
68
153
30
36
74
143
14
120
21
50
140
101
134
57
37
98
4
146
9
100
83
127
93
10
19
87
107
124
41
45
67
110
91
47
44
139
29
8
150
13
159
12
155
62
109
6
147
97
126
11

> <PUBCHEM_MMFF94_PARTIAL_CHARGES>
32
1 -0.56
11 0.14
12 0.56
13 -0.29
14 -0.29
15 -0.29
16 -0.29
17 0.42
18 0.14
19 0.14
2 -0.68
21 0.06
22 -0.29
23 -0.29
24 0.66
25 0.14
3 -0.68
35 0.15
36 0.15
37 0.4
38 0.15
39 0.4
4 -0.68
40 0.15
5 -0.65
50 0.4
51 0.15
52 0.15
58 0.5
6 -0.57
8 0.28
9 0.42

> <PUBCHEM_EFFECTIVE_ROTOR_COUNT>
12.2

> <PUBCHEM_PHARMACOPHORE_FEATURES>
13
1 1 acceptor
1 2 acceptor
1 2 donor
1 26 hydrophobe
1 3 acceptor
1 3 donor
1 4 acceptor
1 4 donor
1 5 acceptor
1 6 acceptor
3 5 6 24 anion
4 16 18 20 21 hydrophobe
6 1 7 8 9 10 12 rings

> <PUBCHEM_HEAVY_ATOM_COUNT>
26

> <PUBCHEM_ATOM_DEF_STEREO_COUNT>
0

> <PUBCHEM_ATOM_UDEF_STEREO_COUNT>
0

> <PUBCHEM_BOND_DEF_STEREO_COUNT>
0

> <PUBCHEM_BOND_UDEF_STEREO_COUNT>
3

> <PUBCHEM_ISOTOPIC_ATOM_COUNT>
0

> <PUBCHEM_COMPONENT_COUNT>
1

> <PUBCHEM_CACTVS_TAUTO_COUNT>
1

> <PUBCHEM_CONFORMER_ID>
0001ED8E00000001

> <PUBCHEM_MMFF94_ENERGY>
26.8429

> <PUBCHEM_FEATURE_SELFOVERLAP>
66.068

> <PUBCHEM_SHAPE_FINGERPRINT>
10165383 225 17479182963783003385
133893 2 17174297555187501291
13615921 28 17533815682311484732
1813 80 18336254700096137763
19930381 70 17689469347330947638
20600515 1 17681794631678128818
35225 105 17321802194141131108
3524813 1 17695915427480036722
81228 2 17901071219121442904

> <PUBCHEM_SHAPE_MULTIPOLES>
499.85
7.07
5.44
2.79
3.49
5.4
0.29
-5.67
0.38
-1.04
-4.18
1.97
0.68
-0.89

> <PUBCHEM_SHAPE_SELFOVERLAP>
979.594

> <PUBCHEM_SHAPE_VOLUME>
295.5

> <PUBCHEM_COORDINATE_TYPE>
2
5
10

$$$$
