126337
  -OEChem-03292013323D

 53 54  0     1  0  0  0  0  0999 V2000
   -1.2363   -2.0584    1.8609 P   0  0  1  0  0  0  0  0  0  0  0  0
    1.5265   -1.5867   -2.1006 P   0  0  1  0  0  0  0  0  0  0  0  0
   -0.2767    3.0530   -0.2066 O   0  0  0  0  0  0  0  0  0  0  0  0
   -2.6838    1.8736    0.5437 O   0  0  0  0  0  0  0  0  0  0  0  0
    2.0349    1.7612    0.6966 O   0  0  0  0  0  0  0  0  0  0  0  0
   -1.8287   -0.6525    1.3274 O   0  0  0  0  0  0  0  0  0  0  0  0
    1.7917   -0.3875   -1.0499 O   0  0  0  0  0  0  0  0  0  0  0  0
   -2.3598   -2.6056    2.8871 O   0  0  0  0  0  0  0  0  0  0  0  0
    2.5080   -1.2584   -3.3430 O   0  0  0  0  0  0  0  0  0  0  0  0
   -0.7971   -3.0323    0.8074 O   0  0  0  0  0  0  0  0  0  0  0  0
    1.6258   -2.9795   -1.5517 O   0  0  0  0  0  0  0  0  0  0  0  0
   -1.4363    3.8488    0.0070 C   0  0  0  0  0  0  0  0  0  0  0  0
    0.9119    3.7804    0.0698 C   0  0  0  0  0  0  0  0  0  0  0  0
   -2.6685    3.0210   -0.3034 C   0  0  0  0  0  0  0  0  0  0  0  0
    2.1095    2.8829   -0.1750 C   0  0  0  0  0  0  0  0  0  0  0  0
   -3.2939    0.7555    0.0607 C   0  0  0  0  0  0  0  0  0  0  0  0
    3.0359    0.8315    0.5928 C   0  0  0  0  0  0  0  0  0  0  0  0
   -2.8641   -0.5122    0.4534 C   0  0  0  0  0  0  0  0  0  0  0  0
    2.9076   -0.2419   -0.2825 C   0  0  0  0  0  0  0  0  0  0  0  0
   -4.3555    0.8857   -0.8346 C   0  0  0  0  0  0  0  0  0  0  0  0
    4.1781    0.9749    1.3736 C   0  0  0  0  0  0  0  0  0  0  0  0
   -3.4964   -1.6495   -0.0492 C   0  0  0  0  0  0  0  0  0  0  0  0
    3.9334   -1.1824   -0.3782 C   0  0  0  0  0  0  0  0  0  0  0  0
   -4.9875   -0.2517   -1.3371 C   0  0  0  0  0  0  0  0  0  0  0  0
    5.2037    0.0342    1.2779 C   0  0  0  0  0  0  0  0  0  0  0  0
   -4.5580   -1.5193   -0.9445 C   0  0  0  0  0  0  0  0  0  0  0  0
    5.0813   -1.0444    0.4021 C   0  0  0  0  0  0  0  0  0  0  0  0
    0.0785   -1.5482    2.9531 C   0  0  0  0  0  0  0  0  0  0  0  0
   -0.0844   -1.1922   -2.7574 C   0  0  0  0  0  0  0  0  0  0  0  0
   -1.4597    4.1638    1.0567 H   0  0  0  0  0  0  0  0  0  0  0  0
   -1.4078    4.7348   -0.6368 H   0  0  0  0  0  0  0  0  0  0  0  0
    0.9690    4.6622   -0.5777 H   0  0  0  0  0  0  0  0  0  0  0  0
    0.8978    4.0997    1.1184 H   0  0  0  0  0  0  0  0  0  0  0  0
   -2.6086    2.7285   -1.3599 H   0  0  0  0  0  0  0  0  0  0  0  0
   -3.5716    3.6162   -0.1302 H   0  0  0  0  0  0  0  0  0  0  0  0
    2.1016    2.5315   -1.2138 H   0  0  0  0  0  0  0  0  0  0  0  0
    3.0358    3.4386    0.0097 H   0  0  0  0  0  0  0  0  0  0  0  0
   -4.7414    1.8521   -1.1450 H   0  0  0  0  0  0  0  0  0  0  0  0
    4.2784    1.8125    2.0583 H   0  0  0  0  0  0  0  0  0  0  0  0
   -3.2071   -2.6555    0.2300 H   0  0  0  0  0  0  0  0  0  0  0  0
    3.8918   -2.0326   -1.0484 H   0  0  0  0  0  0  0  0  0  0  0  0
   -5.8188   -0.1508   -2.0289 H   0  0  0  0  0  0  0  0  0  0  0  0
    6.0976    0.1418    1.8853 H   0  0  0  0  0  0  0  0  0  0  0  0
   -5.0527   -2.4044   -1.3337 H   0  0  0  0  0  0  0  0  0  0  0  0
    5.8812   -1.7753    0.3267 H   0  0  0  0  0  0  0  0  0  0  0  0
   -0.2910   -0.8448    3.7046 H   0  0  0  0  0  0  0  0  0  0  0  0
    0.8755   -1.0589    2.3867 H   0  0  0  0  0  0  0  0  0  0  0  0
    0.5035   -2.4131    3.4697 H   0  0  0  0  0  0  0  0  0  0  0  0
   -0.8446   -1.2806   -1.9772 H   0  0  0  0  0  0  0  0  0  0  0  0
   -0.3437   -1.8753   -3.5708 H   0  0  0  0  0  0  0  0  0  0  0  0
   -0.1069   -0.1696   -3.1447 H   0  0  0  0  0  0  0  0  0  0  0  0
   -3.1890   -2.9924    2.5345 H   0  0  0  0  0  0  0  0  0  0  0  0
    3.4694   -1.4320   -3.2583 H   0  0  0  0  0  0  0  0  0  0  0  0
  1  6  1  0  0  0  0
  1  8  1  0  0  0  0
  1 10  2  0  0  0  0
  1 28  1  0  0  0  0
  2  7  1  0  0  0  0
  2  9  1  0  0  0  0
  2 11  2  0  0  0  0
  2 29  1  0  0  0  0
  3 12  1  0  0  0  0
  3 13  1  0  0  0  0
  4 14  1  0  0  0  0
  4 16  1  0  0  0  0
  5 15  1  0  0  0  0
  5 17  1  0  0  0  0
  6 18  1  0  0  0  0
  7 19  1  0  0  0  0
  8 52  1  0  0  0  0
  9 53  1  0  0  0  0
 12 14  1  0  0  0  0
 12 30  1  0  0  0  0
 12 31  1  0  0  0  0
 13 15  1  0  0  0  0
 13 32  1  0  0  0  0
 13 33  1  0  0  0  0
 14 34  1  0  0  0  0
 14 35  1  0  0  0  0
 15 36  1  0  0  0  0
 15 37  1  0  0  0  0
 16 18  1  0  0  0  0
 16 20  2  0  0  0  0
 17 19  1  0  0  0  0
 17 21  2  0  0  0  0
 18 22  2  0  0  0  0
 19 23  2  0  0  0  0
 20 24  1  0  0  0  0
 20 38  1  0  0  0  0
 21 25  1  0  0  0  0
 21 39  1  0  0  0  0
 22 26  1  0  0  0  0
 22 40  1  0  0  0  0
 23 27  1  0  0  0  0
 23 41  1  0  0  0  0
 24 26  2  0  0  0  0
 24 42  1  0  0  0  0
 25 27  2  0  0  0  0
 25 43  1  0  0  0  0
 26 44  1  0  0  0  0
 27 45  1  0  0  0  0
 28 46  1  0  0  0  0
 28 47  1  0  0  0  0
 28 48  1  0  0  0  0
 29 49  1  0  0  0  0
 29 50  1  0  0  0  0
 29 51  1  0  0  0  0
M  END
> <PUBCHEM_COMPOUND_CID>
126337

> <PUBCHEM_CONFORMER_RMSD>
1.2

> <PUBCHEM_CONFORMER_DIVERSEORDER>
1
40
23
119
22
150
110
177
17
64
178
25
199
151
152
80
140
104
29
122
21
2
182
187
69
208
201
200
253
158
231
59
220
286
138
258
9
168
68
279
49
171
232
264
111
118
284
157
11
52
124
156
123
275
174
154
3
14
160
230
278
47
16
209
283
267
246
242
255
229
217
250
243
134
266
79
234
176
145
13
181
236
207
223
129
164
194
252
224
72
153
28
42
172
256
148
184
228
90
165
235
102
210
141
259
170
92
39
113
120
227
55
18
97
103
5
216
195
106
226
88
262
33
112
121
272
251
26
213
219
225
31
133
4
271
186
32
285
149
166
161
70
109
108
180
20
95
56
130
189
155
34
84
115
167
238
254
76
99
244
196
37
222
101
71
282
89
269
265
100
93
147
159
203
142
117
173
193
81
245
270
204
197
77
205
137
61
7
57
63
91
139
116
41
78
146
162
38
202
75
249
50
183
277
54
98
268
218
273
83
86
136
131
27
280
179
85
263
241
191
67
260
94
8
107
87
45
43
36
211
221
48
248
215
240
66
257
192
132
190
214
281
274
128
60
82
206
261
114
163
53
233
126
35
276
51
125
24
73
30
74
143
287
212
44
188
144
46
62
169
15
185
6
198
105
127
10
58
175
135
65
12
239
247
19
237
96

> <PUBCHEM_MMFF94_PARTIAL_CHARGES>
37
1 1.24
10 -0.7
11 -0.7
12 0.28
13 0.28
14 0.28
15 0.28
16 0.08
17 0.08
18 0.08
19 0.08
2 1.24
20 -0.15
21 -0.15
22 -0.15
23 -0.15
24 -0.15
25 -0.15
26 -0.15
27 -0.15
3 -0.56
38 0.15
39 0.15
4 -0.36
40 0.15
41 0.15
42 0.15
43 0.15
44 0.15
45 0.15
5 -0.36
52 0.5
53 0.5
6 -0.35
7 -0.35
8 -0.77
9 -0.77

> <PUBCHEM_EFFECTIVE_ROTOR_COUNT>
12

> <PUBCHEM_PHARMACOPHORE_FEATURES>
9
1 10 acceptor
1 11 acceptor
1 3 acceptor
1 4 acceptor
1 5 acceptor
1 8 acceptor
1 9 acceptor
6 16 18 20 22 24 26 rings
6 17 19 21 23 25 27 rings

> <PUBCHEM_HEAVY_ATOM_COUNT>
29

> <PUBCHEM_ATOM_DEF_STEREO_COUNT>
0

> <PUBCHEM_ATOM_UDEF_STEREO_COUNT>
0

> <PUBCHEM_BOND_DEF_STEREO_COUNT>
0

> <PUBCHEM_BOND_UDEF_STEREO_COUNT>
0

> <PUBCHEM_ISOTOPIC_ATOM_COUNT>
0

> <PUBCHEM_COMPONENT_COUNT>
1

> <PUBCHEM_CACTVS_TAUTO_COUNT>
1

> <PUBCHEM_CONFORMER_ID>
0001ED8100000001

> <PUBCHEM_MMFF94_ENERGY>
51.3753

> <PUBCHEM_FEATURE_SELFOVERLAP>
45.704

> <PUBCHEM_SHAPE_FINGERPRINT>
10693767 8 17765971172597360911
108634 29 18335704910196324394
11828532 37 17824544299992070651
12107698 1 18339910584774320973
12202916 173 18339060662333600811
12293681 4 18334855043452957690
12633257 1 18408328782555725945
13402501 40 18341608200636618161
1361 2 17911228744204968503
13642711 20 18046310190128187983
14251757 17 17913491242207200931
14725015 67 18337093627795152545
17627616 140 17680413468980100059
19930381 70 18341893043505765431
20600515 1 17967258602156744772
20764821 26 18119559680134317801
23559900 14 18264477558896267545
238918 7 18130497523487500390
463206 1 17701809102384743703
469060 322 17630010915291274333
508706 21 18341061717608733703
57307002 85 18126864715721131902
57527585 103 18118150085048182683
58250162 1 15242579311495146853
9709674 26 18190739937029394849

> <PUBCHEM_SHAPE_MULTIPOLES>
551.68
9.63
4.32
2.54
1.49
3.88
-0.35
-1.29
-0.16
-1.24
0.41
0.48
-2.76
1.58

> <PUBCHEM_SHAPE_SELFOVERLAP>
1109.377

> <PUBCHEM_SHAPE_VOLUME>
324.4

> <PUBCHEM_COORDINATE_TYPE>
2
5
10

$$$$
