126306
  -OEChem-03292013323D

 38 39  0     1  0  0  0  0  0999 V2000
    2.5164    0.3580   -1.0504 O   0  0  0  0  0  0  0  0  0  0  0  0
    3.9732    2.7632    0.1599 O   0  0  0  0  0  0  0  0  0  0  0  0
    4.2665   -1.8303   -1.1009 O   0  0  0  0  0  0  0  0  0  0  0  0
   -1.0096    1.9602    0.1682 O   0  0  0  0  0  0  0  0  0  0  0  0
   -2.6708   -2.3837    0.5382 O   0  0  0  0  0  0  0  0  0  0  0  0
    0.4392    0.1556    0.0076 N   0  0  0  0  0  0  0  0  0  0  0  0
   -1.8824   -0.1896    0.3662 N   0  0  0  0  0  0  0  0  0  0  0  0
   -6.3655    1.5540   -0.4091 N   0  0  0  0  0  0  0  0  0  0  0  0
    1.5753    1.0087   -0.1850 C   0  0  1  0  0  0  0  0  0  0  0  0
    3.7369    1.4503    0.6637 C   0  0  1  0  0  0  0  0  0  0  0  0
    2.2991    1.3285    1.1128 C   0  0  0  0  0  0  0  0  0  0  0  0
    3.8317    0.4363   -0.4677 C   0  0  1  0  0  0  0  0  0  0  0  0
    4.2136   -0.9568    0.0153 C   0  0  0  0  0  0  0  0  0  0  0  0
   -0.8248    0.7392    0.1793 C   0  0  0  0  0  0  0  0  0  0  0  0
    0.6261   -1.2070    0.0177 C   0  0  0  0  0  0  0  0  0  0  0  0
   -0.3614   -2.0900    0.1895 C   0  0  0  0  0  0  0  0  0  0  0  0
   -1.7477   -1.5856    0.3823 C   0  0  0  0  0  0  0  0  0  0  0  0
   -3.2150    0.3760    0.5502 C   0  0  0  0  0  0  0  0  0  0  0  0
   -0.1448   -3.5705    0.1978 C   0  0  0  0  0  0  0  0  0  0  0  0
   -3.9543    0.5657   -0.7688 C   0  0  0  0  0  0  0  0  0  0  0  0
   -5.3018    1.1179   -0.5668 C   0  0  0  0  0  0  0  0  0  0  0  0
    1.2736    1.9366   -0.6854 H   0  0  0  0  0  0  0  0  0  0  0  0
    4.4503    1.2746    1.4745 H   0  0  0  0  0  0  0  0  0  0  0  0
    2.2044    0.5056    1.8315 H   0  0  0  0  0  0  0  0  0  0  0  0
    1.9021    2.2344    1.5817 H   0  0  0  0  0  0  0  0  0  0  0  0
    4.5131    0.7575   -1.2633 H   0  0  0  0  0  0  0  0  0  0  0  0
    3.5220   -1.3685    0.7537 H   0  0  0  0  0  0  0  0  0  0  0  0
    5.2093   -0.9394    0.4699 H   0  0  0  0  0  0  0  0  0  0  0  0
    1.6256   -1.5828   -0.1238 H   0  0  0  0  0  0  0  0  0  0  0  0
    4.8901    2.7894   -0.1631 H   0  0  0  0  0  0  0  0  0  0  0  0
   -3.1386    1.3343    1.0790 H   0  0  0  0  0  0  0  0  0  0  0  0
   -3.7945   -0.2884    1.2037 H   0  0  0  0  0  0  0  0  0  0  0  0
    3.4009   -1.8007   -1.5423 H   0  0  0  0  0  0  0  0  0  0  0  0
   -0.4598   -3.9977    1.1554 H   0  0  0  0  0  0  0  0  0  0  0  0
    0.9082   -3.8321    0.0484 H   0  0  0  0  0  0  0  0  0  0  0  0
   -0.7213   -4.0459   -0.6025 H   0  0  0  0  0  0  0  0  0  0  0  0
   -3.3820    1.2325   -1.4246 H   0  0  0  0  0  0  0  0  0  0  0  0
   -4.0300   -0.3937   -1.2944 H   0  0  0  0  0  0  0  0  0  0  0  0
  1  9  1  0  0  0  0
  1 12  1  0  0  0  0
  2 10  1  0  0  0  0
  2 30  1  0  0  0  0
  3 13  1  0  0  0  0
  3 33  1  0  0  0  0
  4 14  2  0  0  0  0
  5 17  2  0  0  0  0
  6  9  1  0  0  0  0
  6 14  1  0  0  0  0
  6 15  1  0  0  0  0
  7 14  1  0  0  0  0
  7 17  1  0  0  0  0
  7 18  1  0  0  0  0
  8 21  3  0  0  0  0
  9 11  1  0  0  0  0
  9 22  1  0  0  0  0
 10 11  1  0  0  0  0
 10 12  1  0  0  0  0
 10 23  1  0  0  0  0
 11 24  1  0  0  0  0
 11 25  1  0  0  0  0
 12 13  1  0  0  0  0
 12 26  1  0  0  0  0
 13 27  1  0  0  0  0
 13 28  1  0  0  0  0
 15 16  2  0  0  0  0
 15 29  1  0  0  0  0
 16 17  1  0  0  0  0
 16 19  1  0  0  0  0
 18 20  1  0  0  0  0
 18 31  1  0  0  0  0
 18 32  1  0  0  0  0
 19 34  1  0  0  0  0
 19 35  1  0  0  0  0
 19 36  1  0  0  0  0
 20 21  1  0  0  0  0
 20 37  1  0  0  0  0
 20 38  1  0  0  0  0
M  END
> <PUBCHEM_COMPOUND_CID>
126306

> <PUBCHEM_CONFORMER_RMSD>
0.8

> <PUBCHEM_CONFORMER_DIVERSEORDER>
1
18
38
25
42
34
44
19
30
36
9
37
43
33
16
24
29
13
41
40
20
26
35
21
14
7
31
28
22
17
39
27
23
32
4
15
10
6
12
2
11
3
5
8

> <PUBCHEM_MMFF94_PARTIAL_CHARGES>
23
1 -0.56
10 0.28
12 0.28
13 0.28
14 0.69
15 -0.04
16 -0.12
17 0.62
18 0.3
19 0.14
2 -0.68
20 0.2
21 0.36
29 0.15
3 -0.68
30 0.4
33 0.4
4 -0.57
5 -0.57
6 -0.47
7 -0.42
8 -0.56
9 0.58

> <PUBCHEM_EFFECTIVE_ROTOR_COUNT>
5

> <PUBCHEM_PHARMACOPHORE_FEATURES>
10
1 1 acceptor
1 2 acceptor
1 2 donor
1 3 acceptor
1 3 donor
1 4 acceptor
1 5 acceptor
1 8 acceptor
5 1 9 10 11 12 rings
6 6 7 14 15 16 17 rings

> <PUBCHEM_HEAVY_ATOM_COUNT>
21

> <PUBCHEM_ATOM_DEF_STEREO_COUNT>
3

> <PUBCHEM_ATOM_UDEF_STEREO_COUNT>
0

> <PUBCHEM_BOND_DEF_STEREO_COUNT>
0

> <PUBCHEM_BOND_UDEF_STEREO_COUNT>
0

> <PUBCHEM_ISOTOPIC_ATOM_COUNT>
0

> <PUBCHEM_COMPONENT_COUNT>
1

> <PUBCHEM_CACTVS_TAUTO_COUNT>
1

> <PUBCHEM_CONFORMER_ID>
0001ED6200000001

> <PUBCHEM_MMFF94_ENERGY>
42.1087

> <PUBCHEM_FEATURE_SELFOVERLAP>
50.754

> <PUBCHEM_SHAPE_FINGERPRINT>
10411042 1 17473258774259609259
10616163 171 18051699047066678658
10693767 8 17986661585427089119
12403259 415 18337681896469585051
12500047 106 18267864063546937752
12730499 353 18336551526076858755
12969540 114 18262783134547761549
13140716 1 18408606950471026523
13544592 145 18410858737452082948
13675066 3 18114751532775979705
14178342 30 17975967984669756442
15099037 51 18410012113303425551
15196674 1 18410575123449861323
18186145 218 18271258191316971168
19784866 34 18410567384525286453
200 152 16988562394303847405
20510252 161 18198349639582361235
20645477 56 18261391195370689085
20645477 70 17918280857024224540
21279426 13 18411702063007873567
21521239 73 18130211714968046255
21859007 373 17824521025184465876
22182313 1 18338537303921847259
23402539 116 18342167890883811989
23493267 7 17603591820108282945
23559900 14 18341896320650305292
2748010 2 18338251443482743115
335352 9 18409729530668543678
34934 24 18335133250044348104
350125 39 18191302680528928068
495365 180 17846488258236808682
5104073 3 18337674217089257130
59755656 215 18263362482675554893
633830 44 18341322345098870373
9709674 26 18269281325709470158

> <PUBCHEM_SHAPE_MULTIPOLES>
387.88
10.17
3.02
0.87
8.04
2.1
-0.03
-5.83
-2.13
-0.51
0.3
-0.28
-0.04
1.19

> <PUBCHEM_SHAPE_SELFOVERLAP>
806.112

> <PUBCHEM_SHAPE_VOLUME>
219.6

> <PUBCHEM_COORDINATE_TYPE>
2
5
10

$$$$
