126363
  -OEChem-03292013323D

 58 60  0     1  0  0  0  0  0999 V2000
    0.3078   -2.5934    0.6656 S   0  0  0  0  0  0  0  0  0  0  0  0
    3.1139   -0.9270    2.0712 O   0  0  0  0  0  0  0  0  0  0  0  0
    0.0521   -3.5769    1.7006 O   0  0  0  0  0  0  0  0  0  0  0  0
    1.3075   -2.8497   -0.3536 O   0  0  0  0  0  0  0  0  0  0  0  0
    3.7784   -0.1913   -0.0299 N   0  0  0  0  0  0  0  0  0  0  0  0
    0.6257   -1.0855    1.3889 N   0  0  0  0  0  0  0  0  0  0  0  0
   -4.9597    2.5849    0.4866 N   0  0  0  0  0  0  0  0  0  0  0  0
   -3.9331    1.3491    2.1838 N   0  0  0  0  0  0  0  0  0  0  0  0
    3.4769    0.3479   -1.3620 C   0  0  0  0  0  0  0  0  0  0  0  0
    5.1879   -0.5194    0.1942 C   0  0  0  0  0  0  0  0  0  0  0  0
    4.3359    1.5757   -1.6566 C   0  0  0  0  0  0  0  0  0  0  0  0
    6.0787    0.6916   -0.0694 C   0  0  0  0  0  0  0  0  0  0  0  0
    5.8209    1.2755   -1.4575 C   0  0  0  0  0  0  0  0  0  0  0  0
    1.4110   -0.0694    0.6650 C   0  0  2  0  0  0  0  0  0  0  0  0
    2.8406   -0.4374    0.9723 C   0  0  0  0  0  0  0  0  0  0  0  0
    1.1013    1.3283    1.1792 C   0  0  0  0  0  0  0  0  0  0  0  0
   -0.1215    1.9203    0.5221 C   0  0  0  0  0  0  0  0  0  0  0  0
   -1.2152   -2.2774   -0.1743 C   0  0  0  0  0  0  0  0  0  0  0  0
   -1.3675    1.7138    1.0933 C   0  0  0  0  0  0  0  0  0  0  0  0
    0.0226    2.6592   -0.6418 C   0  0  0  0  0  0  0  0  0  0  0  0
   -2.4978    2.2600    0.4853 C   0  0  0  0  0  0  0  0  0  0  0  0
   -1.1078    3.2053   -1.2498 C   0  0  0  0  0  0  0  0  0  0  0  0
   -1.1843   -1.8144   -1.4783 C   0  0  0  0  0  0  0  0  0  0  0  0
   -2.4103   -2.5005    0.4871 C   0  0  0  0  0  0  0  0  0  0  0  0
   -2.3679    3.0058   -0.6864 C   0  0  0  0  0  0  0  0  0  0  0  0
   -2.3861   -1.5669   -2.1415 C   0  0  0  0  0  0  0  0  0  0  0  0
   -3.6121   -2.2529   -0.1761 C   0  0  0  0  0  0  0  0  0  0  0  0
   -3.6001   -1.7861   -1.4904 C   0  0  0  0  0  0  0  0  0  0  0  0
   -3.8124    2.0521    1.0716 C   0  0  0  0  0  0  0  0  0  0  0  0
   -4.8854   -1.5210   -2.1992 C   0  0  0  0  0  0  0  0  0  0  0  0
    3.6862   -0.4480   -2.0865 H   0  0  0  0  0  0  0  0  0  0  0  0
    2.4378    0.6378   -1.4939 H   0  0  0  0  0  0  0  0  0  0  0  0
    5.3473   -0.8792    1.2155 H   0  0  0  0  0  0  0  0  0  0  0  0
    5.4443   -1.3401   -0.4862 H   0  0  0  0  0  0  0  0  0  0  0  0
    4.1601    1.9163   -2.6829 H   0  0  0  0  0  0  0  0  0  0  0  0
    4.0419    2.3941   -0.9875 H   0  0  0  0  0  0  0  0  0  0  0  0
    5.8792    1.4615    0.6864 H   0  0  0  0  0  0  0  0  0  0  0  0
    7.1325    0.4078    0.0260 H   0  0  0  0  0  0  0  0  0  0  0  0
    6.1561    0.5640   -2.2221 H   0  0  0  0  0  0  0  0  0  0  0  0
    6.4068    2.1917   -1.5906 H   0  0  0  0  0  0  0  0  0  0  0  0
    1.1587   -0.1763   -0.3887 H   0  0  0  0  0  0  0  0  0  0  0  0
    1.9507    1.9998    0.9921 H   0  0  0  0  0  0  0  0  0  0  0  0
    0.9728    1.3331    2.2702 H   0  0  0  0  0  0  0  0  0  0  0  0
    0.6083   -1.0142    2.4139 H   0  0  0  0  0  0  0  0  0  0  0  0
   -1.4448    1.1283    2.0054 H   0  0  0  0  0  0  0  0  0  0  0  0
    0.9992    2.8195   -1.0895 H   0  0  0  0  0  0  0  0  0  0  0  0
   -0.2507   -1.6309   -2.0009 H   0  0  0  0  0  0  0  0  0  0  0  0
   -2.4394   -2.8558    1.5126 H   0  0  0  0  0  0  0  0  0  0  0  0
   -1.0058    3.7852   -2.1625 H   0  0  0  0  0  0  0  0  0  0  0  0
   -3.2124    3.4516   -1.2000 H   0  0  0  0  0  0  0  0  0  0  0  0
   -2.3636   -1.1994   -3.1640 H   0  0  0  0  0  0  0  0  0  0  0  0
   -4.5515   -2.4232    0.3432 H   0  0  0  0  0  0  0  0  0  0  0  0
   -5.6722   -2.2020   -1.8573 H   0  0  0  0  0  0  0  0  0  0  0  0
   -4.7800   -1.6695   -3.2792 H   0  0  0  0  0  0  0  0  0  0  0  0
   -5.2084   -0.4911   -2.0169 H   0  0  0  0  0  0  0  0  0  0  0  0
   -4.9573    3.1337   -0.3640 H   0  0  0  0  0  0  0  0  0  0  0  0
   -5.8681    2.4296    0.9116 H   0  0  0  0  0  0  0  0  0  0  0  0
   -4.9268    1.3158    2.4375 H   0  0  0  0  0  0  0  0  0  0  0  0
  1  3  2  0  0  0  0
  1  4  2  0  0  0  0
  1  6  1  0  0  0  0
  1 18  1  0  0  0  0
  2 15  2  0  0  0  0
  5  9  1  0  0  0  0
  5 10  1  0  0  0  0
  5 15  1  0  0  0  0
  6 14  1  0  0  0  0
  6 44  1  0  0  0  0
  7 29  1  0  0  0  0
  7 56  1  0  0  0  0
  7 57  1  0  0  0  0
  8 29  2  0  0  0  0
  8 58  1  0  0  0  0
  9 11  1  0  0  0  0
  9 31  1  0  0  0  0
  9 32  1  0  0  0  0
 10 12  1  0  0  0  0
 10 33  1  0  0  0  0
 10 34  1  0  0  0  0
 11 13  1  0  0  0  0
 11 35  1  0  0  0  0
 11 36  1  0  0  0  0
 12 13  1  0  0  0  0
 12 37  1  0  0  0  0
 12 38  1  0  0  0  0
 13 39  1  0  0  0  0
 13 40  1  0  0  0  0
 14 15  1  0  0  0  0
 14 16  1  0  0  0  0
 14 41  1  0  0  0  0
 16 17  1  0  0  0  0
 16 42  1  0  0  0  0
 16 43  1  0  0  0  0
 17 19  2  0  0  0  0
 17 20  1  0  0  0  0
 18 23  2  0  0  0  0
 18 24  1  0  0  0  0
 19 21  1  0  0  0  0
 19 45  1  0  0  0  0
 20 22  2  0  0  0  0
 20 46  1  0  0  0  0
 21 25  2  0  0  0  0
 21 29  1  0  0  0  0
 22 25  1  0  0  0  0
 22 49  1  0  0  0  0
 23 26  1  0  0  0  0
 23 47  1  0  0  0  0
 24 27  2  0  0  0  0
 24 48  1  0  0  0  0
 25 50  1  0  0  0  0
 26 28  2  0  0  0  0
 26 51  1  0  0  0  0
 27 28  1  0  0  0  0
 27 52  1  0  0  0  0
 28 30  1  0  0  0  0
 30 53  1  0  0  0  0
 30 54  1  0  0  0  0
 30 55  1  0  0  0  0
M  END
> <PUBCHEM_COMPOUND_CID>
126363

> <PUBCHEM_CONFORMER_RMSD>
1

> <PUBCHEM_CONFORMER_DIVERSEORDER>
1
49
135
17
91
116
18
94
96
32
52
132
111
155
105
70
136
82
65
154
51
137
27
125
43
63
44
25
97
28
100
133
86
114
151
69
54
131
113
138
93
61
29
21
40
47
115
103
95
144
145
106
141
159
129
142
152
71
38
127
122
89
68
76
130
147
117
99
46
87
120
33
45
110
36
102
124
39
62
126
72
134
139
153
50
157
108
83
73
121
5
74
146
14
59
84
123
64
90
37
158
150
6
12
15
77
143
112
161
11
148
42
20
53
85
160
98
118
22
16
80
10
41
75
56
23
88
67
119
31
162
101
109
57
156
149
66
2
128
78
13
30
79
58
24
107
26
8
9
81
92
48
4
55
19
60
34
7
3
35
104
140

> <PUBCHEM_MMFF94_PARTIAL_CHARGES>
39
1 1.45
10 0.3
14 0.42
15 0.57
16 0.14
17 -0.14
18 -0.01
19 -0.15
2 -0.57
20 -0.15
21 0.09
22 -0.15
23 -0.15
24 -0.15
25 -0.15
26 -0.15
27 -0.15
28 -0.14
29 0.41
3 -0.65
30 0.14
4 -0.65
44 0.42
45 0.15
46 0.15
47 0.15
48 0.15
49 0.15
5 -0.66
50 0.15
51 0.15
52 0.15
56 0.4
57 0.4
58 0.4
6 -0.91
7 -0.85
8 -0.85
9 0.3

> <PUBCHEM_EFFECTIVE_ROTOR_COUNT>
9.2

> <PUBCHEM_PHARMACOPHORE_FEATURES>
10
1 2 acceptor
1 3 acceptor
1 4 acceptor
1 6 donor
1 7 donor
1 8 donor
3 7 8 29 cation
6 17 19 20 21 22 25 rings
6 18 23 24 26 27 28 rings
6 5 9 10 11 12 13 rings

> <PUBCHEM_HEAVY_ATOM_COUNT>
30

> <PUBCHEM_ATOM_DEF_STEREO_COUNT>
0

> <PUBCHEM_ATOM_UDEF_STEREO_COUNT>
1

> <PUBCHEM_BOND_DEF_STEREO_COUNT>
0

> <PUBCHEM_BOND_UDEF_STEREO_COUNT>
0

> <PUBCHEM_ISOTOPIC_ATOM_COUNT>
0

> <PUBCHEM_COMPONENT_COUNT>
1

> <PUBCHEM_CACTVS_TAUTO_COUNT>
1

> <PUBCHEM_CONFORMER_ID>
0001ED9B00000001

> <PUBCHEM_MMFF94_ENERGY>
61.4687

> <PUBCHEM_FEATURE_SELFOVERLAP>
50.807

> <PUBCHEM_SHAPE_FINGERPRINT>
10190206 1 18261681484395420356
104564 63 18342166782861383627
10670039 82 18411698803391394462
10871710 139 18410012143674223079
11479125 193 16661781070340261581
11578080 2 17130456547358588198
12035759 4 18114456872624431004
12788726 201 18410285943686813534
13583140 156 16663170578122322042
14068700 675 18059283396596716301
14289585 56 17242731983903220806
14840074 17 18335709295559049501
15274700 242 18113329834640692688
16752209 62 18341324574361301402
17357779 13 18129370656553561678
19319366 153 18263927639799288723
20775438 99 16399117814216170671
21236236 1 18343018904604758874
22121540 332 17049422463356555137
22620623 9 17846779628401567806
238 59 17042019288737834973
3027735 51 18343310275176083334
3052486 1 18412818084094055933
469060 322 18186794777686991253
5171179 24 17702090572634438280
563151 74 13841928479393374364
6438718 38 18273497879175338183
7237137 82 18272653476078842580

> <PUBCHEM_SHAPE_MULTIPOLES>
583.7
10.6
4.4
2
11.23
0.34
-0.25
1.94
-3.38
-4.78
0.16
-0.74
-0.32
-2.74

> <PUBCHEM_SHAPE_SELFOVERLAP>
1219.958

> <PUBCHEM_SHAPE_VOLUME>
330.4

> <PUBCHEM_COORDINATE_TYPE>
2
5
10

$$$$
