126382
  -OEChem-03292013323D

 27 28  0     1  0  0  0  0  0999 V2000
    3.9763    2.2626    1.1329 I  -2  0  0  0  0  0  0  0  0  0  0  0
    1.3448    0.3169    0.9004 O   0  0  0  0  0  0  0  0  0  0  0  0
    0.8970   -0.2332   -2.0473 O   0  0  0  0  0  0  0  0  0  0  0  0
    2.0399   -2.6801    0.3341 O   0  0  0  0  0  0  0  0  0  0  0  0
   -3.8939   -0.9195    0.9676 O   0  5  0  0  0  0  0  0  0  0  0  0
   -2.1386   -1.9507    0.1389 O   0  0  0  0  0  0  0  0  0  0  0  0
   -0.8484    0.5915    0.0165 N   0  0  0  0  0  0  0  0  0  0  0  0
   -2.9028    1.4150   -0.2403 N   0  0  0  0  0  0  0  0  0  0  0  0
   -2.7643   -0.8858    0.4035 N   0  3  0  0  0  0  0  0  0  0  0  0
    0.7765   -1.0977   -0.9249 C   0  0  1  0  0  0  0  0  0  0  0  0
    2.1580   -1.4886   -0.4404 C   0  0  1  0  0  0  0  0  0  0  0  0
    0.2287   -0.3531    0.2890 C   0  0  1  0  0  0  0  0  0  0  0  0
    2.5613   -0.3301    0.4740 C   0  0  1  0  0  0  0  0  0  0  0  0
    3.4257    0.7126   -0.2210 C   0  0  0  0  0  0  0  0  0  0  0  0
   -2.1978    0.3490    0.0670 C   0  0  0  0  0  0  0  0  0  0  0  0
   -0.6921    1.9036   -0.3488 C   0  0  0  0  0  0  0  0  0  0  0  0
   -1.9702    2.3876   -0.5011 C   0  0  0  0  0  0  0  0  0  0  0  0
    0.1467   -1.9463   -1.2064 H   0  0  0  0  0  0  0  0  0  0  0  0
   -0.1186   -1.0514    1.0575 H   0  0  0  0  0  0  0  0  0  0  0  0
    2.8763   -1.6721   -1.2455 H   0  0  0  0  0  0  0  0  0  0  0  0
    3.0645   -0.7017    1.3748 H   0  0  0  0  0  0  0  0  0  0  0  0
    2.8876    1.1708   -1.0575 H   0  0  0  0  0  0  0  0  0  0  0  0
    4.3295    0.2437   -0.6248 H   0  0  0  0  0  0  0  0  0  0  0  0
    1.3095   -0.7433   -2.7650 H   0  0  0  0  0  0  0  0  0  0  0  0
    2.9267   -2.8986    0.6679 H   0  0  0  0  0  0  0  0  0  0  0  0
    0.2779    2.3649   -0.4708 H   0  0  0  0  0  0  0  0  0  0  0  0
   -2.2661    3.3865   -0.7866 H   0  0  0  0  0  0  0  0  0  0  0  0
  1 14  1  0  0  0  0
  2 12  1  0  0  0  0
  2 13  1  0  0  0  0
  3 10  1  0  0  0  0
  3 24  1  0  0  0  0
  4 11  1  0  0  0  0
  4 25  1  0  0  0  0
  5  9  1  0  0  0  0
  6  9  2  0  0  0  0
  7 12  1  0  0  0  0
  7 15  1  0  0  0  0
  7 16  1  0  0  0  0
  8 15  2  0  0  0  0
  8 17  1  0  0  0  0
  9 15  1  0  0  0  0
 10 11  1  0  0  0  0
 10 12  1  0  0  0  0
 10 18  1  0  0  0  0
 11 13  1  0  0  0  0
 11 20  1  0  0  0  0
 12 19  1  0  0  0  0
 13 14  1  0  0  0  0
 13 21  1  0  0  0  0
 14 22  1  0  0  0  0
 14 23  1  0  0  0  0
 16 17  2  0  0  0  0
 16 26  1  0  0  0  0
 17 27  1  0  0  0  0
M  CHG  2   5  -1   9   1
M  ISO  1   1 125
M  END
> <PUBCHEM_COMPOUND_CID>
126382

> <PUBCHEM_CONFORMER_RMSD>
0.6

> <PUBCHEM_CONFORMER_DIVERSEORDER>
2
23
15
10
16
9
17
13
11
21
3
25
7
19
12
4
20
24
5
14
6
18
8
1
22

> <PUBCHEM_MMFF94_PARTIAL_CHARGES>
21
1 -0.19
10 0.28
11 0.28
12 0.54
13 0.28
14 0.19
15 0.27
16 -0.3
17 0.08
2 -0.56
24 0.4
25 0.4
26 0.15
27 0.15
3 -0.68
4 -0.68
5 -0.52
6 -0.52
7 0.05
8 -0.57
9 0.96

> <PUBCHEM_EFFECTIVE_ROTOR_COUNT>
4

> <PUBCHEM_PHARMACOPHORE_FEATURES>
11
1 1 hydrophobe
1 2 acceptor
1 3 acceptor
1 3 donor
1 4 acceptor
1 4 donor
1 5 acceptor
1 6 acceptor
4 7 8 9 15 cation
5 2 10 11 12 13 rings
5 7 8 15 16 17 rings

> <PUBCHEM_HEAVY_ATOM_COUNT>
17

> <PUBCHEM_ATOM_DEF_STEREO_COUNT>
4

> <PUBCHEM_ATOM_UDEF_STEREO_COUNT>
0

> <PUBCHEM_BOND_DEF_STEREO_COUNT>
0

> <PUBCHEM_BOND_UDEF_STEREO_COUNT>
0

> <PUBCHEM_ISOTOPIC_ATOM_COUNT>
1

> <PUBCHEM_COMPONENT_COUNT>
1

> <PUBCHEM_CACTVS_TAUTO_COUNT>
1

> <PUBCHEM_CONFORMER_ID>
0001EDAE00000002

> <PUBCHEM_MMFF94_ENERGY>
40.5631

> <PUBCHEM_FEATURE_SELFOVERLAP>
55.903

> <PUBCHEM_SHAPE_FINGERPRINT>
10608611 8 18339074887391963720
107287 299 17847063276763482038
10922049 32 18270965756142896720
11132069 177 18266738159055256880
12500047 106 17972316213783752380
12507560 14 17327725211445096282
14026960 21 18339635771756454536
14223421 5 18409164381417417008
14648413 74 18196647398267321000
15219456 202 18341612585903397704
15375462 6 18409729547615979254
16945 1 18340757234571150888
17804303 29 17902800651948663126
18175812 5 18413103940169770556
18380122 1 18412263951745579008
21501502 16 18340483348701438483
21524375 3 18200869708039378968
23227448 37 17693653024041522192
23419403 2 16953914730039825197
23557571 272 18335433364888875613
23559900 14 18194111928738256162
2748010 2 18337674109583127189
6049 1 18340497646821737692
7364860 26 18268705018380968794
74978 22 18048879597956218104
81228 2 18113912520027198393
9709674 26 18196087746775248407
9925002 15 17476915122582673356

> <PUBCHEM_SHAPE_MULTIPOLES>
317.5
6.35
2.67
1.11
1.02
0.1
-0.28
2.35
2.16
0.74
0.01
0.22
-0.03
1.17

> <PUBCHEM_SHAPE_SELFOVERLAP>
646.839

> <PUBCHEM_SHAPE_VOLUME>
189.4

> <PUBCHEM_COORDINATE_TYPE>
2
5
10

$$$$
