126341
  -OEChem-03292013323D

 22 22  0     0  0  0  0  0  0999 V2000
    4.0071    0.7776   -0.5369 S   0  0  0  0  0  0  0  0  0  0  0  0
    5.0923   -0.0764    0.9885 S   0  0  0  0  0  0  0  0  0  0  0  0
    1.3641    0.8585   -0.9960 O   0  0  0  0  0  0  0  0  0  0  0  0
   -4.5404    0.4170    1.0692 O   0  5  0  0  0  0  0  0  0  0  0  0
   -4.3887   -1.4562   -0.0708 O   0  0  0  0  0  0  0  0  0  0  0  0
    2.0643   -0.2494    0.9206 O   0  0  0  0  0  0  0  0  0  0  0  0
   -3.8960   -0.3848    0.3532 N   0  3  0  0  0  0  0  0  0  0  0  0
    0.0789    0.5546   -0.6665 C   0  0  0  0  0  0  0  0  0  0  0  0
   -2.5555   -0.0669    0.0092 C   0  0  0  0  0  0  0  0  0  0  0  0
   -0.6624    1.4292    0.1283 C   0  0  0  0  0  0  0  0  0  0  0  0
   -0.4972   -0.6308   -1.1235 C   0  0  0  0  0  0  0  0  0  0  0  0
   -1.9795    1.1184    0.4661 C   0  0  0  0  0  0  0  0  0  0  0  0
   -1.8145   -0.9415   -0.7856 C   0  0  0  0  0  0  0  0  0  0  0  0
    2.3374    0.3874   -0.0912 C   0  0  0  0  0  0  0  0  0  0  0  0
    5.3901   -1.7367    0.3355 C   0  0  0  0  0  0  0  0  0  0  0  0
   -0.2194    2.3543    0.4869 H   0  0  0  0  0  0  0  0  0  0  0  0
    0.0749   -1.3159   -1.7433 H   0  0  0  0  0  0  0  0  0  0  0  0
   -2.5262    1.8235    1.0871 H   0  0  0  0  0  0  0  0  0  0  0  0
   -2.2296   -1.8739   -1.1598 H   0  0  0  0  0  0  0  0  0  0  0  0
    5.9731   -2.3065    1.0643 H   0  0  0  0  0  0  0  0  0  0  0  0
    5.9598   -1.6878   -0.5963 H   0  0  0  0  0  0  0  0  0  0  0  0
    4.4453   -2.2607    0.1679 H   0  0  0  0  0  0  0  0  0  0  0  0
  1  2  1  0  0  0  0
  1 14  1  0  0  0  0
  2 15  1  0  0  0  0
  3  8  1  0  0  0  0
  3 14  1  0  0  0  0
  4  7  1  0  0  0  0
  5  7  2  0  0  0  0
  6 14  2  0  0  0  0
  7  9  1  0  0  0  0
  8 10  2  0  0  0  0
  8 11  1  0  0  0  0
  9 12  2  0  0  0  0
  9 13  1  0  0  0  0
 10 12  1  0  0  0  0
 10 16  1  0  0  0  0
 11 13  2  0  0  0  0
 11 17  1  0  0  0  0
 12 18  1  0  0  0  0
 13 19  1  0  0  0  0
 15 20  1  0  0  0  0
 15 21  1  0  0  0  0
 15 22  1  0  0  0  0
M  CHG  2   4  -1   7   1
M  END
> <PUBCHEM_COMPOUND_CID>
126341

> <PUBCHEM_CONFORMER_RMSD>
0.6

> <PUBCHEM_CONFORMER_DIVERSEORDER>
1
41
60
84
80
91
59
87
68
15
43
23
6
12
79
72
58
65
67
40
14
46
74
69
90
50
28
27
42
3
56
53
88
51
38
57
86
54
22
63
83
71
49
2
8
10
81
21
73
76
75
19
85
39
34
62
29
82
64
9
31
35
16
55
5
33
66
17
78
52
47
32
36
18
7
24
70
44
13
45
89
4
37
77
11
26
20
30
25
48
61

> <PUBCHEM_MMFF94_PARTIAL_CHARGES>
19
1 -0.14
10 -0.15
11 -0.15
12 -0.15
13 -0.15
14 0.86
15 0.23
16 0.15
17 0.15
18 0.15
19 0.15
2 -0.23
3 -0.23
4 -0.52
5 -0.52
6 -0.57
7 0.91
8 0.08
9 0.13

> <PUBCHEM_EFFECTIVE_ROTOR_COUNT>
5

> <PUBCHEM_PHARMACOPHORE_FEATURES>
5
1 15 hydrophobe
1 4 acceptor
1 4 anion
1 5 acceptor
6 8 9 10 11 12 13 rings

> <PUBCHEM_HEAVY_ATOM_COUNT>
15

> <PUBCHEM_ATOM_DEF_STEREO_COUNT>
0

> <PUBCHEM_ATOM_UDEF_STEREO_COUNT>
0

> <PUBCHEM_BOND_DEF_STEREO_COUNT>
0

> <PUBCHEM_BOND_UDEF_STEREO_COUNT>
0

> <PUBCHEM_ISOTOPIC_ATOM_COUNT>
0

> <PUBCHEM_COMPONENT_COUNT>
1

> <PUBCHEM_CACTVS_TAUTO_COUNT>
1

> <PUBCHEM_CONFORMER_ID>
0001ED8500000001

> <PUBCHEM_MMFF94_ENERGY>
35.7336

> <PUBCHEM_FEATURE_SELFOVERLAP>
25.452

> <PUBCHEM_SHAPE_FINGERPRINT>
10014705 185 10879698902010783410
11132069 177 17131837585661158405
12119455 92 15482675662722116133
12251169 10 17917710227432147484
12596602 18 17846494850969923746
13551218 46 18341331094037559374
1420 369 18260827086266493922
14350574 20 17530685386473121826
14420673 8 17767408981413639750
14911166 2 11891330976220357477
14943859 89 13254797940638806636
17870717 6 13912604922593697666
1813 80 17895199866279703038
187816 3 11963387444776491277
19422 9 18334860502673096588
200 152 17095238124953876580
20112054 13 14117514350948405036
20645477 56 15985100821339412896
20645477 70 17240480308844026686
20871999 31 13190330249560845542
21119208 17 9079119959797669600
22854114 59 15985388893285540068
2297311 6 17988936556926555980
23402539 116 17489581264701448557
23402655 69 7853588893467811479
23559900 14 11963387458384281084
2838139 119 12678641671752904459
42 15 18342458127899579454
5104073 3 18201725101598476409

> <PUBCHEM_SHAPE_MULTIPOLES>
287.93
10.74
1.39
1.05
6.3
0.23
0.03
3.81
-3.62
0.27
0.03
0.19
-0.02
-0.7

> <PUBCHEM_SHAPE_SELFOVERLAP>
566.827

> <PUBCHEM_SHAPE_VOLUME>
174.4

> <PUBCHEM_COORDINATE_TYPE>
2
5
10

$$$$
