126456021
  -OEChem-03292013293D

 70 70  0     1  0  0  0  0  0999 V2000
   -6.0865    1.1421    1.1603 O   0  0  0  0  0  0  0  0  0  0  0  0
   -6.0275    2.1210   -1.6616 O   0  0  0  0  0  0  0  0  0  0  0  0
   -6.9204   -1.5880    1.2412 O   0  0  0  0  0  0  0  0  0  0  0  0
   -4.2070   -0.8295    1.9372 O   0  0  0  0  0  0  0  0  0  0  0  0
    5.3404    2.8866    0.6306 O   0  0  0  0  0  0  0  0  0  0  0  0
    2.8362    3.6525    1.2491 O   0  0  0  0  0  0  0  0  0  0  0  0
    5.4482    1.1131   -0.8647 N   0  0  0  0  0  0  0  0  0  0  0  0
   -6.2293    0.3545   -0.0240 C   0  0  1  0  0  0  0  0  0  0  0  0
   -5.3821    0.9402   -1.1745 C   0  0  2  0  0  0  0  0  0  0  0  0
   -5.9558   -1.1218    0.3002 C   0  0  1  0  0  0  0  0  0  0  0  0
    6.8678   -0.4895    0.4266 C   0  0  1  0  0  0  0  0  0  0  0  0
    6.8088    0.6792   -0.5788 C   0  0  0  0  0  0  0  0  0  0  0  0
   -3.9363    1.2145   -0.8329 C   0  0  0  0  0  0  0  0  0  0  0  0
   -4.6072   -1.4206    0.9366 C   0  0  0  0  0  0  0  0  0  0  0  0
    6.5193   -0.0370    1.8498 C   0  0  0  0  0  0  0  0  0  0  0  0
    6.0660   -1.6740   -0.0748 C   0  0  0  0  0  0  0  0  0  0  0  0
   -3.3601    2.4219   -0.7077 C   0  0  0  0  0  0  0  0  0  0  0  0
   -3.7997   -2.4972    0.2939 C   0  0  0  0  0  0  0  0  0  0  0  0
    4.8081   -1.9785    0.2819 C   0  0  0  0  0  0  0  0  0  0  0  0
   -1.9637    2.5917   -0.3576 C   0  0  0  0  0  0  0  0  0  0  0  0
    4.8186    2.1525   -0.2009 C   0  0  0  0  0  0  0  0  0  0  0  0
   -1.2911    3.7545   -0.2313 C   0  0  0  0  0  0  0  0  0  0  0  0
   -2.4784   -2.5623    0.5040 C   0  0  0  0  0  0  0  0  0  0  0  0
    4.0638   -3.0847   -0.2784 C   0  0  0  0  0  0  0  0  0  0  0  0
    3.3833    2.2625   -0.5986 C   0  0  0  0  0  0  0  0  0  0  0  0
    0.1075    3.7780    0.1958 C   0  0  0  0  0  0  0  0  0  0  0  0
   -1.6338   -3.5562   -0.1260 C   0  0  0  0  0  0  0  0  0  0  0  0
   -1.8661    5.1313   -0.4373 C   0  0  0  0  0  0  0  0  0  0  0  0
    2.4802    2.9718    0.0997 C   0  0  0  0  0  0  0  0  0  0  0  0
    2.7512   -3.2528   -0.0524 C   0  0  0  0  0  0  0  0  0  0  0  0
    1.0777    2.9895   -0.2981 C   0  0  0  0  0  0  0  0  0  0  0  0
    0.6365   -4.4891   -0.6340 C   0  0  0  0  0  0  0  0  0  0  0  0
   -0.2950   -3.5482   -0.0106 C   0  0  0  0  0  0  0  0  0  0  0  0
    1.9783   -4.3315   -0.6366 C   0  0  0  0  0  0  0  0  0  0  0  0
    0.0481   -5.6964   -1.3260 C   0  0  0  0  0  0  0  0  0  0  0  0
   -7.2900    0.4438   -0.2904 H   0  0  0  0  0  0  0  0  0  0  0  0
   -5.3895    0.2351   -2.0148 H   0  0  0  0  0  0  0  0  0  0  0  0
   -6.0830   -1.7099   -0.6157 H   0  0  0  0  0  0  0  0  0  0  0  0
    7.9138   -0.8234    0.4696 H   0  0  0  0  0  0  0  0  0  0  0  0
    7.3877    1.5321   -0.2070 H   0  0  0  0  0  0  0  0  0  0  0  0
    7.2442    0.3731   -1.5370 H   0  0  0  0  0  0  0  0  0  0  0  0
   -3.3160    0.3322   -0.6969 H   0  0  0  0  0  0  0  0  0  0  0  0
    5.4998    0.3513    1.9313 H   0  0  0  0  0  0  0  0  0  0  0  0
    7.2019    0.7553    2.1762 H   0  0  0  0  0  0  0  0  0  0  0  0
    6.6184   -0.8688    2.5563 H   0  0  0  0  0  0  0  0  0  0  0  0
    6.5673   -2.2894   -0.8204 H   0  0  0  0  0  0  0  0  0  0  0  0
   -5.1702    1.0654    1.4739 H   0  0  0  0  0  0  0  0  0  0  0  0
   -6.9060    1.8629   -1.9893 H   0  0  0  0  0  0  0  0  0  0  0  0
    4.9329    0.5744   -1.5549 H   0  0  0  0  0  0  0  0  0  0  0  0
   -6.8380   -2.5560    1.2914 H   0  0  0  0  0  0  0  0  0  0  0  0
   -3.9635    3.3111   -0.8483 H   0  0  0  0  0  0  0  0  0  0  0  0
   -4.3106   -3.1814   -0.3750 H   0  0  0  0  0  0  0  0  0  0  0  0
    4.2804   -1.3505    0.9940 H   0  0  0  0  0  0  0  0  0  0  0  0
   -1.4330    1.6606   -0.1577 H   0  0  0  0  0  0  0  0  0  0  0  0
   -1.9889   -1.8393    1.1517 H   0  0  0  0  0  0  0  0  0  0  0  0
    4.6022   -3.7708   -0.9277 H   0  0  0  0  0  0  0  0  0  0  0  0
    3.0784    1.7097   -1.4840 H   0  0  0  0  0  0  0  0  0  0  0  0
    0.3456    4.5113    0.9635 H   0  0  0  0  0  0  0  0  0  0  0  0
   -2.1385   -4.3089   -0.7250 H   0  0  0  0  0  0  0  0  0  0  0  0
   -2.8740    5.1263   -0.8577 H   0  0  0  0  0  0  0  0  0  0  0  0
   -1.9081    5.6739    0.5137 H   0  0  0  0  0  0  0  0  0  0  0  0
   -1.2409    5.7044   -1.1318 H   0  0  0  0  0  0  0  0  0  0  0  0
    2.2359   -2.5373    0.5803 H   0  0  0  0  0  0  0  0  0  0  0  0
    0.8178    2.2923   -1.0946 H   0  0  0  0  0  0  0  0  0  0  0  0
    0.1442   -2.7535    0.5867 H   0  0  0  0  0  0  0  0  0  0  0  0
    2.5775   -5.0825   -1.1518 H   0  0  0  0  0  0  0  0  0  0  0  0
   -0.5671   -5.3933   -2.1801 H   0  0  0  0  0  0  0  0  0  0  0  0
   -0.5679   -6.2789   -0.6320 H   0  0  0  0  0  0  0  0  0  0  0  0
    0.8199   -6.3728   -1.7105 H   0  0  0  0  0  0  0  0  0  0  0  0
    3.7842    3.5419    1.4212 H   0  0  0  0  0  0  0  0  0  0  0  0
  1  8  1  0  0  0  0
  1 47  1  0  0  0  0
  2  9  1  0  0  0  0
  2 48  1  0  0  0  0
  3 10  1  0  0  0  0
  3 50  1  0  0  0  0
  4 14  2  0  0  0  0
  5 21  2  0  0  0  0
  6 29  1  0  0  0  0
  6 70  1  0  0  0  0
  7 12  1  0  0  0  0
  7 21  1  0  0  0  0
  7 49  1  0  0  0  0
  8  9  1  0  0  0  0
  8 10  1  0  0  0  0
  8 36  1  0  0  0  0
  9 13  1  0  0  0  0
  9 37  1  0  0  0  0
 10 14  1  0  0  0  0
 10 38  1  0  0  0  0
 11 12  1  0  0  0  0
 11 15  1  0  0  0  0
 11 16  1  0  0  0  0
 11 39  1  0  0  0  0
 12 40  1  0  0  0  0
 12 41  1  0  0  0  0
 13 17  2  0  0  0  0
 13 42  1  0  0  0  0
 14 18  1  0  0  0  0
 15 43  1  0  0  0  0
 15 44  1  0  0  0  0
 15 45  1  0  0  0  0
 16 19  2  0  0  0  0
 16 46  1  0  0  0  0
 17 20  1  0  0  0  0
 17 51  1  0  0  0  0
 18 23  2  0  0  0  0
 18 52  1  0  0  0  0
 19 24  1  0  0  0  0
 19 53  1  0  0  0  0
 20 22  2  0  0  0  0
 20 54  1  0  0  0  0
 21 25  1  0  0  0  0
 22 26  1  0  0  0  0
 22 28  1  0  0  0  0
 23 27  1  0  0  0  0
 23 55  1  0  0  0  0
 24 30  2  0  0  0  0
 24 56  1  0  0  0  0
 25 29  2  0  0  0  0
 25 57  1  0  0  0  0
 26 31  2  0  0  0  0
 26 58  1  0  0  0  0
 27 33  2  0  0  0  0
 27 59  1  0  0  0  0
 28 60  1  0  0  0  0
 28 61  1  0  0  0  0
 28 62  1  0  0  0  0
 29 31  1  0  0  0  0
 30 34  1  0  0  0  0
 30 63  1  0  0  0  0
 31 64  1  0  0  0  0
 32 33  1  0  0  0  0
 32 34  2  0  0  0  0
 32 35  1  0  0  0  0
 33 65  1  0  0  0  0
 34 66  1  0  0  0  0
 35 67  1  0  0  0  0
 35 68  1  0  0  0  0
 35 69  1  0  0  0  0
M  END
> <PUBCHEM_COMPOUND_CID>
126456021

> <PUBCHEM_CONFORMER_RMSD>
0.8

> <PUBCHEM_CONFORMER_DIVERSEORDER>
4
26
46
34
18
27
24
44
29
43
21
20
36
40
23
31
17
35
38
6
22
37
41
25
28
3
11
15
42
5
30
16
13
19
2
12
32
45
1
7
9
33
39
14
8
10

> <PUBCHEM_MMFF94_PARTIAL_CHARGES>
54
1 -0.68
10 0.34
11 0.14
12 0.3
13 -0.29
14 0.49
16 -0.29
17 -0.15
18 -0.14
19 -0.15
2 -0.68
20 -0.15
21 0.62
22 -0.14
23 -0.15
24 -0.15
25 -0.14
26 -0.15
27 -0.15
28 0.14
29 0.08
3 -0.68
30 -0.15
31 -0.15
32 -0.14
33 -0.15
34 -0.15
35 0.14
4 -0.57
42 0.15
46 0.15
47 0.4
48 0.4
49 0.37
5 -0.57
50 0.4
51 0.15
52 0.15
53 0.15
54 0.15
55 0.15
56 0.15
57 0.15
58 0.15
59 0.15
6 -0.53
63 0.15
64 0.15
65 0.15
66 0.15
7 -0.73
70 0.45
8 0.28
9 0.42

> <PUBCHEM_EFFECTIVE_ROTOR_COUNT>
1.2

> <PUBCHEM_PHARMACOPHORE_FEATURES>
10
1 1 acceptor
1 1 donor
1 2 acceptor
1 2 donor
1 3 acceptor
1 3 donor
1 4 acceptor
1 5 acceptor
1 6 donor
1 7 donor

> <PUBCHEM_HEAVY_ATOM_COUNT>
35

> <PUBCHEM_ATOM_DEF_STEREO_COUNT>
0

> <PUBCHEM_ATOM_UDEF_STEREO_COUNT>
4

> <PUBCHEM_BOND_DEF_STEREO_COUNT>
9

> <PUBCHEM_BOND_UDEF_STEREO_COUNT>
0

> <PUBCHEM_ISOTOPIC_ATOM_COUNT>
0

> <PUBCHEM_COMPONENT_COUNT>
1

> <PUBCHEM_CACTVS_TAUTO_COUNT>
1001

> <PUBCHEM_CONFORMER_ID>
078990D500000004

> <PUBCHEM_MMFF94_ENERGY>
69.1778

> <PUBCHEM_FEATURE_SELFOVERLAP>
50.763

> <PUBCHEM_SHAPE_FINGERPRINT>
10049733 57 18335150756510206715
10439779 11 17981604085426389066
10462674 296 17403733845125993614
11763389 116 18411984650370733334
11828042 226 18410855469894567935
12677640 9 18052540168671783287
12857493 111 17690843359231383926
12925494 130 18194966476859501418
13165054 342 17975427016290833292
1361 2 18266736871176698778
14017578 170 18129089195200887991
14040222 75 18340784662565159174
14068700 686 18196371424990904678
15150950 15 17608397931156451639
15320291 9 17474662858975641190
15320467 1 18410855443280810054
15406563 47 18043245743694789281
15781502 409 17968660527096545683
15781502 589 18263918848650801506
15968369 153 18343011199512694044
15968369 26 17976513054078342380
22019808 53 18260550082715242091
325973 47 18050569538986374422
373842 8 18337390435799711534
437795 96 18408605880944950819
636783 231 18409174294402195412

> <PUBCHEM_SHAPE_MULTIPOLES>
680.09
18.69
8.47
1.21
2.93
2.85
-0.25
-1.89
-3.18
1.36
2.01
-0.59
0.11
2.24

> <PUBCHEM_SHAPE_SELFOVERLAP>
1367.535

> <PUBCHEM_SHAPE_VOLUME>
392.4

> <PUBCHEM_COORDINATE_TYPE>
2
5
10

$$$$
