126428
  -OEChem-03292013323D

 55 55  0     1  0  0  0  0  0999 V2000
   -3.3097    0.7897   -2.1758 P   0  0  2  0  0  0  0  0  0  0  0  0
   -3.5380    1.5556   -0.7473 O   0  0  0  0  0  0  0  0  0  0  0  0
   -2.8658   -0.6899   -1.6383 O   0  0  0  0  0  0  0  0  0  0  0  0
   -2.1342    1.4367   -2.8774 O   0  5  0  0  0  0  0  0  0  0  0  0
   -4.6413    0.6541   -2.8838 O   0  0  0  0  0  0  0  0  0  0  0  0
    0.9523   -1.6512    1.1981 O   0  0  0  0  0  0  0  0  0  0  0  0
    1.9116   -3.5510    0.2289 O   0  0  0  0  0  0  0  0  0  0  0  0
    4.7429    1.8558   -2.4287 O   0  5  0  0  0  0  0  0  0  0  0  0
    6.0360    1.5851   -0.6755 O   0  0  0  0  0  0  0  0  0  0  0  0
   -1.6493    2.5990    2.2515 N   0  3  0  0  0  0  0  0  0  0  0  0
    4.9555    1.3906   -1.2830 N   0  3  0  0  0  0  0  0  0  0  0  0
   -2.8276    2.1616    1.4610 C   0  0  0  0  0  0  0  0  0  0  0  0
   -2.0411    2.8648    3.7113 C   0  0  0  0  0  0  0  0  0  0  0  0
   -1.0552    3.8905    1.6735 C   0  0  0  0  0  0  0  0  0  0  0  0
   -0.5554    1.5226    2.2391 C   0  0  0  0  0  0  0  0  0  0  0  0
   -2.4094    1.9389    0.0210 C   0  0  0  0  0  0  0  0  0  0  0  0
   -1.9396   -2.5850    0.3387 C   0  0  0  0  0  0  0  0  0  0  0  0
   -3.1596   -2.8049   -0.5538 C   0  0  0  0  0  0  0  0  0  0  0  0
   -1.3126   -3.9175    0.7603 C   0  0  0  0  0  0  0  0  0  0  0  0
   -3.8148   -1.4874   -0.9439 C   0  0  0  0  0  0  0  0  0  0  0  0
   -0.0711   -3.7278    1.6316 C   0  0  0  0  0  0  0  0  0  0  0  0
    1.0530   -3.0116    0.9139 C   0  0  0  0  0  0  0  0  0  0  0  0
    1.9495   -0.8929    0.5804 C   0  0  0  0  0  0  0  0  0  0  0  0
    1.7361   -0.3653   -0.6931 C   0  0  0  0  0  0  0  0  0  0  0  0
    3.1589   -0.6641    1.2366 C   0  0  0  0  0  0  0  0  0  0  0  0
    2.7322    0.3912   -1.3104 C   0  0  0  0  0  0  0  0  0  0  0  0
    4.1550    0.0925    0.6192 C   0  0  0  0  0  0  0  0  0  0  0  0
    3.9417    0.6202   -0.6543 C   0  0  0  0  0  0  0  0  0  0  0  0
   -3.6064    2.9310    1.5294 H   0  0  0  0  0  0  0  0  0  0  0  0
   -3.2318    1.2419    1.9015 H   0  0  0  0  0  0  0  0  0  0  0  0
   -1.1514    3.1807    4.2639 H   0  0  0  0  0  0  0  0  0  0  0  0
   -2.4436    1.9371    4.1286 H   0  0  0  0  0  0  0  0  0  0  0  0
   -2.7999    3.6527    3.7211 H   0  0  0  0  0  0  0  0  0  0  0  0
   -0.5361    3.6779    0.7358 H   0  0  0  0  0  0  0  0  0  0  0  0
   -0.3285    4.2806    2.3936 H   0  0  0  0  0  0  0  0  0  0  0  0
   -1.8657    4.6111    1.5307 H   0  0  0  0  0  0  0  0  0  0  0  0
    0.2044    1.8013    2.9764 H   0  0  0  0  0  0  0  0  0  0  0  0
   -0.0884    1.4802    1.2531 H   0  0  0  0  0  0  0  0  0  0  0  0
   -1.0089    0.5644    2.5087 H   0  0  0  0  0  0  0  0  0  0  0  0
   -1.6646    1.1448   -0.0712 H   0  0  0  0  0  0  0  0  0  0  0  0
   -2.0209    2.8432   -0.4518 H   0  0  0  0  0  0  0  0  0  0  0  0
   -1.2051   -1.9848   -0.2076 H   0  0  0  0  0  0  0  0  0  0  0  0
   -2.2278   -2.0159    1.2308 H   0  0  0  0  0  0  0  0  0  0  0  0
   -3.8939   -3.4359   -0.0404 H   0  0  0  0  0  0  0  0  0  0  0  0
   -2.8435   -3.3337   -1.4613 H   0  0  0  0  0  0  0  0  0  0  0  0
   -2.0487   -4.5120    1.3141 H   0  0  0  0  0  0  0  0  0  0  0  0
   -1.0412   -4.4896   -0.1354 H   0  0  0  0  0  0  0  0  0  0  0  0
   -4.6721   -1.6794   -1.5963 H   0  0  0  0  0  0  0  0  0  0  0  0
   -4.1622   -0.9507   -0.0552 H   0  0  0  0  0  0  0  0  0  0  0  0
   -0.3185   -3.1882    2.5535 H   0  0  0  0  0  0  0  0  0  0  0  0
    0.3145   -4.7039    1.9491 H   0  0  0  0  0  0  0  0  0  0  0  0
    0.7949   -0.5381   -1.2080 H   0  0  0  0  0  0  0  0  0  0  0  0
    3.3300   -1.0721    2.2290 H   0  0  0  0  0  0  0  0  0  0  0  0
    2.5303    0.7871   -2.3024 H   0  0  0  0  0  0  0  0  0  0  0  0
    5.0844    0.2504    1.1605 H   0  0  0  0  0  0  0  0  0  0  0  0
  1  2  1  0  0  0  0
  1  3  1  0  0  0  0
  1  4  1  0  0  0  0
  1  5  2  0  0  0  0
  2 16  1  0  0  0  0
  3 20  1  0  0  0  0
  6 22  1  0  0  0  0
  6 23  1  0  0  0  0
  7 22  2  0  0  0  0
  8 11  1  0  0  0  0
  9 11  2  0  0  0  0
 10 12  1  0  0  0  0
 10 13  1  0  0  0  0
 10 14  1  0  0  0  0
 10 15  1  0  0  0  0
 11 28  1  0  0  0  0
 12 16  1  0  0  0  0
 12 29  1  0  0  0  0
 12 30  1  0  0  0  0
 13 31  1  0  0  0  0
 13 32  1  0  0  0  0
 13 33  1  0  0  0  0
 14 34  1  0  0  0  0
 14 35  1  0  0  0  0
 14 36  1  0  0  0  0
 15 37  1  0  0  0  0
 15 38  1  0  0  0  0
 15 39  1  0  0  0  0
 16 40  1  0  0  0  0
 16 41  1  0  0  0  0
 17 18  1  0  0  0  0
 17 19  1  0  0  0  0
 17 42  1  0  0  0  0
 17 43  1  0  0  0  0
 18 20  1  0  0  0  0
 18 44  1  0  0  0  0
 18 45  1  0  0  0  0
 19 21  1  0  0  0  0
 19 46  1  0  0  0  0
 19 47  1  0  0  0  0
 20 48  1  0  0  0  0
 20 49  1  0  0  0  0
 21 22  1  0  0  0  0
 21 50  1  0  0  0  0
 21 51  1  0  0  0  0
 23 24  2  0  0  0  0
 23 25  1  0  0  0  0
 24 26  1  0  0  0  0
 24 52  1  0  0  0  0
 25 27  2  0  0  0  0
 25 53  1  0  0  0  0
 26 28  2  0  0  0  0
 26 54  1  0  0  0  0
 27 28  1  0  0  0  0
 27 55  1  0  0  0  0
M  CHG  4   4  -1   8  -1  10   1  11   1
M  END
> <PUBCHEM_COMPOUND_CID>
126428

> <PUBCHEM_CONFORMER_RMSD>
1.4

> <PUBCHEM_CONFORMER_DIVERSEORDER>
1
7
57
8
48
24
14
37
46
39
44
42
28
22
31
33
27
30
15
11
5
32
23
47
54
50
36
40
12
53
2
51
20
55
43
56
34
41
16
49
29
52
45
26
4
17
3
18
58
6
13
38
9
21
10
25
35
19

> <PUBCHEM_MMFF94_PARTIAL_CHARGES>
29
1 1.44
10 -1.01
11 0.91
12 0.5
13 0.5
14 0.5
15 0.5
16 0.28
2 -0.55
20 0.28
21 0.06
22 0.66
23 0.08
24 -0.15
25 -0.15
26 -0.15
27 -0.15
28 0.13
3 -0.55
4 -0.95
5 -0.95
52 0.15
53 0.15
54 0.15
55 0.15
6 -0.23
7 -0.57
8 -0.52
9 -0.52

> <PUBCHEM_EFFECTIVE_ROTOR_COUNT>
14

> <PUBCHEM_PHARMACOPHORE_FEATURES>
9
1 10 cation
1 4 acceptor
1 5 acceptor
1 7 acceptor
1 8 acceptor
1 8 anion
1 9 acceptor
4 17 18 19 21 hydrophobe
6 23 24 25 26 27 28 rings

> <PUBCHEM_HEAVY_ATOM_COUNT>
28

> <PUBCHEM_ATOM_DEF_STEREO_COUNT>
0

> <PUBCHEM_ATOM_UDEF_STEREO_COUNT>
0

> <PUBCHEM_BOND_DEF_STEREO_COUNT>
0

> <PUBCHEM_BOND_UDEF_STEREO_COUNT>
0

> <PUBCHEM_ISOTOPIC_ATOM_COUNT>
0

> <PUBCHEM_COMPONENT_COUNT>
1

> <PUBCHEM_CACTVS_TAUTO_COUNT>
1

> <PUBCHEM_CONFORMER_ID>
0001EDDC00000001

> <PUBCHEM_MMFF94_ENERGY>
66.9721

> <PUBCHEM_FEATURE_SELFOVERLAP>
45.764

> <PUBCHEM_SHAPE_FINGERPRINT>
12156800 1 16903629575487851179
12539773 59 17624940908746962911
12788726 201 18341337794006979050
13947920 24 18116994596879574048
14114206 34 18130212788430632661
14289585 56 16895966734998209190
14468879 13 17168982284309184661
14932702 115 18117835731854208405
20531524 4 17979608441324259681
20764821 26 18197471074305431211
21315764 21 17467319268216946469
27425 322 17841744857332129544
3459 110 10666080384446214726
460360 51 17895204307413640706
469060 322 17532394117288632387
59755656 520 18124906519634391344

> <PUBCHEM_SHAPE_MULTIPOLES>
523.16
9.24
5.21
3.11
9.71
2.28
0.17
-4.35
7.02
-3.15
-4.18
-2.46
-2.74
-2.82

> <PUBCHEM_SHAPE_SELFOVERLAP>
1028.81

> <PUBCHEM_SHAPE_VOLUME>
315.7

> <PUBCHEM_COORDINATE_TYPE>
2
5
10

$$$$
