126469
  -OEChem-03292013323D

 36 37  0     1  0  0  0  0  0999 V2000
   -3.2885   -1.5768    0.1581 O   0  0  0  0  0  0  0  0  0  0  0  0
    3.0406    0.0133   -0.4347 O   0  0  0  0  0  0  0  0  0  0  0  0
   -5.2720   -2.6897    0.3946 O   0  0  0  0  0  0  0  0  0  0  0  0
    5.3443    1.8010    0.2878 O   0  0  0  0  0  0  0  0  0  0  0  0
    1.4097   -1.5707   -0.1880 O   0  0  0  0  0  0  0  0  0  0  0  0
    6.2106    0.2101    1.6596 O   0  0  0  0  0  0  0  0  0  0  0  0
    0.9014    0.7142   -0.3352 N   0  0  0  0  0  0  0  0  0  0  0  0
    6.4340   -1.4487   -0.5679 N   0  0  0  0  0  0  0  0  0  0  0  0
   -3.3009    0.8581   -0.0385 C   0  0  0  0  0  0  0  0  0  0  0  0
   -2.6073   -0.3521    0.0083 C   0  0  0  0  0  0  0  0  0  0  0  0
   -4.7657    0.8344    0.0715 C   0  0  0  0  0  0  0  0  0  0  0  0
   -0.4894    0.7577   -0.2373 C   0  0  0  0  0  0  0  0  0  0  0  0
   -1.2163   -0.4187   -0.0886 C   0  0  0  0  0  0  0  0  0  0  0  0
   -2.5503    2.0320   -0.1886 C   0  0  0  0  0  0  0  0  0  0  0  0
   -1.1552    1.9812   -0.2871 C   0  0  0  0  0  0  0  0  0  0  0  0
    5.4162   -0.3991   -0.5740 C   0  0  1  0  0  0  0  0  0  0  0  0
    4.0309   -1.0214   -0.4229 C   0  0  0  0  0  0  0  0  0  0  0  0
   -5.3870   -0.3450    0.2129 C   0  0  0  0  0  0  0  0  0  0  0  0
   -5.5406    2.1190    0.0245 C   0  0  0  0  0  0  0  0  0  0  0  0
   -4.6695   -1.6299    0.2643 C   0  0  0  0  0  0  0  0  0  0  0  0
    1.7404   -0.3974   -0.3070 C   0  0  0  0  0  0  0  0  0  0  0  0
    5.7146    0.5286    0.5882 C   0  0  0  0  0  0  0  0  0  0  0  0
   -0.7722   -1.4033   -0.0415 H   0  0  0  0  0  0  0  0  0  0  0  0
   -3.0289    3.0069   -0.2321 H   0  0  0  0  0  0  0  0  0  0  0  0
   -0.6010    2.9097   -0.4027 H   0  0  0  0  0  0  0  0  0  0  0  0
    5.4888    0.1702   -1.5078 H   0  0  0  0  0  0  0  0  0  0  0  0
    3.8342   -1.7121   -1.2523 H   0  0  0  0  0  0  0  0  0  0  0  0
    3.9553   -1.5690    0.5254 H   0  0  0  0  0  0  0  0  0  0  0  0
   -6.4682   -0.3998    0.2970 H   0  0  0  0  0  0  0  0  0  0  0  0
   -5.3767    2.6377   -0.9261 H   0  0  0  0  0  0  0  0  0  0  0  0
   -5.2462    2.7811    0.8458 H   0  0  0  0  0  0  0  0  0  0  0  0
   -6.6191    1.9492    0.1177 H   0  0  0  0  0  0  0  0  0  0  0  0
    1.3668    1.6125   -0.4415 H   0  0  0  0  0  0  0  0  0  0  0  0
    7.3498   -1.0380   -0.7466 H   0  0  0  0  0  0  0  0  0  0  0  0
    6.2605   -2.0977   -1.3346 H   0  0  0  0  0  0  0  0  0  0  0  0
    5.5248    2.4186    1.0282 H   0  0  0  0  0  0  0  0  0  0  0  0
  1 10  1  0  0  0  0
  1 20  1  0  0  0  0
  2 17  1  0  0  0  0
  2 21  1  0  0  0  0
  3 20  2  0  0  0  0
  4 22  1  0  0  0  0
  4 36  1  0  0  0  0
  5 21  2  0  0  0  0
  6 22  2  0  0  0  0
  7 12  1  0  0  0  0
  7 21  1  0  0  0  0
  7 33  1  0  0  0  0
  8 16  1  0  0  0  0
  8 34  1  0  0  0  0
  8 35  1  0  0  0  0
  9 10  2  0  0  0  0
  9 11  1  0  0  0  0
  9 14  1  0  0  0  0
 10 13  1  0  0  0  0
 11 18  2  0  0  0  0
 11 19  1  0  0  0  0
 12 13  2  0  0  0  0
 12 15  1  0  0  0  0
 13 23  1  0  0  0  0
 14 15  2  0  0  0  0
 14 24  1  0  0  0  0
 15 25  1  0  0  0  0
 16 17  1  0  0  0  0
 16 22  1  0  0  0  0
 16 26  1  0  0  0  0
 17 27  1  0  0  0  0
 17 28  1  0  0  0  0
 18 20  1  0  0  0  0
 18 29  1  0  0  0  0
 19 30  1  0  0  0  0
 19 31  1  0  0  0  0
 19 32  1  0  0  0  0
M  END
> <PUBCHEM_COMPOUND_CID>
126469

> <PUBCHEM_CONFORMER_RMSD>
0.8

> <PUBCHEM_CONFORMER_DIVERSEORDER>
1
62
110
53
28
44
78
80
56
103
87
39
41
93
72
37
88
108
22
60
75
84
43
45
29
61
9
58
33
107
81
57
104
25
15
101
83
27
85
54
40
79
49
97
70
86
21
98
63
17
50
65
31
76
90
36
109
2
10
92
66
32
64
16
48
94
5
74
73
30
19
38
91
96
4
102
89
111
55
11
42
69
68
59
6
100
77
3
106
95
8
20
71
18
46
67
51
13
99
14
7
52
26
47
23
82
12
34
24
35
105

> <PUBCHEM_MMFF94_PARTIAL_CHARGES>
30
1 -0.23
10 0.08
11 -0.17
12 0.12
13 -0.15
14 -0.15
15 -0.15
16 0.33
17 0.28
18 -0.14
19 0.14
2 -0.43
20 0.71
21 0.78
22 0.66
23 0.15
24 0.15
25 0.15
29 0.15
3 -0.57
33 0.37
34 0.36
35 0.36
36 0.5
4 -0.65
5 -0.57
6 -0.57
7 -0.55
8 -0.99
9 0.03

> <PUBCHEM_EFFECTIVE_ROTOR_COUNT>
6

> <PUBCHEM_PHARMACOPHORE_FEATURES>
10
1 3 acceptor
1 4 acceptor
1 5 acceptor
1 6 acceptor
1 7 donor
1 8 cation
1 8 donor
3 4 6 22 anion
6 1 9 10 11 18 20 rings
6 9 10 12 13 14 15 rings

> <PUBCHEM_HEAVY_ATOM_COUNT>
22

> <PUBCHEM_ATOM_DEF_STEREO_COUNT>
1

> <PUBCHEM_ATOM_UDEF_STEREO_COUNT>
0

> <PUBCHEM_BOND_DEF_STEREO_COUNT>
0

> <PUBCHEM_BOND_UDEF_STEREO_COUNT>
0

> <PUBCHEM_ISOTOPIC_ATOM_COUNT>
0

> <PUBCHEM_COMPONENT_COUNT>
1

> <PUBCHEM_CACTVS_TAUTO_COUNT>
2

> <PUBCHEM_CONFORMER_ID>
0001EE0500000001

> <PUBCHEM_MMFF94_ENERGY>
55.7992

> <PUBCHEM_FEATURE_SELFOVERLAP>
50.83

> <PUBCHEM_SHAPE_FINGERPRINT>
10411042 1 18193280913577217691
11045977 3 18272087201662394296
11287383 113 18342458149427137472
11315181 36 18341338824645993033
11524674 6 17060338509218239743
11578080 2 13685199483248150825
12166972 35 17530970189764930428
12236239 1 17603871087292519908
12516196 113 18202563981810542897
12616971 3 17095816468038289421
12838862 33 18335125468259809997
13288520 33 18409733963269685991
13533116 47 17023177185864120762
13668630 136 14057003789513366760
1420 363 18342461434887247446
14251732 16 18340206383804476520
14251764 18 18272938228600773465
14341114 176 18342461434977216960
14933364 13 18342179968906666196
15183329 4 8574440828587865828
15196674 1 18410296925454030885
17349148 13 17168150026952713236
1768 85 17416391276908876808
17844677 252 18343310245258836176
18222031 100 17458348533492680060
19489759 90 18040154006732522520
21033648 29 17560504140953341832
21267235 1 18335148613680299579
21315759 40 14548728474582230556
220451 1 17822294548354909002
23081809 10 17530970189479670998
23402539 116 18259984872827645199
23559900 14 18412819209893115001
239999 70 18272093773716848342
300161 21 18335416825317724957
3004659 81 18113344111333660004
335352 9 18408605851940210245
34797466 226 17846510265749941148
3545911 37 18337675209305751628
4073 2 18260555536663967866
4214541 1 18409452466522941109
5104073 3 18270401581580679154
531348 171 10881393253761635817
542803 24 13973964307453966956
559249 180 18261112954994676871
67856867 119 18187652469634516012

> <PUBCHEM_SHAPE_MULTIPOLES>
407.57
17.13
2.2
0.78
18.78
0.18
-0.16
1.79
-2.59
-2.83
-0.05
0.89
-0.03
1.08

> <PUBCHEM_SHAPE_SELFOVERLAP>
865.351

> <PUBCHEM_SHAPE_VOLUME>
225.5

> <PUBCHEM_COORDINATE_TYPE>
2
5
10

$$$$
