126448
  -OEChem-03292013323D

 39 40  0     0  0  0  0  0  0999 V2000
   -5.5114   -0.0424   -0.2035 S   0  0  0  0  0  0  0  0  0  0  0  0
   -6.0181   -1.3768   -0.5007 O   0  0  0  0  0  0  0  0  0  0  0  0
   -6.0002    1.1004   -0.9658 O   0  0  0  0  0  0  0  0  0  0  0  0
    6.5058    0.0043    0.0197 N   0  0  0  0  0  0  0  0  0  0  0  0
   -5.6936    0.2584    1.4834 N   0  0  0  0  0  0  0  0  0  0  0  0
    0.4040   -0.1199   -0.6690 N   0  0  0  0  0  0  0  0  0  0  0  0
    0.9244    0.0810    0.4535 N   0  0  0  0  0  0  0  0  0  0  0  0
   -7.0504    0.3523    1.7246 N   0  0  0  0  0  0  0  0  0  0  0  0
   -3.7711   -0.0650   -0.3410 C   0  0  0  0  0  0  0  0  0  0  0  0
    5.0996    0.0239    0.1287 C   0  0  0  0  0  0  0  0  0  0  0  0
   -3.0767    1.1150   -0.6081 C   0  0  0  0  0  0  0  0  0  0  0  0
   -3.0748   -1.2634   -0.1832 C   0  0  0  0  0  0  0  0  0  0  0  0
   -0.9969   -0.1015   -0.5592 C   0  0  0  0  0  0  0  0  0  0  0  0
    4.4041    1.2226   -0.0299 C   0  0  0  0  0  0  0  0  0  0  0  0
    4.4044   -1.1557    0.3954 C   0  0  0  0  0  0  0  0  0  0  0  0
    2.3185    0.0625    0.3448 C   0  0  0  0  0  0  0  0  0  0  0  0
   -1.6863    1.0967   -0.7176 C   0  0  0  0  0  0  0  0  0  0  0  0
   -1.6844   -1.2816   -0.2926 C   0  0  0  0  0  0  0  0  0  0  0  0
    3.0136    1.2419    0.0782 C   0  0  0  0  0  0  0  0  0  0  0  0
    3.0139   -1.1364    0.5034 C   0  0  0  0  0  0  0  0  0  0  0  0
    7.2866    1.1693    0.3856 C   0  0  0  0  0  0  0  0  0  0  0  0
    7.1891   -1.1858   -0.4466 C   0  0  0  0  0  0  0  0  0  0  0  0
   -3.5973    2.0610   -0.7276 H   0  0  0  0  0  0  0  0  0  0  0  0
   -3.5945   -2.1928    0.0318 H   0  0  0  0  0  0  0  0  0  0  0  0
    4.9139    2.1564   -0.2499 H   0  0  0  0  0  0  0  0  0  0  0  0
    4.9156   -2.1037    0.5367 H   0  0  0  0  0  0  0  0  0  0  0  0
   -1.1529    2.0206   -0.9249 H   0  0  0  0  0  0  0  0  0  0  0  0
   -1.1494   -2.2192   -0.1673 H   0  0  0  0  0  0  0  0  0  0  0  0
    2.4802    2.1805   -0.0488 H   0  0  0  0  0  0  0  0  0  0  0  0
    2.4809   -2.0599    0.7147 H   0  0  0  0  0  0  0  0  0  0  0  0
    7.2696    1.9153   -0.4159 H   0  0  0  0  0  0  0  0  0  0  0  0
    8.3344    0.9030    0.5646 H   0  0  0  0  0  0  0  0  0  0  0  0
    6.9158    1.6265    1.3099 H   0  0  0  0  0  0  0  0  0  0  0  0
    8.2024   -0.9500   -0.7908 H   0  0  0  0  0  0  0  0  0  0  0  0
    6.6674   -1.6419   -1.2956 H   0  0  0  0  0  0  0  0  0  0  0  0
    7.2782   -1.9228    0.3583 H   0  0  0  0  0  0  0  0  0  0  0  0
   -5.2687   -0.4286    2.1205 H   0  0  0  0  0  0  0  0  0  0  0  0
   -7.1468    0.6518    2.6941 H   0  0  0  0  0  0  0  0  0  0  0  0
   -7.4222   -0.5965    1.6865 H   0  0  0  0  0  0  0  0  0  0  0  0
  1  2  2  0  0  0  0
  1  3  2  0  0  0  0
  1  5  1  0  0  0  0
  1  9  1  0  0  0  0
  4 10  1  0  0  0  0
  4 21  1  0  0  0  0
  4 22  1  0  0  0  0
  5  8  1  0  0  0  0
  5 37  1  0  0  0  0
  6  7  2  0  0  0  0
  6 13  1  0  0  0  0
  7 16  1  0  0  0  0
  8 38  1  0  0  0  0
  8 39  1  0  0  0  0
  9 11  2  0  0  0  0
  9 12  1  0  0  0  0
 10 14  2  0  0  0  0
 10 15  1  0  0  0  0
 11 17  1  0  0  0  0
 11 23  1  0  0  0  0
 12 18  2  0  0  0  0
 12 24  1  0  0  0  0
 13 17  2  0  0  0  0
 13 18  1  0  0  0  0
 14 19  1  0  0  0  0
 14 25  1  0  0  0  0
 15 20  2  0  0  0  0
 15 26  1  0  0  0  0
 16 19  2  0  0  0  0
 16 20  1  0  0  0  0
 17 27  1  0  0  0  0
 18 28  1  0  0  0  0
 19 29  1  0  0  0  0
 20 30  1  0  0  0  0
 21 31  1  0  0  0  0
 21 32  1  0  0  0  0
 21 33  1  0  0  0  0
 22 34  1  0  0  0  0
 22 35  1  0  0  0  0
 22 36  1  0  0  0  0
M  END
> <PUBCHEM_COMPOUND_CID>
126448

> <PUBCHEM_CONFORMER_RMSD>
0.8

> <PUBCHEM_CONFORMER_DIVERSEORDER>
1
2
3

> <PUBCHEM_MMFF94_PARTIAL_CHARGES>
33
1 1.45
10 0.1
11 -0.15
12 -0.15
13 0.18
14 -0.15
15 -0.15
16 0.18
17 -0.15
18 -0.15
19 -0.15
2 -0.65
20 -0.15
21 0.37
22 0.37
23 0.15
24 0.15
25 0.15
26 0.15
27 0.15
28 0.15
29 0.15
3 -0.65
30 0.15
37 0.42
38 0.36
39 0.36
4 -0.84
5 -0.63
6 -0.18
7 -0.18
8 -0.65
9 -0.01

> <PUBCHEM_EFFECTIVE_ROTOR_COUNT>
5

> <PUBCHEM_PHARMACOPHORE_FEATURES>
6
1 2 acceptor
1 3 acceptor
1 4 cation
1 5 donor
6 10 14 15 16 19 20 rings
6 9 11 12 13 17 18 rings

> <PUBCHEM_HEAVY_ATOM_COUNT>
22

> <PUBCHEM_ATOM_DEF_STEREO_COUNT>
0

> <PUBCHEM_ATOM_UDEF_STEREO_COUNT>
0

> <PUBCHEM_BOND_DEF_STEREO_COUNT>
0

> <PUBCHEM_BOND_UDEF_STEREO_COUNT>
0

> <PUBCHEM_ISOTOPIC_ATOM_COUNT>
0

> <PUBCHEM_COMPONENT_COUNT>
1

> <PUBCHEM_CACTVS_TAUTO_COUNT>
1

> <PUBCHEM_CONFORMER_ID>
0001EDF000000001

> <PUBCHEM_MMFF94_ENERGY>
60.3674

> <PUBCHEM_FEATURE_SELFOVERLAP>
30.463

> <PUBCHEM_SHAPE_FINGERPRINT>
10 15 17894907469312421672
10299344 5 18272371979221074546
106641 1 18409737287954201107
10968037 39 18187080663526497583
11089746 13 16415474960822499243
11315181 36 18060418045599658955
11524674 6 16845570945935558199
12091667 2 18040713667495252335
12236239 1 18342175587327822316
12516196 113 18272365391115749984
12730499 353 18040716953219398898
13073987 5 17968651615112602528
13533116 47 14117527506591411254
13914758 101 14908187416961805827
14170010 4 18335136514863123212
1420 363 17530686510794353800
14251752 14 15267346197331172970
14251764 18 18202845473834961526
14251764 46 16805321102391745685
14341114 176 18335422370073232732
14617045 38 18334014978078726274
14933364 13 18410291415380281148
15183329 4 18343016666568088627
17093844 174 17676201369521573653
19489759 90 15626222421067426963
20281389 69 18343018891588410560
21130935 74 18060136552916364158
21267235 1 18334861602174044964
220451 1 18131627885443532878
22224240 67 13551191109102228576
2297311 6 18409167692863667276
23035841 295 18410291406827302234
23402539 116 18341040879160422317
23522609 53 18197804230270965513
23559900 14 18339632451466899992
29717793 49 17561088008183367244
3004659 81 18335415769030174112
3009799 131 12823297879557555955
328311 84 18260834778484362242
34797466 226 18273217513255004692
3545911 37 18335135393322361780
4073 2 17967816102456225754
4214541 1 18408880728929223716
4340502 62 16153702120992518682
4463277 17 18335416868172575860
5104073 3 17968651597336927169
542803 24 17632576050106561217
59682541 35 18041286547418369737
59755656 215 18261109647764649774
59755656 520 15482381010891230509

> <PUBCHEM_SHAPE_MULTIPOLES>
419.96
20.93
1.4
0.97
4.27
0.07
-0.27
-0.59
-3.02
0.55
0.13
-1.47
-0.09
0.14

> <PUBCHEM_SHAPE_SELFOVERLAP>
874.422

> <PUBCHEM_SHAPE_VOLUME>
241.4

> <PUBCHEM_COORDINATE_TYPE>
2
5
10

$$$$
