126417
  -OEChem-03292013323D

 48 51  0     1  0  0  0  0  0999 V2000
    2.6149   -0.6746   -0.2613 O   0  0  0  0  0  0  0  0  0  0  0  0
    2.2901    0.9896    1.4132 O   0  0  0  0  0  0  0  0  0  0  0  0
    0.3896    0.8367   -0.8344 O   0  0  0  0  0  0  0  0  0  0  0  0
    2.6401   -3.8003   -0.2858 O   0  0  0  0  0  0  0  0  0  0  0  0
    4.9847    1.8482    0.7646 O   0  0  0  0  0  0  0  0  0  0  0  0
    2.4842    2.1040   -1.7737 O   0  0  0  0  0  0  0  0  0  0  0  0
   -5.8663    0.7359   -0.0596 O   0  0  0  0  0  0  0  0  0  0  0  0
   -0.3386   -2.4894    0.8142 N   0  0  0  0  0  0  0  0  0  0  0  0
    0.3390   -1.1867    0.6272 C   0  0  1  0  0  0  0  0  0  0  0  0
    1.7886   -1.6371    0.3804 C   0  0  1  0  0  0  0  0  0  0  0  0
    1.6173   -2.8472   -0.5314 C   0  0  2  0  0  0  0  0  0  0  0  0
   -0.3259   -0.3633   -0.5148 C   0  0  1  0  0  0  0  0  0  0  0  0
    3.2374    0.2271    0.6581 C   0  0  2  0  0  0  0  0  0  0  0  0
    1.8836    2.1172    0.6150 C   0  0  1  0  0  0  0  0  0  0  0  0
    0.2543   -3.4179   -0.1630 C   0  0  0  0  0  0  0  0  0  0  0  0
    4.0225    1.2738   -0.1139 C   0  0  1  0  0  0  0  0  0  0  0  0
    2.9679    2.3143   -0.4569 C   0  0  1  0  0  0  0  0  0  0  0  0
    0.4469    1.8696    0.1475 C   0  0  0  0  0  0  0  0  0  0  0  0
   -1.8155   -0.0679   -0.3923 C   0  0  0  0  0  0  0  0  0  0  0  0
   -2.5945    0.0371   -1.5398 C   0  0  0  0  0  0  0  0  0  0  0  0
   -2.3853    0.0945    0.8664 C   0  0  0  0  0  0  0  0  0  0  0  0
   -3.9583    0.3078   -1.4276 C   0  0  0  0  0  0  0  0  0  0  0  0
   -3.7491    0.3650    0.9787 C   0  0  0  0  0  0  0  0  0  0  0  0
   -4.5357    0.4716   -0.1685 C   0  0  0  0  0  0  0  0  0  0  0  0
   -6.3918    0.8920    1.2577 C   0  0  0  0  0  0  0  0  0  0  0  0
    0.3032   -0.6241    1.5649 H   0  0  0  0  0  0  0  0  0  0  0  0
    2.2590   -1.9624    1.3200 H   0  0  0  0  0  0  0  0  0  0  0  0
    1.6636   -2.5636   -1.5893 H   0  0  0  0  0  0  0  0  0  0  0  0
   -0.2281   -0.9703   -1.4250 H   0  0  0  0  0  0  0  0  0  0  0  0
    3.8757   -0.3329    1.3511 H   0  0  0  0  0  0  0  0  0  0  0  0
    1.8866    2.9753    1.2971 H   0  0  0  0  0  0  0  0  0  0  0  0
   -0.3813   -3.4645   -1.0547 H   0  0  0  0  0  0  0  0  0  0  0  0
    0.3103   -4.4243    0.2634 H   0  0  0  0  0  0  0  0  0  0  0  0
    4.5331    0.8588   -0.9886 H   0  0  0  0  0  0  0  0  0  0  0  0
    3.3677    3.3336   -0.4145 H   0  0  0  0  0  0  0  0  0  0  0  0
   -1.3453   -2.4259    0.6838 H   0  0  0  0  0  0  0  0  0  0  0  0
   -0.1799    1.6453    1.0142 H   0  0  0  0  0  0  0  0  0  0  0  0
    0.0574    2.7794   -0.3212 H   0  0  0  0  0  0  0  0  0  0  0  0
    2.4613   -4.5715   -0.8506 H   0  0  0  0  0  0  0  0  0  0  0  0
    5.4538    2.5408    0.2686 H   0  0  0  0  0  0  0  0  0  0  0  0
    1.8376    2.8047   -1.9638 H   0  0  0  0  0  0  0  0  0  0  0  0
   -2.1557   -0.0860   -2.5260 H   0  0  0  0  0  0  0  0  0  0  0  0
   -1.8018    0.0258    1.7785 H   0  0  0  0  0  0  0  0  0  0  0  0
   -4.5657    0.3904   -2.3248 H   0  0  0  0  0  0  0  0  0  0  0  0
   -4.1326    0.4827    1.9865 H   0  0  0  0  0  0  0  0  0  0  0  0
   -7.4627    1.0964    1.1564 H   0  0  0  0  0  0  0  0  0  0  0  0
   -5.9488    1.7539    1.7681 H   0  0  0  0  0  0  0  0  0  0  0  0
   -6.2961   -0.0301    1.8410 H   0  0  0  0  0  0  0  0  0  0  0  0
  1 10  1  0  0  0  0
  1 13  1  0  0  0  0
  2 13  1  0  0  0  0
  2 14  1  0  0  0  0
  3 12  1  0  0  0  0
  3 18  1  0  0  0  0
  4 11  1  0  0  0  0
  4 39  1  0  0  0  0
  5 16  1  0  0  0  0
  5 40  1  0  0  0  0
  6 17  1  0  0  0  0
  6 41  1  0  0  0  0
  7 24  1  0  0  0  0
  7 25  1  0  0  0  0
  8  9  1  0  0  0  0
  8 15  1  0  0  0  0
  8 36  1  0  0  0  0
  9 10  1  0  0  0  0
  9 12  1  0  0  0  0
  9 26  1  0  0  0  0
 10 11  1  0  0  0  0
 10 27  1  0  0  0  0
 11 15  1  0  0  0  0
 11 28  1  0  0  0  0
 12 19  1  0  0  0  0
 12 29  1  0  0  0  0
 13 16  1  0  0  0  0
 13 30  1  0  0  0  0
 14 17  1  0  0  0  0
 14 18  1  0  0  0  0
 14 31  1  0  0  0  0
 15 32  1  0  0  0  0
 15 33  1  0  0  0  0
 16 17  1  0  0  0  0
 16 34  1  0  0  0  0
 17 35  1  0  0  0  0
 18 37  1  0  0  0  0
 18 38  1  0  0  0  0
 19 20  2  0  0  0  0
 19 21  1  0  0  0  0
 20 22  1  0  0  0  0
 20 42  1  0  0  0  0
 21 23  2  0  0  0  0
 21 43  1  0  0  0  0
 22 24  2  0  0  0  0
 22 44  1  0  0  0  0
 23 24  1  0  0  0  0
 23 45  1  0  0  0  0
 25 46  1  0  0  0  0
 25 47  1  0  0  0  0
 25 48  1  0  0  0  0
M  END
> <PUBCHEM_COMPOUND_CID>
126417

> <PUBCHEM_CONFORMER_RMSD>
0.8

> <PUBCHEM_CONFORMER_DIVERSEORDER>
1
4
6
2
5
3

> <PUBCHEM_MMFF94_PARTIAL_CHARGES>
33
1 -0.56
10 0.28
11 0.28
12 0.42
13 0.56
14 0.28
15 0.27
16 0.28
17 0.28
18 0.28
19 -0.14
2 -0.56
20 -0.15
21 -0.15
22 -0.15
23 -0.15
24 0.08
25 0.28
3 -0.56
36 0.36
39 0.4
4 -0.68
40 0.4
41 0.4
42 0.15
43 0.15
44 0.15
45 0.15
5 -0.68
6 -0.68
7 -0.36
8 -0.9
9 0.27

> <PUBCHEM_EFFECTIVE_ROTOR_COUNT>
4

> <PUBCHEM_PHARMACOPHORE_FEATURES>
15
1 1 acceptor
1 2 acceptor
1 3 acceptor
1 4 acceptor
1 4 donor
1 5 acceptor
1 5 donor
1 6 acceptor
1 6 donor
1 7 acceptor
1 8 cation
1 8 donor
5 2 13 14 16 17 rings
5 8 9 10 11 15 rings
6 19 20 21 22 23 24 rings

> <PUBCHEM_HEAVY_ATOM_COUNT>
25

> <PUBCHEM_ATOM_DEF_STEREO_COUNT>
8

> <PUBCHEM_ATOM_UDEF_STEREO_COUNT>
0

> <PUBCHEM_BOND_DEF_STEREO_COUNT>
0

> <PUBCHEM_BOND_UDEF_STEREO_COUNT>
0

> <PUBCHEM_ISOTOPIC_ATOM_COUNT>
0

> <PUBCHEM_COMPONENT_COUNT>
1

> <PUBCHEM_CACTVS_TAUTO_COUNT>
1

> <PUBCHEM_CONFORMER_ID>
0001EDD100000001

> <PUBCHEM_MMFF94_ENERGY>
97.9124

> <PUBCHEM_FEATURE_SELFOVERLAP>
76.18

> <PUBCHEM_SHAPE_FINGERPRINT>
10165383 225 18334867146797729652
10411042 1 17834959672445895458
10906281 52 18128824225794161536
12035758 1 18263348245123193698
12107183 9 17623861124115006409
12236239 1 17846778503584379209
12553582 1 17981035311149713479
12633257 1 17458337589452156481
12730499 353 18410020935520017347
12788726 201 16916513549953059473
12895836 83 17825973673360354828
13009979 54 17343789170721427523
13140716 1 18336539542770014978
13533116 47 18343022143447956595
13583140 156 18201723994314558729
13631057 29 18056186111349879327
13836976 161 18334012821772742908
13955234 65 18338798914178922731
14790565 3 18338802324483649800
15342168 16 18335706078512026229
16752209 62 17906724053392569702
17138139 8 17554571331383125767
17844677 252 18196096547869807649
17913733 40 18341346577657925539
17980427 26 17415245534226609264
1813 80 17699016080377841327
20157964 124 18410289169745498605
20645477 70 18335134255024178915
20739085 24 18262241014974969024
21041028 32 18054224328189401961
21049683 271 18190756228188800750
21197605 99 18118132591958265435
21421861 104 18266739086741715377
22182313 1 17750224825592977925
22907989 373 17541378380911669487
23419403 2 17609542351241967058
23557571 272 13829548970384900709
23559900 14 18338516335827997139
238 59 17756941797455227958
335352 9 18410574007549453980
42630746 31 18410856547203352111
4340502 62 18409458003205193267
439807 62 11098726051551871097
458136 41 18409730668344227550
465052 167 17603302652534201008
474 4 18412824711518873993
5385378 56 18411700967780553314
59755656 215 18410295778682114141
633830 44 18059008513920460541
6443956 14 18194681471139318868
70251023 43 18052543162253133507
7364860 26 18340767035713219047
81228 2 16969961685450407418
8272917 22 18412547574522266917
9999458 23 15864067698103376240

> <PUBCHEM_SHAPE_MULTIPOLES>
468.42
9.92
3.35
1.26
13.39
3.32
-0.21
-5.93
1.73
-4.41
-0.18
0.63
-0.36
-0.15

> <PUBCHEM_SHAPE_SELFOVERLAP>
1008.717

> <PUBCHEM_SHAPE_VOLUME>
254.6

> <PUBCHEM_COORDINATE_TYPE>
2
5
10

$$$$
