126413
  -OEChem-03292013323D

 41 43  0     0  0  0  0  0  0999 V2000
   -5.8651    1.1077    0.0712 S   0  0  0  0  0  0  0  0  0  0  0  0
   -5.8250    2.2235   -1.1231 O   0  0  0  0  0  0  0  0  0  0  0  0
   -6.6871    0.0051   -0.4056 O   0  0  0  0  0  0  0  0  0  0  0  0
   -6.1872    1.7892    1.3153 O   0  0  0  0  0  0  0  0  0  0  0  0
    6.2353    2.2947    0.0880 O   0  0  0  0  0  0  0  0  0  0  0  0
    1.4876   -2.4268   -0.0794 N   0  0  0  0  0  0  0  0  0  0  0  0
    4.0259    1.6839   -0.4629 N   0  0  0  0  0  0  0  0  0  0  0  0
   -1.5816   -0.3931    0.4519 C   0  0  0  0  0  0  0  0  0  0  0  0
   -2.4801   -1.0359   -0.4328 C   0  0  0  0  0  0  0  0  0  0  0  0
    0.1613   -1.9613   -0.1975 C   0  0  0  0  0  0  0  0  0  0  0  0
   -0.2642   -0.8683    0.5579 C   0  0  0  0  0  0  0  0  0  0  0  0
   -3.7975   -0.5608   -0.5388 C   0  0  0  0  0  0  0  0  0  0  0  0
   -4.2229    0.5324    0.2166 C   0  0  0  0  0  0  0  0  0  0  0  0
   -2.0348   -2.1347   -1.1854 C   0  0  0  0  0  0  0  0  0  0  0  0
   -2.0270    0.7057    1.2045 C   0  0  0  0  0  0  0  0  0  0  0  0
   -0.7224   -2.5932   -1.0675 C   0  0  0  0  0  0  0  0  0  0  0  0
   -3.3393    1.1643    1.0865 C   0  0  0  0  0  0  0  0  0  0  0  0
    2.6512   -1.7298    0.1015 C   0  0  0  0  0  0  0  0  0  0  0  0
    2.7628   -0.3673   -0.2695 C   0  0  0  0  0  0  0  0  0  0  0  0
    3.9495    0.3426   -0.0862 C   0  0  0  0  0  0  0  0  0  0  0  0
    3.7980   -2.3393    0.6670 C   0  0  0  0  0  0  0  0  0  0  0  0
    5.0603   -0.2886    0.4739 C   0  0  0  0  0  0  0  0  0  0  0  0
    4.9845   -1.6296    0.8504 C   0  0  0  0  0  0  0  0  0  0  0  0
    5.1214    2.5511   -0.3573 C   0  0  0  0  0  0  0  0  0  0  0  0
    4.7965    3.9284   -0.8788 C   0  0  0  0  0  0  0  0  0  0  0  0
    0.4127   -0.3869    1.2616 H   0  0  0  0  0  0  0  0  0  0  0  0
   -4.4856   -1.0509   -1.2247 H   0  0  0  0  0  0  0  0  0  0  0  0
   -2.7079   -2.6441   -1.8719 H   0  0  0  0  0  0  0  0  0  0  0  0
   -1.3532    1.2164    1.8893 H   0  0  0  0  0  0  0  0  0  0  0  0
   -0.4018   -3.4452   -1.6617 H   0  0  0  0  0  0  0  0  0  0  0  0
   -3.6455    2.0220    1.6788 H   0  0  0  0  0  0  0  0  0  0  0  0
    1.5892   -3.4291   -0.2024 H   0  0  0  0  0  0  0  0  0  0  0  0
    1.9224    0.1420   -0.7377 H   0  0  0  0  0  0  0  0  0  0  0  0
    3.7586   -3.3846    0.9677 H   0  0  0  0  0  0  0  0  0  0  0  0
    6.0118    0.1943    0.6473 H   0  0  0  0  0  0  0  0  0  0  0  0
    5.8489   -2.1220    1.2868 H   0  0  0  0  0  0  0  0  0  0  0  0
    3.1743    2.0722   -0.8631 H   0  0  0  0  0  0  0  0  0  0  0  0
   -5.5511    1.8858   -2.0082 H   0  0  0  0  0  0  0  0  0  0  0  0
    4.5427    3.8706   -1.9410 H   0  0  0  0  0  0  0  0  0  0  0  0
    5.6619    4.5853   -0.7550 H   0  0  0  0  0  0  0  0  0  0  0  0
    3.9523    4.3463   -0.3232 H   0  0  0  0  0  0  0  0  0  0  0  0
  1  2  1  0  0  0  0
  1  3  2  0  0  0  0
  1  4  2  0  0  0  0
  1 13  1  0  0  0  0
  2 38  1  0  0  0  0
  5 24  2  0  0  0  0
  6 10  1  0  0  0  0
  6 18  1  0  0  0  0
  6 32  1  0  0  0  0
  7 20  1  0  0  0  0
  7 24  1  0  0  0  0
  7 37  1  0  0  0  0
  8  9  2  0  0  0  0
  8 11  1  0  0  0  0
  8 15  1  0  0  0  0
  9 12  1  0  0  0  0
  9 14  1  0  0  0  0
 10 11  2  0  0  0  0
 10 16  1  0  0  0  0
 11 26  1  0  0  0  0
 12 13  2  0  0  0  0
 12 27  1  0  0  0  0
 13 17  1  0  0  0  0
 14 16  2  0  0  0  0
 14 28  1  0  0  0  0
 15 17  2  0  0  0  0
 15 29  1  0  0  0  0
 16 30  1  0  0  0  0
 17 31  1  0  0  0  0
 18 19  2  0  0  0  0
 18 21  1  0  0  0  0
 19 20  1  0  0  0  0
 19 33  1  0  0  0  0
 20 22  2  0  0  0  0
 21 23  2  0  0  0  0
 21 34  1  0  0  0  0
 22 23  1  0  0  0  0
 22 35  1  0  0  0  0
 23 36  1  0  0  0  0
 24 25  1  0  0  0  0
 25 39  1  0  0  0  0
 25 40  1  0  0  0  0
 25 41  1  0  0  0  0
M  END
> <PUBCHEM_COMPOUND_CID>
126413

> <PUBCHEM_CONFORMER_RMSD>
0.8

> <PUBCHEM_CONFORMER_DIVERSEORDER>
6
40
23
36
2
29
20
15
1
5
12
39
31
16
18
21
33
28
35
17
7
34
10
3
22
38
24
13
26
14
8
19
11
32
9
37
4
25
30
27

> <PUBCHEM_MMFF94_PARTIAL_CHARGES>
36
1 1.49
10 0.1
11 -0.15
12 -0.15
13 -0.01
14 -0.15
15 -0.15
16 -0.15
17 -0.15
18 0.1
19 -0.15
2 -0.68
20 0.12
21 -0.15
22 -0.15
23 -0.15
24 0.57
25 0.06
26 0.15
27 0.15
28 0.15
29 0.15
3 -0.65
30 0.15
31 0.15
32 0.4
33 0.15
34 0.15
35 0.15
36 0.15
37 0.37
38 0.5
4 -0.65
5 -0.57
6 -0.6
7 -0.55

> <PUBCHEM_EFFECTIVE_ROTOR_COUNT>
5

> <PUBCHEM_PHARMACOPHORE_FEATURES>
11
1 2 acceptor
1 3 acceptor
1 4 acceptor
1 5 acceptor
1 6 cation
1 6 donor
1 7 donor
4 1 2 3 4 anion
6 18 19 20 21 22 23 rings
6 8 9 10 11 14 16 rings
6 8 9 12 13 15 17 rings

> <PUBCHEM_HEAVY_ATOM_COUNT>
25

> <PUBCHEM_ATOM_DEF_STEREO_COUNT>
0

> <PUBCHEM_ATOM_UDEF_STEREO_COUNT>
0

> <PUBCHEM_BOND_DEF_STEREO_COUNT>
0

> <PUBCHEM_BOND_UDEF_STEREO_COUNT>
0

> <PUBCHEM_ISOTOPIC_ATOM_COUNT>
0

> <PUBCHEM_COMPONENT_COUNT>
1

> <PUBCHEM_CACTVS_TAUTO_COUNT>
2

> <PUBCHEM_CONFORMER_ID>
0001EDCD00000006

> <PUBCHEM_MMFF94_ENERGY>
82.1521

> <PUBCHEM_FEATURE_SELFOVERLAP>
55.903

> <PUBCHEM_SHAPE_FINGERPRINT>
10411042 1 17904198123687970258
10763959 59 18191027802917078238
10906281 52 17846229809054837451
12107183 9 18339072684717611674
12166972 35 18199749133681253594
12236239 1 18341608166688537987
12422481 6 17676770877463068181
12760667 363 8502377715648987121
12788726 201 17632588127497043865
13878862 14 18189596320445701676
14117953 113 18270399378573653556
14251764 38 18264489473024822141
14251764 75 18338243777034749964
14429380 56 18334845101030948597
14739800 52 17914598691984372272
14767858 380 17988911272511710719
14790565 3 18343305825705645345
14931854 50 17988935487253242208
15142526 21 18187083992110737434
15342168 16 18410294722236171414
15840311 113 18336551517434365357
16760501 71 18335143115394069473
1768 23 17773339892687504897
17810953 82 18407762547527082852
19301679 30 17540801808362345946
19427546 20 18200026399463679943
20157964 124 18409167688447328450
20511986 3 18270668866359996128
20642791 239 17988365995547145528
20715895 44 18268144254212564157
21033648 144 18187639232328700558
21033648 29 16660354866414591951
21033650 10 15554186786532899434
21049683 271 18272649091692986169
21298829 104 18410855507959144068
21315764 268 18188204303995991940
22122407 14 18262246503885177657
22149856 69 17560813087564816043
22950370 63 8646479726643827071
23522609 53 17774177725375684857
23559900 14 17489574680321496282
23569914 2 17172598668042480613
245318 6 18116168824992818628
268830 7 18260816125336069566
270888 7 18338236080722166596
2838139 119 18261947441317790805
3004659 81 18201438035144434746
3103668 31 17830739747603611436
3472631 163 18343024414915989710
34797466 226 18202009806928897351
38570 142 18262819470461377726
397830 11 17968673695645070891
4340502 62 17822864065714818243
4409770 3 15674376249781397574
4461854 278 11963387445442286696
474 4 18408322185855302530
5104073 3 18040712610601573346
57724786 102 18259983812482400108
6034566 193 18200048338092720137
6058803 2 18194945548053671006
7288768 16 17895756339095777474
7970288 3 9223235134910028708
9981440 41 18120934164865707442

> <PUBCHEM_SHAPE_MULTIPOLES>
484.9
16.36
3.59
1.07
5.85
1.93
-0.04
13.46
-0.35
-4.94
0.98
0.63
0.07
-2.23

> <PUBCHEM_SHAPE_SELFOVERLAP>
1044.247

> <PUBCHEM_SHAPE_VOLUME>
266.4

> <PUBCHEM_COORDINATE_TYPE>
2
5
10

$$$$
