126419
  -OEChem-03292013323D

 65 68  0     1  0  0  0  0  0999 V2000
    0.3078   -1.8786   -0.3312 O   0  0  0  0  0  0  0  0  0  0  0  0
    0.7890   -0.0171    1.0765 O   0  0  0  0  0  0  0  0  0  0  0  0
   -1.2798    0.2641   -1.0038 O   0  0  0  0  0  0  0  0  0  0  0  0
   -0.7884   -4.7687    0.1350 O   0  0  0  0  0  0  0  0  0  0  0  0
    3.5215   -0.3043    0.1443 O   0  0  0  0  0  0  0  0  0  0  0  0
    1.0099    0.5387   -2.2519 O   0  0  0  0  0  0  0  0  0  0  0  0
    4.4647    0.5961   -1.7588 O   0  0  0  0  0  0  0  0  0  0  0  0
   -7.0293    2.5826    0.1424 O   0  0  0  0  0  0  0  0  0  0  0  0
   -2.9586   -2.3226    1.1874 N   0  0  0  0  0  0  0  0  0  0  0  0
   -1.8858   -1.3973    0.7584 C   0  0  1  0  0  0  0  0  0  0  0  0
   -0.7303   -2.3790    0.5012 C   0  0  1  0  0  0  0  0  0  0  0  0
   -1.4237   -3.5437   -0.1973 C   0  0  2  0  0  0  0  0  0  0  0  0
   -2.3363   -0.5361   -0.4580 C   0  0  1  0  0  0  0  0  0  0  0  0
    1.3102   -1.1639    0.3967 C   0  0  2  0  0  0  0  0  0  0  0  0
    0.7254    1.0716    0.1360 C   0  0  1  0  0  0  0  0  0  0  0  0
    2.3256   -0.5871   -0.5750 C   0  0  1  0  0  0  0  0  0  0  0  0
    1.6812    0.7180   -1.0152 C   0  0  1  0  0  0  0  0  0  0  0  0
   -2.8502   -3.5189    0.3356 C   0  0  0  0  0  0  0  0  0  0  0  0
   -0.7476    1.3166   -0.2018 C   0  0  0  0  0  0  0  0  0  0  0  0
   -3.5982    0.3021   -0.2965 C   0  0  0  0  0  0  0  0  0  0  0  0
   -3.9268    0.8203    0.9521 C   0  0  0  0  0  0  0  0  0  0  0  0
   -4.4119    0.5437   -1.3985 C   0  0  0  0  0  0  0  0  0  0  0  0
    4.5215    0.2942   -0.5748 C   0  0  0  0  0  0  0  0  0  0  0  0
    5.7079    0.5364    0.3318 C   0  0  0  0  0  0  0  0  0  0  0  0
   -5.0818    1.5883    1.1001 C   0  0  0  0  0  0  0  0  0  0  0  0
   -5.5668    1.3118   -1.2505 C   0  0  0  0  0  0  0  0  0  0  0  0
   -5.9018    1.8341   -0.0013 C   0  0  0  0  0  0  0  0  0  0  0  0
    6.8741    1.1852   -0.4161 C   0  0  0  0  0  0  0  0  0  0  0  0
    8.1285    1.3792    0.4550 C   0  0  0  0  0  0  0  0  0  0  0  0
    8.6282    0.0658    1.0584 C   0  0  0  0  0  0  0  0  0  0  0  0
    7.8345    2.3825    1.5729 C   0  0  0  0  0  0  0  0  0  0  0  0
   -7.3127    3.0861    1.4470 C   0  0  0  0  0  0  0  0  0  0  0  0
   -1.6129   -0.7489    1.5964 H   0  0  0  0  0  0  0  0  0  0  0  0
   -0.3049   -2.7349    1.4511 H   0  0  0  0  0  0  0  0  0  0  0  0
   -1.3980   -3.4320   -1.2875 H   0  0  0  0  0  0  0  0  0  0  0  0
   -2.5646   -1.2449   -1.2655 H   0  0  0  0  0  0  0  0  0  0  0  0
    1.7799   -1.8288    1.1304 H   0  0  0  0  0  0  0  0  0  0  0  0
    1.1110    1.9447    0.6752 H   0  0  0  0  0  0  0  0  0  0  0  0
    2.5374   -1.2768   -1.4005 H   0  0  0  0  0  0  0  0  0  0  0  0
    2.3739    1.5521   -1.1542 H   0  0  0  0  0  0  0  0  0  0  0  0
   -3.5562   -3.4382   -0.4989 H   0  0  0  0  0  0  0  0  0  0  0  0
   -3.1101   -4.4128    0.9110 H   0  0  0  0  0  0  0  0  0  0  0  0
   -3.8841   -1.9081    1.1079 H   0  0  0  0  0  0  0  0  0  0  0  0
   -0.8364    2.2398   -0.7840 H   0  0  0  0  0  0  0  0  0  0  0  0
   -1.3118    1.4500    0.7247 H   0  0  0  0  0  0  0  0  0  0  0  0
   -1.2930   -5.4832   -0.2899 H   0  0  0  0  0  0  0  0  0  0  0  0
    0.6261    1.3951   -2.5058 H   0  0  0  0  0  0  0  0  0  0  0  0
   -3.3080    0.6552    1.8278 H   0  0  0  0  0  0  0  0  0  0  0  0
   -4.1601    0.1445   -2.3772 H   0  0  0  0  0  0  0  0  0  0  0  0
    6.0015   -0.4374    0.7355 H   0  0  0  0  0  0  0  0  0  0  0  0
    5.3683    1.1810    1.1484 H   0  0  0  0  0  0  0  0  0  0  0  0
   -5.2821    1.9646    2.0974 H   0  0  0  0  0  0  0  0  0  0  0  0
   -6.2014    1.5003   -2.1121 H   0  0  0  0  0  0  0  0  0  0  0  0
    7.1402    0.5610   -1.2793 H   0  0  0  0  0  0  0  0  0  0  0  0
    6.5574    2.1522   -0.8277 H   0  0  0  0  0  0  0  0  0  0  0  0
    8.9195    1.7927   -0.1829 H   0  0  0  0  0  0  0  0  0  0  0  0
    8.7560   -0.6961    0.2825 H   0  0  0  0  0  0  0  0  0  0  0  0
    7.9503   -0.3278    1.8222 H   0  0  0  0  0  0  0  0  0  0  0  0
    9.6017    0.2175    1.5380 H   0  0  0  0  0  0  0  0  0  0  0  0
    7.4272    3.3148    1.1676 H   0  0  0  0  0  0  0  0  0  0  0  0
    7.1279    1.9897    2.3107 H   0  0  0  0  0  0  0  0  0  0  0  0
    8.7575    2.6317    2.1082 H   0  0  0  0  0  0  0  0  0  0  0  0
   -7.4878    2.2750    2.1620 H   0  0  0  0  0  0  0  0  0  0  0  0
   -6.5366    3.7796    1.7880 H   0  0  0  0  0  0  0  0  0  0  0  0
   -8.2441    3.6577    1.3777 H   0  0  0  0  0  0  0  0  0  0  0  0
  1 11  1  0  0  0  0
  1 14  1  0  0  0  0
  2 14  1  0  0  0  0
  2 15  1  0  0  0  0
  3 13  1  0  0  0  0
  3 19  1  0  0  0  0
  4 12  1  0  0  0  0
  4 46  1  0  0  0  0
  5 16  1  0  0  0  0
  5 23  1  0  0  0  0
  6 17  1  0  0  0  0
  6 47  1  0  0  0  0
  7 23  2  0  0  0  0
  8 27  1  0  0  0  0
  8 32  1  0  0  0  0
  9 10  1  0  0  0  0
  9 18  1  0  0  0  0
  9 43  1  0  0  0  0
 10 11  1  0  0  0  0
 10 13  1  0  0  0  0
 10 33  1  0  0  0  0
 11 12  1  0  0  0  0
 11 34  1  0  0  0  0
 12 18  1  0  0  0  0
 12 35  1  0  0  0  0
 13 20  1  0  0  0  0
 13 36  1  0  0  0  0
 14 16  1  0  0  0  0
 14 37  1  0  0  0  0
 15 17  1  0  0  0  0
 15 19  1  0  0  0  0
 15 38  1  0  0  0  0
 16 17  1  0  0  0  0
 16 39  1  0  0  0  0
 17 40  1  0  0  0  0
 18 41  1  0  0  0  0
 18 42  1  0  0  0  0
 19 44  1  0  0  0  0
 19 45  1  0  0  0  0
 20 21  2  0  0  0  0
 20 22  1  0  0  0  0
 21 25  1  0  0  0  0
 21 48  1  0  0  0  0
 22 26  2  0  0  0  0
 22 49  1  0  0  0  0
 23 24  1  0  0  0  0
 24 28  1  0  0  0  0
 24 50  1  0  0  0  0
 24 51  1  0  0  0  0
 25 27  2  0  0  0  0
 25 52  1  0  0  0  0
 26 27  1  0  0  0  0
 26 53  1  0  0  0  0
 28 29  1  0  0  0  0
 28 54  1  0  0  0  0
 28 55  1  0  0  0  0
 29 30  1  0  0  0  0
 29 31  1  0  0  0  0
 29 56  1  0  0  0  0
 30 57  1  0  0  0  0
 30 58  1  0  0  0  0
 30 59  1  0  0  0  0
 31 60  1  0  0  0  0
 31 61  1  0  0  0  0
 31 62  1  0  0  0  0
 32 63  1  0  0  0  0
 32 64  1  0  0  0  0
 32 65  1  0  0  0  0
M  END
> <PUBCHEM_COMPOUND_CID>
126419

> <PUBCHEM_CONFORMER_RMSD>
1

> <PUBCHEM_CONFORMER_DIVERSEORDER>
1
5
9
27
20
11
36
8
23
21
22
25
33
18
17
26
15
6
24
35
7
31
19
2
13
30
10
34
16
4
32
29
3
12
14
28

> <PUBCHEM_MMFF94_PARTIAL_CHARGES>
35
1 -0.56
10 0.27
11 0.28
12 0.28
13 0.42
14 0.56
15 0.28
16 0.28
17 0.28
18 0.27
19 0.28
2 -0.56
20 -0.14
21 -0.15
22 -0.15
23 0.66
24 0.06
25 -0.15
26 -0.15
27 0.08
3 -0.56
32 0.28
4 -0.68
43 0.36
46 0.4
47 0.4
48 0.15
49 0.15
5 -0.43
52 0.15
53 0.15
6 -0.68
7 -0.57
8 -0.36
9 -0.9

> <PUBCHEM_EFFECTIVE_ROTOR_COUNT>
9

> <PUBCHEM_PHARMACOPHORE_FEATURES>
15
1 1 acceptor
1 2 acceptor
1 3 acceptor
1 4 acceptor
1 4 donor
1 6 acceptor
1 6 donor
1 7 acceptor
1 8 acceptor
1 9 cation
1 9 donor
3 29 30 31 hydrophobe
5 2 14 15 16 17 rings
5 9 10 11 12 18 rings
6 20 21 22 25 26 27 rings

> <PUBCHEM_HEAVY_ATOM_COUNT>
32

> <PUBCHEM_ATOM_DEF_STEREO_COUNT>
8

> <PUBCHEM_ATOM_UDEF_STEREO_COUNT>
0

> <PUBCHEM_BOND_DEF_STEREO_COUNT>
0

> <PUBCHEM_BOND_UDEF_STEREO_COUNT>
0

> <PUBCHEM_ISOTOPIC_ATOM_COUNT>
0

> <PUBCHEM_COMPONENT_COUNT>
1

> <PUBCHEM_CACTVS_TAUTO_COUNT>
1

> <PUBCHEM_CONFORMER_ID>
0001EDD300000001

> <PUBCHEM_MMFF94_ENERGY>
107.9826

> <PUBCHEM_FEATURE_SELFOVERLAP>
76.177

> <PUBCHEM_SHAPE_FINGERPRINT>
10 15 17385446531536171220
10165383 225 18408322164570109989
10190206 1 18342446081149778935
10411042 1 17760649566015021523
10835480 77 18272931653048060720
10906281 52 18342749498022257813
11135609 187 18336820893662139813
11135609 201 18337671902661572705
11135926 11 17822278081846324762
11297750 10 17698435873620332171
11443803 9 18260824908908018291
11475781 23 18273222989074452684
11823591 26 18334857186963391389
12616971 3 16805604815579233006
12838862 33 18261945276660061341
13540713 5 17606694770823659532
14394314 77 18410855430444128041
14790565 3 18337399219013476957
15021287 119 16733263542808502460
15439362 3 18267586793322721575
17093844 174 18338512049497666770
17980427 23 17749957790449459798
1813 80 8141792924833435819
2026 5 8285664017482553016
20505436 4 17988078878043535183
20554085 129 18130495345279776771
21033648 29 18410860962002451691
21130935 74 18261950856497455090
21150785 3 13758071900948256096
21424621 283 18343023242163532121
21756936 100 18413107265033321471
23559900 14 18269294434234332598
249057 25 17459473445372850662
32027 91 18057343712415979030
350125 39 18263092157777134531
4073 2 18340767148241912922
4144715 1 18121499322421411960
4516262 110 18269271250217639477
5104073 3 17604999294035053012
5385378 56 18263087609079642643
57527295 17 17703215257661485279
5758199 1 18412826850586953017
58260988 521 13334737916863034776
6058803 2 17462864395019572454
636775 72 18343861134876259664
6669772 16 18339645533800718679
6698420 124 18270696255297832483
7226269 152 18343301457175662496
9896288 288 18187932845089465499
9953998 17 18261664966088596384

> <PUBCHEM_SHAPE_MULTIPOLES>
606.61
20.73
3.77
1.39
32.44
4.38
0.27
-22.49
-6.32
-5.65
-1.25
-0.03
-0.54
0.1

> <PUBCHEM_SHAPE_SELFOVERLAP>
1279.967

> <PUBCHEM_SHAPE_VOLUME>
336.6

> <PUBCHEM_COORDINATE_TYPE>
2
5
10

$$$$
