126458
  -OEChem-03292013323D

 37 37  0     1  0  0  0  0  0999 V2000
   -1.6452   -2.1025   -0.0541 O   0  0  0  0  0  0  0  0  0  0  0  0
    4.7657   -1.2543    0.3651 O   0  0  0  0  0  0  0  0  0  0  0  0
    3.6475    2.4766   -0.8836 O   0  0  0  0  0  0  0  0  0  0  0  0
    5.1181    1.4754    0.5310 O   0  0  0  0  0  0  0  0  0  0  0  0
   -3.9246   -1.0458   -1.1590 N   0  0  0  0  0  0  0  0  0  0  0  0
   -0.6031   -0.0113   -0.2732 N   0  0  0  0  0  0  0  0  0  0  0  0
   -4.9401    1.0121    0.8314 C   0  0  0  0  0  0  0  0  0  0  0  0
   -3.5697    0.3066    0.8920 C   0  0  0  0  0  0  0  0  0  0  0  0
   -3.0045   -0.1473   -0.4639 C   0  0  1  0  0  0  0  0  0  0  0  0
   -6.0110    0.1448    0.1687 C   0  0  0  0  0  0  0  0  0  0  0  0
   -4.8061    2.3355    0.0727 C   0  0  0  0  0  0  0  0  0  0  0  0
   -1.6835   -0.8899   -0.2449 C   0  0  0  0  0  0  0  0  0  0  0  0
    0.7678   -0.3226   -0.1101 C   0  0  0  0  0  0  0  0  0  0  0  0
    1.7056    0.6949   -0.1678 C   0  0  0  0  0  0  0  0  0  0  0  0
    1.1420   -1.6388    0.1030 C   0  0  0  0  0  0  0  0  0  0  0  0
    3.0567    0.3872   -0.0077 C   0  0  0  0  0  0  0  0  0  0  0  0
    2.4932   -1.9465    0.2631 C   0  0  0  0  0  0  0  0  0  0  0  0
    3.4505   -0.9334    0.2078 C   0  0  0  0  0  0  0  0  0  0  0  0
    4.0405    1.4591   -0.0704 C   0  0  0  0  0  0  0  0  0  0  0  0
   -5.2504    1.2283    1.8612 H   0  0  0  0  0  0  0  0  0  0  0  0
   -2.8452    0.9717    1.3811 H   0  0  0  0  0  0  0  0  0  0  0  0
   -3.6592   -0.5646    1.5564 H   0  0  0  0  0  0  0  0  0  0  0  0
   -2.8263    0.7189   -1.1100 H   0  0  0  0  0  0  0  0  0  0  0  0
   -6.9987    0.5394    0.4401 H   0  0  0  0  0  0  0  0  0  0  0  0
   -5.9842    0.1729   -0.9242 H   0  0  0  0  0  0  0  0  0  0  0  0
   -5.9843   -0.8881    0.5302 H   0  0  0  0  0  0  0  0  0  0  0  0
   -4.5733    2.1874   -0.9864 H   0  0  0  0  0  0  0  0  0  0  0  0
   -5.7450    2.8977    0.1254 H   0  0  0  0  0  0  0  0  0  0  0  0
   -4.0217    2.9609    0.5119 H   0  0  0  0  0  0  0  0  0  0  0  0
   -3.5131   -1.3459   -2.0419 H   0  0  0  0  0  0  0  0  0  0  0  0
   -4.0711   -1.8899   -0.6066 H   0  0  0  0  0  0  0  0  0  0  0  0
   -0.8037    0.9750   -0.4239 H   0  0  0  0  0  0  0  0  0  0  0  0
    1.3773    1.7194   -0.3241 H   0  0  0  0  0  0  0  0  0  0  0  0
    0.4647   -2.4779    0.1567 H   0  0  0  0  0  0  0  0  0  0  0  0
    2.7947   -2.9771    0.4300 H   0  0  0  0  0  0  0  0  0  0  0  0
    5.3254   -0.4692    0.2570 H   0  0  0  0  0  0  0  0  0  0  0  0
    4.3159    3.1939   -0.9201 H   0  0  0  0  0  0  0  0  0  0  0  0
  1 12  2  0  0  0  0
  2 18  1  0  0  0  0
  2 36  1  0  0  0  0
  3 19  1  0  0  0  0
  3 37  1  0  0  0  0
  4 19  2  0  0  0  0
  5  9  1  0  0  0  0
  5 30  1  0  0  0  0
  5 31  1  0  0  0  0
  6 12  1  0  0  0  0
  6 13  1  0  0  0  0
  6 32  1  0  0  0  0
  7  8  1  0  0  0  0
  7 10  1  0  0  0  0
  7 11  1  0  0  0  0
  7 20  1  0  0  0  0
  8  9  1  0  0  0  0
  8 21  1  0  0  0  0
  8 22  1  0  0  0  0
  9 12  1  0  0  0  0
  9 23  1  0  0  0  0
 10 24  1  0  0  0  0
 10 25  1  0  0  0  0
 10 26  1  0  0  0  0
 11 27  1  0  0  0  0
 11 28  1  0  0  0  0
 11 29  1  0  0  0  0
 13 14  2  0  0  0  0
 13 15  1  0  0  0  0
 14 16  1  0  0  0  0
 14 33  1  0  0  0  0
 15 17  2  0  0  0  0
 15 34  1  0  0  0  0
 16 18  2  0  0  0  0
 16 19  1  0  0  0  0
 17 18  1  0  0  0  0
 17 35  1  0  0  0  0
M  END
> <PUBCHEM_COMPOUND_CID>
126458

> <PUBCHEM_CONFORMER_RMSD>
0.8

> <PUBCHEM_CONFORMER_DIVERSEORDER>
15
6
14
12
2
10
8
11
5
13
4
9
7
16
1
3

> <PUBCHEM_MMFF94_PARTIAL_CHARGES>
23
1 -0.57
12 0.57
13 0.12
14 -0.15
15 -0.15
16 0.09
17 -0.15
18 0.08
19 0.63
2 -0.53
3 -0.65
30 0.36
31 0.36
32 0.37
33 0.15
34 0.15
35 0.15
36 0.45
37 0.5
4 -0.57
5 -0.99
6 -0.55
9 0.33

> <PUBCHEM_EFFECTIVE_ROTOR_COUNT>
6

> <PUBCHEM_PHARMACOPHORE_FEATURES>
10
1 1 acceptor
1 2 donor
1 3 acceptor
1 4 acceptor
1 5 cation
1 5 donor
1 6 donor
3 3 4 19 anion
3 7 10 11 hydrophobe
6 13 14 15 16 17 18 rings

> <PUBCHEM_HEAVY_ATOM_COUNT>
19

> <PUBCHEM_ATOM_DEF_STEREO_COUNT>
1

> <PUBCHEM_ATOM_UDEF_STEREO_COUNT>
0

> <PUBCHEM_BOND_DEF_STEREO_COUNT>
0

> <PUBCHEM_BOND_UDEF_STEREO_COUNT>
0

> <PUBCHEM_ISOTOPIC_ATOM_COUNT>
0

> <PUBCHEM_COMPONENT_COUNT>
1

> <PUBCHEM_CACTVS_TAUTO_COUNT>
8

> <PUBCHEM_CONFORMER_ID>
0001EDFA0000000F

> <PUBCHEM_MMFF94_ENERGY>
54.8395

> <PUBCHEM_FEATURE_SELFOVERLAP>
50.803

> <PUBCHEM_SHAPE_FINGERPRINT>
11089746 13 17704064097327250664
11405975 8 18261109686197783722
12107183 9 17691970363006884779
12236239 1 18201999919713662955
12596602 18 17822012025749160993
13167372 99 18341334375424033905
13675066 3 17967257472907152565
13785724 45 17619631280586117786
15196674 1 18411981368772788011
15239154 128 18411702075776763189
15342168 16 18115595979334150044
17834072 33 18342737425306895487
17844677 252 18337118869412584601
17959699 21 18413389830204063089
18186145 218 18187362129908252086
193927 3 10953737768377846889
20157964 124 18338234869688685869
20645477 70 18411698764478570318
21033648 29 17095512973101862319
212847 35 18202001018914022288
21503847 285 18334580109706183320
21652331 79 18410857642452018345
23402539 116 18059566963011340927
23402655 69 18272647965282283198
23503953 91 18411692188841234330
23559900 14 17703514268467673110
300161 21 18201433692330858265
335352 9 18410294692873143766
34797466 226 16128378237131171505
350125 39 18336829685143897852
474 4 18261113014644184104
5104073 3 18335135423018212754
542803 24 18131350804360517719
543358 83 18412545397063609530
54446538 1 18411136901304394345
633830 44 18411701015115111366
77779 3 18411420596652739283
8272917 22 18342461396217185382
90127 26 18337404733851003795
960060 61 12175624001148672608

> <PUBCHEM_SHAPE_MULTIPOLES>
357.57
12.96
2.23
0.81
7.77
0.54
0.02
5.52
-1.47
-1.21
0.16
0.4
0.05
-0.93

> <PUBCHEM_SHAPE_SELFOVERLAP>
736.957

> <PUBCHEM_SHAPE_VOLUME>
204.8

> <PUBCHEM_COORDINATE_TYPE>
2
5
10

$$$$
