126573
  -OEChem-03292013323D

 29 30  0     1  0  0  0  0  0999 V2000
    2.0937    1.6690    0.0045 P   0  0  0  0  0  0  0  0  0  0  0  0
    3.7003    1.6911   -0.2006 O   0  0  0  0  0  0  0  0  0  0  0  0
    1.5696    2.1987   -1.4337 O   0  0  0  0  0  0  0  0  0  0  0  0
   -3.1240    2.0584    0.6695 O   0  0  0  0  0  0  0  0  0  0  0  0
    1.6366    2.5243    1.1468 O   0  0  0  0  0  0  0  0  0  0  0  0
   -4.1365    0.6105   -0.7707 O   0  0  0  0  0  0  0  0  0  0  0  0
   -2.3741   -1.3088   -0.3061 N   0  0  0  0  0  0  0  0  0  0  0  0
   -0.7870    0.5430    0.0262 C   0  0  0  0  0  0  0  0  0  0  0  0
   -2.1416   -0.0577    0.4148 C   0  0  1  0  0  0  0  0  0  0  0  0
    0.3269   -0.4726    0.0607 C   0  0  0  0  0  0  0  0  0  0  0  0
    0.0326   -1.8474    0.0541 C   0  0  0  0  0  0  0  0  0  0  0  0
   -1.3977   -2.3251    0.1042 C   0  0  0  0  0  0  0  0  0  0  0  0
    1.6622   -0.0493    0.0419 C   0  0  0  0  0  0  0  0  0  0  0  0
    1.0805   -2.7774    0.0656 C   0  0  0  0  0  0  0  0  0  0  0  0
    2.6972   -0.9837    0.0426 C   0  0  0  0  0  0  0  0  0  0  0  0
   -3.2454    0.8732    0.0233 C   0  0  0  0  0  0  0  0  0  0  0  0
    2.4069   -2.3461    0.0567 C   0  0  0  0  0  0  0  0  0  0  0  0
   -0.5724    1.3585    0.7241 H   0  0  0  0  0  0  0  0  0  0  0  0
   -0.8355    0.9712   -0.9835 H   0  0  0  0  0  0  0  0  0  0  0  0
   -2.2140   -0.2367    1.4951 H   0  0  0  0  0  0  0  0  0  0  0  0
   -1.5184   -3.1931   -0.5543 H   0  0  0  0  0  0  0  0  0  0  0  0
   -1.6255   -2.6570    1.1246 H   0  0  0  0  0  0  0  0  0  0  0  0
   -2.2796   -1.1466   -1.3095 H   0  0  0  0  0  0  0  0  0  0  0  0
    0.8678   -3.8434    0.0823 H   0  0  0  0  0  0  0  0  0  0  0  0
    3.7396   -0.6834    0.0368 H   0  0  0  0  0  0  0  0  0  0  0  0
    3.2134   -3.0737    0.0625 H   0  0  0  0  0  0  0  0  0  0  0  0
    4.1643    2.5552   -0.2096 H   0  0  0  0  0  0  0  0  0  0  0  0
    1.6693    3.1496   -1.6525 H   0  0  0  0  0  0  0  0  0  0  0  0
   -3.8385    2.6843    0.4244 H   0  0  0  0  0  0  0  0  0  0  0  0
  1  2  1  0  0  0  0
  1  3  1  0  0  0  0
  1  5  2  0  0  0  0
  1 13  1  0  0  0  0
  2 27  1  0  0  0  0
  3 28  1  0  0  0  0
  4 16  1  0  0  0  0
  4 29  1  0  0  0  0
  6 16  2  0  0  0  0
  7  9  1  0  0  0  0
  7 12  1  0  0  0  0
  7 23  1  0  0  0  0
  8  9  1  0  0  0  0
  8 10  1  0  0  0  0
  8 18  1  0  0  0  0
  8 19  1  0  0  0  0
  9 16  1  0  0  0  0
  9 20  1  0  0  0  0
 10 11  2  0  0  0  0
 10 13  1  0  0  0  0
 11 12  1  0  0  0  0
 11 14  1  0  0  0  0
 12 21  1  0  0  0  0
 12 22  1  0  0  0  0
 13 15  2  0  0  0  0
 14 17  2  0  0  0  0
 14 24  1  0  0  0  0
 15 17  1  0  0  0  0
 15 25  1  0  0  0  0
 17 26  1  0  0  0  0
M  END
> <PUBCHEM_COMPOUND_CID>
126573

> <PUBCHEM_CONFORMER_RMSD>
0.6

> <PUBCHEM_CONFORMER_DIVERSEORDER>
1
7
8
5
2
4
3
6

> <PUBCHEM_MMFF94_PARTIAL_CHARGES>
24
1 1.38
10 -0.14
11 -0.14
12 0.41
13 -0.14
14 -0.15
15 -0.15
16 0.66
17 -0.15
2 -0.77
23 0.36
24 0.15
25 0.15
26 0.15
27 0.5
28 0.5
29 0.5
3 -0.77
4 -0.65
5 -0.7
6 -0.57
7 -0.9
8 0.14
9 0.33

> <PUBCHEM_EFFECTIVE_ROTOR_COUNT>
2.8

> <PUBCHEM_PHARMACOPHORE_FEATURES>
11
1 2 acceptor
1 3 acceptor
1 4 acceptor
1 5 acceptor
1 6 acceptor
1 7 cation
1 7 donor
3 4 6 16 anion
4 1 2 3 5 anion
6 10 11 13 14 15 17 rings
6 7 8 9 10 11 12 rings

> <PUBCHEM_HEAVY_ATOM_COUNT>
17

> <PUBCHEM_ATOM_DEF_STEREO_COUNT>
0

> <PUBCHEM_ATOM_UDEF_STEREO_COUNT>
1

> <PUBCHEM_BOND_DEF_STEREO_COUNT>
0

> <PUBCHEM_BOND_UDEF_STEREO_COUNT>
0

> <PUBCHEM_ISOTOPIC_ATOM_COUNT>
0

> <PUBCHEM_COMPONENT_COUNT>
1

> <PUBCHEM_CACTVS_TAUTO_COUNT>
1

> <PUBCHEM_CONFORMER_ID>
0001EE6D00000001

> <PUBCHEM_MMFF94_ENERGY>
0.7213

> <PUBCHEM_FEATURE_SELFOVERLAP>
55.94

> <PUBCHEM_SHAPE_FINGERPRINT>
10608611 8 18409166610595185891
10967382 1 18410855421478730912
11680986 33 18409173207549077034
13132413 78 17981045210837677820
13140716 1 18409449193351679955
13380535 76 18409443725921621794
13464514 151 18341343227382844020
13618510 140 18410012160611603037
13897977 150 18410290315752543751
14250199 8 18339637833419371215
14251717 144 18338792304424187719
14648413 74 18408326579137198498
15442244 35 18196371420569135363
15490181 8 18116720822779290106
15775835 57 18411986896263900621
16945 1 18339929203441958802
18186145 218 18269275668962715063
193761 8 18338799017152590419
20510252 161 17765439033678601832
20511035 2 18341330075919138206
20671657 1 18412265003980755580
21501502 16 18410851092157380538
21524375 3 18337388348023469519
21639500 275 18338782438947567053
22094290 62 18338517439159591427
2334 1 18266179619948806899
23402539 116 17838324195090351030
23419403 2 14140237772659794259
23558518 356 18188772880430625315
25 1 18409170991298193534
2748010 2 18337398265103131415
2803657 2 17915198826868161688
305870 269 18337107968569186096
3071541 12 18411142402962334582
3071541 158 18263365785046508366
350125 39 18265061412365334234
474 4 18260829315064370141
5939293 188 18123185701799552928
7364860 26 18413107234362122742
74978 22 18411702049964891271
7832392 63 18270115691261705395
81228 2 16900185058623683930
84936 182 18273209807229425792

> <PUBCHEM_SHAPE_MULTIPOLES>
319.37
5.55
3.29
0.81
3.62
0.22
-0.06
-2.31
-0.38
-1.82
0.13
-0.04
-0.4
-0.25

> <PUBCHEM_SHAPE_SELFOVERLAP>
665.014

> <PUBCHEM_SHAPE_VOLUME>
181.2

> <PUBCHEM_COORDINATE_TYPE>
2
5
10

$$$$
