126569
  -OEChem-03292013323D

 23 23  0     1  0  0  0  0  0999 V2000
    3.1711   -1.7754    0.5664 F   0  0  0  0  0  0  0  0  0  0  0  0
   -1.5773    0.6063    1.7824 O   0  0  0  0  0  0  0  0  0  0  0  0
   -0.4956    1.8362   -1.0937 O   0  0  0  0  0  0  0  0  0  0  0  0
   -3.3061    1.1692    0.4255 O   0  0  0  0  0  0  0  0  0  0  0  0
    3.7349    0.8830    0.4858 O   0  0  0  0  0  0  0  0  0  0  0  0
    0.0639   -0.3907   -0.6636 N   0  0  0  0  0  0  0  0  0  0  0  0
   -3.5106   -1.4672   -0.3380 N   0  0  0  0  0  0  0  0  0  0  0  0
    1.6095    1.3613   -0.3068 N   0  0  0  0  0  0  0  0  0  0  0  0
   -1.2348   -0.9199   -1.0624 C   0  0  0  0  0  0  0  0  0  0  0  0
   -2.2073   -0.9869    0.1161 C   0  0  1  0  0  0  0  0  0  0  0  0
    0.3198    0.9907   -0.7191 C   0  0  0  0  0  0  0  0  0  0  0  0
    1.0204   -1.2887   -0.2355 C   0  0  0  0  0  0  0  0  0  0  0  0
   -2.4421    0.3692    0.7597 C   0  0  0  0  0  0  0  0  0  0  0  0
    2.2355   -0.9034    0.1488 C   0  0  0  0  0  0  0  0  0  0  0  0
    2.6188    0.5163    0.1344 C   0  0  0  0  0  0  0  0  0  0  0  0
   -1.6418   -0.2616   -1.8413 H   0  0  0  0  0  0  0  0  0  0  0  0
   -1.1021   -1.9075   -1.5229 H   0  0  0  0  0  0  0  0  0  0  0  0
   -1.8360   -1.6755    0.8844 H   0  0  0  0  0  0  0  0  0  0  0  0
    0.7405   -2.3361   -0.2201 H   0  0  0  0  0  0  0  0  0  0  0  0
   -4.1241   -1.6062    0.4644 H   0  0  0  0  0  0  0  0  0  0  0  0
   -3.4052   -2.3822   -0.7749 H   0  0  0  0  0  0  0  0  0  0  0  0
    1.8258    2.3539   -0.3351 H   0  0  0  0  0  0  0  0  0  0  0  0
   -1.7338    1.4813    2.1973 H   0  0  0  0  0  0  0  0  0  0  0  0
  1 14  1  0  0  0  0
  2 13  1  0  0  0  0
  2 23  1  0  0  0  0
  3 11  2  0  0  0  0
  4 13  2  0  0  0  0
  5 15  2  0  0  0  0
  6  9  1  0  0  0  0
  6 11  1  0  0  0  0
  6 12  1  0  0  0  0
  7 10  1  0  0  0  0
  7 20  1  0  0  0  0
  7 21  1  0  0  0  0
  8 11  1  0  0  0  0
  8 15  1  0  0  0  0
  8 22  1  0  0  0  0
  9 10  1  0  0  0  0
  9 16  1  0  0  0  0
  9 17  1  0  0  0  0
 10 13  1  0  0  0  0
 10 18  1  0  0  0  0
 12 14  2  0  0  0  0
 12 19  1  0  0  0  0
 14 15  1  0  0  0  0
M  END
> <PUBCHEM_COMPOUND_CID>
126569

> <PUBCHEM_CONFORMER_RMSD>
0.6

> <PUBCHEM_CONFORMER_DIVERSEORDER>
1
3
5
8
9
10
6
4
2
7

> <PUBCHEM_MMFF94_PARTIAL_CHARGES>
20
1 -0.15
10 0.33
11 0.69
12 -0.04
13 0.66
14 0.16
15 0.62
19 0.15
2 -0.65
20 0.36
21 0.36
22 0.37
23 0.5
3 -0.57
4 -0.57
5 -0.57
6 -0.47
7 -0.99
8 -0.49
9 0.3

> <PUBCHEM_EFFECTIVE_ROTOR_COUNT>
3

> <PUBCHEM_PHARMACOPHORE_FEATURES>
9
1 2 acceptor
1 3 acceptor
1 4 acceptor
1 5 acceptor
1 7 cation
1 7 donor
1 8 donor
3 2 4 13 anion
6 6 8 11 12 14 15 rings

> <PUBCHEM_HEAVY_ATOM_COUNT>
15

> <PUBCHEM_ATOM_DEF_STEREO_COUNT>
1

> <PUBCHEM_ATOM_UDEF_STEREO_COUNT>
0

> <PUBCHEM_BOND_DEF_STEREO_COUNT>
0

> <PUBCHEM_BOND_UDEF_STEREO_COUNT>
0

> <PUBCHEM_ISOTOPIC_ATOM_COUNT>
0

> <PUBCHEM_COMPONENT_COUNT>
1

> <PUBCHEM_CACTVS_TAUTO_COUNT>
3

> <PUBCHEM_CONFORMER_ID>
0001EE6900000001

> <PUBCHEM_MMFF94_ENERGY>
22.3192

> <PUBCHEM_FEATURE_SELFOVERLAP>
45.73

> <PUBCHEM_SHAPE_FINGERPRINT>
11132069 177 18411979152764757688
11471102 22 18114752619523972810
12251169 10 18269558251661394363
12346645 44 18200591527128484968
12382932 28 18413390921062316105
12696612 119 18409172116669270132
13764800 53 16629705984428181739
13839132 238 16844750632888034113
14144814 61 18412545422390457574
15375462 478 18201438129401463823
15775835 57 18272940426727308289
16945 1 18190470530588577654
17834069 15 18409450245761013941
200 152 18199737193761828487
20201158 50 17313097587837473810
20279233 1 16153419575651150386
20711983 138 17023757701300157737
20711983 171 17275109413795059458
20711985 344 16661754471575608836
22445834 79 18412261769918075310
23236772 104 18340768234088099083
23388829 49 18197211662396267639
23402539 116 16486972933986727757
23557571 272 16056609793624586839
2748010 2 18191567684949279956
63268167 104 18410009957171794544
81228 2 17168698614024385493

> <PUBCHEM_SHAPE_MULTIPOLES>
263
5.49
1.74
1.07
0.38
0.03
-0.14
0.5
-1.37
0.11
0.18
-0.4
-0.21
-0.52

> <PUBCHEM_SHAPE_SELFOVERLAP>
544.723

> <PUBCHEM_SHAPE_VOLUME>
148.3

> <PUBCHEM_COORDINATE_TYPE>
2
5
10

$$$$
