126504
  -OEChem-03292013323D

 36 37  0     1  0  0  0  0  0999 V2000
    0.4457   -2.1590    0.5057 O   0  0  0  0  0  0  0  0  0  0  0  0
    2.2018    0.4946   -2.9345 O   0  0  0  0  0  0  0  0  0  0  0  0
    4.1473   -0.6398   -2.6754 O   0  0  0  0  0  0  0  0  0  0  0  0
   -1.8977    3.5117   -0.2274 O   0  5  0  0  0  0  0  0  0  0  0  0
   -4.4486   -2.9928    0.4507 O   0  5  0  0  0  0  0  0  0  0  0  0
   -4.0668    3.1943   -0.0486 O   0  0  0  0  0  0  0  0  0  0  0  0
   -5.8185   -1.2721    0.4194 O   0  0  0  0  0  0  0  0  0  0  0  0
    1.1287   -0.3167   -0.7258 N   0  0  0  0  0  0  0  0  0  0  0  0
   -2.8920    2.7582   -0.0990 N   0  3  0  0  0  0  0  0  0  0  0  0
   -4.6639   -1.7598    0.3726 N   0  3  0  0  0  0  0  0  0  0  0  0
    2.5048   -0.7264   -0.8911 C   0  0  2  0  0  0  0  0  0  0  0  0
    3.3701   -0.2240    0.2404 C   0  0  0  0  0  0  0  0  0  0  0  0
   -1.1751   -0.5330    0.0283 C   0  0  0  0  0  0  0  0  0  0  0  0
    0.1757   -1.0691   -0.0292 C   0  0  0  0  0  0  0  0  0  0  0  0
    4.4110   -1.0141    0.7008 C   0  0  0  0  0  0  0  0  0  0  0  0
    3.1071    1.0176    0.7962 C   0  0  0  0  0  0  0  0  0  0  0  0
    3.0445   -0.3166   -2.2504 C   0  0  0  0  0  0  0  0  0  0  0  0
   -2.2618   -1.3954    0.1727 C   0  0  0  0  0  0  0  0  0  0  0  0
   -1.3839    0.8431   -0.0621 C   0  0  0  0  0  0  0  0  0  0  0  0
   -2.6796    1.3571   -0.0082 C   0  0  0  0  0  0  0  0  0  0  0  0
   -3.5576   -0.8815    0.2268 C   0  0  0  0  0  0  0  0  0  0  0  0
   -3.7664    0.4947    0.1363 C   0  0  0  0  0  0  0  0  0  0  0  0
    5.2104   -0.5503    1.7455 C   0  0  0  0  0  0  0  0  0  0  0  0
    3.9066    1.4815    1.8409 C   0  0  0  0  0  0  0  0  0  0  0  0
    4.9583    0.6975    2.3155 C   0  0  0  0  0  0  0  0  0  0  0  0
    2.5014   -1.8244   -0.8877 H   0  0  0  0  0  0  0  0  0  0  0  0
    0.8519    0.5381   -1.1971 H   0  0  0  0  0  0  0  0  0  0  0  0
    4.6167   -1.9865    0.2627 H   0  0  0  0  0  0  0  0  0  0  0  0
    2.3054    1.6551    0.4355 H   0  0  0  0  0  0  0  0  0  0  0  0
   -2.0827   -2.4663    0.2361 H   0  0  0  0  0  0  0  0  0  0  0  0
   -0.5397    1.5226   -0.1368 H   0  0  0  0  0  0  0  0  0  0  0  0
   -4.7767    0.8953    0.1785 H   0  0  0  0  0  0  0  0  0  0  0  0
    6.0297   -1.1604    2.1147 H   0  0  0  0  0  0  0  0  0  0  0  0
    3.7129    2.4547    2.2825 H   0  0  0  0  0  0  0  0  0  0  0  0
    5.5813    1.0592    3.1282 H   0  0  0  0  0  0  0  0  0  0  0  0
    2.5773    0.7688   -3.7983 H   0  0  0  0  0  0  0  0  0  0  0  0
  1 14  2  0  0  0  0
  2 17  1  0  0  0  0
  2 36  1  0  0  0  0
  3 17  2  0  0  0  0
  4  9  1  0  0  0  0
  5 10  1  0  0  0  0
  6  9  2  0  0  0  0
  7 10  2  0  0  0  0
  8 11  1  0  0  0  0
  8 14  1  0  0  0  0
  8 27  1  0  0  0  0
  9 20  1  0  0  0  0
 10 21  1  0  0  0  0
 11 12  1  0  0  0  0
 11 17  1  0  0  0  0
 11 26  1  0  0  0  0
 12 15  2  0  0  0  0
 12 16  1  0  0  0  0
 13 14  1  0  0  0  0
 13 18  2  0  0  0  0
 13 19  1  0  0  0  0
 15 23  1  0  0  0  0
 15 28  1  0  0  0  0
 16 24  2  0  0  0  0
 16 29  1  0  0  0  0
 18 21  1  0  0  0  0
 18 30  1  0  0  0  0
 19 20  2  0  0  0  0
 19 31  1  0  0  0  0
 20 22  1  0  0  0  0
 21 22  2  0  0  0  0
 22 32  1  0  0  0  0
 23 25  2  0  0  0  0
 23 33  1  0  0  0  0
 24 25  1  0  0  0  0
 24 34  1  0  0  0  0
 25 35  1  0  0  0  0
M  CHG  4   4  -1   5  -1   9   1  10   1
M  END
> <PUBCHEM_COMPOUND_CID>
126504

> <PUBCHEM_CONFORMER_RMSD>
0.8

> <PUBCHEM_CONFORMER_DIVERSEORDER>
1
6
2
4
5
9
3
10
15
7
11
8
13
12
14

> <PUBCHEM_MMFF94_PARTIAL_CHARGES>
35
1 -0.57
10 0.91
11 0.5
12 -0.14
13 0.09
14 0.54
15 -0.15
16 -0.15
17 0.66
18 -0.15
19 -0.15
2 -0.65
20 0.13
21 0.13
22 -0.15
23 -0.15
24 -0.15
25 -0.15
27 0.37
28 0.15
29 0.15
3 -0.57
30 0.15
31 0.15
32 0.15
33 0.15
34 0.15
35 0.15
36 0.5
4 -0.52
5 -0.52
6 -0.52
7 -0.52
8 -0.73
9 0.91

> <PUBCHEM_EFFECTIVE_ROTOR_COUNT>
7

> <PUBCHEM_PHARMACOPHORE_FEATURES>
13
1 1 acceptor
1 2 acceptor
1 3 acceptor
1 4 acceptor
1 4 anion
1 5 acceptor
1 5 anion
1 6 acceptor
1 7 acceptor
1 8 donor
3 2 3 17 anion
6 12 15 16 23 24 25 rings
6 13 18 19 20 21 22 rings

> <PUBCHEM_HEAVY_ATOM_COUNT>
25

> <PUBCHEM_ATOM_DEF_STEREO_COUNT>
1

> <PUBCHEM_ATOM_UDEF_STEREO_COUNT>
0

> <PUBCHEM_BOND_DEF_STEREO_COUNT>
0

> <PUBCHEM_BOND_UDEF_STEREO_COUNT>
0

> <PUBCHEM_ISOTOPIC_ATOM_COUNT>
0

> <PUBCHEM_COMPONENT_COUNT>
1

> <PUBCHEM_CACTVS_TAUTO_COUNT>
2

> <PUBCHEM_CONFORMER_ID>
0001EE2800000001

> <PUBCHEM_MMFF94_ENERGY>
76.3987

> <PUBCHEM_FEATURE_SELFOVERLAP>
66.196

> <PUBCHEM_SHAPE_FINGERPRINT>
10319926 262 18340190900790454890
10369192 42 17058929068903796496
10554248 39 13181920034402916147
10646746 165 18340484470057219904
12107183 9 17757535366552457242
12166972 35 17385715932821248844
12173636 292 18121218671936153053
12236239 1 17385721404546507666
12342043 65 17558583315615083991
12403259 415 18060139825696468784
12596602 18 17604415388783039120
12616971 3 14045744785843829406
12788726 201 18115605836579480179
12892183 10 18336809949805921002
13402501 40 18130210580590778032
13533116 47 15647053806478761763
13583140 156 17988358153184996838
13965767 371 17536302640232979136
14178342 30 18261671467713910599
14251757 17 17916867902788463976
14251764 38 18059568053844169352
15188451 53 17895176844511672019
15806764 133 17774176620904288380
15961568 22 18267024049554422564
17349148 13 17676486167959225467
18186145 218 17917160394287697162
18222031 100 16660350477480352146
192875 21 17603586352340653551
20369508 70 14418401222806852082
21033648 29 17988924444617504188
21065199 12 18341039762226423114
21065201 7 18340213994391761558
2132832 1 17749104517259145285
21792934 111 18408322164975935075
22182313 1 17989209226465760364
23557571 272 18343591736829736748
23559900 14 18198072391222631142
23845131 108 17691980259087178609
244849 19 17846219882868146772
25147074 1 17676217857120210676
312423 11 17313396625035535118
314194 84 14851597744704553632
341906 21 18408323263765213748
508706 21 18340480063242062733
5281201 14 17346329167367243046
6049 1 17988658358371341788
633830 44 16343433786666447103
6913067 236 18130780205065463935
7399639 24 17989489632106527231
7615 1 17675933096440751492

> <PUBCHEM_SHAPE_MULTIPOLES>
458.46
12.13
2.75
1.96
1.77
1.93
1.44
-1.34
-4.67
4.48
-0.27
-4.2
-0.07
2.06

> <PUBCHEM_SHAPE_SELFOVERLAP>
988.578

> <PUBCHEM_SHAPE_VOLUME>
250.8

> <PUBCHEM_COORDINATE_TYPE>
2
5
10

$$$$
