126505
  -OEChem-03292013323D

 32 33  0     1  0  0  0  0  0999 V2000
   -1.6209   -0.3054    1.0144 O   0  0  0  0  0  0  0  0  0  0  0  0
   -1.2434    0.1035   -1.9337 O   0  0  0  0  0  0  0  0  0  0  0  0
   -3.9418    1.5295   -0.0155 O   0  0  0  0  0  0  0  0  0  0  0  0
   -2.6306   -2.9016    0.9791 O   0  0  0  0  0  0  0  0  0  0  0  0
    0.7251    3.0087    0.5051 O   0  0  0  0  0  0  0  0  0  0  0  0
    0.3337    0.7482    0.2641 N   0  0  0  0  0  0  0  0  0  0  0  0
    2.5530    1.6946    0.2295 N   0  0  0  0  0  0  0  0  0  0  0  0
    4.4387    0.3831   -0.0490 N   0  0  0  0  0  0  0  0  0  0  0  0
   -1.8096    0.9770   -0.9637 C   0  0  1  0  0  0  0  0  0  0  0  0
   -3.1926    0.4719   -0.6097 C   0  0  1  0  0  0  0  0  0  0  0  0
   -1.0902    0.8607    0.3712 C   0  0  1  0  0  0  0  0  0  0  0  0
   -2.9225   -0.5876    0.4602 C   0  0  1  0  0  0  0  0  0  0  0  0
   -2.8977   -2.0076   -0.0876 C   0  0  0  0  0  0  0  0  0  0  0  0
    0.8940   -0.5092    0.0776 C   0  0  0  0  0  0  0  0  0  0  0  0
    1.1872    1.8782    0.3410 C   0  0  0  0  0  0  0  0  0  0  0  0
    2.2081   -0.7157   -0.0333 C   0  0  0  0  0  0  0  0  0  0  0  0
    3.0697    0.5045    0.0547 C   0  0  0  0  0  0  0  0  0  0  0  0
    2.7435   -2.0165   -0.2219 C   0  0  0  0  0  0  0  0  0  0  0  0
    3.1964   -3.1162   -0.3825 C   0  0  0  0  0  0  0  0  0  0  0  0
   -1.7829    2.0003   -1.3510 H   0  0  0  0  0  0  0  0  0  0  0  0
   -3.7648    0.0864   -1.4585 H   0  0  0  0  0  0  0  0  0  0  0  0
   -1.3366    1.7178    1.0095 H   0  0  0  0  0  0  0  0  0  0  0  0
   -3.6378   -0.5273    1.2889 H   0  0  0  0  0  0  0  0  0  0  0  0
   -2.1084   -2.1396   -0.8333 H   0  0  0  0  0  0  0  0  0  0  0  0
   -3.8620   -2.2706   -0.5332 H   0  0  0  0  0  0  0  0  0  0  0  0
   -1.7762    0.1824   -2.7433 H   0  0  0  0  0  0  0  0  0  0  0  0
   -3.5069    1.8030    0.8091 H   0  0  0  0  0  0  0  0  0  0  0  0
    0.2093   -1.3484    0.0089 H   0  0  0  0  0  0  0  0  0  0  0  0
   -2.6239   -3.7996    0.6058 H   0  0  0  0  0  0  0  0  0  0  0  0
    4.8991   -0.5102   -0.1855 H   0  0  0  0  0  0  0  0  0  0  0  0
    5.0355    1.2015    0.0084 H   0  0  0  0  0  0  0  0  0  0  0  0
    3.5986   -4.0920   -0.5250 H   0  0  0  0  0  0  0  0  0  0  0  0
  1 11  1  0  0  0  0
  1 12  1  0  0  0  0
  2  9  1  0  0  0  0
  2 26  1  0  0  0  0
  3 10  1  0  0  0  0
  3 27  1  0  0  0  0
  4 13  1  0  0  0  0
  4 29  1  0  0  0  0
  5 15  2  0  0  0  0
  6 11  1  0  0  0  0
  6 14  1  0  0  0  0
  6 15  1  0  0  0  0
  7 15  1  0  0  0  0
  7 17  2  0  0  0  0
  8 17  1  0  0  0  0
  8 30  1  0  0  0  0
  8 31  1  0  0  0  0
  9 10  1  0  0  0  0
  9 11  1  0  0  0  0
  9 20  1  0  0  0  0
 10 12  1  0  0  0  0
 10 21  1  0  0  0  0
 11 22  1  0  0  0  0
 12 13  1  0  0  0  0
 12 23  1  0  0  0  0
 13 24  1  0  0  0  0
 13 25  1  0  0  0  0
 14 16  2  0  0  0  0
 14 28  1  0  0  0  0
 16 17  1  0  0  0  0
 16 18  1  0  0  0  0
 18 19  3  0  0  0  0
 19 32  1  0  0  0  0
M  END
> <PUBCHEM_COMPOUND_CID>
126505

> <PUBCHEM_CONFORMER_RMSD>
0.6

> <PUBCHEM_CONFORMER_DIVERSEORDER>
1
7
8
9
2
6
4
5
3

> <PUBCHEM_MMFF94_PARTIAL_CHARGES>
26
1 -0.56
10 0.28
11 0.58
12 0.28
13 0.28
14 -0.04
15 0.84
16 0.08
17 0.49
18 -0.06
19 -0.18
2 -0.68
26 0.4
27 0.4
28 0.15
29 0.4
3 -0.68
30 0.4
31 0.4
32 0.18
4 -0.68
5 -0.57
6 -0.47
7 -0.66
8 -0.85
9 0.28

> <PUBCHEM_EFFECTIVE_ROTOR_COUNT>
3

> <PUBCHEM_PHARMACOPHORE_FEATURES>
13
1 1 acceptor
1 19 hydrophobe
1 2 acceptor
1 2 donor
1 3 acceptor
1 3 donor
1 4 acceptor
1 4 donor
1 5 acceptor
1 7 donor
1 8 donor
5 1 9 10 11 12 rings
6 6 7 14 15 16 17 rings

> <PUBCHEM_HEAVY_ATOM_COUNT>
19

> <PUBCHEM_ATOM_DEF_STEREO_COUNT>
4

> <PUBCHEM_ATOM_UDEF_STEREO_COUNT>
0

> <PUBCHEM_BOND_DEF_STEREO_COUNT>
0

> <PUBCHEM_BOND_UDEF_STEREO_COUNT>
0

> <PUBCHEM_ISOTOPIC_ATOM_COUNT>
0

> <PUBCHEM_COMPONENT_COUNT>
1

> <PUBCHEM_CACTVS_TAUTO_COUNT>
3

> <PUBCHEM_CONFORMER_ID>
0001EE2900000001

> <PUBCHEM_MMFF94_ENERGY>
53.6549

> <PUBCHEM_FEATURE_SELFOVERLAP>
66.027

> <PUBCHEM_SHAPE_FINGERPRINT>
10616163 171 18339082695442216695
11322862 65 18187645774170598759
116883 192 17982734065351520804
12500047 106 18334571343820473917
12553582 1 18052834545909280554
13140716 1 18338514136625594930
13296908 3 18410575050398545962
14115302 16 18115882797086484134
14178342 30 18340759433647368984
14223421 5 18266742561481170163
14863182 85 17252881949069721503
14866123 147 17260755049097796115
16945 1 18340487867054799041
17834074 16 18408887368801022039
18186145 218 17896316917868249573
19591789 44 18123755519996563278
19930381 70 17834959664061572263
200 152 18059850718504870429
20645477 70 18269832030056892710
21501502 16 18261955266394769225
221490 88 18337679714753214994
23114952 82 18113907026763923260
23402539 116 16443336594429731076
23557571 272 17676483956093045461
23559900 14 18338232666344394666
2748010 2 18412544297404522550
2871803 45 18119239803997912571
34934 24 18342170042794185440
81228 2 17697044630438269720
8809292 202 18336550391319632906
9709674 26 18409730685761817731

> <PUBCHEM_SHAPE_MULTIPOLES>
346.72
6.83
3.03
0.95
0.93
1.24
0.27
1.97
0.29
1.05
-0.44
-0.55
0.07
0.9

> <PUBCHEM_SHAPE_SELFOVERLAP>
732.69

> <PUBCHEM_SHAPE_VOLUME>
193

> <PUBCHEM_COORDINATE_TYPE>
2
5
10

$$$$
