126598
  -OEChem-03292013323D

 42 43  0     1  0  0  0  0  0999 V2000
   -0.6270    1.2237    0.4181 S   0  0  0  0  0  0  0  0  0  0  0  0
    0.2133   -1.2963    0.1405 O   0  0  0  0  0  0  0  0  0  0  0  0
    4.2546   -0.4424   -0.1159 O   0  0  0  0  0  0  0  0  0  0  0  0
    2.6466   -2.1930    1.3164 O   0  0  0  0  0  0  0  0  0  0  0  0
   -0.8653   -3.7831   -0.3089 O   0  0  0  0  0  0  0  0  0  0  0  0
    2.9233    2.7701    1.3272 O   0  0  0  0  0  0  0  0  0  0  0  0
    2.3363    1.6631   -0.6341 N   0  0  0  0  0  0  0  0  0  0  0  0
   -5.8250    0.9368    0.6936 N   0  0  0  0  0  0  0  0  0  0  0  0
   -5.3275   -0.1985    0.7768 N   0  0  0  0  0  0  0  0  0  0  0  0
    1.9832    0.3895   -0.0424 C   0  0  2  0  0  0  0  0  0  0  0  0
    2.9276   -0.7019   -0.5677 C   0  0  2  0  0  0  0  0  0  0  0  0
    2.4886   -2.0914   -0.1003 C   0  0  2  0  0  0  0  0  0  0  0  0
    0.5192    0.0145   -0.3412 C   0  0  2  0  0  0  0  0  0  0  0  0
    1.0176   -2.3197   -0.4556 C   0  0  1  0  0  0  0  0  0  0  0  0
    0.4987   -3.6598    0.0521 C   0  0  0  0  0  0  0  0  0  0  0  0
   -4.6625    0.7062   -0.1287 C   0  0  0  0  0  0  0  0  0  0  0  0
   -3.3673    1.3070    0.3280 C   0  0  0  0  0  0  0  0  0  0  0  0
   -2.1748    0.4746   -0.1311 C   0  0  0  0  0  0  0  0  0  0  0  0
   -4.8343    0.5249   -1.5781 C   0  0  0  0  0  0  0  0  0  0  0  0
    2.7765    2.7434    0.1081 C   0  0  0  0  0  0  0  0  0  0  0  0
    3.0982    3.9325   -0.7569 C   0  0  0  0  0  0  0  0  0  0  0  0
    2.1280    0.4622    1.0437 H   0  0  0  0  0  0  0  0  0  0  0  0
    2.9464   -0.6856   -1.6652 H   0  0  0  0  0  0  0  0  0  0  0  0
    3.1298   -2.8590   -0.5465 H   0  0  0  0  0  0  0  0  0  0  0  0
    0.3409    0.0435   -1.4238 H   0  0  0  0  0  0  0  0  0  0  0  0
    0.8707   -2.2740   -1.5427 H   0  0  0  0  0  0  0  0  0  0  0  0
    2.2608    1.7540   -1.6434 H   0  0  0  0  0  0  0  0  0  0  0  0
    0.5526   -3.7223    1.1438 H   0  0  0  0  0  0  0  0  0  0  0  0
    1.0600   -4.4908   -0.3864 H   0  0  0  0  0  0  0  0  0  0  0  0
   -3.3586    1.3984    1.4225 H   0  0  0  0  0  0  0  0  0  0  0  0
   -3.2959    2.3263   -0.0732 H   0  0  0  0  0  0  0  0  0  0  0  0
   -2.2606   -0.5396    0.2731 H   0  0  0  0  0  0  0  0  0  0  0  0
   -2.1501    0.4043   -1.2229 H   0  0  0  0  0  0  0  0  0  0  0  0
    4.5033    0.4414   -0.4361 H   0  0  0  0  0  0  0  0  0  0  0  0
    1.9655   -1.6444    1.7406 H   0  0  0  0  0  0  0  0  0  0  0  0
   -4.2697   -0.3412   -1.9387 H   0  0  0  0  0  0  0  0  0  0  0  0
   -5.8843    0.3575   -1.8444 H   0  0  0  0  0  0  0  0  0  0  0  0
   -4.4985    1.4080   -2.1319 H   0  0  0  0  0  0  0  0  0  0  0  0
   -1.1729   -4.6445    0.0211 H   0  0  0  0  0  0  0  0  0  0  0  0
    3.2682    4.8106   -0.1278 H   0  0  0  0  0  0  0  0  0  0  0  0
    4.0006    3.7272   -1.3392 H   0  0  0  0  0  0  0  0  0  0  0  0
    2.2661    4.1432   -1.4349 H   0  0  0  0  0  0  0  0  0  0  0  0
  1 13  1  0  0  0  0
  1 18  1  0  0  0  0
  2 13  1  0  0  0  0
  2 14  1  0  0  0  0
  3 11  1  0  0  0  0
  3 34  1  0  0  0  0
  4 12  1  0  0  0  0
  4 35  1  0  0  0  0
  5 15  1  0  0  0  0
  5 39  1  0  0  0  0
  6 20  2  0  0  0  0
  7 10  1  0  0  0  0
  7 20  1  0  0  0  0
  7 27  1  0  0  0  0
  8  9  2  0  0  0  0
  8 16  1  0  0  0  0
  9 16  1  0  0  0  0
 10 11  1  0  0  0  0
 10 13  1  0  0  0  0
 10 22  1  0  0  0  0
 11 12  1  0  0  0  0
 11 23  1  0  0  0  0
 12 14  1  0  0  0  0
 12 24  1  0  0  0  0
 13 25  1  0  0  0  0
 14 15  1  0  0  0  0
 14 26  1  0  0  0  0
 15 28  1  0  0  0  0
 15 29  1  0  0  0  0
 16 17  1  0  0  0  0
 16 19  1  0  0  0  0
 17 18  1  0  0  0  0
 17 30  1  0  0  0  0
 17 31  1  0  0  0  0
 18 32  1  0  0  0  0
 18 33  1  0  0  0  0
 19 36  1  0  0  0  0
 19 37  1  0  0  0  0
 19 38  1  0  0  0  0
 20 21  1  0  0  0  0
 21 40  1  0  0  0  0
 21 41  1  0  0  0  0
 21 42  1  0  0  0  0
M  END
> <PUBCHEM_COMPOUND_CID>
126598

> <PUBCHEM_CONFORMER_RMSD>
0.8

> <PUBCHEM_CONFORMER_DIVERSEORDER>
1
105
64
5
139
78
130
118
80
77
93
73
85
96
54
36
68
97
82
125
108
71
115
41
84
29
79
127
131
133
113
122
20
10
34
83
103
95
120
65
140
22
141
50
132
17
109
76
90
101
23
74
13
69
42
135
128
12
32
138
102
58
99
119
18
88
48
70
112
55
129
87
30
21
62
110
81
6
37
126
4
27
98
63
14
86
57
7
100
94
106
66
39
15
47
72
25
43
121
111
136
134
89
40
53
45
24
59
11
35
26
16
44
124
91
137
2
107
92
3
38
31
117
67
61
123
33
9
28
8
75
104
51
49
19
46
56
60
114
116
52

> <PUBCHEM_MMFF94_PARTIAL_CHARGES>
25
1 -0.46
10 0.3
11 0.28
12 0.28
13 0.51
14 0.28
15 0.28
16 0.23
17 0.09
18 0.23
19 0.09
2 -0.56
20 0.57
21 0.06
27 0.37
3 -0.68
34 0.4
35 0.4
39 0.4
4 -0.68
5 -0.68
6 -0.57
7 -0.73
8 -0.21
9 -0.21

> <PUBCHEM_EFFECTIVE_ROTOR_COUNT>
8.4

> <PUBCHEM_PHARMACOPHORE_FEATURES>
10
1 2 acceptor
1 3 acceptor
1 3 donor
1 4 acceptor
1 4 donor
1 5 acceptor
1 5 donor
1 6 acceptor
1 7 donor
6 2 10 11 12 13 14 rings

> <PUBCHEM_HEAVY_ATOM_COUNT>
21

> <PUBCHEM_ATOM_DEF_STEREO_COUNT>
5

> <PUBCHEM_ATOM_UDEF_STEREO_COUNT>
0

> <PUBCHEM_BOND_DEF_STEREO_COUNT>
0

> <PUBCHEM_BOND_UDEF_STEREO_COUNT>
0

> <PUBCHEM_ISOTOPIC_ATOM_COUNT>
0

> <PUBCHEM_COMPONENT_COUNT>
1

> <PUBCHEM_CACTVS_TAUTO_COUNT>
2

> <PUBCHEM_CONFORMER_ID>
0001EE8600000001

> <PUBCHEM_MMFF94_ENERGY>
44.0275

> <PUBCHEM_FEATURE_SELFOVERLAP>
50.767

> <PUBCHEM_SHAPE_FINGERPRINT>
10090160 65 18412256259728508521
1100329 8 18411697716727706274
12616971 3 17988925557409783301
13140716 1 18410851109479557762
13583140 156 16879599731087000320
13836976 161 18336272270791216286
13955234 65 18410295796109708545
146900 427 18201169831674613473
17980427 23 17915148357176925078
18681886 176 18341047428606156058
18785283 64 18334294283927972012
19427546 62 18337676420660829521
20645477 70 18335144167898440449
21197605 99 18265909132374847683
2255824 54 18411702049758857740
23558518 356 17974847582210302058
23559900 14 18335419015830420561
238 59 18337404767746635696
239999 70 18272662207652390751
283562 15 17834406618719116190
3060560 45 18339645546969878814
3178227 256 18336841813598506354
474 4 18337951298014229933
495365 180 18411416228359860713
5104073 3 18408893915175239857
633830 44 18202008733192406621
6443956 14 18121786019234257444
9999458 23 18408046216873242996

> <PUBCHEM_SHAPE_MULTIPOLES>
391.73
9.79
4.5
0.99
16.71
1.12
-0.03
-4.93
0.2
-5.51
-0.11
0.34
-0.23
-0.28

> <PUBCHEM_SHAPE_SELFOVERLAP>
772.952

> <PUBCHEM_SHAPE_VOLUME>
235.2

> <PUBCHEM_COORDINATE_TYPE>
2
5
10

$$$$
