126687
  -OEChem-03292013323D

 31 31  0     1  0  0  0  0  0999 V2000
    3.8220   -0.5865   -0.4317 P   0  0  0  0  0  0  0  0  0  0  0  0
    3.2307   -1.9290    0.2292 O   0  0  0  0  0  0  0  0  0  0  0  0
    5.3723   -0.5884   -0.0011 O   0  0  0  0  0  0  0  0  0  0  0  0
    3.5388   -0.3820   -1.8769 O   0  0  0  0  0  0  0  0  0  0  0  0
   -2.3747   -2.0312   -0.2973 O   0  0  0  0  0  0  0  0  0  0  0  0
   -4.4214   -1.5587    0.5592 O   0  0  0  0  0  0  0  0  0  0  0  0
   -4.5660    0.6248   -1.0967 N   0  0  0  0  0  0  0  0  0  0  0  0
   -2.6160    1.1691    0.2876 C   0  0  0  0  0  0  0  0  0  0  0  0
   -1.1122    1.0471    0.3770 C   0  0  0  0  0  0  0  0  0  0  0  0
   -3.2394    0.1639   -0.6931 C   0  0  1  0  0  0  0  0  0  0  0  0
    1.6437    0.8247    0.5420 C   0  0  0  0  0  0  0  0  0  0  0  0
    3.1276    0.7052    0.6305 C   0  0  0  0  0  0  0  0  0  0  0  0
   -0.5567    0.1919    1.3139 C   0  0  0  0  0  0  0  0  0  0  0  0
   -0.3199    1.7936   -0.4793 C   0  0  0  0  0  0  0  0  0  0  0  0
    0.8313    0.0799    1.3971 C   0  0  0  0  0  0  0  0  0  0  0  0
    1.0681    1.6816   -0.3963 C   0  0  0  0  0  0  0  0  0  0  0  0
   -3.4282   -1.2060   -0.0643 C   0  0  0  0  0  0  0  0  0  0  0  0
   -2.8514    2.1982   -0.0185 H   0  0  0  0  0  0  0  0  0  0  0  0
   -3.0520    1.0571    1.2900 H   0  0  0  0  0  0  0  0  0  0  0  0
   -2.6376    0.0543   -1.6027 H   0  0  0  0  0  0  0  0  0  0  0  0
    3.5975    1.6594    0.3633 H   0  0  0  0  0  0  0  0  0  0  0  0
    3.4257    0.5064    1.6673 H   0  0  0  0  0  0  0  0  0  0  0  0
   -1.1800   -0.3905    1.9862 H   0  0  0  0  0  0  0  0  0  0  0  0
   -0.7590    2.4611   -1.2151 H   0  0  0  0  0  0  0  0  0  0  0  0
    1.2672   -0.5913    2.1322 H   0  0  0  0  0  0  0  0  0  0  0  0
    1.6903    2.2649   -1.0699 H   0  0  0  0  0  0  0  0  0  0  0  0
   -4.4855    1.5252   -1.5682 H   0  0  0  0  0  0  0  0  0  0  0  0
   -5.1396    0.7948   -0.2708 H   0  0  0  0  0  0  0  0  0  0  0  0
    3.4392   -2.7957   -0.1797 H   0  0  0  0  0  0  0  0  0  0  0  0
    5.9940   -1.1968   -0.4542 H   0  0  0  0  0  0  0  0  0  0  0  0
   -2.5095   -2.9175    0.1008 H   0  0  0  0  0  0  0  0  0  0  0  0
  1  2  1  0  0  0  0
  1  3  1  0  0  0  0
  1  4  2  0  0  0  0
  1 12  1  0  0  0  0
  2 29  1  0  0  0  0
  3 30  1  0  0  0  0
  5 17  1  0  0  0  0
  5 31  1  0  0  0  0
  6 17  2  0  0  0  0
  7 10  1  0  0  0  0
  7 27  1  0  0  0  0
  7 28  1  0  0  0  0
  8  9  1  0  0  0  0
  8 10  1  0  0  0  0
  8 18  1  0  0  0  0
  8 19  1  0  0  0  0
  9 13  2  0  0  0  0
  9 14  1  0  0  0  0
 10 17  1  0  0  0  0
 10 20  1  0  0  0  0
 11 12  1  0  0  0  0
 11 15  2  0  0  0  0
 11 16  1  0  0  0  0
 12 21  1  0  0  0  0
 12 22  1  0  0  0  0
 13 15  1  0  0  0  0
 13 23  1  0  0  0  0
 14 16  2  0  0  0  0
 14 24  1  0  0  0  0
 15 25  1  0  0  0  0
 16 26  1  0  0  0  0
M  END
> <PUBCHEM_COMPOUND_CID>
126687

> <PUBCHEM_CONFORMER_RMSD>
0.6

> <PUBCHEM_CONFORMER_DIVERSEORDER>
1
18
24
19
3
32
25
35
7
6
14
31
4
20
2
28
8
9
36
16
15
13
11
29
5
27
17
33
34
21
12
10
26
30
22
23

> <PUBCHEM_MMFF94_PARTIAL_CHARGES>
26
1 1.24
10 0.33
11 -0.14
12 0.14
13 -0.15
14 -0.15
15 -0.15
16 -0.15
17 0.66
2 -0.77
23 0.15
24 0.15
25 0.15
26 0.15
27 0.36
28 0.36
29 0.5
3 -0.77
30 0.5
31 0.5
4 -0.7
5 -0.65
6 -0.57
7 -0.99
8 0.14
9 -0.14

> <PUBCHEM_EFFECTIVE_ROTOR_COUNT>
5

> <PUBCHEM_PHARMACOPHORE_FEATURES>
10
1 2 acceptor
1 3 acceptor
1 4 acceptor
1 5 acceptor
1 6 acceptor
1 7 cation
1 7 donor
3 5 6 17 anion
4 1 2 3 4 anion
6 9 11 13 14 15 16 rings

> <PUBCHEM_HEAVY_ATOM_COUNT>
17

> <PUBCHEM_ATOM_DEF_STEREO_COUNT>
1

> <PUBCHEM_ATOM_UDEF_STEREO_COUNT>
0

> <PUBCHEM_BOND_DEF_STEREO_COUNT>
0

> <PUBCHEM_BOND_UDEF_STEREO_COUNT>
0

> <PUBCHEM_ISOTOPIC_ATOM_COUNT>
0

> <PUBCHEM_COMPONENT_COUNT>
1

> <PUBCHEM_CACTVS_TAUTO_COUNT>
1

> <PUBCHEM_CONFORMER_ID>
0001EEDF00000001

> <PUBCHEM_MMFF94_ENERGY>
-1.169

> <PUBCHEM_FEATURE_SELFOVERLAP>
50.841

> <PUBCHEM_SHAPE_FINGERPRINT>
10465860 71 18260268568228783101
11543360 7 18041003959480977308
11769659 78 18201997724684681496
11796584 16 17846494825152237663
12251169 10 12247668388072630680
12346645 44 9871753489746187080
12596602 18 13398619567895315886
12633257 1 15985104158333771223
12644460 14 15697423546928663760
12670546 177 17603590750476757782
12892183 10 12607399992308870444
13705890 14 18341893013182674136
14123255 352 9151172043429648938
14251764 30 17825122647350572283
14350558 41 18130513019186139684
14911166 2 17603304838767623336
15209294 21 10231757777445821512
17834072 8 18335412461863138949
17834074 16 18272367572726910746
18186145 218 17458334282295670085
18915474 69 18187647977277519694
193927 3 18130799965845612631
19862831 5 17603866693351182440
200 152 18202282498533846784
20112054 13 11167946861447459785
20281475 54 18410016494412946416
20374829 77 18335414651953470952
20432913 95 16487254361354788156
20645477 70 17775275080001326389
20671657 53 18409452513366933928
20871999 31 18113896052985039047
21634736 98 18187645868063676413
221490 88 18189903191162775272
231179 274 12323960188773117444
23379529 103 17901115423104935587
23382010 3 16588030155385991776
23402539 116 17531245037606719284
23402655 69 17603861152817198276
23557571 272 18200026240607963720
23559900 14 18270951444900949544
2748010 2 17243033502949580008
2838139 119 13190337993787943382
474 4 9151172047703387426
4990 188 18113615690035859240
633830 44 16370730287875153312
9709674 26 18191302895535522107

> <PUBCHEM_SHAPE_MULTIPOLES>
319.37
9.17
1.84
1.2
1.61
0.4
0.09
4.23
2.21
-0.6
0.11
0.34
-0.03
0.45

> <PUBCHEM_SHAPE_SELFOVERLAP>
640.267

> <PUBCHEM_SHAPE_VOLUME>
187.6

> <PUBCHEM_COORDINATE_TYPE>
2
5
10

$$$$
