126690
  -OEChem-03292013323D

 34 34  0     0  0  0  0  0  0999 V2000
   -3.8317   -1.5050   -3.2643 Cl  0  0  0  0  0  0  0  0  0  0  0  0
   -3.6016   -1.4552    3.3936 Cl  0  0  0  0  0  0  0  0  0  0  0  0
   -0.2479    3.7787   -0.0219 O   0  5  0  0  0  0  0  0  0  0  0  0
   -2.0827    2.5734   -0.0176 O   0  0  0  0  0  0  0  0  0  0  0  0
    2.6502   -2.5858    1.0786 O   0  0  0  0  0  0  0  0  0  0  0  0
    4.0412    1.7231   -0.0073 O   0  5  0  0  0  0  0  0  0  0  0  0
    4.2505   -0.4621    0.0018 O   0  0  0  0  0  0  0  0  0  0  0  0
   -2.0614    0.0876   -0.0043 N   0  0  0  0  0  0  0  0  0  0  0  0
   -0.8332    2.6705   -0.0177 N   0  3  0  0  0  0  0  0  0  0  0  0
    3.5435    0.5728   -0.0044 N   0  3  0  0  0  0  0  0  0  0  0  0
    2.6646   -2.5991   -1.2145 N   0  0  0  0  0  0  0  0  0  0  0  0
   -0.6543    0.2230   -0.0066 C   0  0  0  0  0  0  0  0  0  0  0  0
   -2.7915    0.0236   -1.2530 C   0  0  0  0  0  0  0  0  0  0  0  0
   -2.7876    0.0255    1.2467 C   0  0  0  0  0  0  0  0  0  0  0  0
   -0.0518    1.4810   -0.0135 C   0  0  0  0  0  0  0  0  0  0  0  0
    0.1337   -0.9279   -0.0001 C   0  0  0  0  0  0  0  0  0  0  0  0
    1.5244   -0.8208   -0.0006 C   0  0  0  0  0  0  0  0  0  0  0  0
    2.1271    0.4371   -0.0076 C   0  0  0  0  0  0  0  0  0  0  0  0
    1.3391    1.5881   -0.0140 C   0  0  0  0  0  0  0  0  0  0  0  0
   -2.9258   -1.4129   -1.7333 C   0  0  0  0  0  0  0  0  0  0  0  0
   -2.7199   -1.3695    1.8481 C   0  0  0  0  0  0  0  0  0  0  0  0
    2.3151   -2.0459    0.0119 C   0  0  0  0  0  0  0  0  0  0  0  0
   -2.2869    0.6228   -2.0225 H   0  0  0  0  0  0  0  0  0  0  0  0
   -3.7881    0.4670   -1.1336 H   0  0  0  0  0  0  0  0  0  0  0  0
   -2.3791    0.7528    1.9604 H   0  0  0  0  0  0  0  0  0  0  0  0
   -3.8371    0.3077    1.0958 H   0  0  0  0  0  0  0  0  0  0  0  0
   -0.3310   -1.9115    0.0037 H   0  0  0  0  0  0  0  0  0  0  0  0
    1.8091    2.5688   -0.0186 H   0  0  0  0  0  0  0  0  0  0  0  0
   -3.4656   -2.0296   -1.0112 H   0  0  0  0  0  0  0  0  0  0  0  0
   -1.9492   -1.8722   -1.9099 H   0  0  0  0  0  0  0  0  0  0  0  0
   -1.6904   -1.6674    2.0628 H   0  0  0  0  0  0  0  0  0  0  0  0
   -3.1576   -2.1206    1.1869 H   0  0  0  0  0  0  0  0  0  0  0  0
    3.2088   -3.4539   -1.2654 H   0  0  0  0  0  0  0  0  0  0  0  0
    2.3924   -2.1738   -2.0951 H   0  0  0  0  0  0  0  0  0  0  0  0
  1 20  1  0  0  0  0
  2 21  1  0  0  0  0
  3  9  1  0  0  0  0
  4  9  2  0  0  0  0
  5 22  2  0  0  0  0
  6 10  1  0  0  0  0
  7 10  2  0  0  0  0
  8 12  1  0  0  0  0
  8 13  1  0  0  0  0
  8 14  1  0  0  0  0
  9 15  1  0  0  0  0
 10 18  1  0  0  0  0
 11 22  1  0  0  0  0
 11 33  1  0  0  0  0
 11 34  1  0  0  0  0
 12 15  2  0  0  0  0
 12 16  1  0  0  0  0
 13 20  1  0  0  0  0
 13 23  1  0  0  0  0
 13 24  1  0  0  0  0
 14 21  1  0  0  0  0
 14 25  1  0  0  0  0
 14 26  1  0  0  0  0
 15 19  1  0  0  0  0
 16 17  2  0  0  0  0
 16 27  1  0  0  0  0
 17 18  1  0  0  0  0
 17 22  1  0  0  0  0
 18 19  2  0  0  0  0
 19 28  1  0  0  0  0
 20 29  1  0  0  0  0
 20 30  1  0  0  0  0
 21 31  1  0  0  0  0
 21 32  1  0  0  0  0
M  CHG  4   3  -1   6  -1   9   1  10   1
M  END
> <PUBCHEM_COMPOUND_CID>
126690

> <PUBCHEM_CONFORMER_RMSD>
0.8

> <PUBCHEM_CONFORMER_DIVERSEORDER>
1
6
10
5
2
11
13
4
3
7
9
12
8

> <PUBCHEM_MMFF94_PARTIAL_CHARGES>
26
1 -0.29
10 0.91
11 -0.8
12 0.1
13 0.37
14 0.37
15 0.13
16 -0.15
17 0.09
18 0.13
19 -0.15
2 -0.29
20 0.29
21 0.29
22 0.54
27 0.15
28 0.15
3 -0.52
33 0.37
34 0.37
4 -0.52
5 -0.57
6 -0.52
7 -0.52
8 -0.84
9 0.91

> <PUBCHEM_EFFECTIVE_ROTOR_COUNT>
8

> <PUBCHEM_PHARMACOPHORE_FEATURES>
10
1 11 donor
1 3 acceptor
1 3 anion
1 4 acceptor
1 5 acceptor
1 6 acceptor
1 6 anion
1 7 acceptor
1 8 cation
6 12 15 16 17 18 19 rings

> <PUBCHEM_HEAVY_ATOM_COUNT>
22

> <PUBCHEM_ATOM_DEF_STEREO_COUNT>
0

> <PUBCHEM_ATOM_UDEF_STEREO_COUNT>
0

> <PUBCHEM_BOND_DEF_STEREO_COUNT>
0

> <PUBCHEM_BOND_UDEF_STEREO_COUNT>
0

> <PUBCHEM_ISOTOPIC_ATOM_COUNT>
0

> <PUBCHEM_COMPONENT_COUNT>
1

> <PUBCHEM_CACTVS_TAUTO_COUNT>
2

> <PUBCHEM_CONFORMER_ID>
0001EEE200000001

> <PUBCHEM_MMFF94_ENERGY>
97.4564

> <PUBCHEM_FEATURE_SELFOVERLAP>
50.913

> <PUBCHEM_SHAPE_FINGERPRINT>
107951 10 16821679352980562687
11582403 64 16242023909908648333
12553582 1 18411701019098568950
12596599 1 17489315221225487684
13083527 12 17977906238774993570
13140716 1 18122349244471780752
13911987 19 18118117211384596252
14223421 5 18337402534727586448
14576447 43 17984678237979851351
14787075 74 17389680888110934128
14790565 3 17759554404482176012
15422964 175 18189075186087905323
16945 1 18410575119402781316
19591789 44 17181961254312782564
20681651 13 17561072584212249163
21501502 16 18267296526600333084
21524375 3 17327455822596365253
22112679 90 17416139501688779457
2334 1 18338235938782361512
23419403 2 17534904388171094925
23526113 38 18041261245475995019
23557571 272 16515681160738868583
23558518 356 18045783386176755336
23559900 14 17386277715234889690
238 59 17903615708250868279
266924 78 17689158233386099821
2748010 2 18267023847706049748
81228 2 18191015712352667777
9709674 26 18265336114479182458

> <PUBCHEM_SHAPE_MULTIPOLES>
407.22
7
3.19
2.39
1.87
1.88
0.3
-2.98
-0.33
1.26
-0.12
-5.48
-2.03
-0.04

> <PUBCHEM_SHAPE_SELFOVERLAP>
829.147

> <PUBCHEM_SHAPE_VOLUME>
238.8

> <PUBCHEM_COORDINATE_TYPE>
2
5
10

$$$$
