126661
  -OEChem-03292013323D

 30 30  0     1  0  0  0  0  0999 V2000
    2.4354   -1.7186    0.2846 P   0  0  0  0  0  0  0  0  0  0  0  0
    2.5047   -0.1427   -0.0769 O   0  0  0  0  0  0  0  0  0  0  0  0
    2.8397    2.5319   -0.7531 O   0  0  0  0  0  0  0  0  0  0  0  0
   -1.8600   -1.2839   -1.5582 O   0  0  0  0  0  0  0  0  0  0  0  0
   -3.2364   -2.2479   -0.0344 O   0  0  0  0  0  0  0  0  0  0  0  0
    1.4701   -2.3431   -0.8531 O   0  0  0  0  0  0  0  0  0  0  0  0
    3.9002   -2.2495   -0.1524 O   0  0  0  0  0  0  0  0  0  0  0  0
    2.0587   -2.0349    1.7029 O   0  0  0  0  0  0  0  0  0  0  0  0
   -4.4724    0.1761    0.3230 N   0  0  0  0  0  0  0  0  0  0  0  0
   -2.1779    0.6692    1.0354 C   0  0  0  0  0  0  0  0  0  0  0  0
   -0.8329    1.1650    0.5567 C   0  0  0  0  0  0  0  0  0  0  0  0
   -3.0772    0.1815   -0.1111 C   0  0  1  0  0  0  0  0  0  0  0  0
    0.2226    0.2735    0.4609 C   0  0  0  0  0  0  0  0  0  0  0  0
   -0.6825    2.5010    0.2238 C   0  0  0  0  0  0  0  0  0  0  0  0
    1.4642    0.7310    0.0196 C   0  0  0  0  0  0  0  0  0  0  0  0
    1.6322    2.0737   -0.3197 C   0  0  0  0  0  0  0  0  0  0  0  0
    0.5589    2.9586   -0.2174 C   0  0  0  0  0  0  0  0  0  0  0  0
   -2.7473   -1.2408   -0.5305 C   0  0  0  0  0  0  0  0  0  0  0  0
   -2.0320   -0.1245    1.7811 H   0  0  0  0  0  0  0  0  0  0  0  0
   -2.6642    1.4917    1.5786 H   0  0  0  0  0  0  0  0  0  0  0  0
   -3.0078    0.8331   -0.9897 H   0  0  0  0  0  0  0  0  0  0  0  0
    0.0522   -0.7618    0.7322 H   0  0  0  0  0  0  0  0  0  0  0  0
   -1.5132    3.1969    0.2976 H   0  0  0  0  0  0  0  0  0  0  0  0
    0.6758    4.0068   -0.4792 H   0  0  0  0  0  0  0  0  0  0  0  0
   -4.7559    1.1233    0.5722 H   0  0  0  0  0  0  0  0  0  0  0  0
   -4.5676   -0.3752    1.1758 H   0  0  0  0  0  0  0  0  0  0  0  0
    2.7683    3.4835   -0.9412 H   0  0  0  0  0  0  0  0  0  0  0  0
   -1.6603   -2.2049   -1.8306 H   0  0  0  0  0  0  0  0  0  0  0  0
    1.2268   -3.2919   -0.8005 H   0  0  0  0  0  0  0  0  0  0  0  0
    4.1524   -3.1733    0.0602 H   0  0  0  0  0  0  0  0  0  0  0  0
  1  2  1  0  0  0  0
  1  6  1  0  0  0  0
  1  7  1  0  0  0  0
  1  8  2  0  0  0  0
  2 15  1  0  0  0  0
  3 16  1  0  0  0  0
  3 27  1  0  0  0  0
  4 18  1  0  0  0  0
  4 28  1  0  0  0  0
  5 18  2  0  0  0  0
  6 29  1  0  0  0  0
  7 30  1  0  0  0  0
  9 12  1  0  0  0  0
  9 25  1  0  0  0  0
  9 26  1  0  0  0  0
 10 11  1  0  0  0  0
 10 12  1  0  0  0  0
 10 19  1  0  0  0  0
 10 20  1  0  0  0  0
 11 13  2  0  0  0  0
 11 14  1  0  0  0  0
 12 18  1  0  0  0  0
 12 21  1  0  0  0  0
 13 15  1  0  0  0  0
 13 22  1  0  0  0  0
 14 17  2  0  0  0  0
 14 23  1  0  0  0  0
 15 16  2  0  0  0  0
 16 17  1  0  0  0  0
 17 24  1  0  0  0  0
M  END
> <PUBCHEM_COMPOUND_CID>
126661

> <PUBCHEM_CONFORMER_RMSD>
0.6

> <PUBCHEM_CONFORMER_DIVERSEORDER>
1
73
75
80
87
95
65
89
12
26
18
81
60
77
23
92
44
32
69
90
47
67
57
50
39
16
11
72
20
14
15
43
55
40
88
49
45
19
27
41
78
9
64
84
70
33
21
7
42
68
51
8
52
5
61
76
63
28
46
58
35
22
29
34
2
3
93
31
83
56
54
36
25
17
74
91
85
48
6
71
86
38
4
82
79
53
13
30
37
94
62
24
10
59
66

> <PUBCHEM_MMFF94_PARTIAL_CHARGES>
27
1 1.51
10 0.14
11 -0.14
12 0.33
13 -0.15
14 -0.15
15 0.08
16 0.08
17 -0.15
18 0.66
2 -0.35
22 0.15
23 0.15
24 0.15
25 0.36
26 0.36
27 0.45
28 0.5
29 0.5
3 -0.53
30 0.5
4 -0.65
5 -0.57
6 -0.77
7 -0.77
8 -0.7
9 -0.99

> <PUBCHEM_EFFECTIVE_ROTOR_COUNT>
5

> <PUBCHEM_PHARMACOPHORE_FEATURES>
11
1 3 donor
1 4 acceptor
1 5 acceptor
1 6 acceptor
1 7 acceptor
1 8 acceptor
1 9 cation
1 9 donor
3 4 5 18 anion
4 1 6 7 8 anion
6 11 13 14 15 16 17 rings

> <PUBCHEM_HEAVY_ATOM_COUNT>
18

> <PUBCHEM_ATOM_DEF_STEREO_COUNT>
1

> <PUBCHEM_ATOM_UDEF_STEREO_COUNT>
0

> <PUBCHEM_BOND_DEF_STEREO_COUNT>
0

> <PUBCHEM_BOND_UDEF_STEREO_COUNT>
0

> <PUBCHEM_ISOTOPIC_ATOM_COUNT>
0

> <PUBCHEM_COMPONENT_COUNT>
1

> <PUBCHEM_CACTVS_TAUTO_COUNT>
3

> <PUBCHEM_CONFORMER_ID>
0001EEC500000001

> <PUBCHEM_MMFF94_ENERGY>
3.6633

> <PUBCHEM_FEATURE_SELFOVERLAP>
55.916

> <PUBCHEM_SHAPE_FINGERPRINT>
10989021 7 18337674122373252368
11321824 6 17615392676150172122
116883 192 18196089949998460677
12403259 327 15697708234224867667
12553582 1 18265046946841888202
13083527 12 18189873423282744416
14178342 30 18054495066133313217
15279307 12 18127701628363033589
15375462 189 18199759205294880633
16945 1 18269284477556017417
19591789 44 16969989748756747894
20291156 8 18410854326293998363
20645477 70 18408601496220671571
20871998 184 17763467218683173528
21452121 199 18338215133596614304
21634736 98 18411425016142470998
221490 88 18262810681967052291
2255824 54 18121220041397886221
23388829 49 18411130329851671568
23463225 33 18342459240201079151
23557571 272 17984988086074930214
23598291 2 18413396431964331889
238 59 17689397866385686095
2748010 2 17333099620007602181
3060560 45 17830445442499641501
34934 24 18411698785589305897
6338986 31 18263350409079367648
6992083 37 18054807091054274729
7364860 26 18413108385497949208
81228 2 17979624646125090739

> <PUBCHEM_SHAPE_MULTIPOLES>
328.21
5.97
3.49
1.02
2.63
0.66
-0.08
-3.46
0.13
-2.24
0.4
0
-0.37
-1

> <PUBCHEM_SHAPE_SELFOVERLAP>
666.09

> <PUBCHEM_SHAPE_VOLUME>
191.1

> <PUBCHEM_COORDINATE_TYPE>
2
5
10

$$$$
