126637809
  -OEChem-03292013293D

 54 58  0     1  0  0  0  0  0999 V2000
    9.1312    1.5589   -0.4755 Br  0  0  0  0  0  0  0  0  0  0  0  0
   -1.1268   -3.7233   -1.7156 O   0  0  0  0  0  0  0  0  0  0  0  0
   -3.3453   -3.5529   -0.1891 O   0  0  0  0  0  0  0  0  0  0  0  0
   -3.8120    0.0161   -0.3023 N   0  0  0  0  0  0  0  0  0  0  0  0
   -5.4582    0.0815    1.4582 N   0  0  0  0  0  0  0  0  0  0  0  0
   -7.0637    1.8923    1.1913 N   0  0  0  0  0  0  0  0  0  0  0  0
   -6.9810    3.4228   -0.6391 N   0  0  0  0  0  0  0  0  0  0  0  0
    4.9862    1.8638   -0.1129 N   0  0  0  0  0  0  0  0  0  0  0  0
    6.6456    3.4435   -0.6827 N   0  0  0  0  0  0  0  0  0  0  0  0
   -0.7412   -2.0388    0.0023 C   0  0  1  0  0  0  0  0  0  0  0  0
   -3.0177   -1.1820    0.1716 C   0  0  2  0  0  0  0  0  0  0  0  0
   -1.5461   -0.8317    0.4871 C   0  0  0  0  0  0  0  0  0  0  0  0
   -1.4920   -2.4330   -1.2669 C   0  0  2  0  0  0  0  0  0  0  0  0
   -2.9613   -2.3451   -0.8485 C   0  0  1  0  0  0  0  0  0  0  0  0
    0.7260   -1.7198   -0.2402 C   0  0  0  0  0  0  0  0  0  0  0  0
    1.4190   -1.2687    1.0459 C   0  0  0  0  0  0  0  0  0  0  0  0
   -4.9105    0.5450    0.3215 C   0  0  0  0  0  0  0  0  0  0  0  0
   -3.5350    0.7405   -1.4333 C   0  0  0  0  0  0  0  0  0  0  0  0
   -5.3463    1.6319   -0.4266 C   0  0  0  0  0  0  0  0  0  0  0  0
    2.8806   -0.9789    0.8186 C   0  0  0  0  0  0  0  0  0  0  0  0
   -4.4702    1.7482   -1.5360 C   0  0  0  0  0  0  0  0  0  0  0  0
   -6.4665    2.3105    0.0512 C   0  0  0  0  0  0  0  0  0  0  0  0
    3.2876    0.3069    0.4542 C   0  0  0  0  0  0  0  0  0  0  0  0
    3.8225   -1.9884    0.9732 C   0  0  0  0  0  0  0  0  0  0  0  0
   -6.5296    0.8184    1.8156 C   0  0  0  0  0  0  0  0  0  0  0  0
    4.6281    0.6141    0.2375 C   0  0  0  0  0  0  0  0  0  0  0  0
    5.1698   -1.7091    0.7628 C   0  0  0  0  0  0  0  0  0  0  0  0
    5.5790   -0.4158    0.3962 C   0  0  0  0  0  0  0  0  0  0  0  0
    6.9285   -0.1071    0.1782 C   0  0  0  0  0  0  0  0  0  0  0  0
    6.2990    2.1204   -0.3140 C   0  0  0  0  0  0  0  0  0  0  0  0
    7.3005    1.1798   -0.1828 C   0  0  0  0  0  0  0  0  0  0  0  0
   -0.8061   -2.8536    0.7367 H   0  0  0  0  0  0  0  0  0  0  0  0
   -3.5124   -1.5092    1.0943 H   0  0  0  0  0  0  0  0  0  0  0  0
   -1.4153   -0.6635    1.5617 H   0  0  0  0  0  0  0  0  0  0  0  0
   -1.2274    0.0835   -0.0258 H   0  0  0  0  0  0  0  0  0  0  0  0
   -1.2849   -1.7129   -2.0684 H   0  0  0  0  0  0  0  0  0  0  0  0
   -3.6198   -2.2187   -1.7136 H   0  0  0  0  0  0  0  0  0  0  0  0
    0.8228   -0.9401   -1.0071 H   0  0  0  0  0  0  0  0  0  0  0  0
    1.2300   -2.6087   -0.6409 H   0  0  0  0  0  0  0  0  0  0  0  0
    1.3163   -2.0389    1.8211 H   0  0  0  0  0  0  0  0  0  0  0  0
    0.9431   -0.3688    1.4538 H   0  0  0  0  0  0  0  0  0  0  0  0
   -1.7120   -3.9491   -2.4586 H   0  0  0  0  0  0  0  0  0  0  0  0
   -4.2753   -3.4535    0.0772 H   0  0  0  0  0  0  0  0  0  0  0  0
   -2.7025    0.4847   -2.0744 H   0  0  0  0  0  0  0  0  0  0  0  0
   -4.5105    2.4837   -2.3276 H   0  0  0  0  0  0  0  0  0  0  0  0
    2.5392    1.0892    0.3344 H   0  0  0  0  0  0  0  0  0  0  0  0
    3.5220   -2.9937    1.2547 H   0  0  0  0  0  0  0  0  0  0  0  0
   -7.0311    0.5086    2.7262 H   0  0  0  0  0  0  0  0  0  0  0  0
    5.8989   -2.5069    0.8862 H   0  0  0  0  0  0  0  0  0  0  0  0
   -6.5458    3.7467   -1.4920 H   0  0  0  0  0  0  0  0  0  0  0  0
   -7.7946    3.8963   -0.2704 H   0  0  0  0  0  0  0  0  0  0  0  0
    7.6840   -0.8824    0.2929 H   0  0  0  0  0  0  0  0  0  0  0  0
    7.5677    3.7834   -0.4391 H   0  0  0  0  0  0  0  0  0  0  0  0
    5.8904    4.1130   -0.7627 H   0  0  0  0  0  0  0  0  0  0  0  0
  1 31  1  0  0  0  0
  2 13  1  0  0  0  0
  2 42  1  0  0  0  0
  3 14  1  0  0  0  0
  3 43  1  0  0  0  0
  4 11  1  0  0  0  0
  4 17  1  0  0  0  0
  4 18  1  0  0  0  0
  5 17  2  0  0  0  0
  5 25  1  0  0  0  0
  6 22  1  0  0  0  0
  6 25  2  0  0  0  0
  7 22  1  0  0  0  0
  7 50  1  0  0  0  0
  7 51  1  0  0  0  0
  8 26  2  0  0  0  0
  8 30  1  0  0  0  0
  9 30  1  0  0  0  0
  9 53  1  0  0  0  0
  9 54  1  0  0  0  0
 10 12  1  0  0  0  0
 10 13  1  0  0  0  0
 10 15  1  0  0  0  0
 10 32  1  0  0  0  0
 11 12  1  0  0  0  0
 11 14  1  0  0  0  0
 11 33  1  0  0  0  0
 12 34  1  0  0  0  0
 12 35  1  0  0  0  0
 13 14  1  0  0  0  0
 13 36  1  0  0  0  0
 14 37  1  0  0  0  0
 15 16  1  0  0  0  0
 15 38  1  0  0  0  0
 15 39  1  0  0  0  0
 16 20  1  0  0  0  0
 16 40  1  0  0  0  0
 16 41  1  0  0  0  0
 17 19  1  0  0  0  0
 18 21  2  0  0  0  0
 18 44  1  0  0  0  0
 19 21  1  0  0  0  0
 19 22  2  0  0  0  0
 20 23  2  0  0  0  0
 20 24  1  0  0  0  0
 21 45  1  0  0  0  0
 23 26  1  0  0  0  0
 23 46  1  0  0  0  0
 24 27  2  0  0  0  0
 24 47  1  0  0  0  0
 25 48  1  0  0  0  0
 26 28  1  0  0  0  0
 27 28  1  0  0  0  0
 27 49  1  0  0  0  0
 28 29  2  0  0  0  0
 29 31  1  0  0  0  0
 29 52  1  0  0  0  0
 30 31  2  0  0  0  0
M  END
> <PUBCHEM_COMPOUND_CID>
126637809

> <PUBCHEM_CONFORMER_RMSD>
0.8

> <PUBCHEM_CONFORMER_DIVERSEORDER>
1
69
82
146
16
160
79
196
165
114
194
175
47
168
40
124
11
71
39
5
183
179
19
14
167
63
85
66
176
203
161
123
188
68
10
64
77
164
159
195
56
74
191
41
122
145
24
154
135
206
189
157
96
94
143
89
102
92
163
184
111
52
83
87
28
181
126
55
117
23
115
125
144
58
8
140
45
173
62
31
127
209
121
93
7
199
44
13
99
201
174
155
153
136
112
18
139
105
9
81
205
193
17
32
49
90
152
22
202
43
86
177
25
110
207
6
169
88
182
2
147
133
113
4
36
95
73
186
53
75
35
101
119
15
116
178
97
78
61
84
156
46
150
132
57
162
149
48
106
76
29
187
34
37
158
166
30
100
65
172
120
60
50
109
129
20
108
42
151
171
103
59
3
51
118
180
190
33
130
70
134
141
192
27
26
200
98
137
131
91
197
148
208
104
12
198
72
67
138
170
80
204
107
142
128
54
21
185
38

> <PUBCHEM_MMFF94_PARTIAL_CHARGES>
39
1 -0.11
11 0.26
13 0.28
14 0.28
16 0.14
17 0.11
18 -0.3
2 -0.68
20 -0.14
21 -0.15
22 0.41
23 -0.15
24 -0.15
25 0.47
26 0.31
27 -0.15
29 -0.15
3 -0.68
30 0.41
31 0.11
4 0.05
42 0.4
43 0.4
44 0.15
45 0.15
46 0.15
47 0.15
48 0.15
49 0.15
5 -0.57
50 0.4
51 0.4
52 0.15
53 0.4
54 0.4
6 -0.62
7 -0.9
8 -0.62
9 -0.9

> <PUBCHEM_EFFECTIVE_ROTOR_COUNT>
5

> <PUBCHEM_PHARMACOPHORE_FEATURES>
17
1 1 hydrophobe
1 2 acceptor
1 2 donor
1 3 acceptor
1 3 donor
1 7 cation
1 7 donor
1 8 acceptor
1 9 cation
1 9 donor
3 4 5 17 cation
3 5 6 25 cation
5 10 11 12 13 14 rings
5 4 17 18 19 21 rings
6 20 23 24 26 27 28 rings
6 5 6 17 19 22 25 rings
6 8 26 28 29 30 31 rings

> <PUBCHEM_HEAVY_ATOM_COUNT>
31

> <PUBCHEM_ATOM_DEF_STEREO_COUNT>
4

> <PUBCHEM_ATOM_UDEF_STEREO_COUNT>
0

> <PUBCHEM_BOND_DEF_STEREO_COUNT>
0

> <PUBCHEM_BOND_UDEF_STEREO_COUNT>
0

> <PUBCHEM_ISOTOPIC_ATOM_COUNT>
0

> <PUBCHEM_COMPONENT_COUNT>
1

> <PUBCHEM_CACTVS_TAUTO_COUNT>
744

> <PUBCHEM_CONFORMER_ID>
078C56F100000001

> <PUBCHEM_MMFF94_ENERGY>
93.5331

> <PUBCHEM_FEATURE_SELFOVERLAP>
86.595

> <PUBCHEM_SHAPE_FINGERPRINT>
10 15 17822012003746673521
10369192 42 18272092686862970231
10554248 39 17916863517711679646
10920273 25 17988096508330936801
10930396 42 16443064981489703757
11135609 99 9367338233296323512
11410812 94 14836133105064740114
12107183 9 18265603283157986978
12895837 130 18336549424977988492
1361 4 9582978860604605396
13690498 29 17628348578565445414
13782708 43 11530480030202108066
13885169 86 18409169904587221049
13911987 19 18130784521992509961
14202776 33 18199184181983396351
14294032 229 17988641943719181919
14394314 77 18334296482819963244
15183329 4 17988640779012131688
15276724 80 18188202122669622276
15297060 5 18202847655757495450
15338160 23 18335986462889264531
15519825 34 16009325296135468793
15604295 49 18127686244460917784
1577012 14 18410006655096636402
16110190 28 18260830410138749109
16126227 98 18411702097509789881
16992727 255 18341053012591109544
18393751 57 18262523585927807227
19302320 297 17967253126886409908
19304152 47 17240475893053410829
19841028 212 10447921771961955788
2026 5 10447918469723468269
20691028 202 18411975862535466161
21585482 111 18187644665710769508
21756936 100 18187081792939873067
21781055 127 17345760664275063378
2838139 119 18263070033973071943
393628 194 18339923698149096797
397830 11 18114473288232367699
4015057 19 12463280471033967158
406291 66 9583518720333619848
4073 2 17895196636443996562
4258327 124 18412821387836633871
437795 70 15267063614601294315
474113 269 15122958284419212452
504843 32 18272646862093737487
5718773 13 9799692597642413024
5937810 71 18339365279427864148
6201320 221 14978851862161254724
6327066 14 18339637855047078245
6328613 192 18411698790211028504
6608658 132 16199587962450163531
6898599 12 18271239546922442566
9689198 14 18260835873468667378

> <PUBCHEM_SHAPE_MULTIPOLES>
602.28
25.36
3.83
1.29
19.72
0.46
0.03
-25.28
-1.78
-2.2
1.35
-1.83
0.21
-1.91

> <PUBCHEM_SHAPE_SELFOVERLAP>
1317.514

> <PUBCHEM_SHAPE_VOLUME>
334.5

> <PUBCHEM_COORDINATE_TYPE>
2
5
10

$$$$
