126740
  -OEChem-03292013323D

 33 33  0     1  0  0  0  0  0999 V2000
    3.0346   -1.2790   -0.4843 P   0  0  0  0  0  0  0  0  0  0  0  0
    2.6883   -0.1465    0.6112 O   0  0  0  0  0  0  0  0  0  0  0  0
    0.1135    0.6214   -0.1665 O   0  0  0  0  0  0  0  0  0  0  0  0
    3.2590    2.0222    2.2417 O   0  0  0  0  0  0  0  0  0  0  0  0
    3.4349   -2.5688    0.4053 O   0  0  0  0  0  0  0  0  0  0  0  0
    4.4553   -0.7764   -1.0709 O   0  0  0  0  0  0  0  0  0  0  0  0
   -1.1246    0.8730   -2.0907 O   0  0  0  0  0  0  0  0  0  0  0  0
    1.9710   -1.5162   -1.5161 O   0  0  0  0  0  0  0  0  0  0  0  0
   -3.7574    1.2485   -1.4341 N   0  0  0  0  0  0  0  0  0  0  0  0
    2.4392    1.1831    0.1493 C   0  0  1  0  0  0  0  0  0  0  0  0
    1.2622    1.1524   -0.8190 C   0  0  0  0  0  0  0  0  0  0  0  0
    2.1395    2.0537    1.3626 C   0  0  0  0  0  0  0  0  0  0  0  0
   -2.1359   -0.0279   -0.1285 C   0  0  0  0  0  0  0  0  0  0  0  0
   -1.0153    0.5376   -0.9216 C   0  0  0  0  0  0  0  0  0  0  0  0
   -3.4394    0.3364   -0.4032 C   0  0  0  0  0  0  0  0  0  0  0  0
   -1.8227   -0.9196    0.8798 C   0  0  0  0  0  0  0  0  0  0  0  0
   -4.4705   -0.2120    0.3597 C   0  0  0  0  0  0  0  0  0  0  0  0
   -2.8539   -1.4678    1.6426 C   0  0  0  0  0  0  0  0  0  0  0  0
   -4.1778   -1.1140    1.3826 C   0  0  0  0  0  0  0  0  0  0  0  0
    3.3436    1.5481   -0.3497 H   0  0  0  0  0  0  0  0  0  0  0  0
    1.4771    0.6255   -1.7490 H   0  0  0  0  0  0  0  0  0  0  0  0
    1.0364    2.1875   -1.1094 H   0  0  0  0  0  0  0  0  0  0  0  0
    1.2759    1.6878    1.9274 H   0  0  0  0  0  0  0  0  0  0  0  0
    1.9578    3.0929    1.0734 H   0  0  0  0  0  0  0  0  0  0  0  0
   -0.8035   -1.2267    1.0956 H   0  0  0  0  0  0  0  0  0  0  0  0
   -5.5068    0.0548    0.1678 H   0  0  0  0  0  0  0  0  0  0  0  0
    3.4146    1.0928    2.4822 H   0  0  0  0  0  0  0  0  0  0  0  0
   -2.6266   -2.1731    2.4367 H   0  0  0  0  0  0  0  0  0  0  0  0
   -4.9806   -1.5417    1.9759 H   0  0  0  0  0  0  0  0  0  0  0  0
   -3.0304    1.6723   -1.9935 H   0  0  0  0  0  0  0  0  0  0  0  0
   -4.7237    1.4938   -1.6056 H   0  0  0  0  0  0  0  0  0  0  0  0
    3.6347   -3.4149   -0.0488 H   0  0  0  0  0  0  0  0  0  0  0  0
    4.8477   -1.2504   -1.8347 H   0  0  0  0  0  0  0  0  0  0  0  0
  1  2  1  0  0  0  0
  1  5  1  0  0  0  0
  1  6  1  0  0  0  0
  1  8  2  0  0  0  0
  2 10  1  0  0  0  0
  3 11  1  0  0  0  0
  3 14  1  0  0  0  0
  4 12  1  0  0  0  0
  4 27  1  0  0  0  0
  5 32  1  0  0  0  0
  6 33  1  0  0  0  0
  7 14  2  0  0  0  0
  9 15  1  0  0  0  0
  9 30  1  0  0  0  0
  9 31  1  0  0  0  0
 10 11  1  0  0  0  0
 10 12  1  0  0  0  0
 10 20  1  0  0  0  0
 11 21  1  0  0  0  0
 11 22  1  0  0  0  0
 12 23  1  0  0  0  0
 12 24  1  0  0  0  0
 13 14  1  0  0  0  0
 13 15  1  0  0  0  0
 13 16  2  0  0  0  0
 15 17  2  0  0  0  0
 16 18  1  0  0  0  0
 16 25  1  0  0  0  0
 17 19  1  0  0  0  0
 17 26  1  0  0  0  0
 18 19  2  0  0  0  0
 18 28  1  0  0  0  0
 19 29  1  0  0  0  0
M  END
> <PUBCHEM_COMPOUND_CID>
126740

> <PUBCHEM_CONFORMER_RMSD>
0.8

> <PUBCHEM_CONFORMER_DIVERSEORDER>
1
225
47
70
102
249
162
295
231
64
163
176
2
248
143
253
57
287
292
290
172
278
110
95
138
60
68
174
165
208
101
242
121
150
294
125
65
288
270
178
195
92
66
204
72
235
43
207
112
82
28
24
86
275
129
75
59
38
146
222
283
245
229
246
34
237
291
132
19
130
81
29
49
244
135
159
9
256
220
69
7
254
190
78
277
239
210
11
260
114
89
261
255
123
273
141
187
45
169
77
276
194
282
27
96
128
122
183
97
224
184
100
137
16
202
272
8
41
120
218
289
48
39
118
147
139
144
171
117
223
127
55
284
279
263
103
264
164
109
106
107
167
230
10
119
116
274
94
252
179
44
226
148
199
250
36
83
247
285
30
21
232
221
175
214
227
142
286
189
20
140
136
105
219
63
98
145
80
262
18
23
266
33
104
42
76
181
157
111
151
158
196
233
200
201
217
126
269
73
53
182
177
35
88
115
268
180
62
5
155
216
193
206
46
52
209
15
3
234
61
124
84
93
243
17
113
13
14
191
293
51
257
87
160
79
236
71
37
32
156
74
197
4
25
215
185
265
168
212
90
22
188
281
161
99
31
91
238
211
152
108
12
6
271
228
149
240
40
241
154
173
170
203
85
153
67
56
133
186
192
213
251
198
134
259
267
50
166
258
58
280
54
26
205
131

> <PUBCHEM_MMFF94_PARTIAL_CHARGES>
28
1 1.51
10 0.28
11 0.28
12 0.28
13 0.09
14 0.63
15 0.1
16 -0.15
17 -0.15
18 -0.15
19 -0.15
2 -0.55
25 0.15
26 0.15
27 0.4
28 0.15
29 0.15
3 -0.43
30 0.4
31 0.4
32 0.5
33 0.5
4 -0.68
5 -0.77
6 -0.77
7 -0.57
8 -0.7
9 -0.9

> <PUBCHEM_EFFECTIVE_ROTOR_COUNT>
7

> <PUBCHEM_PHARMACOPHORE_FEATURES>
10
1 4 acceptor
1 4 donor
1 5 acceptor
1 6 acceptor
1 7 acceptor
1 8 acceptor
1 9 cation
1 9 donor
4 1 5 6 8 anion
6 13 15 16 17 18 19 rings

> <PUBCHEM_HEAVY_ATOM_COUNT>
19

> <PUBCHEM_ATOM_DEF_STEREO_COUNT>
0

> <PUBCHEM_ATOM_UDEF_STEREO_COUNT>
1

> <PUBCHEM_BOND_DEF_STEREO_COUNT>
0

> <PUBCHEM_BOND_UDEF_STEREO_COUNT>
0

> <PUBCHEM_ISOTOPIC_ATOM_COUNT>
0

> <PUBCHEM_COMPONENT_COUNT>
1

> <PUBCHEM_CACTVS_TAUTO_COUNT>
2

> <PUBCHEM_CONFORMER_ID>
0001EF1400000001

> <PUBCHEM_MMFF94_ENERGY>
28.4188

> <PUBCHEM_FEATURE_SELFOVERLAP>
50.782

> <PUBCHEM_SHAPE_FINGERPRINT>
10366900 7 18411982425202796391
11543360 7 11314309511905159825
11640471 11 16343419625884926625
12633257 1 18060147530541380275
12644460 14 17632301202691870568
12707595 3 18272373023367587142
13296908 3 18260551142896157695
13533116 47 18343309175875263891
13544592 145 18114174173492123325
13583140 156 17845086453973363001
14252887 29 17895485841696655457
14289901 80 18269557307217079505
14386348 63 18260554419671627782
14866123 147 17471572131636956459
15342816 4 16226609727027130475
16752209 62 16950553364512147725
17357990 137 16056609776006977992
17804303 29 17895203224859777333
1813 80 16915683409962736940
19049666 15 18337104575529555313
192875 21 15985099700310673089
20645477 70 18202559583774328180
20871999 31 17240774968563422783
2215653 11 18261110743086623663
23048698 100 17275384334725633305
23557571 272 17603866719300490516
23559900 14 18113904896122651101
31174 14 18342739619897884238
474 4 17201347714421472288
495365 180 18342442734562723773
6049 1 18335139791052686509
7364860 26 17606701363335123917
7615 1 16200426992131568521
77492 1 16343702153376388701
9709674 26 17968946417251643299

> <PUBCHEM_SHAPE_MULTIPOLES>
348.79
8.77
2.07
1.78
1.67
0.52
0.41
2.27
1.12
-1.48
0.37
-0.77
-0.6
2.68

> <PUBCHEM_SHAPE_SELFOVERLAP>
704.41

> <PUBCHEM_SHAPE_VOLUME>
204.4

> <PUBCHEM_COORDINATE_TYPE>
2
5
10

$$$$
