126702
  -OEChem-03292013323D

 50 50  0     1  0  0  0  0  0999 V2000
    1.0130    1.0368    0.5513 S   0  0  0  0  0  0  0  0  0  0  0  0
    0.4003    2.9082   -0.1503 S   0  0  0  0  0  0  0  0  0  0  0  0
   -0.6299   -2.8446   -1.8089 O   0  0  0  0  0  0  0  0  0  0  0  0
    3.1685   -2.0489    0.9604 O   0  0  0  0  0  0  0  0  0  0  0  0
    0.8333    3.0412   -1.5276 O   0  0  0  0  0  0  0  0  0  0  0  0
    0.7585    3.9067    0.8380 O   0  0  0  0  0  0  0  0  0  0  0  0
   -3.9010   -1.6996   -1.2558 O   0  0  0  0  0  0  0  0  0  0  0  0
   -4.7360   -2.7740    0.5580 O   0  0  0  0  0  0  0  0  0  0  0  0
    4.6109    1.2010    0.6233 O   0  0  0  0  0  0  0  0  0  0  0  0
    6.7900    0.6241    0.8814 O   0  0  0  0  0  0  0  0  0  0  0  0
    0.6657   -2.1299   -0.0183 N   0  0  0  0  0  0  0  0  0  0  0  0
    3.9909   -0.8613   -0.8550 N   0  0  0  0  0  0  0  0  0  0  0  0
   -3.2430   -0.5755    1.8309 N   0  0  0  0  0  0  0  0  0  0  0  0
    1.6238   -1.3641   -0.7815 C   0  0  1  0  0  0  0  0  0  0  0  0
   -1.8502   -2.5531    1.4507 C   0  0  0  0  0  0  0  0  0  0  0  0
   -1.2426   -3.5215    0.4337 C   0  0  0  0  0  0  0  0  0  0  0  0
    1.1755    0.0839   -0.9941 C   0  0  0  0  0  0  0  0  0  0  0  0
   -2.6987   -1.4574    0.7956 C   0  0  1  0  0  0  0  0  0  0  0  0
   -0.3906   -2.8118   -0.6049 C   0  0  0  0  0  0  0  0  0  0  0  0
    2.9937   -1.4828   -0.1168 C   0  0  0  0  0  0  0  0  0  0  0  0
   -3.8869   -2.0470    0.0576 C   0  0  0  0  0  0  0  0  0  0  0  0
   -1.3590    2.7541   -0.1473 C   0  0  0  0  0  0  0  0  0  0  0  0
    5.3678   -0.8162   -0.4214 C   0  0  0  0  0  0  0  0  0  0  0  0
   -2.0882    3.1072    0.9883 C   0  0  0  0  0  0  0  0  0  0  0  0
   -2.0195    2.2789   -1.2803 C   0  0  0  0  0  0  0  0  0  0  0  0
   -3.4777    2.9850    0.9910 C   0  0  0  0  0  0  0  0  0  0  0  0
   -3.4090    2.1568   -1.2776 C   0  0  0  0  0  0  0  0  0  0  0  0
   -4.1381    2.5099   -0.1419 C   0  0  0  0  0  0  0  0  0  0  0  0
    5.6782    0.3938    0.4215 C   0  0  0  0  0  0  0  0  0  0  0  0
    1.7127   -1.8380   -1.7683 H   0  0  0  0  0  0  0  0  0  0  0  0
   -2.4640   -3.1398    2.1474 H   0  0  0  0  0  0  0  0  0  0  0  0
   -1.0599   -2.0925    2.0559 H   0  0  0  0  0  0  0  0  0  0  0  0
   -0.6135   -4.2553    0.9513 H   0  0  0  0  0  0  0  0  0  0  0  0
   -2.0260   -4.0831   -0.0872 H   0  0  0  0  0  0  0  0  0  0  0  0
    1.8793    0.6110   -1.6449 H   0  0  0  0  0  0  0  0  0  0  0  0
    0.2016    0.0920   -1.4948 H   0  0  0  0  0  0  0  0  0  0  0  0
    0.7928   -2.1751    0.9881 H   0  0  0  0  0  0  0  0  0  0  0  0
   -2.0976   -0.8543    0.1074 H   0  0  0  0  0  0  0  0  0  0  0  0
    3.7652   -0.4321   -1.7470 H   0  0  0  0  0  0  0  0  0  0  0  0
   -2.4781   -0.1233    2.3305 H   0  0  0  0  0  0  0  0  0  0  0  0
   -3.7808    0.1720    1.3960 H   0  0  0  0  0  0  0  0  0  0  0  0
    5.9893   -0.7835   -1.3207 H   0  0  0  0  0  0  0  0  0  0  0  0
    5.5937   -1.7143    0.1610 H   0  0  0  0  0  0  0  0  0  0  0  0
   -1.5938    3.4725    1.8839 H   0  0  0  0  0  0  0  0  0  0  0  0
   -1.4718    1.9935   -2.1739 H   0  0  0  0  0  0  0  0  0  0  0  0
   -4.0453    3.2568    1.8761 H   0  0  0  0  0  0  0  0  0  0  0  0
   -3.9233    1.7839   -2.1585 H   0  0  0  0  0  0  0  0  0  0  0  0
   -5.2197    2.4122   -0.1390 H   0  0  0  0  0  0  0  0  0  0  0  0
   -4.6643   -2.0931   -1.7298 H   0  0  0  0  0  0  0  0  0  0  0  0
    4.8379    1.9798    1.1747 H   0  0  0  0  0  0  0  0  0  0  0  0
  1  2  1  0  0  0  0
  1 17  1  0  0  0  0
  2  5  2  0  0  0  0
  2  6  2  0  0  0  0
  2 22  1  0  0  0  0
  3 19  2  0  0  0  0
  4 20  2  0  0  0  0
  7 21  1  0  0  0  0
  7 49  1  0  0  0  0
  8 21  2  0  0  0  0
  9 29  1  0  0  0  0
  9 50  1  0  0  0  0
 10 29  2  0  0  0  0
 11 14  1  0  0  0  0
 11 19  1  0  0  0  0
 11 37  1  0  0  0  0
 12 20  1  0  0  0  0
 12 23  1  0  0  0  0
 12 39  1  0  0  0  0
 13 18  1  0  0  0  0
 13 40  1  0  0  0  0
 13 41  1  0  0  0  0
 14 17  1  0  0  0  0
 14 20  1  0  0  0  0
 14 30  1  0  0  0  0
 15 16  1  0  0  0  0
 15 18  1  0  0  0  0
 15 31  1  0  0  0  0
 15 32  1  0  0  0  0
 16 19  1  0  0  0  0
 16 33  1  0  0  0  0
 16 34  1  0  0  0  0
 17 35  1  0  0  0  0
 17 36  1  0  0  0  0
 18 21  1  0  0  0  0
 18 38  1  0  0  0  0
 22 24  2  0  0  0  0
 22 25  1  0  0  0  0
 23 29  1  0  0  0  0
 23 42  1  0  0  0  0
 23 43  1  0  0  0  0
 24 26  1  0  0  0  0
 24 44  1  0  0  0  0
 25 27  2  0  0  0  0
 25 45  1  0  0  0  0
 26 28  2  0  0  0  0
 26 46  1  0  0  0  0
 27 28  1  0  0  0  0
 27 47  1  0  0  0  0
 28 48  1  0  0  0  0
M  END
> <PUBCHEM_COMPOUND_CID>
126702

> <PUBCHEM_CONFORMER_RMSD>
1.2

> <PUBCHEM_CONFORMER_DIVERSEORDER>
1
53
14
79
80
20
64
42
78
51
71
47
36
4
66
60
72
76
15
5
23
24
26
81
18
48
70
27
7
54
43
44
12
45
9
21
22
38
63
33
46
67
25
40
73
61
50
19
39
77
59
30
57
32
41
62
31
65
83
28
11
68
74
13
56
10
35
34
55
37
82
8
52
75
29
49
69
17
2
3
16
58
6

> <PUBCHEM_MMFF94_PARTIAL_CHARGES>
39
1 -0.35
10 -0.57
11 -0.73
12 -0.73
13 -0.99
14 0.36
16 0.06
17 0.23
18 0.33
19 0.57
2 1.43
20 0.57
21 0.66
22 -0.01
23 0.36
24 -0.15
25 -0.15
26 -0.15
27 -0.15
28 -0.15
29 0.66
3 -0.57
37 0.37
39 0.37
4 -0.57
40 0.36
41 0.36
44 0.15
45 0.15
46 0.15
47 0.15
48 0.15
49 0.5
5 -0.65
50 0.5
6 -0.65
7 -0.65
8 -0.57
9 -0.65

> <PUBCHEM_EFFECTIVE_ROTOR_COUNT>
14

> <PUBCHEM_PHARMACOPHORE_FEATURES>
13
1 10 acceptor
1 11 donor
1 12 donor
1 13 cation
1 13 donor
1 3 acceptor
1 4 acceptor
1 7 acceptor
1 8 acceptor
1 9 acceptor
3 7 8 21 anion
3 9 10 29 anion
6 22 24 25 26 27 28 rings

> <PUBCHEM_HEAVY_ATOM_COUNT>
29

> <PUBCHEM_ATOM_DEF_STEREO_COUNT>
2

> <PUBCHEM_ATOM_UDEF_STEREO_COUNT>
0

> <PUBCHEM_BOND_DEF_STEREO_COUNT>
0

> <PUBCHEM_BOND_UDEF_STEREO_COUNT>
0

> <PUBCHEM_ISOTOPIC_ATOM_COUNT>
0

> <PUBCHEM_COMPONENT_COUNT>
1

> <PUBCHEM_CACTVS_TAUTO_COUNT>
4

> <PUBCHEM_CONFORMER_ID>
0001EEEE00000001

> <PUBCHEM_MMFF94_ENERGY>
38.2074

> <PUBCHEM_FEATURE_SELFOVERLAP>
66.091

> <PUBCHEM_SHAPE_FINGERPRINT>
11014199 57 17978795936655114994
11135609 187 18120927318640741165
12293681 4 18115595996609419682
12788726 201 18334001818040436570
13122387 1 17399803701078888549
13140716 1 18266459802245772002
13402501 40 18410857633798533481
14725015 67 18335977688238975843
14765038 42 18127987308107881433
14787075 74 18057874745770739916
19930381 70 10557141205418853817
20764821 26 18410014303874182481
21236236 1 18410854343711127454
3052486 1 18334575728934512880
392239 28 18412829071079770536
469060 322 17168140126894879998

> <PUBCHEM_SHAPE_MULTIPOLES>
542.61
10.38
5.54
1.4
14.83
0.42
-0.11
0.7
1.81
-5.41
0.27
-0.67
-0.04
0.78

> <PUBCHEM_SHAPE_SELFOVERLAP>
1076.661

> <PUBCHEM_SHAPE_VOLUME>
320.9

> <PUBCHEM_COORDINATE_TYPE>
2
5
10

$$$$
