126768
  -OEChem-03292013323D

 25 26  0     1  0  0  0  0  0999 V2000
   -3.3542   -1.0688   -0.8861 S   0  0  0  0  0  0  0  0  0  0  0  0
    2.2415    2.5735   -0.2180 F   0  0  0  0  0  0  0  0  0  0  0  0
   -1.7240    0.1269    0.8295 O   0  0  0  0  0  0  0  0  0  0  0  0
   -3.3865    1.9595   -0.4429 O   0  0  0  0  0  0  0  0  0  0  0  0
    1.2272   -2.7134    0.2969 O   0  0  0  0  0  0  0  0  0  0  0  0
    4.2533    0.7488   -0.0994 O   0  0  0  0  0  0  0  0  0  0  0  0
    0.3935   -0.5367    0.1147 N   0  0  0  0  0  0  0  0  0  0  0  0
    2.7329   -0.9899    0.0988 N   0  0  0  0  0  0  0  0  0  0  0  0
   -0.9885   -0.9190    0.1844 C   0  0  2  0  0  0  0  0  0  0  0  0
   -1.5828   -1.1253   -1.2008 C   0  0  0  0  0  0  0  0  0  0  0  0
   -3.1216   -0.1451    0.6560 C   0  0  1  0  0  0  0  0  0  0  0  0
   -3.8761    1.1714    0.6301 C   0  0  0  0  0  0  0  0  0  0  0  0
    1.4284   -1.5026    0.1787 C   0  0  0  0  0  0  0  0  0  0  0  0
    0.7045    0.8121   -0.0177 C   0  0  0  0  0  0  0  0  0  0  0  0
    1.9541    1.2655   -0.0905 C   0  0  0  0  0  0  0  0  0  0  0  0
    3.0982    0.3429   -0.0336 C   0  0  0  0  0  0  0  0  0  0  0  0
   -1.0777   -1.8325    0.7881 H   0  0  0  0  0  0  0  0  0  0  0  0
   -1.3316   -0.3076   -1.8843 H   0  0  0  0  0  0  0  0  0  0  0  0
   -1.2718   -2.0704   -1.6545 H   0  0  0  0  0  0  0  0  0  0  0  0
   -3.4611   -0.7602    1.4960 H   0  0  0  0  0  0  0  0  0  0  0  0
   -3.7100    1.7329    1.5554 H   0  0  0  0  0  0  0  0  0  0  0  0
   -4.9533    1.0264    0.5018 H   0  0  0  0  0  0  0  0  0  0  0  0
   -0.1146    1.5184   -0.0844 H   0  0  0  0  0  0  0  0  0  0  0  0
    3.4889   -1.6676    0.1429 H   0  0  0  0  0  0  0  0  0  0  0  0
   -2.4328    2.0865   -0.3033 H   0  0  0  0  0  0  0  0  0  0  0  0
  1 10  1  0  0  0  0
  1 11  1  0  0  0  0
  2 15  1  0  0  0  0
  3  9  1  0  0  0  0
  3 11  1  0  0  0  0
  4 12  1  0  0  0  0
  4 25  1  0  0  0  0
  5 13  2  0  0  0  0
  6 16  2  0  0  0  0
  7  9  1  0  0  0  0
  7 13  1  0  0  0  0
  7 14  1  0  0  0  0
  8 13  1  0  0  0  0
  8 16  1  0  0  0  0
  8 24  1  0  0  0  0
  9 10  1  0  0  0  0
  9 17  1  0  0  0  0
 10 18  1  0  0  0  0
 10 19  1  0  0  0  0
 11 12  1  0  0  0  0
 11 20  1  0  0  0  0
 12 21  1  0  0  0  0
 12 22  1  0  0  0  0
 14 15  2  0  0  0  0
 14 23  1  0  0  0  0
 15 16  1  0  0  0  0
M  END
> <PUBCHEM_COMPOUND_CID>
126768

> <PUBCHEM_CONFORMER_RMSD>
0.6

> <PUBCHEM_CONFORMER_DIVERSEORDER>
1
10
11
15
5
13
6
4
8
14
12
3
9
2
7

> <PUBCHEM_MMFF94_PARTIAL_CHARGES>
19
1 -0.46
10 0.23
11 0.51
12 0.28
13 0.69
14 -0.04
15 0.16
16 0.62
2 -0.15
23 0.15
24 0.37
25 0.4
3 -0.56
4 -0.68
5 -0.57
6 -0.57
7 -0.47
8 -0.49
9 0.58

> <PUBCHEM_EFFECTIVE_ROTOR_COUNT>
3

> <PUBCHEM_PHARMACOPHORE_FEATURES>
8
1 3 acceptor
1 4 acceptor
1 4 donor
1 5 acceptor
1 6 acceptor
1 8 donor
5 1 3 9 10 11 rings
6 7 8 13 14 15 16 rings

> <PUBCHEM_HEAVY_ATOM_COUNT>
16

> <PUBCHEM_ATOM_DEF_STEREO_COUNT>
2

> <PUBCHEM_ATOM_UDEF_STEREO_COUNT>
0

> <PUBCHEM_BOND_DEF_STEREO_COUNT>
0

> <PUBCHEM_BOND_UDEF_STEREO_COUNT>
0

> <PUBCHEM_ISOTOPIC_ATOM_COUNT>
0

> <PUBCHEM_COMPONENT_COUNT>
1

> <PUBCHEM_CACTVS_TAUTO_COUNT>
3

> <PUBCHEM_CONFORMER_ID>
0001EF3000000001

> <PUBCHEM_MMFF94_ENERGY>
34.8244

> <PUBCHEM_FEATURE_SELFOVERLAP>
40.602

> <PUBCHEM_SHAPE_FINGERPRINT>
10465860 228 18339649936104350936
10608611 8 18334577923647178201
10980938 120 18409731724953570634
11471102 20 18408601435616414798
12932764 1 17846493768569287563
14144814 61 18411135840094109299
15442244 35 18123469371610118499
15775835 57 18343588438611273481
16752209 62 17346018053217310431
16945 1 18408038520012416154
17802600 8 18341325690894523073
18186145 218 18343026631039973172
200 152 18270109232195193559
201361 129 18410013212757219331
20645476 183 18202560679397521455
21501502 16 18410003308910774911
21524375 3 18270121347654259638
22854114 111 18410579482904833969
23402539 116 15554455076065213592
23402655 69 18341611490882130421
23557571 272 17060058193818874787
23559900 14 17346599690873616344
23598291 2 18200303313005650567
25 1 18334014986441489218
2748010 2 17761220208211515502
305870 269 18408885122443520435
474 4 18335139838207415649
528886 8 18410009979010790570
53748568 43 18272930539823551063
58051976 100 18342459257570963063
7364860 26 18270404871499441910
77492 1 18131631209632097207
7832392 63 18340767035771059309
84936 182 18129376180135180008
90525 40 17918274272713155535

> <PUBCHEM_SHAPE_MULTIPOLES>
292.41
6.95
2.21
0.86
0.52
0.08
0.1
2.45
0.14
-0.41
0.1
0.62
-0.12
-0.68

> <PUBCHEM_SHAPE_SELFOVERLAP>
600.846

> <PUBCHEM_SHAPE_VOLUME>
169.4

> <PUBCHEM_COORDINATE_TYPE>
2
5
10

$$$$
