126778
  -OEChem-03292013323D

 49 51  0     0  0  0  0  0  0999 V2000
   -0.1096   -0.9623   -0.2183 O   0  0  0  0  0  0  0  0  0  0  0  0
   -4.8315    1.7476   -0.9270 O   0  0  0  0  0  0  0  0  0  0  0  0
   -7.1358    0.5297   -0.3678 O   0  0  0  0  0  0  0  0  0  0  0  0
    6.2717    0.8777    0.8337 N   0  0  0  0  0  0  0  0  0  0  0  0
    6.4595    0.0888   -1.2806 N   0  0  0  0  0  0  0  0  0  0  0  0
    6.8112    1.7504   -0.0290 N   0  0  0  0  0  0  0  0  0  0  0  0
    6.9421    1.3253   -1.2933 N   0  0  0  0  0  0  0  0  0  0  0  0
   -2.8922    0.6677   -0.0426 C   0  0  0  0  0  0  0  0  0  0  0  0
   -2.0707    1.8789   -0.3506 C   0  0  0  0  0  0  0  0  0  0  0  0
   -2.3008   -0.4481    0.5500 C   0  0  0  0  0  0  0  0  0  0  0  0
   -2.0484    2.8732    0.8166 C   0  0  0  0  0  0  0  0  0  0  0  0
   -4.2531    0.6556   -0.3488 C   0  0  0  0  0  0  0  0  0  0  0  0
   -0.8463   -0.4600    0.8889 C   0  0  0  0  0  0  0  0  0  0  0  0
   -5.0223   -0.4723   -0.0624 C   0  0  0  0  0  0  0  0  0  0  0  0
   -3.0702   -1.5758    0.8364 C   0  0  0  0  0  0  0  0  0  0  0  0
   -4.4310   -1.5879    0.5302 C   0  0  0  0  0  0  0  0  0  0  0  0
   -1.1847    4.0862    0.5091 C   0  0  0  0  0  0  0  0  0  0  0  0
   -6.4452   -0.5073   -0.3727 C   0  0  0  0  0  0  0  0  0  0  0  0
    1.2471   -1.0727   -0.0587 C   0  0  0  0  0  0  0  0  0  0  0  0
    3.9995   -1.2966    0.2635 C   0  0  0  0  0  0  0  0  0  0  0  0
    2.0252   -1.5572   -1.1040 C   0  0  0  0  0  0  0  0  0  0  0  0
    1.8314   -0.6989    1.1461 C   0  0  0  0  0  0  0  0  0  0  0  0
    5.4758   -1.4166    0.4363 C   0  0  0  0  0  0  0  0  0  0  0  0
    3.4060   -1.6696   -0.9423 C   0  0  0  0  0  0  0  0  0  0  0  0
    3.2123   -0.8113    1.3077 C   0  0  0  0  0  0  0  0  0  0  0  0
   -7.1230   -1.8289   -0.7127 C   0  0  0  0  0  0  0  0  0  0  0  0
    6.0830   -0.1156   -0.0076 C   0  0  0  0  0  0  0  0  0  0  0  0
   -1.0509    1.6070   -0.6469 H   0  0  0  0  0  0  0  0  0  0  0  0
   -2.4684    2.3816   -1.2425 H   0  0  0  0  0  0  0  0  0  0  0  0
   -3.0687    3.2112    1.0364 H   0  0  0  0  0  0  0  0  0  0  0  0
   -1.6776    2.3951    1.7303 H   0  0  0  0  0  0  0  0  0  0  0  0
   -0.5032    0.5359    1.1855 H   0  0  0  0  0  0  0  0  0  0  0  0
   -0.7155   -1.1219    1.7570 H   0  0  0  0  0  0  0  0  0  0  0  0
   -2.6237   -2.4526    1.2981 H   0  0  0  0  0  0  0  0  0  0  0  0
   -5.0063   -2.4756    0.7778 H   0  0  0  0  0  0  0  0  0  0  0  0
   -0.1472    3.7905    0.3239 H   0  0  0  0  0  0  0  0  0  0  0  0
   -1.5544    4.6170   -0.3739 H   0  0  0  0  0  0  0  0  0  0  0  0
   -1.1943    4.7828    1.3532 H   0  0  0  0  0  0  0  0  0  0  0  0
    1.5667   -1.8483   -2.0447 H   0  0  0  0  0  0  0  0  0  0  0  0
    1.2863   -0.3156    2.0010 H   0  0  0  0  0  0  0  0  0  0  0  0
   -5.7489    1.5612   -1.1806 H   0  0  0  0  0  0  0  0  0  0  0  0
    5.8763   -2.2438   -0.1616 H   0  0  0  0  0  0  0  0  0  0  0  0
    5.7360   -1.6322    1.4798 H   0  0  0  0  0  0  0  0  0  0  0  0
    4.0077   -2.0487   -1.7642 H   0  0  0  0  0  0  0  0  0  0  0  0
    3.6629   -0.5180    2.2525 H   0  0  0  0  0  0  0  0  0  0  0  0
   -7.4836   -2.3026    0.2035 H   0  0  0  0  0  0  0  0  0  0  0  0
   -6.4353   -2.4943   -1.2416 H   0  0  0  0  0  0  0  0  0  0  0  0
   -7.9684   -1.6344   -1.3797 H   0  0  0  0  0  0  0  0  0  0  0  0
    7.1037    2.6783    0.2581 H   0  0  0  0  0  0  0  0  0  0  0  0
  1 13  1  0  0  0  0
  1 19  1  0  0  0  0
  2 12  1  0  0  0  0
  2 41  1  0  0  0  0
  3 18  2  0  0  0  0
  4  6  1  0  0  0  0
  4 27  2  0  0  0  0
  5  7  2  0  0  0  0
  5 27  1  0  0  0  0
  6  7  1  0  0  0  0
  6 49  1  0  0  0  0
  8  9  1  0  0  0  0
  8 10  2  0  0  0  0
  8 12  1  0  0  0  0
  9 11  1  0  0  0  0
  9 28  1  0  0  0  0
  9 29  1  0  0  0  0
 10 13  1  0  0  0  0
 10 15  1  0  0  0  0
 11 17  1  0  0  0  0
 11 30  1  0  0  0  0
 11 31  1  0  0  0  0
 12 14  2  0  0  0  0
 13 32  1  0  0  0  0
 13 33  1  0  0  0  0
 14 16  1  0  0  0  0
 14 18  1  0  0  0  0
 15 16  2  0  0  0  0
 15 34  1  0  0  0  0
 16 35  1  0  0  0  0
 17 36  1  0  0  0  0
 17 37  1  0  0  0  0
 17 38  1  0  0  0  0
 18 26  1  0  0  0  0
 19 21  2  0  0  0  0
 19 22  1  0  0  0  0
 20 23  1  0  0  0  0
 20 24  2  0  0  0  0
 20 25  1  0  0  0  0
 21 24  1  0  0  0  0
 21 39  1  0  0  0  0
 22 25  2  0  0  0  0
 22 40  1  0  0  0  0
 23 27  1  0  0  0  0
 23 42  1  0  0  0  0
 23 43  1  0  0  0  0
 24 44  1  0  0  0  0
 25 45  1  0  0  0  0
 26 46  1  0  0  0  0
 26 47  1  0  0  0  0
 26 48  1  0  0  0  0
M  END
> <PUBCHEM_COMPOUND_CID>
126778

> <PUBCHEM_CONFORMER_RMSD>
1

> <PUBCHEM_CONFORMER_DIVERSEORDER>
1
35
9
52
43
39
47
78
89
99
8
38
93
14
46
69
85
51
7
59
81
90
70
25
50
16
58
30
87
19
65
48
60
75
10
42
88
41
67
26
13
21
95
31
17
77
71
62
94
98
37
86
2
3
68
80
56
92
73
63
28
100
97
44
72
49
61
83
40
54
4
82
91
12
55
45
57
76
84
27
22
29
15
32
64
66
24
79
6
11
33
96
5
20
36
23
34
53
18
74

> <PUBCHEM_MMFF94_PARTIAL_CHARGES>
33
1 -0.36
10 -0.14
12 0.08
13 0.42
14 0.09
15 -0.15
16 -0.15
18 0.42
19 0.08
2 -0.53
20 -0.14
21 -0.15
22 -0.15
23 0.32
24 -0.15
25 -0.15
26 0.06
27 0.34
3 -0.57
34 0.15
35 0.15
39 0.15
4 -0.71
40 0.15
41 0.45
44 0.15
45 0.15
49 0.27
5 -0.23
6 0.57
7 -0.42
8 -0.14
9 0.14

> <PUBCHEM_EFFECTIVE_ROTOR_COUNT>
8

> <PUBCHEM_PHARMACOPHORE_FEATURES>
8
1 1 acceptor
1 17 hydrophobe
1 2 donor
1 3 acceptor
3 4 5 27 cation
5 4 5 6 7 27 rings
6 19 20 21 22 24 25 rings
6 8 10 12 14 15 16 rings

> <PUBCHEM_HEAVY_ATOM_COUNT>
27

> <PUBCHEM_ATOM_DEF_STEREO_COUNT>
0

> <PUBCHEM_ATOM_UDEF_STEREO_COUNT>
0

> <PUBCHEM_BOND_DEF_STEREO_COUNT>
0

> <PUBCHEM_BOND_UDEF_STEREO_COUNT>
0

> <PUBCHEM_ISOTOPIC_ATOM_COUNT>
0

> <PUBCHEM_COMPONENT_COUNT>
1

> <PUBCHEM_CACTVS_TAUTO_COUNT>
18

> <PUBCHEM_CONFORMER_ID>
0001EF3A00000001

> <PUBCHEM_MMFF94_ENERGY>
72.8996

> <PUBCHEM_FEATURE_SELFOVERLAP>
40.596

> <PUBCHEM_SHAPE_FINGERPRINT>
10299344 5 12175625087917894454
10591671 39 18343023293855730574
10595046 47 18336546023801921890
10670039 82 18341060623452655460
11101153 10 18412830196087200696
11405975 8 10809642419109287430
11578080 2 15337732453014123649
11991303 11 17489304239532793502
12107183 9 17397256136748079714
12166972 35 17967251988096993333
12236239 1 17313100818011946971
12516196 113 18412824694565786611
12596602 18 17822008701207064362
12788726 201 18262231102612073515
13383665 225 18199209315920898741
13533116 47 17749662983493868354
13914758 101 15285349613888977591
14068700 686 18129949966216995687
1454969 45 18272088318179837711
14840074 17 17704067399982943861
15348495 7 11242268380487628374
15352257 5 11240001157040324628
15419008 145 18261379007519723392
15537594 2 13110960890381571884
15961568 22 18409171004748020460
16994733 274 15647606754144623261
17844677 252 18339088073521811130
20511986 3 17168412792746258579
21049683 271 18342457097086868937
21150785 3 18272369797404204974
21267235 1 13686299097506826395
21641784 216 17632029572054808736
21781055 127 8429485712466034139
221357 26 18201718449258896856
23035841 295 11815897855568056711
23559900 14 18262232322150689505
329604 57 18342455911897116600
335352 9 18410284810738457933
34797466 226 18202571678929767454
4073 2 17676212402802531986
4325135 7 18407760348382371598
5385378 56 8862397465579215821

> <PUBCHEM_SHAPE_MULTIPOLES>
518.12
20.01
2.86
1.11
9.96
3.42
-0.02
-0.96
-4.98
-1.42
0.22
0.82
-0.09
-0.28

> <PUBCHEM_SHAPE_SELFOVERLAP>
1112.502

> <PUBCHEM_SHAPE_VOLUME>
287.5

> <PUBCHEM_COORDINATE_TYPE>
2
5
10

$$$$
