126704
  -OEChem-03292013323D

 31 33  0     1  0  0  0  0  0999 V2000
    2.2467   -1.4634   -1.7565 O   0  0  0  0  0  0  0  0  0  0  0  0
    4.2590   -0.6234   -0.0894 O   0  0  0  0  0  0  0  0  0  0  0  0
    2.1520    2.3038    0.3323 O   0  0  0  0  0  0  0  0  0  0  0  0
   -0.0944   -0.9456    0.3558 N   0  0  0  0  0  0  0  0  0  0  0  0
   -2.1048   -1.9002    0.4488 N   0  0  0  0  0  0  0  0  0  0  0  0
   -0.7343    1.3242   -0.2244 N   0  0  0  0  0  0  0  0  0  0  0  0
   -3.1567    1.5342   -0.4337 N   0  0  0  0  0  0  0  0  0  0  0  0
   -4.6406   -0.3120   -0.0920 N   0  0  0  0  0  0  0  0  0  0  0  0
    1.3604   -0.8138    0.4209 C   0  0  1  0  0  0  0  0  0  0  0  0
    1.9946   -0.3601   -0.9045 C   0  0  1  0  0  0  0  0  0  0  0  0
    1.8615    0.1916    1.4851 C   0  0  0  0  0  0  0  0  0  0  0  0
    3.2827    0.3392   -0.4708 C   0  0  1  0  0  0  0  0  0  0  0  0
    2.8339    1.1290    0.7543 C   0  0  1  0  0  0  0  0  0  0  0  0
   -0.9922    0.0396    0.0632 C   0  0  0  0  0  0  0  0  0  0  0  0
   -0.8086   -2.0916    0.5792 C   0  0  0  0  0  0  0  0  0  0  0  0
   -2.2338   -0.5726    0.1264 C   0  0  0  0  0  0  0  0  0  0  0  0
   -3.3427    0.2257   -0.1355 C   0  0  0  0  0  0  0  0  0  0  0  0
   -1.8829    1.9953   -0.4592 C   0  0  0  0  0  0  0  0  0  0  0  0
    1.7328   -1.8135    0.6852 H   0  0  0  0  0  0  0  0  0  0  0  0
    1.3557    0.3353   -1.4568 H   0  0  0  0  0  0  0  0  0  0  0  0
    1.0527    0.7406    1.9783 H   0  0  0  0  0  0  0  0  0  0  0  0
    2.4039   -0.3667    2.2580 H   0  0  0  0  0  0  0  0  0  0  0  0
    3.6898    0.9585   -1.2761 H   0  0  0  0  0  0  0  0  0  0  0  0
    3.6637    1.4239    1.4035 H   0  0  0  0  0  0  0  0  0  0  0  0
    2.8806   -2.0491   -1.3086 H   0  0  0  0  0  0  0  0  0  0  0  0
   -0.3369   -3.0314    0.8322 H   0  0  0  0  0  0  0  0  0  0  0  0
    5.0358   -0.1364    0.2344 H   0  0  0  0  0  0  0  0  0  0  0  0
    1.3208    2.0501   -0.1009 H   0  0  0  0  0  0  0  0  0  0  0  0
   -1.7710    3.0469   -0.7011 H   0  0  0  0  0  0  0  0  0  0  0  0
   -4.7820   -1.2881    0.1303 H   0  0  0  0  0  0  0  0  0  0  0  0
   -5.4304    0.2884   -0.2861 H   0  0  0  0  0  0  0  0  0  0  0  0
  1 10  1  0  0  0  0
  1 25  1  0  0  0  0
  2 12  1  0  0  0  0
  2 27  1  0  0  0  0
  3 13  1  0  0  0  0
  3 28  1  0  0  0  0
  4  9  1  0  0  0  0
  4 14  1  0  0  0  0
  4 15  1  0  0  0  0
  5 15  2  0  0  0  0
  5 16  1  0  0  0  0
  6 14  2  0  0  0  0
  6 18  1  0  0  0  0
  7 17  1  0  0  0  0
  7 18  2  0  0  0  0
  8 17  1  0  0  0  0
  8 30  1  0  0  0  0
  8 31  1  0  0  0  0
  9 10  1  0  0  0  0
  9 11  1  0  0  0  0
  9 19  1  0  0  0  0
 10 12  1  0  0  0  0
 10 20  1  0  0  0  0
 11 13  1  0  0  0  0
 11 21  1  0  0  0  0
 11 22  1  0  0  0  0
 12 13  1  0  0  0  0
 12 23  1  0  0  0  0
 13 24  1  0  0  0  0
 14 16  1  0  0  0  0
 15 26  1  0  0  0  0
 16 17  2  0  0  0  0
 18 29  1  0  0  0  0
M  END
> <PUBCHEM_COMPOUND_CID>
126704

> <PUBCHEM_CONFORMER_RMSD>
0.6

> <PUBCHEM_CONFORMER_DIVERSEORDER>
4
1
7
9
10
5
3
11
8
2
6

> <PUBCHEM_MMFF94_PARTIAL_CHARGES>
24
1 -0.68
10 0.28
12 0.28
13 0.28
14 0.11
15 0.04
16 0.23
17 0.41
18 0.47
2 -0.68
25 0.4
26 0.15
27 0.4
28 0.4
29 0.15
3 -0.68
30 0.4
31 0.4
4 0.05
5 -0.57
6 -0.57
7 -0.62
8 -0.9
9 0.26

> <PUBCHEM_EFFECTIVE_ROTOR_COUNT>
2

> <PUBCHEM_PHARMACOPHORE_FEATURES>
14
1 1 acceptor
1 1 donor
1 2 acceptor
1 2 donor
1 3 acceptor
1 3 donor
1 8 cation
1 8 donor
3 4 5 15 cation
3 4 6 14 cation
3 6 7 18 cation
5 4 5 14 15 16 rings
5 9 10 11 12 13 rings
6 6 7 14 16 17 18 rings

> <PUBCHEM_HEAVY_ATOM_COUNT>
18

> <PUBCHEM_ATOM_DEF_STEREO_COUNT>
4

> <PUBCHEM_ATOM_UDEF_STEREO_COUNT>
0

> <PUBCHEM_BOND_DEF_STEREO_COUNT>
0

> <PUBCHEM_BOND_UDEF_STEREO_COUNT>
0

> <PUBCHEM_ISOTOPIC_ATOM_COUNT>
0

> <PUBCHEM_COMPONENT_COUNT>
1

> <PUBCHEM_CACTVS_TAUTO_COUNT>
3

> <PUBCHEM_CONFORMER_ID>
0001EEF000000004

> <PUBCHEM_MMFF94_ENERGY>
46.1725

> <PUBCHEM_FEATURE_SELFOVERLAP>
71.663

> <PUBCHEM_SHAPE_FINGERPRINT>
10498660 4 18188768345256319221
10608611 8 18411979204188515640
11132069 177 18340196509484804649
11640471 11 16805900587911319374
12236239 1 17022620879618613042
13134695 92 17203605957155125416
13538477 17 17313386763664282987
13581323 91 18113330899402230042
13764800 53 18113626689758165627
15219456 202 18272090551815811554
15775835 57 17895193260039953856
16945 1 18335129908332646259
17802600 8 18408599253762641256
18175812 5 18271526506403208102
18186145 218 18270400482248294921
200 152 16917068845446550758
20201158 50 18130793347585930462
20233049 118 18261109630616156184
20510252 161 18412262814038526049
20559304 39 18041548144743258322
20645476 183 17095527313823843331
21524375 3 18260828151007089107
22802520 49 18342187651996633626
23114952 82 18201174195113238820
23402539 116 18410564081046661150
23557571 272 18194411210406782890
23559900 14 18411136935548127206
2748010 2 18192151722875697595
4028521 119 18334849507403714813
4990 188 18202283576538963487
69090 78 18272647969872747055
7364860 26 18192425260442167666
77492 1 16950280728150948570
81228 2 18189345722031060075
9709674 26 18341899597008959879
9981440 41 16884720342233978852

> <PUBCHEM_SHAPE_MULTIPOLES>
327.92
6.66
2.03
1.03
1.28
0.28
0.09
0.71
0.63
0.48
-0.04
-0.8
-0.19
0.84

> <PUBCHEM_SHAPE_SELFOVERLAP>
718.335

> <PUBCHEM_SHAPE_VOLUME>
175.9

> <PUBCHEM_COORDINATE_TYPE>
2
5
10

$$$$
