126871
  -OEChem-03292013323D

 69 72  0     1  0  0  0  0  0999 V2000
    7.1833    0.1687   -0.6921 S   0  0  0  0  0  0  0  0  0  0  0  0
   -2.4583   -2.1175   -1.4527 O   0  0  0  0  0  0  0  0  0  0  0  0
   -5.8344    1.2508   -2.7943 O   0  0  0  0  0  0  0  0  0  0  0  0
    8.2533    1.1846    0.0029 O   0  0  0  0  0  0  0  0  0  0  0  0
    6.9879    0.5696   -2.0732 O   0  0  0  0  0  0  0  0  0  0  0  0
    7.5372   -1.1939   -0.3394 O   0  0  0  0  0  0  0  0  0  0  0  0
   -0.2568   -1.0090    0.0141 C   0  0  2  0  0  0  0  0  0  0  0  0
    0.6517    0.0420    0.6870 C   0  0  1  0  0  0  0  0  0  0  0  0
   -1.6847   -1.0227    0.5803 C   0  0  1  0  0  0  0  0  0  0  0  0
   -2.3216    0.3917    0.3625 C   0  0  1  0  0  0  0  0  0  0  0  0
   -3.7947    0.4603    0.9197 C   0  0  2  0  0  0  0  0  0  0  0  0
    1.9762   -0.2636   -0.0550 C   0  0  2  0  0  0  0  0  0  0  0  0
   -4.6521   -0.6678    0.2547 C   0  0  2  0  0  0  0  0  0  0  0  0
    0.0564    1.4246    0.3932 C   0  0  0  0  0  0  0  0  0  0  0  0
   -1.3996    1.5313    0.8795 C   0  0  0  0  0  0  0  0  0  0  0  0
   -2.5464   -2.1436   -0.0312 C   0  0  1  0  0  0  0  0  0  0  0  0
    0.5710   -2.2897    0.0757 C   0  0  0  0  0  0  0  0  0  0  0  0
    2.0233   -1.8086   -0.0978 C   0  0  0  0  0  0  0  0  0  0  0  0
   -4.0108   -2.0618    0.4089 C   0  0  0  0  0  0  0  0  0  0  0  0
   -4.4763    1.8335    0.6450 C   0  0  0  0  0  0  0  0  0  0  0  0
    0.8140   -0.1434    2.2162 C   0  0  0  0  0  0  0  0  0  0  0  0
    3.2413    0.3514    0.5258 C   0  0  1  0  0  0  0  0  0  0  0  0
   -4.9928   -0.3719   -1.2213 C   0  0  0  0  0  0  0  0  0  0  0  0
   -3.8195    0.2787    2.4613 C   0  0  0  0  0  0  0  0  0  0  0  0
   -4.7718    2.0981   -0.8250 C   0  0  0  0  0  0  0  0  0  0  0  0
   -5.6444    0.9948   -1.4067 C   0  0  1  0  0  0  0  0  0  0  0  0
    4.5026   -0.0118   -0.2826 C   0  0  0  0  0  0  0  0  0  0  0  0
    3.0980    1.8761    0.5964 C   0  0  0  0  0  0  0  0  0  0  0  0
    5.7678    0.6491    0.2483 C   0  0  0  0  0  0  0  0  0  0  0  0
   -0.3366   -0.7461   -1.0537 H   0  0  0  0  0  0  0  0  0  0  0  0
   -1.6290   -1.2269    1.6541 H   0  0  0  0  0  0  0  0  0  0  0  0
   -2.3735    0.5418   -0.7246 H   0  0  0  0  0  0  0  0  0  0  0  0
    1.8774    0.0833   -1.0954 H   0  0  0  0  0  0  0  0  0  0  0  0
   -5.6175   -0.7101    0.7810 H   0  0  0  0  0  0  0  0  0  0  0  0
    0.0798    1.6248   -0.6858 H   0  0  0  0  0  0  0  0  0  0  0  0
    0.5910    2.2432    0.8721 H   0  0  0  0  0  0  0  0  0  0  0  0
   -1.4078    1.5625    1.9733 H   0  0  0  0  0  0  0  0  0  0  0  0
   -1.7841    2.4996    0.5406 H   0  0  0  0  0  0  0  0  0  0  0  0
   -2.1586   -3.1190    0.2873 H   0  0  0  0  0  0  0  0  0  0  0  0
    0.2982   -3.0032   -0.7075 H   0  0  0  0  0  0  0  0  0  0  0  0
    0.4509   -2.7972    1.0395 H   0  0  0  0  0  0  0  0  0  0  0  0
    2.6459   -2.2281    0.7006 H   0  0  0  0  0  0  0  0  0  0  0  0
    2.4355   -2.1540   -1.0526 H   0  0  0  0  0  0  0  0  0  0  0  0
   -4.0751   -2.3640    1.4614 H   0  0  0  0  0  0  0  0  0  0  0  0
   -4.6026   -2.7921   -0.1573 H   0  0  0  0  0  0  0  0  0  0  0  0
   -3.8825    2.6584    1.0529 H   0  0  0  0  0  0  0  0  0  0  0  0
   -5.4323    1.8718    1.1867 H   0  0  0  0  0  0  0  0  0  0  0  0
    1.2980   -1.0914    2.4716 H   0  0  0  0  0  0  0  0  0  0  0  0
    1.4161    0.6551    2.6599 H   0  0  0  0  0  0  0  0  0  0  0  0
   -0.1428   -0.1294    2.7451 H   0  0  0  0  0  0  0  0  0  0  0  0
    3.4055   -0.0182    1.5460 H   0  0  0  0  0  0  0  0  0  0  0  0
   -4.1047   -0.4222   -1.8587 H   0  0  0  0  0  0  0  0  0  0  0  0
   -5.6686   -1.1442   -1.6110 H   0  0  0  0  0  0  0  0  0  0  0  0
   -4.8514    0.2490    2.8320 H   0  0  0  0  0  0  0  0  0  0  0  0
   -3.3399   -0.6446    2.7935 H   0  0  0  0  0  0  0  0  0  0  0  0
   -3.3248    1.1106    2.9729 H   0  0  0  0  0  0  0  0  0  0  0  0
   -5.2836    3.0624   -0.9332 H   0  0  0  0  0  0  0  0  0  0  0  0
   -3.8413    2.1979   -1.3967 H   0  0  0  0  0  0  0  0  0  0  0  0
   -6.6317    1.0052   -0.9313 H   0  0  0  0  0  0  0  0  0  0  0  0
    4.6429   -1.0994   -0.2777 H   0  0  0  0  0  0  0  0  0  0  0  0
    4.3552    0.2720   -1.3327 H   0  0  0  0  0  0  0  0  0  0  0  0
   -1.5992   -2.4885   -1.7118 H   0  0  0  0  0  0  0  0  0  0  0  0
    4.0273    2.3916    0.8425 H   0  0  0  0  0  0  0  0  0  0  0  0
    2.7308    2.2980   -0.3446 H   0  0  0  0  0  0  0  0  0  0  0  0
    2.4468    2.1723    1.4187 H   0  0  0  0  0  0  0  0  0  0  0  0
    5.9506    0.3839    1.2938 H   0  0  0  0  0  0  0  0  0  0  0  0
    5.7355    1.7359    0.1457 H   0  0  0  0  0  0  0  0  0  0  0  0
   -4.9630    1.2394   -3.2258 H   0  0  0  0  0  0  0  0  0  0  0  0
    8.1526    2.1361   -0.2360 H   0  0  0  0  0  0  0  0  0  0  0  0
  1  4  1  0  0  0  0
  1  5  2  0  0  0  0
  1  6  2  0  0  0  0
  1 29  1  0  0  0  0
  2 16  1  0  0  0  0
  2 62  1  0  0  0  0
  3 26  1  0  0  0  0
  3 68  1  0  0  0  0
  4 69  1  0  0  0  0
  7  8  1  0  0  0  0
  7  9  1  0  0  0  0
  7 17  1  0  0  0  0
  7 30  1  0  0  0  0
  8 12  1  0  0  0  0
  8 14  1  0  0  0  0
  8 21  1  0  0  0  0
  9 10  1  0  0  0  0
  9 16  1  0  0  0  0
  9 31  1  0  0  0  0
 10 11  1  0  0  0  0
 10 15  1  0  0  0  0
 10 32  1  0  0  0  0
 11 13  1  0  0  0  0
 11 20  1  0  0  0  0
 11 24  1  0  0  0  0
 12 18  1  0  0  0  0
 12 22  1  0  0  0  0
 12 33  1  0  0  0  0
 13 19  1  0  0  0  0
 13 23  1  0  0  0  0
 13 34  1  0  0  0  0
 14 15  1  0  0  0  0
 14 35  1  0  0  0  0
 14 36  1  0  0  0  0
 15 37  1  0  0  0  0
 15 38  1  0  0  0  0
 16 19  1  0  0  0  0
 16 39  1  0  0  0  0
 17 18  1  0  0  0  0
 17 40  1  0  0  0  0
 17 41  1  0  0  0  0
 18 42  1  0  0  0  0
 18 43  1  0  0  0  0
 19 44  1  0  0  0  0
 19 45  1  0  0  0  0
 20 25  1  0  0  0  0
 20 46  1  0  0  0  0
 20 47  1  0  0  0  0
 21 48  1  0  0  0  0
 21 49  1  0  0  0  0
 21 50  1  0  0  0  0
 22 27  1  0  0  0  0
 22 28  1  0  0  0  0
 22 51  1  0  0  0  0
 23 26  1  0  0  0  0
 23 52  1  0  0  0  0
 23 53  1  0  0  0  0
 24 54  1  0  0  0  0
 24 55  1  0  0  0  0
 24 56  1  0  0  0  0
 25 26  1  0  0  0  0
 25 57  1  0  0  0  0
 25 58  1  0  0  0  0
 26 59  1  0  0  0  0
 27 29  1  0  0  0  0
 27 60  1  0  0  0  0
 27 61  1  0  0  0  0
 28 63  1  0  0  0  0
 28 64  1  0  0  0  0
 28 65  1  0  0  0  0
 29 66  1  0  0  0  0
 29 67  1  0  0  0  0
M  END
> <PUBCHEM_COMPOUND_CID>
126871

> <PUBCHEM_CONFORMER_RMSD>
0.8

> <PUBCHEM_CONFORMER_DIVERSEORDER>
1
2
3

> <PUBCHEM_MMFF94_PARTIAL_CHARGES>
12
1 1.38
16 0.28
2 -0.68
26 0.28
29 0.11
3 -0.68
4 -0.68
5 -0.65
6 -0.65
62 0.4
68 0.4
69 0.5

> <PUBCHEM_EFFECTIVE_ROTOR_COUNT>
6.2

> <PUBCHEM_PHARMACOPHORE_FEATURES>
13
1 2 acceptor
1 2 donor
1 28 hydrophobe
1 3 acceptor
1 3 donor
1 4 acceptor
1 5 acceptor
1 6 acceptor
4 1 4 5 6 anion
5 7 8 12 17 18 rings
6 11 13 20 23 25 26 rings
6 7 8 9 10 14 15 rings
6 9 10 11 13 16 19 rings

> <PUBCHEM_HEAVY_ATOM_COUNT>
29

> <PUBCHEM_ATOM_DEF_STEREO_COUNT>
10

> <PUBCHEM_ATOM_UDEF_STEREO_COUNT>
0

> <PUBCHEM_BOND_DEF_STEREO_COUNT>
0

> <PUBCHEM_BOND_UDEF_STEREO_COUNT>
0

> <PUBCHEM_ISOTOPIC_ATOM_COUNT>
0

> <PUBCHEM_COMPONENT_COUNT>
1

> <PUBCHEM_CACTVS_TAUTO_COUNT>
1

> <PUBCHEM_CONFORMER_ID>
0001EF9700000001

> <PUBCHEM_MMFF94_ENERGY>
99.1262

> <PUBCHEM_FEATURE_SELFOVERLAP>
66.148

> <PUBCHEM_SHAPE_FINGERPRINT>
10076449 9 18410294744575826571
10411042 1 17908143536132523371
10763959 59 17967252022815817692
11007060 377 18189338029781368298
11135926 11 18341054025491416574
11315181 36 17346600785236046497
11578080 2 17459738225357812599
12011746 2 18131062736645859473
12236239 1 17967534580186979506
12788726 201 17130994140674725833
13583140 156 17530684308135780761
13690498 29 18128249189486336639
13782708 43 14261349154963969044
13914758 101 17676203559828131510
14251752 14 18334857212822879006
14856354 85 15574723512119427459
14931854 50 18129929110451879317
15183329 4 18342178865258307154
17093844 174 18040433321514841376
18681886 176 18342733065941490240
19958102 18 18130516249592533574
20567600 247 15339120117791076412
21033648 144 18262234405536719903
21033648 29 14851883733570806764
21236236 1 18272938245174078770
21267235 1 18270970158173515867
21279426 13 18343021129572131872
21709351 56 18409448124036724228
21756936 100 17385724720398261298
22122407 14 16298682641520002196
22393880 68 18271515498512993019
23402539 116 18411702106110267330
23559900 14 18131063891992465576
23569943 247 13469036618456557716
2838139 119 17385729127298717524
3004659 81 18409175390568758982
335352 9 18343304781516973765
34934 24 18334854974912913451
4015057 19 16917063420913243866
4058900 60 18041280980682474202
4938544 92 15791730785388946261
59755656 215 18272371949905227566
59755656 520 17458626739488121370
6328613 192 18186806907044173156

> <PUBCHEM_SHAPE_MULTIPOLES>
571.31
17.89
2.2
1.68
33.6
0.55
0.24
-5.29
8.37
-1.73
0.19
-2.01
-0.43
0.61

> <PUBCHEM_SHAPE_SELFOVERLAP>
1182.462

> <PUBCHEM_SHAPE_VOLUME>
330.8

> <PUBCHEM_COORDINATE_TYPE>
2
5
10

$$$$
