1268108
  -OEChem-03292013313D

 29 30  0     1  0  0  0  0  0999 V2000
    2.9222    2.9425    0.5443 I   0  0  0  0  0  0  0  0  0  0  0  0
   -1.4611    0.4999   -1.0670 O   0  0  0  0  0  0  0  0  0  0  0  0
   -1.7405   -2.2393    1.2305 O   0  0  0  0  0  0  0  0  0  0  0  0
   -3.7907   -1.1933   -0.2327 O   0  0  0  0  0  0  0  0  0  0  0  0
   -1.9885    3.1908   -0.4771 O   0  0  0  0  0  0  0  0  0  0  0  0
    1.0116   -2.7779   -0.6089 O   0  0  0  0  0  0  0  0  0  0  0  0
    4.4771    0.1147    0.2384 O   0  0  0  0  0  0  0  0  0  0  0  0
    0.4917   -0.5244   -0.2911 N   0  0  0  0  0  0  0  0  0  0  0  0
    2.7266   -1.3157   -0.1856 N   0  0  0  0  0  0  0  0  0  0  0  0
   -1.6546   -0.8818    0.8484 C   0  0  2  0  0  0  0  0  0  0  0  0
   -3.0116   -0.2834    0.5435 C   0  0  1  0  0  0  0  0  0  0  0  0
   -0.9227   -0.6905   -0.4688 C   0  0  1  0  0  0  0  0  0  0  0  0
   -2.6470    0.8982   -0.3448 C   0  0  1  0  0  0  0  0  0  0  0  0
   -2.3226    2.1629    0.4389 C   0  0  0  0  0  0  0  0  0  0  0  0
    1.3754   -1.6225   -0.3795 C   0  0  0  0  0  0  0  0  0  0  0  0
    0.9838    0.7496   -0.0269 C   0  0  0  0  0  0  0  0  0  0  0  0
    2.2779    1.0372    0.1584 C   0  0  0  0  0  0  0  0  0  0  0  0
    3.2729   -0.0672    0.0800 C   0  0  0  0  0  0  0  0  0  0  0  0
   -1.1785   -0.3225    1.6628 H   0  0  0  0  0  0  0  0  0  0  0  0
   -3.5909   -0.0240    1.4334 H   0  0  0  0  0  0  0  0  0  0  0  0
   -1.1008   -1.5297   -1.1519 H   0  0  0  0  0  0  0  0  0  0  0  0
   -3.4172    1.1103   -1.0950 H   0  0  0  0  0  0  0  0  0  0  0  0
   -1.4919    2.0316    1.1363 H   0  0  0  0  0  0  0  0  0  0  0  0
   -3.1994    2.4863    1.0096 H   0  0  0  0  0  0  0  0  0  0  0  0
   -0.8325   -2.5741    1.3241 H   0  0  0  0  0  0  0  0  0  0  0  0
   -3.3407   -1.3542   -1.0787 H   0  0  0  0  0  0  0  0  0  0  0  0
    0.2643    1.5520    0.0283 H   0  0  0  0  0  0  0  0  0  0  0  0
    3.3789   -2.0927   -0.2454 H   0  0  0  0  0  0  0  0  0  0  0  0
   -1.7995    3.9894    0.0445 H   0  0  0  0  0  0  0  0  0  0  0  0
  1 17  1  0  0  0  0
  2 12  1  0  0  0  0
  2 13  1  0  0  0  0
  3 10  1  0  0  0  0
  3 25  1  0  0  0  0
  4 11  1  0  0  0  0
  4 26  1  0  0  0  0
  5 14  1  0  0  0  0
  5 29  1  0  0  0  0
  6 15  2  0  0  0  0
  7 18  2  0  0  0  0
  8 12  1  0  0  0  0
  8 15  1  0  0  0  0
  8 16  1  0  0  0  0
  9 15  1  0  0  0  0
  9 18  1  0  0  0  0
  9 28  1  0  0  0  0
 10 11  1  0  0  0  0
 10 12  1  0  0  0  0
 10 19  1  0  0  0  0
 11 13  1  0  0  0  0
 11 20  1  0  0  0  0
 12 21  1  0  0  0  0
 13 14  1  0  0  0  0
 13 22  1  0  0  0  0
 14 23  1  0  0  0  0
 14 24  1  0  0  0  0
 16 17  2  0  0  0  0
 16 27  1  0  0  0  0
 17 18  1  0  0  0  0
M  END
> <PUBCHEM_COMPOUND_CID>
1268108

> <PUBCHEM_CONFORMER_RMSD>
0.6

> <PUBCHEM_CONFORMER_DIVERSEORDER>
1
9
15
8
13
6
7
12
10
4
14
3
11
2
5

> <PUBCHEM_MMFF94_PARTIAL_CHARGES>
23
1 -0.09
10 0.28
11 0.28
12 0.58
13 0.28
14 0.28
15 0.69
16 -0.04
17 0.1
18 0.62
2 -0.56
25 0.4
26 0.4
27 0.15
28 0.37
29 0.4
3 -0.68
4 -0.68
5 -0.68
6 -0.57
7 -0.57
8 -0.47
9 -0.49

> <PUBCHEM_EFFECTIVE_ROTOR_COUNT>
3

> <PUBCHEM_PHARMACOPHORE_FEATURES>
13
1 1 hydrophobe
1 2 acceptor
1 3 acceptor
1 3 donor
1 4 acceptor
1 4 donor
1 5 acceptor
1 5 donor
1 6 acceptor
1 7 acceptor
1 9 donor
5 2 10 11 12 13 rings
6 8 9 15 16 17 18 rings

> <PUBCHEM_HEAVY_ATOM_COUNT>
18

> <PUBCHEM_ATOM_DEF_STEREO_COUNT>
4

> <PUBCHEM_ATOM_UDEF_STEREO_COUNT>
0

> <PUBCHEM_BOND_DEF_STEREO_COUNT>
0

> <PUBCHEM_BOND_UDEF_STEREO_COUNT>
0

> <PUBCHEM_ISOTOPIC_ATOM_COUNT>
0

> <PUBCHEM_COMPONENT_COUNT>
1

> <PUBCHEM_CACTVS_TAUTO_COUNT>
3

> <PUBCHEM_CONFORMER_ID>
0013598C00000001

> <PUBCHEM_MMFF94_ENERGY>
48.8318

> <PUBCHEM_FEATURE_SELFOVERLAP>
65.991

> <PUBCHEM_SHAPE_FINGERPRINT>
10366900 7 18334864956195486418
10608611 8 18410572864244413484
10967382 1 18123750021921777940
1100329 8 16609982184138945850
12403259 226 18341328976422860496
12403260 363 18340475742525360394
12633257 1 18335703823300833360
13140716 1 18265902538686567667
13294875 104 17394143457615207721
13380535 76 18408884014347284759
13583140 156 17243825087366340160
14026960 21 18266743673998908720
14223421 5 18410299128719473664
14648413 74 18339643321944541656
15219456 202 18338802204028581246
15375462 6 18338800142570873152
15775835 57 17844812675124541356
16945 1 18336842938880067375
17802600 8 18413102883539289400
18186145 218 17917156086825837456
19049666 15 18265059020047464315
19591789 44 16173709190294244805
200 152 18202272624557040159
20510252 161 18409169879218188281
21501502 16 18337111150907999743
21524375 3 18058730350637360742
2334 1 17978794836958149796
23402539 116 18409160039585392951
23559900 14 18411412874069374170
2748010 2 18194688287331395924
3286 77 18335135406175589206
350125 39 18411704317781632512
7832392 63 18054509101701327136
81228 2 18041293105659395785
8809292 202 18263932033740495770
9709674 26 18411423899087184934

> <PUBCHEM_SHAPE_MULTIPOLES>
337.19
6.42
3.21
0.88
2.07
1.4
0.1
1.35
0.77
0.54
-0.04
-0.32
-0.04
0.83

> <PUBCHEM_SHAPE_SELFOVERLAP>
689.24

> <PUBCHEM_SHAPE_VOLUME>
199.2

> <PUBCHEM_COORDINATE_TYPE>
2
5
10

$$$$
