126890
  -OEChem-03292013323D

 50 50  0     1  0  0  0  0  0999 V2000
   -4.1143    0.7532   -0.0644 S   0  0  0  0  0  0  0  0  0  0  0  0
   -4.9869   -0.3707    0.7274 O   0  0  0  0  0  0  0  0  0  0  0  0
   -4.6380    0.9081   -1.4017 O   0  0  0  0  0  0  0  0  0  0  0  0
   -3.8782    1.8768    0.8123 O   0  0  0  0  0  0  0  0  0  0  0  0
   -1.0026    1.3434    1.7024 O   0  0  0  0  0  0  0  0  0  0  0  0
    3.2213   -1.3064    1.0586 O   0  0  0  0  0  0  0  0  0  0  0  0
    4.6615   -0.8983   -1.2838 O   0  0  0  0  0  0  0  0  0  0  0  0
   -2.6009   -0.1924   -0.1673 C   0  0  1  0  0  0  0  0  0  0  0  0
   -2.8270   -1.3680   -1.1332 C   0  0  0  0  0  0  0  0  0  0  0  0
   -1.6298   -2.2998   -1.3551 C   0  0  0  0  0  0  0  0  0  0  0  0
   -1.4443    0.7162   -0.5964 C   0  0  0  0  0  0  0  0  0  0  0  0
   -1.1744   -3.0237   -0.0869 C   0  0  0  0  0  0  0  0  0  0  0  0
   -0.9392    1.6351    0.5088 C   0  0  0  0  0  0  0  0  0  0  0  0
   -0.3002    2.9380    0.0605 C   0  0  0  0  0  0  0  0  0  0  0  0
    0.0227   -3.9327   -0.3681 C   0  0  0  0  0  0  0  0  0  0  0  0
    1.1186    3.0925    0.6056 C   0  0  0  0  0  0  0  0  0  0  0  0
    0.4580   -4.6830    0.8804 C   0  0  0  0  0  0  0  0  0  0  0  0
    2.0623    2.0267    0.1050 C   0  0  0  0  0  0  0  0  0  0  0  0
    2.2119    0.8368    0.8173 C   0  0  0  0  0  0  0  0  0  0  0  0
    2.7850    2.2314   -1.0704 C   0  0  0  0  0  0  0  0  0  0  0  0
    3.0840   -0.1486    0.3543 C   0  0  0  0  0  0  0  0  0  0  0  0
    3.6573    1.2462   -1.5332 C   0  0  0  0  0  0  0  0  0  0  0  0
    3.8067    0.0562   -0.8211 C   0  0  0  0  0  0  0  0  0  0  0  0
    2.4467   -1.4367    2.2491 C   0  0  0  0  0  0  0  0  0  0  0  0
   -2.4183   -0.5739    0.8436 H   0  0  0  0  0  0  0  0  0  0  0  0
   -3.6737   -1.9747   -0.7882 H   0  0  0  0  0  0  0  0  0  0  0  0
   -3.1166   -0.9820   -2.1191 H   0  0  0  0  0  0  0  0  0  0  0  0
   -1.7538    1.3273   -1.4519 H   0  0  0  0  0  0  0  0  0  0  0  0
   -0.5672    0.1393   -0.9014 H   0  0  0  0  0  0  0  0  0  0  0  0
   -1.9254   -3.0528   -2.0976 H   0  0  0  0  0  0  0  0  0  0  0  0
   -0.7922   -1.7566   -1.8043 H   0  0  0  0  0  0  0  0  0  0  0  0
   -0.8915   -2.2951    0.6810 H   0  0  0  0  0  0  0  0  0  0  0  0
   -2.0051   -3.6155    0.3160 H   0  0  0  0  0  0  0  0  0  0  0  0
   -0.9373    3.7569    0.4122 H   0  0  0  0  0  0  0  0  0  0  0  0
   -0.2876    2.9839   -1.0340 H   0  0  0  0  0  0  0  0  0  0  0  0
    0.8632   -3.3346   -0.7395 H   0  0  0  0  0  0  0  0  0  0  0  0
   -0.2327   -4.6563   -1.1510 H   0  0  0  0  0  0  0  0  0  0  0  0
    1.1075    3.0811    1.7033 H   0  0  0  0  0  0  0  0  0  0  0  0
    1.5067    4.0802    0.3261 H   0  0  0  0  0  0  0  0  0  0  0  0
   -0.3456   -5.3289    1.2486 H   0  0  0  0  0  0  0  0  0  0  0  0
    1.3261   -5.3125    0.6613 H   0  0  0  0  0  0  0  0  0  0  0  0
    0.7337   -3.9901    1.6809 H   0  0  0  0  0  0  0  0  0  0  0  0
   -4.7517   -0.5014    1.6761 H   0  0  0  0  0  0  0  0  0  0  0  0
    1.6366    0.7356    1.7306 H   0  0  0  0  0  0  0  0  0  0  0  0
    2.6753    3.1533   -1.6351 H   0  0  0  0  0  0  0  0  0  0  0  0
    4.2137    1.4186   -2.4507 H   0  0  0  0  0  0  0  0  0  0  0  0
    5.0726   -0.5831   -2.1070 H   0  0  0  0  0  0  0  0  0  0  0  0
    2.6761   -2.4183    2.6765 H   0  0  0  0  0  0  0  0  0  0  0  0
    1.3723   -1.4261    2.0356 H   0  0  0  0  0  0  0  0  0  0  0  0
    2.7307   -0.6903    2.9988 H   0  0  0  0  0  0  0  0  0  0  0  0
  1  2  1  0  0  0  0
  1  3  2  0  0  0  0
  1  4  2  0  0  0  0
  1  8  1  0  0  0  0
  2 43  1  0  0  0  0
  5 13  2  0  0  0  0
  6 21  1  0  0  0  0
  6 24  1  0  0  0  0
  7 23  1  0  0  0  0
  7 47  1  0  0  0  0
  8  9  1  0  0  0  0
  8 11  1  0  0  0  0
  8 25  1  0  0  0  0
  9 10  1  0  0  0  0
  9 26  1  0  0  0  0
  9 27  1  0  0  0  0
 10 12  1  0  0  0  0
 10 30  1  0  0  0  0
 10 31  1  0  0  0  0
 11 13  1  0  0  0  0
 11 28  1  0  0  0  0
 11 29  1  0  0  0  0
 12 15  1  0  0  0  0
 12 32  1  0  0  0  0
 12 33  1  0  0  0  0
 13 14  1  0  0  0  0
 14 16  1  0  0  0  0
 14 34  1  0  0  0  0
 14 35  1  0  0  0  0
 15 17  1  0  0  0  0
 15 36  1  0  0  0  0
 15 37  1  0  0  0  0
 16 18  1  0  0  0  0
 16 38  1  0  0  0  0
 16 39  1  0  0  0  0
 17 40  1  0  0  0  0
 17 41  1  0  0  0  0
 17 42  1  0  0  0  0
 18 19  2  0  0  0  0
 18 20  1  0  0  0  0
 19 21  1  0  0  0  0
 19 44  1  0  0  0  0
 20 22  2  0  0  0  0
 20 45  1  0  0  0  0
 21 23  2  0  0  0  0
 22 23  1  0  0  0  0
 22 46  1  0  0  0  0
 24 48  1  0  0  0  0
 24 49  1  0  0  0  0
 24 50  1  0  0  0  0
M  END
> <PUBCHEM_COMPOUND_CID>
126890

> <PUBCHEM_CONFORMER_RMSD>
1.4

> <PUBCHEM_CONFORMER_DIVERSEORDER>
1
63
15
26
10
46
62
13
71
4
61
8
70
53
47
7
57
28
42
49
60
38
40
14
17
21
36
18
37
44
76
50
33
48
65
52
45
24
77
43
68
23
6
3
20
30
19
31
27
54
29
16
12
69
9
25
34
41
32
5
56
78
55
51
35
58
22
72
2
59
73
66
39
74
75
11
64
67

> <PUBCHEM_MMFF94_PARTIAL_CHARGES>
24
1 1.38
11 0.06
13 0.45
14 0.06
16 0.14
18 -0.14
19 -0.15
2 -0.68
20 -0.15
21 0.08
22 -0.15
23 0.08
24 0.28
3 -0.65
4 -0.65
43 0.5
44 0.15
45 0.15
46 0.15
47 0.45
5 -0.57
6 -0.36
7 -0.53
8 0.11

> <PUBCHEM_EFFECTIVE_ROTOR_COUNT>
11

> <PUBCHEM_PHARMACOPHORE_FEATURES>
10
1 17 hydrophobe
1 2 acceptor
1 3 acceptor
1 4 acceptor
1 5 acceptor
1 6 acceptor
1 7 donor
4 1 2 3 4 anion
4 9 10 12 15 hydrophobe
6 18 19 20 21 22 23 rings

> <PUBCHEM_HEAVY_ATOM_COUNT>
24

> <PUBCHEM_ATOM_DEF_STEREO_COUNT>
0

> <PUBCHEM_ATOM_UDEF_STEREO_COUNT>
1

> <PUBCHEM_BOND_DEF_STEREO_COUNT>
0

> <PUBCHEM_BOND_UDEF_STEREO_COUNT>
0

> <PUBCHEM_ISOTOPIC_ATOM_COUNT>
0

> <PUBCHEM_COMPONENT_COUNT>
1

> <PUBCHEM_CACTVS_TAUTO_COUNT>
9

> <PUBCHEM_CONFORMER_ID>
0001EFAA00000001

> <PUBCHEM_MMFF94_ENERGY>
46.0911

> <PUBCHEM_FEATURE_SELFOVERLAP>
50.801

> <PUBCHEM_SHAPE_FINGERPRINT>
12553582 1 18412819179463931124
12592029 89 18411986832577811291
12788726 201 17702965693690852193
13122387 1 17187284569812706982
14178342 30 17763164131278380249
14251757 5 18051150360140342222
16752209 62 18272365322312195513
17093844 170 18202003201369429278
17349148 13 17632861945132634221
17859628 97 18410860940838994351
19319366 153 17967816089233544762
19591789 44 18339360881106747407
20465049 17 18335997401680441614
20600515 1 18058427911693384672
21197605 99 13363165188968304594
21315764 21 17462526664055082799
23558518 356 17614000015967363272
23559900 14 17846778559097713952
238 59 18041287616538360568
3187 122 17182475323227662339
3298306 158 18337664227343362271
57091435 65 18121778335654309562
9709674 26 17911515720602469981

> <PUBCHEM_SHAPE_MULTIPOLES>
462.54
8.23
4.83
1.55
2.9
5.32
0.23
-2.12
-1.97
0.12
0.77
-0.75
0.31
-1.16

> <PUBCHEM_SHAPE_SELFOVERLAP>
917.014

> <PUBCHEM_SHAPE_VOLUME>
275.7

> <PUBCHEM_COORDINATE_TYPE>
2
5
10

$$$$
