126870
  -OEChem-03292013323D

 28 30  0     1  0  0  0  0  0999 V2000
    4.2446    2.1460   -0.2322 Cl  0  0  0  0  0  0  0  0  0  0  0  0
   -2.3841    0.0892    1.0789 O   0  0  0  0  0  0  0  0  0  0  0  0
   -3.0775    0.0074   -1.1620 O   0  0  0  0  0  0  0  0  0  0  0  0
   -5.7570    0.0028   -0.2948 O   0  0  0  0  0  0  0  0  0  0  0  0
   -0.1993    0.2271    0.1929 N   0  0  0  0  0  0  0  0  0  0  0  0
    1.0550    2.0695    0.0109 N   0  0  0  0  0  0  0  0  0  0  0  0
    1.5478   -1.4617    0.1411 N   0  0  0  0  0  0  0  0  0  0  0  0
    3.7594   -0.4524   -0.0728 N   0  0  0  0  0  0  0  0  0  0  0  0
    3.4826   -2.7749    0.0585 N   0  0  0  0  0  0  0  0  0  0  0  0
   -1.3937   -0.6095    0.3207 C   0  0  2  0  0  0  0  0  0  0  0  0
   -2.0551   -0.9723   -0.9922 C   0  0  0  0  0  0  0  0  0  0  0  0
   -3.4429    0.3958    0.1652 C   0  0  1  0  0  0  0  0  0  0  0  0
    1.1014   -0.1969    0.1150 C   0  0  0  0  0  0  0  0  0  0  0  0
   -4.7040   -0.3359    0.5937 C   0  0  0  0  0  0  0  0  0  0  0  0
   -0.1695    1.5993    0.1248 C   0  0  0  0  0  0  0  0  0  0  0  0
    1.8595    0.9576    0.0036 C   0  0  0  0  0  0  0  0  0  0  0  0
    3.2382    0.7980   -0.0923 C   0  0  0  0  0  0  0  0  0  0  0  0
    2.8947   -1.4892    0.0410 C   0  0  0  0  0  0  0  0  0  0  0  0
   -1.0860   -1.5016    0.8770 H   0  0  0  0  0  0  0  0  0  0  0  0
   -1.3811   -0.9744   -1.8536 H   0  0  0  0  0  0  0  0  0  0  0  0
   -2.5417   -1.9517   -0.9261 H   0  0  0  0  0  0  0  0  0  0  0  0
   -3.6151    1.4773    0.1622 H   0  0  0  0  0  0  0  0  0  0  0  0
   -4.9861   -0.0597    1.6149 H   0  0  0  0  0  0  0  0  0  0  0  0
   -4.5611   -1.4212    0.5614 H   0  0  0  0  0  0  0  0  0  0  0  0
   -1.0648    2.2047    0.1580 H   0  0  0  0  0  0  0  0  0  0  0  0
   -6.5485   -0.4765    0.0042 H   0  0  0  0  0  0  0  0  0  0  0  0
    2.8911   -3.5901    0.1413 H   0  0  0  0  0  0  0  0  0  0  0  0
    4.4869   -2.8626   -0.0129 H   0  0  0  0  0  0  0  0  0  0  0  0
  1 17  1  0  0  0  0
  2 10  1  0  0  0  0
  2 12  1  0  0  0  0
  3 11  1  0  0  0  0
  3 12  1  0  0  0  0
  4 14  1  0  0  0  0
  4 26  1  0  0  0  0
  5 10  1  0  0  0  0
  5 13  1  0  0  0  0
  5 15  1  0  0  0  0
  6 15  2  0  0  0  0
  6 16  1  0  0  0  0
  7 13  1  0  0  0  0
  7 18  2  0  0  0  0
  8 17  2  0  0  0  0
  8 18  1  0  0  0  0
  9 18  1  0  0  0  0
  9 27  1  0  0  0  0
  9 28  1  0  0  0  0
 10 11  1  0  0  0  0
 10 19  1  0  0  0  0
 11 20  1  0  0  0  0
 11 21  1  0  0  0  0
 12 14  1  0  0  0  0
 12 22  1  0  0  0  0
 13 16  2  0  0  0  0
 14 23  1  0  0  0  0
 14 24  1  0  0  0  0
 15 25  1  0  0  0  0
 16 17  1  0  0  0  0
M  END
> <PUBCHEM_COMPOUND_CID>
126870

> <PUBCHEM_CONFORMER_RMSD>
0.6

> <PUBCHEM_CONFORMER_DIVERSEORDER>
1
2
8
3
4
7
10
6
5
9

> <PUBCHEM_MMFF94_PARTIAL_CHARGES>
22
1 -0.18
10 0.54
11 0.28
12 0.56
13 0.11
14 0.28
15 0.04
16 0.23
17 0.49
18 0.72
2 -0.56
25 0.15
26 0.4
27 0.4
28 0.4
3 -0.56
4 -0.68
5 0.05
6 -0.57
7 -0.57
8 -0.62
9 -0.9

> <PUBCHEM_EFFECTIVE_ROTOR_COUNT>
3

> <PUBCHEM_PHARMACOPHORE_FEATURES>
11
1 2 acceptor
1 3 acceptor
1 4 acceptor
1 4 donor
1 8 acceptor
1 9 donor
3 5 6 15 cation
4 7 8 9 18 cation
5 2 3 10 11 12 rings
5 5 6 13 15 16 rings
6 7 8 13 16 17 18 rings

> <PUBCHEM_HEAVY_ATOM_COUNT>
18

> <PUBCHEM_ATOM_DEF_STEREO_COUNT>
2

> <PUBCHEM_ATOM_UDEF_STEREO_COUNT>
0

> <PUBCHEM_BOND_DEF_STEREO_COUNT>
0

> <PUBCHEM_BOND_UDEF_STEREO_COUNT>
0

> <PUBCHEM_ISOTOPIC_ATOM_COUNT>
0

> <PUBCHEM_COMPONENT_COUNT>
1

> <PUBCHEM_CACTVS_TAUTO_COUNT>
3

> <PUBCHEM_CONFORMER_ID>
0001EF9600000001

> <PUBCHEM_MMFF94_ENERGY>
41.3557

> <PUBCHEM_FEATURE_SELFOVERLAP>
55.999

> <PUBCHEM_SHAPE_FINGERPRINT>
11471102 20 18408886256309475384
12107183 9 17838345077510871497
12236239 1 17918277558389120435
12553582 1 18268422443708670246
13140716 1 18051126188338960208
13760787 19 18130226072320815551
13760787 5 18343015584579227951
14178342 30 18055051414547855658
14251717 144 18411981360246215410
14576447 43 18129088103772337511
15196674 1 18410575042141089657
15375358 24 18113901597439814712
15375462 189 18202001040320221848
15442244 35 18268996384145350192
16945 1 18410013277719759968
17834072 33 18342457088512232167
1813 80 18056774122094477422
18186145 218 17458626670514955674
19784866 34 18194402414804468612
200 152 18272647917990072592
20279233 1 17822015327893007642
20281475 54 18343576347925011399
20645477 70 18409729538920926358
21267235 1 18340778056768060070
21501502 16 18268998587806574800
23402539 116 14562803413297523939
23402655 69 18413386549329083717
23557571 272 16949998119160454060
23559900 14 18334294258479765874
25 1 18263078963041313812
2748010 2 18265325111047419740
3071541 37 18335145323576965460
33824 294 18408604777533611362
34934 24 18271522108573007204
4072396 5 18335407003012687264
42630746 31 18413107277812741240
449060 62 18341615949353491784
474 4 18266462190411599784
5104073 3 18410295774687788881
522135 26 18410293605391413967
5281201 14 17967533437066361101
7364860 26 18413109446913618058
77492 1 17846500330899397123
77779 3 18408887334889449227
8272917 22 18411986861967342574

> <PUBCHEM_SHAPE_MULTIPOLES>
329.79
9.35
2.06
0.79
8.07
0.46
-0.07
-0.18
-0.3
-3.28
-0.02
0.55
0.04
-0.27

> <PUBCHEM_SHAPE_SELFOVERLAP>
708.64

> <PUBCHEM_SHAPE_VOLUME>
184.1

> <PUBCHEM_COORDINATE_TYPE>
2
5
10

$$$$
