126893
  -OEChem-03292013323D

 39 39  0     0  0  0  0  0  0999 V2000
   -3.9011   -1.0693   -0.1738 O   0  0  0  0  0  0  0  0  0  0  0  0
    3.0897    1.1195   -1.3851 O   0  0  0  0  0  0  0  0  0  0  0  0
   -5.1728    0.5659    0.6036 O   0  5  0  0  0  0  0  0  0  0  0  0
   -5.8517   -0.5348   -1.2128 O   0  0  0  0  0  0  0  0  0  0  0  0
    2.3307    0.5351    0.7202 N   0  0  0  0  0  0  0  0  0  0  0  0
   -5.0821   -0.2849   -0.2822 N   0  3  0  0  0  0  0  0  0  0  0  0
    5.2042   -0.5173   -1.3562 N   0  0  0  0  0  0  0  0  0  0  0  0
   -0.0405    0.6561    0.1609 C   0  0  0  0  0  0  0  0  0  0  0  0
   -0.3595   -0.5964    0.9892 C   0  0  0  0  0  0  0  0  0  0  0  0
   -1.2523    1.5962    0.0995 C   0  0  0  0  0  0  0  0  0  0  0  0
   -1.6059   -1.3092    0.4728 C   0  0  0  0  0  0  0  0  0  0  0  0
   -2.4963    0.8774   -0.4141 C   0  0  0  0  0  0  0  0  0  0  0  0
   -2.8076   -0.3700    0.4103 C   0  0  0  0  0  0  0  0  0  0  0  0
    1.1772    1.3825    0.7291 C   0  0  0  0  0  0  0  0  0  0  0  0
    4.3902   -0.5157   -0.1335 C   0  0  0  0  0  0  0  0  0  0  0  0
    3.2201    0.4615   -0.3526 C   0  0  0  0  0  0  0  0  0  0  0  0
    3.8802   -1.9411    0.0980 C   0  0  0  0  0  0  0  0  0  0  0  0
    5.2777   -0.0555    1.0268 C   0  0  0  0  0  0  0  0  0  0  0  0
    0.1911    0.3326   -0.8638 H   0  0  0  0  0  0  0  0  0  0  0  0
    0.4773   -1.3038    0.9624 H   0  0  0  0  0  0  0  0  0  0  0  0
   -0.5109   -0.3216    2.0410 H   0  0  0  0  0  0  0  0  0  0  0  0
   -1.4580    2.0075    1.0961 H   0  0  0  0  0  0  0  0  0  0  0  0
   -1.0299    2.4469   -0.5559 H   0  0  0  0  0  0  0  0  0  0  0  0
   -1.4103   -1.7278   -0.5232 H   0  0  0  0  0  0  0  0  0  0  0  0
   -1.8400   -2.1682    1.1134 H   0  0  0  0  0  0  0  0  0  0  0  0
   -3.3153    1.6025   -0.4271 H   0  0  0  0  0  0  0  0  0  0  0  0
   -2.3469    0.5917   -1.4642 H   0  0  0  0  0  0  0  0  0  0  0  0
   -3.0543   -0.0930    1.4447 H   0  0  0  0  0  0  0  0  0  0  0  0
    1.0035    1.6894    1.7665 H   0  0  0  0  0  0  0  0  0  0  0  0
    1.3902    2.2844    0.1443 H   0  0  0  0  0  0  0  0  0  0  0  0
    2.5030   -0.0281    1.5469 H   0  0  0  0  0  0  0  0  0  0  0  0
    3.1919   -2.2522   -0.6970 H   0  0  0  0  0  0  0  0  0  0  0  0
    4.7063   -2.6612    0.1304 H   0  0  0  0  0  0  0  0  0  0  0  0
    3.3382   -2.0288    1.0461 H   0  0  0  0  0  0  0  0  0  0  0  0
    4.7445   -0.0986    1.9831 H   0  0  0  0  0  0  0  0  0  0  0  0
    5.6082    0.9810    0.8890 H   0  0  0  0  0  0  0  0  0  0  0  0
    6.1701   -0.6851    1.1229 H   0  0  0  0  0  0  0  0  0  0  0  0
    5.5419    0.4240   -1.5529 H   0  0  0  0  0  0  0  0  0  0  0  0
    4.6357   -0.7975   -2.1545 H   0  0  0  0  0  0  0  0  0  0  0  0
  1  6  1  0  0  0  0
  1 13  1  0  0  0  0
  2 16  2  0  0  0  0
  3  6  1  0  0  0  0
  4  6  2  0  0  0  0
  5 14  1  0  0  0  0
  5 16  1  0  0  0  0
  5 31  1  0  0  0  0
  7 15  1  0  0  0  0
  7 38  1  0  0  0  0
  7 39  1  0  0  0  0
  8  9  1  0  0  0  0
  8 10  1  0  0  0  0
  8 14  1  0  0  0  0
  8 19  1  0  0  0  0
  9 11  1  0  0  0  0
  9 20  1  0  0  0  0
  9 21  1  0  0  0  0
 10 12  1  0  0  0  0
 10 22  1  0  0  0  0
 10 23  1  0  0  0  0
 11 13  1  0  0  0  0
 11 24  1  0  0  0  0
 11 25  1  0  0  0  0
 12 13  1  0  0  0  0
 12 26  1  0  0  0  0
 12 27  1  0  0  0  0
 13 28  1  0  0  0  0
 14 29  1  0  0  0  0
 14 30  1  0  0  0  0
 15 16  1  0  0  0  0
 15 17  1  0  0  0  0
 15 18  1  0  0  0  0
 17 32  1  0  0  0  0
 17 33  1  0  0  0  0
 17 34  1  0  0  0  0
 18 35  1  0  0  0  0
 18 36  1  0  0  0  0
 18 37  1  0  0  0  0
M  CHG  2   3  -1   6   1
M  END
> <PUBCHEM_COMPOUND_CID>
126893

> <PUBCHEM_CONFORMER_RMSD>
0.8

> <PUBCHEM_CONFORMER_DIVERSEORDER>
1
83
128
76
175
110
143
78
144
168
127
119
106
176
73
157
141
7
55
130
29
148
169
28
54
114
109
172
181
115
80
170
164
86
98
77
87
95
16
111
93
32
153
112
34
56
137
52
10
44
125
107
91
33
131
89
51
23
94
47
13
156
102
101
50
39
26
88
61
64
152
167
171
108
74
25
19
97
62
138
158
150
165
100
79
35
120
43
21
124
113
121
70
31
60
81
17
126
37
90
96
42
134
57
129
166
155
174
18
92
159
20
38
41
123
149
147
9
139
82
30
132
104
48
58
2
71
85
162
69
116
63
40
177
178
14
103
53
46
135
4
142
68
15
5
180
117
179
99
75
66
146
84
173
118
140
11
8
6
154
133
163
151
161
105
49
67
72
145
59
12
3
24
136
45
65
160
27
36
22
122

> <PUBCHEM_MMFF94_PARTIAL_CHARGES>
14
1 -0.27
13 0.28
14 0.3
15 0.33
16 0.57
2 -0.57
3 -0.52
31 0.37
38 0.36
39 0.36
4 -0.52
5 -0.73
6 1.03
7 -0.99

> <PUBCHEM_EFFECTIVE_ROTOR_COUNT>
7.2

> <PUBCHEM_PHARMACOPHORE_FEATURES>
8
1 2 acceptor
1 3 acceptor
1 4 acceptor
1 5 donor
1 7 cation
1 7 donor
3 15 17 18 hydrophobe
6 8 9 10 11 12 13 rings

> <PUBCHEM_HEAVY_ATOM_COUNT>
18

> <PUBCHEM_ATOM_DEF_STEREO_COUNT>
0

> <PUBCHEM_ATOM_UDEF_STEREO_COUNT>
0

> <PUBCHEM_BOND_DEF_STEREO_COUNT>
0

> <PUBCHEM_BOND_UDEF_STEREO_COUNT>
0

> <PUBCHEM_ISOTOPIC_ATOM_COUNT>
0

> <PUBCHEM_COMPONENT_COUNT>
1

> <PUBCHEM_CACTVS_TAUTO_COUNT>
2

> <PUBCHEM_CONFORMER_ID>
0001EFAD00000001

> <PUBCHEM_MMFF94_ENERGY>
33.0059

> <PUBCHEM_FEATURE_SELFOVERLAP>
40.666

> <PUBCHEM_SHAPE_FINGERPRINT>
10354089 29 10231756687025223302
106641 1 16200140032987899722
12251169 10 11384113038059635496
12555020 224 18412257359609401679
12596602 18 16128655258084436506
12670543 26 18261664901347225253
12730499 353 13118283650940096672
12815109 37 18272931635424950058
13081056 2 10737282446499199890
13533116 47 12607416463624891684
13862211 1 18409724062995736747
14115302 16 18187652439695604316
14123238 8 11024108750407129433
14251752 14 17241032224140260812
14251764 18 17560804355600221817
14252887 29 16917074352227542508
14341114 176 11167946853421780614
14366163 111 16370724854947265324
14911166 2 18260264174756560833
15048467 5 12829481542037806047
15099037 51 18407758153469375939
15183329 4 18260267430262740981
16752209 62 18335415738274456441
17834072 8 18259700112501600847
17834076 25 12324239460304959273
18186145 218 16588582118733727648
19141452 34 18060416954187660927
19489759 90 15913333468606926139
200 152 17561081410575465417
20369508 70 18201996651285762064
20374829 77 18409726283319618971
20645477 70 18060139851629919956
20871999 31 18041000613590807324
21250096 35 18272932709029689002
21285901 2 18114744828516939702
21637258 2 16917054591188431191
21652331 79 10375868567691684586
2215653 11 18413385436737284359
22224240 67 16486963021724636066
23402539 116 18130784547504090861
23536379 177 17203610385139690041
23557571 272 18271815566619490476
23559900 14 18263645224620632048
239999 70 17989491819046363726
26918003 58 15554447400774000078
2871803 45 18409170987546772626
3004659 81 18260551126022308668
3286 77 17560798866115429769
4047638 21 8142086459951660840
449060 50 8142091965714638689
465052 167 17917715737722240407
4990 188 18113054947721878595
542803 24 12973601136148727097
58051976 100 18334299802887029422
59682541 35 17560224934668935842
960060 61 18409735083881584582

> <PUBCHEM_SHAPE_MULTIPOLES>
332.01
12.82
1.49
1.06
3.92
0.12
-0.16
3.24
-2.73
-0.38
0.04
-0.58
-0.05
-0.17

> <PUBCHEM_SHAPE_SELFOVERLAP>
656.321

> <PUBCHEM_SHAPE_VOLUME>
197.1

> <PUBCHEM_COORDINATE_TYPE>
2
5
10

$$$$
