126831
  -OEChem-03292013323D

 44 46  0     1  0  0  0  0  0999 V2000
    3.9612   -0.3278   -0.8313 O   0  0  0  0  0  0  0  0  0  0  0  0
    2.5110    2.5985    0.6495 O   0  0  0  0  0  0  0  0  0  0  0  0
    5.0313    2.4364   -0.3801 O   0  0  0  0  0  0  0  0  0  0  0  0
    5.5834   -2.1970    0.4885 O   0  0  0  0  0  0  0  0  0  0  0  0
    0.2265    1.2933   -1.3904 O   0  0  0  0  0  0  0  0  0  0  0  0
   -1.5096   -2.7827    0.0994 O   0  0  0  0  0  0  0  0  0  0  0  0
   -2.0626    1.0635    0.9003 O   0  0  0  0  0  0  0  0  0  0  0  0
    1.6549   -0.2811   -0.4521 N   0  0  0  0  0  0  0  0  0  0  0  0
   -0.6936   -0.7221   -0.6680 N   0  0  0  0  0  0  0  0  0  0  0  0
    3.1435    1.3352    0.6456 C   0  0  2  0  0  0  0  0  0  0  0  0
    4.6517    1.4476    0.5768 C   0  0  1  0  0  0  0  0  0  0  0  0
    2.8303    0.5286   -0.6029 C   0  0  1  0  0  0  0  0  0  0  0  0
    5.0484    0.0848    0.0257 C   0  0  1  0  0  0  0  0  0  0  0  0
    5.2281   -0.9727    1.1066 C   0  0  0  0  0  0  0  0  0  0  0  0
    0.3843    0.1818   -0.8760 C   0  0  0  0  0  0  0  0  0  0  0  0
    1.7908   -1.5355    0.1230 C   0  0  0  0  0  0  0  0  0  0  0  0
    0.7798   -2.3797    0.3184 C   0  0  0  0  0  0  0  0  0  0  0  0
   -0.5860   -1.9937   -0.0891 C   0  0  0  0  0  0  0  0  0  0  0  0
   -2.0208   -0.2901   -1.0921 C   0  0  0  0  0  0  0  0  0  0  0  0
   -2.6943    0.4253    0.0612 C   0  0  0  0  0  0  0  0  0  0  0  0
   -4.1799    0.3848    0.1498 C   0  0  0  0  0  0  0  0  0  0  0  0
   -4.9113    0.2931   -1.0144 C   0  0  0  0  0  0  0  0  0  0  0  0
   -4.7715    0.4406    1.3929 C   0  0  0  0  0  0  0  0  0  0  0  0
   -6.3032    0.2555   -0.9313 C   0  0  0  0  0  0  0  0  0  0  0  0
   -6.1634    0.4029    1.4761 C   0  0  0  0  0  0  0  0  0  0  0  0
   -6.9292    0.3105    0.3140 C   0  0  0  0  0  0  0  0  0  0  0  0
    2.8539    0.8005    1.5583 H   0  0  0  0  0  0  0  0  0  0  0  0
    5.1200    1.7087    1.5292 H   0  0  0  0  0  0  0  0  0  0  0  0
    2.7090    1.1770   -1.4789 H   0  0  0  0  0  0  0  0  0  0  0  0
    5.9449    0.1332   -0.6029 H   0  0  0  0  0  0  0  0  0  0  0  0
    4.3265   -1.1302    1.7032 H   0  0  0  0  0  0  0  0  0  0  0  0
    6.0393   -0.6841    1.7832 H   0  0  0  0  0  0  0  0  0  0  0  0
    1.5519    2.4447    0.6068 H   0  0  0  0  0  0  0  0  0  0  0  0
    4.7141    2.1665   -1.2580 H   0  0  0  0  0  0  0  0  0  0  0  0
    2.7731   -1.8568    0.4316 H   0  0  0  0  0  0  0  0  0  0  0  0
    0.9290   -3.3528    0.7710 H   0  0  0  0  0  0  0  0  0  0  0  0
   -1.9502    0.3973   -1.9410 H   0  0  0  0  0  0  0  0  0  0  0  0
   -2.6026   -1.1689   -1.3875 H   0  0  0  0  0  0  0  0  0  0  0  0
    5.7060   -2.8511    1.1975 H   0  0  0  0  0  0  0  0  0  0  0  0
   -4.4497    0.2660   -1.9961 H   0  0  0  0  0  0  0  0  0  0  0  0
   -4.1873    0.5075    2.3058 H   0  0  0  0  0  0  0  0  0  0  0  0
   -6.8999    0.1874   -1.8362 H   0  0  0  0  0  0  0  0  0  0  0  0
   -6.6510    0.4445    2.4457 H   0  0  0  0  0  0  0  0  0  0  0  0
   -8.0130    0.2818    0.3787 H   0  0  0  0  0  0  0  0  0  0  0  0
  1 12  1  0  0  0  0
  1 13  1  0  0  0  0
  2 10  1  0  0  0  0
  2 33  1  0  0  0  0
  3 11  1  0  0  0  0
  3 34  1  0  0  0  0
  4 14  1  0  0  0  0
  4 39  1  0  0  0  0
  5 15  2  0  0  0  0
  6 18  2  0  0  0  0
  7 20  2  0  0  0  0
  8 12  1  0  0  0  0
  8 15  1  0  0  0  0
  8 16  1  0  0  0  0
  9 15  1  0  0  0  0
  9 18  1  0  0  0  0
  9 19  1  0  0  0  0
 10 11  1  0  0  0  0
 10 12  1  0  0  0  0
 10 27  1  0  0  0  0
 11 13  1  0  0  0  0
 11 28  1  0  0  0  0
 12 29  1  0  0  0  0
 13 14  1  0  0  0  0
 13 30  1  0  0  0  0
 14 31  1  0  0  0  0
 14 32  1  0  0  0  0
 16 17  2  0  0  0  0
 16 35  1  0  0  0  0
 17 18  1  0  0  0  0
 17 36  1  0  0  0  0
 19 20  1  0  0  0  0
 19 37  1  0  0  0  0
 19 38  1  0  0  0  0
 20 21  1  0  0  0  0
 21 22  2  0  0  0  0
 21 23  1  0  0  0  0
 22 24  1  0  0  0  0
 22 40  1  0  0  0  0
 23 25  2  0  0  0  0
 23 41  1  0  0  0  0
 24 26  2  0  0  0  0
 24 42  1  0  0  0  0
 25 26  1  0  0  0  0
 25 43  1  0  0  0  0
 26 44  1  0  0  0  0
M  END
> <PUBCHEM_COMPOUND_CID>
126831

> <PUBCHEM_CONFORMER_RMSD>
0.8

> <PUBCHEM_CONFORMER_DIVERSEORDER>
1
105
35
120
106
151
107
55
44
119
108
175
143
110
123
128
159
24
41
135
102
150
154
81
19
130
153
40
61
72
158
156
53
166
141
23
177
124
10
25
137
173
126
43
67
2
26
171
111
140
80
116
109
133
59
58
34
145
168
164
60
115
94
32
91
63
176
131
50
49
79
162
30
178
8
56
37
138
167
155
146
129
70
92
88
21
161
117
114
147
9
84
99
142
113
93
152
122
15
6
82
100
13
148
39
36
157
83
172
125
132
11
139
16
64
121
98
46
48
31
127
18
112
66
33
104
65
51
73
14
69
170
75
27
169
57
74
22
71
17
160
29
97
174
165
95
144
89
134
38
149
85
78
103
62
76
52
77
47
101
163
5
4
86
68
28
7
90
54
136
12
87
20
96
45
118
42
3

> <PUBCHEM_MMFF94_PARTIAL_CHARGES>
36
1 -0.56
10 0.28
11 0.28
12 0.58
13 0.28
14 0.28
15 0.69
16 -0.04
17 -0.14
18 0.62
19 0.36
2 -0.68
20 0.42
21 0.09
22 -0.15
23 -0.15
24 -0.15
25 -0.15
26 -0.15
3 -0.68
33 0.4
34 0.4
35 0.15
36 0.15
39 0.4
4 -0.68
40 0.15
41 0.15
42 0.15
43 0.15
44 0.15
5 -0.57
6 -0.57
7 -0.57
8 -0.47
9 -0.42

> <PUBCHEM_EFFECTIVE_ROTOR_COUNT>
6

> <PUBCHEM_PHARMACOPHORE_FEATURES>
13
1 1 acceptor
1 2 acceptor
1 2 donor
1 3 acceptor
1 3 donor
1 4 acceptor
1 4 donor
1 5 acceptor
1 6 acceptor
1 7 acceptor
5 1 10 11 12 13 rings
6 21 22 23 24 25 26 rings
6 8 9 15 16 17 18 rings

> <PUBCHEM_HEAVY_ATOM_COUNT>
26

> <PUBCHEM_ATOM_DEF_STEREO_COUNT>
4

> <PUBCHEM_ATOM_UDEF_STEREO_COUNT>
0

> <PUBCHEM_BOND_DEF_STEREO_COUNT>
0

> <PUBCHEM_BOND_UDEF_STEREO_COUNT>
0

> <PUBCHEM_ISOTOPIC_ATOM_COUNT>
0

> <PUBCHEM_COMPONENT_COUNT>
1

> <PUBCHEM_CACTVS_TAUTO_COUNT>
2

> <PUBCHEM_CONFORMER_ID>
0001EF6F00000001

> <PUBCHEM_MMFF94_ENERGY>
73.2367

> <PUBCHEM_FEATURE_SELFOVERLAP>
65.993

> <PUBCHEM_SHAPE_FINGERPRINT>
10 15 17749668584178421444
10673678 19 13469537028810906842
10688039 33 18260546697537448252
11045977 3 18040158417790815931
11089746 13 18202280312289861439
11578080 2 15409464784440192106
11796584 16 14345803742536668721
12166972 35 18335422361167274268
12236239 1 18060135436535298237
12516196 113 11169916095494694367
12616971 3 18202274805909887613
12633257 1 18411127048781318522
12788726 201 17918003767331118328
13140716 1 18334855056639065754
13167372 99 18059579048849293737
13533116 47 18343018853171029522
13583140 156 15937230322601407477
14251764 18 18131630089178279008
14341114 176 18187366532107266648
14341114 328 18060703883846618985
14787075 74 18131350813172011593
14955137 171 17749114395557156508
15183329 4 15482677874798766827
15348495 7 17968382350485386489
15475509 35 16371272343672426288
1577012 14 17846500348353897641
20567600 75 16515681100825623351
21033648 29 18262782034873200741
21033650 10 14835030367130638224
21236236 1 18340485694545535647
21641784 216 11815626323272169923
22079108 93 18413390960223397959
22182313 1 17823125731785031503
23536379 177 16272211860088445919
23559900 14 18130233739528327492
23569943 247 17699299763152956334
2838139 119 17632855330587430369
3009799 131 11959728261373396942
335352 9 18411700985493354398
34797466 226 14548736261062629753
3680242 22 18342177752154928792
392239 28 18271259304320163003
404807 14 15332692200710860958
4340502 62 18409453587725741543
465052 167 16950569878102172974
474 4 18271807968558521605
5104073 3 18263916799839955954
59755656 215 18114462258191848623
59755656 520 18411695508845881015
8509985 295 18413665821071896280

> <PUBCHEM_SHAPE_MULTIPOLES>
484.02
15.92
2.23
1.18
11.13
0.64
0.07
-3.69
3.36
-3.08
0.3
0.92
-0.19
-0.51

> <PUBCHEM_SHAPE_SELFOVERLAP>
1040.932

> <PUBCHEM_SHAPE_VOLUME>
265.6

> <PUBCHEM_COORDINATE_TYPE>
2
5
10

$$$$
