126802
  -OEChem-03292013323D

 29 28  0     1  0  0  0  0  0999 V2000
    6.1575    0.8270    0.4012 Cl  0  0  0  0  0  0  0  0  0  0  0  0
    0.7641   -0.1658    0.3485 S   0  0  0  0  0  0  0  0  0  0  0  0
    3.7289   -0.9884    0.6919 O   0  0  0  0  0  0  0  0  0  0  0  0
   -2.3846   -2.0335    1.2247 O   0  0  0  0  0  0  0  0  0  0  0  0
   -1.5957   -2.8886   -0.7213 O   0  0  0  0  0  0  0  0  0  0  0  0
   -3.4216    1.9103   -1.1072 O   0  0  0  0  0  0  0  0  0  0  0  0
   -2.4536    0.4316    0.4087 N   0  0  0  0  0  0  0  0  0  0  0  0
   -1.8848   -0.4875   -0.5451 C   0  0  1  0  0  0  0  0  0  0  0  0
   -0.4799   -0.0639   -0.9811 C   0  0  0  0  0  0  0  0  0  0  0  0
    2.2041    0.3541   -0.6100 C   0  0  0  0  0  0  0  0  0  0  0  0
    3.4744    0.3429    0.2440 C   0  0  2  0  0  0  0  0  0  0  0  0
    4.6723    0.7996   -0.5871 C   0  0  0  0  0  0  0  0  0  0  0  0
   -1.9271   -1.9222   -0.0453 C   0  0  0  0  0  0  0  0  0  0  0  0
   -3.1765    1.5566    0.0432 C   0  0  0  0  0  0  0  0  0  0  0  0
   -3.6775    2.3277    1.2349 C   0  0  0  0  0  0  0  0  0  0  0  0
   -2.5370   -0.4660   -1.4280 H   0  0  0  0  0  0  0  0  0  0  0  0
   -0.4995    0.9658   -1.3549 H   0  0  0  0  0  0  0  0  0  0  0  0
   -0.1455   -0.7136   -1.7975 H   0  0  0  0  0  0  0  0  0  0  0  0
    2.0257    1.3595   -1.0051 H   0  0  0  0  0  0  0  0  0  0  0  0
    2.3165   -0.3405   -1.4498 H   0  0  0  0  0  0  0  0  0  0  0  0
    3.3604    0.9891    1.1231 H   0  0  0  0  0  0  0  0  0  0  0  0
   -2.3026    0.2452    1.3962 H   0  0  0  0  0  0  0  0  0  0  0  0
    4.5213    1.8073   -0.9853 H   0  0  0  0  0  0  0  0  0  0  0  0
    4.8639    0.1122   -1.4170 H   0  0  0  0  0  0  0  0  0  0  0  0
    2.9508   -1.2772    1.1987 H   0  0  0  0  0  0  0  0  0  0  0  0
   -4.0770    3.2920    0.9088 H   0  0  0  0  0  0  0  0  0  0  0  0
   -4.4690    1.7592    1.7309 H   0  0  0  0  0  0  0  0  0  0  0  0
   -2.8606    2.5072    1.9397 H   0  0  0  0  0  0  0  0  0  0  0  0
   -2.4101   -2.9670    1.5249 H   0  0  0  0  0  0  0  0  0  0  0  0
  1 12  1  0  0  0  0
  2  9  1  0  0  0  0
  2 10  1  0  0  0  0
  3 11  1  0  0  0  0
  3 25  1  0  0  0  0
  4 13  1  0  0  0  0
  4 29  1  0  0  0  0
  5 13  2  0  0  0  0
  6 14  2  0  0  0  0
  7  8  1  0  0  0  0
  7 14  1  0  0  0  0
  7 22  1  0  0  0  0
  8  9  1  0  0  0  0
  8 13  1  0  0  0  0
  8 16  1  0  0  0  0
  9 17  1  0  0  0  0
  9 18  1  0  0  0  0
 10 11  1  0  0  0  0
 10 19  1  0  0  0  0
 10 20  1  0  0  0  0
 11 12  1  0  0  0  0
 11 21  1  0  0  0  0
 12 23  1  0  0  0  0
 12 24  1  0  0  0  0
 14 15  1  0  0  0  0
 15 26  1  0  0  0  0
 15 27  1  0  0  0  0
 15 28  1  0  0  0  0
M  END
> <PUBCHEM_COMPOUND_CID>
126802

> <PUBCHEM_CONFORMER_RMSD>
0.8

> <PUBCHEM_CONFORMER_DIVERSEORDER>
1
177
144
105
126
73
154
142
43
155
51
20
140
108
157
176
68
143
115
91
145
147
25
92
113
34
64
94
88
150
141
124
75
3
161
151
81
128
169
45
172
6
100
96
152
125
62
56
35
173
87
130
85
111
49
149
165
23
164
41
19
97
167
40
65
53
168
138
30
70
148
103
118
12
158
71
63
131
17
42
129
82
47
104
61
170
44
112
175
59
120
46
13
146
36
134
39
127
38
174
83
79
15
99
67
37
162
95
166
10
84
123
136
52
74
21
32
57
60
160
72
4
159
156
18
58
66
31
14
109
121
55
27
139
2
110
163
33
122
133
107
171
117
29
89
26
80
5
132
135
101
93
114
153
119
76
28
78
90
106
22
86
54
16
69
9
137
77
11
24
116
102
98
8
48
50
7

> <PUBCHEM_MMFF94_PARTIAL_CHARGES>
18
1 -0.29
10 0.23
11 0.28
12 0.29
13 0.66
14 0.57
15 0.06
2 -0.46
22 0.37
25 0.4
29 0.5
3 -0.68
4 -0.65
5 -0.57
6 -0.57
7 -0.73
8 0.36
9 0.23

> <PUBCHEM_EFFECTIVE_ROTOR_COUNT>
8

> <PUBCHEM_PHARMACOPHORE_FEATURES>
7
1 3 acceptor
1 3 donor
1 4 acceptor
1 5 acceptor
1 6 acceptor
1 7 donor
3 4 5 13 anion

> <PUBCHEM_HEAVY_ATOM_COUNT>
15

> <PUBCHEM_ATOM_DEF_STEREO_COUNT>
1

> <PUBCHEM_ATOM_UDEF_STEREO_COUNT>
1

> <PUBCHEM_BOND_DEF_STEREO_COUNT>
0

> <PUBCHEM_BOND_UDEF_STEREO_COUNT>
0

> <PUBCHEM_ISOTOPIC_ATOM_COUNT>
0

> <PUBCHEM_COMPONENT_COUNT>
1

> <PUBCHEM_CACTVS_TAUTO_COUNT>
2

> <PUBCHEM_CONFORMER_ID>
0001EF5200000001

> <PUBCHEM_MMFF94_ENERGY>
23.1709

> <PUBCHEM_FEATURE_SELFOVERLAP>
35.582

> <PUBCHEM_SHAPE_FINGERPRINT>
10680689 15 18271529809686713310
10912923 1 17895470436561503144
11405975 8 18410009910718575218
12500047 106 18342171172454921814
14445660 50 18260550026357713108
17093844 174 18412819210356786544
1741750 31 18341616975412689281
17844677 252 18270687592744558144
204376 136 18338518517708085589
20645477 56 18413674612310775249
21426921 1 18270118040503191486
21524375 3 18338232649037671519
21618674 53 18113340812434701768
2306618 200 17845662559142853195
23402539 116 18343013433133084743
23500284 214 18272660000049730305
23557571 272 18202007672171869396
441001 317 18273212023938887440
5104073 3 18261666052651707616
5706482 22 18409729522226054963
57265010 4 18335139816885449560
633830 44 17771349673604121661
90127 26 17917432068755771328

> <PUBCHEM_SHAPE_MULTIPOLES>
285.95
10.69
2.45
1.07
16.65
0.86
-0.04
-5.65
-1.45
-3.98
-0.27
-0.54
-0.11
-0.31

> <PUBCHEM_SHAPE_SELFOVERLAP>
521.809

> <PUBCHEM_SHAPE_VOLUME>
183.2

> <PUBCHEM_COORDINATE_TYPE>
2
5
10

$$$$
