126843298
  -OEChem-03292013293D

 45 45  0     1  0  0  0  0  0999 V2000
   -0.8128    1.2519    1.4041 O   0  0  0  0  0  0  0  0  0  0  0  0
    1.4743    1.0660   -1.7879 O   0  0  0  0  0  0  0  0  0  0  0  0
    3.3308   -0.5473    1.7707 O   0  0  0  0  0  0  0  0  0  0  0  0
   -4.9229    0.1912   -1.1036 O   0  0  0  0  0  0  0  0  0  0  0  0
    1.0682   -0.2310    0.0796 N   0  0  0  0  0  0  0  0  0  0  0  0
    3.2046    0.6744   -0.2810 N   0  0  0  0  0  0  0  0  0  0  0  0
   -2.1929    1.0280   -0.4498 N   0  0  0  0  0  0  0  0  0  0  0  0
    5.1793    0.5572    0.8604 N   0  0  0  0  0  0  0  0  0  0  0  0
   -6.2122    0.2766    0.7975 N   0  0  0  0  0  0  0  0  0  0  0  0
   -0.8097   -1.8120    0.3777 C   0  0  0  0  0  0  0  0  0  0  0  0
   -0.3223   -0.4843   -0.2162 C   0  0  1  0  0  0  0  0  0  0  0  0
   -0.0359   -3.0573   -0.1016 C   0  0  0  0  0  0  0  0  0  0  0  0
   -1.1232    0.6781    0.3622 C   0  0  0  0  0  0  0  0  0  0  0  0
   -0.5296   -4.3419    0.5653 C   0  0  0  0  0  0  0  0  0  0  0  0
   -0.1572   -3.1869   -1.6224 C   0  0  0  0  0  0  0  0  0  0  0  0
    4.1487    1.5230   -0.9919 C   0  0  0  0  0  0  0  0  0  0  0  0
    1.8764    0.5411   -0.7468 C   0  0  0  0  0  0  0  0  0  0  0  0
    5.4954    1.2562   -0.3527 C   0  0  0  0  0  0  0  0  0  0  0  0
    3.8383    0.1398    0.8939 C   0  0  0  0  0  0  0  0  0  0  0  0
   -3.0823    2.1291   -0.1579 C   0  0  0  0  0  0  0  0  0  0  0  0
   -4.2739    1.6988    0.6864 C   0  0  0  0  0  0  0  0  0  0  0  0
   -5.1409    0.6496    0.0141 C   0  0  0  0  0  0  0  0  0  0  0  0
   -1.8781   -1.9357    0.1548 H   0  0  0  0  0  0  0  0  0  0  0  0
   -0.7382   -1.7622    1.4731 H   0  0  0  0  0  0  0  0  0  0  0  0
   -0.4481   -0.4840   -1.3044 H   0  0  0  0  0  0  0  0  0  0  0  0
    1.0252   -2.9433    0.1518 H   0  0  0  0  0  0  0  0  0  0  0  0
    1.4361   -0.5535    0.9684 H   0  0  0  0  0  0  0  0  0  0  0  0
   -1.2050   -3.1924   -1.9416 H   0  0  0  0  0  0  0  0  0  0  0  0
    0.3024   -4.1198   -1.9676 H   0  0  0  0  0  0  0  0  0  0  0  0
    0.3579   -2.3726   -2.1404 H   0  0  0  0  0  0  0  0  0  0  0  0
   -1.5831   -4.5298    0.3322 H   0  0  0  0  0  0  0  0  0  0  0  0
    0.0530   -5.2064    0.2298 H   0  0  0  0  0  0  0  0  0  0  0  0
   -0.4309   -4.2733    1.6537 H   0  0  0  0  0  0  0  0  0  0  0  0
    3.8346    2.5634   -0.8497 H   0  0  0  0  0  0  0  0  0  0  0  0
    4.1355    1.3073   -2.0649 H   0  0  0  0  0  0  0  0  0  0  0  0
    6.1136    0.5968   -0.9695 H   0  0  0  0  0  0  0  0  0  0  0  0
    6.0511    2.1699   -0.1276 H   0  0  0  0  0  0  0  0  0  0  0  0
   -2.3803    0.4857   -1.2880 H   0  0  0  0  0  0  0  0  0  0  0  0
    5.8617    0.3071    1.5691 H   0  0  0  0  0  0  0  0  0  0  0  0
   -3.4172    2.5326   -1.1195 H   0  0  0  0  0  0  0  0  0  0  0  0
   -2.5218    2.9124    0.3634 H   0  0  0  0  0  0  0  0  0  0  0  0
   -4.9002    2.5723    0.9018 H   0  0  0  0  0  0  0  0  0  0  0  0
   -3.9277    1.2890    1.6431 H   0  0  0  0  0  0  0  0  0  0  0  0
   -6.3750    0.6717    1.7182 H   0  0  0  0  0  0  0  0  0  0  0  0
   -6.8795   -0.4157    0.4736 H   0  0  0  0  0  0  0  0  0  0  0  0
  1 13  2  0  0  0  0
  2 17  2  0  0  0  0
  3 19  2  0  0  0  0
  4 22  2  0  0  0  0
  5 11  1  0  0  0  0
  5 17  1  0  0  0  0
  5 27  1  0  0  0  0
  6 16  1  0  0  0  0
  6 17  1  0  0  0  0
  6 19  1  0  0  0  0
  7 13  1  0  0  0  0
  7 20  1  0  0  0  0
  7 38  1  0  0  0  0
  8 18  1  0  0  0  0
  8 19  1  0  0  0  0
  8 39  1  0  0  0  0
  9 22  1  0  0  0  0
  9 44  1  0  0  0  0
  9 45  1  0  0  0  0
 10 11  1  0  0  0  0
 10 12  1  0  0  0  0
 10 23  1  0  0  0  0
 10 24  1  0  0  0  0
 11 13  1  0  0  0  0
 11 25  1  0  0  0  0
 12 14  1  0  0  0  0
 12 15  1  0  0  0  0
 12 26  1  0  0  0  0
 14 31  1  0  0  0  0
 14 32  1  0  0  0  0
 14 33  1  0  0  0  0
 15 28  1  0  0  0  0
 15 29  1  0  0  0  0
 15 30  1  0  0  0  0
 16 18  1  0  0  0  0
 16 34  1  0  0  0  0
 16 35  1  0  0  0  0
 18 36  1  0  0  0  0
 18 37  1  0  0  0  0
 20 21  1  0  0  0  0
 20 40  1  0  0  0  0
 20 41  1  0  0  0  0
 21 22  1  0  0  0  0
 21 42  1  0  0  0  0
 21 43  1  0  0  0  0
M  END
> <PUBCHEM_COMPOUND_CID>
126843298

> <PUBCHEM_CONFORMER_RMSD>
1

> <PUBCHEM_CONFORMER_DIVERSEORDER>
1
140
139
100
122
153
105
77
47
35
160
109
86
133
19
129
102
49
68
119
37
135
113
138
130
162
159
101
97
161
79
67
69
54
44
125
42
66
28
143
148
91
72
73
65
128
64
74
149
115
58
96
116
84
104
145
157
82
136
75
158
156
114
78
89
4
32
117
25
83
15
34
134
121
108
124
17
151
147
87
59
144
55
46
142
61
110
150
3
63
90
30
33
52
8
152
103
20
14
137
57
9
123
5
31
26
76
111
11
163
120
107
70
106
98
41
146
132
27
126
62
81
71
127
112
88
53
36
118
92
18
50
95
154
48
141
99
131
7
13
24
93
40
60
29
43
12
94
6
56
10
22
21
51
16
23
39
85
80
2
155
45
38

> <PUBCHEM_MMFF94_PARTIAL_CHARGES>
23
1 -0.57
11 0.36
13 0.57
16 0.3
17 0.69
18 0.3
19 0.69
2 -0.57
20 0.3
21 0.06
22 0.57
27 0.37
3 -0.57
38 0.37
39 0.37
4 -0.57
44 0.37
45 0.37
5 -0.73
6 -0.42
7 -0.73
8 -0.73
9 -0.8

> <PUBCHEM_EFFECTIVE_ROTOR_COUNT>
10.8

> <PUBCHEM_PHARMACOPHORE_FEATURES>
10
1 1 acceptor
1 2 acceptor
1 3 acceptor
1 4 acceptor
1 5 donor
1 7 donor
1 8 donor
1 9 donor
3 12 14 15 hydrophobe
5 6 8 16 18 19 rings

> <PUBCHEM_HEAVY_ATOM_COUNT>
22

> <PUBCHEM_ATOM_DEF_STEREO_COUNT>
1

> <PUBCHEM_ATOM_UDEF_STEREO_COUNT>
0

> <PUBCHEM_BOND_DEF_STEREO_COUNT>
0

> <PUBCHEM_BOND_UDEF_STEREO_COUNT>
0

> <PUBCHEM_ISOTOPIC_ATOM_COUNT>
0

> <PUBCHEM_COMPONENT_COUNT>
1

> <PUBCHEM_CACTVS_TAUTO_COUNT>
24

> <PUBCHEM_CONFORMER_ID>
078F79A200000001

> <PUBCHEM_MMFF94_ENERGY>
37.1775

> <PUBCHEM_FEATURE_SELFOVERLAP>
50.748

> <PUBCHEM_SHAPE_FINGERPRINT>
10090160 65 18409727327334151959
12592029 89 18261674766233190899
12788726 201 18048316940219575398
12839892 36 18335132064765158995
13052359 8 18337393858804484243
13533116 47 18059857212980959046
13583140 156 17240773929334642785
13968360 50 18334848386612864463
14787075 74 18131063853358754417
16752209 62 18268704081751485778
173720 79 18335131003496604586
1813 80 10881691190888497384
18222031 100 11169919385328827745
20197701 30 18410288086485273119
204376 136 18410013217236653577
20567600 347 18343024354797373671
21054139 6 18342447176149817063
212916 134 18342164562537293792
21524375 3 18408040701829194917
22224240 67 18413392051530115833
22950370 63 9655571920224287165
22956985 138 17899978227312888987
23402539 116 18272646887240230373
23419403 2 16054614286941227579
23559900 14 17760925148190113155
23598288 3 17826814812165588366
23622692 88 18040435503764487532
3759504 43 18409168848067438287
4340502 62 18341618100831322927
474229 33 18409168818429681785
5486654 2 18342459253197017097
59755656 520 18411979174223952334

> <PUBCHEM_SHAPE_MULTIPOLES>
404.37
11.34
3.53
1.31
3.06
5.9
-0.1
-8.98
1.32
1.28
-0.27
-0.6
0.16
-0.7

> <PUBCHEM_SHAPE_SELFOVERLAP>
802.845

> <PUBCHEM_SHAPE_VOLUME>
237.9

> <PUBCHEM_COORDINATE_TYPE>
2
5
10

$$$$
