126898
  -OEChem-03292013323D

 38 40  0     1  0  0  0  0  0999 V2000
   -5.6431    2.3737    0.9734 Br  0  0  0  0  0  0  0  0  0  0  0  0
    2.0100   -0.7559    0.4458 O   0  0  0  0  0  0  0  0  0  0  0  0
   -0.0215    0.3933    0.4822 O   0  0  0  0  0  0  0  0  0  0  0  0
    4.0422    2.7147   -0.5300 O   0  0  0  0  0  0  0  0  0  0  0  0
    4.3551    0.6383    1.2919 O   0  0  0  0  0  0  0  0  0  0  0  0
    1.1865    2.5286   -0.9494 O   0  0  0  0  0  0  0  0  0  0  0  0
    3.1276   -3.2638    0.4110 O   0  0  0  0  0  0  0  0  0  0  0  0
   -2.0913   -2.1505   -0.7733 N   0  0  0  0  0  0  0  0  0  0  0  0
    3.3496    1.4867   -0.7366 C   0  0  1  0  0  0  0  0  0  0  0  0
    4.1141    0.3347   -0.0835 C   0  0  2  0  0  0  0  0  0  0  0  0
    1.9376    1.6034   -0.1635 C   0  0  2  0  0  0  0  0  0  0  0  0
    3.2874   -0.9527   -0.1732 C   0  0  1  0  0  0  0  0  0  0  0  0
    1.2260    0.2489   -0.1960 C   0  0  1  0  0  0  0  0  0  0  0  0
    3.9598   -2.1241    0.5329 C   0  0  0  0  0  0  0  0  0  0  0  0
   -1.0438   -0.4116    0.0606 C   0  0  0  0  0  0  0  0  0  0  0  0
   -2.4200   -0.1218    0.0950 C   0  0  0  0  0  0  0  0  0  0  0  0
   -3.0669   -1.2386   -0.4387 C   0  0  0  0  0  0  0  0  0  0  0  0
   -0.8534   -1.6504   -0.4701 C   0  0  0  0  0  0  0  0  0  0  0  0
   -3.1977    0.9724    0.5228 C   0  0  0  0  0  0  0  0  0  0  0  0
   -4.4583   -1.3159   -0.5666 C   0  0  0  0  0  0  0  0  0  0  0  0
   -4.5907    0.9090    0.4010 C   0  0  0  0  0  0  0  0  0  0  0  0
   -5.2091   -0.2185   -0.1356 C   0  0  0  0  0  0  0  0  0  0  0  0
    3.2996    1.3272   -1.8209 H   0  0  0  0  0  0  0  0  0  0  0  0
    5.0934    0.2134   -0.5583 H   0  0  0  0  0  0  0  0  0  0  0  0
    1.9690    2.0088    0.8550 H   0  0  0  0  0  0  0  0  0  0  0  0
    3.1135   -1.2268   -1.2222 H   0  0  0  0  0  0  0  0  0  0  0  0
    1.0537   -0.0256   -1.2474 H   0  0  0  0  0  0  0  0  0  0  0  0
    4.0978   -1.9348    1.6022 H   0  0  0  0  0  0  0  0  0  0  0  0
    4.9322   -2.3516    0.0865 H   0  0  0  0  0  0  0  0  0  0  0  0
    3.5147    3.4199   -0.9427 H   0  0  0  0  0  0  0  0  0  0  0  0
    3.5073    0.6023    1.7659 H   0  0  0  0  0  0  0  0  0  0  0  0
    0.2881    2.5634   -0.5783 H   0  0  0  0  0  0  0  0  0  0  0  0
    0.0282   -2.2449   -0.6647 H   0  0  0  0  0  0  0  0  0  0  0  0
    2.2655   -3.0419    0.8026 H   0  0  0  0  0  0  0  0  0  0  0  0
   -2.2649   -3.0584   -1.1820 H   0  0  0  0  0  0  0  0  0  0  0  0
   -2.7123    1.8504    0.9406 H   0  0  0  0  0  0  0  0  0  0  0  0
   -4.9405   -2.1933   -0.9843 H   0  0  0  0  0  0  0  0  0  0  0  0
   -6.2922   -0.2633   -0.2282 H   0  0  0  0  0  0  0  0  0  0  0  0
  1 21  1  0  0  0  0
  2 12  1  0  0  0  0
  2 13  1  0  0  0  0
  3 13  1  0  0  0  0
  3 15  1  0  0  0  0
  4  9  1  0  0  0  0
  4 30  1  0  0  0  0
  5 10  1  0  0  0  0
  5 31  1  0  0  0  0
  6 11  1  0  0  0  0
  6 32  1  0  0  0  0
  7 14  1  0  0  0  0
  7 34  1  0  0  0  0
  8 17  1  0  0  0  0
  8 18  1  0  0  0  0
  8 35  1  0  0  0  0
  9 10  1  0  0  0  0
  9 11  1  0  0  0  0
  9 23  1  0  0  0  0
 10 12  1  0  0  0  0
 10 24  1  0  0  0  0
 11 13  1  0  0  0  0
 11 25  1  0  0  0  0
 12 14  1  0  0  0  0
 12 26  1  0  0  0  0
 13 27  1  0  0  0  0
 14 28  1  0  0  0  0
 14 29  1  0  0  0  0
 15 16  1  0  0  0  0
 15 18  2  0  0  0  0
 16 17  2  0  0  0  0
 16 19  1  0  0  0  0
 17 20  1  0  0  0  0
 18 33  1  0  0  0  0
 19 21  2  0  0  0  0
 19 36  1  0  0  0  0
 20 22  2  0  0  0  0
 20 37  1  0  0  0  0
 21 22  1  0  0  0  0
 22 38  1  0  0  0  0
M  END
> <PUBCHEM_COMPOUND_CID>
126898

> <PUBCHEM_CONFORMER_RMSD>
0.6

> <PUBCHEM_CONFORMER_DIVERSEORDER>
2
78
18
54
107
80
36
65
123
20
104
32
62
81
63
12
98
56
101
21
90
67
79
110
125
111
66
102
127
7
52
113
16
24
100
118
59
75
74
64
70
13
121
91
83
96
4
106
57
49
73
8
58
68
116
122
3
108
72
109
99
26
45
93
88
128
22
41
114
82
11
112
60
5
55
38
69
47
14
27
35
77
89
1
46
43
115
92
9
87
42
71
86
76
10
34
103
105
53
124
6
61
94
17
84
29
40
95
15
85
33
37
44
50
39
126
31
117
51
28
23
19
97
119
25
30
48
129
120

> <PUBCHEM_MMFF94_PARTIAL_CHARGES>
30
1 -0.11
10 0.28
11 0.28
12 0.28
13 0.56
14 0.28
15 0.06
17 -0.15
18 -0.3
19 -0.15
2 -0.56
20 -0.15
21 0.11
22 -0.15
3 -0.34
30 0.4
31 0.4
32 0.4
33 0.15
34 0.4
35 0.27
36 0.15
37 0.15
38 0.15
4 -0.68
5 -0.68
6 -0.68
7 -0.68
8 0.03
9 0.28

> <PUBCHEM_EFFECTIVE_ROTOR_COUNT>
4.2

> <PUBCHEM_PHARMACOPHORE_FEATURES>
16
1 1 hydrophobe
1 2 acceptor
1 3 acceptor
1 4 acceptor
1 4 donor
1 5 acceptor
1 5 donor
1 6 acceptor
1 6 donor
1 7 acceptor
1 7 donor
1 8 cation
1 8 donor
5 8 15 16 17 18 rings
6 16 17 19 20 21 22 rings
6 2 9 10 11 12 13 rings

> <PUBCHEM_HEAVY_ATOM_COUNT>
22

> <PUBCHEM_ATOM_DEF_STEREO_COUNT>
5

> <PUBCHEM_ATOM_UDEF_STEREO_COUNT>
0

> <PUBCHEM_BOND_DEF_STEREO_COUNT>
0

> <PUBCHEM_BOND_UDEF_STEREO_COUNT>
0

> <PUBCHEM_ISOTOPIC_ATOM_COUNT>
0

> <PUBCHEM_COMPONENT_COUNT>
1

> <PUBCHEM_CACTVS_TAUTO_COUNT>
1

> <PUBCHEM_CONFORMER_ID>
0001EFB200000002

> <PUBCHEM_MMFF94_ENERGY>
56.2575

> <PUBCHEM_FEATURE_SELFOVERLAP>
81.358

> <PUBCHEM_SHAPE_FINGERPRINT>
10062212 137 18202275893037981103
10595046 47 18340204202119248319
10616163 171 18269274740902483719
10906281 52 18041852808902683248
12107183 9 18123471570891915179
12236239 1 18343302574146266410
12422481 6 18043825186650110061
12553582 1 18190732034611739122
12633257 1 17822841078822502658
12670546 56 18272082807873771175
12788726 201 17632308830174279809
13073987 5 18413107269038378971
13167823 11 18413107273133093919
13533116 47 18412541046320092223
13785724 45 17764596412714641175
14178342 30 18124577941667066570
14739800 52 17988068019717942912
15196674 1 18413389822004290963
15250474 111 18342446080464411519
15256400 18 18340206263397887477
15442244 35 18410855417210150372
17349148 13 17775566420860651287
17492 89 18410857698102529071
17818456 19 18058171622357405321
17844677 252 18409457989987975291
1813 80 17240484680445520948
18186145 218 17313101964456640626
18335252 114 18263630789895109165
20511986 3 18201705258912962712
20645477 70 18259981595889183754
20715895 44 18054511310058614865
21065198 48 18411419527131808751
21267235 1 18411145752815526310
21421861 104 18114734933434191298
2255824 54 18189054373098440276
23402539 116 18060696178812582941
23559900 14 17631464383816543582
2838139 119 18117834401264205317
3004659 81 18271808978055190738
335352 9 18268995293160295279
34797466 226 16987729067696270060
3680242 22 18269567044013467521
4214541 1 18413389839194696645
474 4 17896883359783355684
5104073 3 18411419501457146203
543358 83 18410578374977318766
633830 44 18259703380956122851
67856867 119 18340761637297939824
77779 3 18410013260349941231
8272917 22 18408888438596142478
9709674 26 18337676411512245406
9971528 1 18408601448907485532
9981440 41 17327735605287649801

> <PUBCHEM_SHAPE_MULTIPOLES>
418.5
12.13
2.92
0.9
6.09
0.01
-0.06
3.12
-1.89
-1.38
0.17
-0.12
0.16
-2.07

> <PUBCHEM_SHAPE_SELFOVERLAP>
889.306

> <PUBCHEM_SHAPE_VOLUME>
238.7

> <PUBCHEM_COORDINATE_TYPE>
2
5
10

$$$$
