126896
  -OEChem-03292013323D

 26 26  0     0  0  0  0  0  0999 V2000
    3.2856   -2.5780    0.2013 Br  0  0  0  0  0  0  0  0  0  0  0  0
   -1.4352    0.1809    1.8192 O   0  0  0  0  0  0  0  0  0  0  0  0
   -1.9961   -0.2059   -0.4284 N   0  0  0  0  0  0  0  0  0  0  0  0
    1.0021   -1.0147    0.3979 N   0  0  0  0  0  0  0  0  0  0  0  0
    2.2478    1.4105   -0.2600 N   0  0  0  0  0  0  0  0  0  0  0  0
    0.1602    2.5206   -0.0268 N   0  0  0  0  0  0  0  0  0  0  0  0
    4.3141    0.2827   -0.4860 N   0  0  0  0  0  0  0  0  0  0  0  0
   -3.8974   -0.2094    1.0745 N   0  0  0  0  0  0  0  0  0  0  0  0
   -4.1975   -0.5496   -1.2044 N   0  0  0  0  0  0  0  0  0  0  0  0
    0.3424    0.1474    0.3356 C   0  0  0  0  0  0  0  0  0  0  0  0
   -1.1002    0.0442    0.6427 C   0  0  0  0  0  0  0  0  0  0  0  0
    0.9310    1.3369    0.0174 C   0  0  0  0  0  0  0  0  0  0  0  0
   -1.5092   -0.3550   -1.7993 C   0  0  0  0  0  0  0  0  0  0  0  0
   -3.3975   -0.3195   -0.2020 C   0  0  0  0  0  0  0  0  0  0  0  0
    2.9309    0.2501   -0.2023 C   0  0  0  0  0  0  0  0  0  0  0  0
    2.3192   -0.9411    0.1208 C   0  0  0  0  0  0  0  0  0  0  0  0
   -2.2803   -0.6753   -2.5027 H   0  0  0  0  0  0  0  0  0  0  0  0
   -0.7020   -1.0932   -1.8209 H   0  0  0  0  0  0  0  0  0  0  0  0
   -1.1109    0.6078   -2.1336 H   0  0  0  0  0  0  0  0  0  0  0  0
    0.6496    3.3743   -0.2662 H   0  0  0  0  0  0  0  0  0  0  0  0
   -0.8193    2.4548   -0.2738 H   0  0  0  0  0  0  0  0  0  0  0  0
    4.8993    0.0295    0.3054 H   0  0  0  0  0  0  0  0  0  0  0  0
    4.5731   -0.2426   -1.3165 H   0  0  0  0  0  0  0  0  0  0  0  0
   -4.8921   -0.2966    1.2537 H   0  0  0  0  0  0  0  0  0  0  0  0
   -3.3065   -0.0409    1.8796 H   0  0  0  0  0  0  0  0  0  0  0  0
   -5.1593   -0.6085   -0.8527 H   0  0  0  0  0  0  0  0  0  0  0  0
  1 16  1  0  0  0  0
  2 11  2  0  0  0  0
  3 11  1  0  0  0  0
  3 13  1  0  0  0  0
  3 14  1  0  0  0  0
  4 10  1  0  0  0  0
  4 16  2  0  0  0  0
  5 12  1  0  0  0  0
  5 15  2  0  0  0  0
  6 12  1  0  0  0  0
  6 20  1  0  0  0  0
  6 21  1  0  0  0  0
  7 15  1  0  0  0  0
  7 22  1  0  0  0  0
  7 23  1  0  0  0  0
  8 14  1  0  0  0  0
  8 24  1  0  0  0  0
  8 25  1  0  0  0  0
  9 14  2  0  0  0  0
  9 26  1  0  0  0  0
 10 11  1  0  0  0  0
 10 12  2  0  0  0  0
 13 17  1  0  0  0  0
 13 18  1  0  0  0  0
 13 19  1  0  0  0  0
 15 16  1  0  0  0  0
M  END
> <PUBCHEM_COMPOUND_CID>
126896

> <PUBCHEM_CONFORMER_RMSD>
0.6

> <PUBCHEM_CONFORMER_DIVERSEORDER>
1
12
5
9
11
14
8
6
7
4
13
15
10
2
3

> <PUBCHEM_MMFF94_PARTIAL_CHARGES>
23
1 -0.11
10 0.4
11 0.54
12 0.41
13 0.3
14 0.56
15 0.41
16 0.42
2 -0.57
20 0.4
21 0.4
22 0.4
23 0.4
24 0.4
25 0.4
26 0.4
3 -0.42
4 -0.62
5 -0.62
6 -0.9
7 -0.9
8 -0.85
9 -0.85

> <PUBCHEM_EFFECTIVE_ROTOR_COUNT>
3

> <PUBCHEM_PHARMACOPHORE_FEATURES>
10
1 1 hydrophobe
1 2 acceptor
1 4 acceptor
1 6 cation
1 6 donor
1 7 donor
1 8 donor
1 9 donor
3 5 7 15 cation
6 4 5 10 12 15 16 rings

> <PUBCHEM_HEAVY_ATOM_COUNT>
16

> <PUBCHEM_ATOM_DEF_STEREO_COUNT>
0

> <PUBCHEM_ATOM_UDEF_STEREO_COUNT>
0

> <PUBCHEM_BOND_DEF_STEREO_COUNT>
0

> <PUBCHEM_BOND_UDEF_STEREO_COUNT>
0

> <PUBCHEM_ISOTOPIC_ATOM_COUNT>
0

> <PUBCHEM_COMPONENT_COUNT>
1

> <PUBCHEM_CACTVS_TAUTO_COUNT>
12

> <PUBCHEM_CONFORMER_ID>
0001EFB000000001

> <PUBCHEM_MMFF94_ENERGY>
75.1285

> <PUBCHEM_FEATURE_SELFOVERLAP>
50.792

> <PUBCHEM_SHAPE_FINGERPRINT>
11031198 65 18187369877807396372
11471102 20 18334855039205514828
11578080 2 17700944726757165312
12236239 1 17917719006413658075
13581323 91 16559031584117111807
14576447 43 18270954751687988247
14993402 34 18201439198447205518
15375462 189 18131353015962720290
15477762 27 18410570716729026095
15757776 16 18413386540622955142
16945 1 18335994124994337008
19422 9 18202563982079574711
200 152 18409728435356742498
20201158 50 18040436598595909114
20361792 2 18342728590142338894
20645476 183 18130785715497864655
20645477 70 18334006160204983927
21501502 16 18193000314193209976
22802520 49 17750218228016971332
232386 152 16558179535894362221
23402539 116 15339122316777693881
23402655 69 18334851706353234293
23526113 38 17894627041558209944
23559900 14 16443061673810594986
23598291 2 18201163130871516427
2748010 2 18119529834986800612
474 4 17913759785491668640
77492 1 17917719006360904083

> <PUBCHEM_SHAPE_MULTIPOLES>
294.48
7.01
1.89
1.19
1.93
0.09
0.06
-2.76
0.86
-2.05
-0.02
1.11
-0.15
-0.48

> <PUBCHEM_SHAPE_SELFOVERLAP>
599.991

> <PUBCHEM_SHAPE_VOLUME>
173.8

> <PUBCHEM_COORDINATE_TYPE>
2
5
10

$$$$
