126843
  -OEChem-03292013323D

 52 52  0     1  0  0  0  0  0999 V2000
   -1.0917    0.1242   -1.5208 O   0  0  0  0  0  0  0  0  0  0  0  0
   -4.2944   -2.0149   -1.6186 O   0  0  0  0  0  0  0  0  0  0  0  0
    3.9252    3.0991   -0.1652 O   0  0  0  0  0  0  0  0  0  0  0  0
   -4.6864    0.1910   -1.1985 O   0  0  0  0  0  0  0  0  0  0  0  0
    1.6239    2.9206    1.3126 O   0  0  0  0  0  0  0  0  0  0  0  0
   -2.4439    0.2424    0.3538 N   0  0  0  0  0  0  0  0  0  0  0  0
    0.6423    1.7818   -0.4556 N   0  0  0  0  0  0  0  0  0  0  0  0
    5.0031    0.5138   -0.5212 N   0  0  0  0  0  0  0  0  0  0  0  0
    2.3139   -5.5184    0.0948 N   0  0  0  0  0  0  0  0  0  0  0  0
   -3.1095   -1.0391    0.1601 C   0  0  1  0  0  0  0  0  0  0  0  0
   -3.7848   -1.3306    1.4953 C   0  0  0  0  0  0  0  0  0  0  0  0
   -4.0705    0.0591    2.0593 C   0  0  0  0  0  0  0  0  0  0  0  0
   -2.8735    0.8766    1.5975 C   0  0  0  0  0  0  0  0  0  0  0  0
   -1.4270    0.6864   -0.4770 C   0  0  0  0  0  0  0  0  0  0  0  0
   -0.7288    1.9469   -0.0326 C   0  0  2  0  0  0  0  0  0  0  0  0
   -4.1100   -0.8555   -0.9412 C   0  0  0  0  0  0  0  0  0  0  0  0
    3.6901    0.6947    0.1101 C   0  0  2  0  0  0  0  0  0  0  0  0
    2.8095   -0.5437   -0.1603 C   0  0  0  0  0  0  0  0  0  0  0  0
    3.0558    2.0031   -0.4083 C   0  0  1  0  0  0  0  0  0  0  0  0
    3.4507   -1.8516    0.3240 C   0  0  0  0  0  0  0  0  0  0  0  0
    1.7145    2.2890    0.2619 C   0  0  0  0  0  0  0  0  0  0  0  0
   -1.3677    3.1757   -0.6494 C   0  0  0  0  0  0  0  0  0  0  0  0
    2.5777   -3.0593   -0.0347 C   0  0  0  0  0  0  0  0  0  0  0  0
    3.1815   -4.3912    0.4140 C   0  0  0  0  0  0  0  0  0  0  0  0
   -2.3722   -1.7965   -0.1268 H   0  0  0  0  0  0  0  0  0  0  0  0
   -4.6919   -1.9360    1.4072 H   0  0  0  0  0  0  0  0  0  0  0  0
   -3.0847   -1.8531    2.1584 H   0  0  0  0  0  0  0  0  0  0  0  0
   -4.1868    0.0614    3.1466 H   0  0  0  0  0  0  0  0  0  0  0  0
   -4.9919    0.4584    1.6192 H   0  0  0  0  0  0  0  0  0  0  0  0
   -3.1203    1.9295    1.4421 H   0  0  0  0  0  0  0  0  0  0  0  0
   -2.0538    0.7983    2.3201 H   0  0  0  0  0  0  0  0  0  0  0  0
   -0.7244    2.0439    1.0555 H   0  0  0  0  0  0  0  0  0  0  0  0
    3.8570    0.7789    1.1913 H   0  0  0  0  0  0  0  0  0  0  0  0
    1.8478   -0.4354    0.3535 H   0  0  0  0  0  0  0  0  0  0  0  0
    2.5951   -0.6175   -1.2344 H   0  0  0  0  0  0  0  0  0  0  0  0
    2.9112    1.9522   -1.4943 H   0  0  0  0  0  0  0  0  0  0  0  0
    0.8203    1.3014   -1.3335 H   0  0  0  0  0  0  0  0  0  0  0  0
    3.5970   -1.8094    1.4099 H   0  0  0  0  0  0  0  0  0  0  0  0
    4.4372   -1.9909   -0.1320 H   0  0  0  0  0  0  0  0  0  0  0  0
   -0.8357    4.0849   -0.3496 H   0  0  0  0  0  0  0  0  0  0  0  0
   -2.4151    3.2782   -0.3496 H   0  0  0  0  0  0  0  0  0  0  0  0
   -1.3442    3.1277   -1.7444 H   0  0  0  0  0  0  0  0  0  0  0  0
    1.5894   -2.9337    0.4262 H   0  0  0  0  0  0  0  0  0  0  0  0
    2.4201   -3.0808   -1.1208 H   0  0  0  0  0  0  0  0  0  0  0  0
    4.8889    0.4264   -1.5306 H   0  0  0  0  0  0  0  0  0  0  0  0
    5.5689    1.3489   -0.3734 H   0  0  0  0  0  0  0  0  0  0  0  0
    3.3569   -4.3767    1.4952 H   0  0  0  0  0  0  0  0  0  0  0  0
    4.1530   -4.5431   -0.0687 H   0  0  0  0  0  0  0  0  0  0  0  0
   -4.9478   -1.9156   -2.3436 H   0  0  0  0  0  0  0  0  0  0  0  0
    4.1343    3.1100    0.7845 H   0  0  0  0  0  0  0  0  0  0  0  0
    1.4047   -5.3841    0.5359 H   0  0  0  0  0  0  0  0  0  0  0  0
    2.1358   -5.5375   -0.9088 H   0  0  0  0  0  0  0  0  0  0  0  0
  1 14  2  0  0  0  0
  2 16  1  0  0  0  0
  2 49  1  0  0  0  0
  3 19  1  0  0  0  0
  3 50  1  0  0  0  0
  4 16  2  0  0  0  0
  5 21  2  0  0  0  0
  6 10  1  0  0  0  0
  6 13  1  0  0  0  0
  6 14  1  0  0  0  0
  7 15  1  0  0  0  0
  7 21  1  0  0  0  0
  7 37  1  0  0  0  0
  8 17  1  0  0  0  0
  8 45  1  0  0  0  0
  8 46  1  0  0  0  0
  9 24  1  0  0  0  0
  9 51  1  0  0  0  0
  9 52  1  0  0  0  0
 10 11  1  0  0  0  0
 10 16  1  0  0  0  0
 10 25  1  0  0  0  0
 11 12  1  0  0  0  0
 11 26  1  0  0  0  0
 11 27  1  0  0  0  0
 12 13  1  0  0  0  0
 12 28  1  0  0  0  0
 12 29  1  0  0  0  0
 13 30  1  0  0  0  0
 13 31  1  0  0  0  0
 14 15  1  0  0  0  0
 15 22  1  0  0  0  0
 15 32  1  0  0  0  0
 17 18  1  0  0  0  0
 17 19  1  0  0  0  0
 17 33  1  0  0  0  0
 18 20  1  0  0  0  0
 18 34  1  0  0  0  0
 18 35  1  0  0  0  0
 19 21  1  0  0  0  0
 19 36  1  0  0  0  0
 20 23  1  0  0  0  0
 20 38  1  0  0  0  0
 20 39  1  0  0  0  0
 22 40  1  0  0  0  0
 22 41  1  0  0  0  0
 22 42  1  0  0  0  0
 23 24  1  0  0  0  0
 23 43  1  0  0  0  0
 23 44  1  0  0  0  0
 24 47  1  0  0  0  0
 24 48  1  0  0  0  0
M  END
> <PUBCHEM_COMPOUND_CID>
126843

> <PUBCHEM_CONFORMER_RMSD>
1.4

> <PUBCHEM_CONFORMER_DIVERSEORDER>
1
45
165
131
16
156
120
10
89
146
151
106
155
20
98
42
109
60
69
9
110
47
99
27
113
157
171
61
162
96
168
100
40
148
70
68
141
129
3
24
152
36
49
14
38
133
161
101
62
121
44
163
90
140
159
48
7
67
75
51
17
76
4
174
83
149
58
132
177
127
134
138
145
65
143
92
26
13
50
142
105
93
95
29
124
6
150
170
135
88
122
53
71
173
123
37
8
136
55
46
115
81
111
34
153
32
52
137
82
125
175
77
11
172
158
117
2
94
84
114
108
19
166
78
104
12
147
169
22
35
31
59
5
43
87
167
80
91
126
164
116
54
85
102
139
128
63
86
97
144
73
160
118
39
15
21
176
119
66
154
25
64
18
103
79
28
30
57
72
23
41
56
130
112
107
33
74

> <PUBCHEM_MMFF94_PARTIAL_CHARGES>
25
1 -0.57
10 0.36
13 0.3
14 0.57
15 0.36
16 0.66
17 0.27
19 0.34
2 -0.65
21 0.57
24 0.27
3 -0.68
37 0.37
4 -0.57
45 0.36
46 0.36
49 0.5
5 -0.57
50 0.4
51 0.36
52 0.36
6 -0.66
7 -0.73
8 -0.99
9 -0.99

> <PUBCHEM_EFFECTIVE_ROTOR_COUNT>
12

> <PUBCHEM_PHARMACOPHORE_FEATURES>
13
1 1 acceptor
1 2 acceptor
1 3 acceptor
1 3 donor
1 4 acceptor
1 5 acceptor
1 7 donor
1 8 cation
1 8 donor
1 9 cation
1 9 donor
3 2 4 16 anion
5 6 10 11 12 13 rings

> <PUBCHEM_HEAVY_ATOM_COUNT>
24

> <PUBCHEM_ATOM_DEF_STEREO_COUNT>
0

> <PUBCHEM_ATOM_UDEF_STEREO_COUNT>
4

> <PUBCHEM_BOND_DEF_STEREO_COUNT>
0

> <PUBCHEM_BOND_UDEF_STEREO_COUNT>
0

> <PUBCHEM_ISOTOPIC_ATOM_COUNT>
0

> <PUBCHEM_COMPONENT_COUNT>
1

> <PUBCHEM_CACTVS_TAUTO_COUNT>
2

> <PUBCHEM_CONFORMER_ID>
0001EF7B00000001

> <PUBCHEM_MMFF94_ENERGY>
32.9195

> <PUBCHEM_FEATURE_SELFOVERLAP>
66.037

> <PUBCHEM_SHAPE_FINGERPRINT>
10064457 181 17907028618298060576
10366900 7 18335987553393778124
10764073 3 17471039998660226113
10928967 22 18197511640098143774
12107183 9 17909846335787446585
12553582 1 18408893935874453120
12596602 18 17131836524951962192
13533116 47 18343302604590884747
14251757 5 16251960741697200958
14844126 61 17110439693921706594
152267 14 17907571428971074014
15375462 189 18272941539451281832
17134984 74 17908397488963739079
17138139 8 17196273554005599455
19930381 70 18336272275076114963
20645477 70 18261381299676186436
20775530 9 18045788879830505434
21285901 2 17605249926729812053
23559900 14 18260823843055008820
345986 75 17917151580798496328
3737641 26 18267602238172466594
56633871 153 17694502542280329075
59682541 52 18266432414051644855
7097593 13 18271535203622357225
9709674 26 18261952921205397660

> <PUBCHEM_SHAPE_MULTIPOLES>
444.64
10
5.31
1.38
1.54
5.7
0.25
4.17
-0.01
-7.76
0.15
2.22
0.09
-0.53

> <PUBCHEM_SHAPE_SELFOVERLAP>
883.054

> <PUBCHEM_SHAPE_VOLUME>
263.2

> <PUBCHEM_COORDINATE_TYPE>
2
5
10

$$$$
