12681850
  -OEChem-03292013303D

 48 49  0     1  0  0  0  0  0999 V2000
   -3.0434    1.5434    0.4456 O   0  0  0  0  0  0  0  0  0  0  0  0
   -5.6227    0.5176    0.6082 O   0  0  0  0  0  0  0  0  0  0  0  0
    1.1529   -2.9375    0.9129 O   0  0  0  0  0  0  0  0  0  0  0  0
    2.1310    3.3634   -0.1730 O   0  0  0  0  0  0  0  0  0  0  0  0
   -2.9805   -1.8895   -0.3587 N   0  0  0  0  0  0  0  0  0  0  0  0
   -0.2648   -2.6623   -0.8934 N   0  0  0  0  0  0  0  0  0  0  0  0
    1.6674   -1.4158   -0.7989 N   0  0  0  0  0  0  0  0  0  0  0  0
   -4.6653   -0.0743   -0.2745 C   0  0  2  0  0  0  0  0  0  0  0  0
   -4.0034   -1.2461    0.4546 C   0  0  0  0  0  0  0  0  0  0  0  0
   -2.3283   -2.9634    0.3782 C   0  0  0  0  0  0  0  0  0  0  0  0
   -3.6751    1.0033   -0.7110 C   0  0  0  0  0  0  0  0  0  0  0  0
   -1.2557   -3.6180   -0.4798 C   0  0  0  0  0  0  0  0  0  0  0  0
   -1.7595    1.9935    0.2917 C   0  0  0  0  0  0  0  0  0  0  0  0
    0.8934   -2.3838   -0.1528 C   0  0  0  0  0  0  0  0  0  0  0  0
   -1.3408    2.5002   -0.9385 C   0  0  0  0  0  0  0  0  0  0  0  0
   -0.8705    1.9462    1.3657 C   0  0  0  0  0  0  0  0  0  0  0  0
    2.9011   -0.8674   -0.3774 C   0  0  0  0  0  0  0  0  0  0  0  0
   -0.0333    2.9600   -1.0949 C   0  0  0  0  0  0  0  0  0  0  0  0
    0.4371    2.4060    1.2093 C   0  0  0  0  0  0  0  0  0  0  0  0
    0.8558    2.9128   -0.0210 C   0  0  0  0  0  0  0  0  0  0  0  0
    3.5371    0.0993   -1.1564 C   0  0  0  0  0  0  0  0  0  0  0  0
    3.4816   -1.2926    0.8176 C   0  0  0  0  0  0  0  0  0  0  0  0
    4.7536    0.6405   -0.7407 C   0  0  0  0  0  0  0  0  0  0  0  0
    4.6982   -0.7512    1.2333 C   0  0  0  0  0  0  0  0  0  0  0  0
    5.3341    0.2154    0.4541 C   0  0  0  0  0  0  0  0  0  0  0  0
   -5.2095   -0.4473   -1.1504 H   0  0  0  0  0  0  0  0  0  0  0  0
   -3.5740   -0.8869    1.3990 H   0  0  0  0  0  0  0  0  0  0  0  0
   -4.7811   -1.9688    0.7341 H   0  0  0  0  0  0  0  0  0  0  0  0
   -3.0595   -3.7247    0.6748 H   0  0  0  0  0  0  0  0  0  0  0  0
   -1.8680   -2.5647    1.2906 H   0  0  0  0  0  0  0  0  0  0  0  0
   -3.3981   -2.2556   -1.2136 H   0  0  0  0  0  0  0  0  0  0  0  0
   -4.2155    1.8172   -1.2091 H   0  0  0  0  0  0  0  0  0  0  0  0
   -2.9613    0.5625   -1.4175 H   0  0  0  0  0  0  0  0  0  0  0  0
   -1.6903   -4.0539   -1.3861 H   0  0  0  0  0  0  0  0  0  0  0  0
   -0.7703   -4.4235    0.0818 H   0  0  0  0  0  0  0  0  0  0  0  0
   -0.4213   -2.1542   -1.7583 H   0  0  0  0  0  0  0  0  0  0  0  0
   -6.0611    1.2380    0.1239 H   0  0  0  0  0  0  0  0  0  0  0  0
   -2.0088    2.5838   -1.7907 H   0  0  0  0  0  0  0  0  0  0  0  0
   -1.1911    1.5510    2.3257 H   0  0  0  0  0  0  0  0  0  0  0  0
    1.3063   -1.0556   -1.6788 H   0  0  0  0  0  0  0  0  0  0  0  0
    0.2858    3.3600   -2.0535 H   0  0  0  0  0  0  0  0  0  0  0  0
    1.1204    2.3627    2.0531 H   0  0  0  0  0  0  0  0  0  0  0  0
    3.0946    0.4409   -2.0887 H   0  0  0  0  0  0  0  0  0  0  0  0
    3.0507   -2.0351    1.4741 H   0  0  0  0  0  0  0  0  0  0  0  0
    5.2481    1.3940   -1.3467 H   0  0  0  0  0  0  0  0  0  0  0  0
    5.1513   -1.0811    2.1638 H   0  0  0  0  0  0  0  0  0  0  0  0
    6.2809    0.6373    0.7781 H   0  0  0  0  0  0  0  0  0  0  0  0
    2.6094    3.2445    0.6656 H   0  0  0  0  0  0  0  0  0  0  0  0
  1 11  1  0  0  0  0
  1 13  1  0  0  0  0
  2  8  1  0  0  0  0
  2 37  1  0  0  0  0
  3 14  2  0  0  0  0
  4 20  1  0  0  0  0
  4 48  1  0  0  0  0
  5  9  1  0  0  0  0
  5 10  1  0  0  0  0
  5 31  1  0  0  0  0
  6 12  1  0  0  0  0
  6 14  1  0  0  0  0
  6 36  1  0  0  0  0
  7 14  1  0  0  0  0
  7 17  1  0  0  0  0
  7 40  1  0  0  0  0
  8  9  1  0  0  0  0
  8 11  1  0  0  0  0
  8 26  1  0  0  0  0
  9 27  1  0  0  0  0
  9 28  1  0  0  0  0
 10 12  1  0  0  0  0
 10 29  1  0  0  0  0
 10 30  1  0  0  0  0
 11 32  1  0  0  0  0
 11 33  1  0  0  0  0
 12 34  1  0  0  0  0
 12 35  1  0  0  0  0
 13 15  2  0  0  0  0
 13 16  1  0  0  0  0
 15 18  1  0  0  0  0
 15 38  1  0  0  0  0
 16 19  2  0  0  0  0
 16 39  1  0  0  0  0
 17 21  2  0  0  0  0
 17 22  1  0  0  0  0
 18 20  2  0  0  0  0
 18 41  1  0  0  0  0
 19 20  1  0  0  0  0
 19 42  1  0  0  0  0
 21 23  1  0  0  0  0
 21 43  1  0  0  0  0
 22 24  2  0  0  0  0
 22 44  1  0  0  0  0
 23 25  2  0  0  0  0
 23 45  1  0  0  0  0
 24 25  1  0  0  0  0
 24 46  1  0  0  0  0
 25 47  1  0  0  0  0
M  END
> <PUBCHEM_COMPOUND_CID>
12681850

> <PUBCHEM_CONFORMER_RMSD>
1

> <PUBCHEM_CONFORMER_DIVERSEORDER>
1
99
13
57
11
81
129
74
50
100
102
31
82
120
106
9
140
136
49
139
114
84
65
51
88
110
54
122
64
137
111
116
86
109
38
113
32
130
135
67
132
35
19
73
89
42
7
4
78
66
61
134
53
105
112
96
36
97
80
14
44
83
107
91
123
47
30
59
45
25
68
138
94
87
75
26
55
20
79
21
8
119
6
77
69
117
28
103
58
37
125
126
131
46
101
63
127
93
24
12
17
18
95
2
39
85
27
40
10
76
121
92
43
3
98
34
90
56
72
104
133
62
15
71
115
41
108
23
70
60
22
124
29
128
52
33
48
118
5
16

> <PUBCHEM_MMFF94_PARTIAL_CHARGES>
39
1 -0.36
10 0.27
11 0.28
12 0.3
13 0.08
14 0.69
15 -0.15
16 -0.15
17 0.12
18 -0.15
19 -0.15
2 -0.68
20 0.08
21 -0.15
22 -0.15
23 -0.15
24 -0.15
25 -0.15
3 -0.57
31 0.36
36 0.37
37 0.4
38 0.15
39 0.15
4 -0.53
40 0.37
41 0.15
42 0.15
43 0.15
44 0.15
45 0.15
46 0.15
47 0.15
48 0.45
5 -0.9
6 -0.73
7 -0.55
8 0.28
9 0.27

> <PUBCHEM_EFFECTIVE_ROTOR_COUNT>
11

> <PUBCHEM_PHARMACOPHORE_FEATURES>
11
1 1 acceptor
1 2 acceptor
1 2 donor
1 3 acceptor
1 4 donor
1 5 cation
1 5 donor
1 6 donor
1 7 donor
6 13 15 16 18 19 20 rings
6 17 21 22 23 24 25 rings

> <PUBCHEM_HEAVY_ATOM_COUNT>
25

> <PUBCHEM_ATOM_DEF_STEREO_COUNT>
0

> <PUBCHEM_ATOM_UDEF_STEREO_COUNT>
1

> <PUBCHEM_BOND_DEF_STEREO_COUNT>
0

> <PUBCHEM_BOND_UDEF_STEREO_COUNT>
0

> <PUBCHEM_ISOTOPIC_ATOM_COUNT>
0

> <PUBCHEM_COMPONENT_COUNT>
1

> <PUBCHEM_CACTVS_TAUTO_COUNT>
6

> <PUBCHEM_CONFORMER_ID>
00C1827A00000001

> <PUBCHEM_MMFF94_ENERGY>
57.5059

> <PUBCHEM_FEATURE_SELFOVERLAP>
55.88

> <PUBCHEM_SHAPE_FINGERPRINT>
10675989 125 17110146132891369461
1100329 8 18339923826137174653
11112241 14 16843577582730211009
11513181 2 17771632527407701374
12422481 6 17910931850464925752
12838862 33 18339624686403379541
13122387 1 18411420656502687119
13140716 1 18267303308248049075
13402501 40 18413669106378966587
13773456 30 17396962579843865628
14117953 113 18121215372689003004
14765038 42 18200894910390702593
14790565 3 17330836821284916681
14840074 17 18335999596381953433
17492 54 18261401043598583277
18336668 15 18188207710094734476
19930381 70 15166576661242282669
20715895 44 17394434815644301117
20764821 26 18265889344557518759
20905425 154 17693950986784947430
22113638 7 18410572915936833303
3052486 1 18336815490260790450
338550 245 18118967129440898612
3680242 22 18336552620486449947
392239 28 18272645736489623448
463206 1 18337115682114724073
59567204 34 18339365296549574684
59755656 215 18269843034538909558
6433294 58 18410293640020392180
9543594 6 18195523912058395160

> <PUBCHEM_SHAPE_MULTIPOLES>
476.07
9.84
4.76
1.17
1.3
0.58
-0.09
1.18
-0.94
-1.48
0.27
0.46
-0.28
-0.39

> <PUBCHEM_SHAPE_SELFOVERLAP>
984.692

> <PUBCHEM_SHAPE_VOLUME>
270.9

> <PUBCHEM_COORDINATE_TYPE>
2
5
10

$$$$
