126971
  -OEChem-03292013323D

 47 51  0     1  0  0  0  0  0999 V2000
   -2.3789   -1.5772   -1.1377 N   0  0  0  0  0  0  0  0  0  0  0  0
    1.9995   -1.8556    0.8469 N   0  0  0  0  0  0  0  0  0  0  0  0
   -2.0145    0.4722   -2.0551 N   0  0  0  0  0  0  0  0  0  0  0  0
   -3.6496   -0.9071    0.8443 N   0  0  0  0  0  0  0  0  0  0  0  0
    1.4432    0.5103    1.0794 N   0  0  0  0  0  0  0  0  0  0  0  0
   -1.7513    2.4492    0.2915 N   0  0  0  0  0  0  0  0  0  0  0  0
    3.8150   -1.6865   -0.4330 N   0  0  0  0  0  0  0  0  0  0  0  0
   -3.5867    1.4586    1.2098 N   0  0  0  0  0  0  0  0  0  0  0  0
    3.0230    1.9084   -0.1281 N   0  0  0  0  0  0  0  0  0  0  0  0
    4.8707    1.0049   -1.3482 N   0  0  0  0  0  0  0  0  0  0  0  0
   -0.6167   -3.0739   -0.2742 C   0  0  0  0  0  0  0  0  0  0  0  0
   -2.0360   -2.9570   -0.8476 C   0  0  0  0  0  0  0  0  0  0  0  0
   -0.4429   -2.3460    1.0651 C   0  0  0  0  0  0  0  0  0  0  0  0
    0.9653   -2.4797    1.6475 C   0  0  0  0  0  0  0  0  0  0  0  0
   -3.0049    0.6244   -0.9468 C   0  0  1  0  0  0  0  0  0  0  0  0
   -3.0822   -0.7510   -0.3021 C   0  0  0  0  0  0  0  0  0  0  0  0
    2.1847   -0.5162    0.6328 C   0  0  0  0  0  0  0  0  0  0  0  0
   -1.7854   -0.8134   -2.1006 C   0  0  0  0  0  0  0  0  0  0  0  0
   -2.6867    1.5809    0.1644 C   0  0  0  0  0  0  0  0  0  0  0  0
    3.3148   -0.4376   -0.1657 C   0  0  0  0  0  0  0  0  0  0  0  0
    0.3700    3.5474   -0.1358 C   0  0  0  0  0  0  0  0  0  0  0  0
    1.1435    2.9286    1.0384 C   0  0  0  0  0  0  0  0  0  0  0  0
    3.0046   -2.5156    0.1906 C   0  0  0  0  0  0  0  0  0  0  0  0
   -0.7202    2.6365   -0.7123 C   0  0  0  0  0  0  0  0  0  0  0  0
    1.9263    1.7006    0.6482 C   0  0  0  0  0  0  0  0  0  0  0  0
    3.7319    0.8324   -0.5427 C   0  0  0  0  0  0  0  0  0  0  0  0
   -4.0367    0.2623    1.4711 C   0  0  0  0  0  0  0  0  0  0  0  0
    0.1015   -2.6848   -1.0053 H   0  0  0  0  0  0  0  0  0  0  0  0
   -0.3836   -4.1370   -0.1374 H   0  0  0  0  0  0  0  0  0  0  0  0
   -2.0976   -3.5434   -1.7720 H   0  0  0  0  0  0  0  0  0  0  0  0
   -2.7604   -3.3945   -0.1503 H   0  0  0  0  0  0  0  0  0  0  0  0
   -0.6792   -1.2833    0.9502 H   0  0  0  0  0  0  0  0  0  0  0  0
   -1.1588   -2.7548    1.7884 H   0  0  0  0  0  0  0  0  0  0  0  0
    1.0074   -2.0074    2.6361 H   0  0  0  0  0  0  0  0  0  0  0  0
    1.2265   -3.5361    1.7791 H   0  0  0  0  0  0  0  0  0  0  0  0
   -3.9822    0.8803   -1.3740 H   0  0  0  0  0  0  0  0  0  0  0  0
   -1.1110   -1.3166   -2.8088 H   0  0  0  0  0  0  0  0  0  0  0  0
   -0.0857    4.4858    0.2041 H   0  0  0  0  0  0  0  0  0  0  0  0
    1.0700    3.8069   -0.9398 H   0  0  0  0  0  0  0  0  0  0  0  0
    0.4596    2.6866    1.8603 H   0  0  0  0  0  0  0  0  0  0  0  0
    1.8488    3.6714    1.4307 H   0  0  0  0  0  0  0  0  0  0  0  0
    3.0963   -3.5932    0.2011 H   0  0  0  0  0  0  0  0  0  0  0  0
   -1.1472    3.1148   -1.6008 H   0  0  0  0  0  0  0  0  0  0  0  0
   -0.2578    1.6912   -1.0066 H   0  0  0  0  0  0  0  0  0  0  0  0
   -4.7672    0.1533    2.2890 H   0  0  0  0  0  0  0  0  0  0  0  0
    5.1523    1.9396   -1.6109 H   0  0  0  0  0  0  0  0  0  0  0  0
    5.4013    0.2034   -1.6614 H   0  0  0  0  0  0  0  0  0  0  0  0
  1 12  1  0  0  0  0
  1 16  1  0  0  0  0
  1 18  1  0  0  0  0
  2 14  1  0  0  0  0
  2 17  1  0  0  0  0
  2 23  1  0  0  0  0
  3 15  1  0  0  0  0
  3 18  2  0  0  0  0
  4 16  2  0  0  0  0
  4 27  1  0  0  0  0
  5 17  2  0  0  0  0
  5 25  1  0  0  0  0
  6 19  2  0  0  0  0
  6 24  1  0  0  0  0
  7 20  1  0  0  0  0
  7 23  2  0  0  0  0
  8 19  1  0  0  0  0
  8 27  2  0  0  0  0
  9 25  2  0  0  0  0
  9 26  1  0  0  0  0
 10 26  1  0  0  0  0
 10 46  1  0  0  0  0
 10 47  1  0  0  0  0
 11 12  1  0  0  0  0
 11 13  1  0  0  0  0
 11 28  1  0  0  0  0
 11 29  1  0  0  0  0
 12 30  1  0  0  0  0
 12 31  1  0  0  0  0
 13 14  1  0  0  0  0
 13 32  1  0  0  0  0
 13 33  1  0  0  0  0
 14 34  1  0  0  0  0
 14 35  1  0  0  0  0
 15 16  1  0  0  0  0
 15 19  1  0  0  0  0
 15 36  1  0  0  0  0
 17 20  1  0  0  0  0
 18 37  1  0  0  0  0
 20 26  2  0  0  0  0
 21 22  1  0  0  0  0
 21 24  1  0  0  0  0
 21 38  1  0  0  0  0
 21 39  1  0  0  0  0
 22 25  1  0  0  0  0
 22 40  1  0  0  0  0
 22 41  1  0  0  0  0
 23 42  1  0  0  0  0
 24 43  1  0  0  0  0
 24 44  1  0  0  0  0
 27 45  1  0  0  0  0
M  END
> <PUBCHEM_COMPOUND_CID>
126971

> <PUBCHEM_CONFORMER_RMSD>
0.6

> <PUBCHEM_CONFORMER_DIVERSEORDER>
1
5
13
15
9
16
2
10
14
4
11
17
18
12
8
7
3
6

> <PUBCHEM_MMFF94_PARTIAL_CHARGES>
29
1 -0.47
10 -0.9
12 0.37
14 0.26
15 0.37
16 0.44
17 0.11
18 0.44
19 0.6
2 0.05
20 0.23
22 0.14
23 0.04
24 0.25
25 0.48
26 0.41
27 0.6
3 -0.7
37 0.06
4 -0.66
42 0.15
45 0.06
46 0.4
47 0.4
5 -0.57
6 -0.7
7 -0.57
8 -0.66
9 -0.62

> <PUBCHEM_EFFECTIVE_ROTOR_COUNT>
1.4

> <PUBCHEM_PHARMACOPHORE_FEATURES>
13
1 10 cation
1 10 donor
3 1 3 18 cation
3 1 4 16 cation
3 2 5 17 cation
3 2 7 23 cation
3 4 8 27 cation
3 5 9 25 cation
3 6 8 19 cation
5 1 3 15 16 18 rings
5 2 7 17 20 23 rings
6 4 8 15 16 19 27 rings
6 5 9 17 20 25 26 rings

> <PUBCHEM_HEAVY_ATOM_COUNT>
27

> <PUBCHEM_ATOM_DEF_STEREO_COUNT>
0

> <PUBCHEM_ATOM_UDEF_STEREO_COUNT>
1

> <PUBCHEM_BOND_DEF_STEREO_COUNT>
0

> <PUBCHEM_BOND_UDEF_STEREO_COUNT>
0

> <PUBCHEM_ISOTOPIC_ATOM_COUNT>
0

> <PUBCHEM_COMPONENT_COUNT>
1

> <PUBCHEM_CACTVS_TAUTO_COUNT>
3

> <PUBCHEM_CONFORMER_ID>
0001EFFB00000001

> <PUBCHEM_MMFF94_ENERGY>
77.4579

> <PUBCHEM_FEATURE_SELFOVERLAP>
67.319

> <PUBCHEM_SHAPE_FINGERPRINT>
10674148 151 17558858125472119308
10675989 125 16102456838749207084
10764073 3 11202972711474925655
12156800 1 16895752669437724635
12422481 6 17044544883948455794
12539773 59 17703511103334582251
12553582 1 18412538834095475644
12596599 1 18130218388676966445
128993 33 18334003974045147927
13122387 1 18338508746114012336
13140716 1 18194955249682432448
13224815 77 17894343376074318442
14279260 333 17974013843507813202
14386348 128 18335693940581123543
14468879 13 16951661663490187055
14765038 42 18200051610868927536
14931854 50 18410005559331019166
15209289 33 18338521944580427840
15664445 248 15689230170899182663
19319366 153 18187368718324975666
19930381 70 18337670927244807347
20764821 26 17903645420876903912
21315764 21 17608056841959651381
238 59 17686854644165890695
2818148 4 18412262843712900251
35225 105 17615444727338769771
445580 8 17983574104914107633
469060 322 16516811557619154723
57527585 103 17101990440429300370
6287921 2 17832713747835533302
7097593 13 18271247239351423993
7226269 152 18262503841847064346

> <PUBCHEM_SHAPE_MULTIPOLES>
505.84
7.31
4.24
1.55
2.18
0.38
-0.28
0.18
-0.59
0.54
0.43
-0.82
-0.25
-0.81

> <PUBCHEM_SHAPE_SELFOVERLAP>
1112.036

> <PUBCHEM_SHAPE_VOLUME>
262.5

> <PUBCHEM_COORDINATE_TYPE>
2
5
10

$$$$
