126919
  -OEChem-03292013323D

 46 47  0     1  0  0  0  0  0999 V2000
   -2.9083    0.7801   -0.9731 O   0  0  0  0  0  0  0  0  0  0  0  0
   -5.0104   -1.8120    1.4878 O   0  0  0  0  0  0  0  0  0  0  0  0
   -0.1394    1.4873    2.1217 O   0  0  0  0  0  0  0  0  0  0  0  0
    1.1611    3.4091   -1.0070 O   0  0  0  0  0  0  0  0  0  0  0  0
    2.3971    2.7034    0.7597 O   0  0  0  0  0  0  0  0  0  0  0  0
    2.3791   -0.1379   -1.9957 O   0  0  0  0  0  0  0  0  0  0  0  0
   -4.1555   -1.1622   -0.6125 N   0  0  0  0  0  0  0  0  0  0  0  0
    1.5384    0.1263    0.1495 N   0  0  0  0  0  0  0  0  0  0  0  0
    3.8519   -2.2527   -1.3850 N   0  0  0  0  0  0  0  0  0  0  0  0
   -4.2583    0.2584   -0.9641 C   0  0  1  0  0  0  0  0  0  0  0  0
   -1.9775   -0.2900   -0.6516 C   0  0  2  0  0  0  0  0  0  0  0  0
   -2.7811   -1.6067   -0.7315 C   0  0  0  0  0  0  0  0  0  0  0  0
   -5.1386    0.4350    0.2844 C   0  0  0  0  0  0  0  0  0  0  0  0
   -1.4016   -0.0282    0.7351 C   0  0  0  0  0  0  0  0  0  0  0  0
   -4.8389   -1.0500    0.5634 C   0  0  0  0  0  0  0  0  0  0  0  0
   -0.5647    1.2575    0.7784 C   0  0  2  0  0  0  0  0  0  0  0  0
    0.6651    1.2398   -0.1404 C   0  0  1  0  0  0  0  0  0  0  0  0
    1.4992    2.5068   -0.0490 C   0  0  0  0  0  0  0  0  0  0  0  0
    3.1540   -1.6378   -0.2534 C   0  0  2  0  0  0  0  0  0  0  0  0
    2.3327   -0.4775   -0.8144 C   0  0  0  0  0  0  0  0  0  0  0  0
    4.1477   -1.2047    0.8504 C   0  0  0  0  0  0  0  0  0  0  0  0
    5.1556   -0.1417    0.3992 C   0  0  0  0  0  0  0  0  0  0  0  0
    4.8924   -2.4024    1.4481 C   0  0  0  0  0  0  0  0  0  0  0  0
   -4.7646    0.4222   -1.9203 H   0  0  0  0  0  0  0  0  0  0  0  0
   -1.1943   -0.3142   -1.4140 H   0  0  0  0  0  0  0  0  0  0  0  0
   -2.5174   -2.3255    0.0492 H   0  0  0  0  0  0  0  0  0  0  0  0
   -2.6754   -2.0655   -1.7193 H   0  0  0  0  0  0  0  0  0  0  0  0
   -4.7473    1.1164    1.0438 H   0  0  0  0  0  0  0  0  0  0  0  0
   -6.1924    0.6478    0.0890 H   0  0  0  0  0  0  0  0  0  0  0  0
   -2.2090    0.0713    1.4720 H   0  0  0  0  0  0  0  0  0  0  0  0
   -0.7993   -0.8816    1.0691 H   0  0  0  0  0  0  0  0  0  0  0  0
   -1.2004    2.1104    0.5105 H   0  0  0  0  0  0  0  0  0  0  0  0
    0.3539    1.1478   -1.1871 H   0  0  0  0  0  0  0  0  0  0  0  0
    1.5839   -0.2004    1.1099 H   0  0  0  0  0  0  0  0  0  0  0  0
    0.2411    2.3806    2.1675 H   0  0  0  0  0  0  0  0  0  0  0  0
    2.4514   -2.3726    0.1587 H   0  0  0  0  0  0  0  0  0  0  0  0
    3.5720   -0.7588    1.6716 H   0  0  0  0  0  0  0  0  0  0  0  0
    4.6515    0.7443    0.0014 H   0  0  0  0  0  0  0  0  0  0  0  0
    5.8346   -0.5238   -0.3698 H   0  0  0  0  0  0  0  0  0  0  0  0
    5.7696    0.1854    1.2457 H   0  0  0  0  0  0  0  0  0  0  0  0
    5.5589   -2.8729    0.7179 H   0  0  0  0  0  0  0  0  0  0  0  0
    5.5028   -2.0898    2.3024 H   0  0  0  0  0  0  0  0  0  0  0  0
    4.1865   -3.1600    1.8046 H   0  0  0  0  0  0  0  0  0  0  0  0
    3.1746   -2.5614   -2.0814 H   0  0  0  0  0  0  0  0  0  0  0  0
    4.4481   -1.5681   -1.8475 H   0  0  0  0  0  0  0  0  0  0  0  0
    1.7118    4.2194   -0.9563 H   0  0  0  0  0  0  0  0  0  0  0  0
  1 10  1  0  0  0  0
  1 11  1  0  0  0  0
  2 15  2  0  0  0  0
  3 16  1  0  0  0  0
  3 35  1  0  0  0  0
  4 18  1  0  0  0  0
  4 46  1  0  0  0  0
  5 18  2  0  0  0  0
  6 20  2  0  0  0  0
  7 10  1  0  0  0  0
  7 12  1  0  0  0  0
  7 15  1  0  0  0  0
  8 17  1  0  0  0  0
  8 20  1  0  0  0  0
  8 34  1  0  0  0  0
  9 19  1  0  0  0  0
  9 44  1  0  0  0  0
  9 45  1  0  0  0  0
 10 13  1  0  0  0  0
 10 24  1  0  0  0  0
 11 12  1  0  0  0  0
 11 14  1  0  0  0  0
 11 25  1  0  0  0  0
 12 26  1  0  0  0  0
 12 27  1  0  0  0  0
 13 15  1  0  0  0  0
 13 28  1  0  0  0  0
 13 29  1  0  0  0  0
 14 16  1  0  0  0  0
 14 30  1  0  0  0  0
 14 31  1  0  0  0  0
 16 17  1  0  0  0  0
 16 32  1  0  0  0  0
 17 18  1  0  0  0  0
 17 33  1  0  0  0  0
 19 20  1  0  0  0  0
 19 21  1  0  0  0  0
 19 36  1  0  0  0  0
 21 22  1  0  0  0  0
 21 23  1  0  0  0  0
 21 37  1  0  0  0  0
 22 38  1  0  0  0  0
 22 39  1  0  0  0  0
 22 40  1  0  0  0  0
 23 41  1  0  0  0  0
 23 42  1  0  0  0  0
 23 43  1  0  0  0  0
M  END
> <PUBCHEM_COMPOUND_CID>
126919

> <PUBCHEM_CONFORMER_RMSD>
1.2

> <PUBCHEM_CONFORMER_DIVERSEORDER>
1
552
196
497
38
199
433
171
41
524
7
512
341
74
156
123
313
174
414
93
23
468
242
55
429
351
376
16
446
110
114
90
253
436
58
36
290
82
138
129
164
88
71
425
321
523
136
106
362
26
252
272
11
411
350
194
176
56
84
30
361
51
78
35
33
483
572
6
201
15
10
266
286
42
439
412
208
398
63
237
225
204
344
300
271
211
2
39
17
18
560
501
168
405
328
219
453
89
144
53
527
22
206
5
81
31
25
189
334
85
517
94
285
135
426
4
655
121
675
233
3
198
224
20
13
99
91
45
182
28
52
567
173
652
349
323
118
75
380
585
57
520
382
245
150
202
639
354
514
9
101
80
184
264
61
270
8
311
492
444
231

> <PUBCHEM_MMFF94_PARTIAL_CHARGES>
24
1 -0.54
10 0.48
11 0.28
12 0.3
13 0.05
15 0.58
16 0.28
17 0.36
18 0.66
19 0.33
2 -0.57
20 0.57
3 -0.68
34 0.37
35 0.4
4 -0.65
44 0.36
45 0.36
46 0.5
5 -0.57
6 -0.57
7 -0.59
8 -0.73
9 -0.99

> <PUBCHEM_EFFECTIVE_ROTOR_COUNT>
8.8

> <PUBCHEM_PHARMACOPHORE_FEATURES>
13
1 1 acceptor
1 2 acceptor
1 3 acceptor
1 3 donor
1 4 acceptor
1 5 acceptor
1 6 acceptor
1 8 donor
1 9 cation
1 9 donor
3 21 22 23 hydrophobe
3 4 5 18 anion
7 1 7 10 11 12 13 15 rings

> <PUBCHEM_HEAVY_ATOM_COUNT>
23

> <PUBCHEM_ATOM_DEF_STEREO_COUNT>
0

> <PUBCHEM_ATOM_UDEF_STEREO_COUNT>
5

> <PUBCHEM_BOND_DEF_STEREO_COUNT>
0

> <PUBCHEM_BOND_UDEF_STEREO_COUNT>
0

> <PUBCHEM_ISOTOPIC_ATOM_COUNT>
0

> <PUBCHEM_COMPONENT_COUNT>
1

> <PUBCHEM_CACTVS_TAUTO_COUNT>
2

> <PUBCHEM_CONFORMER_ID>
0001EFC700000001

> <PUBCHEM_MMFF94_ENERGY>
54.4259

> <PUBCHEM_FEATURE_SELFOVERLAP>
66.034

> <PUBCHEM_SHAPE_FINGERPRINT>
10730089 43 12463577248588192115
11265709 11 18341050731451590424
11405975 8 18410578401169278273
11595378 159 15841290193589257747
11796584 16 18187643570398799291
12363563 72 18337962194641301654
12553582 1 18200890507880405894
12633257 1 18130511924391856191
13004483 165 18266162960234805026
13083527 12 18272641364408393424
13544653 18 17846772971249647238
13899415 180 18187070754847353732
13955234 65 18193559101759352097
14178342 30 17772761463697970976
14251751 18 18114181960173457307
14251764 30 17096389374475249403
14341114 328 14117506628286457830
14429115 67 18044368332387965090
14528608 73 7853569098153532875
14863182 85 17060347339928897782
1813 80 18412268302763649772
18186145 218 18041272249388020021
18785283 64 18264212585083070581
193927 3 18342182132837161715
20645477 70 18341886437740536631
20671657 53 18408039593854408544
21250096 35 18335978675580488666
21421861 104 18059023876928573880
23419403 2 17699531871869894824
23557571 272 17916588605750386844
23559900 14 18337945787544529625
2637199 183 12612755683525381712
3004659 81 18334864879012909910
5104073 3 18271533099953442107
5281201 14 18187365484520303621
5283173 99 17970616403652863084
7495541 125 18186808014691866179
8863177 126 18042698367393361379
9709674 26 18117274963986857067
9841814 1 18341899601741393532

> <PUBCHEM_SHAPE_MULTIPOLES>
423.17
11.62
2.83
1.47
3.8
1.68
-0.09
-7.98
-1.77
-2.42
-0.16
-0.39
-0.18
0.12

> <PUBCHEM_SHAPE_SELFOVERLAP>
862.27

> <PUBCHEM_SHAPE_VOLUME>
244.4

> <PUBCHEM_COORDINATE_TYPE>
2
5
10

$$$$
