126970626
  -OEChem-03292013293D

 71 74  0     1  0  0  0  0  0999 V2000
    7.7193   -0.6632   -0.2735 S   0  0  0  0  0  0  0  0  0  0  0  0
   -3.0178    2.6923   -1.5245 O   0  0  0  0  0  0  0  0  0  0  0  0
   -6.1813    0.9507    0.9637 O   0  0  0  0  0  0  0  0  0  0  0  0
    8.4415   -0.8652   -1.5290 O   0  5  0  0  0  0  0  0  0  0  0  0
    8.1057    0.5324    0.4745 O   0  0  0  0  0  0  0  0  0  0  0  0
    7.5427   -1.8676    0.5369 O   0  0  0  0  0  0  0  0  0  0  0  0
   -0.7208    1.2793   -0.3709 C   0  0  1  0  0  0  0  0  0  0  0  0
    0.5989    0.4669   -0.4751 C   0  0  1  0  0  0  0  0  0  0  0  0
   -1.9511    0.5887   -1.0075 C   0  0  1  0  0  0  0  0  0  0  0  0
   -2.1426   -0.9077   -0.6248 C   0  0  2  0  0  0  0  0  0  0  0  0
   -3.5897   -1.3228   -0.1500 C   0  0  2  0  0  0  0  0  0  0  0  0
    1.4493    1.1483    0.6343 C   0  0  1  0  0  0  0  0  0  0  0  0
   -4.6621   -0.7126   -1.1140 C   0  0  2  0  0  0  0  0  0  0  0  0
    0.3679   -1.0534   -0.2845 C   0  0  0  0  0  0  0  0  0  0  0  0
   -1.0035   -1.4295    0.2727 C   0  0  0  0  0  0  0  0  0  0  0  0
   -3.2274    1.4302   -0.8859 C   0  0  2  0  0  0  0  0  0  0  0  0
   -0.8661    1.6587    1.1178 C   0  0  0  0  0  0  0  0  0  0  0  0
    0.4691    1.3416    1.7863 C   0  0  0  0  0  0  0  0  0  0  0  0
   -4.4062    0.7421   -1.5563 C   0  0  0  0  0  0  0  0  0  0  0  0
   -3.8636   -0.9318    1.3282 C   0  0  0  0  0  0  0  0  0  0  0  0
    1.2715    0.6853   -1.8452 C   0  0  0  0  0  0  0  0  0  0  0  0
    2.7304    0.4487    1.0691 C   0  0  1  0  0  0  0  0  0  0  0  0
   -6.1107   -0.8866   -0.5994 C   0  0  0  0  0  0  0  0  0  0  0  0
   -3.6966   -2.8762   -0.2439 C   0  0  0  0  0  0  0  0  0  0  0  0
   -5.3105   -1.1489    1.7772 C   0  0  0  0  0  0  0  0  0  0  0  0
   -6.3099   -0.4632    0.8540 C   0  0  1  0  0  0  0  0  0  0  0  0
    3.7274    0.2560   -0.0913 C   0  0  0  0  0  0  0  0  0  0  0  0
    3.4040    1.2444    2.1925 C   0  0  0  0  0  0  0  0  0  0  0  0
    5.1537   -0.0447    0.3758 C   0  0  0  0  0  0  0  0  0  0  0  0
    6.0786   -0.2923   -0.8072 C   0  0  0  0  0  0  0  0  0  0  0  0
   -0.5662    2.2278   -0.9079 H   0  0  0  0  0  0  0  0  0  0  0  0
   -1.7189    0.5792   -2.0849 H   0  0  0  0  0  0  0  0  0  0  0  0
   -2.0055   -1.4398   -1.5812 H   0  0  0  0  0  0  0  0  0  0  0  0
    1.7223    2.1565    0.2841 H   0  0  0  0  0  0  0  0  0  0  0  0
   -4.6185   -1.2943   -2.0479 H   0  0  0  0  0  0  0  0  0  0  0  0
    0.4606   -1.5600   -1.2555 H   0  0  0  0  0  0  0  0  0  0  0  0
    1.1355   -1.5156    0.3394 H   0  0  0  0  0  0  0  0  0  0  0  0
   -1.0442   -2.5225    0.3321 H   0  0  0  0  0  0  0  0  0  0  0  0
   -1.1021   -1.0688    1.2992 H   0  0  0  0  0  0  0  0  0  0  0  0
   -3.4637    1.6538    0.1559 H   0  0  0  0  0  0  0  0  0  0  0  0
   -1.6714    1.1289    1.6293 H   0  0  0  0  0  0  0  0  0  0  0  0
   -1.0909    2.7286    1.2032 H   0  0  0  0  0  0  0  0  0  0  0  0
    0.7546    2.1601    2.4547 H   0  0  0  0  0  0  0  0  0  0  0  0
    0.3800    0.4321    2.3914 H   0  0  0  0  0  0  0  0  0  0  0  0
   -4.2315    0.7426   -2.6425 H   0  0  0  0  0  0  0  0  0  0  0  0
   -5.3000    1.3679   -1.4436 H   0  0  0  0  0  0  0  0  0  0  0  0
   -3.6130    0.1137    1.5102 H   0  0  0  0  0  0  0  0  0  0  0  0
   -3.2165   -1.5102    1.9990 H   0  0  0  0  0  0  0  0  0  0  0  0
    1.6801    1.6966   -1.9464 H   0  0  0  0  0  0  0  0  0  0  0  0
    0.5356    0.5667   -2.6495 H   0  0  0  0  0  0  0  0  0  0  0  0
    2.0589   -0.0337   -2.0724 H   0  0  0  0  0  0  0  0  0  0  0  0
    2.5067   -0.5341    1.4988 H   0  0  0  0  0  0  0  0  0  0  0  0
   -6.7973   -0.3251   -1.2457 H   0  0  0  0  0  0  0  0  0  0  0  0
   -6.4000   -1.9400   -0.6984 H   0  0  0  0  0  0  0  0  0  0  0  0
   -3.4116   -3.2316   -1.2407 H   0  0  0  0  0  0  0  0  0  0  0  0
   -3.0485   -3.3731    0.4850 H   0  0  0  0  0  0  0  0  0  0  0  0
   -4.7108   -3.2391   -0.0549 H   0  0  0  0  0  0  0  0  0  0  0  0
   -5.5293   -2.2214    1.8284 H   0  0  0  0  0  0  0  0  0  0  0  0
   -5.4165   -0.7565    2.7960 H   0  0  0  0  0  0  0  0  0  0  0  0
   -7.3299   -0.7171    1.1640 H   0  0  0  0  0  0  0  0  0  0  0  0
    3.7544    1.1503   -0.7245 H   0  0  0  0  0  0  0  0  0  0  0  0
    3.4043   -0.5953   -0.6970 H   0  0  0  0  0  0  0  0  0  0  0  0
   -3.8338    3.2114   -1.4228 H   0  0  0  0  0  0  0  0  0  0  0  0
    3.7661    2.2154    1.8373 H   0  0  0  0  0  0  0  0  0  0  0  0
    2.7247    1.4289    3.0298 H   0  0  0  0  0  0  0  0  0  0  0  0
    4.2406    0.6974    2.6391 H   0  0  0  0  0  0  0  0  0  0  0  0
    5.1461   -0.9154    1.0419 H   0  0  0  0  0  0  0  0  0  0  0  0
    5.5582    0.8013    0.9409 H   0  0  0  0  0  0  0  0  0  0  0  0
   -6.3265    1.1883    1.8953 H   0  0  0  0  0  0  0  0  0  0  0  0
    5.7292   -1.1399   -1.4063 H   0  0  0  0  0  0  0  0  0  0  0  0
    6.1324    0.5899   -1.4539 H   0  0  0  0  0  0  0  0  0  0  0  0
  1  4  1  0  0  0  0
  1  5  2  0  0  0  0
  1  6  2  0  0  0  0
  1 30  1  0  0  0  0
  2 16  1  0  0  0  0
  2 63  1  0  0  0  0
  3 26  1  0  0  0  0
  3 69  1  0  0  0  0
  7  8  1  0  0  0  0
  7  9  1  0  0  0  0
  7 17  1  0  0  0  0
  7 31  1  0  0  0  0
  8 12  1  0  0  0  0
  8 14  1  0  0  0  0
  8 21  1  0  0  0  0
  9 10  1  0  0  0  0
  9 16  1  0  0  0  0
  9 32  1  0  0  0  0
 10 11  1  0  0  0  0
 10 15  1  0  0  0  0
 10 33  1  0  0  0  0
 11 13  1  0  0  0  0
 11 20  1  0  0  0  0
 11 24  1  0  0  0  0
 12 18  1  0  0  0  0
 12 22  1  0  0  0  0
 12 34  1  0  0  0  0
 13 19  1  0  0  0  0
 13 23  1  0  0  0  0
 13 35  1  0  0  0  0
 14 15  1  0  0  0  0
 14 36  1  0  0  0  0
 14 37  1  0  0  0  0
 15 38  1  0  0  0  0
 15 39  1  0  0  0  0
 16 19  1  0  0  0  0
 16 40  1  0  0  0  0
 17 18  1  0  0  0  0
 17 41  1  0  0  0  0
 17 42  1  0  0  0  0
 18 43  1  0  0  0  0
 18 44  1  0  0  0  0
 19 45  1  0  0  0  0
 19 46  1  0  0  0  0
 20 25  1  0  0  0  0
 20 47  1  0  0  0  0
 20 48  1  0  0  0  0
 21 49  1  0  0  0  0
 21 50  1  0  0  0  0
 21 51  1  0  0  0  0
 22 27  1  0  0  0  0
 22 28  1  0  0  0  0
 22 52  1  0  0  0  0
 23 26  1  0  0  0  0
 23 53  1  0  0  0  0
 23 54  1  0  0  0  0
 24 55  1  0  0  0  0
 24 56  1  0  0  0  0
 24 57  1  0  0  0  0
 25 26  1  0  0  0  0
 25 58  1  0  0  0  0
 25 59  1  0  0  0  0
 26 60  1  0  0  0  0
 27 29  1  0  0  0  0
 27 61  1  0  0  0  0
 27 62  1  0  0  0  0
 28 64  1  0  0  0  0
 28 65  1  0  0  0  0
 28 66  1  0  0  0  0
 29 30  1  0  0  0  0
 29 67  1  0  0  0  0
 29 68  1  0  0  0  0
 30 70  1  0  0  0  0
 30 71  1  0  0  0  0
M  CHG  1   4  -1
M  END
> <PUBCHEM_COMPOUND_CID>
126970626

> <PUBCHEM_CONFORMER_RMSD>
1

> <PUBCHEM_CONFORMER_DIVERSEORDER>
3
10
32
39
40
21
15
33
44
43
34
20
35
1
31
28
41
18
8
30
4
5
13
6
37
27
22
7
29
42
11
14
23
38
9
36
17
26
12
2
16
19
25
24

> <PUBCHEM_MMFF94_PARTIAL_CHARGES>
11
1 1.34
16 0.28
2 -0.68
26 0.28
3 -0.68
30 0.11
4 -0.82
5 -0.82
6 -0.82
63 0.4
69 0.4

> <PUBCHEM_EFFECTIVE_ROTOR_COUNT>
7.2

> <PUBCHEM_PHARMACOPHORE_FEATURES>
13
1 2 acceptor
1 2 donor
1 28 hydrophobe
1 3 acceptor
1 3 donor
1 4 acceptor
1 5 acceptor
1 6 acceptor
4 1 4 5 6 anion
5 7 8 12 17 18 rings
6 11 13 20 23 25 26 rings
6 7 8 9 10 14 15 rings
6 9 10 11 13 16 19 rings

> <PUBCHEM_HEAVY_ATOM_COUNT>
30

> <PUBCHEM_ATOM_DEF_STEREO_COUNT>
10

> <PUBCHEM_ATOM_UDEF_STEREO_COUNT>
0

> <PUBCHEM_BOND_DEF_STEREO_COUNT>
0

> <PUBCHEM_BOND_UDEF_STEREO_COUNT>
0

> <PUBCHEM_ISOTOPIC_ATOM_COUNT>
0

> <PUBCHEM_COMPONENT_COUNT>
1

> <PUBCHEM_CACTVS_TAUTO_COUNT>
1

> <PUBCHEM_CONFORMER_ID>
07916B0200000003

> <PUBCHEM_MMFF94_ENERGY>
116.5732

> <PUBCHEM_FEATURE_SELFOVERLAP>
66.364

> <PUBCHEM_SHAPE_FINGERPRINT>
11135609 187 14490185020805442480
11315181 36 16443348676262197767
11524674 6 17418092139249446118
12166972 35 18333733537794161196
12236239 1 16660354866235152652
12633257 1 18200313355271788625
12760667 363 17846779607185070706
12788726 201 17749097873424941665
13673619 4 18342455942057047200
13685833 64 18060699499006548650
13782708 43 18413100680843545726
13914758 101 14477245951021851458
14251764 18 16702302373639320440
14849402 71 14763766660055371914
14856354 85 17240488035142598163
15021287 119 16056878056954945176
15131766 46 14403180756558402458
15183329 4 18113615669341660190
15352257 5 18413107264891494350
15461852 350 9799683805354215816
18335252 98 12973607724966631153
18608769 82 18334576871264523130
18681886 176 17313383473819573828
18927931 339 18260260872090435583
20105231 36 18040442096091355690
20511986 3 13901911068270277997
21150785 3 16298389067693621174
21267235 1 17894633682015434247
21792961 116 18339922620048040518
2297311 6 18259982682558010461
23035841 295 18409448089824574818
23198884 109 16950281797893067886
23522609 53 16772688778775923248
23559900 14 18340758351758916464
23569917 315 18199750409561802271
2838139 119 14979961363518457131
335352 9 18260821606209757327
4107672 100 18040711433389747749
4325135 7 14056717958870008010
437815 12 17846781832131234562
497634 4 16008740304251654135
5207 217 11891333166643129074
5265222 85 18262238923557731862
54039377 194 17385734620778140691
59755656 215 18342741801509649407

> <PUBCHEM_SHAPE_MULTIPOLES>
591.89
19.83
2
1.71
37.52
0.17
-0.15
8.16
0.15
-1.22
-0.05
-0.67
-0.56
1.47

> <PUBCHEM_SHAPE_SELFOVERLAP>
1223.541

> <PUBCHEM_SHAPE_VOLUME>
340.3

> <PUBCHEM_COORDINATE_TYPE>
2
5
10

$$$$
