126969832
  -OEChem-03292013293D

 70 73  0     1  0  0  0  0  0999 V2000
   -0.6766    2.7182   -0.0571 O   0  0  0  0  0  0  0  0  0  0  0  0
    1.5647   -3.3090   -0.2072 O   0  0  0  0  0  0  0  0  0  0  0  0
    4.1048   -2.7961    0.9582 O   0  0  0  0  0  0  0  0  0  0  0  0
    5.8416    1.3777    1.8059 O   0  0  0  0  0  0  0  0  0  0  0  0
   -8.5874    0.5014   -0.5212 O   0  0  0  0  0  0  0  0  0  0  0  0
   -7.6193   -1.0741    0.7972 O   0  0  0  0  0  0  0  0  0  0  0  0
   -1.1312    0.3039   -0.2156 C   0  0  1  0  0  0  0  0  0  0  0  0
   -0.3124   -0.9792    0.0330 C   0  0  2  0  0  0  0  0  0  0  0  0
    1.1271   -0.9559   -0.5481 C   0  0  1  0  0  0  0  0  0  0  0  0
    1.7221    0.4975   -0.5019 C   0  0  2  0  0  0  0  0  0  0  0  0
    3.2887    0.5445   -0.6676 C   0  0  2  0  0  0  0  0  0  0  0  0
   -2.4753   -0.1455    0.4318 C   0  0  2  0  0  0  0  0  0  0  0  0
   -0.4285    1.4543    0.5577 C   0  0  1  0  0  0  0  0  0  0  0  0
    3.9760   -0.4663    0.2879 C   0  0  1  0  0  0  0  0  0  0  0  0
    1.1108    1.2777    0.6861 C   0  0  0  0  0  0  0  0  0  0  0  0
    1.9698   -2.0040    0.2196 C   0  0  2  0  0  0  0  0  0  0  0  0
   -1.2436   -2.1159   -0.3887 C   0  0  0  0  0  0  0  0  0  0  0  0
   -2.6526   -1.6028   -0.0488 C   0  0  0  0  0  0  0  0  0  0  0  0
    3.4807   -1.8961    0.0350 C   0  0  2  0  0  0  0  0  0  0  0  0
    3.8597    1.9615   -0.3774 C   0  0  0  0  0  0  0  0  0  0  0  0
   -1.3473    0.6172   -1.7199 C   0  0  0  0  0  0  0  0  0  0  0  0
    5.5208   -0.3957    0.2242 C   0  0  0  0  0  0  0  0  0  0  0  0
   -3.6992    0.7156    0.1519 C   0  0  1  0  0  0  0  0  0  0  0  0
    3.5916    0.2086   -2.1602 C   0  0  0  0  0  0  0  0  0  0  0  0
    5.3867    2.0397   -0.4716 C   0  0  0  0  0  0  0  0  0  0  0  0
    6.0592    1.0181    0.4417 C   0  0  1  0  0  0  0  0  0  0  0  0
   -5.0232   -0.0320    0.4093 C   0  0  0  0  0  0  0  0  0  0  0  0
   -3.6524    1.9865    1.0080 C   0  0  0  0  0  0  0  0  0  0  0  0
   -6.2337    0.6350   -0.2467 C   0  0  0  0  0  0  0  0  0  0  0  0
   -7.5215   -0.0849    0.0845 C   0  0  0  0  0  0  0  0  0  0  0  0
   -0.2105   -1.0795    1.1269 H   0  0  0  0  0  0  0  0  0  0  0  0
    1.0703   -1.2593   -1.6019 H   0  0  0  0  0  0  0  0  0  0  0  0
    1.3518    1.0321   -1.3844 H   0  0  0  0  0  0  0  0  0  0  0  0
   -2.3393   -0.2035    1.5229 H   0  0  0  0  0  0  0  0  0  0  0  0
   -0.8285    1.5240    1.5763 H   0  0  0  0  0  0  0  0  0  0  0  0
    3.7024   -0.2004    1.3201 H   0  0  0  0  0  0  0  0  0  0  0  0
    1.3384    0.7393    1.6146 H   0  0  0  0  0  0  0  0  0  0  0  0
    1.5539    2.2723    0.7776 H   0  0  0  0  0  0  0  0  0  0  0  0
    1.7501   -1.9544    1.2931 H   0  0  0  0  0  0  0  0  0  0  0  0
   -1.0277   -3.0438    0.1500 H   0  0  0  0  0  0  0  0  0  0  0  0
   -1.1608   -2.3265   -1.4608 H   0  0  0  0  0  0  0  0  0  0  0  0
   -3.2630   -1.6785   -0.9559 H   0  0  0  0  0  0  0  0  0  0  0  0
   -3.1134   -2.2237    0.7276 H   0  0  0  0  0  0  0  0  0  0  0  0
    3.7738   -2.2493   -0.9591 H   0  0  0  0  0  0  0  0  0  0  0  0
    3.5940    2.2751    0.6380 H   0  0  0  0  0  0  0  0  0  0  0  0
    3.4168    2.6961   -1.0612 H   0  0  0  0  0  0  0  0  0  0  0  0
   -0.4142    0.6870   -2.2803 H   0  0  0  0  0  0  0  0  0  0  0  0
   -1.9416   -0.1518   -2.2241 H   0  0  0  0  0  0  0  0  0  0  0  0
   -1.8702    1.5677   -1.8676 H   0  0  0  0  0  0  0  0  0  0  0  0
    5.9410   -1.0496    0.9988 H   0  0  0  0  0  0  0  0  0  0  0  0
    5.8774   -0.7795   -0.7384 H   0  0  0  0  0  0  0  0  0  0  0  0
   -3.7214    1.0158   -0.9002 H   0  0  0  0  0  0  0  0  0  0  0  0
    3.1297   -0.7300   -2.4795 H   0  0  0  0  0  0  0  0  0  0  0  0
    4.6610    0.1211   -2.3681 H   0  0  0  0  0  0  0  0  0  0  0  0
    3.2007    0.9938   -2.8185 H   0  0  0  0  0  0  0  0  0  0  0  0
    5.7128    1.8892   -1.5061 H   0  0  0  0  0  0  0  0  0  0  0  0
    5.6972    3.0524   -0.1866 H   0  0  0  0  0  0  0  0  0  0  0  0
    7.1421    1.0249    0.2754 H   0  0  0  0  0  0  0  0  0  0  0  0
   -0.3139    3.4076    0.5248 H   0  0  0  0  0  0  0  0  0  0  0  0
    1.7564   -3.3857   -1.1575 H   0  0  0  0  0  0  0  0  0  0  0  0
   -5.1866   -0.1221    1.4917 H   0  0  0  0  0  0  0  0  0  0  0  0
   -5.0065   -1.0562    0.0285 H   0  0  0  0  0  0  0  0  0  0  0  0
   -3.4754    1.7558    2.0641 H   0  0  0  0  0  0  0  0  0  0  0  0
   -4.5890    2.5487    0.9539 H   0  0  0  0  0  0  0  0  0  0  0  0
   -2.8827    2.6771    0.6708 H   0  0  0  0  0  0  0  0  0  0  0  0
    3.8987   -2.4923    1.8587 H   0  0  0  0  0  0  0  0  0  0  0  0
    6.2105    2.2678    1.9368 H   0  0  0  0  0  0  0  0  0  0  0  0
   -6.3460    1.6681    0.0939 H   0  0  0  0  0  0  0  0  0  0  0  0
   -6.1116    0.6308   -1.3356 H   0  0  0  0  0  0  0  0  0  0  0  0
   -9.4263    0.0374   -0.3135 H   0  0  0  0  0  0  0  0  0  0  0  0
  1 13  1  0  0  0  0
  1 59  1  0  0  0  0
  2 16  1  0  0  0  0
  2 60  1  0  0  0  0
  3 19  1  0  0  0  0
  3 66  1  0  0  0  0
  4 26  1  0  0  0  0
  4 67  1  0  0  0  0
  5 30  1  0  0  0  0
  5 70  1  0  0  0  0
  6 30  2  0  0  0  0
  7  8  1  0  0  0  0
  7 12  1  0  0  0  0
  7 13  1  0  0  0  0
  7 21  1  0  0  0  0
  8  9  1  0  0  0  0
  8 17  1  0  0  0  0
  8 31  1  0  0  0  0
  9 10  1  0  0  0  0
  9 16  1  0  0  0  0
  9 32  1  0  0  0  0
 10 11  1  0  0  0  0
 10 15  1  0  0  0  0
 10 33  1  0  0  0  0
 11 14  1  0  0  0  0
 11 20  1  0  0  0  0
 11 24  1  0  0  0  0
 12 18  1  0  0  0  0
 12 23  1  0  0  0  0
 12 34  1  0  0  0  0
 13 15  1  0  0  0  0
 13 35  1  0  0  0  0
 14 19  1  0  0  0  0
 14 22  1  0  0  0  0
 14 36  1  0  0  0  0
 15 37  1  0  0  0  0
 15 38  1  0  0  0  0
 16 19  1  0  0  0  0
 16 39  1  0  0  0  0
 17 18  1  0  0  0  0
 17 40  1  0  0  0  0
 17 41  1  0  0  0  0
 18 42  1  0  0  0  0
 18 43  1  0  0  0  0
 19 44  1  0  0  0  0
 20 25  1  0  0  0  0
 20 45  1  0  0  0  0
 20 46  1  0  0  0  0
 21 47  1  0  0  0  0
 21 48  1  0  0  0  0
 21 49  1  0  0  0  0
 22 26  1  0  0  0  0
 22 50  1  0  0  0  0
 22 51  1  0  0  0  0
 23 27  1  0  0  0  0
 23 28  1  0  0  0  0
 23 52  1  0  0  0  0
 24 53  1  0  0  0  0
 24 54  1  0  0  0  0
 24 55  1  0  0  0  0
 25 26  1  0  0  0  0
 25 56  1  0  0  0  0
 25 57  1  0  0  0  0
 26 58  1  0  0  0  0
 27 29  1  0  0  0  0
 27 61  1  0  0  0  0
 27 62  1  0  0  0  0
 28 63  1  0  0  0  0
 28 64  1  0  0  0  0
 28 65  1  0  0  0  0
 29 30  1  0  0  0  0
 29 68  1  0  0  0  0
 29 69  1  0  0  0  0
M  END
> <PUBCHEM_COMPOUND_CID>
126969832

> <PUBCHEM_CONFORMER_RMSD>
0.8

> <PUBCHEM_CONFORMER_DIVERSEORDER>
1
56
88
44
48
34
85
36
17
18
25
29
71
67
76
46
52
42
12
81
39
13
77
19
49
8
73
45
66
72
11
65
10
87
7
74
53
83
79
20
22
70
2
64
14
33
5
69
75
24
9
40
21
37
41
15
54
82
86
57
51
58
55
32
80
68
50
43
84
78
28
16
23
60
61
27
63
38
47
31
26
3
35
59
30
62
4
6

> <PUBCHEM_MMFF94_PARTIAL_CHARGES>
17
1 -0.68
13 0.28
16 0.28
19 0.28
2 -0.68
26 0.28
29 0.06
3 -0.68
30 0.66
4 -0.68
5 -0.65
59 0.4
6 -0.57
60 0.4
66 0.4
67 0.4
70 0.5

> <PUBCHEM_EFFECTIVE_ROTOR_COUNT>
6.2

> <PUBCHEM_PHARMACOPHORE_FEATURES>
16
1 1 acceptor
1 1 donor
1 2 acceptor
1 2 donor
1 28 hydrophobe
1 3 acceptor
1 3 donor
1 4 acceptor
1 4 donor
1 5 acceptor
1 6 acceptor
3 5 6 30 anion
5 7 8 12 17 18 rings
6 11 14 20 22 25 26 rings
6 7 8 9 10 13 15 rings
6 9 10 11 14 16 19 rings

> <PUBCHEM_HEAVY_ATOM_COUNT>
30

> <PUBCHEM_ATOM_DEF_STEREO_COUNT>
7

> <PUBCHEM_ATOM_UDEF_STEREO_COUNT>
5

> <PUBCHEM_BOND_DEF_STEREO_COUNT>
0

> <PUBCHEM_BOND_UDEF_STEREO_COUNT>
0

> <PUBCHEM_ISOTOPIC_ATOM_COUNT>
0

> <PUBCHEM_COMPONENT_COUNT>
1

> <PUBCHEM_CACTVS_TAUTO_COUNT>
1

> <PUBCHEM_CONFORMER_ID>
079167E800000001

> <PUBCHEM_MMFF94_ENERGY>
121.5619

> <PUBCHEM_FEATURE_SELFOVERLAP>
81.366

> <PUBCHEM_SHAPE_FINGERPRINT>
10 15 18113616824287176520
10165383 225 18335986458499163716
10411042 1 17977101254952339306
10835480 77 18334852772196480053
11719270 70 18409728460762867866
12236239 1 17775006756857781209
12403814 3 17894628166728995140
12516196 113 18413109459608927809
12788726 201 17632583699396259201
12838862 33 18340752819266026201
13073987 5 18340769247937920241
13140716 1 18267022958642726600
13533116 47 18341611486344531123
13617811 41 18410851084016371841
14251764 18 18130791166085598025
14394314 77 18272659996161744721
14461889 52 18260552264051953939
14790565 3 18341900688236660008
14849402 71 18272656783705256377
15131766 46 16663477647083918412
15183329 4 18342181059881217313
15439362 3 18050566549621623480
15849732 13 18260548948626955245
16120349 18 18408318913427605693
17492 89 18122907517032093794
18608769 82 18338518659858932859
19319366 153 18408880732987450682
19377110 9 18130234770315288521
20157964 124 18408887321535250295
20511986 3 18340753901581746238
21130935 74 18411703141430144283
21150785 3 15554449617420372781
21267235 1 18340211791005077182
21421861 104 18187920635103103714
21792934 111 18337942403326461513
21859007 373 17096633319542060581
22149856 69 18339939125686532889
23559900 14 18340763862407620841
23569917 315 18341059544424899463
255183 451 17913780410019966022
3004659 81 18187086117934659170
3178227 256 18339375153694191433
335352 9 18411424999585009878
34797466 226 16702306758273675173
34934 24 18342455971520269286
350125 39 18413107273565422201
3633792 109 18262233327563543541
4073 2 17967820500154635763
4093350 32 17203616973012945141
4340502 62 18409449197773208622
5104073 3 18336555897905219337
59755656 215 18339652157488932910

> <PUBCHEM_SHAPE_MULTIPOLES>
582.17
17.23
2.6
1.14
27.44
1.05
-0.29
-3.42
2.11
-2.29
0.34
-0.89
-0.24
-0.2

> <PUBCHEM_SHAPE_SELFOVERLAP>
1220.763

> <PUBCHEM_SHAPE_VOLUME>
324.5

> <PUBCHEM_COORDINATE_TYPE>
2
5
10

$$$$
