126968660
  -OEChem-03292013293D

 71 74  0     1  0  0  0  0  0999 V2000
   -4.3776    2.3913   -0.0889 S   0  0  0  0  0  0  0  0  0  0  0  0
   -0.7851    1.4324   -1.1684 O   0  0  0  0  0  0  0  0  0  0  0  0
    4.3422    0.4558    0.2682 O   0  0  0  0  0  0  0  0  0  0  0  0
    3.1783   -0.9835   -2.5530 O   0  0  0  0  0  0  0  0  0  0  0  0
   -1.5878    1.7617    0.9661 O   0  0  0  0  0  0  0  0  0  0  0  0
   -4.6416   -0.0557    1.1937 N   0  0  0  0  0  0  0  0  0  0  0  0
   -4.6479   -0.1419   -1.0922 N   0  0  0  0  0  0  0  0  0  0  0  0
   -4.7793   -1.3630   -0.5520 N   0  0  0  0  0  0  0  0  0  0  0  0
   -4.8970   -2.4416    1.5203 N   0  0  0  0  0  0  0  0  0  0  0  0
    2.0740   -1.6176    0.7586 C   0  0  1  0  0  0  0  0  0  0  0  0
    1.6503   -1.5269   -0.7273 C   0  0  1  0  0  0  0  0  0  0  0  0
    0.3769   -0.7284   -1.0754 C   0  0  1  0  0  0  0  0  0  0  0  0
    2.3901   -0.2837    1.5865 C   0  0  2  0  0  0  0  0  0  0  0  0
   -0.8185   -1.4524   -0.3016 C   0  0  2  0  0  0  0  0  0  0  0  0
    0.8828   -2.3676    1.4462 C   0  0  0  0  0  0  0  0  0  0  0  0
    3.3133   -2.5647    0.6408 C   0  0  0  0  0  0  0  0  0  0  0  0
    0.3697    0.7669   -0.6225 C   0  0  1  0  0  0  0  0  0  0  0  0
   -0.4827   -1.7011    1.1956 C   0  0  0  0  0  0  0  0  0  0  0  0
    3.2079    0.9124    0.9879 C   0  0  2  0  0  0  0  0  0  0  0  0
    2.4577    2.0680    0.2410 C   0  0  1  0  0  0  0  0  0  0  0  0
    2.9731   -1.4816   -1.4562 C   0  0  0  0  0  0  0  0  0  0  0  0
    4.0168   -2.2594   -0.6883 C   0  0  0  0  0  0  0  0  0  0  0  0
    1.6045    1.6070   -0.9691 C   0  0  0  0  0  0  0  0  0  0  0  0
    0.1309   -0.8004   -2.6046 C   0  0  0  0  0  0  0  0  0  0  0  0
    3.0800   -0.6336    2.9381 C   0  0  0  0  0  0  0  0  0  0  0  0
   -1.3025   -2.7716   -0.9341 C   0  0  0  0  0  0  0  0  0  0  0  0
    1.5958    2.8735    1.2460 C   0  0  0  0  0  0  0  0  0  0  0  0
    3.5081    3.0732   -0.3141 C   0  0  0  0  0  0  0  0  0  0  0  0
    1.0141    4.0988    0.5850 C   0  0  0  0  0  0  0  0  0  0  0  0
   -1.6858    1.8801   -0.2472 C   0  0  0  0  0  0  0  0  0  0  0  0
   -2.8175    2.5433   -0.9912 C   0  0  0  0  0  0  0  0  0  0  0  0
   -4.5686    0.6132    0.0054 C   0  0  0  0  0  0  0  0  0  0  0  0
   -4.7744   -1.3031    0.8068 C   0  0  0  0  0  0  0  0  0  0  0  0
    1.3731   -2.5564   -1.0180 H   0  0  0  0  0  0  0  0  0  0  0  0
    1.4370    0.1300    1.9200 H   0  0  0  0  0  0  0  0  0  0  0  0
   -1.6978   -0.8003   -0.3268 H   0  0  0  0  0  0  0  0  0  0  0  0
    1.0365   -2.4685    2.5242 H   0  0  0  0  0  0  0  0  0  0  0  0
    0.8237   -3.3981    1.0709 H   0  0  0  0  0  0  0  0  0  0  0  0
    2.9877   -3.6134    0.6142 H   0  0  0  0  0  0  0  0  0  0  0  0
    4.0159   -2.5040    1.4737 H   0  0  0  0  0  0  0  0  0  0  0  0
    0.2777    0.7494    0.4530 H   0  0  0  0  0  0  0  0  0  0  0  0
   -1.2627   -2.3288    1.6458 H   0  0  0  0  0  0  0  0  0  0  0  0
   -0.5362   -0.7575    1.7472 H   0  0  0  0  0  0  0  0  0  0  0  0
    3.6564    1.4336    1.8469 H   0  0  0  0  0  0  0  0  0  0  0  0
    4.2495   -3.1858   -1.2217 H   0  0  0  0  0  0  0  0  0  0  0  0
    4.9311   -1.6806   -0.5617 H   0  0  0  0  0  0  0  0  0  0  0  0
    2.2604    1.0587   -1.6470 H   0  0  0  0  0  0  0  0  0  0  0  0
    1.2967    2.4723   -1.5693 H   0  0  0  0  0  0  0  0  0  0  0  0
   -0.8886   -0.4897   -2.8599 H   0  0  0  0  0  0  0  0  0  0  0  0
    0.2736   -1.8140   -2.9947 H   0  0  0  0  0  0  0  0  0  0  0  0
    0.8132   -0.1431   -3.1529 H   0  0  0  0  0  0  0  0  0  0  0  0
    4.1482   -0.8370    2.8163 H   0  0  0  0  0  0  0  0  0  0  0  0
    2.6266   -1.4916    3.4385 H   0  0  0  0  0  0  0  0  0  0  0  0
    2.9932    0.2114    3.6323 H   0  0  0  0  0  0  0  0  0  0  0  0
   -2.1182   -3.2019   -0.3420 H   0  0  0  0  0  0  0  0  0  0  0  0
   -0.5152   -3.5269   -0.9963 H   0  0  0  0  0  0  0  0  0  0  0  0
   -1.7022   -2.6085   -1.9395 H   0  0  0  0  0  0  0  0  0  0  0  0
    0.8013    2.2783    1.6980 H   0  0  0  0  0  0  0  0  0  0  0  0
    2.2172    3.2052    2.0885 H   0  0  0  0  0  0  0  0  0  0  0  0
    4.0654    3.5580    0.4956 H   0  0  0  0  0  0  0  0  0  0  0  0
    4.2390    2.5633   -0.9526 H   0  0  0  0  0  0  0  0  0  0  0  0
    3.0715    3.8506   -0.9492 H   0  0  0  0  0  0  0  0  0  0  0  0
    4.9240   -0.0078    0.8938 H   0  0  0  0  0  0  0  0  0  0  0  0
    1.7635    4.8641    0.3645 H   0  0  0  0  0  0  0  0  0  0  0  0
    0.3190    4.5735    1.2889 H   0  0  0  0  0  0  0  0  0  0  0  0
    0.4322    3.8971   -0.3150 H   0  0  0  0  0  0  0  0  0  0  0  0
   -2.9416    2.0871   -1.9784 H   0  0  0  0  0  0  0  0  0  0  0  0
   -2.5724    3.6012   -1.1221 H   0  0  0  0  0  0  0  0  0  0  0  0
   -4.8622   -2.1691   -1.1598 H   0  0  0  0  0  0  0  0  0  0  0  0
   -4.9914   -3.3537    1.0842 H   0  0  0  0  0  0  0  0  0  0  0  0
   -4.8962   -2.4354    2.5352 H   0  0  0  0  0  0  0  0  0  0  0  0
  1 31  1  0  0  0  0
  1 32  1  0  0  0  0
  2 17  1  0  0  0  0
  2 30  1  0  0  0  0
  3 19  1  0  0  0  0
  3 63  1  0  0  0  0
  4 21  2  0  0  0  0
  5 30  2  0  0  0  0
  6 32  1  0  0  0  0
  6 33  2  0  0  0  0
  7  8  1  0  0  0  0
  7 32  2  0  0  0  0
  8 33  1  0  0  0  0
  8 69  1  0  0  0  0
  9 33  1  0  0  0  0
  9 70  1  0  0  0  0
  9 71  1  0  0  0  0
 10 11  1  0  0  0  0
 10 13  1  0  0  0  0
 10 15  1  0  0  0  0
 10 16  1  0  0  0  0
 11 12  1  0  0  0  0
 11 21  1  0  0  0  0
 11 34  1  0  0  0  0
 12 14  1  0  0  0  0
 12 17  1  0  0  0  0
 12 24  1  0  0  0  0
 13 19  1  0  0  0  0
 13 25  1  0  0  0  0
 13 35  1  0  0  0  0
 14 18  1  0  0  0  0
 14 26  1  0  0  0  0
 14 36  1  0  0  0  0
 15 18  1  0  0  0  0
 15 37  1  0  0  0  0
 15 38  1  0  0  0  0
 16 22  1  0  0  0  0
 16 39  1  0  0  0  0
 16 40  1  0  0  0  0
 17 23  1  0  0  0  0
 17 41  1  0  0  0  0
 18 42  1  0  0  0  0
 18 43  1  0  0  0  0
 19 20  1  0  0  0  0
 19 44  1  0  0  0  0
 20 23  1  0  0  0  0
 20 27  1  0  0  0  0
 20 28  1  0  0  0  0
 21 22  1  0  0  0  0
 22 45  1  0  0  0  0
 22 46  1  0  0  0  0
 23 47  1  0  0  0  0
 23 48  1  0  0  0  0
 24 49  1  0  0  0  0
 24 50  1  0  0  0  0
 24 51  1  0  0  0  0
 25 52  1  0  0  0  0
 25 53  1  0  0  0  0
 25 54  1  0  0  0  0
 26 55  1  0  0  0  0
 26 56  1  0  0  0  0
 26 57  1  0  0  0  0
 27 29  1  0  0  0  0
 27 58  1  0  0  0  0
 27 59  1  0  0  0  0
 28 60  1  0  0  0  0
 28 61  1  0  0  0  0
 28 62  1  0  0  0  0
 29 64  1  0  0  0  0
 29 65  1  0  0  0  0
 29 66  1  0  0  0  0
 30 31  1  0  0  0  0
 31 67  1  0  0  0  0
 31 68  1  0  0  0  0
M  END
> <PUBCHEM_COMPOUND_CID>
126968660

> <PUBCHEM_CONFORMER_RMSD>
1

> <PUBCHEM_CONFORMER_DIVERSEORDER>
1
51
57
75
66
37
63
39
48
54
69
72
24
16
79
68
41
67
56
70
2
65
42
46
8
76
53
49
50
11
73
47
58
61
25
23
78
33
14
32
36
64
55
21
15
52
26
17
71
35
74
5
27
18
43
12
3
77
40
19
62
22
9
13
30
10
60
20
7
31
4
45
38
29
6
44
59
34
28

> <PUBCHEM_MMFF94_PARTIAL_CHARGES>
22
1 -0.28
11 0.06
17 0.28
19 0.28
2 -0.43
21 0.45
22 0.06
3 -0.68
30 0.66
31 0.29
32 0.57
33 0.27
4 -0.57
5 -0.57
6 -0.57
63 0.4
69 0.27
7 -0.71
70 0.4
71 0.4
8 0.3
9 -0.88

> <PUBCHEM_EFFECTIVE_ROTOR_COUNT>
8

> <PUBCHEM_PHARMACOPHORE_FEATURES>
11
1 29 hydrophobe
1 3 acceptor
1 3 donor
1 4 acceptor
1 5 acceptor
1 8 donor
1 9 donor
4 6 8 9 33 cation
5 10 11 16 21 22 rings
5 6 7 8 32 33 rings
6 10 11 12 14 15 18 rings

> <PUBCHEM_HEAVY_ATOM_COUNT>
33

> <PUBCHEM_ATOM_DEF_STEREO_COUNT>
7

> <PUBCHEM_ATOM_UDEF_STEREO_COUNT>
1

> <PUBCHEM_BOND_DEF_STEREO_COUNT>
0

> <PUBCHEM_BOND_UDEF_STEREO_COUNT>
0

> <PUBCHEM_ISOTOPIC_ATOM_COUNT>
0

> <PUBCHEM_COMPONENT_COUNT>
1

> <PUBCHEM_CACTVS_TAUTO_COUNT>
15

> <PUBCHEM_CONFORMER_ID>
0791635400000001

> <PUBCHEM_MMFF94_ENERGY>
141.8693

> <PUBCHEM_FEATURE_SELFOVERLAP>
55.92

> <PUBCHEM_SHAPE_FINGERPRINT>
10076449 9 18059031501276246438
11513181 2 18202283636642450927
12156800 1 16519933131486682632
12422481 6 18128225992530773930
12633257 1 18191000465513744194
13140716 1 17834957855700583365
13224815 77 18273213071889334325
13583140 156 18188755181255150325
14223421 5 18408039624204055149
14787075 74 18261684657964795142
14790565 3 17760932144302247364
14955137 171 18341036446754686064
16945 1 17910074188450711862
17909252 39 18262817232114270059
20691752 17 17749392529239292477
20764821 26 18266470819021853777
21033648 29 17845070910186363827
21421861 104 18334288803465079146
22393880 68 18261115119547398645
23559900 14 18337953372598952309
3052486 1 18186804634278219683
392239 28 18264766545907214624
4015057 19 18199166448754514309
460360 51 18261375737920099599
5081480 168 17344938276399692284
508706 21 18335132043453911133
6287921 2 17775011154756696975
6823239 73 18340207384363032096

> <PUBCHEM_SHAPE_MULTIPOLES>
639.57
9.13
4.16
2.01
11.09
2.55
0
-1.66
-1.42
-0.81
-0.49
-1.25
-0.83
1.02

> <PUBCHEM_SHAPE_SELFOVERLAP>
1331.025

> <PUBCHEM_SHAPE_VOLUME>
366.6

> <PUBCHEM_COORDINATE_TYPE>
2
5
10

$$$$
