126968501
  -OEChem-03292013293D

 62 65  0     1  0  0  0  0  0999 V2000
   -2.4437    0.5579    1.8044 O   0  0  0  0  0  0  0  0  0  0  0  0
    1.3697    3.0493   -0.2055 O   0  0  0  0  0  0  0  0  0  0  0  0
   -3.6167    1.4000   -0.8737 O   0  0  0  0  0  0  0  0  0  0  0  0
   -6.0439    0.4283   -0.0154 O   0  0  0  0  0  0  0  0  0  0  0  0
    6.8233   -0.1740    1.7468 O   0  0  0  0  0  0  0  0  0  0  0  0
   -7.4237   -1.3732    0.4186 O   0  0  0  0  0  0  0  0  0  0  0  0
   -1.0717    0.2010   -0.2087 C   0  0  1  0  0  0  0  0  0  0  0  0
   -0.1432   -0.7591    0.5595 C   0  0  2  0  0  0  0  0  0  0  0  0
    1.3362   -0.7791    0.1561 C   0  0  2  0  0  0  0  0  0  0  0  0
    1.9298    0.6728    0.0914 C   0  0  2  0  0  0  0  0  0  0  0  0
   -2.4064   -0.0917    0.5355 C   0  0  1  0  0  0  0  0  0  0  0  0
   -0.4987    1.6108   -0.0296 C   0  0  0  0  0  0  0  0  0  0  0  0
    0.9523    1.7223   -0.5321 C   0  0  1  0  0  0  0  0  0  0  0  0
   -0.9291   -2.0672    0.6154 C   0  0  0  0  0  0  0  0  0  0  0  0
    3.4055    0.6933   -0.5093 C   0  0  1  0  0  0  0  0  0  0  0  0
   -2.4003   -1.6215    0.7449 C   0  0  0  0  0  0  0  0  0  0  0  0
    1.7231   -1.6034   -1.0739 C   0  0  0  0  0  0  0  0  0  0  0  0
    3.2560   -1.8132   -1.1609 C   0  0  1  0  0  0  0  0  0  0  0  0
   -1.2261   -0.1248   -1.7144 C   0  0  0  0  0  0  0  0  0  0  0  0
    4.0150   -0.7173   -0.4009 C   0  0  0  0  0  0  0  0  0  0  0  0
   -3.6411    0.3999   -0.1579 C   0  0  0  0  0  0  0  0  0  0  0  0
    3.4828    1.1209   -1.9950 C   0  0  0  0  0  0  0  0  0  0  0  0
    4.2242    1.7232    0.2594 C   0  0  0  0  0  0  0  0  0  0  0  0
    3.5951   -3.2556   -0.7507 C   0  0  0  0  0  0  0  0  0  0  0  0
    5.1130   -0.9716    0.3328 C   0  0  0  0  0  0  0  0  0  0  0  0
   -4.9047   -0.4008    0.0751 C   0  0  0  0  0  0  0  0  0  0  0  0
    5.3169    1.4610    0.9809 C   0  0  0  0  0  0  0  0  0  0  0  0
    5.8297    0.0857    1.0761 C   0  0  0  0  0  0  0  0  0  0  0  0
   -7.2555   -0.1853    0.1780 C   0  0  0  0  0  0  0  0  0  0  0  0
   -8.3678    0.8114    0.0530 C   0  0  0  0  0  0  0  0  0  0  0  0
   -0.1139   -0.4039    1.6049 H   0  0  0  0  0  0  0  0  0  0  0  0
    1.8333   -1.2802    1.0029 H   0  0  0  0  0  0  0  0  0  0  0  0
    2.0237    0.9725    1.1488 H   0  0  0  0  0  0  0  0  0  0  0  0
   -0.5066    1.9141    1.0254 H   0  0  0  0  0  0  0  0  0  0  0  0
   -1.1234    2.3519   -0.5440 H   0  0  0  0  0  0  0  0  0  0  0  0
    0.9570    1.6406   -1.6225 H   0  0  0  0  0  0  0  0  0  0  0  0
   -0.6227   -2.6887    1.4631 H   0  0  0  0  0  0  0  0  0  0  0  0
   -0.8098   -2.6652   -0.2930 H   0  0  0  0  0  0  0  0  0  0  0  0
   -2.9828   -2.1659   -0.0059 H   0  0  0  0  0  0  0  0  0  0  0  0
   -2.7825   -1.8944    1.7353 H   0  0  0  0  0  0  0  0  0  0  0  0
    1.4051   -1.1039   -1.9905 H   0  0  0  0  0  0  0  0  0  0  0  0
    1.2138   -2.5720   -1.0731 H   0  0  0  0  0  0  0  0  0  0  0  0
    3.5368   -1.7302   -2.2200 H   0  0  0  0  0  0  0  0  0  0  0  0
   -1.6402   -1.1226   -1.8891 H   0  0  0  0  0  0  0  0  0  0  0  0
   -0.2822   -0.0703   -2.2544 H   0  0  0  0  0  0  0  0  0  0  0  0
   -1.8754    0.5919   -2.2253 H   0  0  0  0  0  0  0  0  0  0  0  0
    2.8139    0.5401   -2.6368 H   0  0  0  0  0  0  0  0  0  0  0  0
    4.4992    0.9984   -2.3917 H   0  0  0  0  0  0  0  0  0  0  0  0
    3.2199    2.1769   -2.1303 H   0  0  0  0  0  0  0  0  0  0  0  0
    3.8946    2.7587    0.2170 H   0  0  0  0  0  0  0  0  0  0  0  0
   -2.4916    1.5182    1.6610 H   0  0  0  0  0  0  0  0  0  0  0  0
    0.7877    3.6674   -0.6798 H   0  0  0  0  0  0  0  0  0  0  0  0
    3.3886   -3.4296    0.3110 H   0  0  0  0  0  0  0  0  0  0  0  0
    4.6471   -3.4896   -0.9452 H   0  0  0  0  0  0  0  0  0  0  0  0
    3.0035   -3.9733   -1.3302 H   0  0  0  0  0  0  0  0  0  0  0  0
    5.5393   -1.9639    0.4203 H   0  0  0  0  0  0  0  0  0  0  0  0
   -4.9559   -1.1917   -0.6805 H   0  0  0  0  0  0  0  0  0  0  0  0
   -4.8812   -0.8315    1.0812 H   0  0  0  0  0  0  0  0  0  0  0  0
    5.8494    2.2455    1.5057 H   0  0  0  0  0  0  0  0  0  0  0  0
   -8.2544    1.5892    0.8122 H   0  0  0  0  0  0  0  0  0  0  0  0
   -9.3260    0.3078    0.2098 H   0  0  0  0  0  0  0  0  0  0  0  0
   -8.3628    1.2474   -0.9491 H   0  0  0  0  0  0  0  0  0  0  0  0
  1 11  1  0  0  0  0
  1 51  1  0  0  0  0
  2 13  1  0  0  0  0
  2 52  1  0  0  0  0
  3 21  2  0  0  0  0
  4 26  1  0  0  0  0
  4 29  1  0  0  0  0
  5 28  2  0  0  0  0
  6 29  2  0  0  0  0
  7  8  1  0  0  0  0
  7 11  1  0  0  0  0
  7 12  1  0  0  0  0
  7 19  1  0  0  0  0
  8  9  1  0  0  0  0
  8 14  1  0  0  0  0
  8 31  1  0  0  0  0
  9 10  1  0  0  0  0
  9 17  1  0  0  0  0
  9 32  1  0  0  0  0
 10 13  1  0  0  0  0
 10 15  1  0  0  0  0
 10 33  1  0  0  0  0
 11 16  1  0  0  0  0
 11 21  1  0  0  0  0
 12 13  1  0  0  0  0
 12 34  1  0  0  0  0
 12 35  1  0  0  0  0
 13 36  1  0  0  0  0
 14 16  1  0  0  0  0
 14 37  1  0  0  0  0
 14 38  1  0  0  0  0
 15 20  1  0  0  0  0
 15 22  1  0  0  0  0
 15 23  1  0  0  0  0
 16 39  1  0  0  0  0
 16 40  1  0  0  0  0
 17 18  1  0  0  0  0
 17 41  1  0  0  0  0
 17 42  1  0  0  0  0
 18 20  1  0  0  0  0
 18 24  1  0  0  0  0
 18 43  1  0  0  0  0
 19 44  1  0  0  0  0
 19 45  1  0  0  0  0
 19 46  1  0  0  0  0
 20 25  2  0  0  0  0
 21 26  1  0  0  0  0
 22 47  1  0  0  0  0
 22 48  1  0  0  0  0
 22 49  1  0  0  0  0
 23 27  2  0  0  0  0
 23 50  1  0  0  0  0
 24 53  1  0  0  0  0
 24 54  1  0  0  0  0
 24 55  1  0  0  0  0
 25 28  1  0  0  0  0
 25 56  1  0  0  0  0
 26 57  1  0  0  0  0
 26 58  1  0  0  0  0
 27 28  1  0  0  0  0
 27 59  1  0  0  0  0
 29 30  1  0  0  0  0
 30 60  1  0  0  0  0
 30 61  1  0  0  0  0
 30 62  1  0  0  0  0
M  END
> <PUBCHEM_COMPOUND_CID>
126968501

> <PUBCHEM_CONFORMER_RMSD>
0.8

> <PUBCHEM_CONFORMER_DIVERSEORDER>
1
31
22
25
37
17
32
23
33
29
30
15
34
2
12
27
9
35
8
36
13
18
20
10
16
24
21
26
28
19
14
6
5
11
7
4
3

> <PUBCHEM_MMFF94_PARTIAL_CHARGES>
24
1 -0.68
11 0.34
13 0.28
15 0.28
18 0.14
2 -0.68
20 -0.28
21 0.45
23 -0.29
25 -0.14
26 0.34
27 -0.14
28 0.54
29 0.66
3 -0.57
30 0.06
4 -0.43
5 -0.57
50 0.15
51 0.4
52 0.4
56 0.15
59 0.15
6 -0.57

> <PUBCHEM_EFFECTIVE_ROTOR_COUNT>
5.4

> <PUBCHEM_PHARMACOPHORE_FEATURES>
11
1 1 acceptor
1 1 donor
1 2 acceptor
1 2 donor
1 3 acceptor
1 5 acceptor
1 6 acceptor
5 7 8 11 14 16 rings
6 15 20 23 25 27 28 rings
6 7 8 9 10 12 13 rings
6 9 10 15 17 18 20 rings

> <PUBCHEM_HEAVY_ATOM_COUNT>
30

> <PUBCHEM_ATOM_DEF_STEREO_COUNT>
6

> <PUBCHEM_ATOM_UDEF_STEREO_COUNT>
2

> <PUBCHEM_BOND_DEF_STEREO_COUNT>
0

> <PUBCHEM_BOND_UDEF_STEREO_COUNT>
0

> <PUBCHEM_ISOTOPIC_ATOM_COUNT>
0

> <PUBCHEM_COMPONENT_COUNT>
1

> <PUBCHEM_CACTVS_TAUTO_COUNT>
24

> <PUBCHEM_CONFORMER_ID>
079162B500000001

> <PUBCHEM_MMFF94_ENERGY>
109.0952

> <PUBCHEM_FEATURE_SELFOVERLAP>
55.937

> <PUBCHEM_SHAPE_FINGERPRINT>
10 15 18335415803395233088
10411042 1 17981611468776384110
11456790 92 18335701620114785025
11646440 116 18412827992795111569
11719270 70 18411419518194273130
12035758 1 18334574663503087817
12166972 35 14273455881528861655
12236239 1 17418374679646447079
12633257 1 18113336444864548050
12741549 16 17967806141942367580
13073987 5 18059577932289379665
13140716 1 18196652024084508632
13224815 77 18343869922510137262
13533116 47 18131354085341173938
13782708 43 17675928698821755011
13835254 42 17774448170059117496
14117953 113 18412831278919528510
14170010 4 18413390942859003369
14251764 18 18186802508401374461
15183329 4 18410583872899649461
16728300 4 17171209877903948746
17349148 13 18409161130491073476
19377110 9 17346885528851694027
1979834 28 18272652342513204342
20157964 124 18272653437086552774
20511986 3 17560221579386815238
21130935 74 18272093764847689435
21267235 1 18340210704720885550
21279426 13 18191585255476163933
21285901 2 18186806837675525620
21304304 249 18260264119455262330
21781051 124 16009048171849651331
21792934 111 18339355271668378065
21859007 373 17677034738430556301
221357 26 18336268951293218853
22149856 69 18270982171629377899
22956985 138 15504883482600210026
23559900 14 18339926016654989264
3004659 81 18040443191792669388
3178227 256 18188220861980673825
335352 9 18334015016347803598
34797466 226 16271932618362990040
3633792 109 18343021043862527825
4072396 5 18411133654382835072
4073 2 18261398901096029755
4093350 32 17203334381360769759
4325135 7 13830131702081968065
4340502 62 18410573985194091055
5104073 3 18199191698170077523
5486654 2 11024105464588745581
58260988 393 16559037051921762296
59755656 520 16298383596174741027
70251023 43 17914346679982827462

> <PUBCHEM_SHAPE_MULTIPOLES>
582.17
17.13
2.35
1.3
27.92
0.51
-0.15
-0.57
4.13
-2.29
-0.38
-1.26
-0.03
0.88

> <PUBCHEM_SHAPE_SELFOVERLAP>
1246.345

> <PUBCHEM_SHAPE_VOLUME>
316.9

> <PUBCHEM_COORDINATE_TYPE>
2
5
10

$$$$
