126969
  -OEChem-03292013323D

 58 60  0     0  0  0  0  0  0999 V2000
   -4.1860   -0.2257    0.5378 O   0  0  0  0  0  0  0  0  0  0  0  0
   -0.2751    2.4819   -0.3469 O   0  0  0  0  0  0  0  0  0  0  0  0
   -0.6168   -1.9545   -2.0544 O   0  0  0  0  0  0  0  0  0  0  0  0
    2.3463    2.7012   -1.0198 O   0  0  0  0  0  0  0  0  0  0  0  0
    1.7519   -2.0287   -0.7031 O   0  0  0  0  0  0  0  0  0  0  0  0
    5.1997    0.1253    1.8171 O   0  0  0  0  0  0  0  0  0  0  0  0
   -3.9254   -2.4930   -1.8417 O   0  0  0  0  0  0  0  0  0  0  0  0
    4.7336   -2.9663    0.5571 O   0  0  0  0  0  0  0  0  0  0  0  0
   -4.8109    0.8209    1.3120 C   0  0  0  0  0  0  0  0  0  0  0  0
   -2.9537   -0.0054   -0.0094 C   0  0  0  0  0  0  0  0  0  0  0  0
   -2.2475    1.1909    0.1308 C   0  0  0  0  0  0  0  0  0  0  0  0
   -0.4441    0.2671   -1.2002 C   0  0  0  0  0  0  0  0  0  0  0  0
    0.9010    0.4136   -1.8380 C   0  0  0  0  0  0  0  0  0  0  0  0
   -0.9889    1.3232   -0.4682 C   0  0  0  0  0  0  0  0  0  0  0  0
   -2.4064   -1.0614   -0.7432 C   0  0  0  0  0  0  0  0  0  0  0  0
   -4.0256    2.1044    1.4455 C   0  0  0  0  0  0  0  0  0  0  0  0
   -1.1527   -0.9244   -1.3377 C   0  0  0  0  0  0  0  0  0  0  0  0
   -2.8235    2.2841    0.8944 C   0  0  0  0  0  0  0  0  0  0  0  0
    2.0525    0.3352   -0.8588 C   0  0  0  0  0  0  0  0  0  0  0  0
   -5.0604    0.2340    2.7062 C   0  0  0  0  0  0  0  0  0  0  0  0
   -6.1514    1.1181    0.6294 C   0  0  0  0  0  0  0  0  0  0  0  0
    2.7188    1.4962   -0.4999 C   0  0  0  0  0  0  0  0  0  0  0  0
    2.4198   -0.8958   -0.3388 C   0  0  0  0  0  0  0  0  0  0  0  0
    3.7799    1.4242    0.4028 C   0  0  0  0  0  0  0  0  0  0  0  0
   -3.1406   -2.3145   -0.8929 C   0  0  0  0  0  0  0  0  0  0  0  0
    3.4809   -0.9677    0.5638 C   0  0  0  0  0  0  0  0  0  0  0  0
    4.1610    0.1922    0.9345 C   0  0  0  0  0  0  0  0  0  0  0  0
    4.5090    2.6681    0.7999 C   0  0  0  0  0  0  0  0  0  0  0  0
   -2.9547   -3.4335    0.1219 C   0  0  0  0  0  0  0  0  0  0  0  0
    3.8798   -2.2565    1.1196 C   0  0  0  0  0  0  0  0  0  0  0  0
    3.2499   -2.7593    2.4112 C   0  0  0  0  0  0  0  0  0  0  0  0
    2.9794    3.1060   -2.2309 C   0  0  0  0  0  0  0  0  0  0  0  0
    1.0651   -0.3594   -2.6017 H   0  0  0  0  0  0  0  0  0  0  0  0
    0.9200    1.3212   -2.4509 H   0  0  0  0  0  0  0  0  0  0  0  0
   -4.4654    2.9165    2.0195 H   0  0  0  0  0  0  0  0  0  0  0  0
   -2.2916    3.2200    1.0135 H   0  0  0  0  0  0  0  0  0  0  0  0
   -5.6393   -0.6949    2.6410 H   0  0  0  0  0  0  0  0  0  0  0  0
   -4.1138   -0.0275    3.1946 H   0  0  0  0  0  0  0  0  0  0  0  0
   -5.6010    0.9316    3.3553 H   0  0  0  0  0  0  0  0  0  0  0  0
   -5.9956    1.4976   -0.3878 H   0  0  0  0  0  0  0  0  0  0  0  0
   -6.7491    0.2046    0.5284 H   0  0  0  0  0  0  0  0  0  0  0  0
   -6.7412    1.8556    1.1850 H   0  0  0  0  0  0  0  0  0  0  0  0
    0.2589    2.6349   -1.1410 H   0  0  0  0  0  0  0  0  0  0  0  0
   -1.2262   -2.7085   -2.0903 H   0  0  0  0  0  0  0  0  0  0  0  0
    4.5938    2.7376    1.8901 H   0  0  0  0  0  0  0  0  0  0  0  0
    5.5094    2.6798    0.3548 H   0  0  0  0  0  0  0  0  0  0  0  0
    3.9968    3.5837    0.4893 H   0  0  0  0  0  0  0  0  0  0  0  0
   -3.9121   -3.6420    0.6059 H   0  0  0  0  0  0  0  0  0  0  0  0
   -2.2304   -3.1397    0.8868 H   0  0  0  0  0  0  0  0  0  0  0  0
   -2.5826   -4.3247   -0.3898 H   0  0  0  0  0  0  0  0  0  0  0  0
    2.1349   -2.8105   -0.2748 H   0  0  0  0  0  0  0  0  0  0  0  0
    5.7034    0.9536    1.8314 H   0  0  0  0  0  0  0  0  0  0  0  0
    2.7441   -3.7088    2.2184 H   0  0  0  0  0  0  0  0  0  0  0  0
    2.5154   -2.0397    2.7841 H   0  0  0  0  0  0  0  0  0  0  0  0
    4.0305   -2.8880    3.1652 H   0  0  0  0  0  0  0  0  0  0  0  0
    3.0034    2.2952   -2.9663 H   0  0  0  0  0  0  0  0  0  0  0  0
    3.9993    3.4462   -2.0283 H   0  0  0  0  0  0  0  0  0  0  0  0
    2.4115    3.9409   -2.6505 H   0  0  0  0  0  0  0  0  0  0  0  0
  1  9  1  0  0  0  0
  1 10  1  0  0  0  0
  2 14  1  0  0  0  0
  2 43  1  0  0  0  0
  3 17  1  0  0  0  0
  3 44  1  0  0  0  0
  4 22  1  0  0  0  0
  4 32  1  0  0  0  0
  5 23  1  0  0  0  0
  5 51  1  0  0  0  0
  6 27  1  0  0  0  0
  6 52  1  0  0  0  0
  7 25  2  0  0  0  0
  8 30  2  0  0  0  0
  9 16  1  0  0  0  0
  9 20  1  0  0  0  0
  9 21  1  0  0  0  0
 10 11  1  0  0  0  0
 10 15  2  0  0  0  0
 11 14  2  0  0  0  0
 11 18  1  0  0  0  0
 12 13  1  0  0  0  0
 12 14  1  0  0  0  0
 12 17  2  0  0  0  0
 13 19  1  0  0  0  0
 13 33  1  0  0  0  0
 13 34  1  0  0  0  0
 15 17  1  0  0  0  0
 15 25  1  0  0  0  0
 16 18  2  0  0  0  0
 16 35  1  0  0  0  0
 18 36  1  0  0  0  0
 19 22  2  0  0  0  0
 19 23  1  0  0  0  0
 20 37  1  0  0  0  0
 20 38  1  0  0  0  0
 20 39  1  0  0  0  0
 21 40  1  0  0  0  0
 21 41  1  0  0  0  0
 21 42  1  0  0  0  0
 22 24  1  0  0  0  0
 23 26  2  0  0  0  0
 24 27  2  0  0  0  0
 24 28  1  0  0  0  0
 25 29  1  0  0  0  0
 26 27  1  0  0  0  0
 26 30  1  0  0  0  0
 28 45  1  0  0  0  0
 28 46  1  0  0  0  0
 28 47  1  0  0  0  0
 29 48  1  0  0  0  0
 29 49  1  0  0  0  0
 29 50  1  0  0  0  0
 30 31  1  0  0  0  0
 31 53  1  0  0  0  0
 31 54  1  0  0  0  0
 31 55  1  0  0  0  0
 32 56  1  0  0  0  0
 32 57  1  0  0  0  0
 32 58  1  0  0  0  0
M  END
> <PUBCHEM_COMPOUND_CID>
126969

> <PUBCHEM_CONFORMER_RMSD>
0.8

> <PUBCHEM_CONFORMER_DIVERSEORDER>
1
22
41
33
4
36
39
30
42
16
37
24
20
35
14
31
23
28
13
32
29
38
15
17
19
34
2
3
21
26
27
6
10
40
25
9
11
5
12
18
7
8

> <PUBCHEM_MMFF94_PARTIAL_CHARGES>
36
1 -0.36
10 0.08
11 0.03
12 -0.14
13 0.29
14 0.08
15 0.09
16 -0.29
17 0.08
18 -0.18
19 -0.14
2 -0.53
22 0.08
23 0.08
24 -0.14
25 0.42
26 0.09
27 0.08
28 0.14
29 0.06
3 -0.53
30 0.42
31 0.06
32 0.28
35 0.15
36 0.15
4 -0.36
43 0.45
44 0.45
5 -0.53
51 0.45
52 0.45
6 -0.53
7 -0.57
8 -0.57
9 0.42

> <PUBCHEM_EFFECTIVE_ROTOR_COUNT>
5.4

> <PUBCHEM_PHARMACOPHORE_FEATURES>
12
1 1 acceptor
1 2 donor
1 3 donor
1 4 acceptor
1 5 donor
1 6 donor
1 7 acceptor
1 8 acceptor
3 9 20 21 hydrophobe
6 1 9 10 11 16 18 rings
6 10 11 12 14 15 17 rings
6 19 22 23 24 26 27 rings

> <PUBCHEM_HEAVY_ATOM_COUNT>
32

> <PUBCHEM_ATOM_DEF_STEREO_COUNT>
0

> <PUBCHEM_ATOM_UDEF_STEREO_COUNT>
0

> <PUBCHEM_BOND_DEF_STEREO_COUNT>
0

> <PUBCHEM_BOND_UDEF_STEREO_COUNT>
0

> <PUBCHEM_ISOTOPIC_ATOM_COUNT>
0

> <PUBCHEM_COMPONENT_COUNT>
1

> <PUBCHEM_CACTVS_TAUTO_COUNT>
594

> <PUBCHEM_CONFORMER_ID>
0001EFF900000001

> <PUBCHEM_MMFF94_ENERGY>
128.4331

> <PUBCHEM_FEATURE_SELFOVERLAP>
60.933

> <PUBCHEM_SHAPE_FINGERPRINT>
10165383 225 15193615305952795412
10674148 151 18201726198261256292
10928967 22 17751348491991226490
12107183 9 18126283039045694146
12422481 6 18269274564913500985
12553582 1 18114741530272258206
12633257 1 18272365322021843827
12788726 201 17984426501689267047
13140716 1 18341614802022373502
13533116 47 18113910342367892785
13583140 156 17894631422847137197
13726171 33 17202215203362914120
13782708 43 16082237232684395985
13965767 371 18342182120121415828
14341114 176 18340768144236456362
14341114 328 18341330088940962888
14739800 52 17916859231365940904
14950920 106 18188219714744630987
15537594 2 18334582326046685358
15664445 248 7852413476878284751
16110190 28 18341045204229827978
17349148 13 18200864098474688709
17818456 19 18272935981494153025
1813 80 17240490173682688932
19246450 95 17763456219118792625
19377110 9 18266182918689379745
20511986 3 18340471366164844813
20739085 24 18336266735237579230
20775438 99 12327378725016894577
20775530 9 17751065926298004986
21033648 29 17627498346437900912
21065198 48 18343013432579209374
21421861 104 18260555523805367996
21859007 373 17825379692447775629
23559900 14 17774461398531294420
25147074 1 18412265077069137717
3117164 225 18340205180849675874
34797466 226 12679172775072321681
3633792 109 18190717839823584063
3737641 26 17826508856603622538
38570 142 17972910174150865252
392239 28 17764861790464130298
460360 51 18260263040864252181
5104073 3 18343296007173160146
56633871 153 18195801869262179102
6823239 73 17773899565659870428
7064713 232 18060135435833827361
7097593 13 18408881815661399140
86090 222 16588601802663974027
9849439 229 17487637234013392233

> <PUBCHEM_SHAPE_MULTIPOLES>
611.59
11.82
3.82
2.11
3.97
1.1
0.28
-0.63
7.08
-1.94
-0.22
0.25
0.31
-3.44

> <PUBCHEM_SHAPE_SELFOVERLAP>
1336.446

> <PUBCHEM_SHAPE_VOLUME>
334.2

> <PUBCHEM_COORDINATE_TYPE>
2
5
10

$$$$
