126968493
  -OEChem-03292013293D

 56 57  0     1  0  0  0  0  0999 V2000
    0.2889    1.3164    0.7914 S   0  0  0  0  0  0  0  0  0  0  0  0
   -0.7165    1.2143   -0.9972 S   0  0  0  0  0  0  0  0  0  0  0  0
    3.3390    0.7856    1.6851 O   0  0  0  0  0  0  0  0  0  0  0  0
   -3.7901    0.7125   -1.8113 O   0  0  0  0  0  0  0  0  0  0  0  0
    6.0539   -1.9271    1.9965 O   0  0  0  0  0  0  0  0  0  0  0  0
   -4.8963   -2.9655   -1.5998 O   0  0  0  0  0  0  0  0  0  0  0  0
    6.5841   -0.2800    0.5126 O   0  0  0  0  0  0  0  0  0  0  0  0
   -3.2355   -2.4349   -0.1314 O   0  0  0  0  0  0  0  0  0  0  0  0
    3.9773   -0.2359   -0.2911 N   0  0  0  0  0  0  0  0  0  0  0  0
   -4.4436   -0.0247    0.2830 N   0  0  0  0  0  0  0  0  0  0  0  0
   -5.2708   -1.1311   -0.1805 C   0  0  2  0  0  0  0  0  0  0  0  0
    4.4845   -1.4617    0.3112 C   0  0  1  0  0  0  0  0  0  0  0  0
   -6.0990   -1.5309    1.0350 C   0  0  0  0  0  0  0  0  0  0  0  0
    4.6191   -2.4378   -0.8517 C   0  0  0  0  0  0  0  0  0  0  0  0
    4.8864   -1.5288   -2.0488 C   0  0  0  0  0  0  0  0  0  0  0  0
   -5.2028   -1.1581    2.2135 C   0  0  0  0  0  0  0  0  0  0  0  0
   -4.5063    0.1072    1.7363 C   0  0  0  0  0  0  0  0  0  0  0  0
    4.0429   -0.2990   -1.7490 C   0  0  0  0  0  0  0  0  0  0  0  0
   -3.8227    0.8569   -0.5881 C   0  0  0  0  0  0  0  0  0  0  0  0
    3.3747    0.7659    0.4536 C   0  0  0  0  0  0  0  0  0  0  0  0
   -3.1499    2.0421    0.0571 C   0  0  1  0  0  0  0  0  0  0  0  0
    2.7499    1.8822   -0.3445 C   0  0  1  0  0  0  0  0  0  0  0  0
   -4.3422   -2.2280   -0.6067 C   0  0  0  0  0  0  0  0  0  0  0  0
    5.8144   -1.1365    0.9218 C   0  0  0  0  0  0  0  0  0  0  0  0
    1.5868    2.5198    0.4171 C   0  0  0  0  0  0  0  0  0  0  0  0
   -1.9673    2.5196   -0.7825 C   0  0  0  0  0  0  0  0  0  0  0  0
    3.8361    2.9152   -0.6319 C   0  0  0  0  0  0  0  0  0  0  0  0
   -4.1951    3.1422    0.2002 C   0  0  0  0  0  0  0  0  0  0  0  0
    3.7908   -1.8045    1.0863 H   0  0  0  0  0  0  0  0  0  0  0  0
   -5.8790   -0.8042   -1.0305 H   0  0  0  0  0  0  0  0  0  0  0  0
   -6.3809   -2.5880    1.0477 H   0  0  0  0  0  0  0  0  0  0  0  0
   -7.0154   -0.9294    1.0733 H   0  0  0  0  0  0  0  0  0  0  0  0
    3.6701   -2.9664   -1.0037 H   0  0  0  0  0  0  0  0  0  0  0  0
    5.4089   -3.1822   -0.7129 H   0  0  0  0  0  0  0  0  0  0  0  0
   -5.7613   -1.0060    3.1413 H   0  0  0  0  0  0  0  0  0  0  0  0
   -4.4666   -1.9517    2.3881 H   0  0  0  0  0  0  0  0  0  0  0  0
    5.9485   -1.2586   -2.0825 H   0  0  0  0  0  0  0  0  0  0  0  0
    4.6257   -1.9948   -3.0032 H   0  0  0  0  0  0  0  0  0  0  0  0
   -5.0974    0.9917    1.9878 H   0  0  0  0  0  0  0  0  0  0  0  0
   -3.5070    0.1980    2.1698 H   0  0  0  0  0  0  0  0  0  0  0  0
    4.4700    0.6075   -2.1805 H   0  0  0  0  0  0  0  0  0  0  0  0
    3.0239   -0.4337   -2.1283 H   0  0  0  0  0  0  0  0  0  0  0  0
    2.3686    1.5131   -1.3009 H   0  0  0  0  0  0  0  0  0  0  0  0
   -2.7756    1.7968    1.0534 H   0  0  0  0  0  0  0  0  0  0  0  0
   -2.3006    2.8088   -1.7861 H   0  0  0  0  0  0  0  0  0  0  0  0
   -1.5035    3.4107   -0.3447 H   0  0  0  0  0  0  0  0  0  0  0  0
    1.9341    2.9259    1.3745 H   0  0  0  0  0  0  0  0  0  0  0  0
    1.1657    3.3648   -0.1392 H   0  0  0  0  0  0  0  0  0  0  0  0
   -4.5653    3.4656   -0.7799 H   0  0  0  0  0  0  0  0  0  0  0  0
   -5.0649    2.8217    0.7796 H   0  0  0  0  0  0  0  0  0  0  0  0
   -3.7664    4.0176    0.7000 H   0  0  0  0  0  0  0  0  0  0  0  0
    4.1930    3.3783    0.2956 H   0  0  0  0  0  0  0  0  0  0  0  0
    4.7107    2.4836   -1.1259 H   0  0  0  0  0  0  0  0  0  0  0  0
    3.4477    3.7125   -1.2746 H   0  0  0  0  0  0  0  0  0  0  0  0
    6.9215   -1.7304    2.4099 H   0  0  0  0  0  0  0  0  0  0  0  0
   -4.3028   -3.6892   -1.8935 H   0  0  0  0  0  0  0  0  0  0  0  0
  1  2  1  0  0  0  0
  1 25  1  0  0  0  0
  2 26  1  0  0  0  0
  3 20  2  0  0  0  0
  4 19  2  0  0  0  0
  5 24  1  0  0  0  0
  5 55  1  0  0  0  0
  6 23  1  0  0  0  0
  6 56  1  0  0  0  0
  7 24  2  0  0  0  0
  8 23  2  0  0  0  0
  9 12  1  0  0  0  0
  9 18  1  0  0  0  0
  9 20  1  0  0  0  0
 10 11  1  0  0  0  0
 10 17  1  0  0  0  0
 10 19  1  0  0  0  0
 11 13  1  0  0  0  0
 11 23  1  0  0  0  0
 11 30  1  0  0  0  0
 12 14  1  0  0  0  0
 12 24  1  0  0  0  0
 12 29  1  0  0  0  0
 13 16  1  0  0  0  0
 13 31  1  0  0  0  0
 13 32  1  0  0  0  0
 14 15  1  0  0  0  0
 14 33  1  0  0  0  0
 14 34  1  0  0  0  0
 15 18  1  0  0  0  0
 15 37  1  0  0  0  0
 15 38  1  0  0  0  0
 16 17  1  0  0  0  0
 16 35  1  0  0  0  0
 16 36  1  0  0  0  0
 17 39  1  0  0  0  0
 17 40  1  0  0  0  0
 18 41  1  0  0  0  0
 18 42  1  0  0  0  0
 19 21  1  0  0  0  0
 20 22  1  0  0  0  0
 21 26  1  0  0  0  0
 21 28  1  0  0  0  0
 21 44  1  0  0  0  0
 22 25  1  0  0  0  0
 22 27  1  0  0  0  0
 22 43  1  0  0  0  0
 25 47  1  0  0  0  0
 25 48  1  0  0  0  0
 26 45  1  0  0  0  0
 26 46  1  0  0  0  0
 27 52  1  0  0  0  0
 27 53  1  0  0  0  0
 27 54  1  0  0  0  0
 28 49  1  0  0  0  0
 28 50  1  0  0  0  0
 28 51  1  0  0  0  0
M  END
> <PUBCHEM_COMPOUND_CID>
126968493

> <PUBCHEM_CONFORMER_RMSD>
1.2

> <PUBCHEM_CONFORMER_DIVERSEORDER>
2
53
90
60
36
19
29
67
28
38
16
3
63
95
43
59
45
71
18
33
82
97
34
27
87
13
98
7
9
77
78
75
88
61
32
89
4
8
40
46
96
15
62
49
76
55
50
48
86
21
30
83
24
64
81
20
39
69
70
66
54
57
65
35
23
12
47
73
58
1
52
14
5
92
25
85
56
26
68
44
37
79
84
80
93
91
74
94
6
31
22
10
72
11
42
41
51
17

> <PUBCHEM_MMFF94_PARTIAL_CHARGES>
24
1 -0.23
10 -0.66
11 0.36
12 0.36
17 0.3
18 0.3
19 0.57
2 -0.23
20 0.57
21 0.06
22 0.06
23 0.66
24 0.66
25 0.23
26 0.23
3 -0.57
4 -0.57
5 -0.65
55 0.5
56 0.5
6 -0.65
7 -0.57
8 -0.57
9 -0.66

> <PUBCHEM_EFFECTIVE_ROTOR_COUNT>
13

> <PUBCHEM_PHARMACOPHORE_FEATURES>
14
1 27 hydrophobe
1 28 hydrophobe
1 3 acceptor
1 4 acceptor
1 5 acceptor
1 6 acceptor
1 7 acceptor
1 8 acceptor
3 1 22 25 hydrophobe
3 2 21 26 hydrophobe
3 5 7 24 anion
3 6 8 23 anion
5 10 11 13 16 17 rings
5 9 12 14 15 18 rings

> <PUBCHEM_HEAVY_ATOM_COUNT>
28

> <PUBCHEM_ATOM_DEF_STEREO_COUNT>
4

> <PUBCHEM_ATOM_UDEF_STEREO_COUNT>
0

> <PUBCHEM_BOND_DEF_STEREO_COUNT>
0

> <PUBCHEM_BOND_UDEF_STEREO_COUNT>
0

> <PUBCHEM_ISOTOPIC_ATOM_COUNT>
0

> <PUBCHEM_COMPONENT_COUNT>
1

> <PUBCHEM_CACTVS_TAUTO_COUNT>
1

> <PUBCHEM_CONFORMER_ID>
079162AD00000002

> <PUBCHEM_MMFF94_ENERGY>
54.377

> <PUBCHEM_FEATURE_SELFOVERLAP>
71.177

> <PUBCHEM_SHAPE_FINGERPRINT>
10169797 241 18337682992213792402
10864689 126 17908429056424341838
10928967 22 18333449841749405827
11796584 16 18268988692186133008
12422481 6 17988375810006228871
12633257 1 17774738549124842225
13782708 43 18040996220377080416
14251751 18 18335136467058897936
14347332 77 18409730673145518941
14950920 106 17489590112486923049
14951699 99 12895069643621993392
15183329 4 18412547634399108098
15799311 1 18199486491581987925
17844677 252 18409733962674145533
17857418 61 18410854373517396671
20691028 202 8862680001181376727
21623969 137 18201718436331530090
21968339 14 13695871450465390716
23424784 1240 18271812285380501510
25222932 49 18336537258180008294
2748736 6 10159696867645817850
2838139 119 11169912796964877780
3089732 80 18412550902790014887
3383291 50 18272084947643392237
341906 21 10015576195002148580
4073 2 18271802376880419520
439807 62 17967534566774654355
44062 13 18336549300719875077
484985 159 18408600362897931703
508706 21 18341049623381527599
5104073 3 18343022185501734057
513202 73 18334301963957153985
56633871 153 18268719475594626763

> <PUBCHEM_SHAPE_MULTIPOLES>
538.75
18.04
3.63
1.79
4.28
0.63
0.16
-11.71
3.18
-1.42
-0.68
0.22
-0.82
-0.03

> <PUBCHEM_SHAPE_SELFOVERLAP>
1076.797

> <PUBCHEM_SHAPE_VOLUME>
320.6

> <PUBCHEM_COORDINATE_TYPE>
2
5
10

$$$$
