126950
  -OEChem-03292013323D

 51 51  0     1  0  0  0  0  0999 V2000
    0.6916   -0.9051    0.5158 S   0  0  0  0  0  0  0  0  0  0  0  0
    0.2747    3.7975    1.5385 O   0  0  0  0  0  0  0  0  0  0  0  0
    3.0764    1.3143   -1.4135 O   0  0  0  0  0  0  0  0  0  0  0  0
   -1.9067    0.8383   -1.6846 O   0  0  0  0  0  0  0  0  0  0  0  0
   -4.0531    1.5577   -1.8144 O   0  0  0  0  0  0  0  0  0  0  0  0
   -1.0883   -3.9511   -1.5130 O   0  0  0  0  0  0  0  0  0  0  0  0
   -3.1092   -1.8071    2.0244 O   0  0  0  0  0  0  0  0  0  0  0  0
    4.0886   -1.8812   -0.1805 O   0  0  0  0  0  0  0  0  0  0  0  0
    6.1849   -1.9213   -1.0477 O   0  0  0  0  0  0  0  0  0  0  0  0
    0.9492    2.2666   -0.0730 N   0  0  0  0  0  0  0  0  0  0  0  0
   -1.7318   -2.9597    0.5152 N   0  0  0  0  0  0  0  0  0  0  0  0
    4.1669    0.6345    0.5181 N   0  0  0  0  0  0  0  0  0  0  0  0
   -3.9249    2.2396    0.8533 N   0  0  0  0  0  0  0  0  0  0  0  0
    1.9558    1.5997    0.7201 C   0  0  1  0  0  0  0  0  0  0  0  0
    1.3803    0.4393    1.5359 C   0  0  0  0  0  0  0  0  0  0  0  0
   -2.2504    3.7055   -0.1673 C   0  0  0  0  0  0  0  0  0  0  0  0
   -0.7974    3.8218   -0.6325 C   0  0  0  0  0  0  0  0  0  0  0  0
   -2.6829    2.2553    0.0767 C   0  0  2  0  0  0  0  0  0  0  0  0
    0.1869    3.3200    0.4105 C   0  0  0  0  0  0  0  0  0  0  0  0
    0.0840   -1.9554    1.8541 C   0  0  0  0  0  0  0  0  0  0  0  0
    3.1093    1.1858   -0.1913 C   0  0  0  0  0  0  0  0  0  0  0  0
   -0.5800   -3.2233    1.3347 C   0  0  0  0  0  0  0  0  0  0  0  0
   -2.9771    1.5403   -1.2295 C   0  0  0  0  0  0  0  0  0  0  0  0
   -1.8660   -3.3411   -0.7991 C   0  0  0  0  0  0  0  0  0  0  0  0
   -2.8581   -2.2898    0.9331 C   0  0  0  0  0  0  0  0  0  0  0  0
    5.3642    0.1445   -0.1239 C   0  0  0  0  0  0  0  0  0  0  0  0
   -3.1871   -2.8676   -1.2413 C   0  0  0  0  0  0  0  0  0  0  0  0
   -3.7736   -2.2461   -0.2175 C   0  0  0  0  0  0  0  0  0  0  0  0
    5.2736   -1.3117   -0.5013 C   0  0  0  0  0  0  0  0  0  0  0  0
    2.3623    2.3378    1.4243 H   0  0  0  0  0  0  0  0  0  0  0  0
    0.5747    0.8167    2.1761 H   0  0  0  0  0  0  0  0  0  0  0  0
    2.1442    0.0081    2.1902 H   0  0  0  0  0  0  0  0  0  0  0  0
   -2.9002    4.1791   -0.9143 H   0  0  0  0  0  0  0  0  0  0  0  0
   -2.3580    4.2844    0.7597 H   0  0  0  0  0  0  0  0  0  0  0  0
   -0.6638    3.3092   -1.5908 H   0  0  0  0  0  0  0  0  0  0  0  0
   -0.5578    4.8770   -0.8115 H   0  0  0  0  0  0  0  0  0  0  0  0
    0.7827    1.9179   -1.0125 H   0  0  0  0  0  0  0  0  0  0  0  0
   -1.9361    1.6883    0.6417 H   0  0  0  0  0  0  0  0  0  0  0  0
   -0.6110   -1.3759    2.4693 H   0  0  0  0  0  0  0  0  0  0  0  0
    0.9316   -2.2364    2.4882 H   0  0  0  0  0  0  0  0  0  0  0  0
   -0.9246   -3.8098    2.1947 H   0  0  0  0  0  0  0  0  0  0  0  0
    0.1374   -3.8404    0.7813 H   0  0  0  0  0  0  0  0  0  0  0  0
    4.1220    0.5820    1.5310 H   0  0  0  0  0  0  0  0  0  0  0  0
   -4.1780    1.2766    1.0731 H   0  0  0  0  0  0  0  0  0  0  0  0
   -3.7742    2.7025    1.7489 H   0  0  0  0  0  0  0  0  0  0  0  0
    6.1865    0.2702    0.5860 H   0  0  0  0  0  0  0  0  0  0  0  0
    5.5545    0.7283   -1.0292 H   0  0  0  0  0  0  0  0  0  0  0  0
   -3.5865   -3.0110   -2.2311 H   0  0  0  0  0  0  0  0  0  0  0  0
   -4.7452   -1.7819   -0.2068 H   0  0  0  0  0  0  0  0  0  0  0  0
   -2.1074    0.3666   -2.5209 H   0  0  0  0  0  0  0  0  0  0  0  0
    4.0539   -2.8274   -0.4368 H   0  0  0  0  0  0  0  0  0  0  0  0
  1 15  1  0  0  0  0
  1 20  1  0  0  0  0
  2 19  2  0  0  0  0
  3 21  2  0  0  0  0
  4 23  1  0  0  0  0
  4 50  1  0  0  0  0
  5 23  2  0  0  0  0
  6 24  2  0  0  0  0
  7 25  2  0  0  0  0
  8 29  1  0  0  0  0
  8 51  1  0  0  0  0
  9 29  2  0  0  0  0
 10 14  1  0  0  0  0
 10 19  1  0  0  0  0
 10 37  1  0  0  0  0
 11 22  1  0  0  0  0
 11 24  1  0  0  0  0
 11 25  1  0  0  0  0
 12 21  1  0  0  0  0
 12 26  1  0  0  0  0
 12 43  1  0  0  0  0
 13 18  1  0  0  0  0
 13 44  1  0  0  0  0
 13 45  1  0  0  0  0
 14 15  1  0  0  0  0
 14 21  1  0  0  0  0
 14 30  1  0  0  0  0
 15 31  1  0  0  0  0
 15 32  1  0  0  0  0
 16 17  1  0  0  0  0
 16 18  1  0  0  0  0
 16 33  1  0  0  0  0
 16 34  1  0  0  0  0
 17 19  1  0  0  0  0
 17 35  1  0  0  0  0
 17 36  1  0  0  0  0
 18 23  1  0  0  0  0
 18 38  1  0  0  0  0
 20 22  1  0  0  0  0
 20 39  1  0  0  0  0
 20 40  1  0  0  0  0
 22 41  1  0  0  0  0
 22 42  1  0  0  0  0
 24 27  1  0  0  0  0
 25 28  1  0  0  0  0
 26 29  1  0  0  0  0
 26 46  1  0  0  0  0
 26 47  1  0  0  0  0
 27 28  2  0  0  0  0
 27 48  1  0  0  0  0
 28 49  1  0  0  0  0
M  END
> <PUBCHEM_COMPOUND_CID>
126950

> <PUBCHEM_CONFORMER_RMSD>
1.2

> <PUBCHEM_CONFORMER_DIVERSEORDER>
1
103
107
4
73
41
84
83
26
105
3
63
108
21
48
5
70
28
115
51
106
85
55
112
77
16
64
88
75
19
37
89
14
29
45
17
111
68
31
93
7
82
11
110
62
38
39
50
40
114
78
46
56
9
79
94
96
109
59
58
10
13
86
61
71
101
57
47
43
15
27
36
76
30
22
98
23
72
67
42
60
25
8
18
54
24
32
90
6
100
69
99
66
87
53
49
2
33
104
44
12
35
34
95
74
80
65
97
81
113
91
52
92
102
20

> <PUBCHEM_MMFF94_PARTIAL_CHARGES>
36
1 -0.46
10 -0.73
11 -0.42
12 -0.73
13 -0.99
14 0.36
15 0.23
17 0.06
18 0.33
19 0.57
2 -0.57
20 0.23
21 0.57
22 0.3
23 0.66
24 0.62
25 0.62
26 0.36
27 -0.14
28 -0.14
29 0.66
3 -0.57
37 0.37
4 -0.65
43 0.37
44 0.36
45 0.36
48 0.15
49 0.15
5 -0.57
50 0.5
51 0.5
6 -0.57
7 -0.57
8 -0.65
9 -0.57

> <PUBCHEM_EFFECTIVE_ROTOR_COUNT>
15.2

> <PUBCHEM_PHARMACOPHORE_FEATURES>
15
1 10 donor
1 12 donor
1 13 cation
1 13 donor
1 2 acceptor
1 3 acceptor
1 4 acceptor
1 5 acceptor
1 6 acceptor
1 7 acceptor
1 8 acceptor
1 9 acceptor
3 4 5 23 anion
3 8 9 29 anion
5 11 24 25 27 28 rings

> <PUBCHEM_HEAVY_ATOM_COUNT>
29

> <PUBCHEM_ATOM_DEF_STEREO_COUNT>
2

> <PUBCHEM_ATOM_UDEF_STEREO_COUNT>
0

> <PUBCHEM_BOND_DEF_STEREO_COUNT>
0

> <PUBCHEM_BOND_UDEF_STEREO_COUNT>
0

> <PUBCHEM_ISOTOPIC_ATOM_COUNT>
0

> <PUBCHEM_COMPONENT_COUNT>
1

> <PUBCHEM_CACTVS_TAUTO_COUNT>
4

> <PUBCHEM_CONFORMER_ID>
0001EFE600000001

> <PUBCHEM_MMFF94_ENERGY>
36.3636

> <PUBCHEM_FEATURE_SELFOVERLAP>
76.246

> <PUBCHEM_SHAPE_FINGERPRINT>
11578080 2 17774993648654673968
12156800 1 17318217975381992563
12712778 12 18190997128498072848
12788726 201 18334011731447019098
13122387 1 18048299073529508033
14251740 79 18335703814847950762
14251751 93 18333169457604509642
14251757 5 18339641114647921068
19315092 285 15909644808489722215
19930381 70 17113532074274050391
20764821 26 18411423894760439614
20775438 99 17264922602331902119
24941158 1 16915357009422421240
35225 105 18118654765206464941
38695281 34 17831863447733187696
4058900 60 17755576049938831405
59025328 239 17770480239026807742
70251023 43 18051406567951401515

> <PUBCHEM_SHAPE_MULTIPOLES>
533.78
9.33
6.15
1.65
13.19
1.43
0.14
-4.2
-3.13
-5.1
-0.19
-0.86
-0.53
0.93

> <PUBCHEM_SHAPE_SELFOVERLAP>
1068.8

> <PUBCHEM_SHAPE_VOLUME>
314.3

> <PUBCHEM_COORDINATE_TYPE>
2
5
10

$$$$
