126968858
  -OEChem-03292013293D

 53 55  0     1  0  0  0  0  0999 V2000
    2.5501    0.9382   -1.0662 O   0  0  0  0  0  0  0  0  0  0  0  0
    1.7188    0.4125    2.3691 O   0  0  0  0  0  0  0  0  0  0  0  0
    2.0463   -1.1131    0.0020 O   0  0  0  0  0  0  0  0  0  0  0  0
    1.1498    3.0185    1.6280 O   0  0  0  0  0  0  0  0  0  0  0  0
    4.2219   -0.7252    1.7453 O   0  0  0  0  0  0  0  0  0  0  0  0
    0.3242    3.6438   -0.8607 O   0  0  0  0  0  0  0  0  0  0  0  0
    1.8220    2.9552   -2.4351 O   0  0  0  0  0  0  0  0  0  0  0  0
    1.6294   -1.4122   -2.2422 O   0  0  0  0  0  0  0  0  0  0  0  0
   -1.3264   -0.8968   -0.5272 N   0  0  0  0  0  0  0  0  0  0  0  0
    2.7601    1.2178    1.8146 C   0  0  2  0  0  0  0  0  0  0  0  0
    2.1687    2.3165    0.9249 C   0  0  1  0  0  0  0  0  0  0  0  0
    3.7191    0.3628    0.9821 C   0  0  2  0  0  0  0  0  0  0  0  0
    1.5928    1.7337   -0.3660 C   0  0  1  0  0  0  0  0  0  0  0  0
    3.0588   -0.1569   -0.2999 C   0  0  2  0  0  0  0  0  0  0  0  0
    1.2850    2.8198   -1.3458 C   0  0  0  0  0  0  0  0  0  0  0  0
    1.4104   -1.6633   -1.0673 C   0  0  0  0  0  0  0  0  0  0  0  0
    0.3835   -2.6382   -0.6206 C   0  0  0  0  0  0  0  0  0  0  0  0
   -0.9298   -2.2432   -0.3666 C   0  0  0  0  0  0  0  0  0  0  0  0
    0.7549   -3.9725   -0.4552 C   0  0  0  0  0  0  0  0  0  0  0  0
   -2.3031   -0.1100    0.1100 C   0  0  0  0  0  0  0  0  0  0  0  0
   -2.9355    0.9326   -0.5670 C   0  0  0  0  0  0  0  0  0  0  0  0
   -1.8718   -3.1825    0.0530 C   0  0  0  0  0  0  0  0  0  0  0  0
   -3.9000    1.7028    0.0830 C   0  0  0  0  0  0  0  0  0  0  0  0
   -0.1872   -4.9118   -0.0355 C   0  0  0  0  0  0  0  0  0  0  0  0
   -2.6351   -0.3827    1.4370 C   0  0  0  0  0  0  0  0  0  0  0  0
   -1.5006   -4.5169    0.2185 C   0  0  0  0  0  0  0  0  0  0  0  0
   -2.5821    1.2287   -1.9907 C   0  0  0  0  0  0  0  0  0  0  0  0
   -4.2321    1.4301    1.4101 C   0  0  0  0  0  0  0  0  0  0  0  0
   -3.5996    0.3874    2.0871 C   0  0  0  0  0  0  0  0  0  0  0  0
   -4.5925    2.8250   -0.6186 C   0  0  0  0  0  0  0  0  0  0  0  0
    3.2793    1.6645    2.6701 H   0  0  0  0  0  0  0  0  0  0  0  0
    2.9680    3.0309    0.6878 H   0  0  0  0  0  0  0  0  0  0  0  0
    4.5720    0.9911    0.6945 H   0  0  0  0  0  0  0  0  0  0  0  0
    0.6768    1.1590   -0.1981 H   0  0  0  0  0  0  0  0  0  0  0  0
    3.8250   -0.6637   -0.8999 H   0  0  0  0  0  0  0  0  0  0  0  0
    2.1428   -0.3032    2.8728 H   0  0  0  0  0  0  0  0  0  0  0  0
    0.8935    3.7884    1.0932 H   0  0  0  0  0  0  0  0  0  0  0  0
    4.6358   -0.3564    2.5442 H   0  0  0  0  0  0  0  0  0  0  0  0
    0.1068    4.3640   -1.4902 H   0  0  0  0  0  0  0  0  0  0  0  0
   -0.7782   -0.3935   -1.2176 H   0  0  0  0  0  0  0  0  0  0  0  0
    1.7755   -4.2917   -0.6501 H   0  0  0  0  0  0  0  0  0  0  0  0
   -2.9083   -2.9115    0.2340 H   0  0  0  0  0  0  0  0  0  0  0  0
    0.1017   -5.9510    0.0921 H   0  0  0  0  0  0  0  0  0  0  0  0
   -2.1414   -1.1700    2.0000 H   0  0  0  0  0  0  0  0  0  0  0  0
   -2.2352   -5.2495    0.5395 H   0  0  0  0  0  0  0  0  0  0  0  0
   -1.7019    1.8774   -2.0318 H   0  0  0  0  0  0  0  0  0  0  0  0
   -2.3714    0.3121   -2.5525 H   0  0  0  0  0  0  0  0  0  0  0  0
   -3.3930    1.7114   -2.5432 H   0  0  0  0  0  0  0  0  0  0  0  0
   -4.9809    2.0202    1.9318 H   0  0  0  0  0  0  0  0  0  0  0  0
   -3.8537    0.1790    3.1223 H   0  0  0  0  0  0  0  0  0  0  0  0
   -5.2081    3.4118    0.0725 H   0  0  0  0  0  0  0  0  0  0  0  0
   -5.2577    2.4399   -1.3982 H   0  0  0  0  0  0  0  0  0  0  0  0
   -3.8686    3.5194   -1.0581 H   0  0  0  0  0  0  0  0  0  0  0  0
  1 13  1  0  0  0  0
  1 14  1  0  0  0  0
  2 10  1  0  0  0  0
  2 36  1  0  0  0  0
  3 14  1  0  0  0  0
  3 16  1  0  0  0  0
  4 11  1  0  0  0  0
  4 37  1  0  0  0  0
  5 12  1  0  0  0  0
  5 38  1  0  0  0  0
  6 15  1  0  0  0  0
  6 39  1  0  0  0  0
  7 15  2  0  0  0  0
  8 16  2  0  0  0  0
  9 18  1  0  0  0  0
  9 20  1  0  0  0  0
  9 40  1  0  0  0  0
 10 11  1  0  0  0  0
 10 12  1  0  0  0  0
 10 31  1  0  0  0  0
 11 13  1  0  0  0  0
 11 32  1  0  0  0  0
 12 14  1  0  0  0  0
 12 33  1  0  0  0  0
 13 15  1  0  0  0  0
 13 34  1  0  0  0  0
 14 35  1  0  0  0  0
 16 17  1  0  0  0  0
 17 18  1  0  0  0  0
 17 19  2  0  0  0  0
 18 22  2  0  0  0  0
 19 24  1  0  0  0  0
 19 41  1  0  0  0  0
 20 21  1  0  0  0  0
 20 25  2  0  0  0  0
 21 23  2  0  0  0  0
 21 27  1  0  0  0  0
 22 26  1  0  0  0  0
 22 42  1  0  0  0  0
 23 28  1  0  0  0  0
 23 30  1  0  0  0  0
 24 26  2  0  0  0  0
 24 43  1  0  0  0  0
 25 29  1  0  0  0  0
 25 44  1  0  0  0  0
 26 45  1  0  0  0  0
 27 46  1  0  0  0  0
 27 47  1  0  0  0  0
 27 48  1  0  0  0  0
 28 29  2  0  0  0  0
 28 49  1  0  0  0  0
 29 50  1  0  0  0  0
 30 51  1  0  0  0  0
 30 52  1  0  0  0  0
 30 53  1  0  0  0  0
M  END
> <PUBCHEM_COMPOUND_CID>
126968858

> <PUBCHEM_CONFORMER_RMSD>
1

> <PUBCHEM_CONFORMER_DIVERSEORDER>
1
127
163
199
63
245
174
209
195
239
125
93
159
88
59
15
24
228
256
188
94
97
115
257
207
171
223
237
77
75
33
19
129
210
126
260
65
246
267
57
200
224
198
282
76
193
261
114
181
62
266
252
274
83
124
113
132
222
192
38
190
34
196
154
184
219
238
80
98
242
28
42
158
283
102
70
16
108
249
247
212
275
227
68
40
166
206
53
284
116
185
203
151
101
105
29
248
52
281
240
197
67
47
45
180
3
175
12
74
55
48
111
107
85
263
150
136
205
234
99
145
17
273
255
130
279
179
20
168
27
251
89
39
271
30
8
122
21
217
143
216
226
61
44
121
187
225
241
81
51
218
58
14
11
92
56
265
233
104
5
186
119
90
60
9
244
69
161
84
250
155
110
100
118
133
141
177
78
43
178
6
64
22
37
32
169
96
243
194
160
25
148
2
106
173
157
13
139
259
134
272
280
172
31
54
137
142
162
128
7
147
23
258
254
253
120
87
276
236
138
262
26
79
269
220
211
270
204
202
135
208
10
268
213
41
215
86
82
123
149
191
231
277
117
264
4
46
140
71
73
35
66
153
189
165
235
18
131
144
156
109
164
146
112
36
95
214
91
221
182
230
278
103
152
183
229
170
201
176
50
167
49
232
72

> <PUBCHEM_MMFF94_PARTIAL_CHARGES>
42
1 -0.56
10 0.28
11 0.28
12 0.28
13 0.34
14 0.56
15 0.66
16 0.63
17 0.09
18 0.1
19 -0.15
2 -0.68
20 0.1
21 -0.14
22 -0.15
23 -0.14
24 -0.15
25 -0.15
26 -0.15
27 0.14
28 -0.15
29 -0.15
3 -0.43
30 0.14
36 0.4
37 0.4
38 0.4
39 0.5
4 -0.68
40 0.4
41 0.15
42 0.15
43 0.15
44 0.15
45 0.15
49 0.15
5 -0.68
50 0.15
6 -0.65
7 -0.57
8 -0.57
9 -0.6

> <PUBCHEM_EFFECTIVE_ROTOR_COUNT>
7.2

> <PUBCHEM_PHARMACOPHORE_FEATURES>
16
1 1 acceptor
1 2 acceptor
1 2 donor
1 4 acceptor
1 4 donor
1 5 acceptor
1 5 donor
1 6 acceptor
1 7 acceptor
1 8 acceptor
1 9 cation
1 9 donor
3 6 7 15 anion
6 1 10 11 12 13 14 rings
6 17 18 19 22 24 26 rings
6 20 21 23 25 28 29 rings

> <PUBCHEM_HEAVY_ATOM_COUNT>
30

> <PUBCHEM_ATOM_DEF_STEREO_COUNT>
4

> <PUBCHEM_ATOM_UDEF_STEREO_COUNT>
1

> <PUBCHEM_BOND_DEF_STEREO_COUNT>
0

> <PUBCHEM_BOND_UDEF_STEREO_COUNT>
0

> <PUBCHEM_ISOTOPIC_ATOM_COUNT>
0

> <PUBCHEM_COMPONENT_COUNT>
1

> <PUBCHEM_CACTVS_TAUTO_COUNT>
83

> <PUBCHEM_CONFORMER_ID>
0791641A00000001

> <PUBCHEM_MMFF94_ENERGY>
104.3874

> <PUBCHEM_FEATURE_SELFOVERLAP>
81.298

> <PUBCHEM_SHAPE_FINGERPRINT>
10165383 225 18122662450466550335
11578080 2 12231182431164294331
11582403 64 16736600449257207215
12156800 1 13954363502333150643
12160290 23 17842004570067604263
12788726 201 17687469383040883411
128993 33 17909851038402023593
13583140 156 17095800014229522455
13726171 33 17606990324614528868
13965767 371 18266722620005764928
14856354 85 16588031255504177416
151778 21 18265360393956037945
17093844 170 17902508190503852540
17921350 177 17822291258172810893
19930381 70 18265338292396704237
20600515 1 18270419208622074230
20764821 26 18335144176462014893
21033648 29 18341879780098564760
23419403 2 16616971204015296066
23559900 14 17536613802661865455
238918 7 17976233778103567336
2818148 4 17972607855480848332
350125 39 18196666291607156731
35225 105 17628660818434165765
474 4 18130497540340269995
57527358 35 15696844052629693026
57527573 199 17489315191546124824
7097593 13 18190167070270969050

> <PUBCHEM_SHAPE_MULTIPOLES>
565.45
6.86
5.86
2.03
4.39
6.13
0.18
-4.95
2.29
-0.4
-1.25
-0.46
-1.35
0.68

> <PUBCHEM_SHAPE_SELFOVERLAP>
1216.566

> <PUBCHEM_SHAPE_VOLUME>
307.1

> <PUBCHEM_COORDINATE_TYPE>
2
5
10

$$$$
