126969738
  -OEChem-03292013293D

 55 59  0     1  0  0  0  0  0999 V2000
   -2.0546    1.7739   -1.4432 O   0  0  0  0  0  0  0  0  0  0  0  0
   -1.2643   -2.4942   -0.7168 O   0  0  0  0  0  0  0  0  0  0  0  0
   -3.1473   -0.6056   -0.9237 O   0  0  0  0  0  0  0  0  0  0  0  0
    0.2570    3.1063   -0.6639 O   0  0  0  0  0  0  0  0  0  0  0  0
   -1.4098    1.7469    2.2016 O   0  0  0  0  0  0  0  0  0  0  0  0
   -3.2938   -0.9543    1.8523 O   0  0  0  0  0  0  0  0  0  0  0  0
    3.0176    2.3910    0.3061 O   0  0  0  0  0  0  0  0  0  0  0  0
   -2.6077   -3.4346    0.8843 O   0  0  0  0  0  0  0  0  0  0  0  0
    3.3732    0.7483    2.4230 O   0  0  0  0  0  0  0  0  0  0  0  0
   -0.7123   -0.0658   -0.7592 C   0  0  2  0  0  0  0  0  0  0  0  0
    0.4904    0.7121   -0.0619 C   0  0  1  0  0  0  0  0  0  0  0  0
   -2.0957   -0.0514   -0.0603 C   0  0  1  0  0  0  0  0  0  0  0  0
    1.9226    0.4880   -0.8272 C   0  0  2  0  0  0  0  0  0  0  0  0
   -2.3423    1.4471   -0.0368 C   0  0  1  0  0  0  0  0  0  0  0  0
   -0.2211   -1.5198   -0.7414 C   0  0  2  0  0  0  0  0  0  0  0  0
    0.1005    2.1483    0.3720 C   0  0  2  0  0  0  0  0  0  0  0  0
   -1.1485    0.7419   -1.9849 C   0  0  0  0  0  0  0  0  0  0  0  0
    2.1916   -1.0605   -1.1324 C   0  0  2  0  0  0  0  0  0  0  0  0
   -1.3538    2.2258    0.8605 C   0  0  2  0  0  0  0  0  0  0  0  0
    0.9154   -1.7486   -1.7138 C   0  0  0  0  0  0  0  0  0  0  0  0
   -2.1015   -1.0403    1.0953 C   0  0  2  0  0  0  0  0  0  0  0  0
    3.1101    1.0073    0.0364 C   0  0  2  0  0  0  0  0  0  0  0  0
    2.0633    1.2032   -2.2000 C   0  0  0  0  0  0  0  0  0  0  0  0
   -3.7825    1.8721    0.2677 C   0  0  0  0  0  0  0  0  0  0  0  0
    2.7777   -1.8316    0.0652 C   0  0  0  0  0  0  0  0  0  0  0  0
   -2.0151   -2.4527    0.4521 C   0  0  0  0  0  0  0  0  0  0  0  0
    3.2157    0.2229    1.3247 C   0  0  0  0  0  0  0  0  0  0  0  0
    3.1997   -1.2498    1.1998 C   0  0  0  0  0  0  0  0  0  0  0  0
    2.9153   -3.3259   -0.0755 C   0  0  0  0  0  0  0  0  0  0  0  0
    0.6148    0.2121    0.9104 H   0  0  0  0  0  0  0  0  0  0  0  0
    0.2389   -1.7062    0.2390 H   0  0  0  0  0  0  0  0  0  0  0  0
    0.7617    2.4544    1.1903 H   0  0  0  0  0  0  0  0  0  0  0  0
   -0.3830    1.2730   -2.5363 H   0  0  0  0  0  0  0  0  0  0  0  0
   -1.7129    0.1456   -2.7105 H   0  0  0  0  0  0  0  0  0  0  0  0
    2.9657   -1.1289   -1.9115 H   0  0  0  0  0  0  0  0  0  0  0  0
   -1.6563    3.2809    0.8806 H   0  0  0  0  0  0  0  0  0  0  0  0
    0.6660   -1.3408   -2.6994 H   0  0  0  0  0  0  0  0  0  0  0  0
    1.0721   -2.8192   -1.8824 H   0  0  0  0  0  0  0  0  0  0  0  0
   -1.2606   -0.9016    1.7810 H   0  0  0  0  0  0  0  0  0  0  0  0
    4.0585    0.8561   -0.4974 H   0  0  0  0  0  0  0  0  0  0  0  0
    1.8165    2.2643   -2.1583 H   0  0  0  0  0  0  0  0  0  0  0  0
    1.4735    0.7326   -2.9887 H   0  0  0  0  0  0  0  0  0  0  0  0
    3.1011    1.1504   -2.5552 H   0  0  0  0  0  0  0  0  0  0  0  0
   -4.4918    1.4716   -0.4638 H   0  0  0  0  0  0  0  0  0  0  0  0
   -3.8823    2.9618    0.1992 H   0  0  0  0  0  0  0  0  0  0  0  0
   -4.0934    1.5637    1.2699 H   0  0  0  0  0  0  0  0  0  0  0  0
   -3.9637   -0.6617   -0.3977 H   0  0  0  0  0  0  0  0  0  0  0  0
    0.0978    3.9869   -0.2837 H   0  0  0  0  0  0  0  0  0  0  0  0
   -0.8390    2.3172    2.7441 H   0  0  0  0  0  0  0  0  0  0  0  0
    3.5811   -1.8209    2.0389 H   0  0  0  0  0  0  0  0  0  0  0  0
   -3.2180   -1.5827    2.5905 H   0  0  0  0  0  0  0  0  0  0  0  0
    3.8392    2.6610    0.7506 H   0  0  0  0  0  0  0  0  0  0  0  0
    3.5385   -3.7588    0.7150 H   0  0  0  0  0  0  0  0  0  0  0  0
    3.3879   -3.5761   -1.0310 H   0  0  0  0  0  0  0  0  0  0  0  0
    1.9374   -3.8140   -0.0234 H   0  0  0  0  0  0  0  0  0  0  0  0
  1 14  1  0  0  0  0
  1 17  1  0  0  0  0
  2 15  1  0  0  0  0
  2 26  1  0  0  0  0
  3 12  1  0  0  0  0
  3 47  1  0  0  0  0
  4 16  1  0  0  0  0
  4 48  1  0  0  0  0
  5 19  1  0  0  0  0
  5 49  1  0  0  0  0
  6 21  1  0  0  0  0
  6 51  1  0  0  0  0
  7 22  1  0  0  0  0
  7 52  1  0  0  0  0
  8 26  2  0  0  0  0
  9 27  2  0  0  0  0
 10 11  1  0  0  0  0
 10 12  1  0  0  0  0
 10 15  1  0  0  0  0
 10 17  1  0  0  0  0
 11 13  1  0  0  0  0
 11 16  1  0  0  0  0
 11 30  1  0  0  0  0
 12 14  1  0  0  0  0
 12 21  1  0  0  0  0
 13 18  1  0  0  0  0
 13 22  1  0  0  0  0
 13 23  1  0  0  0  0
 14 19  1  0  0  0  0
 14 24  1  0  0  0  0
 15 20  1  0  0  0  0
 15 31  1  0  0  0  0
 16 19  1  0  0  0  0
 16 32  1  0  0  0  0
 17 33  1  0  0  0  0
 17 34  1  0  0  0  0
 18 20  1  0  0  0  0
 18 25  1  0  0  0  0
 18 35  1  0  0  0  0
 19 36  1  0  0  0  0
 20 37  1  0  0  0  0
 20 38  1  0  0  0  0
 21 26  1  0  0  0  0
 21 39  1  0  0  0  0
 22 27  1  0  0  0  0
 22 40  1  0  0  0  0
 23 41  1  0  0  0  0
 23 42  1  0  0  0  0
 23 43  1  0  0  0  0
 24 44  1  0  0  0  0
 24 45  1  0  0  0  0
 24 46  1  0  0  0  0
 25 28  2  0  0  0  0
 25 29  1  0  0  0  0
 27 28  1  0  0  0  0
 28 50  1  0  0  0  0
 29 53  1  0  0  0  0
 29 54  1  0  0  0  0
 29 55  1  0  0  0  0
M  END
> <PUBCHEM_COMPOUND_CID>
126969738

> <PUBCHEM_CONFORMER_RMSD>
0.6

> <PUBCHEM_CONFORMER_DIVERSEORDER>
1
2

> <PUBCHEM_MMFF94_PARTIAL_CHARGES>
29
1 -0.56
12 0.28
14 0.28
15 0.28
16 0.28
17 0.28
18 0.14
19 0.28
2 -0.43
21 0.34
22 0.34
25 -0.28
26 0.66
27 0.49
28 -0.14
29 0.14
3 -0.68
4 -0.68
47 0.4
48 0.4
49 0.4
5 -0.68
50 0.15
51 0.4
52 0.4
6 -0.68
7 -0.68
8 -0.57
9 -0.57

> <PUBCHEM_EFFECTIVE_ROTOR_COUNT>
1.6

> <PUBCHEM_PHARMACOPHORE_FEATURES>
17
1 1 acceptor
1 3 acceptor
1 3 donor
1 4 acceptor
1 4 donor
1 5 acceptor
1 5 donor
1 6 acceptor
1 6 donor
1 7 acceptor
1 7 donor
1 8 acceptor
1 9 acceptor
6 10 11 13 15 18 20 rings
6 13 18 22 25 27 28 rings
6 2 10 12 15 21 26 rings
8 1 10 11 12 14 16 17 19 rings

> <PUBCHEM_HEAVY_ATOM_COUNT>
29

> <PUBCHEM_ATOM_DEF_STEREO_COUNT>
10

> <PUBCHEM_ATOM_UDEF_STEREO_COUNT>
1

> <PUBCHEM_BOND_DEF_STEREO_COUNT>
0

> <PUBCHEM_BOND_UDEF_STEREO_COUNT>
0

> <PUBCHEM_ISOTOPIC_ATOM_COUNT>
0

> <PUBCHEM_COMPONENT_COUNT>
1

> <PUBCHEM_CACTVS_TAUTO_COUNT>
13

> <PUBCHEM_CONFORMER_ID>
0791678A00000001

> <PUBCHEM_MMFF94_ENERGY>
158.1657

> <PUBCHEM_FEATURE_SELFOVERLAP>
86.464

> <PUBCHEM_SHAPE_FINGERPRINT>
10366900 7 18129365043579789008
10863032 1 18410014329517262141
1100329 8 15382746157631692717
11640471 11 15554154892168880190
12011746 2 18054502513817470990
12156800 1 13061477773269011039
12422481 6 17972349286071246873
12553582 1 18046922733737107939
12633257 1 18188192227011744136
128993 33 17774178850023723016
13140716 1 18195539099109986153
13224815 77 18343021086089533556
13692114 37 18263649455927933321
14178342 30 18338230565630516456
14223421 5 18411422847030758722
14787075 74 18130495363208737973
15209289 33 17765436444098366574
15295992 7 18058169410306667155
16945 1 18265624362550675941
17349148 13 18340482279676588245
18981168 100 17489598856734401534
20691752 17 18266452105791244701
20905425 154 18194697066197381759
21033648 29 17974831901079294392
21421861 104 18045240463930031899
23184049 29 18260829327659413950
2334 1 18340499888810425757
23419403 2 16321659131267102886
23559900 14 18339928099914665998
2748010 2 18342185418555410045
2818148 4 17978550561015313438
35225 105 17680180449777118987
3797600 57 17974582595401739012
392239 28 17980751955404153872
394222 165 16810111863643615348
4340502 62 18194685865851296201
484985 159 16016857835438513514
7097593 13 18187072924106485970
9981440 41 17699810104166850570

> <PUBCHEM_SHAPE_MULTIPOLES>
543.98
5.77
3.52
1.87
0.82
1.36
-0.11
0.43
-1.9
-0.33
-0.35
0.4
-0.38
0.53

> <PUBCHEM_SHAPE_SELFOVERLAP>
1205.413

> <PUBCHEM_SHAPE_VOLUME>
281.4

> <PUBCHEM_COORDINATE_TYPE>
2
5
10

$$$$
