126968801
  -OEChem-03292013293D

 71 74  0     1  0  0  0  0  0999 V2000
   -1.9191   -1.4584   -0.2383 F   0  0  0  0  0  0  0  0  0  0  0  0
    2.4250   -0.2825    0.1887 O   0  0  0  0  0  0  0  0  0  0  0  0
   -1.6562   -0.5958   -2.7830 O   0  0  0  0  0  0  0  0  0  0  0  0
    3.6356    2.7074    0.0254 O   0  0  0  0  0  0  0  0  0  0  0  0
    4.4881    1.6075   -2.3544 O   0  0  0  0  0  0  0  0  0  0  0  0
    4.5895    0.4683    0.4621 O   0  0  0  0  0  0  0  0  0  0  0  0
   -6.6059   -2.6078    1.1363 O   0  0  0  0  0  0  0  0  0  0  0  0
    0.4866    1.2026   -0.2515 C   0  0  1  0  0  0  0  0  0  0  0  0
   -0.2831    0.6610    0.9695 C   0  0  2  0  0  0  0  0  0  0  0  0
   -1.8133    0.5816    0.8638 C   0  0  2  0  0  0  0  0  0  0  0  0
   -2.2509   -0.1317   -0.4634 C   0  0  1  0  0  0  0  0  0  0  0  0
    1.9425    1.0530    0.2874 C   0  0  1  0  0  0  0  0  0  0  0  0
    0.3549    1.3681    2.1647 C   0  0  0  0  0  0  0  0  0  0  0  0
    0.1166    0.3122   -1.4473 C   0  0  0  0  0  0  0  0  0  0  0  0
    1.8420    1.5535    1.7590 C   0  0  1  0  0  0  0  0  0  0  0  0
   -1.4016    0.2957   -1.6969 C   0  0  1  0  0  0  0  0  0  0  0  0
   -3.8236   -0.0772   -0.7016 C   0  0  1  0  0  0  0  0  0  0  0  0
   -2.6161    1.8553    1.1212 C   0  0  0  0  0  0  0  0  0  0  0  0
    0.1897    2.6870   -0.5815 C   0  0  0  0  0  0  0  0  0  0  0  0
   -4.1055    1.5255    1.3086 C   0  0  0  0  0  0  0  0  0  0  0  0
   -4.5149    0.2360    0.6268 C   0  0  0  0  0  0  0  0  0  0  0  0
    2.9759    1.8075   -0.4921 C   0  0  0  0  0  0  0  0  0  0  0  0
    2.7926    0.8753    2.7407 C   0  0  0  0  0  0  0  0  0  0  0  0
   -4.2689    1.0129   -1.7077 C   0  0  0  0  0  0  0  0  0  0  0  0
   -4.3049   -1.3985   -1.2835 C   0  0  0  0  0  0  0  0  0  0  0  0
   -5.4011   -0.5832    1.2144 C   0  0  0  0  0  0  0  0  0  0  0  0
    3.1550    1.3990   -1.9389 C   0  0  0  0  0  0  0  0  0  0  0  0
   -5.1934   -2.2137   -0.7067 C   0  0  0  0  0  0  0  0  0  0  0  0
    3.7821   -0.4352    0.2940 C   0  0  0  0  0  0  0  0  0  0  0  0
   -5.7980   -1.8630    0.5919 C   0  0  0  0  0  0  0  0  0  0  0  0
    4.1274   -1.9017    0.1709 C   0  0  0  0  0  0  0  0  0  0  0  0
    5.6333   -2.1443    0.2568 C   0  0  0  0  0  0  0  0  0  0  0  0
    5.9625   -3.6340    0.1704 C   0  0  0  0  0  0  0  0  0  0  0  0
    7.4573   -3.8822    0.2944 C   0  0  0  0  0  0  0  0  0  0  0  0
    0.0177   -0.3961    1.0814 H   0  0  0  0  0  0  0  0  0  0  0  0
   -2.0857   -0.1022    1.6850 H   0  0  0  0  0  0  0  0  0  0  0  0
   -0.0938    2.3497    2.3470 H   0  0  0  0  0  0  0  0  0  0  0  0
    0.2353    0.7784    3.0799 H   0  0  0  0  0  0  0  0  0  0  0  0
    0.4575   -0.7204   -1.2982 H   0  0  0  0  0  0  0  0  0  0  0  0
    0.6109    0.6516   -2.3634 H   0  0  0  0  0  0  0  0  0  0  0  0
    2.0378    2.6325    1.8174 H   0  0  0  0  0  0  0  0  0  0  0  0
   -1.7085    1.2899   -2.0320 H   0  0  0  0  0  0  0  0  0  0  0  0
   -2.5146    2.5622    0.2955 H   0  0  0  0  0  0  0  0  0  0  0  0
   -2.2667    2.3767    2.0180 H   0  0  0  0  0  0  0  0  0  0  0  0
    0.3975    3.3565    0.2584 H   0  0  0  0  0  0  0  0  0  0  0  0
   -0.8463    2.8591   -0.8716 H   0  0  0  0  0  0  0  0  0  0  0  0
    0.7922    3.0347   -1.4264 H   0  0  0  0  0  0  0  0  0  0  0  0
   -4.7112    2.3566    0.9281 H   0  0  0  0  0  0  0  0  0  0  0  0
   -4.3107    1.4589    2.3850 H   0  0  0  0  0  0  0  0  0  0  0  0
    3.8333    1.1578    2.5706 H   0  0  0  0  0  0  0  0  0  0  0  0
    2.6919   -0.2141    2.7404 H   0  0  0  0  0  0  0  0  0  0  0  0
    2.5598    1.2068    3.7602 H   0  0  0  0  0  0  0  0  0  0  0  0
   -3.8783    2.0035   -1.4553 H   0  0  0  0  0  0  0  0  0  0  0  0
   -5.3632    1.0991   -1.7416 H   0  0  0  0  0  0  0  0  0  0  0  0
   -3.9448    0.7871   -2.7304 H   0  0  0  0  0  0  0  0  0  0  0  0
   -3.8987   -1.7049   -2.2444 H   0  0  0  0  0  0  0  0  0  0  0  0
   -1.1598   -0.2712   -3.5535 H   0  0  0  0  0  0  0  0  0  0  0  0
   -5.8595   -0.3386    2.1668 H   0  0  0  0  0  0  0  0  0  0  0  0
    2.5034    2.0204   -2.5586 H   0  0  0  0  0  0  0  0  0  0  0  0
    2.9172    0.3482   -2.1127 H   0  0  0  0  0  0  0  0  0  0  0  0
   -5.4929   -3.1439   -1.1754 H   0  0  0  0  0  0  0  0  0  0  0  0
    3.6182   -2.4382    0.9794 H   0  0  0  0  0  0  0  0  0  0  0  0
    3.7493   -2.2627   -0.7921 H   0  0  0  0  0  0  0  0  0  0  0  0
    4.5228    1.4361   -3.3109 H   0  0  0  0  0  0  0  0  0  0  0  0
    6.0185   -1.7360    1.1996 H   0  0  0  0  0  0  0  0  0  0  0  0
    6.1417   -1.6035   -0.5512 H   0  0  0  0  0  0  0  0  0  0  0  0
    5.6070   -4.0388   -0.7842 H   0  0  0  0  0  0  0  0  0  0  0  0
    5.4422   -4.1776    0.9676 H   0  0  0  0  0  0  0  0  0  0  0  0
    7.6703   -4.9538    0.2284 H   0  0  0  0  0  0  0  0  0  0  0  0
    8.0065   -3.3766   -0.5063 H   0  0  0  0  0  0  0  0  0  0  0  0
    7.8372   -3.5189    1.2546 H   0  0  0  0  0  0  0  0  0  0  0  0
  1 11  1  0  0  0  0
  2 12  1  0  0  0  0
  2 29  1  0  0  0  0
  3 16  1  0  0  0  0
  3 57  1  0  0  0  0
  4 22  2  0  0  0  0
  5 27  1  0  0  0  0
  5 64  1  0  0  0  0
  6 29  2  0  0  0  0
  7 30  2  0  0  0  0
  8  9  1  0  0  0  0
  8 12  1  0  0  0  0
  8 14  1  0  0  0  0
  8 19  1  0  0  0  0
  9 10  1  0  0  0  0
  9 13  1  0  0  0  0
  9 35  1  0  0  0  0
 10 11  1  0  0  0  0
 10 18  1  0  0  0  0
 10 36  1  0  0  0  0
 11 16  1  0  0  0  0
 11 17  1  0  0  0  0
 12 15  1  0  0  0  0
 12 22  1  0  0  0  0
 13 15  1  0  0  0  0
 13 37  1  0  0  0  0
 13 38  1  0  0  0  0
 14 16  1  0  0  0  0
 14 39  1  0  0  0  0
 14 40  1  0  0  0  0
 15 23  1  0  0  0  0
 15 41  1  0  0  0  0
 16 42  1  0  0  0  0
 17 21  1  0  0  0  0
 17 24  1  0  0  0  0
 17 25  1  0  0  0  0
 18 20  1  0  0  0  0
 18 43  1  0  0  0  0
 18 44  1  0  0  0  0
 19 45  1  0  0  0  0
 19 46  1  0  0  0  0
 19 47  1  0  0  0  0
 20 21  1  0  0  0  0
 20 48  1  0  0  0  0
 20 49  1  0  0  0  0
 21 26  2  0  0  0  0
 22 27  1  0  0  0  0
 23 50  1  0  0  0  0
 23 51  1  0  0  0  0
 23 52  1  0  0  0  0
 24 53  1  0  0  0  0
 24 54  1  0  0  0  0
 24 55  1  0  0  0  0
 25 28  2  0  0  0  0
 25 56  1  0  0  0  0
 26 30  1  0  0  0  0
 26 58  1  0  0  0  0
 27 59  1  0  0  0  0
 27 60  1  0  0  0  0
 28 30  1  0  0  0  0
 28 61  1  0  0  0  0
 29 31  1  0  0  0  0
 31 32  1  0  0  0  0
 31 62  1  0  0  0  0
 31 63  1  0  0  0  0
 32 33  1  0  0  0  0
 32 65  1  0  0  0  0
 32 66  1  0  0  0  0
 33 34  1  0  0  0  0
 33 67  1  0  0  0  0
 33 68  1  0  0  0  0
 34 69  1  0  0  0  0
 34 70  1  0  0  0  0
 34 71  1  0  0  0  0
M  END
> <PUBCHEM_COMPOUND_CID>
126968801

> <PUBCHEM_CONFORMER_RMSD>
1

> <PUBCHEM_CONFORMER_DIVERSEORDER>
1
12
14
5
3
8
9
11
6
10
4
13
7
2

> <PUBCHEM_MMFF94_PARTIAL_CHARGES>
26
1 -0.34
11 0.34
12 0.34
16 0.28
17 0.28
2 -0.43
20 0.14
21 -0.28
22 0.45
25 -0.29
26 -0.14
27 0.34
28 -0.14
29 0.66
3 -0.68
30 0.54
31 0.06
4 -0.57
5 -0.68
56 0.15
57 0.4
58 0.15
6 -0.57
61 0.15
64 0.4
7 -0.57

> <PUBCHEM_EFFECTIVE_ROTOR_COUNT>
8.4

> <PUBCHEM_PHARMACOPHORE_FEATURES>
12
1 3 acceptor
1 3 donor
1 34 hydrophobe
1 4 acceptor
1 5 acceptor
1 5 donor
1 6 acceptor
1 7 acceptor
5 8 9 12 13 15 rings
6 10 11 17 18 20 21 rings
6 17 21 25 26 28 30 rings
6 8 9 10 11 14 16 rings

> <PUBCHEM_HEAVY_ATOM_COUNT>
34

> <PUBCHEM_ATOM_DEF_STEREO_COUNT>
6

> <PUBCHEM_ATOM_UDEF_STEREO_COUNT>
2

> <PUBCHEM_BOND_DEF_STEREO_COUNT>
0

> <PUBCHEM_BOND_UDEF_STEREO_COUNT>
0

> <PUBCHEM_ISOTOPIC_ATOM_COUNT>
0

> <PUBCHEM_COMPONENT_COUNT>
1

> <PUBCHEM_CACTVS_TAUTO_COUNT>
30

> <PUBCHEM_CONFORMER_ID>
079163E100000001

> <PUBCHEM_MMFF94_ENERGY>
132.1597

> <PUBCHEM_FEATURE_SELFOVERLAP>
61.038

> <PUBCHEM_SHAPE_FINGERPRINT>
1100329 8 15617552556680757605
117089 54 18335148600131617451
12107183 9 18126291839539263289
12166972 35 18335704910576560974
12422481 6 17131558249683623943
12633257 1 16415473895755291453
13009979 54 18342742883809733688
13073987 5 18343584066102737369
13140716 1 16627460682794318549
13224815 77 17775005756088586453
13383668 262 18124902250305759198
13533116 47 18336550507299249506
13583140 156 18129646587323773949
1361 4 18263369251217829699
13782708 43 18040152915895784490
14068700 675 18340486639590847634
14251764 30 18334857177936256802
15064981 113 13263548860261554954
15475509 35 18272649082116569074
15575132 122 11025809673246967346
15799311 1 18266474259295984387
16728300 4 18130221545731877383
17349148 13 18201726205922262933
17492 89 18410292544982891441
1813 80 18260821614024848376
19303781 99 18335689525825008270
19319366 153 17984136247651638524
20775530 9 18268694036224114958
21033648 29 14836410194368228971
21344244 181 17676213506318977027
21421861 104 17489585697329029468
22393880 68 17530952584498492729
23522609 53 18052574111692783073
23559900 14 18410281506590048872
23569914 152 16014887566320516363
2838139 119 9367358032452122491
34797466 226 16660927802504287573
3886686 26 16836587665591005990
392239 28 15769483266405976619
46194498 28 17603581959195732918
474113 269 18059840776326227991
5104073 3 17561083622430876113
70251023 43 18113618954780684000
7970288 3 18337388215434105554
9896288 288 16913696489303877170

> <PUBCHEM_SHAPE_MULTIPOLES>
657.21
15.09
3.37
2.11
5.88
2.42
0.31
17.1
-1.91
4.51
-0.35
-0.14
-0.91
-0.88

> <PUBCHEM_SHAPE_SELFOVERLAP>
1411.624

> <PUBCHEM_SHAPE_VOLUME>
359.6

> <PUBCHEM_COORDINATE_TYPE>
2
5
10

$$$$
