126969195
  -OEChem-03292013293D

 47 50  0     1  0  0  0  0  0999 V2000
   -1.7139    2.0514   -1.4174 O   0  0  0  0  0  0  0  0  0  0  0  0
    0.6361    1.5347    1.3181 O   0  0  0  0  0  0  0  0  0  0  0  0
   -3.0243   -0.4681   -0.2901 O   0  0  0  0  0  0  0  0  0  0  0  0
   -2.9975    1.4754    1.3899 O   0  0  0  0  0  0  0  0  0  0  0  0
    2.1231    1.2301   -1.3317 O   0  0  0  0  0  0  0  0  0  0  0  0
    1.1244   -2.6282   -1.2069 O   0  0  0  0  0  0  0  0  0  0  0  0
    4.3079   -0.8903   -1.1079 O   0  0  0  0  0  0  0  0  0  0  0  0
   -3.7718   -1.8441    1.4084 O   0  0  0  0  0  0  0  0  0  0  0  0
   -0.5991   -0.0691   -0.7052 C   0  0  1  0  0  0  0  0  0  0  0  0
   -0.6390    1.4475   -0.6685 C   0  0  2  0  0  0  0  0  0  0  0  0
    0.8324   -0.5211   -0.1190 C   0  0  2  0  0  0  0  0  0  0  0  0
   -0.6670    1.7965    0.7830 C   0  0  1  0  0  0  0  0  0  0  0  0
   -1.7512   -0.3628    0.3436 C   0  0  1  0  0  0  0  0  0  0  0  0
   -0.3883    2.4239   -1.7974 C   0  0  0  0  0  0  0  0  0  0  0  0
   -1.7305    0.8308    1.3446 C   0  0  2  0  0  0  0  0  0  0  0  0
    1.0583    0.1601    1.2752 C   0  0  1  0  0  0  0  0  0  0  0  0
   -0.8974   -0.6680   -2.0855 C   0  0  0  0  0  0  0  0  0  0  0  0
    2.0263   -0.1577   -1.0560 C   0  0  2  0  0  0  0  0  0  0  0  0
    0.8752   -2.0699    0.0587 C   0  0  0  0  0  0  0  0  0  0  0  0
    2.4839    0.1330    1.7582 C   0  0  0  0  0  0  0  0  0  0  0  0
    3.3732   -0.4683   -0.4278 C   0  0  0  0  0  0  0  0  0  0  0  0
    3.5604   -0.1803    1.0233 C   0  0  0  0  0  0  0  0  0  0  0  0
   -3.9439   -1.2445    0.3557 C   0  0  0  0  0  0  0  0  0  0  0  0
    4.9484   -0.2479    1.5756 C   0  0  0  0  0  0  0  0  0  0  0  0
   -5.2257   -1.2631   -0.4208 C   0  0  0  0  0  0  0  0  0  0  0  0
   -0.9111    2.8485    0.9617 H   0  0  0  0  0  0  0  0  0  0  0  0
   -1.5413   -1.2866    0.8852 H   0  0  0  0  0  0  0  0  0  0  0  0
   -0.0546    3.4224   -1.5451 H   0  0  0  0  0  0  0  0  0  0  0  0
   -0.0237    2.0548   -2.7467 H   0  0  0  0  0  0  0  0  0  0  0  0
   -1.4910    0.4955    2.3587 H   0  0  0  0  0  0  0  0  0  0  0  0
    0.4855   -0.3890    2.0330 H   0  0  0  0  0  0  0  0  0  0  0  0
   -0.1003   -0.4618   -2.8050 H   0  0  0  0  0  0  0  0  0  0  0  0
   -1.8120   -0.2498   -2.5210 H   0  0  0  0  0  0  0  0  0  0  0  0
   -1.0474   -1.7501   -2.0305 H   0  0  0  0  0  0  0  0  0  0  0  0
    1.9662   -0.6668   -2.0225 H   0  0  0  0  0  0  0  0  0  0  0  0
   -0.0437   -2.4993    0.4581 H   0  0  0  0  0  0  0  0  0  0  0  0
    1.6861   -2.3812    0.7253 H   0  0  0  0  0  0  0  0  0  0  0  0
    2.6238    0.3682    2.8118 H   0  0  0  0  0  0  0  0  0  0  0  0
   -2.9194    2.2290    1.9993 H   0  0  0  0  0  0  0  0  0  0  0  0
    2.7880    1.3509   -2.0313 H   0  0  0  0  0  0  0  0  0  0  0  0
    1.1650   -3.5933   -1.0965 H   0  0  0  0  0  0  0  0  0  0  0  0
    5.3560   -1.2578    1.4631 H   0  0  0  0  0  0  0  0  0  0  0  0
    4.9782    0.0059    2.6404 H   0  0  0  0  0  0  0  0  0  0  0  0
    5.6039    0.4532    1.0487 H   0  0  0  0  0  0  0  0  0  0  0  0
   -5.0508   -1.6849   -1.4138 H   0  0  0  0  0  0  0  0  0  0  0  0
   -5.9564   -1.8884    0.1000 H   0  0  0  0  0  0  0  0  0  0  0  0
   -5.6262   -0.2492   -0.4978 H   0  0  0  0  0  0  0  0  0  0  0  0
  1 10  1  0  0  0  0
  1 14  1  0  0  0  0
  2 12  1  0  0  0  0
  2 16  1  0  0  0  0
  3 13  1  0  0  0  0
  3 23  1  0  0  0  0
  4 15  1  0  0  0  0
  4 39  1  0  0  0  0
  5 18  1  0  0  0  0
  5 40  1  0  0  0  0
  6 19  1  0  0  0  0
  6 41  1  0  0  0  0
  7 21  2  0  0  0  0
  8 23  2  0  0  0  0
  9 10  1  0  0  0  0
  9 11  1  0  0  0  0
  9 13  1  0  0  0  0
  9 17  1  0  0  0  0
 10 12  1  0  0  0  0
 10 14  1  0  0  0  0
 11 16  1  0  0  0  0
 11 18  1  0  0  0  0
 11 19  1  0  0  0  0
 12 15  1  0  0  0  0
 12 26  1  0  0  0  0
 13 15  1  0  0  0  0
 13 27  1  0  0  0  0
 14 28  1  0  0  0  0
 14 29  1  0  0  0  0
 15 30  1  0  0  0  0
 16 20  1  0  0  0  0
 16 31  1  0  0  0  0
 17 32  1  0  0  0  0
 17 33  1  0  0  0  0
 17 34  1  0  0  0  0
 18 21  1  0  0  0  0
 18 35  1  0  0  0  0
 19 36  1  0  0  0  0
 19 37  1  0  0  0  0
 20 22  2  0  0  0  0
 20 38  1  0  0  0  0
 21 22  1  0  0  0  0
 22 24  1  0  0  0  0
 23 25  1  0  0  0  0
 24 42  1  0  0  0  0
 24 43  1  0  0  0  0
 24 44  1  0  0  0  0
 25 45  1  0  0  0  0
 25 46  1  0  0  0  0
 25 47  1  0  0  0  0
M  END
> <PUBCHEM_COMPOUND_CID>
126969195

> <PUBCHEM_CONFORMER_RMSD>
0.8

> <PUBCHEM_CONFORMER_DIVERSEORDER>
1
2
3

> <PUBCHEM_MMFF94_PARTIAL_CHARGES>
29
1 -0.3
10 -0.04
12 0.38
13 0.28
14 -0.05
15 0.28
16 0.42
18 0.34
19 0.28
2 -0.56
20 -0.29
21 0.49
22 -0.12
23 0.66
24 0.14
25 0.06
28 0.1
29 0.1
3 -0.43
38 0.15
39 0.4
4 -0.68
40 0.4
41 0.4
5 -0.68
6 -0.68
7 -0.57
8 -0.57
9 0.09

> <PUBCHEM_EFFECTIVE_ROTOR_COUNT>
4.2

> <PUBCHEM_PHARMACOPHORE_FEATURES>
12
1 1 acceptor
1 2 acceptor
1 4 acceptor
1 4 donor
1 5 acceptor
1 5 donor
1 6 acceptor
1 6 donor
1 7 acceptor
1 8 acceptor
6 11 16 18 20 21 22 rings
8 2 9 10 11 12 13 15 16 rings

> <PUBCHEM_HEAVY_ATOM_COUNT>
25

> <PUBCHEM_ATOM_DEF_STEREO_COUNT>
8

> <PUBCHEM_ATOM_UDEF_STEREO_COUNT>
0

> <PUBCHEM_BOND_DEF_STEREO_COUNT>
0

> <PUBCHEM_BOND_UDEF_STEREO_COUNT>
0

> <PUBCHEM_ISOTOPIC_ATOM_COUNT>
0

> <PUBCHEM_COMPONENT_COUNT>
1

> <PUBCHEM_CACTVS_TAUTO_COUNT>
8

> <PUBCHEM_CONFORMER_ID>
0791656B00000001

> <PUBCHEM_MMFF94_ENERGY>
96.9887

> <PUBCHEM_FEATURE_SELFOVERLAP>
60.91

> <PUBCHEM_SHAPE_FINGERPRINT>
10863032 1 17559404551973787083
10948715 1 16271365171642217472
11578080 2 18051140198100351412
12011746 2 17917712383748251855
12403814 3 18338504318176965924
12507560 40 16917071040280321601
12553582 1 17822587044054021731
12788726 201 17676771951025666909
12892183 10 15913336813896164019
13134695 92 17677331761526312957
13140716 1 17913195739904738027
13224815 77 18343014454876345226
13544653 18 18343023311262608899
13583140 156 18050530077243253152
14178342 30 18268713809751853472
14223421 5 18128818538602807638
14787075 74 17274533364180862290
14863182 85 17916041203426207359
15142383 8 17749393642595703697
16945 1 18268162975748407481
17357779 13 18339910585349061455
17492 54 17897750857266979996
17980427 23 18343306989779445785
1813 80 18336545005551651517
18222031 100 18335984263311815919
19010151 120 18040436607027639961
192875 21 16732979817316589112
19862831 5 15502370127899299513
200 152 16732979817057944610
20600515 1 18335150825050315367
20626108 58 18044365261412176971
20691752 17 18043271075132410675
21069387 34 15647053741954123210
21330990 113 18342742888099140171
23402539 116 17676478424101087385
23419403 2 16120998392310229621
23557571 272 18261662688743060137
23559900 14 18127705828566755718
2748010 2 17631169693130425976
3286 77 17846503625339799226
465052 167 18187085108796985267
5104073 3 17489307421887177586
54040823 5 17605002592311044883
5845 1 17750813059770970149
81228 2 18116442444774589361

> <PUBCHEM_SHAPE_MULTIPOLES>
467.53
7.43
2.17
1.88
0.73
0.35
0.11
-3.78
-1.94
1.16
0.62
-0.46
0.34
0.31

> <PUBCHEM_SHAPE_SELFOVERLAP>
1017.331

> <PUBCHEM_SHAPE_VOLUME>
248.3

> <PUBCHEM_COORDINATE_TYPE>
2
5
10

$$$$
