126968862
  -OEChem-03292013293D

 53 54  0     1  0  0  0  0  0999 V2000
   -2.7492   -0.0186   -0.4378 O   0  0  0  0  0  0  0  0  0  0  0  0
   -1.4180    1.4530    0.8591 O   0  0  0  0  0  0  0  0  0  0  0  0
   -0.3017   -1.0607    2.0193 O   0  0  0  0  0  0  0  0  0  0  0  0
   -3.9412   -0.8245    2.1239 O   0  0  0  0  0  0  0  0  0  0  0  0
   -2.9708   -2.8197    0.2731 O   0  0  0  0  0  0  0  0  0  0  0  0
   -1.0476   -2.4137   -2.4086 O   0  0  0  0  0  0  0  0  0  0  0  0
   -2.9634   -1.2244   -2.7417 O   0  0  0  0  0  0  0  0  0  0  0  0
   -2.1381    2.6341   -0.9822 O   0  0  0  0  0  0  0  0  0  0  0  0
   -1.6393   -1.4952    1.7859 C   0  0  1  0  0  0  0  0  0  0  0  0
   -2.6123   -0.3234    1.9886 C   0  0  1  0  0  0  0  0  0  0  0  0
   -1.7480   -2.0892    0.3763 C   0  0  2  0  0  0  0  0  0  0  0  0
   -2.6016    0.6619    0.8130 C   0  0  2  0  0  0  0  0  0  0  0  0
   -1.7319   -0.9831   -0.6790 C   0  0  1  0  0  0  0  0  0  0  0  0
   -2.0071   -1.5282   -2.0444 C   0  0  0  0  0  0  0  0  0  0  0  0
    0.0131    3.1539    0.0518 C   0  0  1  0  0  0  0  0  0  0  0  0
   -1.3097    2.4155   -0.1076 C   0  0  0  0  0  0  0  0  0  0  0  0
    1.1981    2.2027    0.0180 C   0  0  0  0  0  0  0  0  0  0  0  0
    4.5298   -0.4842   -0.0755 C   0  0  0  0  0  0  0  0  0  0  0  0
    4.2022   -1.9274    0.3806 C   0  0  0  0  0  0  0  0  0  0  0  0
    3.3695    0.4523   -0.0428 C   0  0  0  0  0  0  0  0  0  0  0  0
    0.1385    4.2717   -0.9871 C   0  0  0  0  0  0  0  0  0  0  0  0
    1.4684    1.4665   -1.1356 C   0  0  0  0  0  0  0  0  0  0  0  0
    2.0134    2.0635    1.1412 C   0  0  0  0  0  0  0  0  0  0  0  0
    2.5540    0.5913   -1.1659 C   0  0  0  0  0  0  0  0  0  0  0  0
    3.0990    1.1883    1.1108 C   0  0  0  0  0  0  0  0  0  0  0  0
    3.1283   -2.5714   -0.5000 C   0  0  0  0  0  0  0  0  0  0  0  0
    5.4658   -2.7909    0.3665 C   0  0  0  0  0  0  0  0  0  0  0  0
   -1.8676   -2.2706    2.5275 H   0  0  0  0  0  0  0  0  0  0  0  0
   -2.3524    0.2039    2.9144 H   0  0  0  0  0  0  0  0  0  0  0  0
   -0.9266   -2.7915    0.1915 H   0  0  0  0  0  0  0  0  0  0  0  0
   -3.4648    1.3327    0.9083 H   0  0  0  0  0  0  0  0  0  0  0  0
   -0.7608   -0.4782   -0.7137 H   0  0  0  0  0  0  0  0  0  0  0  0
    0.2826   -1.8290    1.9022 H   0  0  0  0  0  0  0  0  0  0  0  0
   -4.5211   -0.0714    2.3291 H   0  0  0  0  0  0  0  0  0  0  0  0
   -0.0347    3.6434    1.0344 H   0  0  0  0  0  0  0  0  0  0  0  0
   -2.9421   -3.5333    0.9329 H   0  0  0  0  0  0  0  0  0  0  0  0
    4.9512   -0.5051   -1.0900 H   0  0  0  0  0  0  0  0  0  0  0  0
    5.3333   -0.0811    0.5560 H   0  0  0  0  0  0  0  0  0  0  0  0
    3.8233   -1.8972    1.4104 H   0  0  0  0  0  0  0  0  0  0  0  0
    0.1101    3.8869   -2.0126 H   0  0  0  0  0  0  0  0  0  0  0  0
   -0.6856    4.9870   -0.8863 H   0  0  0  0  0  0  0  0  0  0  0  0
    1.0783    4.8204   -0.8604 H   0  0  0  0  0  0  0  0  0  0  0  0
    0.8405    1.5571   -2.0177 H   0  0  0  0  0  0  0  0  0  0  0  0
    1.8140    2.6288    2.0475 H   0  0  0  0  0  0  0  0  0  0  0  0
    2.7534    0.0264   -2.0727 H   0  0  0  0  0  0  0  0  0  0  0  0
    3.7249    1.0866    1.9934 H   0  0  0  0  0  0  0  0  0  0  0  0
   -1.2107   -2.7841   -3.3021 H   0  0  0  0  0  0  0  0  0  0  0  0
    6.2355   -2.3620    1.0168 H   0  0  0  0  0  0  0  0  0  0  0  0
    5.2510   -3.8026    0.7267 H   0  0  0  0  0  0  0  0  0  0  0  0
    5.8810   -2.8710   -0.6439 H   0  0  0  0  0  0  0  0  0  0  0  0
    2.9864   -3.6231   -0.2268 H   0  0  0  0  0  0  0  0  0  0  0  0
    2.1576   -2.0817   -0.3763 H   0  0  0  0  0  0  0  0  0  0  0  0
    3.4050   -2.5364   -1.5590 H   0  0  0  0  0  0  0  0  0  0  0  0
  1 12  1  0  0  0  0
  1 13  1  0  0  0  0
  2 12  1  0  0  0  0
  2 16  1  0  0  0  0
  3  9  1  0  0  0  0
  3 33  1  0  0  0  0
  4 10  1  0  0  0  0
  4 34  1  0  0  0  0
  5 11  1  0  0  0  0
  5 36  1  0  0  0  0
  6 14  1  0  0  0  0
  6 47  1  0  0  0  0
  7 14  2  0  0  0  0
  8 16  2  0  0  0  0
  9 10  1  0  0  0  0
  9 11  1  0  0  0  0
  9 28  1  0  0  0  0
 10 12  1  0  0  0  0
 10 29  1  0  0  0  0
 11 13  1  0  0  0  0
 11 30  1  0  0  0  0
 12 31  1  0  0  0  0
 13 14  1  0  0  0  0
 13 32  1  0  0  0  0
 15 16  1  0  0  0  0
 15 17  1  0  0  0  0
 15 21  1  0  0  0  0
 15 35  1  0  0  0  0
 17 22  2  0  0  0  0
 17 23  1  0  0  0  0
 18 19  1  0  0  0  0
 18 20  1  0  0  0  0
 18 37  1  0  0  0  0
 18 38  1  0  0  0  0
 19 26  1  0  0  0  0
 19 27  1  0  0  0  0
 19 39  1  0  0  0  0
 20 24  2  0  0  0  0
 20 25  1  0  0  0  0
 21 40  1  0  0  0  0
 21 41  1  0  0  0  0
 21 42  1  0  0  0  0
 22 24  1  0  0  0  0
 22 43  1  0  0  0  0
 23 25  2  0  0  0  0
 23 44  1  0  0  0  0
 24 45  1  0  0  0  0
 25 46  1  0  0  0  0
 26 51  1  0  0  0  0
 26 52  1  0  0  0  0
 26 53  1  0  0  0  0
 27 48  1  0  0  0  0
 27 49  1  0  0  0  0
 27 50  1  0  0  0  0
M  END
> <PUBCHEM_COMPOUND_CID>
126968862

> <PUBCHEM_CONFORMER_RMSD>
1.2

> <PUBCHEM_CONFORMER_DIVERSEORDER>
1
13
8
87
58
12
47
89
26
50
35
81
18
73
64
19
84
4
40
55
85
82
59
30
83
46
15
37
21
76
28
70
20
65
52
60
10
39
23
77
57
29
42
48
67
79
36
68
54
88
90
72
49
61
94
75
69
2
62
32
5
51
3
34
41
66
9
78
93
33
53
16
14
11
71
27
86
31
44
17
43
56
92
45
80
24
91
74
63
38
6
25
7
22

> <PUBCHEM_MMFF94_PARTIAL_CHARGES>
31
1 -0.56
10 0.28
11 0.28
12 0.56
13 0.34
14 0.66
15 0.2
16 0.66
17 -0.14
18 0.14
2 -0.43
20 -0.14
22 -0.15
23 -0.15
24 -0.15
25 -0.15
3 -0.68
33 0.4
34 0.4
36 0.4
4 -0.68
43 0.15
44 0.15
45 0.15
46 0.15
47 0.5
5 -0.68
6 -0.65
7 -0.57
8 -0.57
9 0.28

> <PUBCHEM_EFFECTIVE_ROTOR_COUNT>
8.2

> <PUBCHEM_PHARMACOPHORE_FEATURES>
15
1 1 acceptor
1 21 hydrophobe
1 3 acceptor
1 3 donor
1 4 acceptor
1 4 donor
1 5 acceptor
1 5 donor
1 6 acceptor
1 7 acceptor
1 8 acceptor
3 19 26 27 hydrophobe
3 6 7 14 anion
6 1 9 10 11 12 13 rings
6 17 20 22 23 24 25 rings

> <PUBCHEM_HEAVY_ATOM_COUNT>
27

> <PUBCHEM_ATOM_DEF_STEREO_COUNT>
4

> <PUBCHEM_ATOM_UDEF_STEREO_COUNT>
2

> <PUBCHEM_BOND_DEF_STEREO_COUNT>
0

> <PUBCHEM_BOND_UDEF_STEREO_COUNT>
0

> <PUBCHEM_ISOTOPIC_ATOM_COUNT>
0

> <PUBCHEM_COMPONENT_COUNT>
1

> <PUBCHEM_CACTVS_TAUTO_COUNT>
7

> <PUBCHEM_CONFORMER_ID>
0791641E00000001

> <PUBCHEM_MMFF94_ENERGY>
60.3431

> <PUBCHEM_FEATURE_SELFOVERLAP>
76.203

> <PUBCHEM_SHAPE_FINGERPRINT>
10764073 3 18116456781765606121
107951 10 17537161350245495149
11578080 2 17487871536926005664
12156800 1 17117418435492351838
12403259 327 16773527649600801313
12422481 6 17839209336425916241
12539773 59 17774177814773587971
12553582 1 18336552719655942628
12633257 1 17418380181636683896
14114206 34 17968369036260666668
14659021 117 18264190466703356762
15210252 30 11847684152500719781
19777482 4 18058435681362764189
19930381 70 17904200682538464531
20775530 9 17486194914758758974
20905425 154 17471298353268429325
23559900 14 18336543795278709504
23728640 28 18197774406032970454
238 59 16893393345049238509
445580 42 18116710704121190578
484985 159 17532373050332082058
6438754 60 18054478508976644471
7097593 13 18198635516868855776

> <PUBCHEM_SHAPE_MULTIPOLES>
508.69
7.66
4.41
2.06
8.49
2.52
-0.47
-6.35
1.21
0.32
-0.99
-2.16
-1.1
-0.02

> <PUBCHEM_SHAPE_SELFOVERLAP>
1058.356

> <PUBCHEM_SHAPE_VOLUME>
285.8

> <PUBCHEM_COORDINATE_TYPE>
2
5
10

$$$$
