126981
  -OEChem-03292013323D

 39 42  0     1  0  0  0  0  0999 V2000
   -1.5513    1.0925   -0.8251 S   0  0  1  0  0  0  0  0  0  0  0  0
    7.2625   -1.1972   -0.5749 F   0  0  0  0  0  0  0  0  0  0  0  0
    7.1526   -0.3523    1.4406 F   0  0  0  0  0  0  0  0  0  0  0  0
    5.9945    0.6500   -0.2304 O   0  0  0  0  0  0  0  0  0  0  0  0
    5.3768   -1.5132    0.6427 O   0  0  0  0  0  0  0  0  0  0  0  0
   -1.7938    2.5517   -0.4933 O   0  0  0  0  0  0  0  0  0  0  0  0
   -6.7755   -1.3044   -0.8076 O   0  0  0  0  0  0  0  0  0  0  0  0
    1.1994    1.5851   -0.8816 N   0  0  0  0  0  0  0  0  0  0  0  0
    0.6243   -0.4060   -0.0781 N   0  0  0  0  0  0  0  0  0  0  0  0
   -4.2607    1.2450    1.3032 N   0  0  0  0  0  0  0  0  0  0  0  0
    2.3824    0.9692   -0.5587 C   0  0  0  0  0  0  0  0  0  0  0  0
    1.9949   -0.2779   -0.0572 C   0  0  0  0  0  0  0  0  0  0  0  0
    0.1812    0.7257   -0.5770 C   0  0  0  0  0  0  0  0  0  0  0  0
    4.6427    0.4619   -0.2241 C   0  0  0  0  0  0  0  0  0  0  0  0
    4.2905   -0.7745    0.2749 C   0  0  0  0  0  0  0  0  0  0  0  0
    3.7124    1.3891   -0.6628 C   0  0  0  0  0  0  0  0  0  0  0  0
    2.9729   -1.1928    0.3789 C   0  0  0  0  0  0  0  0  0  0  0  0
   -2.2845    0.1121    0.5167 C   0  0  0  0  0  0  0  0  0  0  0  0
   -3.7800    0.2396    0.5435 C   0  0  0  0  0  0  0  0  0  0  0  0
   -4.5624   -0.6398   -0.1804 C   0  0  0  0  0  0  0  0  0  0  0  0
    6.4335   -0.6002    0.3176 C   0  0  0  0  0  0  0  0  0  0  0  0
   -5.9417   -0.4754   -0.1208 C   0  0  0  0  0  0  0  0  0  0  0  0
   -3.9606   -1.7308   -1.0002 C   0  0  0  0  0  0  0  0  0  0  0  0
   -6.4816    0.5482    0.6501 C   0  0  0  0  0  0  0  0  0  0  0  0
   -5.6060    1.3737    1.3369 C   0  0  0  0  0  0  0  0  0  0  0  0
   -7.2224   -2.4793   -0.1331 C   0  0  0  0  0  0  0  0  0  0  0  0
    1.1012    2.5115   -1.2752 H   0  0  0  0  0  0  0  0  0  0  0  0
    3.9871    2.3597   -1.0549 H   0  0  0  0  0  0  0  0  0  0  0  0
   -1.8726    0.4881    1.4612 H   0  0  0  0  0  0  0  0  0  0  0  0
   -1.9631   -0.9299    0.4309 H   0  0  0  0  0  0  0  0  0  0  0  0
    2.7094   -2.1673    0.7727 H   0  0  0  0  0  0  0  0  0  0  0  0
   -4.6842   -2.1990   -1.6753 H   0  0  0  0  0  0  0  0  0  0  0  0
   -3.1613   -1.3531   -1.6449 H   0  0  0  0  0  0  0  0  0  0  0  0
   -3.5618   -2.5174   -0.3512 H   0  0  0  0  0  0  0  0  0  0  0  0
   -7.5532    0.7014    0.7155 H   0  0  0  0  0  0  0  0  0  0  0  0
   -5.9765    2.1872    1.9521 H   0  0  0  0  0  0  0  0  0  0  0  0
   -7.8365   -2.2106    0.7323 H   0  0  0  0  0  0  0  0  0  0  0  0
   -6.3746   -3.0938    0.1856 H   0  0  0  0  0  0  0  0  0  0  0  0
   -7.8339   -3.0612   -0.8282 H   0  0  0  0  0  0  0  0  0  0  0  0
  1  6  2  0  0  0  0
  1 13  1  0  0  0  0
  1 18  1  0  0  0  0
  2 21  1  0  0  0  0
  3 21  1  0  0  0  0
  4 14  1  0  0  0  0
  4 21  1  0  0  0  0
  5 15  1  0  0  0  0
  5 21  1  0  0  0  0
  7 22  1  0  0  0  0
  7 26  1  0  0  0  0
  8 11  1  0  0  0  0
  8 13  1  0  0  0  0
  8 27  1  0  0  0  0
  9 12  1  0  0  0  0
  9 13  2  0  0  0  0
 10 19  2  0  0  0  0
 10 25  1  0  0  0  0
 11 12  1  0  0  0  0
 11 16  2  0  0  0  0
 12 17  2  0  0  0  0
 14 15  2  0  0  0  0
 14 16  1  0  0  0  0
 15 17  1  0  0  0  0
 16 28  1  0  0  0  0
 17 31  1  0  0  0  0
 18 19  1  0  0  0  0
 18 29  1  0  0  0  0
 18 30  1  0  0  0  0
 19 20  1  0  0  0  0
 20 22  2  0  0  0  0
 20 23  1  0  0  0  0
 22 24  1  0  0  0  0
 23 32  1  0  0  0  0
 23 33  1  0  0  0  0
 23 34  1  0  0  0  0
 24 25  2  0  0  0  0
 24 35  1  0  0  0  0
 25 36  1  0  0  0  0
 26 37  1  0  0  0  0
 26 38  1  0  0  0  0
 26 39  1  0  0  0  0
M  END
> <PUBCHEM_COMPOUND_CID>
126981

> <PUBCHEM_CONFORMER_RMSD>
0.8

> <PUBCHEM_CONFORMER_DIVERSEORDER>
1
12
15
8
16
19
3
4
7
21
2
18
17
9
20
14
10
5
6
13
11

> <PUBCHEM_MMFF94_PARTIAL_CHARGES>
31
1 0.3
10 -0.62
11 -0.15
12 0.23
13 0.2
14 0.08
15 0.08
16 -0.15
17 -0.15
18 0.34
19 0.17
2 -0.34
20 -0.14
21 1.24
22 0.08
23 0.14
24 -0.15
25 0.16
26 0.28
27 0.27
28 0.15
3 -0.34
31 0.15
35 0.15
36 0.15
4 -0.36
5 -0.36
6 -0.5
7 -0.36
8 0.03
9 -0.57

> <PUBCHEM_EFFECTIVE_ROTOR_COUNT>
4.6

> <PUBCHEM_PHARMACOPHORE_FEATURES>
11
1 10 acceptor
1 4 acceptor
1 5 acceptor
1 6 acceptor
1 7 acceptor
1 8 donor
3 8 9 13 cation
5 4 5 14 15 21 rings
5 8 9 11 12 13 rings
6 10 19 20 22 24 25 rings
6 11 12 14 15 16 17 rings

> <PUBCHEM_HEAVY_ATOM_COUNT>
26

> <PUBCHEM_ATOM_DEF_STEREO_COUNT>
0

> <PUBCHEM_ATOM_UDEF_STEREO_COUNT>
1

> <PUBCHEM_BOND_DEF_STEREO_COUNT>
0

> <PUBCHEM_BOND_UDEF_STEREO_COUNT>
0

> <PUBCHEM_ISOTOPIC_ATOM_COUNT>
0

> <PUBCHEM_COMPONENT_COUNT>
1

> <PUBCHEM_CACTVS_TAUTO_COUNT>
1

> <PUBCHEM_CONFORMER_ID>
0001F00500000001

> <PUBCHEM_MMFF94_ENERGY>
65.8406

> <PUBCHEM_FEATURE_SELFOVERLAP>
56.097

> <PUBCHEM_SHAPE_FINGERPRINT>
10 15 16271922731706821400
10299344 5 18411141341741337654
106641 1 18060132176692050240
11315181 36 18343021104029045049
11524674 6 16773794805557513055
12107183 9 17693102859978069929
12166972 35 18341051899451164849
12236239 1 18412266151227653549
12516196 113 18409448089582131169
12596602 18 17917992776324561144
12760667 363 18113620071366828677
13533116 47 18187082837011928202
13668630 136 18187081776034147663
13685833 64 17603309245261338960
13862211 1 18333169474662961949
14251764 18 18411139159987654662
14849402 71 18200874105965500304
15183329 4 17894346683157276523
15716309 27 18408041797135623596
1577012 14 18338808887251154869
17780758 139 18201718449522400121
17857418 61 18407760334932980093
19489759 90 17489591152169604153
20028762 73 18410855464698247846
20511986 3 18340476825236985601
21130935 74 18272652307879724506
21150785 3 13190348967502750020
21267235 1 18261396607809703708
22224240 67 18413103966430223826
23035841 295 18335138695830530375
23081809 10 18336838562445744381
23522609 53 18118716307372018884
23559900 14 17241053222330959701
23569917 315 18410581712236804871
23569943 247 18048881797386883938
3004659 81 17749103417704942053
3009799 131 12973890312376398302
3383291 50 18339363076062740347
34797466 226 16701468982016357420
3663271 9 18202566159258553722
397830 11 16772938341549115674
4015057 19 17750242564003751105
4073 2 17895764013949114922
4325135 7 18408887326056830766
4340502 62 16056883524806834004
5104073 3 18340773744415232153
5385378 56 11959741455866566676
559249 180 18411700994225492591
59682541 35 18341887537568591328
5969126 39 17749102271450341421
59755656 215 16298381344888859810
59755656 520 11959728270522741541
67856867 119 18270964660668345185

> <PUBCHEM_SHAPE_MULTIPOLES>
485.95
21.59
1.92
1.03
3.69
0.1
-0.14
9.08
-3.44
-1.98
0.24
-0.39
-0.15
-1.93

> <PUBCHEM_SHAPE_SELFOVERLAP>
1065.585

> <PUBCHEM_SHAPE_VOLUME>
268.7

> <PUBCHEM_COORDINATE_TYPE>
2
5
10

$$$$
