126970113
  -OEChem-03292013293D

 50 51  0     1  0  0  0  0  0999 V2000
   -2.7712    1.4223    0.9126 O   0  0  0  0  0  0  0  0  0  0  0  0
   -4.5267   -2.0724   -0.4091 O   0  0  0  0  0  0  0  0  0  0  0  0
   -1.0981    0.5746   -0.5315 O   0  0  0  0  0  0  0  0  0  0  0  0
   -5.4572    0.4601   -1.4180 O   0  0  0  0  0  0  0  0  0  0  0  0
   -3.7456    3.9252    0.4215 O   0  0  0  0  0  0  0  0  0  0  0  0
   -1.2219   -2.5745    2.5399 O   0  0  0  0  0  0  0  0  0  0  0  0
    0.6144   -1.2028   -1.8174 O   0  0  0  0  0  0  0  0  0  0  0  0
    6.9673    1.3023    0.9621 O   0  5  0  0  0  0  0  0  0  0  0  0
    7.5381   -0.3716   -0.3506 O   0  0  0  0  0  0  0  0  0  0  0  0
   -1.7189   -2.0767    0.3207 N   0  0  0  0  0  0  0  0  0  0  0  0
    6.7017    0.3352    0.2321 N   0  3  0  0  0  0  0  0  0  0  0  0
   -2.6199   -0.9732    0.5624 C   0  0  2  0  0  0  0  0  0  0  0  0
   -3.7123   -0.9021   -0.5075 C   0  0  2  0  0  0  0  0  0  0  0  0
   -4.5951    0.3309   -0.2900 C   0  0  1  0  0  0  0  0  0  0  0  0
   -3.7491    1.5980   -0.1183 C   0  0  1  0  0  0  0  0  0  0  0  0
   -1.8583    0.3528    0.6547 C   0  0  2  0  0  0  0  0  0  0  0  0
   -4.5979    2.8047    0.2725 C   0  0  0  0  0  0  0  0  0  0  0  0
   -1.0967   -2.7830    1.3359 C   0  0  0  0  0  0  0  0  0  0  0  0
    0.2580    0.6784   -0.3799 C   0  0  0  0  0  0  0  0  0  0  0  0
   -0.2317   -3.8962    0.8084 C   0  0  0  0  0  0  0  0  0  0  0  0
    1.1144   -0.2134   -1.0255 C   0  0  0  0  0  0  0  0  0  0  0  0
    0.7820    1.6873    0.4284 C   0  0  0  0  0  0  0  0  0  0  0  0
    2.4948   -0.0964   -0.8628 C   0  0  0  0  0  0  0  0  0  0  0  0
    2.1624    1.8042    0.5914 C   0  0  0  0  0  0  0  0  0  0  0  0
    3.0188    0.9123   -0.0543 C   0  0  0  0  0  0  0  0  0  0  0  0
    4.4583    1.0339    0.1147 C   0  0  0  0  0  0  0  0  0  0  0  0
    1.5577   -2.0722   -2.4411 C   0  0  0  0  0  0  0  0  0  0  0  0
    5.3326    0.0123    0.0486 C   0  0  0  0  0  0  0  0  0  0  0  0
   -3.1076   -1.1538    1.5306 H   0  0  0  0  0  0  0  0  0  0  0  0
   -3.2828   -0.9006   -1.5165 H   0  0  0  0  0  0  0  0  0  0  0  0
   -5.2310    0.1756    0.5900 H   0  0  0  0  0  0  0  0  0  0  0  0
   -3.2292    1.8473   -1.0528 H   0  0  0  0  0  0  0  0  0  0  0  0
   -1.2014    0.2970    1.5330 H   0  0  0  0  0  0  0  0  0  0  0  0
   -5.0972    2.6352    1.2324 H   0  0  0  0  0  0  0  0  0  0  0  0
   -5.3485    3.0292   -0.4913 H   0  0  0  0  0  0  0  0  0  0  0  0
   -1.4874   -2.2968   -0.6440 H   0  0  0  0  0  0  0  0  0  0  0  0
   -4.9156   -2.0966    0.4818 H   0  0  0  0  0  0  0  0  0  0  0  0
   -4.9051    0.6329   -2.1997 H   0  0  0  0  0  0  0  0  0  0  0  0
   -4.3048    4.6799    0.6729 H   0  0  0  0  0  0  0  0  0  0  0  0
   -0.1082   -4.6600    1.5812 H   0  0  0  0  0  0  0  0  0  0  0  0
   -0.6863   -4.3630   -0.0701 H   0  0  0  0  0  0  0  0  0  0  0  0
    0.7481   -3.4927    0.5393 H   0  0  0  0  0  0  0  0  0  0  0  0
    0.1272    2.3952    0.9295 H   0  0  0  0  0  0  0  0  0  0  0  0
    3.1914   -0.7584   -1.3642 H   0  0  0  0  0  0  0  0  0  0  0  0
    2.5529    2.5970    1.2249 H   0  0  0  0  0  0  0  0  0  0  0  0
    4.7906    2.0490    0.3259 H   0  0  0  0  0  0  0  0  0  0  0  0
    0.9848   -2.8005   -3.0247 H   0  0  0  0  0  0  0  0  0  0  0  0
    2.1329   -2.6419   -1.7033 H   0  0  0  0  0  0  0  0  0  0  0  0
    2.1980   -1.5336   -3.1480 H   0  0  0  0  0  0  0  0  0  0  0  0
    5.1536   -1.0290   -0.1725 H   0  0  0  0  0  0  0  0  0  0  0  0
  1 15  1  0  0  0  0
  1 16  1  0  0  0  0
  2 13  1  0  0  0  0
  2 37  1  0  0  0  0
  3 16  1  0  0  0  0
  3 19  1  0  0  0  0
  4 14  1  0  0  0  0
  4 38  1  0  0  0  0
  5 17  1  0  0  0  0
  5 39  1  0  0  0  0
  6 18  2  0  0  0  0
  7 21  1  0  0  0  0
  7 27  1  0  0  0  0
  8 11  1  0  0  0  0
  9 11  2  0  0  0  0
 10 12  1  0  0  0  0
 10 18  1  0  0  0  0
 10 36  1  0  0  0  0
 11 28  1  0  0  0  0
 12 13  1  0  0  0  0
 12 16  1  0  0  0  0
 12 29  1  0  0  0  0
 13 14  1  0  0  0  0
 13 30  1  0  0  0  0
 14 15  1  0  0  0  0
 14 31  1  0  0  0  0
 15 17  1  0  0  0  0
 15 32  1  0  0  0  0
 16 33  1  0  0  0  0
 17 34  1  0  0  0  0
 17 35  1  0  0  0  0
 18 20  1  0  0  0  0
 19 21  2  0  0  0  0
 19 22  1  0  0  0  0
 20 40  1  0  0  0  0
 20 41  1  0  0  0  0
 20 42  1  0  0  0  0
 21 23  1  0  0  0  0
 22 24  2  0  0  0  0
 22 43  1  0  0  0  0
 23 25  2  0  0  0  0
 23 44  1  0  0  0  0
 24 25  1  0  0  0  0
 24 45  1  0  0  0  0
 25 26  1  0  0  0  0
 26 28  2  3  0  0  0
 26 46  1  0  0  0  0
 27 47  1  0  0  0  0
 27 48  1  0  0  0  0
 27 49  1  0  0  0  0
 28 50  1  0  0  0  0
M  CHG  2   8  -1  11   1
M  END
> <PUBCHEM_COMPOUND_CID>
126970113

> <PUBCHEM_CONFORMER_RMSD>
1

> <PUBCHEM_CONFORMER_DIVERSEORDER>
2
20
13
7
23
17
24
19
14
21
11
8
12
18
22
5
16
15
9
1
6
4
10
3

> <PUBCHEM_MMFF94_PARTIAL_CHARGES>
37
1 -0.56
10 -0.73
11 0.84
12 0.3
13 0.28
14 0.28
15 0.28
16 0.56
17 0.28
18 0.57
19 0.08
2 -0.68
20 0.06
21 0.08
22 -0.15
23 -0.15
24 -0.15
25 0.03
26 -0.18
27 0.28
28 0.05
3 -0.36
36 0.37
37 0.4
38 0.4
39 0.4
4 -0.68
43 0.15
44 0.15
45 0.15
46 0.15
5 -0.68
50 0.15
6 -0.57
7 -0.36
8 -0.52
9 -0.52

> <PUBCHEM_EFFECTIVE_ROTOR_COUNT>
9.2

> <PUBCHEM_PHARMACOPHORE_FEATURES>
16
1 1 acceptor
1 10 donor
1 2 acceptor
1 2 donor
1 3 acceptor
1 4 acceptor
1 4 donor
1 5 acceptor
1 5 donor
1 6 acceptor
1 7 acceptor
1 8 acceptor
1 8 anion
1 9 acceptor
6 1 12 13 14 15 16 rings
6 19 21 22 23 24 25 rings

> <PUBCHEM_HEAVY_ATOM_COUNT>
28

> <PUBCHEM_ATOM_DEF_STEREO_COUNT>
5

> <PUBCHEM_ATOM_UDEF_STEREO_COUNT>
0

> <PUBCHEM_BOND_DEF_STEREO_COUNT>
0

> <PUBCHEM_BOND_UDEF_STEREO_COUNT>
1

> <PUBCHEM_ISOTOPIC_ATOM_COUNT>
0

> <PUBCHEM_COMPONENT_COUNT>
1

> <PUBCHEM_CACTVS_TAUTO_COUNT>
4

> <PUBCHEM_CONFORMER_ID>
0791690100000002

> <PUBCHEM_MMFF94_ENERGY>
92.59

> <PUBCHEM_FEATURE_SELFOVERLAP>
81.339

> <PUBCHEM_SHAPE_FINGERPRINT>
10906281 52 18270983270613867616
11045977 3 18341330093768732272
11315181 36 18334013925690341444
14466204 15 18343863303712781288
14840074 17 16370437852859542786
15849732 13 16515401884816931927
19489759 90 18341892999933807744
20600515 1 18114759177997576308
21279426 13 18269560438306079078
23402539 116 18409443713242493941
23559900 14 18269547402579688992
23569943 247 15552791455771418332
3383291 50 18189051069683878914
4015057 19 18199178671387218512
4073 2 18261393412560004528
56616090 46 18336552620824105220
58260988 114 15719969045355958665
59554788 281 17967822643364408539
59755656 520 18334006198848757039
6328613 192 18187369874272571732
7226269 152 18343022159858283960
9709674 26 18342468079196646127
9981440 41 18413114960855866291

> <PUBCHEM_SHAPE_MULTIPOLES>
513.44
13.39
3.56
1.47
20.64
1.28
0.23
-6.48
-0.02
-4.05
-1.35
-0.07
1.26
0.91

> <PUBCHEM_SHAPE_SELFOVERLAP>
1069.69

> <PUBCHEM_SHAPE_VOLUME>
291.2

> <PUBCHEM_COORDINATE_TYPE>
2
5
10

$$$$
