126984
  -OEChem-03292013323D

 59 61  0     1  0  0  0  0  0999 V2000
   -2.4007   -0.2685    3.1674 O   0  0  0  0  0  0  0  0  0  0  0  0
   -2.4269   -0.9533   -2.1679 O   0  0  0  0  0  0  0  0  0  0  0  0
   -3.9466   -1.2338    1.7986 O   0  0  0  0  0  0  0  0  0  0  0  0
    1.1853   -3.1875    1.8643 O   0  0  0  0  0  0  0  0  0  0  0  0
   -0.1648   -4.5588    0.6794 O   0  0  0  0  0  0  0  0  0  0  0  0
    3.7312   -0.4267   -0.4490 O   0  0  0  0  0  0  0  0  0  0  0  0
    3.1757   -1.8441   -2.1687 O   0  0  0  0  0  0  0  0  0  0  0  0
   -2.9725    0.2922   -0.2957 N   0  0  0  0  0  0  0  0  0  0  0  0
    1.9592   -1.7862   -0.1936 N   0  0  0  0  0  0  0  0  0  0  0  0
   -4.0130    2.3928   -0.1558 C   0  0  2  0  0  0  0  0  0  0  0  0
   -4.0097    1.0870   -0.9586 C   0  0  2  0  0  0  0  0  0  0  0  0
   -3.7433    1.9131    1.2732 C   0  0  0  0  0  0  0  0  0  0  0  0
   -2.7655    0.7480    1.0830 C   0  0  1  0  0  0  0  0  0  0  0  0
   -5.2693    3.2422   -0.3215 C   0  0  0  0  0  0  0  0  0  0  0  0
   -5.3509    0.3432   -0.9540 C   0  0  0  0  0  0  0  0  0  0  0  0
   -6.5653    2.4385   -0.2904 C   0  0  0  0  0  0  0  0  0  0  0  0
   -6.5180    1.2697   -1.2678 C   0  0  0  0  0  0  0  0  0  0  0  0
   -2.1952   -0.6124   -1.0057 C   0  0  0  0  0  0  0  0  0  0  0  0
   -3.1208   -0.3614    2.0228 C   0  0  0  0  0  0  0  0  0  0  0  0
   -1.0174   -1.2020   -0.2712 C   0  0  0  0  0  0  0  0  0  0  0  0
   -0.2617   -2.1713   -1.1700 C   0  0  0  0  0  0  0  0  0  0  0  0
    0.9814   -2.7934   -0.5192 C   0  0  2  0  0  0  0  0  0  0  0  0
    0.5897   -3.5925    0.7165 C   0  0  0  0  0  0  0  0  0  0  0  0
    2.9741   -1.3959   -1.0448 C   0  0  0  0  0  0  0  0  0  0  0  0
    4.8266    0.0742   -1.2235 C   0  0  0  0  0  0  0  0  0  0  0  0
    5.5488    1.1228   -0.4295 C   0  0  0  0  0  0  0  0  0  0  0  0
    5.1645    2.4601   -0.5284 C   0  0  0  0  0  0  0  0  0  0  0  0
    6.6041    0.7605    0.4076 C   0  0  0  0  0  0  0  0  0  0  0  0
    5.8355    3.4351    0.2097 C   0  0  0  0  0  0  0  0  0  0  0  0
    7.2750    1.7356    1.1458 C   0  0  0  0  0  0  0  0  0  0  0  0
    6.8906    3.0728    1.0469 C   0  0  0  0  0  0  0  0  0  0  0  0
   -3.1473    2.9976   -0.4627 H   0  0  0  0  0  0  0  0  0  0  0  0
   -3.7171    1.2843   -1.9973 H   0  0  0  0  0  0  0  0  0  0  0  0
   -3.3067    2.7043    1.8921 H   0  0  0  0  0  0  0  0  0  0  0  0
   -4.6678    1.5914    1.7675 H   0  0  0  0  0  0  0  0  0  0  0  0
   -1.7202    1.0504    1.1981 H   0  0  0  0  0  0  0  0  0  0  0  0
   -5.2107    3.7568   -1.2895 H   0  0  0  0  0  0  0  0  0  0  0  0
   -5.3005    4.0250    0.4453 H   0  0  0  0  0  0  0  0  0  0  0  0
   -5.5311   -0.1258    0.0206 H   0  0  0  0  0  0  0  0  0  0  0  0
   -5.3207   -0.4770   -1.6812 H   0  0  0  0  0  0  0  0  0  0  0  0
   -6.7506    2.0654    0.7237 H   0  0  0  0  0  0  0  0  0  0  0  0
   -7.4064    3.0941   -0.5434 H   0  0  0  0  0  0  0  0  0  0  0  0
   -6.4267    1.6462   -2.2939 H   0  0  0  0  0  0  0  0  0  0  0  0
   -7.4575    0.7080   -1.2144 H   0  0  0  0  0  0  0  0  0  0  0  0
   -1.3774   -1.7281    0.6163 H   0  0  0  0  0  0  0  0  0  0  0  0
   -0.3592   -0.3856    0.0432 H   0  0  0  0  0  0  0  0  0  0  0  0
    0.0460   -1.6546   -2.0891 H   0  0  0  0  0  0  0  0  0  0  0  0
   -0.9388   -2.9782   -1.4812 H   0  0  0  0  0  0  0  0  0  0  0  0
   -2.6198   -0.9879    3.7973 H   0  0  0  0  0  0  0  0  0  0  0  0
    1.4469   -3.4981   -1.2187 H   0  0  0  0  0  0  0  0  0  0  0  0
    1.8982   -1.3259    0.7100 H   0  0  0  0  0  0  0  0  0  0  0  0
    0.9236   -3.7434    2.6291 H   0  0  0  0  0  0  0  0  0  0  0  0
    5.5091   -0.7475   -1.4741 H   0  0  0  0  0  0  0  0  0  0  0  0
    4.4517    0.5014   -2.1620 H   0  0  0  0  0  0  0  0  0  0  0  0
    4.3424    2.7545   -1.1754 H   0  0  0  0  0  0  0  0  0  0  0  0
    6.9113   -0.2783    0.4948 H   0  0  0  0  0  0  0  0  0  0  0  0
    5.5360    4.4763    0.1332 H   0  0  0  0  0  0  0  0  0  0  0  0
    8.0963    1.4535    1.7982 H   0  0  0  0  0  0  0  0  0  0  0  0
    7.4129    3.8318    1.6219 H   0  0  0  0  0  0  0  0  0  0  0  0
  1 19  1  0  0  0  0
  1 49  1  0  0  0  0
  2 18  2  0  0  0  0
  3 19  2  0  0  0  0
  4 23  1  0  0  0  0
  4 52  1  0  0  0  0
  5 23  2  0  0  0  0
  6 24  1  0  0  0  0
  6 25  1  0  0  0  0
  7 24  2  0  0  0  0
  8 11  1  0  0  0  0
  8 13  1  0  0  0  0
  8 18  1  0  0  0  0
  9 22  1  0  0  0  0
  9 24  1  0  0  0  0
  9 51  1  0  0  0  0
 10 11  1  0  0  0  0
 10 12  1  0  0  0  0
 10 14  1  0  0  0  0
 10 32  1  0  0  0  0
 11 15  1  0  0  0  0
 11 33  1  0  0  0  0
 12 13  1  0  0  0  0
 12 34  1  0  0  0  0
 12 35  1  0  0  0  0
 13 19  1  0  0  0  0
 13 36  1  0  0  0  0
 14 16  1  0  0  0  0
 14 37  1  0  0  0  0
 14 38  1  0  0  0  0
 15 17  1  0  0  0  0
 15 39  1  0  0  0  0
 15 40  1  0  0  0  0
 16 17  1  0  0  0  0
 16 41  1  0  0  0  0
 16 42  1  0  0  0  0
 17 43  1  0  0  0  0
 17 44  1  0  0  0  0
 18 20  1  0  0  0  0
 20 21  1  0  0  0  0
 20 45  1  0  0  0  0
 20 46  1  0  0  0  0
 21 22  1  0  0  0  0
 21 47  1  0  0  0  0
 21 48  1  0  0  0  0
 22 23  1  0  0  0  0
 22 50  1  0  0  0  0
 25 26  1  0  0  0  0
 25 53  1  0  0  0  0
 25 54  1  0  0  0  0
 26 27  2  0  0  0  0
 26 28  1  0  0  0  0
 27 29  1  0  0  0  0
 27 55  1  0  0  0  0
 28 30  2  0  0  0  0
 28 56  1  0  0  0  0
 29 31  2  0  0  0  0
 29 57  1  0  0  0  0
 30 31  1  0  0  0  0
 30 58  1  0  0  0  0
 31 59  1  0  0  0  0
M  END
> <PUBCHEM_COMPOUND_CID>
126984

> <PUBCHEM_CONFORMER_RMSD>
1.2

> <PUBCHEM_CONFORMER_DIVERSEORDER>
1
9
76
79
62
92
12
95
45
86
57
69
87
77
24
100
55
94
48
14
18
29
53
59
38
103
71
32
60
43
58
46
42
93
73
3
30
11
50
36
49
19
54
13
66
84
31
102
4
90
56
40
82
23
8
5
99
7
37
101
25
33
61
28
65
47
97
52
27
63
81
16
72
68
6
20
85
34
41
98
21
39
2
91
17
88
35
75
22
44
80
64
83
10
96
89
70
15
26
78
67
74
51

> <PUBCHEM_MMFF94_PARTIAL_CHARGES>
32
1 -0.65
11 0.3
13 0.36
18 0.57
19 0.66
2 -0.57
20 0.06
22 0.36
23 0.66
24 0.78
25 0.42
26 -0.14
27 -0.15
28 -0.15
29 -0.15
3 -0.57
30 -0.15
31 -0.15
4 -0.65
49 0.5
5 -0.57
51 0.37
52 0.5
55 0.15
56 0.15
57 0.15
58 0.15
59 0.15
6 -0.43
7 -0.57
8 -0.66
9 -0.73

> <PUBCHEM_EFFECTIVE_ROTOR_COUNT>
12.4

> <PUBCHEM_PHARMACOPHORE_FEATURES>
12
1 1 acceptor
1 2 acceptor
1 3 acceptor
1 4 acceptor
1 5 acceptor
1 7 acceptor
1 9 donor
3 1 3 19 anion
3 4 5 23 anion
5 8 10 11 12 13 rings
6 10 11 14 15 16 17 rings
6 26 27 28 29 30 31 rings

> <PUBCHEM_HEAVY_ATOM_COUNT>
31

> <PUBCHEM_ATOM_DEF_STEREO_COUNT>
4

> <PUBCHEM_ATOM_UDEF_STEREO_COUNT>
0

> <PUBCHEM_BOND_DEF_STEREO_COUNT>
0

> <PUBCHEM_BOND_UDEF_STEREO_COUNT>
0

> <PUBCHEM_ISOTOPIC_ATOM_COUNT>
0

> <PUBCHEM_COMPONENT_COUNT>
1

> <PUBCHEM_CACTVS_TAUTO_COUNT>
2

> <PUBCHEM_CONFORMER_ID>
0001F00800000001

> <PUBCHEM_MMFF94_ENERGY>
63.4338

> <PUBCHEM_FEATURE_SELFOVERLAP>
61.173

> <PUBCHEM_SHAPE_FINGERPRINT>
10904742 38 18408602599916887128
10928967 22 11603086337026146800
11007060 377 18343022241478168127
11112241 14 18334300829816697313
12422481 6 13840260386354911632
131258 43 14044878482608754763
14251764 30 9871748001115177400
14565420 104 18261107435497705174
14739800 52 18189613843542685243
14950920 106 15864636197323375244
15142526 21 18335703814663711231
15274700 34 17388562646658327251
18608769 82 18199465640054115239
19438510 23 18335135384431779498
20715895 44 18341610439269491484
20775530 9 9190294325198402836
21033648 29 18259992582710614678
21401589 2 18341621476976752794
22122407 14 18123481483555355249
23559900 14 17171264831715250591
23569914 2 17099707524084666597
2748736 6 18342168977901291644
2838139 119 18272928371655980798
4144715 1 18191872443503280338
474113 269 11819573562528484441
563151 74 17967809410137613851
6695519 79 18194148303080492403
7288768 16 18334292106437627350
9981440 41 18261117374378673281

> <PUBCHEM_SHAPE_MULTIPOLES>
586.92
19.09
4.77
1.94
17.84
2.27
-0.92
-24.49
0.5
2.57
-0.88
-1.26
0.82
1.91

> <PUBCHEM_SHAPE_SELFOVERLAP>
1229.626

> <PUBCHEM_SHAPE_VOLUME>
328.4

> <PUBCHEM_COORDINATE_TYPE>
2
5
10

$$$$
