126959
  -OEChem-03292013323D

 38 39  0     1  0  0  0  0  0999 V2000
   -2.8693   -1.2400    1.0464 O   0  0  0  0  0  0  0  0  0  0  0  0
    1.6402   -0.1476    1.7022 O   0  0  0  0  0  0  0  0  0  0  0  0
    5.1475   -1.8993   -2.3332 O   0  0  0  0  0  0  0  0  0  0  0  0
    6.1866   -1.7018   -0.3250 O   0  0  0  0  0  0  0  0  0  0  0  0
   -4.7085   -2.5031    1.5476 O   0  0  0  0  0  0  0  0  0  0  0  0
    1.0193    1.3857    0.0307 N   0  0  0  0  0  0  0  0  0  0  0  0
    3.5512    1.9725    2.1909 N   0  0  0  0  0  0  0  0  0  0  0  0
    3.3052    1.3815    0.8737 C   0  0  1  0  0  0  0  0  0  0  0  0
    4.3646    0.3069    0.5811 C   0  0  0  0  0  0  0  0  0  0  0  0
    1.9055    0.7692    0.9285 C   0  0  0  0  0  0  0  0  0  0  0  0
    4.1924   -0.3797   -0.7780 C   0  0  0  0  0  0  0  0  0  0  0  0
   -0.3264    1.0929   -0.1913 C   0  0  0  0  0  0  0  0  0  0  0  0
   -3.0481    0.5111   -0.6474 C   0  0  0  0  0  0  0  0  0  0  0  0
   -2.2954   -0.1995    0.2887 C   0  0  0  0  0  0  0  0  0  0  0  0
   -0.9476    0.0762    0.5262 C   0  0  0  0  0  0  0  0  0  0  0  0
   -4.4610    0.1534   -0.8321 C   0  0  0  0  0  0  0  0  0  0  0  0
   -1.0532    1.8196   -1.1328 C   0  0  0  0  0  0  0  0  0  0  0  0
   -2.4039    1.5315   -1.3598 C   0  0  0  0  0  0  0  0  0  0  0  0
   -4.9802   -0.8408   -0.0978 C   0  0  0  0  0  0  0  0  0  0  0  0
    5.2779   -1.3880   -1.0812 C   0  0  0  0  0  0  0  0  0  0  0  0
   -5.2973    0.8986   -1.8311 C   0  0  0  0  0  0  0  0  0  0  0  0
   -4.1993   -1.5994    0.8938 C   0  0  0  0  0  0  0  0  0  0  0  0
    3.3652    2.1679    0.1137 H   0  0  0  0  0  0  0  0  0  0  0  0
    4.3499   -0.4623    1.3656 H   0  0  0  0  0  0  0  0  0  0  0  0
    5.3629    0.7632    0.6225 H   0  0  0  0  0  0  0  0  0  0  0  0
    3.2337   -0.9083   -0.8143 H   0  0  0  0  0  0  0  0  0  0  0  0
    4.2076    0.3789   -1.5688 H   0  0  0  0  0  0  0  0  0  0  0  0
    1.3914    2.1421   -0.5390 H   0  0  0  0  0  0  0  0  0  0  0  0
   -0.4548   -0.5324    1.2708 H   0  0  0  0  0  0  0  0  0  0  0  0
   -0.5820    2.6176   -1.7017 H   0  0  0  0  0  0  0  0  0  0  0  0
   -2.9329    2.1227   -2.1028 H   0  0  0  0  0  0  0  0  0  0  0  0
    2.9034    2.7449    2.3439 H   0  0  0  0  0  0  0  0  0  0  0  0
    4.4860    2.3786    2.2138 H   0  0  0  0  0  0  0  0  0  0  0  0
   -6.0205   -1.1317   -0.2082 H   0  0  0  0  0  0  0  0  0  0  0  0
   -4.8856    0.7911   -2.8403 H   0  0  0  0  0  0  0  0  0  0  0  0
   -5.3474    1.9633   -1.5794 H   0  0  0  0  0  0  0  0  0  0  0  0
   -6.3271    0.5253   -1.8613 H   0  0  0  0  0  0  0  0  0  0  0  0
    5.8572   -2.5440   -2.5404 H   0  0  0  0  0  0  0  0  0  0  0  0
  1 14  1  0  0  0  0
  1 22  1  0  0  0  0
  2 10  2  0  0  0  0
  3 20  1  0  0  0  0
  3 38  1  0  0  0  0
  4 20  2  0  0  0  0
  5 22  2  0  0  0  0
  6 10  1  0  0  0  0
  6 12  1  0  0  0  0
  6 28  1  0  0  0  0
  7  8  1  0  0  0  0
  7 32  1  0  0  0  0
  7 33  1  0  0  0  0
  8  9  1  0  0  0  0
  8 10  1  0  0  0  0
  8 23  1  0  0  0  0
  9 11  1  0  0  0  0
  9 24  1  0  0  0  0
  9 25  1  0  0  0  0
 11 20  1  0  0  0  0
 11 26  1  0  0  0  0
 11 27  1  0  0  0  0
 12 15  2  0  0  0  0
 12 17  1  0  0  0  0
 13 14  2  0  0  0  0
 13 16  1  0  0  0  0
 13 18  1  0  0  0  0
 14 15  1  0  0  0  0
 15 29  1  0  0  0  0
 16 19  2  0  0  0  0
 16 21  1  0  0  0  0
 17 18  2  0  0  0  0
 17 30  1  0  0  0  0
 18 31  1  0  0  0  0
 19 22  1  0  0  0  0
 19 34  1  0  0  0  0
 21 35  1  0  0  0  0
 21 36  1  0  0  0  0
 21 37  1  0  0  0  0
M  END
> <PUBCHEM_COMPOUND_CID>
126959

> <PUBCHEM_CONFORMER_RMSD>
0.8

> <PUBCHEM_CONFORMER_DIVERSEORDER>
1
44
54
65
27
30
25
61
32
39
33
17
34
64
23
4
59
52
16
31
41
20
56
15
10
35
50
13
2
46
12
63
43
42
51
19
24
57
66
11
62
9
49
47
29
40
18
8
58
21
28
38
53
5
3
26
22
37
60
55
7
36
6
45
14
48

> <PUBCHEM_MMFF94_PARTIAL_CHARGES>
29
1 -0.23
10 0.57
11 0.06
12 0.12
13 0.03
14 0.08
15 -0.15
16 -0.17
17 -0.15
18 -0.15
19 -0.14
2 -0.57
20 0.66
21 0.14
22 0.71
28 0.37
29 0.15
3 -0.65
30 0.15
31 0.15
32 0.36
33 0.36
34 0.15
38 0.5
4 -0.57
5 -0.57
6 -0.55
7 -0.99
8 0.33

> <PUBCHEM_EFFECTIVE_ROTOR_COUNT>
6

> <PUBCHEM_PHARMACOPHORE_FEATURES>
10
1 2 acceptor
1 3 acceptor
1 4 acceptor
1 5 acceptor
1 6 donor
1 7 cation
1 7 donor
3 3 4 20 anion
6 1 13 14 16 19 22 rings
6 12 13 14 15 17 18 rings

> <PUBCHEM_HEAVY_ATOM_COUNT>
22

> <PUBCHEM_ATOM_DEF_STEREO_COUNT>
1

> <PUBCHEM_ATOM_UDEF_STEREO_COUNT>
0

> <PUBCHEM_BOND_DEF_STEREO_COUNT>
0

> <PUBCHEM_BOND_UDEF_STEREO_COUNT>
0

> <PUBCHEM_ISOTOPIC_ATOM_COUNT>
0

> <PUBCHEM_COMPONENT_COUNT>
1

> <PUBCHEM_CACTVS_TAUTO_COUNT>
2

> <PUBCHEM_CONFORMER_ID>
0001EFEF00000001

> <PUBCHEM_MMFF94_ENERGY>
56.6189

> <PUBCHEM_FEATURE_SELFOVERLAP>
50.831

> <PUBCHEM_SHAPE_FINGERPRINT>
11128504 68 16515410672668003814
11552529 35 16340874351182753063
12236239 1 15339116879301637360
12390115 104 18044646513409758893
12596602 18 13973962087130637230
12788726 201 16588577591859934037
13402501 40 18411707582094064054
13533116 47 17418369216463870744
13544592 145 18411415120178858504
13914758 101 16988846034793524793
13955234 65 17702938262441101328
14251732 14 17676783049052075074
14251757 5 17386017207603008419
14528608 73 15647057079459918078
14790565 3 17607504853597076717
15880784 105 17774712164934962695
17857418 61 16343697733633358838
17870717 6 18186802470142080519
20621476 21 18336276724804722995
20645477 70 18060408111103127980
21065201 7 18187917365947481016
21267235 1 17749108937587224235
21315764 119 17677894526659315230
21623969 137 18060419102119753902
21682296 61 17988929920542662086
2215653 11 18411128122148557573
22849339 104 17749393693518678491
2297311 6 18113340816935358101
2303208 19 18408890663104280891
23175994 123 18271522096089383081
23366157 5 16301459848682094667
23379529 103 17681287873120165763
23557571 272 18259983769179403085
23559900 14 18260263066455032332
239999 70 18335695096597395512
2838139 119 13334736843126459254
3089732 80 18412834577122647750
345986 75 16343144606924777978
34797466 226 18188490284430345197
46194498 28 18408889555804792972
543368 44 15068631512440898535
59755656 215 18261386707425010599
6823239 73 18261106387868453176

> <PUBCHEM_SHAPE_MULTIPOLES>
413.44
14.12
2.11
1.8
8.48
0.57
0.16
6.97
4.72
-0.89
-0.1
1.9
0.08
4.07

> <PUBCHEM_SHAPE_SELFOVERLAP>
872.694

> <PUBCHEM_SHAPE_VOLUME>
230.2

> <PUBCHEM_COORDINATE_TYPE>
2
5
10

$$$$
