126961234
  -OEChem-03292013293D

 42 44  0     1  0  0  0  0  0999 V2000
    1.5000    1.8191    1.9797 O   0  0  0  0  0  0  0  0  0  0  0  0
   -4.9959   -1.2340    1.0143 O   0  0  0  0  0  0  0  0  0  0  0  0
    4.6743    1.1953   -0.9096 O   0  5  0  0  0  0  0  0  0  0  0  0
    4.7685    0.6840    1.3138 O   0  0  0  0  0  0  0  0  0  0  0  0
    1.8413    1.0882   -0.1971 N   0  0  0  0  0  0  0  0  0  0  0  0
   -2.4359    1.6754   -1.9691 N   0  0  0  0  0  0  0  0  0  0  0  0
   -0.9223    2.2471   -0.4495 C   0  0  0  0  0  0  0  0  0  0  0  0
    2.8277    0.0792    0.1110 C   0  0  1  0  0  0  0  0  0  0  0  0
   -1.8508    1.3575    0.1601 C   0  0  0  0  0  0  0  0  0  0  0  0
    0.2479    2.8748    0.1966 C   0  0  0  0  0  0  0  0  0  0  0  0
    2.7436   -1.0904   -0.8791 C   0  0  0  0  0  0  0  0  0  0  0  0
   -2.7898    1.0138   -0.8148 C   0  0  0  0  0  0  0  0  0  0  0  0
   -1.3087    2.4232   -1.7582 C   0  0  0  0  0  0  0  0  0  0  0  0
    1.2544    1.8823    0.7779 C   0  0  0  0  0  0  0  0  0  0  0  0
    1.5834   -2.0177   -0.6022 C   0  0  0  0  0  0  0  0  0  0  0  0
   -1.9827    0.8097    1.4517 C   0  0  0  0  0  0  0  0  0  0  0  0
   -3.8582    0.1464   -0.5617 C   0  0  0  0  0  0  0  0  0  0  0  0
    4.2291    0.7145    0.1692 C   0  0  0  0  0  0  0  0  0  0  0  0
   -3.0466   -0.0594    1.7193 C   0  0  0  0  0  0  0  0  0  0  0  0
   -3.9689   -0.3846    0.7266 C   0  0  0  0  0  0  0  0  0  0  0  0
    1.7508   -3.1094    0.2496 C   0  0  0  0  0  0  0  0  0  0  0  0
    0.3449   -1.7819   -1.1987 C   0  0  0  0  0  0  0  0  0  0  0  0
    0.6794   -3.9655    0.5050 C   0  0  0  0  0  0  0  0  0  0  0  0
   -0.7265   -2.6378   -0.9434 C   0  0  0  0  0  0  0  0  0  0  0  0
   -0.5591   -3.7297   -0.0915 C   0  0  0  0  0  0  0  0  0  0  0  0
    2.6062   -0.2985    1.1191 H   0  0  0  0  0  0  0  0  0  0  0  0
   -0.0901    3.5264    1.0118 H   0  0  0  0  0  0  0  0  0  0  0  0
    0.7882    3.5167   -0.5107 H   0  0  0  0  0  0  0  0  0  0  0  0
    2.6781   -0.7228   -1.9121 H   0  0  0  0  0  0  0  0  0  0  0  0
    3.6726   -1.6752   -0.8412 H   0  0  0  0  0  0  0  0  0  0  0  0
    1.6333    1.2734   -1.1743 H   0  0  0  0  0  0  0  0  0  0  0  0
   -0.8841    3.0120   -2.5594 H   0  0  0  0  0  0  0  0  0  0  0  0
   -2.9361    1.6164   -2.8452 H   0  0  0  0  0  0  0  0  0  0  0  0
   -1.2767    1.0537    2.2399 H   0  0  0  0  0  0  0  0  0  0  0  0
   -4.5739   -0.1047   -1.3380 H   0  0  0  0  0  0  0  0  0  0  0  0
   -3.1417   -0.4776    2.7186 H   0  0  0  0  0  0  0  0  0  0  0  0
    2.7102   -3.3021    0.7222 H   0  0  0  0  0  0  0  0  0  0  0  0
    0.2011   -0.9356   -1.8650 H   0  0  0  0  0  0  0  0  0  0  0  0
    0.8094   -4.8151    1.1690 H   0  0  0  0  0  0  0  0  0  0  0  0
   -1.6910   -2.4540   -1.4076 H   0  0  0  0  0  0  0  0  0  0  0  0
   -1.3936   -4.3956    0.1077 H   0  0  0  0  0  0  0  0  0  0  0  0
   -4.9264   -1.5103    1.9443 H   0  0  0  0  0  0  0  0  0  0  0  0
  1 14  2  0  0  0  0
  2 20  1  0  0  0  0
  2 42  1  0  0  0  0
  3 18  1  0  0  0  0
  4 18  2  0  0  0  0
  5  8  1  0  0  0  0
  5 14  1  0  0  0  0
  5 31  1  0  0  0  0
  6 12  1  0  0  0  0
  6 13  1  0  0  0  0
  6 33  1  0  0  0  0
  7  9  1  0  0  0  0
  7 10  1  0  0  0  0
  7 13  2  0  0  0  0
  8 11  1  0  0  0  0
  8 18  1  0  0  0  0
  8 26  1  0  0  0  0
  9 12  2  0  0  0  0
  9 16  1  0  0  0  0
 10 14  1  0  0  0  0
 10 27  1  0  0  0  0
 10 28  1  0  0  0  0
 11 15  1  0  0  0  0
 11 29  1  0  0  0  0
 11 30  1  0  0  0  0
 12 17  1  0  0  0  0
 13 32  1  0  0  0  0
 15 21  2  0  0  0  0
 15 22  1  0  0  0  0
 16 19  2  0  0  0  0
 16 34  1  0  0  0  0
 17 20  2  0  0  0  0
 17 35  1  0  0  0  0
 19 20  1  0  0  0  0
 19 36  1  0  0  0  0
 21 23  1  0  0  0  0
 21 37  1  0  0  0  0
 22 24  2  0  0  0  0
 22 38  1  0  0  0  0
 23 25  2  0  0  0  0
 23 39  1  0  0  0  0
 24 25  1  0  0  0  0
 24 40  1  0  0  0  0
 25 41  1  0  0  0  0
M  CHG  1   3  -1
M  END
> <PUBCHEM_COMPOUND_CID>
126961234

> <PUBCHEM_CONFORMER_RMSD>
0.8

> <PUBCHEM_CONFORMER_DIVERSEORDER>
1
70
17
108
113
123
179
225
61
126
78
60
63
137
280
138
279
266
184
76
151
20
192
270
194
301
221
285
170
223
51
265
87
206
81
50
262
190
141
310
96
77
218
92
116
153
183
324
115
231
263
75
210
165
159
283
222
19
313
267
255
312
195
150
25
277
142
161
318
84
94
156
321
273
299
89
88
274
305
233
286
244
202
104
105
43
100
160
182
232
144
205
229
83
291
298
317
197
209
282
102
6
15
174
204
14
216
112
59
181
243
128
69
249
208
24
256
242
201
8
191
98
211
125
198
103
147
48
133
290
293
47
155
107
134
203
149
187
251
65
297
193
284
152
189
2
239
18
207
53
295
56
259
101
292
86
237
322
135
296
45
217
114
158
54
90
154
118
325
21
57
257
42
16
306
162
34
316
37
275
224
288
27
258
289
49
307
73
234
169
157
120
109
44
58
122
213
268
106
250
199
52
215
80
26
303
314
166
97
143
30
238
212
260
131
230
79
175
304
271
132
278
168
28
226
127
31
247
248
320
200
269
252
117
261
323
111
276
220
136
300
5
246
12
74
82
46
29
163
245
180
23
172
219
171
40
319
85
121
4
228
36
240
311
173
145
272
176
3
93
13
294
254
9
68
55
11
139
235
309
67
66
178
39
148
7
196
186
214
64
99
33
10
119
72
129
241
38
302
124
287
315
253
146
188
32
71
130
62
35
236
91
164
227
95
185
308
167
22
177
41
110
264
140
281

> <PUBCHEM_MMFF94_PARTIAL_CHARGES>
36
1 -0.57
10 0.24
11 0.14
12 -0.15
13 -0.3
14 0.57
15 -0.14
16 -0.15
17 -0.15
18 0.91
19 -0.15
2 -0.53
20 0.08
21 -0.15
22 -0.15
23 -0.15
24 -0.15
25 -0.15
3 -0.9
31 0.37
32 0.15
33 0.27
34 0.15
35 0.15
36 0.15
37 0.15
38 0.15
39 0.15
4 -0.9
40 0.15
41 0.15
42 0.45
5 -0.73
6 0.03
7 -0.18
8 0.19

> <PUBCHEM_EFFECTIVE_ROTOR_COUNT>
7

> <PUBCHEM_PHARMACOPHORE_FEATURES>
11
1 1 acceptor
1 2 donor
1 3 acceptor
1 4 acceptor
1 5 donor
1 6 cation
1 6 donor
3 3 4 18 anion
5 6 7 9 12 13 rings
6 15 21 22 23 24 25 rings
6 9 12 16 17 19 20 rings

> <PUBCHEM_HEAVY_ATOM_COUNT>
25

> <PUBCHEM_ATOM_DEF_STEREO_COUNT>
1

> <PUBCHEM_ATOM_UDEF_STEREO_COUNT>
0

> <PUBCHEM_BOND_DEF_STEREO_COUNT>
0

> <PUBCHEM_BOND_UDEF_STEREO_COUNT>
0

> <PUBCHEM_ISOTOPIC_ATOM_COUNT>
0

> <PUBCHEM_COMPONENT_COUNT>
1

> <PUBCHEM_CACTVS_TAUTO_COUNT>
110

> <PUBCHEM_CONFORMER_ID>
0791465200000001

> <PUBCHEM_MMFF94_ENERGY>
48.7555

> <PUBCHEM_FEATURE_SELFOVERLAP>
55.967

> <PUBCHEM_SHAPE_FINGERPRINT>
10064457 181 18128548234830681481
104564 63 17044581704364291317
10675989 125 15236094396800478324
1100329 8 18197221570669508873
11513181 2 17195180652548575054
12156800 1 16041767511535338410
12422481 6 17835263486043275307
12596599 1 17417817171358613471
13140716 1 18125718143614304416
13402501 40 18408609171105988915
13911987 19 18408322211472216860
14223421 5 18118971291079299767
15209289 33 17917999398837395312
16728300 4 17606653891309664346
17492 54 18337939186549009343
19591789 44 18339929212575205934
23559900 14 17972315110087998566
238 59 18195783220603182181
3052486 1 18120108422520832894
35225 105 17532362256783881347
3524813 1 18341618152202359323
469060 322 18189880080234224535
5282274 181 18125166184392451225
6438718 38 17916302934401081646
81228 2 17620169358451466670

> <PUBCHEM_SHAPE_MULTIPOLES>
481.05
7.37
4.41
1.56
0.97
3.81
-0.06
-1.45
-1.35
1.31
0.25
-0.7
-0.62
1.16

> <PUBCHEM_SHAPE_SELFOVERLAP>
1043.055

> <PUBCHEM_SHAPE_VOLUME>
262.3

> <PUBCHEM_COORDINATE_TYPE>
2
5
10

$$$$
