126916
  -OEChem-03292013323D

 32 34  0     1  0  0  0  0  0999 V2000
    2.2127    2.9758    0.4954 F   0  0  0  0  0  0  0  0  0  0  0  0
   -1.7544    0.3599   -1.0749 O   0  0  0  0  0  0  0  0  0  0  0  0
   -2.4985   -2.3070    1.2107 O   0  0  0  0  0  0  0  0  0  0  0  0
   -4.4090   -0.9215   -0.1602 O   0  0  0  0  0  0  0  0  0  0  0  0
   -1.9258    3.1118   -0.5752 O   0  0  0  0  0  0  0  0  0  0  0  0
    0.6574   -2.2915   -0.5182 N   0  0  0  0  0  0  0  0  0  0  0  0
    1.9974   -2.2465   -0.3778 N   0  0  0  0  0  0  0  0  0  0  0  0
    0.9446    1.1244    0.0683 N   0  0  0  0  0  0  0  0  0  0  0  0
    3.4213    1.0411    0.3004 N   0  0  0  0  0  0  0  0  0  0  0  0
    4.7190   -0.9831    0.0982 N   0  0  0  0  0  0  0  0  0  0  0  0
   -2.1940   -0.9818    0.8248 C   0  0  1  0  0  0  0  0  0  0  0  0
   -1.4616   -0.9331   -0.5077 C   0  0  2  0  0  0  0  0  0  0  0  0
   -3.4304   -0.1511    0.5373 C   0  0  1  0  0  0  0  0  0  0  0  0
   -2.8893    0.9343   -0.3875 C   0  0  1  0  0  0  0  0  0  0  0  0
    0.0347   -1.0888   -0.3835 C   0  0  0  0  0  0  0  0  0  0  0  0
   -2.4176    2.1714    0.3635 C   0  0  0  0  0  0  0  0  0  0  0  0
    1.0425   -0.2067   -0.1393 C   0  0  0  0  0  0  0  0  0  0  0  0
    2.2706   -0.9520   -0.1392 C   0  0  0  0  0  0  0  0  0  0  0  0
    3.4916   -0.3028    0.0879 C   0  0  0  0  0  0  0  0  0  0  0  0
    2.1889    1.6472    0.2770 C   0  0  0  0  0  0  0  0  0  0  0  0
   -1.6081   -0.5074    1.6218 H   0  0  0  0  0  0  0  0  0  0  0  0
   -1.8468   -1.6922   -1.2008 H   0  0  0  0  0  0  0  0  0  0  0  0
   -3.9091    0.2393    1.4403 H   0  0  0  0  0  0  0  0  0  0  0  0
   -3.6139    1.2186   -1.1589 H   0  0  0  0  0  0  0  0  0  0  0  0
   -1.6061    1.9361    1.0586 H   0  0  0  0  0  0  0  0  0  0  0  0
   -3.2432    2.6290    0.9175 H   0  0  0  0  0  0  0  0  0  0  0  0
   -1.6577   -2.7841    1.3136 H   0  0  0  0  0  0  0  0  0  0  0  0
   -4.6430   -1.6735    0.4102 H   0  0  0  0  0  0  0  0  0  0  0  0
    0.2323   -3.1908   -0.7061 H   0  0  0  0  0  0  0  0  0  0  0  0
   -1.6329    3.8915   -0.0734 H   0  0  0  0  0  0  0  0  0  0  0  0
    4.7498   -1.9808   -0.0615 H   0  0  0  0  0  0  0  0  0  0  0  0
    5.5705   -0.4653    0.2674 H   0  0  0  0  0  0  0  0  0  0  0  0
  1 20  1  0  0  0  0
  2 12  1  0  0  0  0
  2 14  1  0  0  0  0
  3 11  1  0  0  0  0
  3 27  1  0  0  0  0
  4 13  1  0  0  0  0
  4 28  1  0  0  0  0
  5 16  1  0  0  0  0
  5 30  1  0  0  0  0
  6  7  1  0  0  0  0
  6 15  1  0  0  0  0
  6 29  1  0  0  0  0
  7 18  2  0  0  0  0
  8 17  1  0  0  0  0
  8 20  2  0  0  0  0
  9 19  2  0  0  0  0
  9 20  1  0  0  0  0
 10 19  1  0  0  0  0
 10 31  1  0  0  0  0
 10 32  1  0  0  0  0
 11 12  1  0  0  0  0
 11 13  1  0  0  0  0
 11 21  1  0  0  0  0
 12 15  1  0  0  0  0
 12 22  1  0  0  0  0
 13 14  1  0  0  0  0
 13 23  1  0  0  0  0
 14 16  1  0  0  0  0
 14 24  1  0  0  0  0
 15 17  2  0  0  0  0
 16 25  1  0  0  0  0
 16 26  1  0  0  0  0
 17 18  1  0  0  0  0
 18 19  1  0  0  0  0
M  END
> <PUBCHEM_COMPOUND_CID>
126916

> <PUBCHEM_CONFORMER_RMSD>
0.6

> <PUBCHEM_CONFORMER_DIVERSEORDER>
1
8
11
15
4
14
10
2
5
16
9
3
13
12
6
7

> <PUBCHEM_MMFF94_PARTIAL_CHARGES>
26
1 -0.19
10 -0.9
11 0.28
12 0.46
13 0.28
14 0.28
15 -0.33
16 0.28
17 0.26
18 0.29
19 0.41
2 -0.56
20 0.81
27 0.4
28 0.4
29 0.27
3 -0.68
30 0.4
31 0.4
32 0.4
4 -0.68
5 -0.68
6 0.3
7 -0.71
8 -0.57
9 -0.62

> <PUBCHEM_EFFECTIVE_ROTOR_COUNT>
3

> <PUBCHEM_PHARMACOPHORE_FEATURES>
15
1 10 donor
1 2 acceptor
1 3 acceptor
1 3 donor
1 4 acceptor
1 4 donor
1 5 acceptor
1 5 donor
1 6 donor
1 7 acceptor
3 8 9 20 cation
3 9 10 19 cation
5 2 11 12 13 14 rings
5 6 7 15 17 18 rings
6 8 9 17 18 19 20 rings

> <PUBCHEM_HEAVY_ATOM_COUNT>
20

> <PUBCHEM_ATOM_DEF_STEREO_COUNT>
4

> <PUBCHEM_ATOM_UDEF_STEREO_COUNT>
0

> <PUBCHEM_BOND_DEF_STEREO_COUNT>
0

> <PUBCHEM_BOND_UDEF_STEREO_COUNT>
0

> <PUBCHEM_ISOTOPIC_ATOM_COUNT>
0

> <PUBCHEM_COMPONENT_COUNT>
1

> <PUBCHEM_CACTVS_TAUTO_COUNT>
8

> <PUBCHEM_CONFORMER_ID>
0001EFC400000001

> <PUBCHEM_MMFF94_ENERGY>
49.9998

> <PUBCHEM_FEATURE_SELFOVERLAP>
76.374

> <PUBCHEM_SHAPE_FINGERPRINT>
10366900 7 18333740134098828587
10608611 8 18410573955260824901
10967382 1 18340204223114257660
11471102 20 18413386557686779774
12403259 226 18412541041549975080
12403260 363 18412254047524633615
12633257 1 18409177597073946523
13132413 78 18271524170321002084
13140716 1 18338802345894377467
14026960 21 18266744764619824066
14223421 5 18410579491489428731
15196674 1 18412544301525448976
15375462 6 18410858797518243415
15442244 35 18195526982880844922
15653759 3 18113619010135184970
16945 1 18412822490873212422
17802600 8 18412823586010530585
17804303 29 18408328773986396702
18186145 218 17917717945794158070
19049666 15 18264211300988257499
200 152 18131060555034789903
20510252 161 18337111164362445169
20681677 274 18262799686818937722
21524375 3 18130224972930818662
22182937 141 18126853690250406729
22854114 111 18342740753589850370
2334 1 17979915239296278100
23402539 116 18410287017687347431
23419403 2 16815996514479732599
23493267 7 18189333481374162602
23559900 14 18335134319190141153
2748010 2 18267302225583948716
3286 77 18335419079943511854
350125 39 18411141341762936900
351380 180 18410569595895510227
5104073 3 18411699889369125256
81228 2 17968672553178286675
8809292 202 18334017176732197170
9709674 26 18411705361416396567

> <PUBCHEM_SHAPE_MULTIPOLES>
355.93
7.06
2.87
0.82
1.58
1.5
0.04
-0.3
0.72
-0.24
0.13
-0.41
-0.13
0.81

> <PUBCHEM_SHAPE_SELFOVERLAP>
774.941

> <PUBCHEM_SHAPE_VOLUME>
193.6

> <PUBCHEM_COORDINATE_TYPE>
2
5
10

$$$$
