126963455
  -OEChem-03292013293D

 33 35  0     1  0  0  0  0  0999 V2000
   -2.1840    3.3509   -0.5705 Br  0  0  0  0  0  0  0  0  0  0  0  0
    2.1636    0.0051    1.0183 O   0  0  0  0  0  0  0  0  0  0  0  0
    2.1439   -2.7179   -0.7247 O   0  0  0  0  0  0  0  0  0  0  0  0
    2.5691    0.6715   -1.8760 O   0  0  0  0  0  0  0  0  0  0  0  0
    4.4890    1.3857    1.7575 O   0  0  0  0  0  0  0  0  0  0  0  0
   -0.1301   -0.0496    0.2013 N   0  0  0  0  0  0  0  0  0  0  0  0
   -1.6965   -1.8552    0.5185 N   0  0  0  0  0  0  0  0  0  0  0  0
   -4.0161   -1.1514    0.2919 N   0  0  0  0  0  0  0  0  0  0  0  0
   -4.6496    1.0869   -0.1913 N   0  0  0  0  0  0  0  0  0  0  0  0
    1.1540   -0.8231    0.4070 C   0  0  1  0  0  0  0  0  0  0  0  0
    1.7413   -1.3616   -0.9038 C   0  0  1  0  0  0  0  0  0  0  0  0
    2.9561   -0.4878   -1.1490 C   0  0  2  0  0  0  0  0  0  0  0  0
    3.3811   -0.1160    0.2652 C   0  0  1  0  0  0  0  0  0  0  0  0
    4.1782    1.1698    0.3904 C   0  0  0  0  0  0  0  0  0  0  0  0
   -1.3955   -0.5699    0.2642 C   0  0  0  0  0  0  0  0  0  0  0  0
   -0.2001    1.2913   -0.0774 C   0  0  0  0  0  0  0  0  0  0  0  0
   -2.2952    0.4605    0.0202 C   0  0  0  0  0  0  0  0  0  0  0  0
   -1.5300    1.6353   -0.1950 C   0  0  0  0  0  0  0  0  0  0  0  0
   -3.6485    0.1264    0.0414 C   0  0  0  0  0  0  0  0  0  0  0  0
   -3.0307   -2.0508    0.5119 C   0  0  0  0  0  0  0  0  0  0  0  0
    0.9029   -1.6172    1.1195 H   0  0  0  0  0  0  0  0  0  0  0  0
    1.0249   -1.3370   -1.7319 H   0  0  0  0  0  0  0  0  0  0  0  0
    3.7645   -0.9878   -1.6914 H   0  0  0  0  0  0  0  0  0  0  0  0
    3.9362   -0.9441    0.7245 H   0  0  0  0  0  0  0  0  0  0  0  0
    3.5968    2.0335    0.0524 H   0  0  0  0  0  0  0  0  0  0  0  0
    5.1096    1.1114   -0.1809 H   0  0  0  0  0  0  0  0  0  0  0  0
    0.6947    1.8924   -0.1681 H   0  0  0  0  0  0  0  0  0  0  0  0
    1.3438   -3.2340   -0.5266 H   0  0  0  0  0  0  0  0  0  0  0  0
    2.2596    0.3778   -2.7498 H   0  0  0  0  0  0  0  0  0  0  0  0
    5.0009    2.2109    1.8080 H   0  0  0  0  0  0  0  0  0  0  0  0
   -3.3584   -3.0657    0.7095 H   0  0  0  0  0  0  0  0  0  0  0  0
   -4.4046    2.0491   -0.3808 H   0  0  0  0  0  0  0  0  0  0  0  0
   -5.6194    0.8023   -0.1666 H   0  0  0  0  0  0  0  0  0  0  0  0
  1 18  1  0  0  0  0
  2 10  1  0  0  0  0
  2 13  1  0  0  0  0
  3 11  1  0  0  0  0
  3 28  1  0  0  0  0
  4 12  1  0  0  0  0
  4 29  1  0  0  0  0
  5 14  1  0  0  0  0
  5 30  1  0  0  0  0
  6 10  1  0  0  0  0
  6 15  1  0  0  0  0
  6 16  1  0  0  0  0
  7 15  2  0  0  0  0
  7 20  1  0  0  0  0
  8 19  1  0  0  0  0
  8 20  2  0  0  0  0
  9 19  1  0  0  0  0
  9 32  1  0  0  0  0
  9 33  1  0  0  0  0
 10 11  1  0  0  0  0
 10 21  1  0  0  0  0
 11 12  1  0  0  0  0
 11 22  1  0  0  0  0
 12 13  1  0  0  0  0
 12 23  1  0  0  0  0
 13 14  1  0  0  0  0
 13 24  1  0  0  0  0
 14 25  1  0  0  0  0
 14 26  1  0  0  0  0
 15 17  1  0  0  0  0
 16 18  2  0  0  0  0
 16 27  1  0  0  0  0
 17 18  1  0  0  0  0
 17 19  2  0  0  0  0
 20 31  1  0  0  0  0
M  END
> <PUBCHEM_COMPOUND_CID>
126963455

> <PUBCHEM_CONFORMER_RMSD>
0.6

> <PUBCHEM_CONFORMER_DIVERSEORDER>
1
14
9
6
8
7
11
3
15
2
5
10
12
4
13

> <PUBCHEM_MMFF94_PARTIAL_CHARGES>
26
1 -0.06
10 0.54
11 0.28
12 0.28
13 0.28
14 0.28
15 0.11
16 -0.3
18 0.06
19 0.41
2 -0.56
20 0.47
27 0.15
28 0.4
29 0.4
3 -0.68
30 0.4
31 0.15
32 0.4
33 0.4
4 -0.68
5 -0.68
6 0.05
7 -0.57
8 -0.62
9 -0.9

> <PUBCHEM_EFFECTIVE_ROTOR_COUNT>
3

> <PUBCHEM_PHARMACOPHORE_FEATURES>
15
1 1 hydrophobe
1 2 acceptor
1 3 acceptor
1 3 donor
1 4 acceptor
1 4 donor
1 5 acceptor
1 5 donor
1 9 cation
1 9 donor
3 6 7 15 cation
3 7 8 20 cation
5 2 10 11 12 13 rings
5 6 15 16 17 18 rings
6 7 8 15 17 19 20 rings

> <PUBCHEM_HEAVY_ATOM_COUNT>
20

> <PUBCHEM_ATOM_DEF_STEREO_COUNT>
4

> <PUBCHEM_ATOM_UDEF_STEREO_COUNT>
0

> <PUBCHEM_BOND_DEF_STEREO_COUNT>
0

> <PUBCHEM_BOND_UDEF_STEREO_COUNT>
0

> <PUBCHEM_ISOTOPIC_ATOM_COUNT>
0

> <PUBCHEM_COMPONENT_COUNT>
1

> <PUBCHEM_CACTVS_TAUTO_COUNT>
4

> <PUBCHEM_CONFORMER_ID>
07914EFF00000001

> <PUBCHEM_MMFF94_ENERGY>
46.5018

> <PUBCHEM_FEATURE_SELFOVERLAP>
76.404

> <PUBCHEM_SHAPE_FINGERPRINT>
10319926 262 18337934728836894256
10498660 4 18408047307589201157
10608611 8 18340767031486680512
10646746 165 18337106778958476460
10871710 139 16466983013915342536
11132069 177 18408605880939221193
11715629 250 18341891861957274508
12173636 292 18191302668150604261
12236239 1 17312821593776959952
12403259 415 18202560701209954960
12553582 1 18263660600597809247
13140716 1 18191310579321919393
13214271 11 18341044220107063831
13965767 371 17174044319500215468
14081887 123 18410289220309192489
14178342 30 18188206507635727392
15219456 202 18272653445713345730
15375358 24 18413385453732472163
16752209 62 18190177893588229901
16945 1 18336275578105879453
17134986 127 17468195544466374253
17980427 23 17968935426419796788
18186145 218 18054513504153510405
19049666 15 18198904708207516416
192875 21 16877939464534752356
19591789 44 16173712484702855445
19784866 170 18340770428758215618
20279233 1 18343586243593016827
20510252 161 18340485543931393673
20645477 56 18264491698107641833
20645477 70 17346318146396830926
20693207 138 18128836156690414918
20715895 44 17750498591109264781
23402539 116 18334005125122744094
23557571 272 18408891749730792140
23558518 356 18115595820567883963
23559900 14 18338241475011102126
2748010 2 18047196254476246701
296302 2 18130787888487227459
34934 24 18410285922191014475
350125 39 17903081036419866233
474 4 16444771534371212180
495365 180 17702932635300622499
5104073 3 18411984632985104035
58051976 378 18409164398396709397
59554788 281 17313104111887548251
6049 1 18201451229030526468
6913067 236 18200293541843827278
7364860 26 17977957009683606669
81228 2 18261125032147418201
9709674 26 18341334370749238903

> <PUBCHEM_SHAPE_MULTIPOLES>
374.13
8.11
2.73
1.11
1.33
0.92
-0.1
1.22
1.12
-1.74
-0.3
1.35
0.16
1.37

> <PUBCHEM_SHAPE_SELFOVERLAP>
796.784

> <PUBCHEM_SHAPE_VOLUME>
213.7

> <PUBCHEM_COORDINATE_TYPE>
2
5
10

$$$$
