126983
  -OEChem-03292013323D

 53 55  0     1  0  0  0  0  0999 V2000
    2.4604    0.8337   -2.1000 O   0  0  0  0  0  0  0  0  0  0  0  0
    2.5367    0.6603    3.2817 O   0  0  0  0  0  0  0  0  0  0  0  0
    4.1522    1.2989    1.8057 O   0  0  0  0  0  0  0  0  0  0  0  0
   -1.2295    3.3095    1.6999 O   0  0  0  0  0  0  0  0  0  0  0  0
   -3.7067    0.3879   -0.4870 O   0  0  0  0  0  0  0  0  0  0  0  0
    0.1430    4.6080    0.4600 O   0  0  0  0  0  0  0  0  0  0  0  0
   -3.1161    1.6928   -2.2823 O   0  0  0  0  0  0  0  0  0  0  0  0
    2.9872   -0.2727   -0.1148 N   0  0  0  0  0  0  0  0  0  0  0  0
   -1.9472    1.7717   -0.2793 N   0  0  0  0  0  0  0  0  0  0  0  0
    2.7415   -0.6046    1.3092 C   0  0  1  0  0  0  0  0  0  0  0  0
    3.5697   -1.8583    1.6299 C   0  0  0  0  0  0  0  0  0  0  0  0
    4.4940   -1.9196    0.4534 C   0  0  0  0  0  0  0  0  0  0  0  0
    4.1063   -1.0231   -0.5467 C   0  0  0  0  0  0  0  0  0  0  0  0
    2.2335    0.5749   -0.9172 C   0  0  0  0  0  0  0  0  0  0  0  0
    1.0341    1.2033   -0.2480 C   0  0  0  0  0  0  0  0  0  0  0  0
    0.2948    2.1051   -1.2258 C   0  0  0  0  0  0  0  0  0  0  0  0
    3.2391    0.5531    2.1274 C   0  0  0  0  0  0  0  0  0  0  0  0
    5.5685   -2.7776    0.2773 C   0  0  0  0  0  0  0  0  0  0  0  0
    4.7922   -0.9704   -1.7510 C   0  0  0  0  0  0  0  0  0  0  0  0
   -0.9662    2.7612   -0.6471 C   0  0  2  0  0  0  0  0  0  0  0  0
    6.2694   -2.7231   -0.9270 C   0  0  0  0  0  0  0  0  0  0  0  0
    5.8828   -1.8269   -1.9337 C   0  0  0  0  0  0  0  0  0  0  0  0
   -0.6081    3.6419    0.5425 C   0  0  0  0  0  0  0  0  0  0  0  0
   -2.9397    1.3204   -1.1270 C   0  0  0  0  0  0  0  0  0  0  0  0
   -4.7810   -0.1691   -1.2528 C   0  0  0  0  0  0  0  0  0  0  0  0
   -5.5175   -1.1677   -0.4091 C   0  0  0  0  0  0  0  0  0  0  0  0
   -5.1251   -2.5064   -0.4107 C   0  0  0  0  0  0  0  0  0  0  0  0
   -6.5943   -0.7577    0.3772 C   0  0  0  0  0  0  0  0  0  0  0  0
   -5.8095   -3.4348    0.3737 C   0  0  0  0  0  0  0  0  0  0  0  0
   -7.2785   -1.6861    1.1616 C   0  0  0  0  0  0  0  0  0  0  0  0
   -6.8861   -3.0247    1.1598 C   0  0  0  0  0  0  0  0  0  0  0  0
    1.6720   -0.7549    1.4848 H   0  0  0  0  0  0  0  0  0  0  0  0
    2.9318   -2.7487    1.6355 H   0  0  0  0  0  0  0  0  0  0  0  0
    4.1144   -1.7892    2.5766 H   0  0  0  0  0  0  0  0  0  0  0  0
    0.3702    0.4042    0.0972 H   0  0  0  0  0  0  0  0  0  0  0  0
    1.3712    1.7836    0.6153 H   0  0  0  0  0  0  0  0  0  0  0  0
    0.9745    2.8944   -1.5743 H   0  0  0  0  0  0  0  0  0  0  0  0
    0.0099    1.5273   -2.1155 H   0  0  0  0  0  0  0  0  0  0  0  0
    5.8562   -3.4817    1.0507 H   0  0  0  0  0  0  0  0  0  0  0  0
    4.5268   -0.2861   -2.5473 H   0  0  0  0  0  0  0  0  0  0  0  0
   -1.4179    3.4157   -1.4021 H   0  0  0  0  0  0  0  0  0  0  0  0
    7.1166   -3.3834   -1.0903 H   0  0  0  0  0  0  0  0  0  0  0  0
    6.4381   -1.7984   -2.8675 H   0  0  0  0  0  0  0  0  0  0  0  0
   -1.9060    1.3720    0.6537 H   0  0  0  0  0  0  0  0  0  0  0  0
    2.8475    1.4112    3.8311 H   0  0  0  0  0  0  0  0  0  0  0  0
   -0.9888    3.9158    2.4325 H   0  0  0  0  0  0  0  0  0  0  0  0
   -4.3817   -0.6547   -2.1519 H   0  0  0  0  0  0  0  0  0  0  0  0
   -5.4607    0.6303   -1.5730 H   0  0  0  0  0  0  0  0  0  0  0  0
   -4.2864   -2.8378   -1.0172 H   0  0  0  0  0  0  0  0  0  0  0  0
   -6.9080    0.2828    0.3886 H   0  0  0  0  0  0  0  0  0  0  0  0
   -5.5036   -4.4769    0.3730 H   0  0  0  0  0  0  0  0  0  0  0  0
   -8.1166   -1.3667    1.7743 H   0  0  0  0  0  0  0  0  0  0  0  0
   -7.4188   -3.7474    1.7709 H   0  0  0  0  0  0  0  0  0  0  0  0
  1 14  2  0  0  0  0
  2 17  1  0  0  0  0
  2 45  1  0  0  0  0
  3 17  2  0  0  0  0
  4 23  1  0  0  0  0
  4 46  1  0  0  0  0
  5 24  1  0  0  0  0
  5 25  1  0  0  0  0
  6 23  2  0  0  0  0
  7 24  2  0  0  0  0
  8 10  1  0  0  0  0
  8 13  1  0  0  0  0
  8 14  1  0  0  0  0
  9 20  1  0  0  0  0
  9 24  1  0  0  0  0
  9 44  1  0  0  0  0
 10 11  1  0  0  0  0
 10 17  1  0  0  0  0
 10 32  1  0  0  0  0
 11 12  1  0  0  0  0
 11 33  1  0  0  0  0
 11 34  1  0  0  0  0
 12 13  1  0  0  0  0
 12 18  2  0  0  0  0
 13 19  2  0  0  0  0
 14 15  1  0  0  0  0
 15 16  1  0  0  0  0
 15 35  1  0  0  0  0
 15 36  1  0  0  0  0
 16 20  1  0  0  0  0
 16 37  1  0  0  0  0
 16 38  1  0  0  0  0
 18 21  1  0  0  0  0
 18 39  1  0  0  0  0
 19 22  1  0  0  0  0
 19 40  1  0  0  0  0
 20 23  1  0  0  0  0
 20 41  1  0  0  0  0
 21 22  2  0  0  0  0
 21 42  1  0  0  0  0
 22 43  1  0  0  0  0
 25 26  1  0  0  0  0
 25 47  1  0  0  0  0
 25 48  1  0  0  0  0
 26 27  2  0  0  0  0
 26 28  1  0  0  0  0
 27 29  1  0  0  0  0
 27 49  1  0  0  0  0
 28 30  2  0  0  0  0
 28 50  1  0  0  0  0
 29 31  2  0  0  0  0
 29 51  1  0  0  0  0
 30 31  1  0  0  0  0
 30 52  1  0  0  0  0
 31 53  1  0  0  0  0
M  END
> <PUBCHEM_COMPOUND_CID>
126983

> <PUBCHEM_CONFORMER_RMSD>
1

> <PUBCHEM_CONFORMER_DIVERSEORDER>
1
15
89
37
146
99
95
20
81
156
136
147
160
26
94
159
74
107
38
13
139
54
91
121
86
87
119
141
118
135
67
11
21
140
125
63
80
51
161
113
59
8
42
10
14
19
75
48
157
116
130
155
112
138
60
88
47
23
123
25
104
151
84
69
34
105
120
27
142
29
39
92
7
61
101
55
78
16
93
134
22
145
40
83
62
58
65
122
148
57
64
30
2
12
41
111
163
132
73
108
137
131
114
68
133
31
102
96
158
149
45
144
24
32
72
9
152
49
153
53
143
18
77
127
109
115
124
46
85
82
154
3
162
50
36
35
110
126
6
90
129
28
103
100
117
71
128
17
98
52
97
56
5
150
70
79
4
33
106
76
44
66
43

> <PUBCHEM_MMFF94_PARTIAL_CHARGES>
42
1 -0.57
10 0.36
11 0.14
12 -0.14
13 0.12
14 0.57
15 0.06
17 0.66
18 -0.15
19 -0.15
2 -0.65
20 0.36
21 -0.15
22 -0.15
23 0.66
24 0.78
25 0.42
26 -0.14
27 -0.15
28 -0.15
29 -0.15
3 -0.57
30 -0.15
31 -0.15
39 0.15
4 -0.65
40 0.15
42 0.15
43 0.15
44 0.37
45 0.5
46 0.5
49 0.15
5 -0.43
50 0.15
51 0.15
52 0.15
53 0.15
6 -0.57
7 -0.57
8 -0.48
9 -0.73

> <PUBCHEM_EFFECTIVE_ROTOR_COUNT>
11.6

> <PUBCHEM_PHARMACOPHORE_FEATURES>
12
1 1 acceptor
1 2 acceptor
1 3 acceptor
1 4 acceptor
1 6 acceptor
1 7 acceptor
1 9 donor
3 2 3 17 anion
3 4 6 23 anion
5 8 10 11 12 13 rings
6 12 13 18 19 21 22 rings
6 26 27 28 29 30 31 rings

> <PUBCHEM_HEAVY_ATOM_COUNT>
31

> <PUBCHEM_ATOM_DEF_STEREO_COUNT>
2

> <PUBCHEM_ATOM_UDEF_STEREO_COUNT>
0

> <PUBCHEM_BOND_DEF_STEREO_COUNT>
0

> <PUBCHEM_BOND_UDEF_STEREO_COUNT>
0

> <PUBCHEM_ISOTOPIC_ATOM_COUNT>
0

> <PUBCHEM_COMPONENT_COUNT>
1

> <PUBCHEM_CACTVS_TAUTO_COUNT>
2

> <PUBCHEM_CONFORMER_ID>
0001F00700000001

> <PUBCHEM_MMFF94_ENERGY>
78.5943

> <PUBCHEM_FEATURE_SELFOVERLAP>
61.102

> <PUBCHEM_SHAPE_FINGERPRINT>
10074138 170 17843411683259424497
10169797 241 17677898009840570457
10622 236 17387676228852254194
11069576 57 15792558652946060658
11796584 16 17896578662261509909
12166972 35 17895202120736977175
12422481 6 13686304556114581387
12633257 1 16056585577981852308
131258 38 18045496679961975543
13673619 4 17917996040615717854
13690498 29 17749108860066836357
13782708 43 18200869561836878862
14068700 675 18261395516207697420
14251740 57 18410571829178121317
14251764 30 18411703179699292483
14420673 8 18335426777490608119
14950920 106 16271916143163985007
16120349 189 9439396917749132811
17134984 74 16298671680462359723
17138139 8 17821727221682198354
17909252 39 18409727331392399042
20775438 99 17686891027383175947
21716022 299 18042706042252162517
2260408 40 17987794249807007681
2748736 6 10375872944442986591
2838139 119 10159711183410040893
3004659 81 17822009822198666911
32027 91 18339073913241217167
3862424 121 17024331810555300867
439807 62 18040158414139563175
4408954 87 16108677480253946747
613672 6 18266714988070750477
6201320 77 15911101361271093606
7918774 8 18410851079847017505
7970288 3 18336547123007880383
9849439 229 10159703482391183117

> <PUBCHEM_SHAPE_MULTIPOLES>
586.92
18.74
4.73
2.19
20.13
2.79
-0.8
-24.83
0.35
2.54
-0.82
-2.38
0.53
2.54

> <PUBCHEM_SHAPE_SELFOVERLAP>
1253.504

> <PUBCHEM_SHAPE_VOLUME>
323.4

> <PUBCHEM_COORDINATE_TYPE>
2
5
10

$$$$
