126960
  -OEChem-03292013323D

 27 26  0     1  0  0  0  0  0999 V2000
    2.8896    0.8333   -0.3525 S   0  0  0  0  0  0  0  0  0  0  0  0
   -0.1191   -0.9678    2.3021 O   0  0  0  0  0  0  0  0  0  0  0  0
    1.5158    0.4995    0.4726 O   0  0  0  0  0  0  0  0  0  0  0  0
   -2.5040    0.3985    1.8582 O   0  0  0  0  0  0  0  0  0  0  0  0
   -2.8521    2.0462   -0.3257 O   0  0  0  0  0  0  0  0  0  0  0  0
   -2.0823   -1.0346   -1.7752 O   0  0  0  0  0  0  0  0  0  0  0  0
    1.8397   -2.5754   -0.7587 O   0  0  0  0  0  0  0  0  0  0  0  0
   -4.0183   -0.3925   -0.7727 O   0  0  0  0  0  0  0  0  0  0  0  0
    3.5760    2.0302    0.5179 O   0  0  0  0  0  0  0  0  0  0  0  0
    3.7545   -0.3280   -0.2565 O   0  0  0  0  0  0  0  0  0  0  0  0
    2.5359    1.3732   -1.6521 O   0  0  0  0  0  0  0  0  0  0  0  0
   -0.5468   -0.7066    0.9639 C   0  0  1  0  0  0  0  0  0  0  0  0
   -1.4203    0.5681    0.9417 C   0  0  1  0  0  0  0  0  0  0  0  0
    0.7076   -0.5973    0.0846 C   0  0  2  0  0  0  0  0  0  0  0  0
   -1.9903    0.9219   -0.4412 C   0  0  1  0  0  0  0  0  0  0  0  0
    1.5445   -1.8579    0.1919 C   0  0  0  0  0  0  0  0  0  0  0  0
   -2.8302   -0.2109   -0.9984 C   0  0  0  0  0  0  0  0  0  0  0  0
   -1.1363   -1.5829    0.6715 H   0  0  0  0  0  0  0  0  0  0  0  0
   -0.8466    1.4179    1.3309 H   0  0  0  0  0  0  0  0  0  0  0  0
    0.4256   -0.4725   -0.9660 H   0  0  0  0  0  0  0  0  0  0  0  0
   -1.1978    1.1858   -1.1486 H   0  0  0  0  0  0  0  0  0  0  0  0
    1.9072   -2.1088    1.2042 H   0  0  0  0  0  0  0  0  0  0  0  0
   -0.9163   -1.0196    2.8568 H   0  0  0  0  0  0  0  0  0  0  0  0
   -3.0364    1.2121    1.8346 H   0  0  0  0  0  0  0  0  0  0  0  0
   -3.1106    2.3119   -1.2250 H   0  0  0  0  0  0  0  0  0  0  0  0
   -2.6099   -1.7809   -2.1314 H   0  0  0  0  0  0  0  0  0  0  0  0
    2.9707    2.7651    0.7744 H   0  0  0  0  0  0  0  0  0  0  0  0
  1  3  1  0  0  0  0
  1  9  1  0  0  0  0
  1 10  2  0  0  0  0
  1 11  2  0  0  0  0
  2 12  1  0  0  0  0
  2 23  1  0  0  0  0
  3 14  1  0  0  0  0
  4 13  1  0  0  0  0
  4 24  1  0  0  0  0
  5 15  1  0  0  0  0
  5 25  1  0  0  0  0
  6 17  1  0  0  0  0
  6 26  1  0  0  0  0
  7 16  2  0  0  0  0
  8 17  2  0  0  0  0
  9 27  1  0  0  0  0
 12 13  1  0  0  0  0
 12 14  1  0  0  0  0
 12 18  1  0  0  0  0
 13 15  1  0  0  0  0
 13 19  1  0  0  0  0
 14 16  1  0  0  0  0
 14 20  1  0  0  0  0
 15 17  1  0  0  0  0
 15 21  1  0  0  0  0
 16 22  1  0  0  0  0
M  END
> <PUBCHEM_COMPOUND_CID>
126960

> <PUBCHEM_CONFORMER_RMSD>
0.8

> <PUBCHEM_CONFORMER_DIVERSEORDER>
1
14
2
15
25
20
19
23
10
28
34
6
8
32
30
16
27
9
18
17
11
31
24
3
12
33
5
4
7
26
29
21
22
13

> <PUBCHEM_MMFF94_PARTIAL_CHARGES>
23
1 1.67
10 -0.65
11 -0.65
12 0.28
13 0.28
14 0.34
15 0.34
16 0.45
17 0.66
2 -0.68
22 0.06
23 0.4
24 0.4
25 0.4
26 0.5
27 0.5
3 -0.46
4 -0.68
5 -0.68
6 -0.65
7 -0.57
8 -0.57
9 -0.68

> <PUBCHEM_EFFECTIVE_ROTOR_COUNT>
7

> <PUBCHEM_PHARMACOPHORE_FEATURES>
14
1 10 acceptor
1 11 acceptor
1 2 acceptor
1 2 donor
1 4 acceptor
1 4 donor
1 5 acceptor
1 5 donor
1 6 acceptor
1 7 acceptor
1 8 acceptor
1 9 acceptor
3 6 8 17 anion
4 1 9 10 11 anion

> <PUBCHEM_HEAVY_ATOM_COUNT>
17

> <PUBCHEM_ATOM_DEF_STEREO_COUNT>
4

> <PUBCHEM_ATOM_UDEF_STEREO_COUNT>
0

> <PUBCHEM_BOND_DEF_STEREO_COUNT>
0

> <PUBCHEM_BOND_UDEF_STEREO_COUNT>
0

> <PUBCHEM_ISOTOPIC_ATOM_COUNT>
0

> <PUBCHEM_COMPONENT_COUNT>
1

> <PUBCHEM_CACTVS_TAUTO_COUNT>
2

> <PUBCHEM_CONFORMER_ID>
0001EFF000000001

> <PUBCHEM_MMFF94_ENERGY>
24.8089

> <PUBCHEM_FEATURE_SELFOVERLAP>
71.196

> <PUBCHEM_SHAPE_FINGERPRINT>
11615756 56 17168136828080596940
124424 183 17022618655083925768
13296909 8 14562810018635387291
14115302 16 17487602032165417015
14181834 199 18339079285897417318
15375462 478 12179846082891837719
15775835 57 18343584031632105541
15852999 172 18041276659960737154
16752209 62 16343698777969761975
16945 1 18409453625894949265
18186145 218 17749669576078074255
18981168 100 17459496418561735134
19766037 51 15267060397501704055
20281407 28 12463577278742406096
20645476 183 17988637450665717583
20653085 51 18192150391572979345
20711985 344 15122953876675211331
20871999 31 15626234510983751265
21524375 3 18113892805926622104
21639500 275 18412267242133438114
21947302 44 17967535657733251090
22096605 113 18408881841204239056
232386 152 16486112995128774831
23419403 2 12024831517981394451
23532345 88 18339081463007954086
23557571 272 15554452881774801314
23598291 2 17914624855917771407
2748010 2 17459207229960949875
3082319 5 18343578512699187983
474 4 17894631439599771101
81228 2 17403191781635586122
83771 10 13110963145191948513

> <PUBCHEM_SHAPE_MULTIPOLES>
295.01
6.14
1.98
1.6
0.43
0.23
-0.38
-2.14
1.63
1.28
0.28
-0.78
0.27
-0.12

> <PUBCHEM_SHAPE_SELFOVERLAP>
571.937

> <PUBCHEM_SHAPE_VOLUME>
177.9

> <PUBCHEM_COORDINATE_TYPE>
2
5
10

$$$$
