126968903
  -OEChem-03292013293D

 54 59  0     1  0  0  0  0  0999 V2000
   -1.1218   -0.4208   -1.1856 O   0  0  0  0  0  0  0  0  0  0  0  0
    0.0347    2.6563   -0.5691 O   0  0  0  0  0  0  0  0  0  0  0  0
    0.6578   -1.9643   -1.6714 O   0  0  0  0  0  0  0  0  0  0  0  0
   -2.4161   -1.4435    1.3788 O   0  0  0  0  0  0  0  0  0  0  0  0
   -2.9613    2.0203    0.8958 O   0  0  0  0  0  0  0  0  0  0  0  0
    2.6799    2.9620    0.3660 O   0  0  0  0  0  0  0  0  0  0  0  0
    2.0772   -1.7565    1.5778 O   0  0  0  0  0  0  0  0  0  0  0  0
   -1.6368    2.3478   -2.1057 O   0  0  0  0  0  0  0  0  0  0  0  0
    1.9417   -3.5663   -0.6458 O   0  0  0  0  0  0  0  0  0  0  0  0
   -3.8486   -2.5371   -0.0448 O   0  0  0  0  0  0  0  0  0  0  0  0
   -0.1386    0.6508    0.6612 C   0  0  2  0  0  0  0  0  0  0  0  0
    0.9248   -0.2624   -0.0108 C   0  0  2  0  0  0  0  0  0  0  0  0
   -1.2871    0.7114   -0.3351 C   0  0  2  0  0  0  0  0  0  0  0  0
    0.4384    2.0568    0.6705 C   0  0  1  0  0  0  0  0  0  0  0  0
    2.1733    0.6504   -0.2281 C   0  0  1  0  0  0  0  0  0  0  0  0
   -2.5836    0.7118    0.4948 C   0  0  1  0  0  0  0  0  0  0  0  0
   -0.7394    0.2461    2.0173 C   0  0  0  0  0  0  0  0  0  0  0  0
    0.2853   -0.6198   -1.3565 C   0  0  2  0  0  0  0  0  0  0  0  0
    1.9414    1.8151    0.7408 C   0  0  1  0  0  0  0  0  0  0  0  0
   -2.2057   -0.0762    1.7393 C   0  0  2  0  0  0  0  0  0  0  0  0
    1.0886   -1.6550    0.5939 C   0  0  1  0  0  0  0  0  0  0  0  0
   -1.0257    1.9841   -1.1125 C   0  0  0  0  0  0  0  0  0  0  0  0
    3.5640    0.0444   -0.0876 C   0  0  0  0  0  0  0  0  0  0  0  0
   -3.7785   -0.0970    0.0060 C   0  0  2  0  0  0  0  0  0  0  0  0
    1.3205   -2.5168   -0.6131 C   0  0  0  0  0  0  0  0  0  0  0  0
   -3.3834   -1.5016    0.4047 C   0  0  0  0  0  0  0  0  0  0  0  0
    4.5592    0.8004   -0.9871 C   0  0  0  0  0  0  0  0  0  0  0  0
    4.0343    0.1440    1.3752 C   0  0  0  0  0  0  0  0  0  0  0  0
    3.5356   -1.4370   -0.5056 C   0  0  0  0  0  0  0  0  0  0  0  0
   -4.1298    0.0530   -1.4632 C   0  0  0  0  0  0  0  0  0  0  0  0
    0.0923    2.7128    1.4756 H   0  0  0  0  0  0  0  0  0  0  0  0
    2.1170    1.0722   -1.2423 H   0  0  0  0  0  0  0  0  0  0  0  0
   -0.6996    1.0922    2.7141 H   0  0  0  0  0  0  0  0  0  0  0  0
   -0.2232   -0.5782    2.5124 H   0  0  0  0  0  0  0  0  0  0  0  0
    0.6098    0.0088   -2.1925 H   0  0  0  0  0  0  0  0  0  0  0  0
    2.1656    1.5825    1.7847 H   0  0  0  0  0  0  0  0  0  0  0  0
   -2.8177    0.1480    2.6213 H   0  0  0  0  0  0  0  0  0  0  0  0
    0.1501   -2.0297    1.0159 H   0  0  0  0  0  0  0  0  0  0  0  0
   -4.6696    0.1611    0.5942 H   0  0  0  0  0  0  0  0  0  0  0  0
   -3.7186    1.9532    1.5017 H   0  0  0  0  0  0  0  0  0  0  0  0
    2.4026    3.6914    0.9460 H   0  0  0  0  0  0  0  0  0  0  0  0
    4.4112    1.1506    1.5988 H   0  0  0  0  0  0  0  0  0  0  0  0
    3.0845   -1.5804   -1.4892 H   0  0  0  0  0  0  0  0  0  0  0  0
    3.5490   -2.2174    0.2492 H   0  0  0  0  0  0  0  0  0  0  0  0
    4.5801   -1.6333   -0.8221 H   0  0  0  0  0  0  0  0  0  0  0  0
    4.6135    1.8655   -0.7442 H   0  0  0  0  0  0  0  0  0  0  0  0
    5.5741    0.4001   -0.8777 H   0  0  0  0  0  0  0  0  0  0  0  0
    3.3066   -0.0903    2.1504 H   0  0  0  0  0  0  0  0  0  0  0  0
    4.8906   -0.5235    1.5380 H   0  0  0  0  0  0  0  0  0  0  0  0
    4.2837    0.7132   -2.0444 H   0  0  0  0  0  0  0  0  0  0  0  0
   -3.3802   -0.3847   -2.1273 H   0  0  0  0  0  0  0  0  0  0  0  0
   -4.2605    1.1067   -1.7282 H   0  0  0  0  0  0  0  0  0  0  0  0
   -5.0716   -0.4647   -1.6777 H   0  0  0  0  0  0  0  0  0  0  0  0
    2.0369   -2.6551    1.9475 H   0  0  0  0  0  0  0  0  0  0  0  0
  1 13  1  0  0  0  0
  1 18  1  0  0  0  0
  2 14  1  0  0  0  0
  2 22  1  0  0  0  0
  3 18  1  0  0  0  0
  3 25  1  0  0  0  0
  4 20  1  0  0  0  0
  4 26  1  0  0  0  0
  5 16  1  0  0  0  0
  5 40  1  0  0  0  0
  6 19  1  0  0  0  0
  6 41  1  0  0  0  0
  7 21  1  0  0  0  0
  7 54  1  0  0  0  0
  8 22  2  0  0  0  0
  9 25  2  0  0  0  0
 10 26  2  0  0  0  0
 11 12  1  0  0  0  0
 11 13  1  0  0  0  0
 11 14  1  0  0  0  0
 11 17  1  0  0  0  0
 12 15  1  0  0  0  0
 12 18  1  0  0  0  0
 12 21  1  0  0  0  0
 13 16  1  0  0  0  0
 13 22  1  0  0  0  0
 14 19  1  0  0  0  0
 14 31  1  0  0  0  0
 15 19  1  0  0  0  0
 15 23  1  0  0  0  0
 15 32  1  0  0  0  0
 16 20  1  0  0  0  0
 16 24  1  0  0  0  0
 17 20  1  0  0  0  0
 17 33  1  0  0  0  0
 17 34  1  0  0  0  0
 18 35  1  0  0  0  0
 19 36  1  0  0  0  0
 20 37  1  0  0  0  0
 21 25  1  0  0  0  0
 21 38  1  0  0  0  0
 23 27  1  0  0  0  0
 23 28  1  0  0  0  0
 23 29  1  0  0  0  0
 24 26  1  0  0  0  0
 24 30  1  0  0  0  0
 24 39  1  0  0  0  0
 27 46  1  0  0  0  0
 27 47  1  0  0  0  0
 27 50  1  0  0  0  0
 28 42  1  0  0  0  0
 28 48  1  0  0  0  0
 28 49  1  0  0  0  0
 29 43  1  0  0  0  0
 29 44  1  0  0  0  0
 29 45  1  0  0  0  0
 30 51  1  0  0  0  0
 30 52  1  0  0  0  0
 30 53  1  0  0  0  0
M  END
> <PUBCHEM_COMPOUND_CID>
126968903

> <PUBCHEM_CONFORMER_RMSD>
0.8

> <PUBCHEM_CONFORMER_DIVERSEORDER>
1
2

> <PUBCHEM_MMFF94_PARTIAL_CHARGES>
24
1 -0.56
10 -0.57
13 0.34
14 0.28
16 0.28
18 0.56
19 0.28
2 -0.43
20 0.28
21 0.34
22 0.66
24 0.06
25 0.66
26 0.66
3 -0.43
4 -0.43
40 0.4
41 0.4
5 -0.68
54 0.4
6 -0.68
7 -0.68
8 -0.57
9 -0.57

> <PUBCHEM_EFFECTIVE_ROTOR_COUNT>
2.8

> <PUBCHEM_PHARMACOPHORE_FEATURES>
17
1 1 acceptor
1 10 acceptor
1 5 acceptor
1 5 donor
1 6 acceptor
1 6 donor
1 7 acceptor
1 7 donor
1 8 acceptor
1 9 acceptor
4 23 27 28 29 hydrophobe
5 1 11 12 13 18 rings
5 11 12 14 15 19 rings
5 11 13 16 17 20 rings
5 2 11 13 14 22 rings
5 3 12 18 21 25 rings
5 4 16 20 24 26 rings

> <PUBCHEM_HEAVY_ATOM_COUNT>
30

> <PUBCHEM_ATOM_DEF_STEREO_COUNT>
10

> <PUBCHEM_ATOM_UDEF_STEREO_COUNT>
1

> <PUBCHEM_BOND_DEF_STEREO_COUNT>
0

> <PUBCHEM_BOND_UDEF_STEREO_COUNT>
0

> <PUBCHEM_ISOTOPIC_ATOM_COUNT>
0

> <PUBCHEM_COMPONENT_COUNT>
1

> <PUBCHEM_CACTVS_TAUTO_COUNT>
4

> <PUBCHEM_CONFORMER_ID>
0791644700000001

> <PUBCHEM_MMFF94_ENERGY>
175.0785

> <PUBCHEM_FEATURE_SELFOVERLAP>
89.515

> <PUBCHEM_SHAPE_FINGERPRINT>
10366900 7 18259988162783123684
10863032 1 18199752453268609593
10906281 52 18260561004204912165
10948715 1 18341615970348384416
11578080 2 17314504833819118428
12011746 2 18409451413981608063
12553582 1 18337395937304411441
12592029 89 18343301474370933594
12633257 1 18261673653878742528
13140716 1 18197490938223180498
13224815 77 18341614780816367146
14223421 5 18410856520990365166
14787075 74 18261965153794359626
14790565 3 18268721661295663152
16945 1 18271820041737672297
17492 54 18044385039419797702
19591789 44 18341617065907780414
20028762 73 17772472536558428870
20600515 1 16370732547038461991
20691752 17 18114761342639786203
20905425 154 18335700477769099050
21285901 2 18115301173242916629
23559900 14 18119808015418101266
238 59 18193246707323029620
2748010 2 18191029112697649368
296302 2 16153429454112743810
392239 28 17273971518256043634
46194498 28 17536854939538107687
469060 322 18125692790280230406
5845 1 18049194127017374921
70251023 43 17980484455892600327

> <PUBCHEM_SHAPE_MULTIPOLES>
558.69
6.75
3.03
1.64
0.24
0.55
-0.05
0.89
0.22
0.72
0.54
-0.45
-0.1
0.54

> <PUBCHEM_SHAPE_SELFOVERLAP>
1287.058

> <PUBCHEM_SHAPE_VOLUME>
288.4

> <PUBCHEM_COORDINATE_TYPE>
2
5
10

$$$$
