126945
  -OEChem-03292013323D

 36 37  0     1  0  0  0  0  0999 V2000
    1.7714   -0.6073   -0.9398 O   0  0  0  0  0  0  0  0  0  0  0  0
    1.3874    2.3502    1.0667 O   0  0  0  0  0  0  0  0  0  0  0  0
    3.5464    1.8328   -0.5006 O   0  0  0  0  0  0  0  0  0  0  0  0
    3.2301   -2.9055   -0.2665 O   0  0  0  0  0  0  0  0  0  0  0  0
   -4.6625   -0.6675    1.1582 O   0  0  0  0  0  0  0  0  0  0  0  0
   -0.3838    0.0107   -0.1631 N   0  0  0  0  0  0  0  0  0  0  0  0
   -2.0273   -1.3716    0.4139 N   0  0  0  0  0  0  0  0  0  0  0  0
    0.9742    0.4790   -0.4304 C   0  0  1  0  0  0  0  0  0  0  0  0
    1.7036    0.9993    0.7988 C   0  0  1  0  0  0  0  0  0  0  0  0
    3.1517    0.7966    0.3985 C   0  0  1  0  0  0  0  0  0  0  0  0
    3.0962   -0.5226   -0.3655 C   0  0  1  0  0  0  0  0  0  0  0  0
    3.3100   -1.7358    0.5289 C   0  0  0  0  0  0  0  0  0  0  0  0
   -1.5414    0.7306   -0.2805 C   0  0  0  0  0  0  0  0  0  0  0  0
   -0.7282   -1.2460    0.2567 C   0  0  0  0  0  0  0  0  0  0  0  0
   -2.5401   -0.1431    0.0803 C   0  0  0  0  0  0  0  0  0  0  0  0
   -1.5768    2.1386   -0.7144 C   0  0  0  0  0  0  0  0  0  0  0  0
   -3.9908    0.0966    0.1358 C   0  0  1  0  0  0  0  0  0  0  0  0
   -4.7199   -0.2348   -1.1771 C   0  0  0  0  0  0  0  0  0  0  0  0
    0.9098    1.2320   -1.2236 H   0  0  0  0  0  0  0  0  0  0  0  0
    1.4662    0.4008    1.6859 H   0  0  0  0  0  0  0  0  0  0  0  0
    3.8426    0.8073    1.2462 H   0  0  0  0  0  0  0  0  0  0  0  0
    3.8024   -0.5487   -1.2031 H   0  0  0  0  0  0  0  0  0  0  0  0
    2.5467   -1.8119    1.3096 H   0  0  0  0  0  0  0  0  0  0  0  0
    4.2959   -1.7075    1.0021 H   0  0  0  0  0  0  0  0  0  0  0  0
    0.0003   -2.0247    0.4367 H   0  0  0  0  0  0  0  0  0  0  0  0
    1.6482    2.8791    0.2936 H   0  0  0  0  0  0  0  0  0  0  0  0
    4.4612    1.6471   -0.7732 H   0  0  0  0  0  0  0  0  0  0  0  0
   -2.6043    2.5075   -0.7907 H   0  0  0  0  0  0  0  0  0  0  0  0
   -1.0516    2.7825   -0.0032 H   0  0  0  0  0  0  0  0  0  0  0  0
   -1.1189    2.2593   -1.7012 H   0  0  0  0  0  0  0  0  0  0  0  0
   -4.1829    1.1466    0.3822 H   0  0  0  0  0  0  0  0  0  0  0  0
    2.3516   -2.9169   -0.6837 H   0  0  0  0  0  0  0  0  0  0  0  0
   -4.6078   -1.2954   -1.4303 H   0  0  0  0  0  0  0  0  0  0  0  0
   -4.3276    0.3592   -2.0087 H   0  0  0  0  0  0  0  0  0  0  0  0
   -5.7936   -0.0406   -1.0802 H   0  0  0  0  0  0  0  0  0  0  0  0
   -4.5176   -1.6096    0.9637 H   0  0  0  0  0  0  0  0  0  0  0  0
  1  8  1  0  0  0  0
  1 11  1  0  0  0  0
  2  9  1  0  0  0  0
  2 26  1  0  0  0  0
  3 10  1  0  0  0  0
  3 27  1  0  0  0  0
  4 12  1  0  0  0  0
  4 32  1  0  0  0  0
  5 17  1  0  0  0  0
  5 36  1  0  0  0  0
  6  8  1  0  0  0  0
  6 13  1  0  0  0  0
  6 14  1  0  0  0  0
  7 14  2  0  0  0  0
  7 15  1  0  0  0  0
  8  9  1  0  0  0  0
  8 19  1  0  0  0  0
  9 10  1  0  0  0  0
  9 20  1  0  0  0  0
 10 11  1  0  0  0  0
 10 21  1  0  0  0  0
 11 12  1  0  0  0  0
 11 22  1  0  0  0  0
 12 23  1  0  0  0  0
 12 24  1  0  0  0  0
 13 15  2  0  0  0  0
 13 16  1  0  0  0  0
 14 25  1  0  0  0  0
 15 17  1  0  0  0  0
 16 28  1  0  0  0  0
 16 29  1  0  0  0  0
 16 30  1  0  0  0  0
 17 18  1  0  0  0  0
 17 31  1  0  0  0  0
 18 33  1  0  0  0  0
 18 34  1  0  0  0  0
 18 35  1  0  0  0  0
M  END
> <PUBCHEM_COMPOUND_CID>
126945

> <PUBCHEM_CONFORMER_RMSD>
0.6

> <PUBCHEM_CONFORMER_DIVERSEORDER>
5
48
10
47
42
25
27
7
50
38
33
13
3
46
43
37
32
28
9
30
41
40
26
12
49
44
45
4
35
22
23
36
31
11
2
21
6
34
18
15
16
8
39
29
20
24
1
19
14
17

> <PUBCHEM_MMFF94_PARTIAL_CHARGES>
22
1 -0.56
10 0.28
11 0.28
12 0.28
13 -0.33
14 0.04
15 0.05
16 0.18
17 0.46
2 -0.68
25 0.15
26 0.4
27 0.4
3 -0.68
32 0.4
36 0.4
4 -0.68
5 -0.68
6 0.05
7 -0.57
8 0.54
9 0.28

> <PUBCHEM_EFFECTIVE_ROTOR_COUNT>
4

> <PUBCHEM_PHARMACOPHORE_FEATURES>
12
1 1 acceptor
1 2 acceptor
1 2 donor
1 3 acceptor
1 3 donor
1 4 acceptor
1 4 donor
1 5 acceptor
1 5 donor
3 6 7 14 cation
5 1 8 9 10 11 rings
5 6 7 13 14 15 rings

> <PUBCHEM_HEAVY_ATOM_COUNT>
18

> <PUBCHEM_ATOM_DEF_STEREO_COUNT>
5

> <PUBCHEM_ATOM_UDEF_STEREO_COUNT>
0

> <PUBCHEM_BOND_DEF_STEREO_COUNT>
0

> <PUBCHEM_BOND_UDEF_STEREO_COUNT>
0

> <PUBCHEM_ISOTOPIC_ATOM_COUNT>
0

> <PUBCHEM_COMPONENT_COUNT>
1

> <PUBCHEM_CACTVS_TAUTO_COUNT>
1

> <PUBCHEM_CONFORMER_ID>
0001EFE100000005

> <PUBCHEM_MMFF94_ENERGY>
32.7989

> <PUBCHEM_FEATURE_SELFOVERLAP>
60.914

> <PUBCHEM_SHAPE_FINGERPRINT>
10366900 7 18341893055810580688
11471102 20 18342737446554898060
12032990 46 18259991478909339411
12403259 226 18337666417344257229
12507560 14 18059571343498486454
13140716 1 17981882257251567352
13296908 3 18114181969063454795
13675066 3 17894633681983948003
14252887 29 18187091688565154201
14866123 147 16901310365772532458
15219456 202 18410569574225553396
15375358 24 18187361090241037569
15375462 6 18408322198550001500
15442244 35 18268996379976879472
16945 1 18268699666567004696
17804303 29 18264213525623002934
18186145 218 18131354128733659639
19026448 5 17275386525707392015
19049666 15 18338790113927751632
19784866 170 18191587656215325304
200 152 17917701393000729565
20281475 54 18413388752393988487
20510252 161 18408603639241138465
20528008 55 18411415154802425389
20559304 39 18412824677433442224
20645477 70 18409726248833702367
21501502 16 18342181016214359904
23402539 116 18412252939892472613
23493267 7 16877940491448550473
23557571 272 17530955869885113980
23559900 14 18334011709513155364
31174 14 18341608243633725000
312423 11 18337967687693437708
3286 77 18060127730936986825
45790113 53 18340484469687948335
5104073 3 18409167675784038385
633830 44 18113611266757445775
69090 78 18343294890545018391
7364860 26 18410855465103669550
9709674 26 18335703823248377458

> <PUBCHEM_SHAPE_MULTIPOLES>
331.12
8.24
2.21
0.96
5.32
0.1
0.03
2.07
-0.19
-2.17
0.07
0.35
-0.1
0.56

> <PUBCHEM_SHAPE_SELFOVERLAP>
689.278

> <PUBCHEM_SHAPE_VOLUME>
191.6

> <PUBCHEM_COORDINATE_TYPE>
2
5
10

$$$$
