127025611
  -OEChem-03292013293D

 71 72  0     1  0  0  0  0  0999 V2000
    5.9772   -2.6372    1.7989 O   0  0  0  0  0  0  0  0  0  0  0  0
    5.0954    2.3240   -1.1021 O   0  0  0  0  0  0  0  0  0  0  0  0
    2.9906    3.8468   -0.1221 O   0  0  0  0  0  0  0  0  0  0  0  0
   -5.0580   -1.0775    2.0631 O   0  0  0  0  0  0  0  0  0  0  0  0
   -6.2419    2.0350    0.5290 O   0  0  0  0  0  0  0  0  0  0  0  0
   -5.8567   -0.0119   -1.3431 O   0  0  0  0  0  0  0  0  0  0  0  0
   -6.3793   -2.8259    0.0035 O   0  0  0  0  0  0  0  0  0  0  0  0
    5.2217    0.1741   -0.2568 N   0  0  0  0  0  0  0  0  0  0  0  0
    7.1317   -1.0128    0.4306 C   0  0  2  0  0  0  0  0  0  0  0  0
    5.9297   -1.9541    0.5572 C   0  0  2  0  0  0  0  0  0  0  0  0
    4.7225   -1.0031    0.4881 C   0  0  2  0  0  0  0  0  0  0  0  0
    6.6362    0.0181   -0.5749 C   0  0  0  0  0  0  0  0  0  0  0  0
    8.4038   -1.7181   -0.0098 C   0  0  0  0  0  0  0  0  0  0  0  0
    3.5684   -1.6545   -0.2291 C   0  0  0  0  0  0  0  0  0  0  0  0
    4.5625    1.3745   -0.5245 C   0  0  0  0  0  0  0  0  0  0  0  0
    3.1107    1.4318   -0.0986 C   0  0  0  0  0  0  0  0  0  0  0  0
    2.3676   -1.8380    0.3455 C   0  0  0  0  0  0  0  0  0  0  0  0
    2.4054    2.7700   -0.1633 C   0  0  0  0  0  0  0  0  0  0  0  0
    1.2083   -2.3187   -0.3773 C   0  0  0  0  0  0  0  0  0  0  0  0
   -0.0736   -2.3257    0.0494 C   0  0  0  0  0  0  0  0  0  0  0  0
    0.9164    2.6783   -0.2293 C   0  0  0  0  0  0  0  0  0  0  0  0
   -0.5235   -1.8698    1.4161 C   0  0  0  0  0  0  0  0  0  0  0  0
    0.1244    3.7582   -0.1749 C   0  0  0  0  0  0  0  0  0  0  0  0
   -1.1165   -2.7591   -0.8872 C   0  0  0  0  0  0  0  0  0  0  0  0
   -5.6907   -0.2795    1.0608 C   0  0  1  0  0  0  0  0  0  0  0  0
   -5.4485    1.2150    1.3802 C   0  0  1  0  0  0  0  0  0  0  0  0
   -5.1887   -0.7361   -0.3210 C   0  0  1  0  0  0  0  0  0  0  0  0
   -1.3354    3.6840   -0.2399 C   0  0  0  0  0  0  0  0  0  0  0  0
   -2.4441   -2.6973   -0.6882 C   0  0  0  0  0  0  0  0  0  0  0  0
   -3.9893    1.5990    1.3072 C   0  0  0  0  0  0  0  0  0  0  0  0
   -5.4866   -2.2131   -0.5805 C   0  0  0  0  0  0  0  0  0  0  0  0
   -2.0118    2.7830    0.5020 C   0  0  0  0  0  0  0  0  0  0  0  0
   -3.4393    2.5362    0.5175 C   0  0  0  0  0  0  0  0  0  0  0  0
   -1.9458    4.6984   -1.1684 C   0  0  0  0  0  0  0  0  0  0  0  0
   -3.4078   -3.0881   -1.6953 C   0  0  0  0  0  0  0  0  0  0  0  0
   -4.7352   -2.9060   -1.6625 C   0  0  0  0  0  0  0  0  0  0  0  0
    7.3229   -0.5244    1.3960 H   0  0  0  0  0  0  0  0  0  0  0  0
    5.9232   -2.6965   -0.2502 H   0  0  0  0  0  0  0  0  0  0  0  0
    4.4273   -0.6609    1.4874 H   0  0  0  0  0  0  0  0  0  0  0  0
    7.1704    0.9702   -0.4996 H   0  0  0  0  0  0  0  0  0  0  0  0
    6.7019   -0.3437   -1.6074 H   0  0  0  0  0  0  0  0  0  0  0  0
    8.2686   -2.2266   -0.9704 H   0  0  0  0  0  0  0  0  0  0  0  0
    8.7072   -2.4673    0.7286 H   0  0  0  0  0  0  0  0  0  0  0  0
    9.2230   -1.0003   -0.1213 H   0  0  0  0  0  0  0  0  0  0  0  0
    3.7172   -1.9183   -1.2743 H   0  0  0  0  0  0  0  0  0  0  0  0
    5.9795   -1.9766    2.5122 H   0  0  0  0  0  0  0  0  0  0  0  0
    3.0210    1.0862    0.9361 H   0  0  0  0  0  0  0  0  0  0  0  0
    2.5700    0.7573   -0.7702 H   0  0  0  0  0  0  0  0  0  0  0  0
    2.2447   -1.5404    1.3808 H   0  0  0  0  0  0  0  0  0  0  0  0
    1.4212   -2.6511   -1.3938 H   0  0  0  0  0  0  0  0  0  0  0  0
    0.4992    1.6789   -0.3132 H   0  0  0  0  0  0  0  0  0  0  0  0
   -1.0979   -2.6595    1.9137 H   0  0  0  0  0  0  0  0  0  0  0  0
   -1.1517   -0.9755    1.3350 H   0  0  0  0  0  0  0  0  0  0  0  0
    0.2974   -1.6196    2.0909 H   0  0  0  0  0  0  0  0  0  0  0  0
    0.5502    4.7559   -0.1093 H   0  0  0  0  0  0  0  0  0  0  0  0
   -0.7600   -3.1258   -1.8499 H   0  0  0  0  0  0  0  0  0  0  0  0
   -6.7721   -0.4578    1.1292 H   0  0  0  0  0  0  0  0  0  0  0  0
   -5.7718    1.4101    2.4105 H   0  0  0  0  0  0  0  0  0  0  0  0
   -4.1158   -0.5573   -0.4147 H   0  0  0  0  0  0  0  0  0  0  0  0
   -2.8413   -2.3300    0.2521 H   0  0  0  0  0  0  0  0  0  0  0  0
   -3.3386    1.0343    1.9745 H   0  0  0  0  0  0  0  0  0  0  0  0
   -1.4413    2.1295    1.1632 H   0  0  0  0  0  0  0  0  0  0  0  0
   -4.0687    3.1090   -0.1532 H   0  0  0  0  0  0  0  0  0  0  0  0
   -3.0375    4.6689   -1.1893 H   0  0  0  0  0  0  0  0  0  0  0  0
   -1.6611    5.7132   -0.8680 H   0  0  0  0  0  0  0  0  0  0  0  0
   -1.5965    4.5332   -2.1938 H   0  0  0  0  0  0  0  0  0  0  0  0
   -3.0038   -3.6037   -2.5653 H   0  0  0  0  0  0  0  0  0  0  0  0
   -5.3492   -3.3110   -2.4620 H   0  0  0  0  0  0  0  0  0  0  0  0
   -5.3656   -1.9932    1.9553 H   0  0  0  0  0  0  0  0  0  0  0  0
   -7.1709    1.7760    0.6531 H   0  0  0  0  0  0  0  0  0  0  0  0
   -6.8144   -0.0953   -1.1965 H   0  0  0  0  0  0  0  0  0  0  0  0
  1 10  1  0  0  0  0
  1 46  1  0  0  0  0
  2 15  2  0  0  0  0
  3 18  2  0  0  0  0
  4 25  1  0  0  0  0
  4 69  1  0  0  0  0
  5 26  1  0  0  0  0
  5 70  1  0  0  0  0
  6 27  1  0  0  0  0
  6 71  1  0  0  0  0
  7 31  2  0  0  0  0
  8 11  1  0  0  0  0
  8 12  1  0  0  0  0
  8 15  1  0  0  0  0
  9 10  1  0  0  0  0
  9 12  1  0  0  0  0
  9 13  1  0  0  0  0
  9 37  1  0  0  0  0
 10 11  1  0  0  0  0
 10 38  1  0  0  0  0
 11 14  1  0  0  0  0
 11 39  1  0  0  0  0
 12 40  1  0  0  0  0
 12 41  1  0  0  0  0
 13 42  1  0  0  0  0
 13 43  1  0  0  0  0
 13 44  1  0  0  0  0
 14 17  2  0  0  0  0
 14 45  1  0  0  0  0
 15 16  1  0  0  0  0
 16 18  1  0  0  0  0
 16 47  1  0  0  0  0
 16 48  1  0  0  0  0
 17 19  1  0  0  0  0
 17 49  1  0  0  0  0
 18 21  1  0  0  0  0
 19 20  2  0  0  0  0
 19 50  1  0  0  0  0
 20 22  1  0  0  0  0
 20 24  1  0  0  0  0
 21 23  2  0  0  0  0
 21 51  1  0  0  0  0
 22 52  1  0  0  0  0
 22 53  1  0  0  0  0
 22 54  1  0  0  0  0
 23 28  1  0  0  0  0
 23 55  1  0  0  0  0
 24 29  2  0  0  0  0
 24 56  1  0  0  0  0
 25 26  1  0  0  0  0
 25 27  1  0  0  0  0
 25 57  1  0  0  0  0
 26 30  1  0  0  0  0
 26 58  1  0  0  0  0
 27 31  1  0  0  0  0
 27 59  1  0  0  0  0
 28 32  2  0  0  0  0
 28 34  1  0  0  0  0
 29 35  1  0  0  0  0
 29 60  1  0  0  0  0
 30 33  2  0  0  0  0
 30 61  1  0  0  0  0
 31 36  1  0  0  0  0
 32 33  1  0  0  0  0
 32 62  1  0  0  0  0
 33 63  1  0  0  0  0
 34 64  1  0  0  0  0
 34 65  1  0  0  0  0
 34 66  1  0  0  0  0
 35 36  2  0  0  0  0
 35 67  1  0  0  0  0
 36 68  1  0  0  0  0
M  END
> <PUBCHEM_COMPOUND_CID>
127025611

> <PUBCHEM_CONFORMER_RMSD>
0.8

> <PUBCHEM_CONFORMER_DIVERSEORDER>
1
5
6
7
3
2
4

> <PUBCHEM_MMFF94_PARTIAL_CHARGES>
50
1 -0.68
10 0.28
11 0.44
12 0.3
14 -0.29
15 0.57
16 0.12
17 -0.15
18 0.49
19 -0.15
2 -0.57
20 -0.14
21 -0.14
22 0.14
23 -0.15
24 -0.15
25 0.28
26 0.42
27 0.34
28 -0.14
29 -0.15
3 -0.57
30 -0.29
31 0.49
32 -0.15
33 -0.15
34 0.14
35 -0.15
36 -0.14
4 -0.68
45 0.15
46 0.4
49 0.15
5 -0.68
50 0.15
51 0.15
55 0.15
56 0.15
6 -0.68
60 0.15
61 0.15
62 0.15
63 0.15
67 0.15
68 0.15
69 0.4
7 -0.57
70 0.4
71 0.4
8 -0.66

> <PUBCHEM_EFFECTIVE_ROTOR_COUNT>
1.4

> <PUBCHEM_PHARMACOPHORE_FEATURES>
13
1 1 acceptor
1 1 donor
1 16 anion
1 2 acceptor
1 3 acceptor
1 4 acceptor
1 4 donor
1 5 acceptor
1 5 donor
1 6 acceptor
1 6 donor
1 7 acceptor
5 8 9 10 11 12 rings

> <PUBCHEM_HEAVY_ATOM_COUNT>
36

> <PUBCHEM_ATOM_DEF_STEREO_COUNT>
6

> <PUBCHEM_ATOM_UDEF_STEREO_COUNT>
0

> <PUBCHEM_BOND_DEF_STEREO_COUNT>
7

> <PUBCHEM_BOND_UDEF_STEREO_COUNT>
0

> <PUBCHEM_ISOTOPIC_ATOM_COUNT>
0

> <PUBCHEM_COMPONENT_COUNT>
1

> <PUBCHEM_CACTVS_TAUTO_COUNT>
1001

> <PUBCHEM_CONFORMER_ID>
079241CB00000001

> <PUBCHEM_MMFF94_ENERGY>
86.9129

> <PUBCHEM_FEATURE_SELFOVERLAP>
65.99

> <PUBCHEM_SHAPE_FINGERPRINT>
10305334 12 18271812281428328197
10675989 125 17974848682028327100
10815517 723 18412260627646607518
10864689 126 17836375847521629885
11093857 5 17622454844390279076
11170278 141 17397803706851889082
11963148 33 18118401744831805730
12174731 88 18342457084407084621
13111901 25 18410858763759904688
13165053 137 18272097149208397111
13383665 225 18337402634540736132
14017579 151 16843862365654873759
14117953 113 18341327791692732941
14294032 229 18269838619100856872
14394314 77 18412832408169736873
15021287 119 18412544340365180211
15183329 4 18343301500304806950
15274700 232 16827000959427420878
15297060 5 17704076158070366707
15419008 145 18337944607225212450
15968369 153 18272085054337014816
16628084 112 18333449832974458356
16993438 75 18045213852423857805
17627616 140 18121783000447332597
19611394 137 18117289253665629915
21133410 90 17203320130991656632
22122407 14 18337398256777304986
373842 8 18266462186232241915
392239 28 18336553711534795305
437795 70 18056509294051881724
44426699 153 17829612013852566291
45377200 153 18201450126015508606
463206 1 18411706499814929601
50677037 204 18341044241603174993
57676310 188 18192719062687453812

> <PUBCHEM_SHAPE_MULTIPOLES>
694.8
19.81
6.02
1.35
15.92
4.75
0.19
-10.31
2.33
-3.61
-1.71
-1.49
-0.54
-3.18

> <PUBCHEM_SHAPE_SELFOVERLAP>
1419.619

> <PUBCHEM_SHAPE_VOLUME>
397.6

> <PUBCHEM_COORDINATE_TYPE>
2
5
10

$$$$
