127007
  -OEChem-03292013323D

 35 36  0     1  0  0  0  0  0999 V2000
    1.0308   -1.6691   -1.6739 O   0  0  0  0  0  0  0  0  0  0  0  0
    3.3263    1.8341    0.3533 O   0  0  0  0  0  0  0  0  0  0  0  0
   -3.5931   -0.5874   -1.0304 O   0  0  0  0  0  0  0  0  0  0  0  0
   -0.8846   -3.1585    0.4494 O   0  0  0  0  0  0  0  0  0  0  0  0
   -1.3152   -0.6014   -0.9006 N   0  0  0  0  0  0  0  0  0  0  0  0
    0.9976    1.8663    0.2958 N   0  0  0  0  0  0  0  0  0  0  0  0
    2.2274    0.0270   -0.6058 N   0  0  0  0  0  0  0  0  0  0  0  0
   -1.3529    1.8506    0.2589 N   0  0  0  0  0  0  0  0  0  0  0  0
   -2.5161    1.1634    0.0513 N   0  0  0  0  0  0  0  0  0  0  0  0
   -0.1442   -0.2594   -0.1219 C   0  0  1  0  0  0  0  0  0  0  0  0
   -0.2286    1.2193    0.1157 C   0  0  0  0  0  0  0  0  0  0  0  0
   -0.1440   -0.9921    1.2257 C   0  0  0  0  0  0  0  0  0  0  0  0
    1.0684   -0.7020   -0.9121 C   0  0  0  0  0  0  0  0  0  0  0  0
    2.2629    1.2814    0.0526 C   0  0  0  0  0  0  0  0  0  0  0  0
   -2.5554   -0.0494   -0.6385 C   0  0  0  0  0  0  0  0  0  0  0  0
   -0.0495   -2.4912    1.0579 C   0  0  0  0  0  0  0  0  0  0  0  0
    0.9674    3.2519    0.7630 C   0  0  0  0  0  0  0  0  0  0  0  0
    3.5059   -0.5565   -0.9988 C   0  0  0  0  0  0  0  0  0  0  0  0
    1.1527   -3.1419    1.6913 C   0  0  0  0  0  0  0  0  0  0  0  0
   -3.7556    1.7150    0.5671 C   0  0  0  0  0  0  0  0  0  0  0  0
   -1.0531   -0.7864    1.8048 H   0  0  0  0  0  0  0  0  0  0  0  0
    0.6935   -0.6534    1.8488 H   0  0  0  0  0  0  0  0  0  0  0  0
   -1.2935   -1.4522   -1.4559 H   0  0  0  0  0  0  0  0  0  0  0  0
    1.9671    3.6747    0.8852 H   0  0  0  0  0  0  0  0  0  0  0  0
    0.4408    3.2896    1.7221 H   0  0  0  0  0  0  0  0  0  0  0  0
    0.4122    3.8569    0.0387 H   0  0  0  0  0  0  0  0  0  0  0  0
    4.1976   -0.5200   -0.1512 H   0  0  0  0  0  0  0  0  0  0  0  0
    3.9230    0.0472   -1.8108 H   0  0  0  0  0  0  0  0  0  0  0  0
    3.4030   -1.5925   -1.3310 H   0  0  0  0  0  0  0  0  0  0  0  0
   -4.0222    2.5870   -0.0368 H   0  0  0  0  0  0  0  0  0  0  0  0
   -3.5993    2.0247    1.6046 H   0  0  0  0  0  0  0  0  0  0  0  0
   -4.5713    0.9883    0.5313 H   0  0  0  0  0  0  0  0  0  0  0  0
    1.1333   -2.9753    2.7712 H   0  0  0  0  0  0  0  0  0  0  0  0
    1.1311   -4.2185    1.5005 H   0  0  0  0  0  0  0  0  0  0  0  0
    2.0679   -2.7283    1.2609 H   0  0  0  0  0  0  0  0  0  0  0  0
  1 13  2  0  0  0  0
  2 14  2  0  0  0  0
  3 15  2  0  0  0  0
  4 16  2  0  0  0  0
  5 10  1  0  0  0  0
  5 15  1  0  0  0  0
  5 23  1  0  0  0  0
  6 11  1  0  0  0  0
  6 14  1  0  0  0  0
  6 17  1  0  0  0  0
  7 13  1  0  0  0  0
  7 14  1  0  0  0  0
  7 18  1  0  0  0  0
  8  9  1  0  0  0  0
  8 11  2  0  0  0  0
  9 15  1  0  0  0  0
  9 20  1  0  0  0  0
 10 11  1  0  0  0  0
 10 12  1  0  0  0  0
 10 13  1  0  0  0  0
 12 16  1  0  0  0  0
 12 21  1  0  0  0  0
 12 22  1  0  0  0  0
 16 19  1  0  0  0  0
 17 24  1  0  0  0  0
 17 25  1  0  0  0  0
 17 26  1  0  0  0  0
 18 27  1  0  0  0  0
 18 28  1  0  0  0  0
 18 29  1  0  0  0  0
 19 33  1  0  0  0  0
 19 34  1  0  0  0  0
 19 35  1  0  0  0  0
 20 30  1  0  0  0  0
 20 31  1  0  0  0  0
 20 32  1  0  0  0  0
M  END
> <PUBCHEM_COMPOUND_CID>
127007

> <PUBCHEM_CONFORMER_RMSD>
0.6

> <PUBCHEM_CONFORMER_DIVERSEORDER>
1
12
10
5
6
4
7
2
9
3
8
11

> <PUBCHEM_MMFF94_PARTIAL_CHARGES>
21
1 -0.57
10 0.42
11 0.45
12 0.06
13 0.57
14 0.69
15 0.69
16 0.45
17 0.3
18 0.3
19 0.06
2 -0.57
20 0.3
23 0.37
3 -0.57
4 -0.57
5 -0.73
6 -0.42
7 -0.42
8 -0.51
9 -0.3

> <PUBCHEM_EFFECTIVE_ROTOR_COUNT>
2.8

> <PUBCHEM_PHARMACOPHORE_FEATURES>
7
1 1 acceptor
1 2 acceptor
1 3 acceptor
1 4 acceptor
1 5 donor
6 5 8 9 10 11 15 rings
6 6 7 10 11 13 14 rings

> <PUBCHEM_HEAVY_ATOM_COUNT>
20

> <PUBCHEM_ATOM_DEF_STEREO_COUNT>
0

> <PUBCHEM_ATOM_UDEF_STEREO_COUNT>
1

> <PUBCHEM_BOND_DEF_STEREO_COUNT>
0

> <PUBCHEM_BOND_UDEF_STEREO_COUNT>
0

> <PUBCHEM_ISOTOPIC_ATOM_COUNT>
0

> <PUBCHEM_COMPONENT_COUNT>
1

> <PUBCHEM_CACTVS_TAUTO_COUNT>
6

> <PUBCHEM_CONFORMER_ID>
0001F01F00000001

> <PUBCHEM_MMFF94_ENERGY>
59.6725

> <PUBCHEM_FEATURE_SELFOVERLAP>
35.557

> <PUBCHEM_SHAPE_FINGERPRINT>
10906281 52 18199209355292678156
10967382 1 18129105528280798157
11680986 33 18125159600445430880
12138202 97 18043810011886328062
12423570 1 13727419247273431266
12644460 14 18121512245735483905
13132413 78 17760632682006937706
13140716 1 18341051804829788104
13380535 76 18268987764283162972
13380536 167 17255973268765129720
14817 1 11955525691909523302
15375462 189 18120096087363871321
15490181 8 18195811992600166653
15881359 60 17409648087832658066
16945 1 18129097994876161701
18186145 218 18334295353089784573
20511035 2 17907577278679094812
20559304 39 17831864542933653683
20691752 17 18334011683443028533
20905425 154 17909548359472232116
21041028 32 17614847310077632451
21421861 104 17615425657241273505
21524375 3 18339913930596172653
22112679 90 17983557638125707967
22344851 341 18340765953455203193
2334 1 18341895203320771276
23388829 49 17686049501207230890
23402539 116 18341894026873804678
23419403 2 17692303707834377211
23493267 7 17757540129703180584
23558518 356 18339927142353359877
23559900 14 18410301324634561924
25 1 18411989035199844772
2748010 2 17333652077409115116
305870 269 18261665983104106985
3250762 1 18050300454831868688
34934 24 18127690426893367773
5845 1 9403743500766383419
7364860 26 17975413516738706827
7832392 63 18059579027522273445
81228 2 17609786657334268971
8809292 202 18048594017048918096
9981440 41 17266919370913727008

> <PUBCHEM_SHAPE_MULTIPOLES>
363.21
4.67
3.56
1.29
2.25
0.74
-0.01
-1.72
-1.02
-1.19
1.88
-0.33
0.78
-0.37

> <PUBCHEM_SHAPE_SELFOVERLAP>
768.106

> <PUBCHEM_SHAPE_VOLUME>
201.2

> <PUBCHEM_COORDINATE_TYPE>
2
5
10

$$$$
