127047840
  -OEChem-03292013293D

 70 70  0     1  0  0  0  0  0999 V2000
    4.3686    4.6261   -0.2464 O   0  0  0  0  0  0  0  0  0  0  0  0
    4.8752   -2.0231    0.0360 O   0  0  0  0  0  0  0  0  0  0  0  0
    2.8863   -4.2675    0.8605 O   0  0  0  0  0  0  0  0  0  0  0  0
   -5.4298    0.3911    2.0090 O   0  0  0  0  0  0  0  0  0  0  0  0
   -8.3701    2.1173   -0.7703 O   0  0  0  0  0  0  0  0  0  0  0  0
   -7.9432    1.9304    1.4536 O   0  0  0  0  0  0  0  0  0  0  0  0
   -2.9216   -4.8582   -1.7172 N   0  0  0  0  0  0  0  0  0  0  0  0
    4.3478    2.3455    0.6119 C   0  0  2  0  0  0  0  0  0  0  0  0
    4.1693    0.8439    0.2763 C   0  0  0  0  0  0  0  0  0  0  0  0
    4.1881   -0.1899    1.4313 C   0  0  2  0  0  0  0  0  0  0  0  0
    4.2760    3.2587   -0.6509 C   0  0  1  0  0  0  0  0  0  0  0  0
    3.9192   -1.6675    1.0463 C   0  0  1  0  0  0  0  0  0  0  0  0
    3.0857    3.0756   -1.6322 C   0  0  2  0  0  0  0  0  0  0  0  0
    5.5857    2.6630    1.4487 C   0  0  0  0  0  0  0  0  0  0  0  0
    3.2812    0.2516    2.5897 C   0  0  0  0  0  0  0  0  0  0  0  0
    2.5163   -1.9132    0.4710 C   0  0  0  0  0  0  0  0  0  0  0  0
    3.2316    4.0417   -2.8188 C   0  0  0  0  0  0  0  0  0  0  0  0
    1.7259    3.3050   -1.0144 C   0  0  0  0  0  0  0  0  0  0  0  0
    2.1399   -3.3903    0.4324 C   0  0  0  0  0  0  0  0  0  0  0  0
    0.6880    2.4555   -0.9400 C   0  0  0  0  0  0  0  0  0  0  0  0
    0.8137   -3.7751   -0.1317 C   0  0  0  0  0  0  0  0  0  0  0  0
   -0.6033    2.7070   -0.3401 C   0  0  0  0  0  0  0  0  0  0  0  0
   -0.0524   -2.7916   -0.6097 C   0  0  0  0  0  0  0  0  0  0  0  0
    0.4391   -5.1179   -0.1804 C   0  0  0  0  0  0  0  0  0  0  0  0
   -1.2931   -3.1509   -1.1362 C   0  0  0  0  0  0  0  0  0  0  0  0
   -0.8016   -5.4772   -0.7068 C   0  0  0  0  0  0  0  0  0  0  0  0
   -1.6676   -4.4938   -1.1847 C   0  0  0  0  0  0  0  0  0  0  0  0
   -1.5839    1.7912   -0.3138 C   0  0  0  0  0  0  0  0  0  0  0  0
   -2.8720    2.0353    0.2984 C   0  0  0  0  0  0  0  0  0  0  0  0
   -3.8556    1.1222    0.3271 C   0  0  0  0  0  0  0  0  0  0  0  0
   -5.2257    1.3038    0.9329 C   0  0  1  0  0  0  0  0  0  0  0  0
   -6.3123    1.0944   -0.1213 C   0  0  0  0  0  0  0  0  0  0  0  0
   -7.6053    1.7569    0.2898 C   0  0  0  0  0  0  0  0  0  0  0  0
    3.4939    2.6379    1.2387 H   0  0  0  0  0  0  0  0  0  0  0  0
    3.2127    0.7226   -0.2426 H   0  0  0  0  0  0  0  0  0  0  0  0
    4.9443    0.5638   -0.4490 H   0  0  0  0  0  0  0  0  0  0  0  0
    5.2171   -0.1782    1.8186 H   0  0  0  0  0  0  0  0  0  0  0  0
    5.1927    3.0543   -1.2225 H   0  0  0  0  0  0  0  0  0  0  0  0
    4.1076   -2.3042    1.9188 H   0  0  0  0  0  0  0  0  0  0  0  0
    3.1280    2.0579   -2.0394 H   0  0  0  0  0  0  0  0  0  0  0  0
    5.6172    3.7185    1.7376 H   0  0  0  0  0  0  0  0  0  0  0  0
    6.4987    2.4400    0.8862 H   0  0  0  0  0  0  0  0  0  0  0  0
    5.6168    2.0814    2.3736 H   0  0  0  0  0  0  0  0  0  0  0  0
    2.2644    0.4651    2.2447 H   0  0  0  0  0  0  0  0  0  0  0  0
    3.2244   -0.5268    3.3584 H   0  0  0  0  0  0  0  0  0  0  0  0
    3.6590    1.1527    3.0804 H   0  0  0  0  0  0  0  0  0  0  0  0
    1.7673   -1.4126    1.0916 H   0  0  0  0  0  0  0  0  0  0  0  0
    2.4749   -1.5296   -0.5548 H   0  0  0  0  0  0  0  0  0  0  0  0
    3.1023    5.0891   -2.5244 H   0  0  0  0  0  0  0  0  0  0  0  0
    4.2157    3.9366   -3.2882 H   0  0  0  0  0  0  0  0  0  0  0  0
    2.4787    3.8241   -3.5856 H   0  0  0  0  0  0  0  0  0  0  0  0
    1.5886    4.2944   -0.5767 H   0  0  0  0  0  0  0  0  0  0  0  0
    4.7082    5.1395   -0.9984 H   0  0  0  0  0  0  0  0  0  0  0  0
    4.7535   -2.9670   -0.1627 H   0  0  0  0  0  0  0  0  0  0  0  0
    0.8222    1.4661   -1.3752 H   0  0  0  0  0  0  0  0  0  0  0  0
   -0.7545    3.6874    0.1054 H   0  0  0  0  0  0  0  0  0  0  0  0
    0.1945   -1.7351   -0.5909 H   0  0  0  0  0  0  0  0  0  0  0  0
    1.0964   -5.9020    0.1857 H   0  0  0  0  0  0  0  0  0  0  0  0
   -1.9599   -2.3754   -1.5047 H   0  0  0  0  0  0  0  0  0  0  0  0
   -1.0821   -6.5269   -0.7393 H   0  0  0  0  0  0  0  0  0  0  0  0
   -1.4261    0.8114   -0.7596 H   0  0  0  0  0  0  0  0  0  0  0  0
   -3.0397    3.0123    0.7441 H   0  0  0  0  0  0  0  0  0  0  0  0
   -3.5509   -4.1460   -2.0630 H   0  0  0  0  0  0  0  0  0  0  0  0
   -3.1936   -5.8316   -1.7516 H   0  0  0  0  0  0  0  0  0  0  0  0
   -3.6743    0.1442   -0.1182 H   0  0  0  0  0  0  0  0  0  0  0  0
   -5.3056    2.3140    1.3539 H   0  0  0  0  0  0  0  0  0  0  0  0
   -6.0035    1.5454   -1.0725 H   0  0  0  0  0  0  0  0  0  0  0  0
   -6.5197    0.0303   -0.2803 H   0  0  0  0  0  0  0  0  0  0  0  0
   -4.7142    0.5296    2.6530 H   0  0  0  0  0  0  0  0  0  0  0  0
   -9.2120    2.5351   -0.4893 H   0  0  0  0  0  0  0  0  0  0  0  0
  1 11  1  0  0  0  0
  1 53  1  0  0  0  0
  2 12  1  0  0  0  0
  2 54  1  0  0  0  0
  3 19  2  0  0  0  0
  4 31  1  0  0  0  0
  4 69  1  0  0  0  0
  5 33  1  0  0  0  0
  5 70  1  0  0  0  0
  6 33  2  0  0  0  0
  7 27  1  0  0  0  0
  7 63  1  0  0  0  0
  7 64  1  0  0  0  0
  8  9  1  0  0  0  0
  8 11  1  0  0  0  0
  8 14  1  0  0  0  0
  8 34  1  0  0  0  0
  9 10  1  0  0  0  0
  9 35  1  0  0  0  0
  9 36  1  0  0  0  0
 10 12  1  0  0  0  0
 10 15  1  0  0  0  0
 10 37  1  0  0  0  0
 11 13  1  0  0  0  0
 11 38  1  0  0  0  0
 12 16  1  0  0  0  0
 12 39  1  0  0  0  0
 13 17  1  0  0  0  0
 13 18  1  0  0  0  0
 13 40  1  0  0  0  0
 14 41  1  0  0  0  0
 14 42  1  0  0  0  0
 14 43  1  0  0  0  0
 15 44  1  0  0  0  0
 15 45  1  0  0  0  0
 15 46  1  0  0  0  0
 16 19  1  0  0  0  0
 16 47  1  0  0  0  0
 16 48  1  0  0  0  0
 17 49  1  0  0  0  0
 17 50  1  0  0  0  0
 17 51  1  0  0  0  0
 18 20  2  0  0  0  0
 18 52  1  0  0  0  0
 19 21  1  0  0  0  0
 20 22  1  0  0  0  0
 20 55  1  0  0  0  0
 21 23  2  0  0  0  0
 21 24  1  0  0  0  0
 22 28  2  0  0  0  0
 22 56  1  0  0  0  0
 23 25  1  0  0  0  0
 23 57  1  0  0  0  0
 24 26  2  0  0  0  0
 24 58  1  0  0  0  0
 25 27  2  0  0  0  0
 25 59  1  0  0  0  0
 26 27  1  0  0  0  0
 26 60  1  0  0  0  0
 28 29  1  0  0  0  0
 28 61  1  0  0  0  0
 29 30  2  0  0  0  0
 29 62  1  0  0  0  0
 30 31  1  0  0  0  0
 30 65  1  0  0  0  0
 31 32  1  0  0  0  0
 31 66  1  0  0  0  0
 32 33  1  0  0  0  0
 32 67  1  0  0  0  0
 32 68  1  0  0  0  0
M  END
> <PUBCHEM_COMPOUND_CID>
127047840

> <PUBCHEM_CONFORMER_RMSD>
1.2

> <PUBCHEM_CONFORMER_DIVERSEORDER>
1
25
140
14
134
132
15
51
13
116
73
121
78
9
120
114
104
152
17
59
150
75
142
54
23
22
85
79
117
94
156
103
95
61
21
130
91
92
32
41
99
115
36
158
89
90
133
10
72
34
141
153
147
60
135
81
87
82
27
129
159
64
108
100
151
53
83
47
56
71
37
45
88
69
70
146
63
62
28
105
49
125
144
148
110
52
31
107
157
8
44
137
57
155
55
111
18
24
109
50
12
80
112
149
26
127
2
84
74
39
66
118
76
119
65
124
154
20
96
42
67
138
7
97
122
19
77
162
113
143
161
11
101
35
160
106
123
43
131
102
29
68
145
126
30
93
40
33
5
86
48
139
38
6
98
58
128
46
16
4
136
3

> <PUBCHEM_MMFF94_PARTIAL_CHARGES>
43
1 -0.68
11 0.28
12 0.28
13 0.14
16 0.06
18 -0.29
19 0.42
2 -0.68
20 -0.15
21 0.09
22 -0.15
23 -0.15
24 -0.15
25 -0.15
26 -0.15
27 0.1
28 -0.15
29 -0.15
3 -0.57
30 -0.29
31 0.42
32 0.06
33 0.66
4 -0.68
5 -0.65
52 0.15
53 0.4
54 0.4
55 0.15
56 0.15
57 0.15
58 0.15
59 0.15
6 -0.57
60 0.15
61 0.15
62 0.15
63 0.4
64 0.4
65 0.15
69 0.4
7 -0.9
70 0.5

> <PUBCHEM_EFFECTIVE_ROTOR_COUNT>
14

> <PUBCHEM_PHARMACOPHORE_FEATURES>
16
1 1 acceptor
1 1 donor
1 14 hydrophobe
1 15 hydrophobe
1 17 hydrophobe
1 2 acceptor
1 2 donor
1 3 acceptor
1 4 acceptor
1 4 donor
1 5 acceptor
1 6 acceptor
1 7 cation
1 7 donor
3 5 6 33 anion
6 21 23 24 25 26 27 rings

> <PUBCHEM_HEAVY_ATOM_COUNT>
33

> <PUBCHEM_ATOM_DEF_STEREO_COUNT>
6

> <PUBCHEM_ATOM_UDEF_STEREO_COUNT>
0

> <PUBCHEM_BOND_DEF_STEREO_COUNT>
3

> <PUBCHEM_BOND_UDEF_STEREO_COUNT>
0

> <PUBCHEM_ISOTOPIC_ATOM_COUNT>
0

> <PUBCHEM_COMPONENT_COUNT>
1

> <PUBCHEM_CACTVS_TAUTO_COUNT>
21

> <PUBCHEM_CONFORMER_ID>
079298A000000001

> <PUBCHEM_MMFF94_ENERGY>
77.5576

> <PUBCHEM_FEATURE_SELFOVERLAP>
81.258

> <PUBCHEM_SHAPE_FINGERPRINT>
10190206 1 16962118315951569076
11719270 70 18411139130651396957
12788726 201 17690564512762842246
13383661 66 17196018038581885078
1361 2 18410291376482852681
14918310 93 17895750695097338785
15264996 74 18129373985132363763
15351339 4 16966305272618048514
15406563 185 17555474064377303753
15419008 42 17753592574012236693
1979834 28 18336541629876616856
21057603 199 18341908385777592404
21792938 169 18410849929587170655
24204213 200 18269295542357045491
394071 54 18263653879137853297
44575985 19 18191597350753020001
5309563 4 17976259036953765612
59520647 33 18199468956333655799
6176135 31 18339632374099142027
653340 110 17691680508665653952
9961470 85 18342176704251570910
9982175 49 18340477899211035839

> <PUBCHEM_SHAPE_MULTIPOLES>
638.93
16.05
9.29
1.83
35.34
12.02
-0.04
-20.43
5.94
-2.68
-4.52
-1.13
-0.98
-4.24

> <PUBCHEM_SHAPE_SELFOVERLAP>
1278.625

> <PUBCHEM_SHAPE_VOLUME>
373

> <PUBCHEM_COORDINATE_TYPE>
2
5
10

$$$$
