127025892
  -OEChem-03292013293D

 70 72  0     1  0  0  0  0  0999 V2000
    3.7894   -2.4507   -1.4537 O   0  0  0  0  0  0  0  0  0  0  0  0
    5.3368   -3.1588    0.7967 O   0  0  0  0  0  0  0  0  0  0  0  0
    4.6560   -1.3079    2.6707 O   0  0  0  0  0  0  0  0  0  0  0  0
    4.8625    1.3673    2.1523 O   0  0  0  0  0  0  0  0  0  0  0  0
   -3.1801   -3.0734   -2.2239 O   0  0  0  0  0  0  0  0  0  0  0  0
   -4.9267   -3.0983    0.8547 O   0  0  0  0  0  0  0  0  0  0  0  0
   -6.1188   -1.1557    0.9294 N   0  0  0  0  0  0  0  0  0  0  0  0
    3.7306   -0.1036   -0.8365 C   0  0  1  0  0  0  0  0  0  0  0  0
    2.2888    0.4444   -0.6056 C   0  0  1  0  0  0  0  0  0  0  0  0
    4.7782    0.8689   -0.2237 C   0  0  2  0  0  0  0  0  0  0  0  0
    3.9052   -1.5641   -0.3364 C   0  0  2  0  0  0  0  0  0  0  0  0
    2.1583    1.8582   -1.2889 C   0  0  2  0  0  0  0  0  0  0  0  0
    5.2510   -1.8054    0.3546 C   0  0  1  0  0  0  0  0  0  0  0  0
    5.4331   -0.8825    1.5594 C   0  0  1  0  0  0  0  0  0  0  0  0
    5.0029    0.5407    1.2505 C   0  0  0  0  0  0  0  0  0  0  0  0
    4.4398    2.3255   -0.3788 C   0  0  0  0  0  0  0  0  0  0  0  0
    3.2719    2.7773   -0.8546 C   0  0  0  0  0  0  0  0  0  0  0  0
    1.1935   -0.4743   -1.1299 C   0  0  0  0  0  0  0  0  0  0  0  0
    0.7814    2.5453   -1.1938 C   0  0  0  0  0  0  0  0  0  0  0  0
    0.2563   -1.1084   -0.3909 C   0  0  0  0  0  0  0  0  0  0  0  0
    0.4284    3.3537   -2.4220 C   0  0  0  0  0  0  0  0  0  0  0  0
   -0.0649    2.3355   -0.1642 C   0  0  0  0  0  0  0  0  0  0  0  0
    0.2900   -1.2026    1.1148 C   0  0  0  0  0  0  0  0  0  0  0  0
   -0.9037   -1.6897   -1.0676 C   0  0  0  0  0  0  0  0  0  0  0  0
   -1.4738    2.6755   -0.1110 C   0  0  0  0  0  0  0  0  0  0  0  0
   -2.1035   -1.8542   -0.4903 C   0  0  0  0  0  0  0  0  0  0  0  0
   -2.3084    2.0579    0.7404 C   0  0  0  0  0  0  0  0  0  0  0  0
   -3.2780   -2.2617   -1.3081 C   0  0  0  0  0  0  0  0  0  0  0  0
   -3.7478    2.1941    0.6925 C   0  0  0  0  0  0  0  0  0  0  0  0
   -4.5870   -1.5796   -0.9674 C   0  0  0  0  0  0  0  0  0  0  0  0
   -6.0733    1.3161    1.3194 C   0  0  2  0  0  0  0  0  0  0  0  0
   -4.5607    1.3564    1.3564 C   0  0  0  0  0  0  0  0  0  0  0  0
   -6.5858    0.1453    0.4539 C   0  0  0  0  0  0  0  0  0  0  0  0
   -5.2098   -2.0123    0.3431 C   0  0  0  0  0  0  0  0  0  0  0  0
   -6.7316    2.6211    0.8585 C   0  0  0  0  0  0  0  0  0  0  0  0
    3.8965   -0.0987   -1.9251 H   0  0  0  0  0  0  0  0  0  0  0  0
    2.1704    0.5871    0.4749 H   0  0  0  0  0  0  0  0  0  0  0  0
    5.7413    0.7109   -0.7277 H   0  0  0  0  0  0  0  0  0  0  0  0
    3.1080   -1.8492    0.3565 H   0  0  0  0  0  0  0  0  0  0  0  0
    2.3224    1.6852   -2.3652 H   0  0  0  0  0  0  0  0  0  0  0  0
    6.0601   -1.6557   -0.3710 H   0  0  0  0  0  0  0  0  0  0  0  0
    6.4856   -0.8819    1.8631 H   0  0  0  0  0  0  0  0  0  0  0  0
    5.2055    3.0489   -0.1088 H   0  0  0  0  0  0  0  0  0  0  0  0
    3.1439    3.8500   -0.9749 H   0  0  0  0  0  0  0  0  0  0  0  0
    1.1032   -0.4914   -2.2163 H   0  0  0  0  0  0  0  0  0  0  0  0
    4.5302   -2.2685   -2.0569 H   0  0  0  0  0  0  0  0  0  0  0  0
    6.2009   -3.2710    1.2284 H   0  0  0  0  0  0  0  0  0  0  0  0
    4.9115   -0.7620    3.4341 H   0  0  0  0  0  0  0  0  0  0  0  0
    1.2405    4.0470   -2.6658 H   0  0  0  0  0  0  0  0  0  0  0  0
   -0.4691    3.9641   -2.3030 H   0  0  0  0  0  0  0  0  0  0  0  0
    0.2759    2.6888   -3.2785 H   0  0  0  0  0  0  0  0  0  0  0  0
    0.2850    1.7514    0.6829 H   0  0  0  0  0  0  0  0  0  0  0  0
    0.0712   -2.2272    1.4377 H   0  0  0  0  0  0  0  0  0  0  0  0
    1.2669   -0.9606    1.5400 H   0  0  0  0  0  0  0  0  0  0  0  0
   -0.4438   -0.5321    1.5704 H   0  0  0  0  0  0  0  0  0  0  0  0
   -0.7935   -1.8888   -2.1319 H   0  0  0  0  0  0  0  0  0  0  0  0
   -1.8793    3.3512   -0.8560 H   0  0  0  0  0  0  0  0  0  0  0  0
   -2.3023   -1.5764    0.5385 H   0  0  0  0  0  0  0  0  0  0  0  0
   -1.9149    1.3388    1.4553 H   0  0  0  0  0  0  0  0  0  0  0  0
   -4.1544    2.9572    0.0365 H   0  0  0  0  0  0  0  0  0  0  0  0
   -4.3887   -0.5041   -0.9748 H   0  0  0  0  0  0  0  0  0  0  0  0
   -5.3054   -1.7857   -1.7690 H   0  0  0  0  0  0  0  0  0  0  0  0
   -6.3997    1.1456    2.3548 H   0  0  0  0  0  0  0  0  0  0  0  0
   -4.1078    0.5823    1.9763 H   0  0  0  0  0  0  0  0  0  0  0  0
   -7.6800    0.1041    0.5109 H   0  0  0  0  0  0  0  0  0  0  0  0
   -6.3286    0.2877   -0.5994 H   0  0  0  0  0  0  0  0  0  0  0  0
   -6.5291   -1.4770    1.8010 H   0  0  0  0  0  0  0  0  0  0  0  0
   -6.5244    2.8304   -0.1966 H   0  0  0  0  0  0  0  0  0  0  0  0
   -6.3817    3.4717    1.4536 H   0  0  0  0  0  0  0  0  0  0  0  0
   -7.8195    2.5627    0.9754 H   0  0  0  0  0  0  0  0  0  0  0  0
  1 11  1  0  0  0  0
  1 46  1  0  0  0  0
  2 13  1  0  0  0  0
  2 47  1  0  0  0  0
  3 14  1  0  0  0  0
  3 48  1  0  0  0  0
  4 15  2  0  0  0  0
  5 28  2  0  0  0  0
  6 34  2  0  0  0  0
  7 33  1  0  0  0  0
  7 34  1  0  0  0  0
  7 67  1  0  0  0  0
  8  9  1  0  0  0  0
  8 10  1  0  0  0  0
  8 11  1  0  0  0  0
  8 36  1  0  0  0  0
  9 12  1  0  0  0  0
  9 18  1  0  0  0  0
  9 37  1  0  0  0  0
 10 15  1  0  0  0  0
 10 16  1  0  0  0  0
 10 38  1  0  0  0  0
 11 13  1  0  0  0  0
 11 39  1  0  0  0  0
 12 17  1  0  0  0  0
 12 19  1  0  0  0  0
 12 40  1  0  0  0  0
 13 14  1  0  0  0  0
 13 41  1  0  0  0  0
 14 15  1  0  0  0  0
 14 42  1  0  0  0  0
 16 17  2  0  0  0  0
 16 43  1  0  0  0  0
 17 44  1  0  0  0  0
 18 20  2  0  0  0  0
 18 45  1  0  0  0  0
 19 21  1  0  0  0  0
 19 22  2  0  0  0  0
 20 23  1  0  0  0  0
 20 24  1  0  0  0  0
 21 49  1  0  0  0  0
 21 50  1  0  0  0  0
 21 51  1  0  0  0  0
 22 25  1  0  0  0  0
 22 52  1  0  0  0  0
 23 53  1  0  0  0  0
 23 54  1  0  0  0  0
 23 55  1  0  0  0  0
 24 26  2  0  0  0  0
 24 56  1  0  0  0  0
 25 27  2  0  0  0  0
 25 57  1  0  0  0  0
 26 28  1  0  0  0  0
 26 58  1  0  0  0  0
 27 29  1  0  0  0  0
 27 59  1  0  0  0  0
 28 30  1  0  0  0  0
 29 32  2  0  0  0  0
 29 60  1  0  0  0  0
 30 34  1  0  0  0  0
 30 61  1  0  0  0  0
 30 62  1  0  0  0  0
 31 32  1  0  0  0  0
 31 33  1  0  0  0  0
 31 35  1  0  0  0  0
 31 63  1  0  0  0  0
 32 64  1  0  0  0  0
 33 65  1  0  0  0  0
 33 66  1  0  0  0  0
 35 68  1  0  0  0  0
 35 69  1  0  0  0  0
 35 70  1  0  0  0  0
M  END
> <PUBCHEM_COMPOUND_CID>
127025892

> <PUBCHEM_CONFORMER_RMSD>
0.8

> <PUBCHEM_CONFORMER_DIVERSEORDER>
1
2

> <PUBCHEM_MMFF94_PARTIAL_CHARGES>
47
1 -0.68
10 0.2
11 0.28
12 0.28
13 0.28
14 0.34
15 0.45
16 -0.29
17 -0.29
18 -0.29
19 -0.28
2 -0.68
20 -0.14
21 0.14
22 -0.15
23 0.14
24 -0.15
25 -0.15
26 -0.14
27 -0.15
28 0.49
29 -0.15
3 -0.68
30 0.12
31 0.14
32 -0.29
33 0.3
34 0.57
4 -0.57
43 0.15
44 0.15
45 0.15
46 0.4
47 0.4
48 0.4
5 -0.57
52 0.15
56 0.15
57 0.15
58 0.15
59 0.15
6 -0.57
60 0.15
64 0.15
67 0.37
7 -0.73
9 0.14

> <PUBCHEM_EFFECTIVE_ROTOR_COUNT>
1.4

> <PUBCHEM_PHARMACOPHORE_FEATURES>
13
1 1 acceptor
1 1 donor
1 2 acceptor
1 2 donor
1 3 acceptor
1 3 donor
1 30 anion
1 4 acceptor
1 5 acceptor
1 6 acceptor
1 7 donor
6 8 10 11 13 14 15 rings
6 8 9 10 12 16 17 rings

> <PUBCHEM_HEAVY_ATOM_COUNT>
35

> <PUBCHEM_ATOM_DEF_STEREO_COUNT>
8

> <PUBCHEM_ATOM_UDEF_STEREO_COUNT>
0

> <PUBCHEM_BOND_DEF_STEREO_COUNT>
5

> <PUBCHEM_BOND_UDEF_STEREO_COUNT>
0

> <PUBCHEM_ISOTOPIC_ATOM_COUNT>
0

> <PUBCHEM_COMPONENT_COUNT>
1

> <PUBCHEM_CACTVS_TAUTO_COUNT>
1001

> <PUBCHEM_CONFORMER_ID>
079242E400000001

> <PUBCHEM_MMFF94_ENERGY>
85.7856

> <PUBCHEM_FEATURE_SELFOVERLAP>
66.024

> <PUBCHEM_SHAPE_FINGERPRINT>
10439779 11 18201724002620215057
10906281 52 18043539519790112892
10939801 23 18126852817918273773
11578080 2 17417235641867273512
11756154 67 17979927012546227870
12107183 9 18339925896327794223
12422481 6 18341897368179019213
131258 38 18187363255469070082
13165053 137 14226709697987563970
14117953 113 18195256516707505501
144659 39 17203891881412253029
15001296 14 18335986445361040913
15064986 96 17346034460520044646
15183329 4 18410008879562434159
16110190 28 18412549795505642753
17818456 19 18272656752727205628
20028762 73 18338522928091177754
21033648 29 17203029856191328122
21421861 104 18334851766888743812
22033318 11 18262532398678725865
338550 245 18337403746167392069
354706 109 18124865764832664497
3680242 22 18409176506220986889
4144715 1 18263942067196309531
4197921 191 18337398244250566349
460360 51 18113328704900828204
5085150 59 18201439147989214261
5104073 3 18411980273440011858
513202 73 17530960259774233029
56633871 153 18266172830043368382

> <PUBCHEM_SHAPE_MULTIPOLES>
680.09
16.48
4.33
1.89
11.52
0.27
-0.12
-3.21
-8.21
1.41
1.29
-1
-0.04
-2.79

> <PUBCHEM_SHAPE_SELFOVERLAP>
1409.426

> <PUBCHEM_SHAPE_VOLUME>
380.1

> <PUBCHEM_COORDINATE_TYPE>
2
5
10

$$$$
