127028675
  -OEChem-03292013293D

 64 67  0     1  0  0  0  0  0999 V2000
    2.0622    2.1163    1.4618 O   0  0  0  0  0  0  0  0  0  0  0  0
    2.1516    3.5074   -0.8733 O   0  0  0  0  0  0  0  0  0  0  0  0
    0.2167    4.4610   -0.0230 O   0  0  0  0  0  0  0  0  0  0  0  0
   -0.3932    1.5526    2.4434 O   0  0  0  0  0  0  0  0  0  0  0  0
    1.9231   -2.3522    0.6955 O   0  0  0  0  0  0  0  0  0  0  0  0
    4.9487    2.8543   -1.1198 O   0  0  0  0  0  0  0  0  0  0  0  0
    3.3043   -4.6434   -1.5203 O   0  0  0  0  0  0  0  0  0  0  0  0
    2.0193    1.4096    0.1897 C   0  0  1  0  0  0  0  0  0  0  0  0
    0.9314    2.2766    0.6344 C   0  0  2  0  0  0  0  0  0  0  0  0
    2.6302    2.1585   -0.9639 C   0  0  2  0  0  0  0  0  0  0  0  0
    2.3231   -0.0163    0.2555 C   0  0  0  0  0  0  0  0  0  0  0  0
    0.9991    3.5294   -0.1167 C   0  0  0  0  0  0  0  0  0  0  0  0
   -0.3225    1.7352    1.2348 C   0  0  0  0  0  0  0  0  0  0  0  0
    4.1408    1.9647   -0.8741 C   0  0  0  0  0  0  0  0  0  0  0  0
    2.1499    1.6390   -2.3307 C   0  0  0  0  0  0  0  0  0  0  0  0
    3.7371   -0.3438   -0.0320 C   0  0  0  0  0  0  0  0  0  0  0  0
    4.6028    0.5810   -0.5049 C   0  0  0  0  0  0  0  0  0  0  0  0
   -1.4393    1.4506    0.2536 C   0  0  0  0  0  0  0  0  0  0  0  0
    1.5134   -1.0352    0.5829 C   0  0  0  0  0  0  0  0  0  0  0  0
    4.1869   -1.7082    0.2100 C   0  0  0  0  0  0  0  0  0  0  0  0
   -2.6750    0.8684    0.9378 C   0  0  0  0  0  0  0  0  0  0  0  0
    3.2809   -2.6443    0.5486 C   0  0  0  0  0  0  0  0  0  0  0  0
   -3.7747    0.5544   -0.0783 C   0  0  0  0  0  0  0  0  0  0  0  0
    3.6297   -4.0757    0.7944 C   0  0  0  0  0  0  0  0  0  0  0  0
   -5.0649    0.0337    0.5634 C   0  0  0  0  0  0  0  0  0  0  0  0
    2.9283   -5.0088   -0.1937 C   0  0  2  0  0  0  0  0  0  0  0  0
   -6.1883   -0.2091   -0.4477 C   0  0  0  0  0  0  0  0  0  0  0  0
   -7.4966   -0.6730    0.2010 C   0  0  0  0  0  0  0  0  0  0  0  0
    3.3327   -6.4587    0.0413 C   0  0  0  0  0  0  0  0  0  0  0  0
   -8.6426   -0.8447   -0.7985 C   0  0  0  0  0  0  0  0  0  0  0  0
   -9.9397   -1.2381   -0.0904 C   0  0  0  0  0  0  0  0  0  0  0  0
  -11.0755   -1.4413   -1.0806 C   0  0  0  0  0  0  0  0  0  0  0  0
    1.0568    1.6774   -2.4062 H   0  0  0  0  0  0  0  0  0  0  0  0
    2.4625    0.6096   -2.5333 H   0  0  0  0  0  0  0  0  0  0  0  0
    2.5443    2.2695   -3.1365 H   0  0  0  0  0  0  0  0  0  0  0  0
    5.6499    0.3604   -0.6859 H   0  0  0  0  0  0  0  0  0  0  0  0
   -1.7041    2.3868   -0.2494 H   0  0  0  0  0  0  0  0  0  0  0  0
   -1.0628    0.7490   -0.4991 H   0  0  0  0  0  0  0  0  0  0  0  0
    0.4642   -0.9472    0.8214 H   0  0  0  0  0  0  0  0  0  0  0  0
    5.2374   -1.9532    0.0928 H   0  0  0  0  0  0  0  0  0  0  0  0
   -3.0519    1.5795    1.6833 H   0  0  0  0  0  0  0  0  0  0  0  0
   -2.4058   -0.0459    1.4809 H   0  0  0  0  0  0  0  0  0  0  0  0
   -3.4056   -0.1873   -0.7974 H   0  0  0  0  0  0  0  0  0  0  0  0
   -4.0044    1.4625   -0.6499 H   0  0  0  0  0  0  0  0  0  0  0  0
    3.3528   -4.3417    1.8218 H   0  0  0  0  0  0  0  0  0  0  0  0
    4.7163   -4.2102    0.7131 H   0  0  0  0  0  0  0  0  0  0  0  0
   -4.8512   -0.8989    1.0996 H   0  0  0  0  0  0  0  0  0  0  0  0
   -5.4085    0.7581    1.3122 H   0  0  0  0  0  0  0  0  0  0  0  0
    1.8395   -4.9132   -0.1115 H   0  0  0  0  0  0  0  0  0  0  0  0
   -5.8622   -0.9577   -1.1800 H   0  0  0  0  0  0  0  0  0  0  0  0
   -6.3748    0.7180   -1.0039 H   0  0  0  0  0  0  0  0  0  0  0  0
   -7.3226   -1.6220    0.7230 H   0  0  0  0  0  0  0  0  0  0  0  0
   -7.7928    0.0581    0.9637 H   0  0  0  0  0  0  0  0  0  0  0  0
    4.4098   -6.5956   -0.1052 H   0  0  0  0  0  0  0  0  0  0  0  0
    2.8326   -7.1168   -0.6775 H   0  0  0  0  0  0  0  0  0  0  0  0
    3.0701   -6.7855    1.0520 H   0  0  0  0  0  0  0  0  0  0  0  0
   -8.7947    0.0922   -1.3480 H   0  0  0  0  0  0  0  0  0  0  0  0
   -8.3725   -1.6114   -1.5345 H   0  0  0  0  0  0  0  0  0  0  0  0
    2.8374   -5.2382   -2.1318 H   0  0  0  0  0  0  0  0  0  0  0  0
   -9.7884   -2.1641    0.4765 H   0  0  0  0  0  0  0  0  0  0  0  0
  -10.2229   -0.4601    0.6281 H   0  0  0  0  0  0  0  0  0  0  0  0
  -11.2737   -0.5238   -1.6437 H   0  0  0  0  0  0  0  0  0  0  0  0
  -11.9927   -1.7211   -0.5530 H   0  0  0  0  0  0  0  0  0  0  0  0
  -10.8370   -2.2375   -1.7931 H   0  0  0  0  0  0  0  0  0  0  0  0
  1  8  1  0  0  0  0
  1  9  1  0  0  0  0
  2 10  1  0  0  0  0
  2 12  1  0  0  0  0
  3 12  2  0  0  0  0
  4 13  2  0  0  0  0
  5 19  1  0  0  0  0
  5 22  1  0  0  0  0
  6 14  2  0  0  0  0
  7 26  1  0  0  0  0
  7 59  1  0  0  0  0
  8  9  1  0  0  0  0
  8 10  1  0  0  0  0
  8 11  1  0  0  0  0
  9 12  1  0  0  0  0
  9 13  1  0  0  0  0
 10 14  1  0  0  0  0
 10 15  1  0  0  0  0
 11 16  1  0  0  0  0
 11 19  2  0  0  0  0
 13 18  1  0  0  0  0
 14 17  1  0  0  0  0
 15 33  1  0  0  0  0
 15 34  1  0  0  0  0
 15 35  1  0  0  0  0
 16 17  2  0  0  0  0
 16 20  1  0  0  0  0
 17 36  1  0  0  0  0
 18 21  1  0  0  0  0
 18 37  1  0  0  0  0
 18 38  1  0  0  0  0
 19 39  1  0  0  0  0
 20 22  2  0  0  0  0
 20 40  1  0  0  0  0
 21 23  1  0  0  0  0
 21 41  1  0  0  0  0
 21 42  1  0  0  0  0
 22 24  1  0  0  0  0
 23 25  1  0  0  0  0
 23 43  1  0  0  0  0
 23 44  1  0  0  0  0
 24 26  1  0  0  0  0
 24 45  1  0  0  0  0
 24 46  1  0  0  0  0
 25 27  1  0  0  0  0
 25 47  1  0  0  0  0
 25 48  1  0  0  0  0
 26 29  1  0  0  0  0
 26 49  1  0  0  0  0
 27 28  1  0  0  0  0
 27 50  1  0  0  0  0
 27 51  1  0  0  0  0
 28 30  1  0  0  0  0
 28 52  1  0  0  0  0
 28 53  1  0  0  0  0
 29 54  1  0  0  0  0
 29 55  1  0  0  0  0
 29 56  1  0  0  0  0
 30 31  1  0  0  0  0
 30 57  1  0  0  0  0
 30 58  1  0  0  0  0
 31 32  1  0  0  0  0
 31 60  1  0  0  0  0
 31 61  1  0  0  0  0
 32 62  1  0  0  0  0
 32 63  1  0  0  0  0
 32 64  1  0  0  0  0
M  END
> <PUBCHEM_COMPOUND_CID>
127028675

> <PUBCHEM_CONFORMER_RMSD>
1.2

> <PUBCHEM_CONFORMER_DIVERSEORDER>
1
71
35
76
2
57
28
70
74
27
18
46
16
44
15
39
72
47
54
40
65
75
38
37
58
12
34
42
5
30
43
33
73
32
36
81
41
24
6
63
50
59
80
13
61
49
31
21
25
19
66
14
56
79
78
67
9
23
69
26
68
8
51
29
55
10
53
62
45
20
3
17
7
52
77
11
60
4
22
64
48

> <PUBCHEM_MMFF94_PARTIAL_CHARGES>
25
1 -0.3
10 0.44
11 -0.04
12 0.72
13 0.51
14 0.49
17 -0.14
18 0.06
19 -0.07
2 -0.43
20 -0.15
22 -0.06
24 0.14
26 0.28
3 -0.57
36 0.15
39 0.15
4 -0.57
40 0.15
5 -0.15
59 0.4
6 -0.57
7 -0.68
8 0.09
9 0.15

> <PUBCHEM_EFFECTIVE_ROTOR_COUNT>
11.6

> <PUBCHEM_PHARMACOPHORE_FEATURES>
11
1 1 acceptor
1 3 acceptor
1 32 hydrophobe
1 4 acceptor
1 5 acceptor
1 6 acceptor
1 7 acceptor
1 7 donor
6 1 2 8 9 10 12 rings
6 5 11 16 19 20 22 rings
6 8 10 11 14 16 17 rings

> <PUBCHEM_HEAVY_ATOM_COUNT>
32

> <PUBCHEM_ATOM_DEF_STEREO_COUNT>
4

> <PUBCHEM_ATOM_UDEF_STEREO_COUNT>
0

> <PUBCHEM_BOND_DEF_STEREO_COUNT>
0

> <PUBCHEM_BOND_UDEF_STEREO_COUNT>
0

> <PUBCHEM_ISOTOPIC_ATOM_COUNT>
0

> <PUBCHEM_COMPONENT_COUNT>
1

> <PUBCHEM_CACTVS_TAUTO_COUNT>
8

> <PUBCHEM_CONFORMER_ID>
07924DC300000001

> <PUBCHEM_MMFF94_ENERGY>
61.7758

> <PUBCHEM_FEATURE_SELFOVERLAP>
55.958

> <PUBCHEM_SHAPE_FINGERPRINT>
10319688 140 18409731751013778059
10622 236 18270960116750591155
11069576 57 18410577258185744758
11103572 155 18338796841050057759
13533116 47 18410572903732341737
13911987 19 17972063541607789644
15152005 1 18053662469802818015
15183329 4 18411420648978538585
15467298 65 18056183899547886391
15475509 35 18131342008299066715
15484559 13 18339933713911870710
15803439 3 17392805661623636142
17134984 74 18338519741409566739
17492 89 18122345675264442618
19319366 153 18341894147117012660
20028762 73 18413113849455875110
20587220 46 17847058883276786759
21133410 171 17027100130797744466
21304303 94 18261109707878030611
21360442 33 18409442580062523027
255183 451 18197503930420896351
2835820 82 18411418372567204851
34797466 226 17095519639466254813
3534868 343 18335717043300783141
397830 11 10663813131894040517
439807 62 18411417328836488409
45270241 37 18262241144536268413
46194498 28 17603586352552105477
57676310 184 16477423370394773479
59682541 52 18334292098506919777
6058803 2 18054811497691220888
70251023 43 18265053539785025248
9831232 110 18409445930247530199

> <PUBCHEM_SHAPE_MULTIPOLES>
617.46
21.01
6.92
1.37
99.22
10.59
-0.08
16.47
-7.32
-14.95
-0.86
-0.47
-0.59
-1.91

> <PUBCHEM_SHAPE_SELFOVERLAP>
1304.627

> <PUBCHEM_SHAPE_VOLUME>
348.6

> <PUBCHEM_COORDINATE_TYPE>
2
5
10

$$$$
