1270513
  -OEChem-03292013313D

 22 23  0     0  0  0  0  0  0999 V2000
   -1.3112   -1.2485   -0.0333 S   0  0  0  0  0  0  0  0  0  0  0  0
   -4.1508   -2.3148   -0.2482 S   0  0  0  0  0  0  0  0  0  0  0  0
    1.5731    0.5994   -2.1462 O   0  0  0  0  0  0  0  0  0  0  0  0
   -2.4807    2.3759    0.3302 O   0  0  0  0  0  0  0  0  0  0  0  0
   -3.3839    0.2474    0.0616 N   0  0  0  0  0  0  0  0  0  0  0  0
    1.4352    0.4125    0.2459 C   0  0  0  0  0  0  0  0  0  0  0  0
   -1.0654    0.4455    0.1635 C   0  0  0  0  0  0  0  0  0  0  0  0
    0.1297    1.0585    0.2728 C   0  0  0  0  0  0  0  0  0  0  0  0
    2.1108    0.2051   -0.9567 C   0  0  0  0  0  0  0  0  0  0  0  0
    2.0086   -0.0012    1.4483 C   0  0  0  0  0  0  0  0  0  0  0  0
   -2.3604    1.1669    0.1991 C   0  0  0  0  0  0  0  0  0  0  0  0
    3.3599   -0.4157   -0.9567 C   0  0  0  0  0  0  0  0  0  0  0  0
    3.2577   -0.6222    1.4481 C   0  0  0  0  0  0  0  0  0  0  0  0
    3.9332   -0.8295    0.2457 C   0  0  0  0  0  0  0  0  0  0  0  0
   -3.0559   -1.0793   -0.0742 C   0  0  0  0  0  0  0  0  0  0  0  0
    0.1695    2.1389    0.3952 H   0  0  0  0  0  0  0  0  0  0  0  0
    1.4959    0.1530    2.3949 H   0  0  0  0  0  0  0  0  0  0  0  0
   -4.3536    0.5468    0.0618 H   0  0  0  0  0  0  0  0  0  0  0  0
    3.8982   -0.5841   -1.8857 H   0  0  0  0  0  0  0  0  0  0  0  0
    3.7042   -0.9444    2.3842 H   0  0  0  0  0  0  0  0  0  0  0  0
    4.9057   -1.3130    0.2457 H   0  0  0  0  0  0  0  0  0  0  0  0
    2.1870    0.3705   -2.8650 H   0  0  0  0  0  0  0  0  0  0  0  0
  1  7  1  0  0  0  0
  1 15  1  0  0  0  0
  2 15  2  0  0  0  0
  3  9  1  0  0  0  0
  3 22  1  0  0  0  0
  4 11  2  0  0  0  0
  5 11  1  0  0  0  0
  5 15  1  0  0  0  0
  5 18  1  0  0  0  0
  6  8  1  0  0  0  0
  6  9  1  0  0  0  0
  6 10  2  0  0  0  0
  7  8  2  0  0  0  0
  7 11  1  0  0  0  0
  8 16  1  0  0  0  0
  9 12  2  0  0  0  0
 10 13  1  0  0  0  0
 10 17  1  0  0  0  0
 12 14  1  0  0  0  0
 12 19  1  0  0  0  0
 13 14  2  0  0  0  0
 13 20  1  0  0  0  0
 14 21  1  0  0  0  0
M  END
> <PUBCHEM_COMPOUND_CID>
1270513

> <PUBCHEM_CONFORMER_RMSD>
0.6

> <PUBCHEM_CONFORMER_DIVERSEORDER>
1
3
4
2

> <PUBCHEM_MMFF94_PARTIAL_CHARGES>
22
1 -0.24
10 -0.15
11 0.62
12 -0.15
13 -0.15
14 -0.15
15 0.58
16 0.15
17 0.15
18 0.37
19 0.15
2 -0.38
20 0.15
21 0.15
22 0.45
3 -0.53
4 -0.57
5 -0.49
6 0.03
7 0.12
8 -0.18
9 0.08

> <PUBCHEM_EFFECTIVE_ROTOR_COUNT>
1.4

> <PUBCHEM_PHARMACOPHORE_FEATURES>
6
1 2 acceptor
1 3 donor
1 4 acceptor
1 5 donor
5 1 5 7 11 15 rings
6 6 9 10 12 13 14 rings

> <PUBCHEM_HEAVY_ATOM_COUNT>
15

> <PUBCHEM_ATOM_DEF_STEREO_COUNT>
0

> <PUBCHEM_ATOM_UDEF_STEREO_COUNT>
0

> <PUBCHEM_BOND_DEF_STEREO_COUNT>
1

> <PUBCHEM_BOND_UDEF_STEREO_COUNT>
0

> <PUBCHEM_ISOTOPIC_ATOM_COUNT>
0

> <PUBCHEM_COMPONENT_COUNT>
1

> <PUBCHEM_CACTVS_TAUTO_COUNT>
11

> <PUBCHEM_CONFORMER_ID>
001362F100000001

> <PUBCHEM_MMFF94_ENERGY>
32.63

> <PUBCHEM_FEATURE_SELFOVERLAP>
30.446

> <PUBCHEM_SHAPE_FINGERPRINT>
10618630 7 18340484586058435495
11471102 22 16128373753490827834
11543360 7 15864626305961139619
11578080 2 17678707168784419404
11796584 16 18056769715537289398
12236239 1 17895196575796761448
12346177 29 18341601591129998493
12363563 72 18270961383676590743
12500047 106 18197492922392744953
12932764 1 17894631422451615028
13134695 92 15864066560079363878
13296908 3 17561082492701515040
13581323 91 18413666924345656634
14115302 16 17968092096516615507
15219456 202 17346874542298755928
15653759 3 17918275337585112402
15885798 251 18269837678714288267
16752209 62 18335126610262278851
16945 1 18413109437991536561
18186145 218 13407072574370986733
18522853 266 18339644417198131862
18915474 69 18042125508586156755
19049666 15 17201933521942461152
19422 9 18113902641275110034
200 152 17022896856778657011
20279233 1 17489585636714216701
20361792 2 17167855336129504620
204376 136 15266478747714311354
20715346 28 17489866025016800136
21639500 275 16226342502810053788
22112679 90 18187093818726845964
22646028 28 18334290993835304315
232386 152 18410008857670716270
23402655 69 16588299454140740654
23557571 272 17989208105621928769
23559900 14 18057889044217463182
23598291 2 17967542250539602022
3082319 5 17894634768083042807
31174 14 17345466175193303169
474 4 17315365971105900084
57812782 119 17775279456609664131
5902787 121 18343300405024446729
6049 1 17704073997005341488
7364860 26 18126565858442438520
74978 22 17313110786271876914
7615 1 18041000639270920924
77492 1 17894916196031507984
8030462 33 17895196635747020609

> <PUBCHEM_SHAPE_MULTIPOLES>
299.67
7.58
1.81
1.28
1.56
0.18
0.29
-3.71
-0.2
2.45
-0.08
-1.45
0.01
-0.46

> <PUBCHEM_SHAPE_SELFOVERLAP>
622.238

> <PUBCHEM_SHAPE_VOLUME>
172.2

> <PUBCHEM_COORDINATE_TYPE>
2
5
10

$$$$
