127032720
  -OEChem-03292013293D

 62 65  0     1  0  0  0  0  0999 V2000
   -1.5430    1.3823    0.2594 O   0  0  0  0  0  0  0  0  0  0  0  0
    2.1277   -0.3953   -1.8419 O   0  0  0  0  0  0  0  0  0  0  0  0
    2.3870    0.1962    1.7628 O   0  0  0  0  0  0  0  0  0  0  0  0
    0.7498    1.8533   -1.0726 O   0  0  0  0  0  0  0  0  0  0  0  0
   -1.7778   -2.2915    1.0005 O   0  0  0  0  0  0  0  0  0  0  0  0
    3.3095    2.5795   -0.1394 O   0  0  0  0  0  0  0  0  0  0  0  0
    5.6499   -1.4913    0.5205 O   0  0  0  0  0  0  0  0  0  0  0  0
   -5.3296   -0.1811   -0.3650 O   0  0  0  0  0  0  0  0  0  0  0  0
   -4.4966   -2.2759   -0.5350 O   0  0  0  0  0  0  0  0  0  0  0  0
    2.1350   -0.7740   -0.4569 C   0  0  1  0  0  0  0  0  0  0  0  0
   -0.4488   -0.7423   -0.3445 C   0  0  2  0  0  0  0  0  0  0  0  0
    2.1568    0.5214    0.3916 C   0  0  1  0  0  0  0  0  0  0  0  0
    0.8332   -1.6151   -0.1766 C   0  0  1  0  0  0  0  0  0  0  0  0
   -0.4272    0.5130    0.5720 C   0  0  1  0  0  0  0  0  0  0  0  0
    0.8506    1.3417    0.2642 C   0  0  2  0  0  0  0  0  0  0  0  0
    3.3915   -1.6296   -0.1964 C   0  0  0  0  0  0  0  0  0  0  0  0
   -1.7848   -1.4980   -0.1815 C   0  0  2  0  0  0  0  0  0  0  0  0
    3.3838    1.3575    0.0146 C   0  0  0  0  0  0  0  0  0  0  0  0
    4.7251    0.6376   -0.1282 C   0  0  0  0  0  0  0  0  0  0  0  0
    0.7511   -2.8703   -1.0670 C   0  0  0  0  0  0  0  0  0  0  0  0
   -0.5244    0.2141    2.0840 C   0  0  0  0  0  0  0  0  0  0  0  0
    4.6609   -0.8654    0.1254 C   0  0  0  0  0  0  0  0  0  0  0  0
   -2.9395   -0.5327   -0.1447 C   0  0  0  0  0  0  0  0  0  0  0  0
   -2.7689    0.7893    0.0259 C   0  0  0  0  0  0  0  0  0  0  0  0
    5.6895    1.2697    0.8906 C   0  0  0  0  0  0  0  0  0  0  0  0
    5.2603    0.8525   -1.5489 C   0  0  0  0  0  0  0  0  0  0  0  0
   -3.8896    1.7159   -0.0075 C   0  0  0  0  0  0  0  0  0  0  0  0
   -4.3009   -1.0768   -0.3653 C   0  0  0  0  0  0  0  0  0  0  0  0
   -2.7181   -3.3526    0.9186 C   0  0  0  0  0  0  0  0  0  0  0  0
   -5.1235    1.2102   -0.1903 C   0  0  0  0  0  0  0  0  0  0  0  0
   -3.5794    3.1805    0.1499 C   0  0  0  0  0  0  0  0  0  0  0  0
   -6.4094    1.9773   -0.2184 C   0  0  0  0  0  0  0  0  0  0  0  0
   -0.4599   -0.3782   -1.3845 H   0  0  0  0  0  0  0  0  0  0  0  0
    0.8809   -1.9722    0.8598 H   0  0  0  0  0  0  0  0  0  0  0  0
    0.8709    2.2166    0.9271 H   0  0  0  0  0  0  0  0  0  0  0  0
    3.6239   -2.2540   -1.0669 H   0  0  0  0  0  0  0  0  0  0  0  0
    3.2184   -2.2851    0.6665 H   0  0  0  0  0  0  0  0  0  0  0  0
   -1.8891   -2.1399   -1.0670 H   0  0  0  0  0  0  0  0  0  0  0  0
    1.6670   -3.4656   -1.0165 H   0  0  0  0  0  0  0  0  0  0  0  0
    0.5694   -2.6102   -2.1147 H   0  0  0  0  0  0  0  0  0  0  0  0
   -0.0577   -3.5323   -0.7429 H   0  0  0  0  0  0  0  0  0  0  0  0
   -0.3299    1.1235    2.6652 H   0  0  0  0  0  0  0  0  0  0  0  0
    0.1702   -0.5582    2.4190 H   0  0  0  0  0  0  0  0  0  0  0  0
   -1.5310   -0.1013    2.3778 H   0  0  0  0  0  0  0  0  0  0  0  0
    2.2578   -1.1910   -2.3837 H   0  0  0  0  0  0  0  0  0  0  0  0
    2.3332    1.0166    2.2824 H   0  0  0  0  0  0  0  0  0  0  0  0
    1.4568    2.5087   -1.1948 H   0  0  0  0  0  0  0  0  0  0  0  0
    5.3763    1.9178   -1.7782 H   0  0  0  0  0  0  0  0  0  0  0  0
    5.7763    2.3530    0.7480 H   0  0  0  0  0  0  0  0  0  0  0  0
    6.6976    0.8471    0.8110 H   0  0  0  0  0  0  0  0  0  0  0  0
    5.3406    1.1006    1.9163 H   0  0  0  0  0  0  0  0  0  0  0  0
    4.5859    0.4297   -2.3009 H   0  0  0  0  0  0  0  0  0  0  0  0
    6.2365    0.3722   -1.6828 H   0  0  0  0  0  0  0  0  0  0  0  0
   -2.3285   -4.1524    1.5595 H   0  0  0  0  0  0  0  0  0  0  0  0
   -2.8046   -3.7951   -0.0782 H   0  0  0  0  0  0  0  0  0  0  0  0
   -3.6660   -3.0686    1.3807 H   0  0  0  0  0  0  0  0  0  0  0  0
   -2.8247    3.4955   -0.5800 H   0  0  0  0  0  0  0  0  0  0  0  0
   -3.1970    3.3841    1.1560 H   0  0  0  0  0  0  0  0  0  0  0  0
   -4.4456    3.8267   -0.0101 H   0  0  0  0  0  0  0  0  0  0  0  0
   -6.7342    2.1284   -1.2525 H   0  0  0  0  0  0  0  0  0  0  0  0
   -6.3429    2.9499    0.2742 H   0  0  0  0  0  0  0  0  0  0  0  0
   -7.1921    1.4170    0.3050 H   0  0  0  0  0  0  0  0  0  0  0  0
  1 14  1  0  0  0  0
  1 24  1  0  0  0  0
  2 10  1  0  0  0  0
  2 45  1  0  0  0  0
  3 12  1  0  0  0  0
  3 46  1  0  0  0  0
  4 15  1  0  0  0  0
  4 47  1  0  0  0  0
  5 17  1  0  0  0  0
  5 29  1  0  0  0  0
  6 18  2  0  0  0  0
  7 22  2  0  0  0  0
  8 28  1  0  0  0  0
  8 30  1  0  0  0  0
  9 28  2  0  0  0  0
 10 12  1  0  0  0  0
 10 13  1  0  0  0  0
 10 16  1  0  0  0  0
 11 13  1  0  0  0  0
 11 14  1  0  0  0  0
 11 17  1  0  0  0  0
 11 33  1  0  0  0  0
 12 15  1  0  0  0  0
 12 18  1  0  0  0  0
 13 20  1  0  0  0  0
 13 34  1  0  0  0  0
 14 15  1  0  0  0  0
 14 21  1  0  0  0  0
 15 35  1  0  0  0  0
 16 22  1  0  0  0  0
 16 36  1  0  0  0  0
 16 37  1  0  0  0  0
 17 23  1  0  0  0  0
 17 38  1  0  0  0  0
 18 19  1  0  0  0  0
 19 22  1  0  0  0  0
 19 25  1  0  0  0  0
 19 26  1  0  0  0  0
 20 39  1  0  0  0  0
 20 40  1  0  0  0  0
 20 41  1  0  0  0  0
 21 42  1  0  0  0  0
 21 43  1  0  0  0  0
 21 44  1  0  0  0  0
 23 24  2  0  0  0  0
 23 28  1  0  0  0  0
 24 27  1  0  0  0  0
 25 49  1  0  0  0  0
 25 50  1  0  0  0  0
 25 51  1  0  0  0  0
 26 48  1  0  0  0  0
 26 52  1  0  0  0  0
 26 53  1  0  0  0  0
 27 30  2  0  0  0  0
 27 31  1  0  0  0  0
 29 54  1  0  0  0  0
 29 55  1  0  0  0  0
 29 56  1  0  0  0  0
 30 32  1  0  0  0  0
 31 57  1  0  0  0  0
 31 58  1  0  0  0  0
 31 59  1  0  0  0  0
 32 60  1  0  0  0  0
 32 61  1  0  0  0  0
 32 62  1  0  0  0  0
M  END
> <PUBCHEM_COMPOUND_CID>
127032720

> <PUBCHEM_CONFORMER_RMSD>
0.8

> <PUBCHEM_CONFORMER_DIVERSEORDER>
1

> <PUBCHEM_MMFF94_PARTIAL_CHARGES>
29
1 -0.36
10 0.28
12 0.34
14 0.28
15 0.28
16 0.06
17 0.42
18 0.45
19 0.12
2 -0.68
22 0.45
23 -0.12
24 0.08
27 -0.14
28 0.71
29 0.28
3 -0.68
30 -0.06
31 0.14
32 0.14
4 -0.68
45 0.4
46 0.4
47 0.4
5 -0.56
6 -0.57
7 -0.57
8 -0.23
9 -0.57

> <PUBCHEM_EFFECTIVE_ROTOR_COUNT>
2.2

> <PUBCHEM_PHARMACOPHORE_FEATURES>
16
1 1 acceptor
1 2 acceptor
1 2 donor
1 3 acceptor
1 3 donor
1 4 acceptor
1 4 donor
1 5 acceptor
1 6 acceptor
1 7 acceptor
1 9 acceptor
3 19 25 26 hydrophobe
6 1 11 14 17 23 24 rings
6 10 11 12 13 14 15 rings
6 10 12 16 18 19 22 rings
6 8 23 24 27 28 30 rings

> <PUBCHEM_HEAVY_ATOM_COUNT>
32

> <PUBCHEM_ATOM_DEF_STEREO_COUNT>
7

> <PUBCHEM_ATOM_UDEF_STEREO_COUNT>
0

> <PUBCHEM_BOND_DEF_STEREO_COUNT>
0

> <PUBCHEM_BOND_UDEF_STEREO_COUNT>
0

> <PUBCHEM_ISOTOPIC_ATOM_COUNT>
0

> <PUBCHEM_COMPONENT_COUNT>
1

> <PUBCHEM_CACTVS_TAUTO_COUNT>
6

> <PUBCHEM_CONFORMER_ID>
07925D9000000001

> <PUBCHEM_MMFF94_ENERGY>
123.2407

> <PUBCHEM_FEATURE_SELFOVERLAP>
81.284

> <PUBCHEM_SHAPE_FINGERPRINT>
10411042 1 17761774370678680347
10675989 125 17691687788508632985
10863032 1 18408605894214571650
10906281 52 18341067236926343949
11370993 70 18412825767838073359
11578080 2 17344610755078568776
12011746 2 18201727254078652756
12107183 9 18046900485927743562
12236239 1 17822010895872016117
12403259 415 17988920123537377065
12788726 201 17988647328895729025
13140716 1 18410855464918962480
13224815 77 17775291585808402082
13402501 40 18343299275485009849
13782708 43 17703505614361779151
13911987 19 16988846119864559196
14790565 3 17908993106496318433
15131766 46 16300099997606462308
15183329 4 18411983533478672100
15196674 1 18412543214803530766
15420108 30 15610199980633416090
15788980 27 18259707787244187928
1601671 61 18409446990360608372
17349148 13 18413671322344617036
17980427 23 17895198856334875004
18608769 82 18411983581736084467
18681886 176 18342734165585168488
20511986 3 18338783555269844150
20715895 44 18411418367353742109
21033648 144 18261100928569686756
21033648 29 17988348377802033722
21236236 1 18412824711882903255
21267235 1 18411706495066041175
21279426 13 18341333301249439847
21421861 104 17677599883629230498
22182313 1 18128560269376764598
22393880 68 18343028769981250798
23402539 116 18409724063058903861
23559900 14 18128535951583424070
27425 322 17240491337433897441
3004659 81 18336828598659401858
335352 9 18410292471578096510
34797466 226 17346601889322482452
3493558 16 18263369246859526309
350125 39 18413388739240223561
3680242 22 18264770965391918178
4073 2 18260268594367800426
4214541 1 18411417302259881437
460360 51 18265074490688521658
5104073 3 18411700993181046939
5265222 85 18127417967564526260
5283173 99 18411981334487058705
59755656 215 18342175519151963565
9709674 26 18413395336441982655
9981440 41 18408605872592685707

> <PUBCHEM_SHAPE_MULTIPOLES>
605.72
12.71
3.11
1.18
0.74
0.88
0.18
-4.48
-1.18
2.41
0.01
-0.76
0.1
0.26

> <PUBCHEM_SHAPE_SELFOVERLAP>
1320.114

> <PUBCHEM_SHAPE_VOLUME>
326.1

> <PUBCHEM_COORDINATE_TYPE>
2
5
10

$$$$
