127138
  -OEChem-03292013323D

 34 37  0     1  0  0  0  0  0999 V2000
    3.3076    1.1606   -0.4964 P   0  0  1  0  0  0  0  0  0  0  0  0
    0.9074   -0.8630    1.4292 O   0  0  0  0  0  0  0  0  0  0  0  0
    2.0883    0.2527   -1.0381 O   0  0  0  0  0  0  0  0  0  0  0  0
    3.3070    0.8540    1.0914 O   0  0  0  0  0  0  0  0  0  0  0  0
    0.5116   -2.9720   -0.9866 O   0  0  0  0  0  0  0  0  0  0  0  0
    4.6360    0.4182   -1.0465 O   0  0  0  0  0  0  0  0  0  0  0  0
    3.2170    2.6167   -0.8475 O   0  0  0  0  0  0  0  0  0  0  0  0
   -1.0524   -0.0533    0.3532 N   0  0  0  0  0  0  0  0  0  0  0  0
   -1.7592    2.0549    0.3029 N   0  0  0  0  0  0  0  0  0  0  0  0
    1.9970   -1.1089   -0.6370 C   0  0  1  0  0  0  0  0  0  0  0  0
    2.1643   -1.2827    0.8687 C   0  0  1  0  0  0  0  0  0  0  0  0
    0.5616   -1.5552   -0.8420 C   0  0  2  0  0  0  0  0  0  0  0  0
   -0.1255   -1.1806    0.4757 C   0  0  1  0  0  0  0  0  0  0  0  0
    3.3032   -0.5042    1.5092 C   0  0  0  0  0  0  0  0  0  0  0  0
   -2.4028   -0.1236    0.1191 C   0  0  0  0  0  0  0  0  0  0  0  0
   -0.7169    1.2690    0.4552 C   0  0  0  0  0  0  0  0  0  0  0  0
   -2.8200    1.2044    0.0922 C   0  0  0  0  0  0  0  0  0  0  0  0
   -3.2677   -1.2028   -0.0657 C   0  0  0  0  0  0  0  0  0  0  0  0
   -4.1774    1.4912   -0.1310 C   0  0  0  0  0  0  0  0  0  0  0  0
   -4.6151   -0.8989   -0.2869 C   0  0  0  0  0  0  0  0  0  0  0  0
   -5.0639    0.4234   -0.3192 C   0  0  0  0  0  0  0  0  0  0  0  0
    2.7251   -1.6989   -1.2016 H   0  0  0  0  0  0  0  0  0  0  0  0
    2.2758   -2.3455    1.1189 H   0  0  0  0  0  0  0  0  0  0  0  0
    0.0790   -1.1075   -1.7173 H   0  0  0  0  0  0  0  0  0  0  0  0
   -0.6964   -2.0172    0.8944 H   0  0  0  0  0  0  0  0  0  0  0  0
    3.1989   -0.5059    2.5988 H   0  0  0  0  0  0  0  0  0  0  0  0
    4.2707   -0.9504    1.2604 H   0  0  0  0  0  0  0  0  0  0  0  0
    0.9961   -3.1981   -1.7988 H   0  0  0  0  0  0  0  0  0  0  0  0
    0.2930    1.6066    0.6420 H   0  0  0  0  0  0  0  0  0  0  0  0
   -2.9229   -2.2303   -0.0442 H   0  0  0  0  0  0  0  0  0  0  0  0
    4.7683   -0.5387   -0.8793 H   0  0  0  0  0  0  0  0  0  0  0  0
   -4.5361    2.5151   -0.1580 H   0  0  0  0  0  0  0  0  0  0  0  0
   -5.3256   -1.7080   -0.4370 H   0  0  0  0  0  0  0  0  0  0  0  0
   -6.1171    0.6281   -0.4933 H   0  0  0  0  0  0  0  0  0  0  0  0
  1  3  1  0  0  0  0
  1  4  1  0  0  0  0
  1  6  1  0  0  0  0
  1  7  2  0  0  0  0
  2 11  1  0  0  0  0
  2 13  1  0  0  0  0
  3 10  1  0  0  0  0
  4 14  1  0  0  0  0
  5 12  1  0  0  0  0
  5 28  1  0  0  0  0
  6 31  1  0  0  0  0
  8 13  1  0  0  0  0
  8 15  1  0  0  0  0
  8 16  1  0  0  0  0
  9 16  2  0  0  0  0
  9 17  1  0  0  0  0
 10 11  1  0  0  0  0
 10 12  1  0  0  0  0
 10 22  1  0  0  0  0
 11 14  1  0  0  0  0
 11 23  1  0  0  0  0
 12 13  1  0  0  0  0
 12 24  1  0  0  0  0
 13 25  1  0  0  0  0
 14 26  1  0  0  0  0
 14 27  1  0  0  0  0
 15 17  1  0  0  0  0
 15 18  2  0  0  0  0
 16 29  1  0  0  0  0
 17 19  2  0  0  0  0
 18 20  1  0  0  0  0
 18 30  1  0  0  0  0
 19 21  1  0  0  0  0
 19 32  1  0  0  0  0
 20 21  2  0  0  0  0
 20 33  1  0  0  0  0
 21 34  1  0  0  0  0
M  END
> <PUBCHEM_COMPOUND_CID>
127138

> <PUBCHEM_CONFORMER_RMSD>
0.6

> <PUBCHEM_CONFORMER_DIVERSEORDER>
1
10
31
3
5
29
8
30
12
9
20
4
22
24
19
28
17
2
14
27
11
23
13
21
26
18
6
7
25
16
15

> <PUBCHEM_MMFF94_PARTIAL_CHARGES>
28
1 1.51
10 0.28
11 0.28
12 0.28
13 0.54
14 0.28
15 -0.15
16 0.04
17 0.23
18 -0.15
19 -0.15
2 -0.56
20 -0.15
21 -0.15
28 0.4
29 0.15
3 -0.55
30 0.15
31 0.5
32 0.15
33 0.15
34 0.15
4 -0.55
5 -0.68
6 -0.77
7 -0.7
8 0.05
9 -0.57

> <PUBCHEM_EFFECTIVE_ROTOR_COUNT>
2.2

> <PUBCHEM_PHARMACOPHORE_FEATURES>
10
1 2 acceptor
1 5 acceptor
1 5 donor
1 6 acceptor
1 7 acceptor
3 8 9 16 cation
5 2 10 11 12 13 rings
5 8 9 15 16 17 rings
6 1 3 4 10 11 14 rings
6 15 17 18 19 20 21 rings

> <PUBCHEM_HEAVY_ATOM_COUNT>
21

> <PUBCHEM_ATOM_DEF_STEREO_COUNT>
2

> <PUBCHEM_ATOM_UDEF_STEREO_COUNT>
2

> <PUBCHEM_BOND_DEF_STEREO_COUNT>
0

> <PUBCHEM_BOND_UDEF_STEREO_COUNT>
0

> <PUBCHEM_ISOTOPIC_ATOM_COUNT>
0

> <PUBCHEM_COMPONENT_COUNT>
1

> <PUBCHEM_CACTVS_TAUTO_COUNT>
1

> <PUBCHEM_CONFORMER_ID>
0001F0A200000001

> <PUBCHEM_MMFF94_ENERGY>
29.2369

> <PUBCHEM_FEATURE_SELFOVERLAP>
51.106

> <PUBCHEM_SHAPE_FINGERPRINT>
10498660 4 18341895177656306597
10759866 29 18333449850381518730
10906281 52 18411429419095690659
11132069 177 18412257316427113355
11578080 2 16951393326691730437
11759241 127 18409162199790211509
12173636 292 18128250078871113813
12236239 1 18187078460382341522
12403814 3 17821725001838246813
12633257 1 14852163017961527156
128620 24 18131347510062533965
13134695 92 15068622651828765407
13224815 77 18335709325464928585
13583140 156 16878229761347772417
13675066 3 11602537641409199767
14004511 7 11314309438864354797
14787075 74 17752486731217290859
14790565 3 18052545370700111385
15375358 24 18341886360631649995
15848702 105 18265057010250546728
15849732 13 18340759361529937602
17492 89 18334854966276370107
1813 80 17170669970529334242
18186145 218 17531531988466499619
18681886 176 18413105087274113712
20715895 44 17827904141122563077
21524375 3 18334863839735877142
23227448 37 17913201250558684284
23402539 116 18271801354477418350
23557571 272 17988920020479377880
23558518 356 17980485560088793401
23559900 14 18055065472044601303
296302 2 17167583795359453971
3060560 45 17632570557122964516
3323516 105 17489307507406149451
34797466 226 16271919467811485353
351380 180 18408042931318349668
4280585 95 17264706719938220910
4325135 7 18333730239158466127
4340502 62 16660650610111196321
474 4 17531253888917306956
4990 188 16200432480914942111
5104073 3 18337673023404691027
537710 114 18412260649195517793
58051976 378 18343582906582626695
6333272 397 18334858324570698658
67856867 119 18334286570208529880
7288768 16 16737205446930250356
7364860 26 18127410047107067070
9709674 26 18340208467112022119

> <PUBCHEM_SHAPE_MULTIPOLES>
390.84
8.98
2.26
1.13
4.47
0.02
-0.14
2.68
0.98
-0.58
0.51
-1.17
-0.18
-0.61

> <PUBCHEM_SHAPE_SELFOVERLAP>
848.462

> <PUBCHEM_SHAPE_VOLUME>
215.5

> <PUBCHEM_COORDINATE_TYPE>
2
5
10

$$$$
