127132
  -OEChem-03292013323D

 50 50  0     1  0  0  0  0  0999 V2000
   -0.8320    1.0829    0.2736 O   0  0  0  0  0  0  0  0  0  0  0  0
    2.4161   -1.4965    0.5405 O   0  0  0  0  0  0  0  0  0  0  0  0
   -0.2565   -2.5332    0.6908 O   0  0  0  0  0  0  0  0  0  0  0  0
    0.0377    1.1298   -1.9338 O   0  0  0  0  0  0  0  0  0  0  0  0
   -3.4275    0.3367    0.6591 O   0  0  0  0  0  0  0  0  0  0  0  0
    3.3815    2.8727    0.3217 O   0  0  0  0  0  0  0  0  0  0  0  0
    3.7064   -1.1497   -1.3440 O   0  0  0  0  0  0  0  0  0  0  0  0
   -0.5438   -2.2920   -1.5887 O   0  0  0  0  0  0  0  0  0  0  0  0
   -1.8208    2.5015   -1.8954 O   0  0  0  0  0  0  0  0  0  0  0  0
   -4.8425   -0.3366    2.3566 O   0  0  0  0  0  0  0  0  0  0  0  0
    2.0026    1.1974    1.1637 N   0  0  0  0  0  0  0  0  0  0  0  0
    1.2797   -0.8405   -0.0165 C   0  0  2  0  0  0  0  0  0  0  0  0
    1.5433    0.6662   -0.1029 C   0  0  1  0  0  0  0  0  0  0  0  0
    0.0286   -1.1416    0.8108 C   0  0  1  0  0  0  0  0  0  0  0  0
   -1.1556   -0.3104    0.3004 C   0  0  1  0  0  0  0  0  0  0  0  0
    0.2847    1.4106   -0.5583 C   0  0  2  0  0  0  0  0  0  0  0  0
   -2.3876   -0.4654    1.1878 C   0  0  0  0  0  0  0  0  0  0  0  0
    2.8845    2.2579    1.2616 C   0  0  0  0  0  0  0  0  0  0  0  0
    3.5881   -1.3263   -0.1390 C   0  0  0  0  0  0  0  0  0  0  0  0
   -0.5264   -2.9743   -0.5731 C   0  0  0  0  0  0  0  0  0  0  0  0
   -1.0541    1.7458   -2.4769 C   0  0  0  0  0  0  0  0  0  0  0  0
    3.1752    2.6239    2.6925 C   0  0  0  0  0  0  0  0  0  0  0  0
    4.7403   -1.3866    0.8175 C   0  0  0  0  0  0  0  0  0  0  0  0
   -0.8049   -4.4466   -0.5465 C   0  0  0  0  0  0  0  0  0  0  0  0
   -4.6138    0.3111    1.3441 C   0  0  0  0  0  0  0  0  0  0  0  0
   -1.1882    1.3607   -3.9191 C   0  0  0  0  0  0  0  0  0  0  0  0
   -5.6152    1.2021    0.6736 C   0  0  0  0  0  0  0  0  0  0  0  0
    1.1995   -1.1944   -1.0447 H   0  0  0  0  0  0  0  0  0  0  0  0
    2.3305    0.8646   -0.8396 H   0  0  0  0  0  0  0  0  0  0  0  0
    0.2219   -0.9417    1.8708 H   0  0  0  0  0  0  0  0  0  0  0  0
   -1.4852   -0.5556   -0.7098 H   0  0  0  0  0  0  0  0  0  0  0  0
    0.4508    2.4912   -0.4626 H   0  0  0  0  0  0  0  0  0  0  0  0
   -2.7095   -1.5124    1.2211 H   0  0  0  0  0  0  0  0  0  0  0  0
   -2.1611   -0.1208    2.2042 H   0  0  0  0  0  0  0  0  0  0  0  0
    1.6089    0.8121    2.0170 H   0  0  0  0  0  0  0  0  0  0  0  0
    3.4272    1.7291    3.2690 H   0  0  0  0  0  0  0  0  0  0  0  0
    2.2972    3.1055    3.1313 H   0  0  0  0  0  0  0  0  0  0  0  0
    4.0222    3.3144    2.7311 H   0  0  0  0  0  0  0  0  0  0  0  0
    5.6744   -1.2331    0.2697 H   0  0  0  0  0  0  0  0  0  0  0  0
    4.6436   -0.5967    1.5665 H   0  0  0  0  0  0  0  0  0  0  0  0
    4.7734   -2.3686    1.2957 H   0  0  0  0  0  0  0  0  0  0  0  0
   -1.6750   -4.6474    0.0835 H   0  0  0  0  0  0  0  0  0  0  0  0
    0.0722   -4.9826   -0.1754 H   0  0  0  0  0  0  0  0  0  0  0  0
   -1.0219   -4.7929   -1.5610 H   0  0  0  0  0  0  0  0  0  0  0  0
   -2.0678    1.8514   -4.3454 H   0  0  0  0  0  0  0  0  0  0  0  0
   -0.3042    1.6861   -4.4731 H   0  0  0  0  0  0  0  0  0  0  0  0
   -1.3187    0.2788   -4.0020 H   0  0  0  0  0  0  0  0  0  0  0  0
   -6.5563    1.1742    1.2303 H   0  0  0  0  0  0  0  0  0  0  0  0
   -5.2465    2.2308    0.6634 H   0  0  0  0  0  0  0  0  0  0  0  0
   -5.8013    0.8495   -0.3438 H   0  0  0  0  0  0  0  0  0  0  0  0
  1 15  1  0  0  0  0
  1 16  1  0  0  0  0
  2 12  1  0  0  0  0
  2 19  1  0  0  0  0
  3 14  1  0  0  0  0
  3 20  1  0  0  0  0
  4 16  1  0  0  0  0
  4 21  1  0  0  0  0
  5 17  1  0  0  0  0
  5 25  1  0  0  0  0
  6 18  2  0  0  0  0
  7 19  2  0  0  0  0
  8 20  2  0  0  0  0
  9 21  2  0  0  0  0
 10 25  2  0  0  0  0
 11 13  1  0  0  0  0
 11 18  1  0  0  0  0
 11 35  1  0  0  0  0
 12 13  1  0  0  0  0
 12 14  1  0  0  0  0
 12 28  1  0  0  0  0
 13 16  1  0  0  0  0
 13 29  1  0  0  0  0
 14 15  1  0  0  0  0
 14 30  1  0  0  0  0
 15 17  1  0  0  0  0
 15 31  1  0  0  0  0
 16 32  1  0  0  0  0
 17 33  1  0  0  0  0
 17 34  1  0  0  0  0
 18 22  1  0  0  0  0
 19 23  1  0  0  0  0
 20 24  1  0  0  0  0
 21 26  1  0  0  0  0
 22 36  1  0  0  0  0
 22 37  1  0  0  0  0
 22 38  1  0  0  0  0
 23 39  1  0  0  0  0
 23 40  1  0  0  0  0
 23 41  1  0  0  0  0
 24 42  1  0  0  0  0
 24 43  1  0  0  0  0
 24 44  1  0  0  0  0
 25 27  1  0  0  0  0
 26 45  1  0  0  0  0
 26 46  1  0  0  0  0
 26 47  1  0  0  0  0
 27 48  1  0  0  0  0
 27 49  1  0  0  0  0
 27 50  1  0  0  0  0
M  END
> <PUBCHEM_COMPOUND_CID>
127132

> <PUBCHEM_CONFORMER_RMSD>
1

> <PUBCHEM_CONFORMER_DIVERSEORDER>
1
62
12
3
48
99
90
115
94
14
71
79
88
64
80
73
49
112
16
92
52
42
69
65
24
109
104
119
38
106
87
66
96
11
54
20
23
100
113
93
95
110
22
21
89
68
53
74
102
78
83
76
82
101
46
70
61
47
29
43
60
84
19
30
58
44
17
77
63
116
81
107
39
31
111
117
118
15
105
57
85
50
25
40
33
2
72
86
51
97
56
91
26
67
45
6
98
35
10
103
114
28
8
55
36
41
108
37
7
59
34
32
27
5
75
18
13
9
4

> <PUBCHEM_MMFF94_PARTIAL_CHARGES>
28
1 -0.56
10 -0.57
11 -0.73
12 0.28
13 0.3
14 0.28
15 0.28
16 0.56
17 0.28
18 0.57
19 0.66
2 -0.43
20 0.66
21 0.66
22 0.06
23 0.06
24 0.06
25 0.66
26 0.06
27 0.06
3 -0.43
35 0.37
4 -0.43
5 -0.43
6 -0.57
7 -0.57
8 -0.57
9 -0.57

> <PUBCHEM_EFFECTIVE_ROTOR_COUNT>
12.2

> <PUBCHEM_PHARMACOPHORE_FEATURES>
8
1 1 acceptor
1 10 acceptor
1 11 donor
1 6 acceptor
1 7 acceptor
1 8 acceptor
1 9 acceptor
6 1 12 13 14 15 16 rings

> <PUBCHEM_HEAVY_ATOM_COUNT>
27

> <PUBCHEM_ATOM_DEF_STEREO_COUNT>
4

> <PUBCHEM_ATOM_UDEF_STEREO_COUNT>
1

> <PUBCHEM_BOND_DEF_STEREO_COUNT>
0

> <PUBCHEM_BOND_UDEF_STEREO_COUNT>
0

> <PUBCHEM_ISOTOPIC_ATOM_COUNT>
0

> <PUBCHEM_COMPONENT_COUNT>
1

> <PUBCHEM_CACTVS_TAUTO_COUNT>
2

> <PUBCHEM_CONFORMER_ID>
0001F09C00000001

> <PUBCHEM_MMFF94_ENERGY>
58.4394

> <PUBCHEM_FEATURE_SELFOVERLAP>
40.605

> <PUBCHEM_SHAPE_FINGERPRINT>
10165383 225 18337965605151828968
11578080 2 18055090997288403628
12035758 1 18339913845297895706
12633257 1 18268975618574313810
12716301 132 17460014224504564464
13140716 1 18338799026122379098
13149001 5 18268970048107199446
14022347 108 16732995231474348896
14178342 30 17980195615104363074
17980427 23 17202174431797197378
17980427 26 18059564767898112533
20600515 1 17024905617710571233
20691752 17 17822846619293514738
21033648 29 18334860528490685681
21285901 2 17751938916892105159
22182313 1 18115005438711486828
23419403 2 18190446169571296793
23558518 356 18122064461901448778
238 59 17832668367300540804
2748010 2 18116130221852908084
3380486 145 17971731505521202437
350125 39 18335708200083809376
59554788 62 17972021798313230132
9999458 23 18201449038602538723

> <PUBCHEM_SHAPE_MULTIPOLES>
491.97
7.88
3.91
2.69
4.5
2.9
-2.32
-2.46
5.67
-1.57
-0.42
1.56
-2.16
1.73

> <PUBCHEM_SHAPE_SELFOVERLAP>
995.94

> <PUBCHEM_SHAPE_VOLUME>
280.9

> <PUBCHEM_COORDINATE_TYPE>
2
5
10

$$$$
