127198
  -OEChem-03292013323D

 29 28  0     0  0  0  0  0  0999 V2000
    1.9839   -0.4622    1.0031 S   0  0  0  0  0  0  0  0  0  0  0  0
   -1.7951   -0.2649   -0.7301 S   0  0  0  0  0  0  0  0  0  0  0  0
    3.6281   -1.0758   -0.1383 S   0  0  0  0  0  0  0  0  0  0  0  0
   -3.3967   -1.4092   -0.0160 S   0  0  0  0  0  0  0  0  0  0  0  0
    4.3232   -2.2418    0.7643 O   0  0  0  0  0  0  0  0  0  0  0  0
   -3.4262   -2.7084   -1.0001 O   0  0  0  0  0  0  0  0  0  0  0  0
    3.1140   -1.6932   -1.3458 O   0  0  0  0  0  0  0  0  0  0  0  0
    4.5495    0.0418   -0.2099 O   0  0  0  0  0  0  0  0  0  0  0  0
   -3.0457   -1.8655    1.3151 O   0  0  0  0  0  0  0  0  0  0  0  0
   -4.6102   -0.6487   -0.2447 O   0  0  0  0  0  0  0  0  0  0  0  0
   -0.4271    2.6031   -0.3453 N   0  0  0  0  0  0  0  0  0  0  0  0
   -0.0132    1.4991    0.5316 C   0  0  0  0  0  0  0  0  0  0  0  0
    1.2492    0.8327   -0.0463 C   0  0  0  0  0  0  0  0  0  0  0  0
   -1.2155    0.5711    0.7786 C   0  0  0  0  0  0  0  0  0  0  0  0
    0.6761    3.5417   -0.5290 C   0  0  0  0  0  0  0  0  0  0  0  0
   -1.5941    3.2801    0.2128 C   0  0  0  0  0  0  0  0  0  0  0  0
    0.2630    1.9133    1.5136 H   0  0  0  0  0  0  0  0  0  0  0  0
    1.0604    0.4117   -1.0394 H   0  0  0  0  0  0  0  0  0  0  0  0
    2.0677    1.5485   -0.1500 H   0  0  0  0  0  0  0  0  0  0  0  0
   -0.9077   -0.2161    1.4758 H   0  0  0  0  0  0  0  0  0  0  0  0
   -2.0539    1.0644    1.2789 H   0  0  0  0  0  0  0  0  0  0  0  0
    1.4333    3.1562   -1.2189 H   0  0  0  0  0  0  0  0  0  0  0  0
    1.1487    3.8355    0.4154 H   0  0  0  0  0  0  0  0  0  0  0  0
    0.3214    4.4608   -1.0126 H   0  0  0  0  0  0  0  0  0  0  0  0
   -1.7953    4.2087   -0.3365 H   0  0  0  0  0  0  0  0  0  0  0  0
   -1.4638    3.5511    1.2670 H   0  0  0  0  0  0  0  0  0  0  0  0
   -2.5143    2.7003    0.0938 H   0  0  0  0  0  0  0  0  0  0  0  0
    4.6054   -1.9642    1.6673 H   0  0  0  0  0  0  0  0  0  0  0  0
   -3.5363   -2.5087   -1.9593 H   0  0  0  0  0  0  0  0  0  0  0  0
  1  3  1  0  0  0  0
  1 13  1  0  0  0  0
  2  4  1  0  0  0  0
  2 14  1  0  0  0  0
  3  5  1  0  0  0  0
  3  7  2  0  0  0  0
  3  8  2  0  0  0  0
  4  6  1  0  0  0  0
  4  9  2  0  0  0  0
  4 10  2  0  0  0  0
  5 28  1  0  0  0  0
  6 29  1  0  0  0  0
 11 12  1  0  0  0  0
 11 15  1  0  0  0  0
 11 16  1  0  0  0  0
 12 13  1  0  0  0  0
 12 14  1  0  0  0  0
 12 17  1  0  0  0  0
 13 18  1  0  0  0  0
 13 19  1  0  0  0  0
 14 20  1  0  0  0  0
 14 21  1  0  0  0  0
 15 22  1  0  0  0  0
 15 23  1  0  0  0  0
 15 24  1  0  0  0  0
 16 25  1  0  0  0  0
 16 26  1  0  0  0  0
 16 27  1  0  0  0  0
M  END
> <PUBCHEM_COMPOUND_CID>
127198

> <PUBCHEM_CONFORMER_RMSD>
0.8

> <PUBCHEM_CONFORMER_DIVERSEORDER>
8
7
3
10
9
1
11
13
17
4
16
12
2
5
14
15
18
6

> <PUBCHEM_MMFF94_PARTIAL_CHARGES>
18
1 -0.35
10 -0.65
11 -0.81
12 0.27
13 0.23
14 0.23
15 0.27
16 0.27
2 -0.35
28 0.5
29 0.5
3 1.6
4 1.6
5 -0.68
6 -0.68
7 -0.65
8 -0.65
9 -0.65

> <PUBCHEM_EFFECTIVE_ROTOR_COUNT>
7

> <PUBCHEM_PHARMACOPHORE_FEATURES>
9
1 10 acceptor
1 11 cation
1 5 acceptor
1 6 acceptor
1 7 acceptor
1 8 acceptor
1 9 acceptor
4 3 5 7 8 anion
4 4 6 9 10 anion

> <PUBCHEM_HEAVY_ATOM_COUNT>
16

> <PUBCHEM_ATOM_DEF_STEREO_COUNT>
0

> <PUBCHEM_ATOM_UDEF_STEREO_COUNT>
0

> <PUBCHEM_BOND_DEF_STEREO_COUNT>
0

> <PUBCHEM_BOND_UDEF_STEREO_COUNT>
0

> <PUBCHEM_ISOTOPIC_ATOM_COUNT>
0

> <PUBCHEM_COMPONENT_COUNT>
1

> <PUBCHEM_CACTVS_TAUTO_COUNT>
1

> <PUBCHEM_CONFORMER_ID>
0001F0DE00000008

> <PUBCHEM_MMFF94_ENERGY>
25.4511

> <PUBCHEM_FEATURE_SELFOVERLAP>
45.789

> <PUBCHEM_SHAPE_FINGERPRINT>
11322862 65 17908147577199935045
116883 192 18412261722995415893
12553582 1 18337973249644619466
12841375 25 18409727395647700149
13533116 47 17979634869102829551
17539 30 18266165154683888845
1813 80 18341343261479020111
20291156 8 18411979191092617027
20388580 30 18338513165856886495
20645476 183 17688024219837667776
20645477 70 17976246156695355543
20671657 53 18408886264999578539
20871998 22 18339354261939762729
20871999 31 18261104132783808365
23557571 272 18270685251770915692
314173 41 18336266842111082267
58051976 100 18123750847098597014
7364860 26 18050567644737043649
81228 2 18337952277419546745

> <PUBCHEM_SHAPE_MULTIPOLES>
304.47
7.99
3.93
1.06
2.8
3.28
0.03
-8.24
-0.51
-1.38
-0.51
0.03
-0.42
-0.33

> <PUBCHEM_SHAPE_SELFOVERLAP>
529.335

> <PUBCHEM_SHAPE_VOLUME>
204.1

> <PUBCHEM_COORDINATE_TYPE>
2
5
10

$$$$
