127111
  -OEChem-03292013323D

 47 50  0     0  0  0  0  0  0999 V2000
   -6.2046   -0.0926    0.3943 S   0  0  0  0  0  0  0  0  0  0  0  0
   -7.5085    0.4445    0.7360 O   0  0  0  0  0  0  0  0  0  0  0  0
   -5.9960   -0.7739   -0.8680 O   0  0  0  0  0  0  0  0  0  0  0  0
    0.1750    0.2681   -1.3292 N   0  0  0  0  0  0  0  0  0  0  0  0
    3.8281   -0.4528    0.5953 N   0  0  0  0  0  0  0  0  0  0  0  0
   -5.0283    1.1434    0.6285 N   0  0  0  0  0  0  0  0  0  0  0  0
    3.0668   -5.1947    0.4819 N   0  0  0  0  0  0  0  0  0  0  0  0
    4.7641    4.2548    0.7996 N   0  0  0  0  0  0  0  0  0  0  0  0
    1.4137    0.0236   -0.6764 C   0  0  0  0  0  0  0  0  0  0  0  0
    1.8033   -1.2904   -0.3983 C   0  0  0  0  0  0  0  0  0  0  0  0
    2.2326    1.0993   -0.3181 C   0  0  0  0  0  0  0  0  0  0  0  0
    3.0356   -1.4852    0.2480 C   0  0  0  0  0  0  0  0  0  0  0  0
    3.4482    0.8110    0.3250 C   0  0  0  0  0  0  0  0  0  0  0  0
    1.0002   -2.3902   -0.7472 C   0  0  0  0  0  0  0  0  0  0  0  0
    1.8661    2.4299   -0.5854 C   0  0  0  0  0  0  0  0  0  0  0  0
   -1.1206    0.4852   -0.8425 C   0  0  0  0  0  0  0  0  0  0  0  0
    3.4290   -2.7912    0.5275 C   0  0  0  0  0  0  0  0  0  0  0  0
    4.2678    1.8777    0.6842 C   0  0  0  0  0  0  0  0  0  0  0  0
    2.6334   -3.8865    0.1821 C   0  0  0  0  0  0  0  0  0  0  0  0
    3.9068    3.2011    0.4200 C   0  0  0  0  0  0  0  0  0  0  0  0
    1.4165   -3.6860   -0.4566 C   0  0  0  0  0  0  0  0  0  0  0  0
    2.7036    3.4783   -0.2161 C   0  0  0  0  0  0  0  0  0  0  0  0
   -2.1810    0.7062   -1.7285 C   0  0  0  0  0  0  0  0  0  0  0  0
   -1.3670    0.4845    0.5354 C   0  0  0  0  0  0  0  0  0  0  0  0
   -3.7085    0.9216    0.1311 C   0  0  0  0  0  0  0  0  0  0  0  0
   -3.4706    0.9238   -1.2435 C   0  0  0  0  0  0  0  0  0  0  0  0
   -2.6566    0.7019    1.0205 C   0  0  0  0  0  0  0  0  0  0  0  0
   -5.7491   -1.2114    1.7002 C   0  0  0  0  0  0  0  0  0  0  0  0
    0.2613    0.2821   -2.3413 H   0  0  0  0  0  0  0  0  0  0  0  0
    0.0451   -2.2693   -1.2518 H   0  0  0  0  0  0  0  0  0  0  0  0
    0.9345    2.6817   -1.0855 H   0  0  0  0  0  0  0  0  0  0  0  0
    4.3818   -2.9609    1.0282 H   0  0  0  0  0  0  0  0  0  0  0  0
    5.2141    1.6727    1.1838 H   0  0  0  0  0  0  0  0  0  0  0  0
    0.7855   -4.5262   -0.7334 H   0  0  0  0  0  0  0  0  0  0  0  0
    2.4073    4.5015   -0.4303 H   0  0  0  0  0  0  0  0  0  0  0  0
   -2.0106    0.7136   -2.8024 H   0  0  0  0  0  0  0  0  0  0  0  0
   -0.5671    0.3159    1.2517 H   0  0  0  0  0  0  0  0  0  0  0  0
   -4.2773    1.1061   -1.9487 H   0  0  0  0  0  0  0  0  0  0  0  0
   -2.8306    0.6966    2.0934 H   0  0  0  0  0  0  0  0  0  0  0  0
   -5.0553    1.6028    1.5488 H   0  0  0  0  0  0  0  0  0  0  0  0
    3.9533   -5.3406    0.9462 H   0  0  0  0  0  0  0  0  0  0  0  0
    2.4920   -5.9882    0.2315 H   0  0  0  0  0  0  0  0  0  0  0  0
    5.6399    4.0532    1.2634 H   0  0  0  0  0  0  0  0  0  0  0  0
    4.5031    5.2132    0.6093 H   0  0  0  0  0  0  0  0  0  0  0  0
   -5.7826   -0.6794    2.6527 H   0  0  0  0  0  0  0  0  0  0  0  0
   -6.4735   -2.0290    1.7090 H   0  0  0  0  0  0  0  0  0  0  0  0
   -4.7517   -1.6083    1.5048 H   0  0  0  0  0  0  0  0  0  0  0  0
  1  2  2  0  0  0  0
  1  3  2  0  0  0  0
  1  6  1  0  0  0  0
  1 28  1  0  0  0  0
  4  9  1  0  0  0  0
  4 16  1  0  0  0  0
  4 29  1  0  0  0  0
  5 12  2  0  0  0  0
  5 13  1  0  0  0  0
  6 25  1  0  0  0  0
  6 40  1  0  0  0  0
  7 19  1  0  0  0  0
  7 41  1  0  0  0  0
  7 42  1  0  0  0  0
  8 20  1  0  0  0  0
  8 43  1  0  0  0  0
  8 44  1  0  0  0  0
  9 10  2  0  0  0  0
  9 11  1  0  0  0  0
 10 12  1  0  0  0  0
 10 14  1  0  0  0  0
 11 13  2  0  0  0  0
 11 15  1  0  0  0  0
 12 17  1  0  0  0  0
 13 18  1  0  0  0  0
 14 21  2  0  0  0  0
 14 30  1  0  0  0  0
 15 22  2  0  0  0  0
 15 31  1  0  0  0  0
 16 23  2  0  0  0  0
 16 24  1  0  0  0  0
 17 19  2  0  0  0  0
 17 32  1  0  0  0  0
 18 20  2  0  0  0  0
 18 33  1  0  0  0  0
 19 21  1  0  0  0  0
 20 22  1  0  0  0  0
 21 34  1  0  0  0  0
 22 35  1  0  0  0  0
 23 26  1  0  0  0  0
 23 36  1  0  0  0  0
 24 27  2  0  0  0  0
 24 37  1  0  0  0  0
 25 26  2  0  0  0  0
 25 27  1  0  0  0  0
 26 38  1  0  0  0  0
 27 39  1  0  0  0  0
 28 45  1  0  0  0  0
 28 46  1  0  0  0  0
 28 47  1  0  0  0  0
M  END
> <PUBCHEM_COMPOUND_CID>
127111

> <PUBCHEM_CONFORMER_RMSD>
0.8

> <PUBCHEM_CONFORMER_DIVERSEORDER>
1
16
13
18
14
9
12
6
15
7
11
10
17
8
2
4
5
3

> <PUBCHEM_MMFF94_PARTIAL_CHARGES>
42
1 1.33
12 0.31
13 0.31
14 -0.15
15 -0.15
16 0.1
17 -0.15
18 -0.15
19 0.1
2 -0.65
20 0.1
21 -0.15
22 -0.15
23 -0.15
24 -0.15
25 0.2
26 -0.15
27 -0.15
28 0.11
29 0.4
3 -0.65
30 0.15
31 0.15
32 0.15
33 0.15
34 0.15
35 0.15
36 0.15
37 0.15
38 0.15
39 0.15
4 -0.6
40 0.42
41 0.4
42 0.4
43 0.4
44 0.4
5 -0.62
6 -0.76
7 -0.9
8 -0.9
9 0.1

> <PUBCHEM_EFFECTIVE_ROTOR_COUNT>
4

> <PUBCHEM_PHARMACOPHORE_FEATURES>
14
1 2 acceptor
1 3 acceptor
1 4 cation
1 4 donor
1 5 acceptor
1 6 donor
1 7 cation
1 7 donor
1 8 cation
1 8 donor
6 10 12 14 17 19 21 rings
6 11 13 15 18 20 22 rings
6 16 23 24 25 26 27 rings
6 5 9 10 11 12 13 rings

> <PUBCHEM_HEAVY_ATOM_COUNT>
28

> <PUBCHEM_ATOM_DEF_STEREO_COUNT>
0

> <PUBCHEM_ATOM_UDEF_STEREO_COUNT>
0

> <PUBCHEM_BOND_DEF_STEREO_COUNT>
0

> <PUBCHEM_BOND_UDEF_STEREO_COUNT>
0

> <PUBCHEM_ISOTOPIC_ATOM_COUNT>
0

> <PUBCHEM_COMPONENT_COUNT>
1

> <PUBCHEM_CACTVS_TAUTO_COUNT>
46

> <PUBCHEM_CONFORMER_ID>
0001F08700000001

> <PUBCHEM_MMFF94_ENERGY>
129.049

> <PUBCHEM_FEATURE_SELFOVERLAP>
71.126

> <PUBCHEM_SHAPE_FINGERPRINT>
10090160 65 18341890844150414469
10165383 225 18262526995926346212
10411042 1 17979073782801237278
10835480 77 18408880721125707829
1100329 8 18340194281261746154
114674 6 18041564641597156451
11582403 64 16089741338765390180
12107183 9 17837499553291177465
12553582 1 18052810352585252038
12730499 353 18408892861963927912
12788726 201 17060069125085708825
13009979 54 17558550206001738338
13140716 1 18338792425115723644
13533116 47 18336272254207283371
13583140 156 18264759974813012773
1361 2 18337670927107462289
13785724 45 17839752460562716631
13955234 65 18411135822956353874
14341114 328 17847065497794311109
14347424 109 18339931399209269529
14565420 104 18270115841585619640
146900 427 18059861713779728913
14790565 3 17906173202161268989
14955137 171 18339928096158126014
15250474 111 18201708583983073975
15475509 35 16878488056834471248
15927050 60 18197497531684126606
16126227 98 17906735052989119560
16992610 120 18046921639507684420
17138139 8 17267749463453076846
17492 89 18267303136575886297
17844677 252 18341056203588383953
17913733 40 18340208608418298601
1813 80 17769940082760329358
19319366 153 18200870785295584773
19377110 9 18131346453927912109
1979834 28 18187932819319108925
20157964 124 18411136944402091581
20465049 17 18341628018353856502
20505436 4 17917429890569218380
21049683 271 18262246504538935110
21130935 74 18336558153670605779
21197605 99 18191311674660418979
21344244 78 18129931265839653576
21814621 53 18114759118886340897
23559900 14 18265048038359147697
23572383 38 17968104178908550691
23845131 108 18193553595811270842
239999 70 18131361781970067646
244849 19 17896865591783045933
2747138 104 17905875982758767594
283562 15 17764009660336951694
3178227 256 18410009932277612848
32027 91 18188770518942482459
3421961 26 18337110038522058582
3886686 26 17404251616819953128
4340502 62 18340211894384660745
4353968 344 8861570646179915336
4403749 210 17903915909016373113
474 4 18342170098671237572
5104073 3 18339373972525879393
5309563 4 18049722914690595575
57816373 69 18126005958353979159
59755656 520 18196932399681707596
621550 34 18334573551244137037
6679774 75 18040988580252922730
6695519 79 18054246576600122307
6697151 62 17904454347891512591
7399639 24 18261668259521657581
86090 222 17387150701560819435
8988823 20 18410578362377260055
9658208 31 18052547861601372700
9777508 108 17835798977953462584

> <PUBCHEM_SHAPE_MULTIPOLES>
543.43
13.37
5.15
1.21
27.72
3.84
-0.13
-3.27
4.77
-11.43
0.78
1.11
-0.09
0.75

> <PUBCHEM_SHAPE_SELFOVERLAP>
1193.709

> <PUBCHEM_SHAPE_VOLUME>
295

> <PUBCHEM_COORDINATE_TYPE>
2
5
10

$$$$
