127119
  -OEChem-03292013323D

 42 41  0     1  0  0  0  0  0999 V2000
   -7.3685    2.9949   -0.1319 Cl  0  0  0  0  0  0  0  0  0  0  0  0
    6.4484    2.4983   -1.6711 Cl  0  0  0  0  0  0  0  0  0  0  0  0
    1.6058   -1.3304   -1.2902 O   0  0  0  0  0  0  0  0  0  0  0  0
   -0.3121   -2.5485    0.4274 O   0  0  0  0  0  0  0  0  0  0  0  0
    4.4674   -1.5134   -0.1892 O   0  0  0  0  0  0  0  0  0  0  0  0
   -2.8796    1.2334   -0.2603 O   0  0  0  0  0  0  0  0  0  0  0  0
    1.9652    1.4695    2.2632 O   0  0  0  0  0  0  0  0  0  0  0  0
   -6.5218   -1.5273    0.2751 O   0  0  0  0  0  0  0  0  0  0  0  0
    3.1381   -0.0661    1.0422 N   0  0  0  0  0  0  0  0  0  0  0  0
   -2.6926   -1.0149   -0.7063 N   0  0  0  0  0  0  0  0  0  0  0  0
   -4.7513   -0.1017    0.0317 N   0  0  0  0  0  0  0  0  0  0  0  0
    5.3794    0.4920    0.4681 N   0  0  0  0  0  0  0  0  0  0  0  0
    3.0645    1.2599    1.7392 N   0  0  0  0  0  0  0  0  0  0  0  0
   -5.3308   -1.4732   -0.0497 N   0  0  0  0  0  0  0  0  0  0  0  0
    1.0751   -0.6578   -0.1497 C   0  0  1  0  0  0  0  0  0  0  0  0
   -0.3560   -1.1618    0.0969 C   0  0  1  0  0  0  0  0  0  0  0  0
    1.9842   -0.9266    1.0524 C   0  0  0  0  0  0  0  0  0  0  0  0
   -1.3068   -0.9529   -1.0862 C   0  0  0  0  0  0  0  0  0  0  0  0
    4.3412   -0.4344    0.3987 C   0  0  0  0  0  0  0  0  0  0  0  0
   -3.4067    0.1171   -0.3070 C   0  0  0  0  0  0  0  0  0  0  0  0
   -5.6127    0.9918    0.4634 C   0  0  0  0  0  0  0  0  0  0  0  0
    6.6659    0.2473   -0.1430 C   0  0  0  0  0  0  0  0  0  0  0  0
   -6.3309    1.6617   -0.6960 C   0  0  0  0  0  0  0  0  0  0  0  0
    6.7344    0.7429   -1.5777 C   0  0  0  0  0  0  0  0  0  0  0  0
    1.0356    0.4134   -0.3818 H   0  0  0  0  0  0  0  0  0  0  0  0
   -0.7507   -0.6371    0.9763 H   0  0  0  0  0  0  0  0  0  0  0  0
    2.3350   -1.9659    1.0235 H   0  0  0  0  0  0  0  0  0  0  0  0
    1.4480   -0.8045    2.0001 H   0  0  0  0  0  0  0  0  0  0  0  0
   -1.1558   -1.7311   -1.8425 H   0  0  0  0  0  0  0  0  0  0  0  0
   -1.1206    0.0197   -1.5546 H   0  0  0  0  0  0  0  0  0  0  0  0
   -3.1369   -1.9256   -0.7243 H   0  0  0  0  0  0  0  0  0  0  0  0
    2.4780   -0.9449   -1.4782 H   0  0  0  0  0  0  0  0  0  0  0  0
   -1.2251   -2.8361    0.5992 H   0  0  0  0  0  0  0  0  0  0  0  0
    5.2536    1.3799    0.9402 H   0  0  0  0  0  0  0  0  0  0  0  0
   -6.3200    0.6343    1.2209 H   0  0  0  0  0  0  0  0  0  0  0  0
   -4.9840    1.7363    0.9682 H   0  0  0  0  0  0  0  0  0  0  0  0
    7.4167    0.7524    0.4745 H   0  0  0  0  0  0  0  0  0  0  0  0
    6.8818   -0.8262   -0.1134 H   0  0  0  0  0  0  0  0  0  0  0  0
   -5.6175    2.0772   -1.4147 H   0  0  0  0  0  0  0  0  0  0  0  0
   -6.9689    0.9505   -1.2296 H   0  0  0  0  0  0  0  0  0  0  0  0
    5.9787    0.2559   -2.2014 H   0  0  0  0  0  0  0  0  0  0  0  0
    7.7208    0.5439   -2.0064 H   0  0  0  0  0  0  0  0  0  0  0  0
  1 23  1  0  0  0  0
  2 24  1  0  0  0  0
  3 15  1  0  0  0  0
  3 32  1  0  0  0  0
  4 16  1  0  0  0  0
  4 33  1  0  0  0  0
  5 19  2  0  0  0  0
  6 20  2  0  0  0  0
  7 13  2  0  0  0  0
  8 14  2  0  0  0  0
  9 13  1  0  0  0  0
  9 17  1  0  0  0  0
  9 19  1  0  0  0  0
 10 18  1  0  0  0  0
 10 20  1  0  0  0  0
 10 31  1  0  0  0  0
 11 14  1  0  0  0  0
 11 20  1  0  0  0  0
 11 21  1  0  0  0  0
 12 19  1  0  0  0  0
 12 22  1  0  0  0  0
 12 34  1  0  0  0  0
 15 16  1  0  0  0  0
 15 17  1  0  0  0  0
 15 25  1  0  0  0  0
 16 18  1  0  0  0  0
 16 26  1  0  0  0  0
 17 27  1  0  0  0  0
 17 28  1  0  0  0  0
 18 29  1  0  0  0  0
 18 30  1  0  0  0  0
 21 23  1  0  0  0  0
 21 35  1  0  0  0  0
 21 36  1  0  0  0  0
 22 24  1  0  0  0  0
 22 37  1  0  0  0  0
 22 38  1  0  0  0  0
 23 39  1  0  0  0  0
 23 40  1  0  0  0  0
 24 41  1  0  0  0  0
 24 42  1  0  0  0  0
M  END
> <PUBCHEM_COMPOUND_CID>
127119

> <PUBCHEM_CONFORMER_RMSD>
1.4

> <PUBCHEM_CONFORMER_DIVERSEORDER>
1
16
82
28
13
118
54
94
8
63
85
70
27
81
107
89
33
78
18
99
91
38
88
49
65
46
3
42
76
32
84
15
112
111
4
44
97
59
67
104
120
11
74
37
21
14
57
87
95
29
114
17
53
110
83
51
73
48
68
64
96
109
45
31
93
20
90
66
108
101
60
30
12
117
22
113
47
61
92
116
43
79
62
86
105
55
98
75
50
72
119
7
115
100
10
36
41
35
56
24
34
9
40
71
58
39
69
103
80
26
19
77
106
5
52
23
6
2
102
25

> <PUBCHEM_MMFF94_PARTIAL_CHARGES>
28
1 -0.29
10 -0.73
11 -0.18
12 -0.73
13 -0.02
14 -0.02
15 0.28
16 0.28
17 0.3
18 0.3
19 0.69
2 -0.29
20 0.69
21 0.3
22 0.3
23 0.29
24 0.29
3 -0.68
31 0.37
32 0.4
33 0.4
34 0.37
4 -0.68
5 -0.57
6 -0.57
7 -0.16
8 -0.16
9 -0.18

> <PUBCHEM_EFFECTIVE_ROTOR_COUNT>
15

> <PUBCHEM_PHARMACOPHORE_FEATURES>
8
1 10 donor
1 12 donor
1 3 acceptor
1 3 donor
1 4 acceptor
1 4 donor
1 5 acceptor
1 6 acceptor

> <PUBCHEM_HEAVY_ATOM_COUNT>
24

> <PUBCHEM_ATOM_DEF_STEREO_COUNT>
0

> <PUBCHEM_ATOM_UDEF_STEREO_COUNT>
2

> <PUBCHEM_BOND_DEF_STEREO_COUNT>
0

> <PUBCHEM_BOND_UDEF_STEREO_COUNT>
0

> <PUBCHEM_ISOTOPIC_ATOM_COUNT>
0

> <PUBCHEM_COMPONENT_COUNT>
1

> <PUBCHEM_CACTVS_TAUTO_COUNT>
4

> <PUBCHEM_CONFORMER_ID>
0001F08F00000001

> <PUBCHEM_MMFF94_ENERGY>
36.3585

> <PUBCHEM_FEATURE_SELFOVERLAP>
40.605

> <PUBCHEM_SHAPE_FINGERPRINT>
10 15 18334018260055843121
106641 1 17022907890660579187
10670039 82 17060060307227862169
11315181 36 17894631474961660071
12596602 18 16877656859812824752
13955234 65 16878210975809848826
14251752 14 11599737155329099811
14251757 52 18186804677555395300
14931854 50 17560799875533140129
14933364 13 18413389834673045003
15183329 4 16487256543351207206
15461852 350 18060132159902519749
17834072 8 16917068867417181446
20526848 3 18335985289819588165
20621476 66 18334579031495305741
21033648 29 18341597240048611649
21521239 73 13614520745035910748
22079108 93 14707205557113410418
221357 26 17489583433480676168
22224240 67 16588025710316302355
23559900 14 14189281704008407650
29717793 49 14764354860089642962
4073 2 18187369809711042243
4340502 62 14417853635819411104
54076057 255 18409166619317509304
559249 180 9943806686491490781
59682541 52 16701743748406802052
59755656 215 16630251333536772724
6328613 192 18408608084442430708
9689198 14 18114190730654573772

> <PUBCHEM_SHAPE_MULTIPOLES>
432.55
21.48
2.49
1.4
7.86
1.13
-0.41
14.79
4.04
2.08
0.42
-2.1
0.53
-1.22

> <PUBCHEM_SHAPE_SELFOVERLAP>
810.929

> <PUBCHEM_SHAPE_VOLUME>
268.1

> <PUBCHEM_COORDINATE_TYPE>
2
5
10

$$$$
