127100
  -OEChem-03292013323D

 38 38  0     1  0  0  0  0  0999 V2000
    3.8534   -1.0132    0.8157 S   0  0  0  0  0  0  0  0  0  0  0  0
    4.2790    0.8231   -0.0030 S   0  0  0  0  0  0  0  0  0  0  0  0
   -2.7943   -3.3491    0.8589 O   0  0  0  0  0  0  0  0  0  0  0  0
    1.0651   -3.0225    0.6751 O   0  0  0  0  0  0  0  0  0  0  0  0
   -2.3825   -2.6724   -1.2680 O   0  0  0  0  0  0  0  0  0  0  0  0
   -3.8948    2.4303   -1.1896 O   0  0  0  0  0  0  0  0  0  0  0  0
   -3.4894    2.3559    1.0415 O   0  0  0  0  0  0  0  0  0  0  0  0
   -0.1901   -1.2958   -0.2396 N   0  0  0  0  0  0  0  0  0  0  0  0
    2.0996    1.7662    1.2316 N   0  0  0  0  0  0  0  0  0  0  0  0
   -1.3601   -1.4660    0.5843 C   0  0  1  0  0  0  0  0  0  0  0  0
   -2.0945   -0.1463    0.8499 C   0  0  0  0  0  0  0  0  0  0  0  0
   -2.6612    0.5637   -0.3862 C   0  0  0  0  0  0  0  0  0  0  0  0
    0.9379   -2.0982   -0.1234 C   0  0  0  0  0  0  0  0  0  0  0  0
   -2.2256   -2.5278   -0.0624 C   0  0  0  0  0  0  0  0  0  0  0  0
    2.0077   -1.7169   -1.1355 C   0  0  0  0  0  0  0  0  0  0  0  0
    3.4345   -1.9813   -0.6666 C   0  0  0  0  0  0  0  0  0  0  0  0
   -3.3651    1.8663   -0.0724 C   0  0  0  0  0  0  0  0  0  0  0  0
    2.6814    1.6159    0.0205 C   0  0  0  0  0  0  0  0  0  0  0  0
    2.1117    2.0346   -1.1711 C   0  0  0  0  0  0  0  0  0  0  0  0
    0.8648    2.6475   -1.1162 C   0  0  0  0  0  0  0  0  0  0  0  0
    0.2345    2.8201    0.1112 C   0  0  0  0  0  0  0  0  0  0  0  0
    0.8881    2.3659    1.2454 C   0  0  0  0  0  0  0  0  0  0  0  0
   -1.0166   -1.8650    1.5474 H   0  0  0  0  0  0  0  0  0  0  0  0
   -1.4194    0.5371    1.3776 H   0  0  0  0  0  0  0  0  0  0  0  0
   -2.9247   -0.3432    1.5414 H   0  0  0  0  0  0  0  0  0  0  0  0
   -3.3903   -0.0884   -0.8795 H   0  0  0  0  0  0  0  0  0  0  0  0
   -1.8593    0.7904   -1.0953 H   0  0  0  0  0  0  0  0  0  0  0  0
   -0.2264   -0.6125   -0.9897 H   0  0  0  0  0  0  0  0  0  0  0  0
    1.8169   -2.3342   -2.0230 H   0  0  0  0  0  0  0  0  0  0  0  0
    1.8850   -0.6830   -1.4618 H   0  0  0  0  0  0  0  0  0  0  0  0
    3.5439   -3.0382   -0.4000 H   0  0  0  0  0  0  0  0  0  0  0  0
    4.1541   -1.7799   -1.4670 H   0  0  0  0  0  0  0  0  0  0  0  0
   -3.3410   -4.0466    0.4383 H   0  0  0  0  0  0  0  0  0  0  0  0
   -4.3668    3.2663   -0.9880 H   0  0  0  0  0  0  0  0  0  0  0  0
    2.6058    1.8979   -2.1276 H   0  0  0  0  0  0  0  0  0  0  0  0
    0.3847    2.9902   -2.0278 H   0  0  0  0  0  0  0  0  0  0  0  0
   -0.7334    3.3021    0.1785 H   0  0  0  0  0  0  0  0  0  0  0  0
    0.4396    2.4779    2.2270 H   0  0  0  0  0  0  0  0  0  0  0  0
  1  2  1  0  0  0  0
  1 16  1  0  0  0  0
  2 18  1  0  0  0  0
  3 14  1  0  0  0  0
  3 33  1  0  0  0  0
  4 13  2  0  0  0  0
  5 14  2  0  0  0  0
  6 17  1  0  0  0  0
  6 34  1  0  0  0  0
  7 17  2  0  0  0  0
  8 10  1  0  0  0  0
  8 13  1  0  0  0  0
  8 28  1  0  0  0  0
  9 18  1  0  0  0  0
  9 22  2  0  0  0  0
 10 11  1  0  0  0  0
 10 14  1  0  0  0  0
 10 23  1  0  0  0  0
 11 12  1  0  0  0  0
 11 24  1  0  0  0  0
 11 25  1  0  0  0  0
 12 17  1  0  0  0  0
 12 26  1  0  0  0  0
 12 27  1  0  0  0  0
 13 15  1  0  0  0  0
 15 16  1  0  0  0  0
 15 29  1  0  0  0  0
 15 30  1  0  0  0  0
 16 31  1  0  0  0  0
 16 32  1  0  0  0  0
 18 19  2  0  0  0  0
 19 20  1  0  0  0  0
 19 35  1  0  0  0  0
 20 21  2  0  0  0  0
 20 36  1  0  0  0  0
 21 22  1  0  0  0  0
 21 37  1  0  0  0  0
 22 38  1  0  0  0  0
M  END
> <PUBCHEM_COMPOUND_CID>
127100

> <PUBCHEM_CONFORMER_RMSD>
1

> <PUBCHEM_CONFORMER_DIVERSEORDER>
1
68
141
83
228
201
246
385
24
282
333
240
90
208
287
31
299
70
346
51
371
395
253
398
39
60
170
324
26
387
379
396
9
181
378
23
251
263
38
126
278
40
390
356
400
7
195
297
338
372
98
92
106
122
313
47
360
117
4
239
69
353
35
173
290
156
364
12
49
339
200
295
412
33
158
279
29
162
132
289
254
8
320
215
267
223
410
325
401
202
166
184
384
25
95
99
393
155
250
260
238
308
365
284
143
18
216
276
359
343
256
189
153
217
183
407
11
300
50
150
185
302
352
229
119
159
148
214
193
77
245
165
348
67
179
294
81
318
66
269
361
54
291
80
315
138
160
46
306
249
312
207
257
20
177
115
408
114
354
368
242
48
17
266
397
272
171
337
317
93
147
21
22
271
154
369
59
283
330
235
345
197
127
120
357
167
281
118
409
10
292
107
366
270
42
65
41
389
298
58
53
247
204
75
301
219
224
123
212
265
336
109
259
316
404
32
13
56
258
373
149
79
323
311
89
37
103
27
358
288
30
220
232
101
52
100
222
71
134
94
309
104
386
175
227
144
6
274
15
293
206
203
382
380
244
16
111
192
131
277
350
370
376
43
248
174
105
135
152
125
406
383
334
381
402
96
55
355
34
36
28
78
211
136
194
262
234
87
225
84
169
176
128
61
44
110
388
328
191
392
86
137
236
241
121
321
72
255
344
332
221
319
252
305
375
2
218
268
113
62
275
45
322
286
394
187
133
161
243
164
188
186
237
351
3
73
210
74
5
347
112
178
335
264
399
349
142
326
209
342
140
280
19
341
230
88
180
124
182
226
233
307
411
57
285
130
145
108
377
213
172
362
97
303
205
168
198
82
139
14
273
190
196
405
76
163
91
231
340
391
329
64
296
116
63
85
151
374
363
403
129
367
157
327
331
102
314
261
146
310
304
199

> <PUBCHEM_MMFF94_PARTIAL_CHARGES>
28
1 -0.23
10 0.36
12 0.06
13 0.57
14 0.66
15 0.06
16 0.23
17 0.66
18 0.41
19 -0.15
2 -0.1
20 -0.15
21 -0.15
22 0.16
28 0.37
3 -0.65
33 0.5
34 0.5
35 0.15
36 0.15
37 0.15
38 0.15
4 -0.57
5 -0.57
6 -0.65
7 -0.57
8 -0.73
9 -0.62

> <PUBCHEM_EFFECTIVE_ROTOR_COUNT>
11

> <PUBCHEM_PHARMACOPHORE_FEATURES>
11
1 3 acceptor
1 4 acceptor
1 5 acceptor
1 6 acceptor
1 7 acceptor
1 8 donor
1 9 acceptor
3 3 5 14 anion
3 6 7 17 anion
4 1 2 15 16 hydrophobe
6 9 18 19 20 21 22 rings

> <PUBCHEM_HEAVY_ATOM_COUNT>
22

> <PUBCHEM_ATOM_DEF_STEREO_COUNT>
0

> <PUBCHEM_ATOM_UDEF_STEREO_COUNT>
1

> <PUBCHEM_BOND_DEF_STEREO_COUNT>
0

> <PUBCHEM_BOND_UDEF_STEREO_COUNT>
0

> <PUBCHEM_ISOTOPIC_ATOM_COUNT>
0

> <PUBCHEM_COMPONENT_COUNT>
1

> <PUBCHEM_CACTVS_TAUTO_COUNT>
2

> <PUBCHEM_CONFORMER_ID>
0001F07C00000001

> <PUBCHEM_MMFF94_ENERGY>
27.3768

> <PUBCHEM_FEATURE_SELFOVERLAP>
55.941

> <PUBCHEM_SHAPE_FINGERPRINT>
10616163 171 18338521957655227292
1100329 8 18338518517497069586
12403259 226 17982173627758886186
13122387 1 18122626050528818403
13140716 1 18410291398269022874
14251745 187 18341605989171449248
17357779 13 18053950545926438460
17492 54 17901118420732910988
20600515 1 18338804386441459302
20905425 154 18269567198262862462
23227448 37 18411138039397245127
2334 1 18339365283147506474
23558518 356 18189333635729286603
338550 245 18335987540836034525
350125 39 18338243781228977427
3524813 1 18043813086993326045
7832392 63 18410577245285330166

> <PUBCHEM_SHAPE_MULTIPOLES>
421.14
7.01
4.72
1.23
0.38
0.88
-0.05
-0.76
-0.03
1.91
-0.15
-0.05
-0.27
0.29

> <PUBCHEM_SHAPE_SELFOVERLAP>
822.825

> <PUBCHEM_SHAPE_VOLUME>
253.7

> <PUBCHEM_COORDINATE_TYPE>
2
5
10

$$$$
