127103
  -OEChem-03292013323D

 42 44  0     1  0  0  0  0  0999 V2000
   -5.9338    1.0967   -1.4995 Cl  0  0  0  0  0  0  0  0  0  0  0  0
    0.7857   -2.5842    0.2165 S   0  0  0  0  0  0  0  0  0  0  0  0
   -2.0407   -2.8542    1.2814 S   0  0  0  0  0  0  0  0  0  0  0  0
    2.7282    4.0248    0.0384 S   0  0  0  0  0  0  0  0  0  0  0  0
    0.9365   -0.1151    1.9000 O   0  0  0  0  0  0  0  0  0  0  0  0
   -0.5554    2.8665   -1.3925 O   0  0  0  0  0  0  0  0  0  0  0  0
   -1.0099    4.3411    0.2688 O   0  0  0  0  0  0  0  0  0  0  0  0
    0.9208    1.2935    0.0572 N   0  0  0  0  0  0  0  0  0  0  0  0
   -1.3569   -1.1799   -0.5575 N   0  0  0  0  0  0  0  0  0  0  0  0
    1.5564   -1.0176   -0.2674 C   0  0  2  0  0  0  0  0  0  0  0  0
    3.0633   -1.1245   -0.3682 C   0  0  0  0  0  0  0  0  0  0  0  0
    0.4792    2.4870    0.7423 C   0  0  1  0  0  0  0  0  0  0  0  0
    1.1154    0.0770    0.6987 C   0  0  0  0  0  0  0  0  0  0  0  0
    1.6528    3.2870    1.3130 C   0  0  0  0  0  0  0  0  0  0  0  0
    3.6316   -1.5548   -1.5542 C   0  0  0  0  0  0  0  0  0  0  0  0
    3.8386   -0.7898    0.7279 C   0  0  0  0  0  0  0  0  0  0  0  0
   -0.9019   -2.1199    0.2376 C   0  0  0  0  0  0  0  0  0  0  0  0
   -2.7165   -1.0072   -0.3424 C   0  0  0  0  0  0  0  0  0  0  0  0
   -3.2746   -1.8393    0.6330 C   0  0  0  0  0  0  0  0  0  0  0  0
   -0.4311    3.3370   -0.1284 C   0  0  0  0  0  0  0  0  0  0  0  0
    5.0199   -1.6537   -1.6471 C   0  0  0  0  0  0  0  0  0  0  0  0
    5.2269   -0.8885    0.6352 C   0  0  0  0  0  0  0  0  0  0  0  0
    5.8175   -1.3206   -0.5523 C   0  0  0  0  0  0  0  0  0  0  0  0
   -3.5551   -0.0875   -1.0087 C   0  0  0  0  0  0  0  0  0  0  0  0
   -4.6381   -1.7832    0.9637 C   0  0  0  0  0  0  0  0  0  0  0  0
   -4.9135   -0.0263   -0.6845 C   0  0  0  0  0  0  0  0  0  0  0  0
   -5.4459   -0.8641    0.2892 C   0  0  0  0  0  0  0  0  0  0  0  0
    1.1714   -0.7656   -1.2646 H   0  0  0  0  0  0  0  0  0  0  0  0
   -0.1465    2.1528    1.5802 H   0  0  0  0  0  0  0  0  0  0  0  0
    1.1201    1.3677   -0.9363 H   0  0  0  0  0  0  0  0  0  0  0  0
    2.2774    2.6482    1.9465 H   0  0  0  0  0  0  0  0  0  0  0  0
    1.2799    4.1077    1.9352 H   0  0  0  0  0  0  0  0  0  0  0  0
    3.0196   -1.8174   -2.4122 H   0  0  0  0  0  0  0  0  0  0  0  0
    3.4189   -0.4665    1.6738 H   0  0  0  0  0  0  0  0  0  0  0  0
    5.4799   -1.9905   -2.5716 H   0  0  0  0  0  0  0  0  0  0  0  0
    5.8482   -0.6329    1.4885 H   0  0  0  0  0  0  0  0  0  0  0  0
    6.8984   -1.3985   -0.6242 H   0  0  0  0  0  0  0  0  0  0  0  0
   -3.1344    0.5664   -1.7684 H   0  0  0  0  0  0  0  0  0  0  0  0
   -5.0605   -2.4342    1.7230 H   0  0  0  0  0  0  0  0  0  0  0  0
   -6.5030   -0.8162    0.5412 H   0  0  0  0  0  0  0  0  0  0  0  0
    1.8188    4.8694   -0.4691 H   0  0  0  0  0  0  0  0  0  0  0  0
   -1.1530    3.4244   -1.9346 H   0  0  0  0  0  0  0  0  0  0  0  0
  1 26  1  0  0  0  0
  2 10  1  0  0  0  0
  2 17  1  0  0  0  0
  3 17  1  0  0  0  0
  3 19  1  0  0  0  0
  4 14  1  0  0  0  0
  4 41  1  0  0  0  0
  5 13  2  0  0  0  0
  6 20  1  0  0  0  0
  6 42  1  0  0  0  0
  7 20  2  0  0  0  0
  8 12  1  0  0  0  0
  8 13  1  0  0  0  0
  8 30  1  0  0  0  0
  9 17  2  0  0  0  0
  9 18  1  0  0  0  0
 10 11  1  0  0  0  0
 10 13  1  0  0  0  0
 10 28  1  0  0  0  0
 11 15  2  0  0  0  0
 11 16  1  0  0  0  0
 12 14  1  0  0  0  0
 12 20  1  0  0  0  0
 12 29  1  0  0  0  0
 14 31  1  0  0  0  0
 14 32  1  0  0  0  0
 15 21  1  0  0  0  0
 15 33  1  0  0  0  0
 16 22  2  0  0  0  0
 16 34  1  0  0  0  0
 18 19  2  0  0  0  0
 18 24  1  0  0  0  0
 19 25  1  0  0  0  0
 21 23  2  0  0  0  0
 21 35  1  0  0  0  0
 22 23  1  0  0  0  0
 22 36  1  0  0  0  0
 23 37  1  0  0  0  0
 24 26  2  0  0  0  0
 24 38  1  0  0  0  0
 25 27  2  0  0  0  0
 25 39  1  0  0  0  0
 26 27  1  0  0  0  0
 27 40  1  0  0  0  0
M  END
> <PUBCHEM_COMPOUND_CID>
127103

> <PUBCHEM_CONFORMER_RMSD>
1

> <PUBCHEM_CONFORMER_DIVERSEORDER>
1
40
137
207
127
113
177
166
201
195
29
79
203
144
43
180
194
90
111
182
114
134
188
160
174
119
190
93
81
196
185
172
133
12
184
202
118
106
72
24
8
189
96
179
209
20
132
163
100
151
83
193
59
58
77
147
167
19
116
145
152
162
48
53
138
124
105
199
159
26
175
95
120
74
115
208
150
63
6
161
47
155
104
88
33
206
10
156
21
22
86
39
80
210
42
44
187
56
169
205
37
121
143
171
200
141
109
186
122
51
157
129
183
3
128
198
140
126
112
82
168
50
131
192
173
108
92
78
17
103
60
153
76
7
85
158
75
57
123
65
135
110
69
197
204
5
23
36
91
54
28
176
70
4
31
149
142
178
102
45
67
146
97
101
55
125
139
30
94
16
64
73
99
34
154
84
41
181
170
32
130
49
52
89
9
66
148
25
62
87
2
136
191
15
98
38
13
14
35
71
164
11
68
46
61
165
107
117
27
18

> <PUBCHEM_MMFF94_PARTIAL_CHARGES>
38
1 -0.18
10 0.43
11 -0.14
12 0.36
13 0.57
14 0.23
15 -0.15
16 -0.15
17 0.43
18 0.23
19 0.04
2 -0.29
20 0.66
21 -0.15
22 -0.15
23 -0.15
24 -0.15
25 -0.15
26 0.18
27 -0.15
3 -0.08
30 0.37
33 0.15
34 0.15
35 0.15
36 0.15
37 0.15
38 0.15
39 0.15
4 -0.41
40 0.15
41 0.18
42 0.5
5 -0.57
6 -0.65
7 -0.57
8 -0.73
9 -0.57

> <PUBCHEM_EFFECTIVE_ROTOR_COUNT>
8

> <PUBCHEM_PHARMACOPHORE_FEATURES>
9
1 5 acceptor
1 6 acceptor
1 7 acceptor
1 8 donor
1 9 acceptor
3 6 7 20 anion
5 3 9 17 18 19 rings
6 11 15 16 21 22 23 rings
6 18 19 24 25 26 27 rings

> <PUBCHEM_HEAVY_ATOM_COUNT>
27

> <PUBCHEM_ATOM_DEF_STEREO_COUNT>
0

> <PUBCHEM_ATOM_UDEF_STEREO_COUNT>
2

> <PUBCHEM_BOND_DEF_STEREO_COUNT>
0

> <PUBCHEM_BOND_UDEF_STEREO_COUNT>
0

> <PUBCHEM_ISOTOPIC_ATOM_COUNT>
0

> <PUBCHEM_COMPONENT_COUNT>
1

> <PUBCHEM_CACTVS_TAUTO_COUNT>
2

> <PUBCHEM_CONFORMER_ID>
0001F07F00000001

> <PUBCHEM_MMFF94_ENERGY>
55.4139

> <PUBCHEM_FEATURE_SELFOVERLAP>
45.802

> <PUBCHEM_SHAPE_FINGERPRINT>
11513181 2 18126276686815229509
11646440 116 18411147922016669139
12596602 18 14345802639125803143
12788726 201 18336265618319677306
13134695 92 17274824691939364938
13402501 40 18408597055092605967
140371 6 18341628000762945810
14251757 5 18262523593494024117
14347329 18 16806987880842357525
14508225 48 18271540697602791214
14931854 50 18192417577578761821
15081414 286 18340490091827051873
15238133 3 17968645039138091763
15420108 30 17554595572336201328
15775530 1 17466810580622211426
16112460 7 18271255941145369361
17357779 13 18201151070587304070
17980427 23 17488764327282248195
1813 80 17988381303153524646
18785283 64 18122634013229607730
21033648 29 17489013890752754579
21285901 2 18059583429826770726
21641784 216 18189635864357081364
23175994 123 18341622520157985235
23557571 272 18270962324601066886
23559900 14 18343013436789780955
3004659 81 17894911772827993570
3298306 158 17906461278903900148
340366 18 18129942394311264567
437815 12 18343300349400745061
465052 167 11887664100446823558
469060 322 17969797288574440668
5081480 168 18127434395297403557
6823239 73 18260822739537986033
7164475 11 18123191200028371366
7226269 152 18334012774781576538

> <PUBCHEM_SHAPE_MULTIPOLES>
541.5
11.78
4.84
1.42
3.6
6.87
0.13
-5.64
3.68
-1.77
-0.77
-0.11
-0.13
2.47

> <PUBCHEM_SHAPE_SELFOVERLAP>
1116.024

> <PUBCHEM_SHAPE_VOLUME>
312.2

> <PUBCHEM_COORDINATE_TYPE>
2
5
10

$$$$
