127134
  -OEChem-03292013323D

 68 70  0     1  0  0  0  0  0999 V2000
   -1.5829    0.3561   -1.8217 O   0  0  0  0  0  0  0  0  0  0  0  0
    0.8047    1.6847    2.8092 O   0  0  0  0  0  0  0  0  0  0  0  0
    0.6055    3.6987    1.7879 O   0  0  0  0  0  0  0  0  0  0  0  0
   -5.5185   -0.0439   -0.2816 O   0  0  0  0  0  0  0  0  0  0  0  0
   -5.5676   -2.2103   -0.9256 O   0  0  0  0  0  0  0  0  0  0  0  0
   -0.2798    2.3931   -0.4710 N   0  0  0  0  0  0  0  0  0  0  0  0
   -2.9271    0.0400    0.0430 N   0  0  0  0  0  0  0  0  0  0  0  0
    0.4208   -2.1023    1.8734 N   0  0  0  0  0  0  0  0  0  0  0  0
   -1.6746    2.1050   -0.1368 C   0  0  1  0  0  0  0  0  0  0  0  0
   -2.6571    3.2196   -0.5881 C   0  0  1  0  0  0  0  0  0  0  0  0
   -2.3364    4.5887    0.0543 C   0  0  0  0  0  0  0  0  0  0  0  0
    0.6208    1.6824    0.4228 C   0  0  1  0  0  0  0  0  0  0  0  0
   -2.0380    0.7524   -0.7504 C   0  0  0  0  0  0  0  0  0  0  0  0
   -2.6978    3.3152   -2.1197 C   0  0  0  0  0  0  0  0  0  0  0  0
    2.0063    1.5812   -0.2302 C   0  0  0  0  0  0  0  0  0  0  0  0
   -3.4261   -1.2702   -0.3076 C   0  0  1  0  0  0  0  0  0  0  0  0
   -3.0798   -2.3085    0.7690 C   0  0  0  0  0  0  0  0  0  0  0  0
   -3.3558    5.6702   -0.2813 C   0  0  0  0  0  0  0  0  0  0  0  0
    3.0518    0.8285    0.6075 C   0  0  0  0  0  0  0  0  0  0  0  0
   -1.6038   -2.4288    1.0242 C   0  0  0  0  0  0  0  0  0  0  0  0
    0.6812    2.4782    1.7148 C   0  0  0  0  0  0  0  0  0  0  0  0
   -0.6979   -3.3054    0.3641 C   0  0  0  0  0  0  0  0  0  0  0  0
    4.3916    0.6620   -0.0664 C   0  0  0  0  0  0  0  0  0  0  0  0
   -4.9304   -1.2375   -0.5356 C   0  0  0  0  0  0  0  0  0  0  0  0
    0.5653   -3.0804    0.9154 C   0  0  0  0  0  0  0  0  0  0  0  0
   -0.8864   -1.7023    1.9465 C   0  0  0  0  0  0  0  0  0  0  0  0
   -0.8318   -4.2715   -0.6528 C   0  0  0  0  0  0  0  0  0  0  0  0
    4.6404   -0.4608   -0.8560 C   0  0  0  0  0  0  0  0  0  0  0  0
    5.3814    1.6309    0.0998 C   0  0  0  0  0  0  0  0  0  0  0  0
    1.7059   -3.7763    0.4991 C   0  0  0  0  0  0  0  0  0  0  0  0
    0.3004   -4.9752   -1.0794 C   0  0  0  0  0  0  0  0  0  0  0  0
    1.5487   -4.7298   -0.5108 C   0  0  0  0  0  0  0  0  0  0  0  0
    5.8788   -0.6147   -1.4792 C   0  0  0  0  0  0  0  0  0  0  0  0
    6.6197    1.4769   -0.5236 C   0  0  0  0  0  0  0  0  0  0  0  0
    6.8684    0.3541   -1.3131 C   0  0  0  0  0  0  0  0  0  0  0  0
   -1.7874    2.0318    0.9537 H   0  0  0  0  0  0  0  0  0  0  0  0
   -3.6638    2.9239   -0.2610 H   0  0  0  0  0  0  0  0  0  0  0  0
   -0.1008    2.1535   -1.4454 H   0  0  0  0  0  0  0  0  0  0  0  0
   -1.3435    4.9350   -0.2557 H   0  0  0  0  0  0  0  0  0  0  0  0
   -2.3061    4.4682    1.1441 H   0  0  0  0  0  0  0  0  0  0  0  0
    0.2604    0.6698    0.6299 H   0  0  0  0  0  0  0  0  0  0  0  0
   -3.4538    4.0346   -2.4498 H   0  0  0  0  0  0  0  0  0  0  0  0
   -2.9737    2.3644   -2.5843 H   0  0  0  0  0  0  0  0  0  0  0  0
   -1.7348    3.6344   -2.5314 H   0  0  0  0  0  0  0  0  0  0  0  0
    1.9102    1.0767   -1.2016 H   0  0  0  0  0  0  0  0  0  0  0  0
    2.3917    2.5880   -0.4439 H   0  0  0  0  0  0  0  0  0  0  0  0
   -2.9780   -1.5654   -1.2642 H   0  0  0  0  0  0  0  0  0  0  0  0
   -3.2870    0.4673    0.8916 H   0  0  0  0  0  0  0  0  0  0  0  0
   -3.4811   -3.2900    0.4860 H   0  0  0  0  0  0  0  0  0  0  0  0
   -3.5810   -2.0442    1.7106 H   0  0  0  0  0  0  0  0  0  0  0  0
   -4.3741    5.3353   -0.0607 H   0  0  0  0  0  0  0  0  0  0  0  0
   -3.1581    6.5660    0.3167 H   0  0  0  0  0  0  0  0  0  0  0  0
   -3.3028    5.9640   -1.3334 H   0  0  0  0  0  0  0  0  0  0  0  0
    2.6621   -0.1633    0.8707 H   0  0  0  0  0  0  0  0  0  0  0  0
    3.2077    1.3432    1.5637 H   0  0  0  0  0  0  0  0  0  0  0  0
   -1.1863   -0.9354    2.6471 H   0  0  0  0  0  0  0  0  0  0  0  0
    1.1722   -1.7314    2.4385 H   0  0  0  0  0  0  0  0  0  0  0  0
   -1.7973   -4.4740   -1.1076 H   0  0  0  0  0  0  0  0  0  0  0  0
    3.8765   -1.2214   -0.9944 H   0  0  0  0  0  0  0  0  0  0  0  0
    5.1986    2.5110    0.7106 H   0  0  0  0  0  0  0  0  0  0  0  0
    2.6784   -3.5845    0.9400 H   0  0  0  0  0  0  0  0  0  0  0  0
    0.8318    2.2073    3.6388 H   0  0  0  0  0  0  0  0  0  0  0  0
    0.2033   -5.7211   -1.8638 H   0  0  0  0  0  0  0  0  0  0  0  0
    2.4150   -5.2872   -0.8578 H   0  0  0  0  0  0  0  0  0  0  0  0
    6.0723   -1.4888   -2.0943 H   0  0  0  0  0  0  0  0  0  0  0  0
    7.3903    2.2315   -0.3949 H   0  0  0  0  0  0  0  0  0  0  0  0
   -6.4854   -0.0691   -0.4452 H   0  0  0  0  0  0  0  0  0  0  0  0
    7.8325    0.2344   -1.7986 H   0  0  0  0  0  0  0  0  0  0  0  0
  1 13  2  0  0  0  0
  2 21  1  0  0  0  0
  2 62  1  0  0  0  0
  3 21  2  0  0  0  0
  4 24  1  0  0  0  0
  4 67  1  0  0  0  0
  5 24  2  0  0  0  0
  6  9  1  0  0  0  0
  6 12  1  0  0  0  0
  6 38  1  0  0  0  0
  7 13  1  0  0  0  0
  7 16  1  0  0  0  0
  7 48  1  0  0  0  0
  8 25  1  0  0  0  0
  8 26  1  0  0  0  0
  8 57  1  0  0  0  0
  9 10  1  0  0  0  0
  9 13  1  0  0  0  0
  9 36  1  0  0  0  0
 10 11  1  0  0  0  0
 10 14  1  0  0  0  0
 10 37  1  0  0  0  0
 11 18  1  0  0  0  0
 11 39  1  0  0  0  0
 11 40  1  0  0  0  0
 12 15  1  0  0  0  0
 12 21  1  0  0  0  0
 12 41  1  0  0  0  0
 14 42  1  0  0  0  0
 14 43  1  0  0  0  0
 14 44  1  0  0  0  0
 15 19  1  0  0  0  0
 15 45  1  0  0  0  0
 15 46  1  0  0  0  0
 16 17  1  0  0  0  0
 16 24  1  0  0  0  0
 16 47  1  0  0  0  0
 17 20  1  0  0  0  0
 17 49  1  0  0  0  0
 17 50  1  0  0  0  0
 18 51  1  0  0  0  0
 18 52  1  0  0  0  0
 18 53  1  0  0  0  0
 19 23  1  0  0  0  0
 19 54  1  0  0  0  0
 19 55  1  0  0  0  0
 20 22  1  0  0  0  0
 20 26  2  0  0  0  0
 22 25  1  0  0  0  0
 22 27  2  0  0  0  0
 23 28  2  0  0  0  0
 23 29  1  0  0  0  0
 25 30  2  0  0  0  0
 26 56  1  0  0  0  0
 27 31  1  0  0  0  0
 27 58  1  0  0  0  0
 28 33  1  0  0  0  0
 28 59  1  0  0  0  0
 29 34  2  0  0  0  0
 29 60  1  0  0  0  0
 30 32  1  0  0  0  0
 30 61  1  0  0  0  0
 31 32  2  0  0  0  0
 31 63  1  0  0  0  0
 32 64  1  0  0  0  0
 33 35  2  0  0  0  0
 33 65  1  0  0  0  0
 34 35  1  0  0  0  0
 34 66  1  0  0  0  0
 35 68  1  0  0  0  0
M  END
> <PUBCHEM_COMPOUND_CID>
127134

> <PUBCHEM_CONFORMER_RMSD>
1.2

> <PUBCHEM_CONFORMER_DIVERSEORDER>
1
154
88
31
282
102
277
184
24
224
239
267
275
124
199
281
152
73
106
245
175
3
164
253
283
92
186
196
145
243
149
117
19
203
237
18
21
113
266
123
270
44
129
20
22
62
67
48
263
210
170
169
238
26
172
79
240
47
112
222
187
115
134
236
70
209
228
130
215
97
189
197
287
171
250
268
182
95
231
246
132
166
16
135
68
143
190
274
114
212
25
65
63
178
193
111
280
159
55
183
257
258
94
204
80
42
142
12
5
279
233
126
230
289
221
39
90
50
91
217
165
105
214
252
32
255
227
133
58
38
151
11
101
260
242
131
202
155
85
262
157
150
207
206
232
141
14
167
158
2
45
147
71
43
35
177
99
100
148
205
64
285
8
33
119
49
248
57
17
208
23
272
198
78
53
13
51
27
121
109
179
140
29
59
7
286
108
93
191
76
69
122
118
137
125
180
264
60
226
284
136
6
10
234
156
220
77
107
160
82
261
194
185
98
72
188
46
104
15
251
241
244
173
174
138
30
271
144
89
37
36
163
127
225
41
223
161
128
139
116
259
83
254
146
96
61
181
218
4
9
40
52
192
256
216
87
201
168
120
211
265
153
74
235
278
56
84
249
81
200
162
110
269
195
34
288
273
103
75
276
229
86
66
54
176
219
213
247
28

> <PUBCHEM_MMFF94_PARTIAL_CHARGES>
44
1 -0.57
12 0.33
13 0.57
16 0.36
17 0.18
19 0.14
2 -0.65
20 -0.18
21 0.66
23 -0.14
24 0.66
25 -0.15
26 -0.3
27 -0.15
28 -0.15
29 -0.15
3 -0.57
30 -0.15
31 -0.15
32 -0.15
33 -0.15
34 -0.15
35 -0.15
38 0.36
4 -0.65
48 0.37
5 -0.57
56 0.15
57 0.27
58 0.15
59 0.15
6 -0.9
60 0.15
61 0.15
62 0.5
63 0.15
64 0.15
65 0.15
66 0.15
67 0.5
68 0.15
7 -0.73
8 0.03
9 0.33

> <PUBCHEM_EFFECTIVE_ROTOR_COUNT>
14

> <PUBCHEM_PHARMACOPHORE_FEATURES>
17
1 1 acceptor
1 14 hydrophobe
1 18 hydrophobe
1 2 acceptor
1 3 acceptor
1 4 acceptor
1 5 acceptor
1 6 cation
1 6 donor
1 7 donor
1 8 cation
1 8 donor
3 2 3 21 anion
3 4 5 24 anion
5 8 20 22 25 26 rings
6 22 25 27 30 31 32 rings
6 23 28 29 33 34 35 rings

> <PUBCHEM_HEAVY_ATOM_COUNT>
35

> <PUBCHEM_ATOM_DEF_STEREO_COUNT>
2

> <PUBCHEM_ATOM_UDEF_STEREO_COUNT>
2

> <PUBCHEM_BOND_DEF_STEREO_COUNT>
0

> <PUBCHEM_BOND_UDEF_STEREO_COUNT>
0

> <PUBCHEM_ISOTOPIC_ATOM_COUNT>
0

> <PUBCHEM_COMPONENT_COUNT>
1

> <PUBCHEM_CACTVS_TAUTO_COUNT>
2

> <PUBCHEM_CONFORMER_ID>
0001F09E00000001

> <PUBCHEM_MMFF94_ENERGY>
61.8375

> <PUBCHEM_FEATURE_SELFOVERLAP>
86.483

> <PUBCHEM_SHAPE_FINGERPRINT>
11285246 1 17698419342096141678
12788726 201 18261670467340264248
13402501 40 18339646753924383942
14659021 117 18197203957673298740
14725015 67 18340761628449509658
15439362 3 17760365487971287292
15927050 60 18196091037089527205
20764821 26 17976247264696626238
3027735 51 18339935826481762090
5085150 59 18337658742686183210
5265222 85 18261962971618995732
53794403 172 17831577574514540437
563151 40 18266473013671267529
57527585 21 18266436760136944767

> <PUBCHEM_SHAPE_MULTIPOLES>
675.99
11.44
7.84
1.71
15.57
1
-0.59
-5.01
5.81
-5.99
0.48
0.1
-0.43
0.95

> <PUBCHEM_SHAPE_SELFOVERLAP>
1420.325

> <PUBCHEM_SHAPE_VOLUME>
380.3

> <PUBCHEM_COORDINATE_TYPE>
2
5
10

$$$$
