127187
  -OEChem-03292013323D

 36 38  0     1  0  0  0  0  0999 V2000
    2.5200   -0.4711   -0.9859 O   0  0  0  0  0  0  0  0  0  0  0  0
    2.9243    2.4382    0.3048 O   0  0  0  0  0  0  0  0  0  0  0  0
    4.4403    0.7362    1.8006 O   0  0  0  0  0  0  0  0  0  0  0  0
    4.6433   -2.2885   -1.3919 O   0  0  0  0  0  0  0  0  0  0  0  0
   -6.3420   -1.6222    0.7355 O   0  0  0  0  0  0  0  0  0  0  0  0
    0.3215   -0.0024   -0.2235 N   0  0  0  0  0  0  0  0  0  0  0  0
   -1.2128   -1.4910    0.4155 N   0  0  0  0  0  0  0  0  0  0  0  0
   -1.1271    1.8520   -0.8280 N   0  0  0  0  0  0  0  0  0  0  0  0
   -3.4775    1.2912   -0.4853 N   0  0  0  0  0  0  0  0  0  0  0  0
   -4.1818   -0.8392    0.3468 N   0  0  0  0  0  0  0  0  0  0  0  0
    2.3029    1.2180    0.7051 C   0  0  1  0  0  0  0  0  0  0  0  0
    1.6385    0.5686   -0.5101 C   0  0  1  0  0  0  0  0  0  0  0  0
    3.3352    0.1852    1.1168 C   0  0  1  0  0  0  0  0  0  0  0  0
    3.7330   -0.4228   -0.2170 C   0  0  1  0  0  0  0  0  0  0  0  0
    4.3203   -1.8175   -0.0952 C   0  0  0  0  0  0  0  0  0  0  0  0
   -0.8908    0.6095   -0.3809 C   0  0  0  0  0  0  0  0  0  0  0  0
    0.0743   -1.2625    0.2566 C   0  0  0  0  0  0  0  0  0  0  0  0
   -1.8276   -0.3294    0.0209 C   0  0  0  0  0  0  0  0  0  0  0  0
   -3.1648    0.0494   -0.0426 C   0  0  0  0  0  0  0  0  0  0  0  0
   -2.4543    2.1032   -0.8452 C   0  0  0  0  0  0  0  0  0  0  0  0
   -5.5748   -0.5050    0.3032 C   0  0  0  0  0  0  0  0  0  0  0  0
    1.6135    1.4603    1.5203 H   0  0  0  0  0  0  0  0  0  0  0  0
    1.5016    1.2757   -1.3364 H   0  0  0  0  0  0  0  0  0  0  0  0
    2.8565   -0.5664    1.7566 H   0  0  0  0  0  0  0  0  0  0  0  0
    4.4381    0.2223   -0.7571 H   0  0  0  0  0  0  0  0  0  0  0  0
    3.6044   -2.5191    0.3453 H   0  0  0  0  0  0  0  0  0  0  0  0
    5.2322   -1.8174    0.5085 H   0  0  0  0  0  0  0  0  0  0  0  0
    2.2186    3.0418    0.0157 H   0  0  0  0  0  0  0  0  0  0  0  0
    5.0639    0.0140    1.9858 H   0  0  0  0  0  0  0  0  0  0  0  0
    0.8633   -1.9686    0.4769 H   0  0  0  0  0  0  0  0  0  0  0  0
    3.8258   -2.2820   -1.9187 H   0  0  0  0  0  0  0  0  0  0  0  0
   -2.7411    3.0894   -1.1944 H   0  0  0  0  0  0  0  0  0  0  0  0
   -3.9076   -1.7583    0.6739 H   0  0  0  0  0  0  0  0  0  0  0  0
   -5.8841   -0.2545   -0.7168 H   0  0  0  0  0  0  0  0  0  0  0  0
   -5.7940    0.3375    0.9669 H   0  0  0  0  0  0  0  0  0  0  0  0
   -7.2772   -1.3592    0.6931 H   0  0  0  0  0  0  0  0  0  0  0  0
  1 12  1  0  0  0  0
  1 14  1  0  0  0  0
  2 11  1  0  0  0  0
  2 28  1  0  0  0  0
  3 13  1  0  0  0  0
  3 29  1  0  0  0  0
  4 15  1  0  0  0  0
  4 31  1  0  0  0  0
  5 21  1  0  0  0  0
  5 36  1  0  0  0  0
  6 12  1  0  0  0  0
  6 16  1  0  0  0  0
  6 17  1  0  0  0  0
  7 17  2  0  0  0  0
  7 18  1  0  0  0  0
  8 16  2  0  0  0  0
  8 20  1  0  0  0  0
  9 19  1  0  0  0  0
  9 20  2  0  0  0  0
 10 19  1  0  0  0  0
 10 21  1  0  0  0  0
 10 33  1  0  0  0  0
 11 12  1  0  0  0  0
 11 13  1  0  0  0  0
 11 22  1  0  0  0  0
 12 23  1  0  0  0  0
 13 14  1  0  0  0  0
 13 24  1  0  0  0  0
 14 15  1  0  0  0  0
 14 25  1  0  0  0  0
 15 26  1  0  0  0  0
 15 27  1  0  0  0  0
 16 18  1  0  0  0  0
 17 30  1  0  0  0  0
 18 19  2  0  0  0  0
 20 32  1  0  0  0  0
 21 34  1  0  0  0  0
 21 35  1  0  0  0  0
M  END
> <PUBCHEM_COMPOUND_CID>
127187

> <PUBCHEM_CONFORMER_RMSD>
0.8

> <PUBCHEM_CONFORMER_DIVERSEORDER>
1
23
6
9
24
20
16
25
13
2
22
14
17
4
15
8
19
11
3
12
10
21
7
5
18

> <PUBCHEM_MMFF94_PARTIAL_CHARGES>
28
1 -0.56
10 -0.87
11 0.28
12 0.54
13 0.28
14 0.28
15 0.28
16 0.11
17 0.04
18 0.23
19 0.41
2 -0.68
20 0.47
21 0.65
28 0.4
29 0.4
3 -0.68
30 0.15
31 0.4
32 0.15
33 0.4
36 0.4
4 -0.68
5 -0.68
6 0.05
7 -0.57
8 -0.57
9 -0.62

> <PUBCHEM_EFFECTIVE_ROTOR_COUNT>
5

> <PUBCHEM_PHARMACOPHORE_FEATURES>
17
1 1 acceptor
1 10 cation
1 10 donor
1 2 acceptor
1 2 donor
1 3 acceptor
1 3 donor
1 4 acceptor
1 4 donor
1 5 acceptor
1 5 donor
3 6 7 17 cation
3 6 8 16 cation
3 8 9 20 cation
5 1 11 12 13 14 rings
5 6 7 16 17 18 rings
6 8 9 16 18 19 20 rings

> <PUBCHEM_HEAVY_ATOM_COUNT>
21

> <PUBCHEM_ATOM_DEF_STEREO_COUNT>
4

> <PUBCHEM_ATOM_UDEF_STEREO_COUNT>
0

> <PUBCHEM_BOND_DEF_STEREO_COUNT>
0

> <PUBCHEM_BOND_UDEF_STEREO_COUNT>
0

> <PUBCHEM_ISOTOPIC_ATOM_COUNT>
0

> <PUBCHEM_COMPONENT_COUNT>
1

> <PUBCHEM_CACTVS_TAUTO_COUNT>
3

> <PUBCHEM_CONFORMER_ID>
0001F0D300000001

> <PUBCHEM_MMFF94_ENERGY>
50.2361

> <PUBCHEM_FEATURE_SELFOVERLAP>
86.938

> <PUBCHEM_SHAPE_FINGERPRINT>
10366900 7 17603594010262016153
12032990 46 18335423460978971749
12236239 1 16805038506449754252
12403259 226 18336542724845162276
12403259 415 18341046337383645916
12507560 40 18342168952004432432
12616971 3 15841546353690881062
12916754 54 18410579470199539857
13134695 92 17274244060212364096
13140716 1 18045499974454377667
13533116 47 17703794708383495874
13675066 3 18342167856523904456
13862211 1 18187078507996584779
14866123 147 17119738276642196402
15196674 1 18334858312071172013
15219456 202 18272079483748562100
16752209 62 17822010878391388731
17349148 13 17312824875090003403
17804303 29 18335140843472330180
1813 80 17385723616676088301
18186145 218 18270114613277447304
18222031 100 17385726915406111183
19141452 34 18201157758585081471
20028762 73 18339643472902354647
20510252 161 18410570682628121049
20645477 70 17988926639704644798
21065201 7 18188484658196974632
21267235 1 18261121768283554867
21682296 61 18129952152413741807
23402539 116 18334285501263021335
23557571 272 18336555915216872479
23559900 14 18333456455982938204
3286 77 18272375251970349420
3545911 37 18273213131955644496
4340502 62 16128665162954098847
5104073 3 18342171111971991560
5374978 207 18260827150174090689
59755656 215 18188208702644058319
69090 78 18272926154762103679
9709674 26 18410290345854426482

> <PUBCHEM_SHAPE_MULTIPOLES>
377.92
11.27
2.13
1.05
7.87
0.34
-0.11
-5.18
-1.8
-0.55
0.31
-1.07
0.02
2

> <PUBCHEM_SHAPE_SELFOVERLAP>
812.083

> <PUBCHEM_SHAPE_VOLUME>
204.5

> <PUBCHEM_COORDINATE_TYPE>
2
5
10

$$$$
