127154
  -OEChem-03292013323D

 39 40  0     1  0  0  0  0  0999 V2000
    3.0424    0.8043   -0.3519 O   0  0  0  0  0  0  0  0  0  0  0  0
   -3.7738    2.1151   -1.0342 O   0  0  0  0  0  0  0  0  0  0  0  0
   -5.6004    1.1752    0.6280 O   0  0  0  0  0  0  0  0  0  0  0  0
   -5.6694   -1.1229    0.5942 O   0  0  0  0  0  0  0  0  0  0  0  0
    0.3665    0.0244   -0.7418 N   0  0  0  0  0  0  0  0  0  0  0  0
   -1.7295    1.0505   -0.8723 N   0  0  0  0  0  0  0  0  0  0  0  0
   -1.4951   -1.0125    0.2381 N   0  0  0  0  0  0  0  0  0  0  0  0
    3.6127    1.4241    0.7986 C   0  0  1  0  0  0  0  0  0  0  0  0
    4.5887    2.5135    0.3491 C   0  0  0  0  0  0  0  0  0  0  0  0
    2.4923    2.0052    1.6507 C   0  0  0  0  0  0  0  0  0  0  0  0
    2.6919   -0.5080   -0.2381 C   0  0  0  0  0  0  0  0  0  0  0  0
    1.3605   -0.9058   -0.4309 C   0  0  0  0  0  0  0  0  0  0  0  0
    5.6979    1.9640   -0.5383 C   0  0  0  0  0  0  0  0  0  0  0  0
    3.6747   -1.4480    0.0726 C   0  0  0  0  0  0  0  0  0  0  0  0
    1.0340   -2.2641   -0.3063 C   0  0  0  0  0  0  0  0  0  0  0  0
   -0.9669   -0.0245   -0.4304 C   0  0  0  0  0  0  0  0  0  0  0  0
    3.3370   -2.7960    0.1936 C   0  0  0  0  0  0  0  0  0  0  0  0
    2.0168   -3.2040    0.0042 C   0  0  0  0  0  0  0  0  0  0  0  0
   -3.0891    1.1727   -0.6506 C   0  0  0  0  0  0  0  0  0  0  0  0
   -3.6662    0.0396    0.1100 C   0  0  0  0  0  0  0  0  0  0  0  0
   -2.8425   -0.9469    0.4891 C   0  0  0  0  0  0  0  0  0  0  0  0
   -5.0823   -0.0559    0.4666 C   0  0  0  0  0  0  0  0  0  0  0  0
    4.1718    0.7075    1.4132 H   0  0  0  0  0  0  0  0  0  0  0  0
    4.0505    3.2818   -0.2196 H   0  0  0  0  0  0  0  0  0  0  0  0
    5.0322    3.0028    1.2240 H   0  0  0  0  0  0  0  0  0  0  0  0
    1.8782    2.7014    1.0688 H   0  0  0  0  0  0  0  0  0  0  0  0
    1.8219    1.2150    2.0051 H   0  0  0  0  0  0  0  0  0  0  0  0
    2.8895    2.5333    2.5230 H   0  0  0  0  0  0  0  0  0  0  0  0
    5.2984    1.5433   -1.4663 H   0  0  0  0  0  0  0  0  0  0  0  0
    6.2627    1.1828   -0.0198 H   0  0  0  0  0  0  0  0  0  0  0  0
    6.3950    2.7640   -0.8072 H   0  0  0  0  0  0  0  0  0  0  0  0
    4.7124   -1.1535    0.2026 H   0  0  0  0  0  0  0  0  0  0  0  0
    0.7191    0.8909   -1.1388 H   0  0  0  0  0  0  0  0  0  0  0  0
    0.0370   -2.6452   -0.5011 H   0  0  0  0  0  0  0  0  0  0  0  0
    4.1035   -3.5291    0.4274 H   0  0  0  0  0  0  0  0  0  0  0  0
    1.7575   -4.2557    0.0842 H   0  0  0  0  0  0  0  0  0  0  0  0
   -1.2629    1.7904   -1.3884 H   0  0  0  0  0  0  0  0  0  0  0  0
   -3.2199   -1.7952    1.0530 H   0  0  0  0  0  0  0  0  0  0  0  0
   -6.5506    1.1480    0.8704 H   0  0  0  0  0  0  0  0  0  0  0  0
  1  8  1  0  0  0  0
  1 11  1  0  0  0  0
  2 19  2  0  0  0  0
  3 22  1  0  0  0  0
  3 39  1  0  0  0  0
  4 22  2  0  0  0  0
  5 12  1  0  0  0  0
  5 16  1  0  0  0  0
  5 33  1  0  0  0  0
  6 16  1  0  0  0  0
  6 19  1  0  0  0  0
  6 37  1  0  0  0  0
  7 16  2  0  0  0  0
  7 21  1  0  0  0  0
  8  9  1  0  0  0  0
  8 10  1  0  0  0  0
  8 23  1  0  0  0  0
  9 13  1  0  0  0  0
  9 24  1  0  0  0  0
  9 25  1  0  0  0  0
 10 26  1  0  0  0  0
 10 27  1  0  0  0  0
 10 28  1  0  0  0  0
 11 12  1  0  0  0  0
 11 14  2  0  0  0  0
 12 15  2  0  0  0  0
 13 29  1  0  0  0  0
 13 30  1  0  0  0  0
 13 31  1  0  0  0  0
 14 17  1  0  0  0  0
 14 32  1  0  0  0  0
 15 18  1  0  0  0  0
 15 34  1  0  0  0  0
 17 18  2  0  0  0  0
 17 35  1  0  0  0  0
 18 36  1  0  0  0  0
 19 20  1  0  0  0  0
 20 21  2  0  0  0  0
 20 22  1  0  0  0  0
 21 38  1  0  0  0  0
M  END
> <PUBCHEM_COMPOUND_CID>
127154

> <PUBCHEM_CONFORMER_RMSD>
0.8

> <PUBCHEM_CONFORMER_DIVERSEORDER>
1
47
25
68
116
70
117
62
111
145
123
71
81
90
40
135
76
60
91
73
11
126
107
112
75
58
113
141
83
59
37
138
120
98
84
129
16
34
128
72
29
61
32
31
110
23
118
114
78
106
22
50
88
96
63
36
79
19
94
8
97
104
125
28
46
142
49
108
132
45
101
27
119
18
41
124
115
100
66
33
87
24
99
134
4
137
14
54
20
55
86
3
56
105
6
17
64
95
80
44
92
69
85
77
52
51
89
102
93
144
109
30
139
9
146
57
53
48
121
130
43
12
67
35
7
39
122
131
140
127
13
103
143
38
10
21
5
15
2
82
136
133
26
42
74
65

> <PUBCHEM_MMFF94_PARTIAL_CHARGES>
27
1 -0.36
11 0.08
12 0.1
14 -0.15
15 -0.15
16 0.56
17 -0.15
18 -0.15
19 0.62
2 -0.57
20 0.03
21 0.02
22 0.71
3 -0.65
32 0.15
33 0.4
34 0.15
35 0.15
36 0.15
37 0.37
38 0.15
39 0.5
4 -0.57
5 -0.55
6 -0.49
7 -0.62
8 0.28

> <PUBCHEM_EFFECTIVE_ROTOR_COUNT>
6

> <PUBCHEM_PHARMACOPHORE_FEATURES>
11
1 1 acceptor
1 13 hydrophobe
1 2 acceptor
1 20 anion
1 3 acceptor
1 4 acceptor
1 5 donor
1 6 donor
3 3 4 22 anion
6 11 12 14 15 17 18 rings
6 6 7 16 19 20 21 rings

> <PUBCHEM_HEAVY_ATOM_COUNT>
22

> <PUBCHEM_ATOM_DEF_STEREO_COUNT>
0

> <PUBCHEM_ATOM_UDEF_STEREO_COUNT>
1

> <PUBCHEM_BOND_DEF_STEREO_COUNT>
0

> <PUBCHEM_BOND_UDEF_STEREO_COUNT>
0

> <PUBCHEM_ISOTOPIC_ATOM_COUNT>
0

> <PUBCHEM_COMPONENT_COUNT>
1

> <PUBCHEM_CACTVS_TAUTO_COUNT>
9

> <PUBCHEM_CONFORMER_ID>
0001F0B200000001

> <PUBCHEM_MMFF94_ENERGY>
70.9662

> <PUBCHEM_FEATURE_SELFOVERLAP>
56.264

> <PUBCHEM_SHAPE_FINGERPRINT>
10165383 225 18338802333563545268
10366900 7 18262532419620597658
11405975 8 18265050220128856361
11475781 23 17096343087665285631
11595378 159 16805594837648004869
12403259 226 18118400635870140470
12403259 415 18187926132128466437
12507560 40 18334293141339759141
12616971 3 17917702479253149663
12730499 353 18411144662146839506
12769317 202 18272363200677323408
12788726 201 17131562647672321249
13533116 47 18342176635785334227
13583140 156 18267011774579341959
13878862 14 18195787623219519245
13955234 65 18410575046499575266
146900 427 18202007646275289963
14790565 3 18120942964768711556
15238133 3 16845295982187023787
15475509 35 16733253544547092154
15961568 22 17749392593785550788
16126227 98 18050289473192258948
17844677 252 18340211769846517889
18785283 64 18335134281237100850
19784866 170 18334858359009733676
20645477 70 18202287974490704574
21065198 57 18265050228634303999
21065199 12 18334295336279024269
21065201 7 17168708514408824591
21756936 100 18125995212592989756
23557571 272 17386007213461504349
23558518 356 17481127326101465692
23559900 14 18190736427761266231
23845131 108 18265890435775410226
239999 70 18272658896312162094
350125 39 18409451362948337686
474 4 18340488979551536088
495365 180 18269816658458253534
5104073 3 18262243227188601643
5252454 2 18271516606741129972
6442390 28 18266740362763941142
7808743 9 17976820110561042140
9709674 26 18260557675710954075
9777508 108 18123747814636038514

> <PUBCHEM_SHAPE_MULTIPOLES>
414.33
12.26
3.17
0.97
9.34
1.21
0.13
-5.99
1.43
-4.38
0.21
-0.05
-0.45
0.85

> <PUBCHEM_SHAPE_SELFOVERLAP>
876.363

> <PUBCHEM_SHAPE_VOLUME>
230.2

> <PUBCHEM_COORDINATE_TYPE>
2
5
10

$$$$
