127163
  -OEChem-03292013323D

 63 64  0     1  0  0  0  0  0999 V2000
    4.8468   -4.8422    0.2500 Cl  0  0  0  0  0  0  0  0  0  0  0  0
    0.5787   -1.9900   -1.3033 O   0  0  0  0  0  0  0  0  0  0  0  0
   -1.0749    1.1918   -1.2805 O   0  0  0  0  0  0  0  0  0  0  0  0
    3.1277   -2.9239    1.5395 O   0  0  0  0  0  0  0  0  0  0  0  0
   -7.1221    0.9108    2.8517 O   0  0  0  0  0  0  0  0  0  0  0  0
   -1.7229   -0.8898   -0.5037 N   0  0  0  0  0  0  0  0  0  0  0  0
    1.7277   -0.9198    0.4163 N   0  0  0  0  0  0  0  0  0  0  0  0
   -2.6425    0.3316   -3.4942 N   0  0  0  0  0  0  0  0  0  0  0  0
    5.8903    2.2248   -0.0890 N   0  0  0  0  0  0  0  0  0  0  0  0
    6.6385    4.2276    1.0059 N   0  0  0  0  0  0  0  0  0  0  0  0
    8.0775    2.9763   -0.2425 N   0  0  0  0  0  0  0  0  0  0  0  0
   -0.6687   -1.0315    0.4921 C   0  0  1  0  0  0  0  0  0  0  0  0
   -1.1282   -2.1810    1.3816 C   0  0  0  0  0  0  0  0  0  0  0  0
   -1.9695   -3.0419    0.4426 C   0  0  0  0  0  0  0  0  0  0  0  0
   -2.6484   -2.0188   -0.4554 C   0  0  0  0  0  0  0  0  0  0  0  0
    0.5928   -1.3677   -0.2446 C   0  0  0  0  0  0  0  0  0  0  0  0
   -1.8785    0.2579   -1.2653 C   0  0  0  0  0  0  0  0  0  0  0  0
   -3.1210    0.3082   -2.1180 C   0  0  1  0  0  0  0  0  0  0  0  0
    3.0646   -1.1356   -0.0712 C   0  0  1  0  0  0  0  0  0  0  0  0
   -3.9585    1.5469   -1.8004 C   0  0  0  0  0  0  0  0  0  0  0  0
    4.0415   -0.0527    0.3886 C   0  0  0  0  0  0  0  0  0  0  0  0
    3.6067    1.3484   -0.0581 C   0  0  0  0  0  0  0  0  0  0  0  0
    3.5068   -2.4989    0.4479 C   0  0  0  0  0  0  0  0  0  0  0  0
   -4.8032    1.3771   -0.5592 C   0  0  0  0  0  0  0  0  0  0  0  0
    4.5458    2.4379    0.4490 C   0  0  0  0  0  0  0  0  0  0  0  0
    4.3944   -3.2964   -0.4841 C   0  0  0  0  0  0  0  0  0  0  0  0
   -6.0954    0.8614   -0.6594 C   0  0  0  0  0  0  0  0  0  0  0  0
   -4.2903    1.7362    0.6873 C   0  0  0  0  0  0  0  0  0  0  0  0
   -6.8746    0.7049    0.4868 C   0  0  0  0  0  0  0  0  0  0  0  0
   -5.0696    1.5798    1.8335 C   0  0  0  0  0  0  0  0  0  0  0  0
   -6.3617    1.0641    1.7333 C   0  0  0  0  0  0  0  0  0  0  0  0
    6.7901    3.1048    0.2231 C   0  0  0  0  0  0  0  0  0  0  0  0
   -0.5537   -0.0936    1.0464 H   0  0  0  0  0  0  0  0  0  0  0  0
   -0.3069   -2.7445    1.8347 H   0  0  0  0  0  0  0  0  0  0  0  0
   -1.7659   -1.7950    2.1863 H   0  0  0  0  0  0  0  0  0  0  0  0
   -2.6860   -3.6749    0.9736 H   0  0  0  0  0  0  0  0  0  0  0  0
   -1.3180   -3.6938   -0.1513 H   0  0  0  0  0  0  0  0  0  0  0  0
   -2.8317   -2.4182   -1.4570 H   0  0  0  0  0  0  0  0  0  0  0  0
   -3.5902   -1.6731   -0.0159 H   0  0  0  0  0  0  0  0  0  0  0  0
   -3.7570   -0.5718   -2.0193 H   0  0  0  0  0  0  0  0  0  0  0  0
    1.6224   -0.4890    1.3306 H   0  0  0  0  0  0  0  0  0  0  0  0
    3.0261   -1.1755   -1.1661 H   0  0  0  0  0  0  0  0  0  0  0  0
   -3.3322    2.4428   -1.6938 H   0  0  0  0  0  0  0  0  0  0  0  0
   -4.6349    1.7696   -2.6377 H   0  0  0  0  0  0  0  0  0  0  0  0
    5.0409   -0.2806   -0.0013 H   0  0  0  0  0  0  0  0  0  0  0  0
    4.1248   -0.0703    1.4835 H   0  0  0  0  0  0  0  0  0  0  0  0
    3.5652    1.3802   -1.1539 H   0  0  0  0  0  0  0  0  0  0  0  0
    2.5981    1.5690    0.3097 H   0  0  0  0  0  0  0  0  0  0  0  0
   -2.1768   -0.5489   -3.7125 H   0  0  0  0  0  0  0  0  0  0  0  0
   -3.4335    0.3985   -4.1337 H   0  0  0  0  0  0  0  0  0  0  0  0
    4.1540    3.4089    0.1225 H   0  0  0  0  0  0  0  0  0  0  0  0
    4.5634    2.4199    1.5455 H   0  0  0  0  0  0  0  0  0  0  0  0
    3.8567   -3.5034   -1.4127 H   0  0  0  0  0  0  0  0  0  0  0  0
    5.3087   -2.7359   -0.6921 H   0  0  0  0  0  0  0  0  0  0  0  0
   -6.5052    0.5754   -1.6244 H   0  0  0  0  0  0  0  0  0  0  0  0
   -3.2854    2.1397    0.7792 H   0  0  0  0  0  0  0  0  0  0  0  0
   -7.8801    0.3018    0.4025 H   0  0  0  0  0  0  0  0  0  0  0  0
   -4.6583    1.8630    2.7986 H   0  0  0  0  0  0  0  0  0  0  0  0
   -6.6106    1.2084    3.6236 H   0  0  0  0  0  0  0  0  0  0  0  0
    7.4196    4.8500    1.1835 H   0  0  0  0  0  0  0  0  0  0  0  0
    5.7528    4.4739    1.4331 H   0  0  0  0  0  0  0  0  0  0  0  0
    8.7959    3.6529   -0.0094 H   0  0  0  0  0  0  0  0  0  0  0  0
    8.3452    2.1968   -0.8336 H   0  0  0  0  0  0  0  0  0  0  0  0
  1 26  1  0  0  0  0
  2 16  2  0  0  0  0
  3 17  2  0  0  0  0
  4 23  2  0  0  0  0
  5 31  1  0  0  0  0
  5 59  1  0  0  0  0
  6 12  1  0  0  0  0
  6 15  1  0  0  0  0
  6 17  1  0  0  0  0
  7 16  1  0  0  0  0
  7 19  1  0  0  0  0
  7 41  1  0  0  0  0
  8 18  1  0  0  0  0
  8 49  1  0  0  0  0
  8 50  1  0  0  0  0
  9 25  1  0  0  0  0
  9 32  2  0  0  0  0
 10 32  1  0  0  0  0
 10 60  1  0  0  0  0
 10 61  1  0  0  0  0
 11 32  1  0  0  0  0
 11 62  1  0  0  0  0
 11 63  1  0  0  0  0
 12 13  1  0  0  0  0
 12 16  1  0  0  0  0
 12 33  1  0  0  0  0
 13 14  1  0  0  0  0
 13 34  1  0  0  0  0
 13 35  1  0  0  0  0
 14 15  1  0  0  0  0
 14 36  1  0  0  0  0
 14 37  1  0  0  0  0
 15 38  1  0  0  0  0
 15 39  1  0  0  0  0
 17 18  1  0  0  0  0
 18 20  1  0  0  0  0
 18 40  1  0  0  0  0
 19 21  1  0  0  0  0
 19 23  1  0  0  0  0
 19 42  1  0  0  0  0
 20 24  1  0  0  0  0
 20 43  1  0  0  0  0
 20 44  1  0  0  0  0
 21 22  1  0  0  0  0
 21 45  1  0  0  0  0
 21 46  1  0  0  0  0
 22 25  1  0  0  0  0
 22 47  1  0  0  0  0
 22 48  1  0  0  0  0
 23 26  1  0  0  0  0
 24 27  2  0  0  0  0
 24 28  1  0  0  0  0
 25 51  1  0  0  0  0
 25 52  1  0  0  0  0
 26 53  1  0  0  0  0
 26 54  1  0  0  0  0
 27 29  1  0  0  0  0
 27 55  1  0  0  0  0
 28 30  2  0  0  0  0
 28 56  1  0  0  0  0
 29 31  2  0  0  0  0
 29 57  1  0  0  0  0
 30 31  1  0  0  0  0
 30 58  1  0  0  0  0
M  END
> <PUBCHEM_COMPOUND_CID>
127163

> <PUBCHEM_CONFORMER_RMSD>
1.2

> <PUBCHEM_CONFORMER_DIVERSEORDER>
1
33
40
13
21
20
3
17
34
9
28
36
44
8
29
38
25
19
7
30
35
45
46
26
41
10
15
14
37
42
11
27
24
4
16
22
31
39
43
47
6
2
5
18
23
32
12

> <PUBCHEM_MMFF94_PARTIAL_CHARGES>
40
1 -0.29
10 -0.85
11 -0.85
12 0.36
15 0.3
16 0.57
17 0.57
18 0.33
19 0.36
2 -0.57
20 0.14
23 0.45
24 -0.14
25 0.25
26 0.35
27 -0.15
28 -0.15
29 -0.15
3 -0.57
30 -0.15
31 0.08
32 0.55
4 -0.57
41 0.37
49 0.36
5 -0.53
50 0.36
55 0.15
56 0.15
57 0.15
58 0.15
59 0.45
6 -0.66
60 0.4
61 0.4
62 0.4
63 0.4
7 -0.73
8 -0.99
9 -0.7

> <PUBCHEM_EFFECTIVE_ROTOR_COUNT>
14

> <PUBCHEM_PHARMACOPHORE_FEATURES>
12
1 10 donor
1 11 donor
1 2 acceptor
1 3 acceptor
1 4 acceptor
1 5 donor
1 7 donor
1 8 cation
1 8 donor
4 9 10 11 32 cation
5 6 12 13 14 15 rings
6 24 27 28 29 30 31 rings

> <PUBCHEM_HEAVY_ATOM_COUNT>
32

> <PUBCHEM_ATOM_DEF_STEREO_COUNT>
3

> <PUBCHEM_ATOM_UDEF_STEREO_COUNT>
0

> <PUBCHEM_BOND_DEF_STEREO_COUNT>
0

> <PUBCHEM_BOND_UDEF_STEREO_COUNT>
0

> <PUBCHEM_ISOTOPIC_ATOM_COUNT>
0

> <PUBCHEM_COMPONENT_COUNT>
1

> <PUBCHEM_CACTVS_TAUTO_COUNT>
24

> <PUBCHEM_CONFORMER_ID>
0001F0BB00000001

> <PUBCHEM_MMFF94_ENERGY>
72.4464

> <PUBCHEM_FEATURE_SELFOVERLAP>
60.954

> <PUBCHEM_SHAPE_FINGERPRINT>
10 15 17822006531848062016
10074138 170 17313955254589941875
11135926 11 18410001161949613308
11273773 42 18130786801987699949
11578080 2 18411141372059771458
12788726 201 17489311849666247864
13782708 43 17387980759498531851
14150022 121 18193563500343524251
14251764 75 18342458170812459112
14394314 77 18272095989725755985
15021287 119 18056188073300314863
15131766 46 18341880935634982765
15183329 4 14979377475510023367
15297060 5 18338234985854087920
15519825 34 15213301983980543529
15685185 35 18126569153062767120
19309040 13 18273214222645229580
19438510 23 18340205293030522368
21033648 144 18335408080542764966
21033648 29 17386555873895409605
21033650 10 15841554080790772683
23522609 53 17847066571183110105
23559900 14 18264755594221488690
23569914 152 10518331108049504001
249057 25 17631152127236308253
3610482 184 17632850932804403557
392239 28 18340213969349542449
5104073 3 18114455751833250018
5385378 56 18409727370732477680
563151 74 18411140255473437840
57724786 102 18342454803526554406
5912855 24 18342448292441101919
6608658 132 16558764385891548449
7226269 152 12894486817072336551

> <PUBCHEM_SHAPE_MULTIPOLES>
607.05
19.58
5
1.98
5.69
1.52
0.63
-18.89
-6.82
14.55
-1.2
-4.31
-0.49
0

> <PUBCHEM_SHAPE_SELFOVERLAP>
1239.082

> <PUBCHEM_SHAPE_VOLUME>
350.8

> <PUBCHEM_COORDINATE_TYPE>
2
5
10

$$$$
