127251
  -OEChem-03292013323D

 55 54  0     1  0  0  0  0  0999 V2000
    0.1109   -0.9413    0.4388 S   0  0  0  0  0  0  0  0  0  0  0  0
    4.4561   -1.7666   -0.7784 P   0  0  1  0  0  0  0  0  0  0  0  0
    4.7378   -0.4079    0.0902 O   0  0  0  0  0  0  0  0  0  0  0  0
    2.8679   -1.9865   -0.4570 O   0  0  0  0  0  0  0  0  0  0  0  0
    4.5987   -1.4508   -2.2523 O   0  5  0  0  0  0  0  0  0  0  0  0
    5.2501   -2.8974   -0.1593 O   0  0  0  0  0  0  0  0  0  0  0  0
   -1.8946   -2.5895    0.9014 O   0  0  0  0  0  0  0  0  0  0  0  0
    3.6093    3.1051    0.2744 N   0  3  0  0  0  0  0  0  0  0  0  0
    4.1719    1.8219    0.7657 C   0  0  0  0  0  0  0  0  0  0  0  0
    4.5004    3.7068   -0.8206 C   0  0  0  0  0  0  0  0  0  0  0  0
    2.2070    2.8952   -0.3129 C   0  0  0  0  0  0  0  0  0  0  0  0
    3.5012    4.1250    1.4160 C   0  0  0  0  0  0  0  0  0  0  0  0
    4.2346    0.8317   -0.3804 C   0  0  0  0  0  0  0  0  0  0  0  0
   -6.4495   -0.2021   -0.0382 C   0  0  0  0  0  0  0  0  0  0  0  0
   -4.9998    0.2739   -0.1525 C   0  0  0  0  0  0  0  0  0  0  0  0
   -7.4301    0.8986   -0.4463 C   0  0  0  0  0  0  0  0  0  0  0  0
   -4.0209   -0.8186    0.2886 C   0  0  0  0  0  0  0  0  0  0  0  0
   -8.8790    0.4344   -0.2999 C   0  0  0  0  0  0  0  0  0  0  0  0
   -2.5634   -0.3609    0.2118 C   0  0  0  0  0  0  0  0  0  0  0  0
   -9.8574    1.5367   -0.6730 C   0  0  0  0  0  0  0  0  0  0  0  0
   -1.5754   -1.4529    0.5761 C   0  0  0  0  0  0  0  0  0  0  0  0
    2.4675   -2.2973    0.8711 C   0  0  0  0  0  0  0  0  0  0  0  0
    0.9568   -2.4574    0.9366 C   0  0  0  0  0  0  0  0  0  0  0  0
    5.1683    2.0059    1.1855 H   0  0  0  0  0  0  0  0  0  0  0  0
    3.5366    1.4433    1.5759 H   0  0  0  0  0  0  0  0  0  0  0  0
    5.5296    3.7355   -0.4511 H   0  0  0  0  0  0  0  0  0  0  0  0
    4.4214    3.1138   -1.7347 H   0  0  0  0  0  0  0  0  0  0  0  0
    4.1456    4.7218   -1.0267 H   0  0  0  0  0  0  0  0  0  0  0  0
    1.6144    2.3187    0.4032 H   0  0  0  0  0  0  0  0  0  0  0  0
    1.7539    3.8799   -0.4669 H   0  0  0  0  0  0  0  0  0  0  0  0
    2.2754    2.3899   -1.2792 H   0  0  0  0  0  0  0  0  0  0  0  0
    2.8408    3.7082    2.1821 H   0  0  0  0  0  0  0  0  0  0  0  0
    4.5044    4.2893    1.8202 H   0  0  0  0  0  0  0  0  0  0  0  0
    3.0893    5.0574    1.0189 H   0  0  0  0  0  0  0  0  0  0  0  0
    4.9131    1.1540   -1.1735 H   0  0  0  0  0  0  0  0  0  0  0  0
    3.2529    0.6354   -0.8158 H   0  0  0  0  0  0  0  0  0  0  0  0
   -6.6534   -0.5096    0.9947 H   0  0  0  0  0  0  0  0  0  0  0  0
   -6.5993   -1.0834   -0.6736 H   0  0  0  0  0  0  0  0  0  0  0  0
   -4.8548    1.1656    0.4693 H   0  0  0  0  0  0  0  0  0  0  0  0
   -4.7864    0.5627   -1.1886 H   0  0  0  0  0  0  0  0  0  0  0  0
   -7.2653    1.7858    0.1773 H   0  0  0  0  0  0  0  0  0  0  0  0
   -7.2406    1.1944   -1.4853 H   0  0  0  0  0  0  0  0  0  0  0  0
   -4.2496   -1.1271    1.3165 H   0  0  0  0  0  0  0  0  0  0  0  0
   -4.1593   -1.7063   -0.3415 H   0  0  0  0  0  0  0  0  0  0  0  0
   -9.0682    0.1227    0.7339 H   0  0  0  0  0  0  0  0  0  0  0  0
   -9.0568   -0.4379   -0.9397 H   0  0  0  0  0  0  0  0  0  0  0  0
   -2.3455   -0.0267   -0.8098 H   0  0  0  0  0  0  0  0  0  0  0  0
   -2.4133    0.4850    0.8930 H   0  0  0  0  0  0  0  0  0  0  0  0
   -9.7159    1.8515   -1.7119 H   0  0  0  0  0  0  0  0  0  0  0  0
   -9.7278    2.4115   -0.0278 H   0  0  0  0  0  0  0  0  0  0  0  0
  -10.8872    1.1828   -0.5626 H   0  0  0  0  0  0  0  0  0  0  0  0
    2.8080   -1.5091    1.5514 H   0  0  0  0  0  0  0  0  0  0  0  0
    2.9443   -3.2360    1.1721 H   0  0  0  0  0  0  0  0  0  0  0  0
    0.6484   -3.2582    0.2559 H   0  0  0  0  0  0  0  0  0  0  0  0
    0.6571   -2.7280    1.9539 H   0  0  0  0  0  0  0  0  0  0  0  0
  1 21  1  0  0  0  0
  1 23  1  0  0  0  0
  2  3  1  0  0  0  0
  2  4  1  0  0  0  0
  2  5  1  0  0  0  0
  2  6  2  0  0  0  0
  3 13  1  0  0  0  0
  4 22  1  0  0  0  0
  7 21  2  0  0  0  0
  8  9  1  0  0  0  0
  8 10  1  0  0  0  0
  8 11  1  0  0  0  0
  8 12  1  0  0  0  0
  9 13  1  0  0  0  0
  9 24  1  0  0  0  0
  9 25  1  0  0  0  0
 10 26  1  0  0  0  0
 10 27  1  0  0  0  0
 10 28  1  0  0  0  0
 11 29  1  0  0  0  0
 11 30  1  0  0  0  0
 11 31  1  0  0  0  0
 12 32  1  0  0  0  0
 12 33  1  0  0  0  0
 12 34  1  0  0  0  0
 13 35  1  0  0  0  0
 13 36  1  0  0  0  0
 14 15  1  0  0  0  0
 14 16  1  0  0  0  0
 14 37  1  0  0  0  0
 14 38  1  0  0  0  0
 15 17  1  0  0  0  0
 15 39  1  0  0  0  0
 15 40  1  0  0  0  0
 16 18  1  0  0  0  0
 16 41  1  0  0  0  0
 16 42  1  0  0  0  0
 17 19  1  0  0  0  0
 17 43  1  0  0  0  0
 17 44  1  0  0  0  0
 18 20  1  0  0  0  0
 18 45  1  0  0  0  0
 18 46  1  0  0  0  0
 19 21  1  0  0  0  0
 19 47  1  0  0  0  0
 19 48  1  0  0  0  0
 20 49  1  0  0  0  0
 20 50  1  0  0  0  0
 20 51  1  0  0  0  0
 22 23  1  0  0  0  0
 22 52  1  0  0  0  0
 22 53  1  0  0  0  0
 23 54  1  0  0  0  0
 23 55  1  0  0  0  0
M  CHG  2   5  -1   8   1
M  END
> <PUBCHEM_COMPOUND_CID>
127251

> <PUBCHEM_CONFORMER_RMSD>
1.4

> <PUBCHEM_CONFORMER_DIVERSEORDER>
1
49
5
51
46
14
24
21
18
9
27
32
19
31
40
58
55
20
33
52
26
41
7
48
44
43
42
35
38
53
28
17
3
50
4
6
36
57
23
11
25
56
34
15
16
13
12
54
2
39
8
45
47
22
37
29
10
30

> <PUBCHEM_MMFF94_PARTIAL_CHARGES>
17
1 -0.37
10 0.5
11 0.5
12 0.5
13 0.28
19 0.06
2 1.44
21 0.65
22 0.28
23 0.23
3 -0.55
4 -0.55
5 -0.95
6 -0.95
7 -0.57
8 -1.01
9 0.5

> <PUBCHEM_EFFECTIVE_ROTOR_COUNT>
15

> <PUBCHEM_PHARMACOPHORE_FEATURES>
6
1 20 hydrophobe
1 5 acceptor
1 6 acceptor
1 8 cation
3 14 16 18 hydrophobe
3 15 17 19 hydrophobe

> <PUBCHEM_HEAVY_ATOM_COUNT>
23

> <PUBCHEM_ATOM_DEF_STEREO_COUNT>
0

> <PUBCHEM_ATOM_UDEF_STEREO_COUNT>
0

> <PUBCHEM_BOND_DEF_STEREO_COUNT>
0

> <PUBCHEM_BOND_UDEF_STEREO_COUNT>
0

> <PUBCHEM_ISOTOPIC_ATOM_COUNT>
0

> <PUBCHEM_COMPONENT_COUNT>
1

> <PUBCHEM_CACTVS_TAUTO_COUNT>
1

> <PUBCHEM_CONFORMER_ID>
0001F11300000001

> <PUBCHEM_MMFF94_ENERGY>
30.0184

> <PUBCHEM_FEATURE_SELFOVERLAP>
30.469

> <PUBCHEM_SHAPE_FINGERPRINT>
10638233 991 18341896260773880249
11135609 127 18201428216242333304
11211813 74 18334007265092864517
11386260 185 18272093772972822588
12925494 130 18263361542141001257
13533116 47 18343022211392648621
13878862 14 18336251414398385100
13944108 23 18335424625264217324
14429380 56 18336535067814811391
14556957 393 17418100884778462593
14598715 104 17023452059834949693
16120349 18 18409160001415763045
18335252 114 18411136892255985094
19053607 189 18049717713801945456
20554085 129 16515400755963129201
20715895 44 18410289259327583656
21049683 118 17531237400596355235
21344244 78 17900239937361683690
23559900 14 18342178886475233234
44317340 157 18342174496965597103
44555599 121 18200601302801488657
5047190 2 18130519530890000145
5312510 48 18410292536240170969
58902169 19 18131341995488492207
59521099 67 18201996591356940128
59682541 52 17561083609656723643

> <PUBCHEM_SHAPE_MULTIPOLES>
446.7
23.39
4.66
1.14
70.61
3.76
0.24
11.72
6.72
-10.65
-0.81
-1.45
-0.03
2.17

> <PUBCHEM_SHAPE_SELFOVERLAP>
806.08

> <PUBCHEM_SHAPE_VOLUME>
289.1

> <PUBCHEM_COORDINATE_TYPE>
2
5
10

$$$$
