127259
  -OEChem-03292013323D

 28 27  0     1  0  0  0  0  0999 V2000
    3.5160   -0.5716    0.1016 S   0  0  0  0  0  0  0  0  0  0  0  0
   -0.8454    0.0516    1.4387 O   0  0  0  0  0  0  0  0  0  0  0  0
   -2.6340    2.0216    0.3080 O   0  0  0  0  0  0  0  0  0  0  0  0
    0.3449    1.8595   -1.4794 O   0  0  0  0  0  0  0  0  0  0  0  0
    2.0498    0.0520   -0.2556 O   0  0  0  0  0  0  0  0  0  0  0  0
   -3.3659   -0.5955    1.2106 O   0  0  0  0  0  0  0  0  0  0  0  0
   -2.9215   -2.6155   -0.4642 O   0  0  0  0  0  0  0  0  0  0  0  0
    3.7217   -1.7358   -1.0225 O   0  0  0  0  0  0  0  0  0  0  0  0
    4.5018    0.4620   -0.1542 O   0  0  0  0  0  0  0  0  0  0  0  0
    3.4529   -1.2129    1.4018 O   0  0  0  0  0  0  0  0  0  0  0  0
   -0.8427    0.4532    0.0647 C   0  0  1  0  0  0  0  0  0  0  0  0
   -2.2702    0.8179   -0.3787 C   0  0  1  0  0  0  0  0  0  0  0  0
    0.2001    1.5714   -0.0811 C   0  0  1  0  0  0  0  0  0  0  0  0
   -3.3569   -0.2452   -0.1691 C   0  0  1  0  0  0  0  0  0  0  0  0
    1.5837    1.2028    0.4438 C   0  0  0  0  0  0  0  0  0  0  0  0
   -3.1344   -1.5153   -0.9644 C   0  0  0  0  0  0  0  0  0  0  0  0
   -0.5272   -0.4200   -0.5187 H   0  0  0  0  0  0  0  0  0  0  0  0
   -2.2427    1.0714   -1.4451 H   0  0  0  0  0  0  0  0  0  0  0  0
   -0.1290    2.4856    0.4240 H   0  0  0  0  0  0  0  0  0  0  0  0
   -4.3428    0.1608   -0.4185 H   0  0  0  0  0  0  0  0  0  0  0  0
    1.5638    0.9983    1.5191 H   0  0  0  0  0  0  0  0  0  0  0  0
    2.2819    2.0256    0.2534 H   0  0  0  0  0  0  0  0  0  0  0  0
   -1.0912    0.8246    1.9746 H   0  0  0  0  0  0  0  0  0  0  0  0
   -2.8048    1.7911    1.2370 H   0  0  0  0  0  0  0  0  0  0  0  0
    0.6782    1.0561   -1.9148 H   0  0  0  0  0  0  0  0  0  0  0  0
   -3.1790   -1.3959   -2.0607 H   0  0  0  0  0  0  0  0  0  0  0  0
   -4.1390   -1.1659    1.3625 H   0  0  0  0  0  0  0  0  0  0  0  0
    2.9537   -2.3413   -1.1475 H   0  0  0  0  0  0  0  0  0  0  0  0
  1  5  1  0  0  0  0
  1  8  1  0  0  0  0
  1  9  2  0  0  0  0
  1 10  2  0  0  0  0
  2 11  1  0  0  0  0
  2 23  1  0  0  0  0
  3 12  1  0  0  0  0
  3 24  1  0  0  0  0
  4 13  1  0  0  0  0
  4 25  1  0  0  0  0
  5 15  1  0  0  0  0
  6 14  1  0  0  0  0
  6 27  1  0  0  0  0
  7 16  2  0  0  0  0
  8 28  1  0  0  0  0
 11 12  1  0  0  0  0
 11 13  1  0  0  0  0
 11 17  1  0  0  0  0
 12 14  1  0  0  0  0
 12 18  1  0  0  0  0
 13 15  1  0  0  0  0
 13 19  1  0  0  0  0
 14 16  1  0  0  0  0
 14 20  1  0  0  0  0
 15 21  1  0  0  0  0
 15 22  1  0  0  0  0
 16 26  1  0  0  0  0
M  END
> <PUBCHEM_COMPOUND_CID>
127259

> <PUBCHEM_CONFORMER_RMSD>
0.8

> <PUBCHEM_CONFORMER_DIVERSEORDER>
3
32
11
69
73
1
44
45
20
72
41
39
51
60
6
13
54
24
53
64
19
47
18
22
43
62
5
68
50
2
42
30
29
49
31
66
9
57
16
56
17
63
34
36
15
35
40
26
7
37
46
52
59
65
70
12
55
23
38
61
4
25
58
21
27
28
10
8
71
14
48
67
33

> <PUBCHEM_MMFF94_PARTIAL_CHARGES>
22
1 1.67
10 -0.65
11 0.28
12 0.28
13 0.28
14 0.34
15 0.28
16 0.45
2 -0.68
23 0.4
24 0.4
25 0.4
26 0.06
27 0.4
28 0.5
3 -0.68
4 -0.68
5 -0.46
6 -0.68
7 -0.57
8 -0.68
9 -0.65

> <PUBCHEM_EFFECTIVE_ROTOR_COUNT>
7

> <PUBCHEM_PHARMACOPHORE_FEATURES>
13
1 10 acceptor
1 2 acceptor
1 2 donor
1 3 acceptor
1 3 donor
1 4 acceptor
1 4 donor
1 6 acceptor
1 6 donor
1 7 acceptor
1 8 acceptor
1 9 acceptor
4 1 8 9 10 anion

> <PUBCHEM_HEAVY_ATOM_COUNT>
16

> <PUBCHEM_ATOM_DEF_STEREO_COUNT>
4

> <PUBCHEM_ATOM_UDEF_STEREO_COUNT>
0

> <PUBCHEM_BOND_DEF_STEREO_COUNT>
0

> <PUBCHEM_BOND_UDEF_STEREO_COUNT>
0

> <PUBCHEM_ISOTOPIC_ATOM_COUNT>
0

> <PUBCHEM_COMPONENT_COUNT>
1

> <PUBCHEM_CACTVS_TAUTO_COUNT>
10

> <PUBCHEM_CONFORMER_ID>
0001F11B00000003

> <PUBCHEM_MMFF94_ENERGY>
23.6054

> <PUBCHEM_FEATURE_SELFOVERLAP>
66.076

> <PUBCHEM_SHAPE_FINGERPRINT>
10062212 137 18042111081664143139
11769659 78 18340761645645060165
12006461 19 18343863337750415462
12824470 246 17986955356989749155
13296908 3 18271524200311647212
14123260 362 9295290581426982435
14251710 61 18342460382283007087
14965852 173 18413387644303105489
15239191 94 18410290315599640994
15342816 4 18259982669794388782
17834074 16 18341894056680216598
18186145 218 12829498000088824524
18915474 69 18408042935697609278
19107657 162 18202841054593370814
19107657 46 18340765953513335846
19107657 9 10303812128968193834
20281407 28 18342174440904051992
20281475 54 18412824660132162756
20645477 70 18337945796334645159
20671657 53 17676205792515163724
22485316 2 18408599249710312564
23402539 116 17240476980017785444
23559900 14 18200301234225745984
449060 23 18409443700093620262

> <PUBCHEM_SHAPE_MULTIPOLES>
280.3
7.9
2.14
1.14
4.74
0.48
-0.12
3.91
0.02
-0.99
0.49
0.04
0.1
-0.34

> <PUBCHEM_SHAPE_SELFOVERLAP>
531.931

> <PUBCHEM_SHAPE_VOLUME>
172

> <PUBCHEM_COORDINATE_TYPE>
2
5
10

$$$$
