127299
  -OEChem-03292013323D

 52 54  0     1  0  0  0  0  0999 V2000
   -5.6094   -1.7079   -1.5011 O   0  0  0  0  0  0  0  0  0  0  0  0
   -2.0292   -0.0449   -1.1612 O   0  0  0  0  0  0  0  0  0  0  0  0
    1.2945   -1.1908    1.5660 O   0  0  0  0  0  0  0  0  0  0  0  0
    4.3512   -0.3617    1.2579 O   0  0  0  0  0  0  0  0  0  0  0  0
    2.3589   -0.6031   -0.4034 N   0  0  0  0  0  0  0  0  0  0  0  0
   -0.8521    0.0753    0.8451 N   0  0  0  0  0  0  0  0  0  0  0  0
    5.3398   -2.3623    0.6968 N   0  0  0  0  0  0  0  0  0  0  0  0
   -1.2400    3.2551    0.4607 N   0  0  0  0  0  0  0  0  0  0  0  0
   -0.4276    5.1083   -0.4545 N   0  0  0  0  0  0  0  0  0  0  0  0
   -3.0934   -0.8018    0.8400 C   0  0  2  0  0  0  0  0  0  0  0  0
   -3.0932   -2.3350    0.8951 C   0  0  1  0  0  0  0  0  0  0  0  0
   -4.4218   -0.4383    0.1747 C   0  0  0  0  0  0  0  0  0  0  0  0
   -3.7380   -2.7779   -0.4191 C   0  0  0  0  0  0  0  0  0  0  0  0
    3.3066   -1.7097   -0.4172 C   0  0  1  0  0  0  0  0  0  0  0  0
    3.8679   -1.7214   -1.8343 C   0  0  0  0  0  0  0  0  0  0  0  0
    2.4907    0.2183   -1.6041 C   0  0  0  0  0  0  0  0  0  0  0  0
    3.7747   -0.2596   -2.2650 C   0  0  0  0  0  0  0  0  0  0  0  0
    0.3701    0.6224    0.3305 C   0  0  2  0  0  0  0  0  0  0  0  0
   -4.7031   -1.6511   -0.6793 C   0  0  0  0  0  0  0  0  0  0  0  0
   -1.9569   -0.2150    0.0530 C   0  0  0  0  0  0  0  0  0  0  0  0
    1.3740   -0.4780    0.5641 C   0  0  0  0  0  0  0  0  0  0  0  0
   -1.7341   -2.9750    1.1351 C   0  0  0  0  0  0  0  0  0  0  0  0
    0.8089    1.8965    1.0415 C   0  0  0  0  0  0  0  0  0  0  0  0
    4.3647   -1.3981    0.5981 C   0  0  0  0  0  0  0  0  0  0  0  0
    0.1193    3.1173    0.4803 C   0  0  0  0  0  0  0  0  0  0  0  0
    0.5986    4.2730   -0.0901 C   0  0  0  0  0  0  0  0  0  0  0  0
   -1.5211    4.4655   -0.1094 C   0  0  0  0  0  0  0  0  0  0  0  0
   -3.0696   -0.3805    1.8529 H   0  0  0  0  0  0  0  0  0  0  0  0
   -3.7574   -2.6381    1.7175 H   0  0  0  0  0  0  0  0  0  0  0  0
   -5.2190   -0.3601    0.9210 H   0  0  0  0  0  0  0  0  0  0  0  0
   -4.3885    0.4692   -0.4333 H   0  0  0  0  0  0  0  0  0  0  0  0
    2.8092   -2.6472   -0.1464 H   0  0  0  0  0  0  0  0  0  0  0  0
   -3.0192   -2.8286   -1.2422 H   0  0  0  0  0  0  0  0  0  0  0  0
   -4.2670   -3.7277   -0.3099 H   0  0  0  0  0  0  0  0  0  0  0  0
    4.8865   -2.1088   -1.9243 H   0  0  0  0  0  0  0  0  0  0  0  0
    3.2189   -2.3260   -2.4801 H   0  0  0  0  0  0  0  0  0  0  0  0
    1.6294    0.0173   -2.2506 H   0  0  0  0  0  0  0  0  0  0  0  0
    2.5166    1.2821   -1.3540 H   0  0  0  0  0  0  0  0  0  0  0  0
    3.7609   -0.1346   -3.3512 H   0  0  0  0  0  0  0  0  0  0  0  0
    4.6309    0.2991   -1.8682 H   0  0  0  0  0  0  0  0  0  0  0  0
    0.2344    0.8041   -0.7385 H   0  0  0  0  0  0  0  0  0  0  0  0
   -1.8394   -4.0617    1.2246 H   0  0  0  0  0  0  0  0  0  0  0  0
   -1.2886   -2.6073    2.0648 H   0  0  0  0  0  0  0  0  0  0  0  0
   -1.0364   -2.7839    0.3136 H   0  0  0  0  0  0  0  0  0  0  0  0
   -0.8901   -0.1422    1.8373 H   0  0  0  0  0  0  0  0  0  0  0  0
    0.6059    1.8374    2.1186 H   0  0  0  0  0  0  0  0  0  0  0  0
    1.8919    2.0409    0.9373 H   0  0  0  0  0  0  0  0  0  0  0  0
    6.1130   -2.2574    1.3453 H   0  0  0  0  0  0  0  0  0  0  0  0
    5.3199   -3.2151    0.1467 H   0  0  0  0  0  0  0  0  0  0  0  0
   -1.9166    2.5885    0.8080 H   0  0  0  0  0  0  0  0  0  0  0  0
    1.6300    4.5476   -0.2579 H   0  0  0  0  0  0  0  0  0  0  0  0
   -2.5346    4.8163   -0.2417 H   0  0  0  0  0  0  0  0  0  0  0  0
  1 19  2  0  0  0  0
  2 20  2  0  0  0  0
  3 21  2  0  0  0  0
  4 24  2  0  0  0  0
  5 14  1  0  0  0  0
  5 16  1  0  0  0  0
  5 21  1  0  0  0  0
  6 18  1  0  0  0  0
  6 20  1  0  0  0  0
  6 45  1  0  0  0  0
  7 24  1  0  0  0  0
  7 48  1  0  0  0  0
  7 49  1  0  0  0  0
  8 25  1  0  0  0  0
  8 27  1  0  0  0  0
  8 50  1  0  0  0  0
  9 26  1  0  0  0  0
  9 27  2  0  0  0  0
 10 11  1  0  0  0  0
 10 12  1  0  0  0  0
 10 20  1  0  0  0  0
 10 28  1  0  0  0  0
 11 13  1  0  0  0  0
 11 22  1  0  0  0  0
 11 29  1  0  0  0  0
 12 19  1  0  0  0  0
 12 30  1  0  0  0  0
 12 31  1  0  0  0  0
 13 19  1  0  0  0  0
 13 33  1  0  0  0  0
 13 34  1  0  0  0  0
 14 15  1  0  0  0  0
 14 24  1  0  0  0  0
 14 32  1  0  0  0  0
 15 17  1  0  0  0  0
 15 35  1  0  0  0  0
 15 36  1  0  0  0  0
 16 17  1  0  0  0  0
 16 37  1  0  0  0  0
 16 38  1  0  0  0  0
 17 39  1  0  0  0  0
 17 40  1  0  0  0  0
 18 21  1  0  0  0  0
 18 23  1  0  0  0  0
 18 41  1  0  0  0  0
 22 42  1  0  0  0  0
 22 43  1  0  0  0  0
 22 44  1  0  0  0  0
 23 25  1  0  0  0  0
 23 46  1  0  0  0  0
 23 47  1  0  0  0  0
 25 26  2  0  0  0  0
 26 51  1  0  0  0  0
 27 52  1  0  0  0  0
M  END
> <PUBCHEM_COMPOUND_CID>
127299

> <PUBCHEM_CONFORMER_RMSD>
1

> <PUBCHEM_CONFORMER_DIVERSEORDER>
1
130
74
89
97
167
114
157
26
172
101
127
125
168
180
173
102
72
119
171
116
92
134
24
149
141
58
81
163
33
151
169
106
162
110
143
47
90
153
155
105
22
115
187
14
166
178
77
160
51
124
129
49
100
164
66
190
133
121
107
170
3
150
95
103
54
60
186
136
23
165
146
67
123
122
137
39
152
2
144
158
59
83
20
69
38
57
139
73
184
62
120
32
84
50
19
7
132
25
126
135
80
118
52
128
108
12
147
159
154
71
161
91
68
148
113
61
96
94
17
44
48
175
140
176
64
42
156
183
131
181
56
138
76
99
9
55
34
188
82
86
70
43
16
179
40
31
88
13
41
93
85
18
8
142
53
111
87
5
177
112
78
46
104
63
21
30
79
145
36
10
27
109
117
75
65
28
37
189
98
174
11
45
35
182
185
191
29
15
6
4

> <PUBCHEM_MMFF94_PARTIAL_CHARGES>
29
1 -0.57
10 0.06
12 0.06
13 0.06
14 0.36
16 0.3
18 0.36
19 0.45
2 -0.57
20 0.57
21 0.57
23 0.18
24 0.57
25 -0.33
26 0.08
27 0.04
3 -0.57
4 -0.57
45 0.37
48 0.37
49 0.37
5 -0.66
50 0.27
51 0.15
52 0.15
6 -0.73
7 -0.8
8 0.03
9 -0.57

> <PUBCHEM_EFFECTIVE_ROTOR_COUNT>
9.8

> <PUBCHEM_PHARMACOPHORE_FEATURES>
11
1 1 acceptor
1 2 acceptor
1 3 acceptor
1 4 acceptor
1 6 donor
1 7 donor
1 8 donor
3 8 9 27 cation
5 10 11 12 13 19 rings
5 5 14 15 16 17 rings
5 8 9 25 26 27 rings

> <PUBCHEM_HEAVY_ATOM_COUNT>
27

> <PUBCHEM_ATOM_DEF_STEREO_COUNT>
4

> <PUBCHEM_ATOM_UDEF_STEREO_COUNT>
0

> <PUBCHEM_BOND_DEF_STEREO_COUNT>
0

> <PUBCHEM_BOND_UDEF_STEREO_COUNT>
0

> <PUBCHEM_ISOTOPIC_ATOM_COUNT>
0

> <PUBCHEM_COMPONENT_COUNT>
1

> <PUBCHEM_CACTVS_TAUTO_COUNT>
24

> <PUBCHEM_CONFORMER_ID>
0001F14300000001

> <PUBCHEM_MMFF94_ENERGY>
53.9877

> <PUBCHEM_FEATURE_SELFOVERLAP>
55.822

> <PUBCHEM_SHAPE_FINGERPRINT>
11070050 100 10953730106403753885
12160290 23 17908453288692908616
12363563 72 18342183283883317183
12553582 1 18339099149614798259
12788726 201 18263380100130242820
12892183 10 14117527523112617635
12977781 61 17413025388565041262
133893 2 17837801136745397393
13583140 156 17700680771822180398
13681431 1 18198351847174731385
13899415 180 18341599443477526071
14178342 30 18046626703548721842
14251757 5 18264786384403553909
17539 30 18267582407939449173
1813 80 18201442501408963847
20600515 1 18341891922023279795
21285901 2 17916318146906036919
21304303 282 17614816553659161508
2132832 1 18114186302938917684
21344244 181 17265546742626568013
21860390 5 18124594442482901556
23557571 272 18200593567322359768
23558518 356 17901674760784866058
23559900 14 18196078066441053331
23598288 3 17973185949156853552
23929065 36 18194098752121250280
255183 313 17982746168670049801
26353 1 18268732612976399933
3004659 81 18040997336889826730
3057174 1 17259349289201360069
3298306 158 17544769275088670060
376196 1 17253128240027563817
4017518 198 17409938363936810964
4066623 53 18188756332385897085
4280585 95 18340487858744198914
4409770 3 18120368749200130789
463206 1 18334290989414542371
633830 44 12757148025720178738
7164475 11 18265061241072817374
7471813 234 18334297556982877316
81228 2 18198923425701548408
9709674 26 18048873302167866643

> <PUBCHEM_SHAPE_MULTIPOLES>
507.27
9.53
5.5
1.54
0.78
10.06
0.54
-11.29
2.46
1.6
-0.17
-1.09
-0.73
-0.24

> <PUBCHEM_SHAPE_SELFOVERLAP>
1074.803

> <PUBCHEM_SHAPE_VOLUME>
286

> <PUBCHEM_COORDINATE_TYPE>
2
5
10

$$$$
