127396
  -OEChem-03292013323D

 57 59  0     0  0  0  0  0  0999 V2000
   -3.6185   -1.7682    0.6428 O   0  0  0  0  0  0  0  0  0  0  0  0
   -1.9948    2.6848    1.3598 O   0  0  0  0  0  0  0  0  0  0  0  0
   -1.0848   -3.3450   -1.0944 O   0  0  0  0  0  0  0  0  0  0  0  0
   -3.2671    4.5513   -0.0606 O   0  0  0  0  0  0  0  0  0  0  0  0
    4.5202   -1.0787    1.2557 O   0  0  0  0  0  0  0  0  0  0  0  0
    3.4829   -0.2136   -0.6525 N   0  0  0  0  0  0  0  0  0  0  0  0
    6.6419    0.7321    0.9707 N   0  0  0  0  0  0  0  0  0  0  0  0
    5.6653    1.5587   -0.8975 N   0  0  0  0  0  0  0  0  0  0  0  0
    7.3357    1.7161    0.3814 N   0  0  0  0  0  0  0  0  0  0  0  0
    6.7946    2.2356   -0.7293 N   0  0  0  0  0  0  0  0  0  0  0  0
   -2.0237   -0.0107    2.2129 C   0  0  0  0  0  0  0  0  0  0  0  0
   -2.7942    0.4593    1.0208 C   0  0  0  0  0  0  0  0  0  0  0  0
   -3.5604   -0.4460    0.2864 C   0  0  0  0  0  0  0  0  0  0  0  0
   -2.7464    1.8008    0.6418 C   0  0  0  0  0  0  0  0  0  0  0  0
   -2.4924    0.6627    3.5150 C   0  0  0  0  0  0  0  0  0  0  0  0
   -0.5061    0.1778    2.0403 C   0  0  0  0  0  0  0  0  0  0  0  0
   -3.4649    2.2370   -0.4714 C   0  0  0  0  0  0  0  0  0  0  0  0
   -4.2788   -0.0097   -0.8268 C   0  0  0  0  0  0  0  0  0  0  0  0
   -3.8196   -2.7065   -0.4056 C   0  0  0  0  0  0  0  0  0  0  0  0
   -4.2311    1.3318   -1.2057 C   0  0  0  0  0  0  0  0  0  0  0  0
   -3.1348   -4.0198   -0.0611 C   0  0  0  0  0  0  0  0  0  0  0  0
   -1.6346   -3.8508    0.1143 C   0  0  0  0  0  0  0  0  0  0  0  0
   -3.4294    3.6325   -0.8867 C   0  0  0  0  0  0  0  0  0  0  0  0
   -3.5924    3.9993   -2.3567 C   0  0  0  0  0  0  0  0  0  0  0  0
    0.0421   -2.5720   -0.9856 C   0  0  0  0  0  0  0  0  0  0  0  0
    0.9402   -2.7923    0.0587 C   0  0  0  0  0  0  0  0  0  0  0  0
    0.2910   -1.5660   -1.9191 C   0  0  0  0  0  0  0  0  0  0  0  0
    2.3361   -1.0003   -0.7639 C   0  0  0  0  0  0  0  0  0  0  0  0
    2.0873   -2.0065    0.1696 C   0  0  0  0  0  0  0  0  0  0  0  0
    1.4380   -0.7801   -1.8083 C   0  0  0  0  0  0  0  0  0  0  0  0
    4.4955   -0.2827    0.3214 C   0  0  0  0  0  0  0  0  0  0  0  0
    5.6034    0.6691    0.1336 C   0  0  0  0  0  0  0  0  0  0  0  0
   -2.1784   -1.0867    2.3572 H   0  0  0  0  0  0  0  0  0  0  0  0
   -2.2489    1.7274    3.5652 H   0  0  0  0  0  0  0  0  0  0  0  0
   -2.0134    0.1845    4.3770 H   0  0  0  0  0  0  0  0  0  0  0  0
   -3.5763    0.5590    3.6386 H   0  0  0  0  0  0  0  0  0  0  0  0
   -0.1927    1.2222    2.1281 H   0  0  0  0  0  0  0  0  0  0  0  0
    0.0334   -0.3837    2.8112 H   0  0  0  0  0  0  0  0  0  0  0  0
   -0.1779   -0.1868    1.0642 H   0  0  0  0  0  0  0  0  0  0  0  0
   -4.9168   -0.6708   -1.4056 H   0  0  0  0  0  0  0  0  0  0  0  0
   -4.8960   -2.8824   -0.5172 H   0  0  0  0  0  0  0  0  0  0  0  0
   -3.4217   -2.3541   -1.3658 H   0  0  0  0  0  0  0  0  0  0  0  0
   -3.3341   -4.7392   -0.8638 H   0  0  0  0  0  0  0  0  0  0  0  0
   -3.5533   -4.4235    0.8679 H   0  0  0  0  0  0  0  0  0  0  0  0
   -4.8180    1.6459   -2.0644 H   0  0  0  0  0  0  0  0  0  0  0  0
   -1.1830   -4.8258    0.3310 H   0  0  0  0  0  0  0  0  0  0  0  0
   -1.4559   -3.1811    0.9650 H   0  0  0  0  0  0  0  0  0  0  0  0
   -1.9678    3.5509    0.9243 H   0  0  0  0  0  0  0  0  0  0  0  0
   -3.0539    4.9313   -2.5530 H   0  0  0  0  0  0  0  0  0  0  0  0
   -3.1589    3.2290   -3.0003 H   0  0  0  0  0  0  0  0  0  0  0  0
   -4.6522    4.1358   -2.5853 H   0  0  0  0  0  0  0  0  0  0  0  0
    0.7969   -3.5831    0.7892 H   0  0  0  0  0  0  0  0  0  0  0  0
   -0.4065   -1.3893   -2.7333 H   0  0  0  0  0  0  0  0  0  0  0  0
    2.7329   -2.2452    1.0022 H   0  0  0  0  0  0  0  0  0  0  0  0
    1.6186    0.0011   -2.5422 H   0  0  0  0  0  0  0  0  0  0  0  0
    3.5955    0.4948   -1.3751 H   0  0  0  0  0  0  0  0  0  0  0  0
    8.2190    2.0480    0.7539 H   0  0  0  0  0  0  0  0  0  0  0  0
  1 13  1  0  0  0  0
  1 19  1  0  0  0  0
  2 14  1  0  0  0  0
  2 48  1  0  0  0  0
  3 22  1  0  0  0  0
  3 25  1  0  0  0  0
  4 23  2  0  0  0  0
  5 31  2  0  0  0  0
  6 28  1  0  0  0  0
  6 31  1  0  0  0  0
  6 56  1  0  0  0  0
  7  9  1  0  0  0  0
  7 32  2  0  0  0  0
  8 10  2  0  0  0  0
  8 32  1  0  0  0  0
  9 10  1  0  0  0  0
  9 57  1  0  0  0  0
 11 12  1  0  0  0  0
 11 15  1  0  0  0  0
 11 16  1  0  0  0  0
 11 33  1  0  0  0  0
 12 13  2  0  0  0  0
 12 14  1  0  0  0  0
 13 18  1  0  0  0  0
 14 17  2  0  0  0  0
 15 34  1  0  0  0  0
 15 35  1  0  0  0  0
 15 36  1  0  0  0  0
 16 37  1  0  0  0  0
 16 38  1  0  0  0  0
 16 39  1  0  0  0  0
 17 20  1  0  0  0  0
 17 23  1  0  0  0  0
 18 20  2  0  0  0  0
 18 40  1  0  0  0  0
 19 21  1  0  0  0  0
 19 41  1  0  0  0  0
 19 42  1  0  0  0  0
 20 45  1  0  0  0  0
 21 22  1  0  0  0  0
 21 43  1  0  0  0  0
 21 44  1  0  0  0  0
 22 46  1  0  0  0  0
 22 47  1  0  0  0  0
 23 24  1  0  0  0  0
 24 49  1  0  0  0  0
 24 50  1  0  0  0  0
 24 51  1  0  0  0  0
 25 26  2  0  0  0  0
 25 27  1  0  0  0  0
 26 29  1  0  0  0  0
 26 52  1  0  0  0  0
 27 30  2  0  0  0  0
 27 53  1  0  0  0  0
 28 29  2  0  0  0  0
 28 30  1  0  0  0  0
 29 54  1  0  0  0  0
 30 55  1  0  0  0  0
 31 32  1  0  0  0  0
M  END
> <PUBCHEM_COMPOUND_CID>
127396

> <PUBCHEM_CONFORMER_RMSD>
1

> <PUBCHEM_CONFORMER_DIVERSEORDER>
1
72
71
134
153
45
69
88
105
52
115
87
111
149
13
31
148
96
120
94
80
79
66
140
107
48
93
139
74
81
38
99
36
82
92
2
46
98
89
15
106
11
118
119
132
126
83
24
27
56
67
21
5
131
4
68
100
76
150
122
3
85
19
16
121
77
51
37
59
104
114
60
125
146
64
34
102
144
127
117
110
78
101
62
22
145
112
20
97
7
50
25
47
63
109
58
129
133
137
130
138
18
124
95
91
30
28
135
53
136
73
86
6
33
113
108
143
55
57
41
40
29
17
54
32
142
39
43
116
61
128
90
103
65
35
10
151
8
44
9
42
49
84
141
23
14
75
123
12
147
26
70
152

> <PUBCHEM_MMFF94_PARTIAL_CHARGES>
38
1 -0.36
10 -0.42
11 0.14
12 -0.14
13 0.08
14 0.08
17 0.09
18 -0.15
19 0.28
2 -0.53
20 -0.15
22 0.28
23 0.42
24 0.06
25 0.08
26 -0.15
27 -0.15
28 0.12
29 -0.15
3 -0.36
30 -0.15
31 0.72
32 0.43
4 -0.57
40 0.15
45 0.15
48 0.45
5 -0.57
52 0.15
53 0.15
54 0.15
55 0.15
56 0.37
57 0.27
6 -0.55
7 -0.71
8 -0.23
9 0.57

> <PUBCHEM_EFFECTIVE_ROTOR_COUNT>
11

> <PUBCHEM_PHARMACOPHORE_FEATURES>
11
1 1 acceptor
1 2 donor
1 3 acceptor
1 4 acceptor
1 5 acceptor
1 6 donor
3 11 15 16 hydrophobe
3 7 8 32 cation
5 7 8 9 10 32 rings
6 12 13 14 17 18 20 rings
6 25 26 27 28 29 30 rings

> <PUBCHEM_HEAVY_ATOM_COUNT>
32

> <PUBCHEM_ATOM_DEF_STEREO_COUNT>
0

> <PUBCHEM_ATOM_UDEF_STEREO_COUNT>
0

> <PUBCHEM_BOND_DEF_STEREO_COUNT>
0

> <PUBCHEM_BOND_UDEF_STEREO_COUNT>
0

> <PUBCHEM_ISOTOPIC_ATOM_COUNT>
0

> <PUBCHEM_COMPONENT_COUNT>
1

> <PUBCHEM_CACTVS_TAUTO_COUNT>
63

> <PUBCHEM_CONFORMER_ID>
0001F1A400000001

> <PUBCHEM_MMFF94_ENERGY>
95.8753

> <PUBCHEM_FEATURE_SELFOVERLAP>
55.821

> <PUBCHEM_SHAPE_FINGERPRINT>
10032420 55 17985515963172126509
100830 39 18411981408128944868
10554248 39 14692022427300974252
10816530 23 18119240671412170061
11370993 70 18122058702982885223
11434127 23 17775294841663144820
12107183 9 18117544138467889458
12156800 1 17102504836521115455
13560911 43 18190737733468182706
13911987 19 17489582359902180967
13947920 24 18343863333550432963
13994607 96 18059851787862537487
14251764 30 10159683712409013828
14468879 13 17899994737730540203
15463212 79 18260545593967723499
15513586 35 17983574401489124480
16992787 43 18341608184733291357
19309040 13 16485591818327701921
20511986 3 17604134952676515561
21033648 144 18272380749934806926
22956985 138 16752969264853849627
24771293 8 18200888352925479899
3117164 225 18191296088366643282
376196 1 17827640245171979971
4616759 239 17610329812669582066
469060 322 18120962704670467523
550186 7 18201167649567814630
57527585 21 16773235072608033091
9981440 41 18190182295940154123

> <PUBCHEM_SHAPE_MULTIPOLES>
604.29
13.53
5.37
2.16
31.62
0.45
1.29
11.48
-0.35
-6.67
-2.2
-1.78
0.89
0.99

> <PUBCHEM_SHAPE_SELFOVERLAP>
1287.286

> <PUBCHEM_SHAPE_VOLUME>
336.3

> <PUBCHEM_COORDINATE_TYPE>
2
5
10

$$$$
