127332
  -OEChem-03292013323D

 65 67  0     1  0  0  0  0  0999 V2000
    2.7863    3.7931    0.6136 S   0  0  0  0  0  0  0  0  0  0  0  0
   -3.5229    1.2811    1.8385 O   0  0  0  0  0  0  0  0  0  0  0  0
   -0.7094    2.2848   -0.5422 O   0  0  0  0  0  0  0  0  0  0  0  0
    3.4593    3.6017    1.8842 O   0  0  0  0  0  0  0  0  0  0  0  0
    3.1002    4.9432   -0.2125 O   0  0  0  0  0  0  0  0  0  0  0  0
   -4.2925    0.6359   -0.2566 N   0  0  0  0  0  0  0  0  0  0  0  0
   -1.0803    0.7806    1.1918 N   0  0  0  0  0  0  0  0  0  0  0  0
    1.1006    3.7212    0.8551 N   0  0  0  0  0  0  0  0  0  0  0  0
    2.9793   -5.1268   -0.7772 N   0  0  0  0  0  0  0  0  0  0  0  0
    3.6996   -4.3081    1.2896 N   0  0  0  0  0  0  0  0  0  0  0  0
   -5.5791    1.3182   -0.1011 C   0  0  0  0  0  0  0  0  0  0  0  0
   -4.0997   -0.0252   -1.5534 C   0  0  0  0  0  0  0  0  0  0  0  0
   -6.7392    0.3588   -0.3517 C   0  0  0  0  0  0  0  0  0  0  0  0
   -5.2328   -1.0103   -1.8329 C   0  0  0  0  0  0  0  0  0  0  0  0
   -6.5985   -0.3373   -1.7045 C   0  0  0  0  0  0  0  0  0  0  0  0
   -2.0534   -0.0436    0.5351 C   0  0  2  0  0  0  0  0  0  0  0  0
   -3.3514    0.6864    0.7713 C   0  0  0  0  0  0  0  0  0  0  0  0
   -2.1319   -1.4538    1.1049 C   0  0  0  0  0  0  0  0  0  0  0  0
   -0.8453   -2.2180    0.9103 C   0  0  0  0  0  0  0  0  0  0  0  0
   -0.4797    1.8889    0.5975 C   0  0  0  0  0  0  0  0  0  0  0  0
    0.1374   -2.1554    1.8859 C   0  0  0  0  0  0  0  0  0  0  0  0
   -0.6685   -2.9686   -0.2415 C   0  0  0  0  0  0  0  0  0  0  0  0
    0.4986    2.5603    1.5272 C   0  0  0  0  0  0  0  0  0  0  0  0
    1.3269   -2.8611    1.7052 C   0  0  0  0  0  0  0  0  0  0  0  0
    0.5211   -3.6744   -0.4223 C   0  0  0  0  0  0  0  0  0  0  0  0
    1.5187   -3.6206    0.5509 C   0  0  0  0  0  0  0  0  0  0  0  0
    3.0696    2.3556   -0.3753 C   0  0  0  0  0  0  0  0  0  0  0  0
    2.7583   -4.3578    0.3638 C   0  0  0  0  0  0  0  0  0  0  0  0
    3.0067    2.4604   -1.7540 C   0  0  0  0  0  0  0  0  0  0  0  0
    3.3495    1.1517    0.2476 C   0  0  0  0  0  0  0  0  0  0  0  0
    3.5139    0.1044   -1.9234 C   0  0  0  0  0  0  0  0  0  0  0  0
    3.2306    1.3259   -2.5342 C   0  0  0  0  0  0  0  0  0  0  0  0
    3.5735    0.0172   -0.5324 C   0  0  0  0  0  0  0  0  0  0  0  0
    3.7548   -1.1083   -2.7572 C   0  0  0  0  0  0  0  0  0  0  0  0
   -5.6709    1.7552    0.8982 H   0  0  0  0  0  0  0  0  0  0  0  0
   -5.6005    2.1432   -0.8229 H   0  0  0  0  0  0  0  0  0  0  0  0
   -4.0790    0.7613   -2.3170 H   0  0  0  0  0  0  0  0  0  0  0  0
   -3.1654   -0.5762   -1.6310 H   0  0  0  0  0  0  0  0  0  0  0  0
   -6.7623   -0.3992    0.4412 H   0  0  0  0  0  0  0  0  0  0  0  0
   -7.6893    0.9026   -0.3090 H   0  0  0  0  0  0  0  0  0  0  0  0
   -5.1747   -1.8433   -1.1210 H   0  0  0  0  0  0  0  0  0  0  0  0
   -5.1203   -1.4332   -2.8373 H   0  0  0  0  0  0  0  0  0  0  0  0
   -6.7213    0.3980   -2.5091 H   0  0  0  0  0  0  0  0  0  0  0  0
   -7.3931   -1.0820   -1.8242 H   0  0  0  0  0  0  0  0  0  0  0  0
   -1.7539   -0.0497   -0.5125 H   0  0  0  0  0  0  0  0  0  0  0  0
   -2.9574   -2.0067    0.6372 H   0  0  0  0  0  0  0  0  0  0  0  0
   -2.3781   -1.4273    2.1756 H   0  0  0  0  0  0  0  0  0  0  0  0
   -0.8756    0.5890    2.1687 H   0  0  0  0  0  0  0  0  0  0  0  0
   -0.0021   -1.5711    2.7909 H   0  0  0  0  0  0  0  0  0  0  0  0
   -1.4392   -3.0134   -1.0058 H   0  0  0  0  0  0  0  0  0  0  0  0
    1.2384    1.8429    1.8854 H   0  0  0  0  0  0  0  0  0  0  0  0
   -0.0536    2.9279    2.3993 H   0  0  0  0  0  0  0  0  0  0  0  0
    2.0831   -2.7974    2.4828 H   0  0  0  0  0  0  0  0  0  0  0  0
    0.6189   -4.2476   -1.3376 H   0  0  0  0  0  0  0  0  0  0  0  0
    0.4733    4.3682    0.3630 H   0  0  0  0  0  0  0  0  0  0  0  0
    2.7797    3.3999   -2.2481 H   0  0  0  0  0  0  0  0  0  0  0  0
    3.4064    1.0617    1.3278 H   0  0  0  0  0  0  0  0  0  0  0  0
    3.1814    1.4066   -3.6169 H   0  0  0  0  0  0  0  0  0  0  0  0
    3.7962   -0.9285   -0.0452 H   0  0  0  0  0  0  0  0  0  0  0  0
    2.3132   -5.2184   -1.5340 H   0  0  0  0  0  0  0  0  0  0  0  0
    3.8505   -5.6351   -0.8892 H   0  0  0  0  0  0  0  0  0  0  0  0
    3.2077   -1.0530   -3.7045 H   0  0  0  0  0  0  0  0  0  0  0  0
    3.4135   -2.0135   -2.2434 H   0  0  0  0  0  0  0  0  0  0  0  0
    4.8227   -1.2091   -2.9745 H   0  0  0  0  0  0  0  0  0  0  0  0
    4.4874   -4.8877    0.9792 H   0  0  0  0  0  0  0  0  0  0  0  0
  1  4  2  0  0  0  0
  1  5  2  0  0  0  0
  1  8  1  0  0  0  0
  1 27  1  0  0  0  0
  2 17  2  0  0  0  0
  3 20  2  0  0  0  0
  6 11  1  0  0  0  0
  6 12  1  0  0  0  0
  6 17  1  0  0  0  0
  7 16  1  0  0  0  0
  7 20  1  0  0  0  0
  7 48  1  0  0  0  0
  8 23  1  0  0  0  0
  8 55  1  0  0  0  0
  9 28  1  0  0  0  0
  9 60  1  0  0  0  0
  9 61  1  0  0  0  0
 10 28  2  0  0  0  0
 10 65  1  0  0  0  0
 11 13  1  0  0  0  0
 11 35  1  0  0  0  0
 11 36  1  0  0  0  0
 12 14  1  0  0  0  0
 12 37  1  0  0  0  0
 12 38  1  0  0  0  0
 13 15  1  0  0  0  0
 13 39  1  0  0  0  0
 13 40  1  0  0  0  0
 14 15  1  0  0  0  0
 14 41  1  0  0  0  0
 14 42  1  0  0  0  0
 15 43  1  0  0  0  0
 15 44  1  0  0  0  0
 16 17  1  0  0  0  0
 16 18  1  0  0  0  0
 16 45  1  0  0  0  0
 18 19  1  0  0  0  0
 18 46  1  0  0  0  0
 18 47  1  0  0  0  0
 19 21  2  0  0  0  0
 19 22  1  0  0  0  0
 20 23  1  0  0  0  0
 21 24  1  0  0  0  0
 21 49  1  0  0  0  0
 22 25  2  0  0  0  0
 22 50  1  0  0  0  0
 23 51  1  0  0  0  0
 23 52  1  0  0  0  0
 24 26  2  0  0  0  0
 24 53  1  0  0  0  0
 25 26  1  0  0  0  0
 25 54  1  0  0  0  0
 26 28  1  0  0  0  0
 27 29  2  0  0  0  0
 27 30  1  0  0  0  0
 29 32  1  0  0  0  0
 29 56  1  0  0  0  0
 30 33  2  0  0  0  0
 30 57  1  0  0  0  0
 31 32  2  0  0  0  0
 31 33  1  0  0  0  0
 31 34  1  0  0  0  0
 32 58  1  0  0  0  0
 33 59  1  0  0  0  0
 34 62  1  0  0  0  0
 34 63  1  0  0  0  0
 34 64  1  0  0  0  0
M  END
> <PUBCHEM_COMPOUND_CID>
127332

> <PUBCHEM_CONFORMER_RMSD>
1.2

> <PUBCHEM_CONFORMER_DIVERSEORDER>
1
56
102
119
3
29
96
67
83
86
69
120
95
106
71
73
39
5
128
85
113
91
47
8
41
94
25
129
105
88
27
63
76
77
98
11
65
37
101
16
36
124
81
54
7
9
111
100
78
116
43
97
46
108
74
22
34
10
125
62
75
123
60
99
109
70
42
121
13
118
38
103
15
57
84
93
114
80
89
110
68
14
59
92
126
51
35
55
32
40
90
117
50
87
21
48
104
115
44
26
45
24
82
49
58
61
19
33
72
127
112
12
122
107
52
23
79
20
4
53
66
31
17
30
64
18
6
28
2

> <PUBCHEM_MMFF94_PARTIAL_CHARGES>
44
1 1.45
10 -0.85
11 0.3
12 0.3
16 0.36
17 0.57
18 0.14
19 -0.14
2 -0.57
20 0.57
21 -0.15
22 -0.15
23 0.42
24 -0.15
25 -0.15
26 0.09
27 -0.01
28 0.41
29 -0.15
3 -0.57
30 -0.15
31 -0.14
32 -0.15
33 -0.15
34 0.14
4 -0.65
48 0.37
49 0.15
5 -0.65
50 0.15
53 0.15
54 0.15
55 0.42
56 0.15
57 0.15
58 0.15
59 0.15
6 -0.66
60 0.4
61 0.4
65 0.4
7 -0.73
8 -0.91
9 -0.85

> <PUBCHEM_EFFECTIVE_ROTOR_COUNT>
12.2

> <PUBCHEM_PHARMACOPHORE_FEATURES>
12
1 10 donor
1 2 acceptor
1 3 acceptor
1 4 acceptor
1 5 acceptor
1 7 donor
1 8 donor
1 9 donor
3 9 10 28 cation
6 19 21 22 24 25 26 rings
6 27 29 30 31 32 33 rings
6 6 11 12 13 14 15 rings

> <PUBCHEM_HEAVY_ATOM_COUNT>
34

> <PUBCHEM_ATOM_DEF_STEREO_COUNT>
1

> <PUBCHEM_ATOM_UDEF_STEREO_COUNT>
0

> <PUBCHEM_BOND_DEF_STEREO_COUNT>
0

> <PUBCHEM_BOND_UDEF_STEREO_COUNT>
0

> <PUBCHEM_ISOTOPIC_ATOM_COUNT>
0

> <PUBCHEM_COMPONENT_COUNT>
1

> <PUBCHEM_CACTVS_TAUTO_COUNT>
2

> <PUBCHEM_CONFORMER_ID>
0001F16400000001

> <PUBCHEM_MMFF94_ENERGY>
70.4018

> <PUBCHEM_FEATURE_SELFOVERLAP>
60.958

> <PUBCHEM_SHAPE_FINGERPRINT>
10675989 125 18411982494144702657
11014199 57 17762621685725429642
11093857 51 17968394423675431358
11513181 2 17405724579753840534
12156800 1 15765514197434388014
14040221 126 17699274771223434623
14068700 675 17977377240121588474
15775530 1 16759991820535967033
16993438 75 17263556008031000284
19026451 147 18266739082384041886
20775438 99 17916013740909055070
20775530 9 17829060809947630346
3298306 158 18334862748740493459
3388396 114 18122930658880082550
354706 35 18193561300745671700
4017518 198 18268981172056905776
4371632 12 18268998755267666281
4403749 210 17121412248958384968
45266715 3 18342173427138815636
463206 1 18338242539851839410
508706 21 17404879527736565180
513532 50 18059572447880361014
6669772 16 18269265940682493429

> <PUBCHEM_SHAPE_MULTIPOLES>
655.17
11.4
6.8
2.22
20.9
3.85
-0.91
-3.78
-6.35
-11.18
2.18
-1.03
-0.08
-0.39

> <PUBCHEM_SHAPE_SELFOVERLAP>
1364.386

> <PUBCHEM_SHAPE_VOLUME>
371.1

> <PUBCHEM_COORDINATE_TYPE>
2
5
10

$$$$
