127384
  -OEChem-03292013323D

 46 47  0     1  0  0  0  0  0999 V2000
   -1.5195   -0.6873   -1.5848 O   0  0  0  0  0  0  0  0  0  0  0  0
    1.3426    1.4551   -1.4198 O   0  0  0  0  0  0  0  0  0  0  0  0
    0.2462   -1.9387   -1.0246 O   0  0  0  0  0  0  0  0  0  0  0  0
   -0.3042    2.4058   -0.2446 O   0  0  0  0  0  0  0  0  0  0  0  0
   -4.7796   -1.1042   -0.3634 O   0  0  0  0  0  0  0  0  0  0  0  0
    4.4700   -1.4926    0.7722 O   0  0  0  0  0  0  0  0  0  0  0  0
   -1.7029    0.3940    1.0080 N   0  0  0  0  0  0  0  0  0  0  0  0
    1.8510   -0.4198    0.6177 N   0  0  0  0  0  0  0  0  0  0  0  0
   -0.5509   -0.4514    0.6890 C   0  0  1  0  0  0  0  0  0  0  0  0
    0.6865    0.4566    0.7566 C   0  0  1  0  0  0  0  0  0  0  0  0
   -2.8980    0.2504    0.1902 C   0  0  1  0  0  0  0  0  0  0  0  0
    2.9272    0.0148   -0.2602 C   0  0  2  0  0  0  0  0  0  0  0  0
   -0.4231   -1.5606    1.7471 C   0  0  0  0  0  0  0  0  0  0  0  0
    0.7304    1.1506    2.1286 C   0  0  0  0  0  0  0  0  0  0  0  0
   -0.5791   -1.0845   -0.6986 C   0  0  0  0  0  0  0  0  0  0  0  0
    0.5395    1.5130   -0.3340 C   0  0  0  0  0  0  0  0  0  0  0  0
   -2.4388    0.3594   -1.2545 C   0  0  0  0  0  0  0  0  0  0  0  0
    2.2740    0.3799   -1.5830 C   0  0  0  0  0  0  0  0  0  0  0  0
   -3.6427   -1.0640    0.4705 C   0  0  0  0  0  0  0  0  0  0  0  0
    3.8690   -1.1817   -0.4685 C   0  0  0  0  0  0  0  0  0  0  0  0
   -3.8310    1.4261    0.5203 C   0  0  0  0  0  0  0  0  0  0  0  0
    3.7334    1.1789    0.3359 C   0  0  0  0  0  0  0  0  0  0  0  0
   -1.9386    0.3389    1.9981 H   0  0  0  0  0  0  0  0  0  0  0  0
    2.2205   -0.6922    1.5277 H   0  0  0  0  0  0  0  0  0  0  0  0
    0.4556   -2.2009    1.6138 H   0  0  0  0  0  0  0  0  0  0  0  0
   -0.4181   -1.1886    2.7762 H   0  0  0  0  0  0  0  0  0  0  0  0
   -1.2789   -2.2438    1.6830 H   0  0  0  0  0  0  0  0  0  0  0  0
   -0.1426    1.7788    2.3362 H   0  0  0  0  0  0  0  0  0  0  0  0
    0.8589    0.4602    2.9678 H   0  0  0  0  0  0  0  0  0  0  0  0
    1.5862    1.8361    2.1740 H   0  0  0  0  0  0  0  0  0  0  0  0
   -3.2902    0.2485   -1.9365 H   0  0  0  0  0  0  0  0  0  0  0  0
   -1.9909    1.3225   -1.5122 H   0  0  0  0  0  0  0  0  0  0  0  0
    3.0381    0.7403   -2.2828 H   0  0  0  0  0  0  0  0  0  0  0  0
    1.7790   -0.4524   -2.0899 H   0  0  0  0  0  0  0  0  0  0  0  0
   -3.9688   -1.1219    1.5152 H   0  0  0  0  0  0  0  0  0  0  0  0
   -3.0375   -1.9478    0.2513 H   0  0  0  0  0  0  0  0  0  0  0  0
    4.6594   -0.9407   -1.1884 H   0  0  0  0  0  0  0  0  0  0  0  0
    3.3312   -2.0649   -0.8330 H   0  0  0  0  0  0  0  0  0  0  0  0
   -4.1819    1.3806    1.5582 H   0  0  0  0  0  0  0  0  0  0  0  0
   -3.3213    2.3886    0.3884 H   0  0  0  0  0  0  0  0  0  0  0  0
   -4.7124    1.4412   -0.1307 H   0  0  0  0  0  0  0  0  0  0  0  0
    4.0967    0.9524    1.3448 H   0  0  0  0  0  0  0  0  0  0  0  0
    4.6067    1.4047   -0.2872 H   0  0  0  0  0  0  0  0  0  0  0  0
    3.1487    2.1017    0.4057 H   0  0  0  0  0  0  0  0  0  0  0  0
   -5.2501   -1.9331   -0.1710 H   0  0  0  0  0  0  0  0  0  0  0  0
    5.0658   -2.2463    0.6224 H   0  0  0  0  0  0  0  0  0  0  0  0
  1 15  1  0  0  0  0
  1 17  1  0  0  0  0
  2 16  1  0  0  0  0
  2 18  1  0  0  0  0
  3 15  2  0  0  0  0
  4 16  2  0  0  0  0
  5 19  1  0  0  0  0
  5 45  1  0  0  0  0
  6 20  1  0  0  0  0
  6 46  1  0  0  0  0
  7  9  1  0  0  0  0
  7 11  1  0  0  0  0
  7 23  1  0  0  0  0
  8 10  1  0  0  0  0
  8 12  1  0  0  0  0
  8 24  1  0  0  0  0
  9 10  1  0  0  0  0
  9 13  1  0  0  0  0
  9 15  1  0  0  0  0
 10 14  1  0  0  0  0
 10 16  1  0  0  0  0
 11 17  1  0  0  0  0
 11 19  1  0  0  0  0
 11 21  1  0  0  0  0
 12 18  1  0  0  0  0
 12 20  1  0  0  0  0
 12 22  1  0  0  0  0
 13 25  1  0  0  0  0
 13 26  1  0  0  0  0
 13 27  1  0  0  0  0
 14 28  1  0  0  0  0
 14 29  1  0  0  0  0
 14 30  1  0  0  0  0
 17 31  1  0  0  0  0
 17 32  1  0  0  0  0
 18 33  1  0  0  0  0
 18 34  1  0  0  0  0
 19 35  1  0  0  0  0
 19 36  1  0  0  0  0
 20 37  1  0  0  0  0
 20 38  1  0  0  0  0
 21 39  1  0  0  0  0
 21 40  1  0  0  0  0
 21 41  1  0  0  0  0
 22 42  1  0  0  0  0
 22 43  1  0  0  0  0
 22 44  1  0  0  0  0
M  END
> <PUBCHEM_COMPOUND_CID>
127384

> <PUBCHEM_CONFORMER_RMSD>
0.8

> <PUBCHEM_CONFORMER_DIVERSEORDER>
4
137
91
11
111
146
150
92
114
102
22
45
53
148
98
27
40
136
99
131
117
104
121
122
2
110
12
10
49
103
52
25
107
30
47
3
120
127
105
33
55
57
83
116
118
24
20
135
63
29
149
77
1
48
100
65
142
151
69
28
17
90
152
38
147
14
7
51
124
143
126
8
130
113
155
59
39
144
79
36
84
61
125
81
138
156
140
112
72
93
133
58
60
70
89
71
19
15
153
88
73
75
66
115
95
5
34
6
85
56
31
21
97
82
119
76
141
44
26
50
35
32
128
134
68
16
9
109
67
154
132
78
23
13
74
18
86
64
101
96
37
43
106
41
62
129
108
80
139
42
123
87
145
46
54
94

> <PUBCHEM_MMFF94_PARTIAL_CHARGES>
22
1 -0.43
10 0.33
11 0.27
12 0.27
15 0.66
16 0.66
17 0.28
18 0.28
19 0.28
2 -0.43
20 0.28
23 0.36
24 0.36
3 -0.57
4 -0.57
45 0.4
46 0.4
5 -0.68
6 -0.68
7 -0.9
8 -0.9
9 0.33

> <PUBCHEM_EFFECTIVE_ROTOR_COUNT>
5

> <PUBCHEM_PHARMACOPHORE_FEATURES>
12
1 3 acceptor
1 4 acceptor
1 5 acceptor
1 5 donor
1 6 acceptor
1 6 donor
1 7 cation
1 7 donor
1 8 cation
1 8 donor
6 1 7 9 11 15 17 rings
6 2 8 10 12 16 18 rings

> <PUBCHEM_HEAVY_ATOM_COUNT>
22

> <PUBCHEM_ATOM_DEF_STEREO_COUNT>
0

> <PUBCHEM_ATOM_UDEF_STEREO_COUNT>
4

> <PUBCHEM_BOND_DEF_STEREO_COUNT>
0

> <PUBCHEM_BOND_UDEF_STEREO_COUNT>
0

> <PUBCHEM_ISOTOPIC_ATOM_COUNT>
0

> <PUBCHEM_COMPONENT_COUNT>
1

> <PUBCHEM_CACTVS_TAUTO_COUNT>
1

> <PUBCHEM_CONFORMER_ID>
0001F19800000004

> <PUBCHEM_MMFF94_ENERGY>
74.7229

> <PUBCHEM_FEATURE_SELFOVERLAP>
60.9

> <PUBCHEM_SHAPE_FINGERPRINT>
10062212 137 18412826863392532179
10863032 1 17896619451000988660
10948715 1 18201157762325933144
11578080 2 18199164266177957056
12011746 2 15502369024272357671
12592029 89 18131359591721706743
12654903 92 18338801216201908052
12808571 1 18186525418807624221
13132413 78 17632295653135246905
13581323 91 17418379120589825013
13675066 3 17988924448648642926
15309172 13 17167579401760839339
15848702 151 18261394416543387551
16945 1 18268714922048019636
18186145 218 17749107777149527444
19422 9 18334019401673059901
19784866 9 18199755751982958019
23402539 116 18261108526545641638
23419403 2 15600541415413100861
23559900 14 18334579045261234104
296302 2 11815896755945288767
3286 77 18409729607893318493
465052 167 18266750254374577007
633830 44 16081093670800750071
81228 2 16557370179409138784
9981440 41 17330544857396351777

> <PUBCHEM_SHAPE_MULTIPOLES>
407.57
6.92
1.86
1.58
0.62
0.2
-0.2
-1.45
0.15
-0.15
-0.04
-0.17
0.01
-0.21

> <PUBCHEM_SHAPE_SELFOVERLAP>
858.663

> <PUBCHEM_SHAPE_VOLUME>
225.1

> <PUBCHEM_COORDINATE_TYPE>
2
5
10

$$$$
