127383
  -OEChem-03292013323D

 38 38  0     1  0  0  0  0  0999 V2000
    1.6349    1.1694    1.7239 O   0  0  0  0  0  0  0  0  0  0  0  0
   -1.1347   -1.3940   -0.6510 O   0  0  0  0  0  0  0  0  0  0  0  0
   -5.5063    1.7866    0.2525 O   0  0  0  0  0  0  0  0  0  0  0  0
   -6.4187    0.4047   -1.2965 O   0  0  0  0  0  0  0  0  0  0  0  0
    7.1876   -0.3577   -0.6712 O   0  0  0  0  0  0  0  0  0  0  0  0
   -0.4889    0.7855   -0.1735 N   0  0  0  0  0  0  0  0  0  0  0  0
   -6.1123   -1.6992    0.4576 N   0  0  0  0  0  0  0  0  0  0  0  0
   -3.8078   -0.9648    0.0759 C   0  0  0  0  0  0  0  0  0  0  0  0
    1.7378    0.2065    0.6757 C   0  0  1  0  0  0  0  0  0  0  0  0
   -2.7888    0.1728    0.1686 C   0  0  0  0  0  0  0  0  0  0  0  0
    0.9031    0.6456   -0.5335 C   0  0  0  0  0  0  0  0  0  0  0  0
   -5.1982   -0.5610    0.5792 C   0  0  1  0  0  0  0  0  0  0  0  0
    3.1992    0.0550    0.3147 C   0  0  0  0  0  0  0  0  0  0  0  0
   -1.3979   -0.2585   -0.2645 C   0  0  0  0  0  0  0  0  0  0  0  0
    3.8223   -1.1645    0.5157 C   0  0  0  0  0  0  0  0  0  0  0  0
    3.8816    1.1395   -0.2089 C   0  0  0  0  0  0  0  0  0  0  0  0
   -5.7846    0.5596   -0.2603 C   0  0  0  0  0  0  0  0  0  0  0  0
    5.1696   -1.3038    0.1829 C   0  0  0  0  0  0  0  0  0  0  0  0
    5.2290    1.0001   -0.5417 C   0  0  0  0  0  0  0  0  0  0  0  0
    5.8730   -0.2216   -0.3457 C   0  0  0  0  0  0  0  0  0  0  0  0
   -3.4445   -1.8224    0.6577 H   0  0  0  0  0  0  0  0  0  0  0  0
   -3.8652   -1.2996   -0.9690 H   0  0  0  0  0  0  0  0  0  0  0  0
    1.3442   -0.7376    1.0723 H   0  0  0  0  0  0  0  0  0  0  0  0
   -2.7289    0.5388    1.2004 H   0  0  0  0  0  0  0  0  0  0  0  0
   -3.0853    1.0086   -0.4749 H   0  0  0  0  0  0  0  0  0  0  0  0
    1.2085    1.6308   -0.9009 H   0  0  0  0  0  0  0  0  0  0  0  0
    0.9959   -0.0741   -1.3547 H   0  0  0  0  0  0  0  0  0  0  0  0
   -5.1695   -0.2488    1.6286 H   0  0  0  0  0  0  0  0  0  0  0  0
   -0.8040    1.6908    0.1633 H   0  0  0  0  0  0  0  0  0  0  0  0
    3.2851   -2.0143    0.9264 H   0  0  0  0  0  0  0  0  0  0  0  0
    3.4012    2.1019   -0.3562 H   0  0  0  0  0  0  0  0  0  0  0  0
   -5.7653   -2.4742    1.0221 H   0  0  0  0  0  0  0  0  0  0  0  0
   -6.1182   -2.0384   -0.5042 H   0  0  0  0  0  0  0  0  0  0  0  0
    0.6907    1.2710    1.9332 H   0  0  0  0  0  0  0  0  0  0  0  0
    5.6598   -2.2610    0.3402 H   0  0  0  0  0  0  0  0  0  0  0  0
    5.7725    1.8475   -0.9506 H   0  0  0  0  0  0  0  0  0  0  0  0
   -5.8762    2.5066   -0.3015 H   0  0  0  0  0  0  0  0  0  0  0  0
    7.4693   -1.2668   -0.4704 H   0  0  0  0  0  0  0  0  0  0  0  0
  1  9  1  0  0  0  0
  1 34  1  0  0  0  0
  2 14  2  0  0  0  0
  3 17  1  0  0  0  0
  3 37  1  0  0  0  0
  4 17  2  0  0  0  0
  5 20  1  0  0  0  0
  5 38  1  0  0  0  0
  6 11  1  0  0  0  0
  6 14  1  0  0  0  0
  6 29  1  0  0  0  0
  7 12  1  0  0  0  0
  7 32  1  0  0  0  0
  7 33  1  0  0  0  0
  8 10  1  0  0  0  0
  8 12  1  0  0  0  0
  8 21  1  0  0  0  0
  8 22  1  0  0  0  0
  9 11  1  0  0  0  0
  9 13  1  0  0  0  0
  9 23  1  0  0  0  0
 10 14  1  0  0  0  0
 10 24  1  0  0  0  0
 10 25  1  0  0  0  0
 11 26  1  0  0  0  0
 11 27  1  0  0  0  0
 12 17  1  0  0  0  0
 12 28  1  0  0  0  0
 13 15  2  0  0  0  0
 13 16  1  0  0  0  0
 15 18  1  0  0  0  0
 15 30  1  0  0  0  0
 16 19  2  0  0  0  0
 16 31  1  0  0  0  0
 18 20  2  0  0  0  0
 18 35  1  0  0  0  0
 19 20  1  0  0  0  0
 19 36  1  0  0  0  0
M  END
> <PUBCHEM_COMPOUND_CID>
127383

> <PUBCHEM_CONFORMER_RMSD>
0.8

> <PUBCHEM_CONFORMER_DIVERSEORDER>
1
93
182
203
129
229
97
120
38
319
106
144
123
137
328
48
181
8
176
274
258
80
65
56
241
152
25
68
14
17
247
167
118
54
280
186
133
293
147
221
317
51
282
109
111
199
228
244
206
304
141
9
183
217
335
59
24
173
287
20
90
99
29
285
178
122
279
15
298
72
161
98
159
292
126
207
135
320
248
69
104
238
115
156
325
7
179
213
305
236
172
63
142
286
134
87
95
323
64
148
226
257
45
108
277
329
3
37
273
136
313
326
245
193
194
252
5
4
85
94
324
121
78
160
278
10
12
39
130
222
205
210
36
119
168
266
165
204
19
70
145
82
146
164
67
41
187
309
185
114
139
263
149
75
28
34
40
53
30
295
143
322
113
209
291
302
334
42
57
219
89
315
256
227
66
58
246
60
267
200
198
79
116
22
269
110
215
189
214
250
154
296
231
220
237
254
74
327
276
76
88
196
55
127
301
35
251
336
208
96
275
281
260
201
307
218
268
86
107
91
233
288
138
83
43
188
73
271
175
128
316
303
321
300
171
117
81
150
11
243
174
212
249
27
232
84
47
52
92
192
259
105
21
18
308
270
272
166
239
333
71
310
177
170
195
23
32
112
46
151
103
330
294
223
16
77
190
2
312
162
155
265
6
132
225
234
255
31
211
314
240
264
44
102
262
49
332
163
283
202
311
26
62
235
290
100
131
184
216
157
169
306
180
261
125
33
289
224
153
299
284
230
50
297
318
101
331
140
191
124
13
242
197
253
61
158

> <PUBCHEM_MMFF94_PARTIAL_CHARGES>
29
1 -0.68
10 0.06
11 0.3
12 0.33
13 -0.14
14 0.57
15 -0.15
16 -0.15
17 0.66
18 -0.15
19 -0.15
2 -0.57
20 0.08
29 0.37
3 -0.65
30 0.15
31 0.15
32 0.36
33 0.36
34 0.4
35 0.15
36 0.15
37 0.5
38 0.45
4 -0.57
5 -0.53
6 -0.73
7 -0.99
9 0.42

> <PUBCHEM_EFFECTIVE_ROTOR_COUNT>
8

> <PUBCHEM_PHARMACOPHORE_FEATURES>
11
1 1 acceptor
1 1 donor
1 2 acceptor
1 3 acceptor
1 4 acceptor
1 5 donor
1 6 donor
1 7 cation
1 7 donor
3 3 4 17 anion
6 13 15 16 18 19 20 rings

> <PUBCHEM_HEAVY_ATOM_COUNT>
20

> <PUBCHEM_ATOM_DEF_STEREO_COUNT>
1

> <PUBCHEM_ATOM_UDEF_STEREO_COUNT>
1

> <PUBCHEM_BOND_DEF_STEREO_COUNT>
0

> <PUBCHEM_BOND_UDEF_STEREO_COUNT>
0

> <PUBCHEM_ISOTOPIC_ATOM_COUNT>
0

> <PUBCHEM_COMPONENT_COUNT>
1

> <PUBCHEM_CACTVS_TAUTO_COUNT>
4

> <PUBCHEM_CONFORMER_ID>
0001F19700000001

> <PUBCHEM_MMFF94_ENERGY>
32.2823

> <PUBCHEM_FEATURE_SELFOVERLAP>
55.883

> <PUBCHEM_SHAPE_FINGERPRINT>
10066227 112 18186799188476265501
10299344 5 18260552220632535083
11315181 36 18334579053777445457
12091667 2 16515405166709873133
12107183 9 17615686237307376497
12166972 35 18130505336107248377
12236239 1 18260832609008822108
12516196 113 18334575758735845068
12616971 3 15554170380532853201
13533116 47 14045474302020674246
14123256 10 12973603339567267822
1420 363 11674876675879581185
14251752 14 18411980247707124536
14251764 18 12463566275674360890
14933364 13 18186803578006408813
15183329 4 18335700516328833385
17834072 33 18334295391765452433
17844677 252 18336553793392660777
18006028 8 17275105024961092280
19377110 9 12540685994743757629
19489759 90 14836408034316261251
20567600 75 18413109429259138527
20681677 155 17458344169231108795
21267235 1 18341338825547845726
220451 1 15719389542598636201
22224240 67 14261345848371881678
23035841 295 17458061569046708866
23402539 116 14261355752202475779
23536379 177 18334014981924839545
23559900 14 18339919423964885017
23622692 88 16988560216897729900
29717793 49 18202569467121875740
3004659 81 18410575076853859730
3014965 18 18338513045640422582
4073 2 17749397026328599178
4340502 62 9583520923530542936
4463277 17 18260267455847934804
465052 167 18131356327788739358
542803 24 17749105599806849713
59755656 215 18060423478042621286
6328613 192 18408888455375312309

> <PUBCHEM_SHAPE_MULTIPOLES>
372.28
19.16
1.42
0.93
7.97
0.11
0.14
1.35
-2.75
0.55
0.09
0.04
-0.14
0.13

> <PUBCHEM_SHAPE_SELFOVERLAP>
758.929

> <PUBCHEM_SHAPE_VOLUME>
214.3

> <PUBCHEM_COORDINATE_TYPE>
2
5
10

$$$$
