127447
  -OEChem-03292013323D

 32 35  0     1  0  0  0  0  0999 V2000
   -1.7220   -1.0144    0.6652 O   0  0  0  0  0  0  0  0  0  0  0  0
   -3.8829    1.5420   -0.6351 O   0  0  0  0  0  0  0  0  0  0  0  0
   -3.4147   -2.8593   -0.6307 O   0  0  0  0  0  0  0  0  0  0  0  0
    0.1993    0.3409    0.6329 N   0  0  0  0  0  0  0  0  0  0  0  0
    1.5854    1.7347   -0.3968 N   0  0  0  0  0  0  0  0  0  0  0  0
    1.5644   -1.6542    0.8044 N   0  0  0  0  0  0  0  0  0  0  0  0
    3.7593   -1.2662   -0.1931 N   0  0  0  0  0  0  0  0  0  0  0  0
    4.3805    0.8256   -1.1746 N   0  0  0  0  0  0  0  0  0  0  0  0
   -1.8808    1.3907    0.7193 C   0  0  2  0  0  0  0  0  0  0  0  0
   -1.1124    0.1497    1.2179 C   0  0  1  0  0  0  0  0  0  0  0  0
   -2.6767    0.8267   -0.4511 C   0  0  1  0  0  0  0  0  0  0  0  0
   -0.8095    2.4372    0.3007 C   0  0  0  0  0  0  0  0  0  0  0  0
   -2.9244   -0.6062   -0.0050 C   0  0  1  0  0  0  0  0  0  0  0  0
    0.3906    1.5916    0.1224 C   0  0  0  0  0  0  0  0  0  0  0  0
    1.3168   -0.3846    0.4538 C   0  0  0  0  0  0  0  0  0  0  0  0
   -3.2108   -1.5566   -1.1536 C   0  0  0  0  0  0  0  0  0  0  0  0
    2.1797    0.4991   -0.1958 C   0  0  0  0  0  0  0  0  0  0  0  0
    3.4422    0.0105   -0.5187 C   0  0  0  0  0  0  0  0  0  0  0  0
    2.8159   -2.0071    0.4381 C   0  0  0  0  0  0  0  0  0  0  0  0
   -2.5525    1.8010    1.4823 H   0  0  0  0  0  0  0  0  0  0  0  0
   -1.0090    0.0858    2.3050 H   0  0  0  0  0  0  0  0  0  0  0  0
   -2.0968    0.8619   -1.3814 H   0  0  0  0  0  0  0  0  0  0  0  0
   -0.6395    3.1536    1.1110 H   0  0  0  0  0  0  0  0  0  0  0  0
   -1.0853    2.9791   -0.6077 H   0  0  0  0  0  0  0  0  0  0  0  0
   -3.7423   -0.6608    0.7253 H   0  0  0  0  0  0  0  0  0  0  0  0
   -2.3694   -1.6073   -1.8525 H   0  0  0  0  0  0  0  0  0  0  0  0
   -4.1092   -1.2611   -1.7029 H   0  0  0  0  0  0  0  0  0  0  0  0
   -4.3822    1.0993   -1.3420 H   0  0  0  0  0  0  0  0  0  0  0  0
   -2.6117   -3.1076   -0.1413 H   0  0  0  0  0  0  0  0  0  0  0  0
    3.1072   -3.0232    0.6819 H   0  0  0  0  0  0  0  0  0  0  0  0
    5.2910    0.4480   -1.3992 H   0  0  0  0  0  0  0  0  0  0  0  0
    4.1469    1.7784   -1.4193 H   0  0  0  0  0  0  0  0  0  0  0  0
  1 10  1  0  0  0  0
  1 13  1  0  0  0  0
  2 11  1  0  0  0  0
  2 28  1  0  0  0  0
  3 16  1  0  0  0  0
  3 29  1  0  0  0  0
  4 10  1  0  0  0  0
  4 14  1  0  0  0  0
  4 15  1  0  0  0  0
  5 14  2  0  0  0  0
  5 17  1  0  0  0  0
  6 15  2  0  0  0  0
  6 19  1  0  0  0  0
  7 18  1  0  0  0  0
  7 19  2  0  0  0  0
  8 18  1  0  0  0  0
  8 31  1  0  0  0  0
  8 32  1  0  0  0  0
  9 10  1  0  0  0  0
  9 11  1  0  0  0  0
  9 12  1  0  0  0  0
  9 20  1  0  0  0  0
 10 21  1  0  0  0  0
 11 13  1  0  0  0  0
 11 22  1  0  0  0  0
 12 14  1  0  0  0  0
 12 23  1  0  0  0  0
 12 24  1  0  0  0  0
 13 16  1  0  0  0  0
 13 25  1  0  0  0  0
 15 17  1  0  0  0  0
 16 26  1  0  0  0  0
 16 27  1  0  0  0  0
 17 18  2  0  0  0  0
 19 30  1  0  0  0  0
M  END
> <PUBCHEM_COMPOUND_CID>
127447

> <PUBCHEM_CONFORMER_RMSD>
0.6

> <PUBCHEM_CONFORMER_DIVERSEORDER>
1
2

> <PUBCHEM_MMFF94_PARTIAL_CHARGES>
23
1 -0.56
10 0.54
11 0.28
12 0.18
13 0.28
14 0.01
15 0.11
16 0.28
17 0.23
18 0.41
19 0.47
2 -0.68
28 0.4
29 0.4
3 -0.68
30 0.15
31 0.4
32 0.4
4 0.05
5 -0.57
6 -0.57
7 -0.62
8 -0.9

> <PUBCHEM_EFFECTIVE_ROTOR_COUNT>
1.8

> <PUBCHEM_PHARMACOPHORE_FEATURES>
14
1 1 acceptor
1 2 acceptor
1 2 donor
1 3 acceptor
1 3 donor
1 8 cation
1 8 donor
3 4 5 14 cation
3 4 6 15 cation
3 6 7 19 cation
5 1 9 10 11 13 rings
5 4 5 14 15 17 rings
5 4 9 10 12 14 rings
6 6 7 15 17 18 19 rings

> <PUBCHEM_HEAVY_ATOM_COUNT>
19

> <PUBCHEM_ATOM_DEF_STEREO_COUNT>
4

> <PUBCHEM_ATOM_UDEF_STEREO_COUNT>
0

> <PUBCHEM_BOND_DEF_STEREO_COUNT>
0

> <PUBCHEM_BOND_UDEF_STEREO_COUNT>
0

> <PUBCHEM_ISOTOPIC_ATOM_COUNT>
0

> <PUBCHEM_COMPONENT_COUNT>
1

> <PUBCHEM_CACTVS_TAUTO_COUNT>
3

> <PUBCHEM_CONFORMER_ID>
0001F1D700000001

> <PUBCHEM_MMFF94_ENERGY>
56.0594

> <PUBCHEM_FEATURE_SELFOVERLAP>
72.384

> <PUBCHEM_SHAPE_FINGERPRINT>
10062212 137 18261668181979741314
10616163 171 18342459196935473470
10756046 5 18407757032134732743
11578080 2 17774427400055956817
11806522 49 18341331210069702384
12202030 40 16701469939978226462
12553582 1 18341327907208619075
12788726 201 17845093965776874617
14576447 43 18268427004647109222
14787075 74 17771058590907149080
14790565 3 18052545374478133553
15415430 112 18413393133017894479
16752209 62 18053086342746177121
16945 1 18336550430137888728
17349148 13 18040990748683502632
18186145 218 16226052158736406786
18981168 100 12685922603339115079
19862831 5 18187363194790765360
200 152 18408604743126263580
20291156 8 18271241728802576575
20871999 31 18410006659190903335
21267235 1 18263939738848768314
21501502 16 18264213504638737944
21634736 98 18197497531119318750
221490 88 18193559088995392395
22393880 68 18411140247046982076
23379529 103 17913782887820424390
23402539 116 18408040711157575516
23402655 69 18261957349322143132
23559900 14 18272079466832508808
2748010 2 17182227352994915409
2871803 45 18266733778415500799
3082319 5 18334857207826408599
34934 24 18409445852051876064
57096353 35 18334869337325671334
603831 33 18408606946402353374
633830 44 17095531656072494712
74978 22 18341891874916126921
90525 40 18125441912660838599
9709674 26 18336274461583551426

> <PUBCHEM_SHAPE_MULTIPOLES>
348.5
6.97
2.51
1
1.84
0.6
0.01
2.18
2.54
-1.28
0.17
-0.1
0.08
-0.96

> <PUBCHEM_SHAPE_SELFOVERLAP>
780.412

> <PUBCHEM_SHAPE_VOLUME>
181.7

> <PUBCHEM_COORDINATE_TYPE>
2
5
10

$$$$
