127485
  -OEChem-03292013323D

 46 50  0     0  0  0  0  0  0999 V2000
   -0.2999   -0.0018    2.3776 O   0  0  0  0  0  0  0  0  0  0  0  0
    2.3527    0.0016   -0.7171 O   0  0  0  0  0  0  0  0  0  0  0  0
   -2.1128   -0.0047    3.8169 O   0  0  0  0  0  0  0  0  0  0  0  0
    2.7895    4.7198   -0.4856 O   0  0  0  0  0  0  0  0  0  0  0  0
    2.7956   -4.7163   -0.4895 O   0  0  0  0  0  0  0  0  0  0  0  0
   -2.7755    0.0027   -3.4354 O   0  0  0  0  0  0  0  0  0  0  0  0
   -4.9690   -0.0006   -2.8396 O   0  0  0  0  0  0  0  0  0  0  0  0
   -0.0564   -0.0007    0.9351 C   0  0  0  0  0  0  0  0  0  0  0  0
    0.7117    1.2587    0.5860 C   0  0  0  0  0  0  0  0  0  0  0  0
    0.7134   -1.2587    0.5846 C   0  0  0  0  0  0  0  0  0  0  0  0
   -1.4503   -0.0011    0.3952 C   0  0  0  0  0  0  0  0  0  0  0  0
    1.8486    1.1817   -0.2266 C   0  0  0  0  0  0  0  0  0  0  0  0
    1.8504   -1.1796   -0.2275 C   0  0  0  0  0  0  0  0  0  0  0  0
   -2.3572   -0.0026    1.4395 C   0  0  0  0  0  0  0  0  0  0  0  0
   -1.6327   -0.0028    2.7011 C   0  0  0  0  0  0  0  0  0  0  0  0
   -1.8981   -0.0003   -0.9165 C   0  0  0  0  0  0  0  0  0  0  0  0
    0.2961    2.5254    1.0330 C   0  0  0  0  0  0  0  0  0  0  0  0
    0.2991   -2.5264    1.0299 C   0  0  0  0  0  0  0  0  0  0  0  0
    2.5464    2.3376   -0.5926 C   0  0  0  0  0  0  0  0  0  0  0  0
    2.5501   -2.3343   -0.5944 C   0  0  0  0  0  0  0  0  0  0  0  0
   -3.7255   -0.0031    1.2418 C   0  0  0  0  0  0  0  0  0  0  0  0
   -3.2768   -0.0008   -1.1483 C   0  0  0  0  0  0  0  0  0  0  0  0
    0.9965    3.6782    0.6734 C   0  0  0  0  0  0  0  0  0  0  0  0
    1.0012   -3.6779    0.6696 C   0  0  0  0  0  0  0  0  0  0  0  0
    2.1206    3.5843   -0.1412 C   0  0  0  0  0  0  0  0  0  0  0  0
    2.1258   -3.5818   -0.1440 C   0  0  0  0  0  0  0  0  0  0  0  0
   -4.1843   -0.0023   -0.0757 C   0  0  0  0  0  0  0  0  0  0  0  0
    3.7571    2.2448   -1.4675 C   0  0  0  0  0  0  0  0  0  0  0  0
    3.7614   -2.2392   -1.4682 C   0  0  0  0  0  0  0  0  0  0  0  0
   -3.7775    0.0000   -2.5140 C   0  0  0  0  0  0  0  0  0  0  0  0
   -1.1677    0.0008   -1.7189 H   0  0  0  0  0  0  0  0  0  0  0  0
   -0.5837    2.6294    1.6629 H   0  0  0  0  0  0  0  0  0  0  0  0
   -0.5810   -2.6320    1.6591 H   0  0  0  0  0  0  0  0  0  0  0  0
   -4.4226   -0.0042    2.0720 H   0  0  0  0  0  0  0  0  0  0  0  0
    0.6550    4.6461    1.0302 H   0  0  0  0  0  0  0  0  0  0  0  0
    0.6547   -4.6432    1.0292 H   0  0  0  0  0  0  0  0  0  0  0  0
   -5.2568   -0.0027   -0.2544 H   0  0  0  0  0  0  0  0  0  0  0  0
    3.6075    2.8230   -2.3861 H   0  0  0  0  0  0  0  0  0  0  0  0
    4.6379    2.6240   -0.9378 H   0  0  0  0  0  0  0  0  0  0  0  0
    3.9984    1.2254   -1.7821 H   0  0  0  0  0  0  0  0  0  0  0  0
    3.5271   -1.6862   -2.3846 H   0  0  0  0  0  0  0  0  0  0  0  0
    4.5671   -1.7221   -0.9363 H   0  0  0  0  0  0  0  0  0  0  0  0
    4.1466   -3.2140   -1.7818 H   0  0  0  0  0  0  0  0  0  0  0  0
    3.5600    4.5232   -1.0399 H   0  0  0  0  0  0  0  0  0  0  0  0
    2.3542   -5.4823   -0.0841 H   0  0  0  0  0  0  0  0  0  0  0  0
   -3.1232    0.0037   -4.3527 H   0  0  0  0  0  0  0  0  0  0  0  0
  1  8  1  0  0  0  0
  1 15  1  0  0  0  0
  2 12  1  0  0  0  0
  2 13  1  0  0  0  0
  3 15  2  0  0  0  0
  4 25  1  0  0  0  0
  4 44  1  0  0  0  0
  5 26  1  0  0  0  0
  5 45  1  0  0  0  0
  6 30  1  0  0  0  0
  6 46  1  0  0  0  0
  7 30  2  0  0  0  0
  8  9  1  0  0  0  0
  8 10  1  0  0  0  0
  8 11  1  0  0  0  0
  9 12  2  0  0  0  0
  9 17  1  0  0  0  0
 10 13  2  0  0  0  0
 10 18  1  0  0  0  0
 11 14  2  0  0  0  0
 11 16  1  0  0  0  0
 12 19  1  0  0  0  0
 13 20  1  0  0  0  0
 14 15  1  0  0  0  0
 14 21  1  0  0  0  0
 16 22  2  0  0  0  0
 16 31  1  0  0  0  0
 17 23  2  0  0  0  0
 17 32  1  0  0  0  0
 18 24  2  0  0  0  0
 18 33  1  0  0  0  0
 19 25  2  0  0  0  0
 19 28  1  0  0  0  0
 20 26  2  0  0  0  0
 20 29  1  0  0  0  0
 21 27  2  0  0  0  0
 21 34  1  0  0  0  0
 22 27  1  0  0  0  0
 22 30  1  0  0  0  0
 23 25  1  0  0  0  0
 23 35  1  0  0  0  0
 24 26  1  0  0  0  0
 24 36  1  0  0  0  0
 27 37  1  0  0  0  0
 28 38  1  0  0  0  0
 28 39  1  0  0  0  0
 28 40  1  0  0  0  0
 29 41  1  0  0  0  0
 29 42  1  0  0  0  0
 29 43  1  0  0  0  0
M  END
> <PUBCHEM_COMPOUND_CID>
127485

> <PUBCHEM_CONFORMER_RMSD>
0.6

> <PUBCHEM_CONFORMER_DIVERSEORDER>
1

> <PUBCHEM_MMFF94_PARTIAL_CHARGES>
40
1 -0.43
10 -0.14
11 -0.14
12 0.08
13 0.08
14 0.09
15 0.63
16 -0.15
17 -0.15
18 -0.15
19 -0.14
2 -0.17
20 -0.14
21 -0.15
22 0.09
23 -0.15
24 -0.15
25 0.08
26 0.08
27 -0.15
28 0.14
29 0.14
3 -0.57
30 0.63
31 0.15
32 0.15
33 0.15
34 0.15
35 0.15
36 0.15
37 0.15
4 -0.53
44 0.45
45 0.45
46 0.5
5 -0.53
6 -0.65
7 -0.57
8 0.71
9 -0.14

> <PUBCHEM_EFFECTIVE_ROTOR_COUNT>
1.4

> <PUBCHEM_PHARMACOPHORE_FEATURES>
12
1 2 acceptor
1 3 acceptor
1 4 donor
1 5 donor
1 6 acceptor
1 7 acceptor
3 6 7 30 anion
5 1 8 11 14 15 rings
6 10 13 18 20 24 26 rings
6 11 14 16 21 22 27 rings
6 2 8 9 10 12 13 rings
6 9 12 17 19 23 25 rings

> <PUBCHEM_HEAVY_ATOM_COUNT>
30

> <PUBCHEM_ATOM_DEF_STEREO_COUNT>
0

> <PUBCHEM_ATOM_UDEF_STEREO_COUNT>
0

> <PUBCHEM_BOND_DEF_STEREO_COUNT>
0

> <PUBCHEM_BOND_UDEF_STEREO_COUNT>
0

> <PUBCHEM_ISOTOPIC_ATOM_COUNT>
0

> <PUBCHEM_COMPONENT_COUNT>
1

> <PUBCHEM_CACTVS_TAUTO_COUNT>
5

> <PUBCHEM_CONFORMER_ID>
0001F1FD00000001

> <PUBCHEM_MMFF94_ENERGY>
97.9662

> <PUBCHEM_FEATURE_SELFOVERLAP>
61.101

> <PUBCHEM_SHAPE_FINGERPRINT>
10165383 225 17397035495308334092
105312 117 17901668490407050644
10721379 63 18128794457153741549
10930396 42 17829283066627213720
11101153 10 18120942694919020750
11115154 58 17908961254918709461
11578080 2 17315671505956334125
11582403 64 17462535593429182281
11720765 8 17977916052353480093
11725454 13 17605258769729967601
12160290 23 16971377847831741488
12553582 1 18123205510374040154
12788726 201 17183614395566670555
13009979 54 17346601837619195319
13140716 1 17979954749496941362
133893 2 18412829079236733794
13642711 20 18195556824598649910
13681431 1 18265032657527437688
13911987 19 18117868580233931006
14537116 161 17252543965714863741
15324884 4 17606419866862178385
17980427 26 17981926113151979849
1813 80 17914899742509842807
20101258 96 17762078548709326610
21304303 282 16828632067292319052
22112679 90 17559973029502619816
22907989 373 17039792240219608356
23419403 2 17751956611692835923
238 59 18336816602124660909
26353 1 18051396388614627007
340366 18 17912905220486375957
350125 39 17402926773478942888
376196 1 17607212589282521589
3886686 26 17839729706902305392
4409770 3 16901846407860806520
44802255 64 16881353539092758350
46194498 28 18116409511044414367
497634 4 16252259370398803280
550186 7 16733551666458332508
57359948 33 17117127246159338797
57527295 17 17971182639218913655
59025328 239 17910362053558167775
6438718 38 17188986622396599162
6677587 24 17109528520609039581
70251023 43 18339347575355762397
7471813 234 18197211451995760478
81228 2 17468755191700422512

> <PUBCHEM_SHAPE_MULTIPOLES>
576.3
6.74
5.03
2.69
4.89
0.01
0.15
-0.01
4.83
-8.74
0.12
4.07
0
0

> <PUBCHEM_SHAPE_SELFOVERLAP>
1321.332

> <PUBCHEM_SHAPE_VOLUME>
297.9

> <PUBCHEM_COORDINATE_TYPE>
2
5
10

$$$$
