127434
  -OEChem-03292013323D

 61 62  0     1  0  0  0  0  0999 V2000
   -3.2566    1.9949    3.1811 O   0  0  0  0  0  0  0  0  0  0  0  0
    4.0460    1.3351    1.0589 O   0  0  0  0  0  0  0  0  0  0  0  0
   -1.6533    3.5063   -0.6684 O   0  0  0  0  0  0  0  0  0  0  0  0
   -0.8119   -3.6828    1.4116 O   0  0  0  0  0  0  0  0  0  0  0  0
    3.1474    1.9322   -0.9904 N   0  0  0  0  0  0  0  0  0  0  0  0
   -1.8333    1.6467    0.7099 N   0  0  0  0  0  0  0  0  0  0  0  0
    5.5703   -0.1228   -1.2213 N   0  0  0  0  0  0  0  0  0  0  0  0
   -3.2750    1.6294    0.7980 C   0  0  1  0  0  0  0  0  0  0  0  0
    1.1799    3.4178   -0.7145 C   0  0  0  0  0  0  0  0  0  0  0  0
    2.6907    3.2499   -0.5675 C   0  0  0  0  0  0  0  0  0  0  0  0
    0.3648    2.3953    0.0795 C   0  0  0  0  0  0  0  0  0  0  0  0
   -3.7936    0.1956    0.9905 C   0  0  0  0  0  0  0  0  0  0  0  0
    4.2218   -0.3071   -0.6827 C   0  0  2  0  0  0  0  0  0  0  0  0
    3.8059    1.0568   -0.1208 C   0  0  0  0  0  0  0  0  0  0  0  0
    4.2676   -1.3885    0.4126 C   0  0  0  0  0  0  0  0  0  0  0  0
   -1.1381    2.5960   -0.0252 C   0  0  0  0  0  0  0  0  0  0  0  0
   -3.7329    2.5262    1.9498 C   0  0  0  0  0  0  0  0  0  0  0  0
   -3.7823   -0.6144   -0.2842 C   0  0  0  0  0  0  0  0  0  0  0  0
    2.8721    1.5865   -2.3813 C   0  0  0  0  0  0  0  0  0  0  0  0
    2.9109   -2.0001    0.6788 C   0  0  0  0  0  0  0  0  0  0  0  0
   -4.8991   -0.6153   -1.1200 C   0  0  0  0  0  0  0  0  0  0  0  0
   -2.6549   -1.3614   -0.6261 C   0  0  0  0  0  0  0  0  0  0  0  0
    2.0706   -1.4422    1.6425 C   0  0  0  0  0  0  0  0  0  0  0  0
    2.5001   -3.1237   -0.0385 C   0  0  0  0  0  0  0  0  0  0  0  0
   -4.8887   -1.3631   -2.2974 C   0  0  0  0  0  0  0  0  0  0  0  0
   -2.6445   -2.1091   -1.8037 C   0  0  0  0  0  0  0  0  0  0  0  0
    0.8197   -2.0077    1.8888 C   0  0  0  0  0  0  0  0  0  0  0  0
    1.2489   -3.6893    0.2077 C   0  0  0  0  0  0  0  0  0  0  0  0
   -3.7616   -2.1099   -2.6392 C   0  0  0  0  0  0  0  0  0  0  0  0
    0.4089   -3.1313    1.1715 C   0  0  0  0  0  0  0  0  0  0  0  0
   -3.6803    2.0507   -0.1308 H   0  0  0  0  0  0  0  0  0  0  0  0
    0.8896    3.3662   -1.7710 H   0  0  0  0  0  0  0  0  0  0  0  0
    0.9114    4.4283   -0.3811 H   0  0  0  0  0  0  0  0  0  0  0  0
    3.2137    3.9966   -1.1762 H   0  0  0  0  0  0  0  0  0  0  0  0
    2.9787    3.4270    0.4743 H   0  0  0  0  0  0  0  0  0  0  0  0
    0.5854    1.3791   -0.2677 H   0  0  0  0  0  0  0  0  0  0  0  0
    0.6401    2.4509    1.1398 H   0  0  0  0  0  0  0  0  0  0  0  0
   -4.8269    0.2194    1.3628 H   0  0  0  0  0  0  0  0  0  0  0  0
   -3.2169   -0.3339    1.7610 H   0  0  0  0  0  0  0  0  0  0  0  0
    3.5480   -0.6396   -1.4770 H   0  0  0  0  0  0  0  0  0  0  0  0
   -1.3100    0.9726    1.2619 H   0  0  0  0  0  0  0  0  0  0  0  0
    4.9382   -2.2044    0.1066 H   0  0  0  0  0  0  0  0  0  0  0  0
    4.6935   -1.0126    1.3518 H   0  0  0  0  0  0  0  0  0  0  0  0
   -3.3407    3.5428    1.8394 H   0  0  0  0  0  0  0  0  0  0  0  0
   -4.8259    2.5764    1.9929 H   0  0  0  0  0  0  0  0  0  0  0  0
    2.7665    2.4960   -2.9811 H   0  0  0  0  0  0  0  0  0  0  0  0
    3.6730    0.9997   -2.8309 H   0  0  0  0  0  0  0  0  0  0  0  0
    1.9408    1.0140   -2.4206 H   0  0  0  0  0  0  0  0  0  0  0  0
    5.8983   -0.9967   -1.6310 H   0  0  0  0  0  0  0  0  0  0  0  0
    5.5625    0.5588   -1.9777 H   0  0  0  0  0  0  0  0  0  0  0  0
   -5.7825   -0.0355   -0.8661 H   0  0  0  0  0  0  0  0  0  0  0  0
   -1.7773   -1.3600    0.0125 H   0  0  0  0  0  0  0  0  0  0  0  0
    2.3777   -0.5693    2.2116 H   0  0  0  0  0  0  0  0  0  0  0  0
    3.1442   -3.5662   -0.7937 H   0  0  0  0  0  0  0  0  0  0  0  0
   -3.5693    2.5867    3.8864 H   0  0  0  0  0  0  0  0  0  0  0  0
   -5.7580   -1.3632   -2.9485 H   0  0  0  0  0  0  0  0  0  0  0  0
   -1.7657   -2.6889   -2.0705 H   0  0  0  0  0  0  0  0  0  0  0  0
    0.1689   -1.5678    2.6394 H   0  0  0  0  0  0  0  0  0  0  0  0
    0.9398   -4.5636   -0.3587 H   0  0  0  0  0  0  0  0  0  0  0  0
   -3.7531   -2.6916   -3.5564 H   0  0  0  0  0  0  0  0  0  0  0  0
   -0.9353   -4.4448    0.8197 H   0  0  0  0  0  0  0  0  0  0  0  0
  1 17  1  0  0  0  0
  1 55  1  0  0  0  0
  2 14  2  0  0  0  0
  3 16  2  0  0  0  0
  4 30  1  0  0  0  0
  4 61  1  0  0  0  0
  5 10  1  0  0  0  0
  5 14  1  0  0  0  0
  5 19  1  0  0  0  0
  6  8  1  0  0  0  0
  6 16  1  0  0  0  0
  6 41  1  0  0  0  0
  7 13  1  0  0  0  0
  7 49  1  0  0  0  0
  7 50  1  0  0  0  0
  8 12  1  0  0  0  0
  8 17  1  0  0  0  0
  8 31  1  0  0  0  0
  9 10  1  0  0  0  0
  9 11  1  0  0  0  0
  9 32  1  0  0  0  0
  9 33  1  0  0  0  0
 10 34  1  0  0  0  0
 10 35  1  0  0  0  0
 11 16  1  0  0  0  0
 11 36  1  0  0  0  0
 11 37  1  0  0  0  0
 12 18  1  0  0  0  0
 12 38  1  0  0  0  0
 12 39  1  0  0  0  0
 13 14  1  0  0  0  0
 13 15  1  0  0  0  0
 13 40  1  0  0  0  0
 15 20  1  0  0  0  0
 15 42  1  0  0  0  0
 15 43  1  0  0  0  0
 17 44  1  0  0  0  0
 17 45  1  0  0  0  0
 18 21  2  0  0  0  0
 18 22  1  0  0  0  0
 19 46  1  0  0  0  0
 19 47  1  0  0  0  0
 19 48  1  0  0  0  0
 20 23  2  0  0  0  0
 20 24  1  0  0  0  0
 21 25  1  0  0  0  0
 21 51  1  0  0  0  0
 22 26  2  0  0  0  0
 22 52  1  0  0  0  0
 23 27  1  0  0  0  0
 23 53  1  0  0  0  0
 24 28  2  0  0  0  0
 24 54  1  0  0  0  0
 25 29  2  0  0  0  0
 25 56  1  0  0  0  0
 26 29  1  0  0  0  0
 26 57  1  0  0  0  0
 27 30  2  0  0  0  0
 27 58  1  0  0  0  0
 28 30  1  0  0  0  0
 28 59  1  0  0  0  0
 29 60  1  0  0  0  0
M  END
> <PUBCHEM_COMPOUND_CID>
127434

> <PUBCHEM_CONFORMER_RMSD>
1.4

> <PUBCHEM_CONFORMER_DIVERSEORDER>
1
192
126
186
33
12
66
88
89
127
188
68
15
45
57
2
59
136
100
151
134
105
180
11
46
184
162
179
147
129
61
87
122
62
166
43
30
17
199
20
135
96
174
142
103
171
92
125
195
177
85
203
21
55
118
83
8
124
145
47
49
154
197
175
196
168
200
27
58
173
26
65
35
39
133
201
120
176
51
121
104
80
22
115
172
106
167
111
161
31
79
157
73
123
98
163
132
14
148
82
38
138
53
191
143
107
3
182
178
64
32
93
185
25
50
198
72
69
40
86
5
114
131
84
29
194
140
181
190
56
41
63
150
130
152
42
18
139
169
155
77
99
34
70
117
137
164
24
102
36
52
146
119
189
44
108
110
160
16
144
128
95
76
54
10
90
97
48
60
101
6
91
112
74
13
37
109
116
71
149
159
94
67
158
28
187
153
170
9
165
193
19
141
78
81
113
23
202
4
183
7
75
156

> <PUBCHEM_MMFF94_PARTIAL_CHARGES>
43
1 -0.68
10 0.3
11 0.06
12 0.14
13 0.33
14 0.57
15 0.14
16 0.57
17 0.28
18 -0.14
19 0.3
2 -0.57
20 -0.14
21 -0.15
22 -0.15
23 -0.15
24 -0.15
25 -0.15
26 -0.15
27 -0.15
28 -0.15
29 -0.15
3 -0.57
30 0.08
4 -0.53
41 0.37
49 0.36
5 -0.66
50 0.36
51 0.15
52 0.15
53 0.15
54 0.15
55 0.4
56 0.15
57 0.15
58 0.15
59 0.15
6 -0.73
60 0.15
61 0.45
7 -0.99
8 0.3

> <PUBCHEM_EFFECTIVE_ROTOR_COUNT>
13

> <PUBCHEM_PHARMACOPHORE_FEATURES>
10
1 1 acceptor
1 1 donor
1 2 acceptor
1 3 acceptor
1 4 donor
1 6 donor
1 7 cation
1 7 donor
6 18 21 22 25 26 29 rings
6 20 23 24 27 28 30 rings

> <PUBCHEM_HEAVY_ATOM_COUNT>
30

> <PUBCHEM_ATOM_DEF_STEREO_COUNT>
2

> <PUBCHEM_ATOM_UDEF_STEREO_COUNT>
0

> <PUBCHEM_BOND_DEF_STEREO_COUNT>
0

> <PUBCHEM_BOND_UDEF_STEREO_COUNT>
0

> <PUBCHEM_ISOTOPIC_ATOM_COUNT>
0

> <PUBCHEM_COMPONENT_COUNT>
1

> <PUBCHEM_CACTVS_TAUTO_COUNT>
4

> <PUBCHEM_CONFORMER_ID>
0001F1CA00000001

> <PUBCHEM_MMFF94_ENERGY>
62.4635

> <PUBCHEM_FEATURE_SELFOVERLAP>
50.749

> <PUBCHEM_SHAPE_FINGERPRINT>
10815517 723 18265889156450129682
10871710 139 18339919304190999551
12539773 59 18130518431198315729
13122387 1 17181370301182699328
14395042 70 16046807415550860697
14840074 17 18270400469906608185
15001296 14 18268699679441175671
152267 14 17543335065122922194
17138139 8 17983566687342252116
17921350 177 17475510573524278750
19026451 147 18264745792509838383
20764821 26 17974306604860869040
4283 87 18410572877166264764
437795 51 18116147956411546871
437795 70 18128560209890729886
44344687 77 17045693306911881447
463206 1 18409728499559822753
66674814 147 18118386578357693564

> <PUBCHEM_SHAPE_MULTIPOLES>
578.97
10.37
5.34
2.37
0.73
0.27
-0.07
-0.42
3.49
-0.97
-0.67
2.32
-0.13
-4.28

> <PUBCHEM_SHAPE_SELFOVERLAP>
1190.785

> <PUBCHEM_SHAPE_VOLUME>
330.4

> <PUBCHEM_COORDINATE_TYPE>
2
5
10

$$$$
