127498
  -OEChem-03292013323D

 34 37  0     1  0  0  0  0  0999 V2000
    3.4841   -1.4239   -0.1501 P   0  0  0  0  0  0  0  0  0  0  0  0
    0.8951    1.8916    1.3716 O   0  0  0  0  0  0  0  0  0  0  0  0
    1.8777   -1.2410   -0.2358 O   0  0  0  0  0  0  0  0  0  0  0  0
    2.8925    2.5988   -0.8942 O   0  0  0  0  0  0  0  0  0  0  0  0
    3.7954   -2.5911   -1.2252 O   0  0  0  0  0  0  0  0  0  0  0  0
    3.6879   -2.1648    1.2728 O   0  0  0  0  0  0  0  0  0  0  0  0
    4.2760   -0.1613   -0.3264 O   0  0  0  0  0  0  0  0  0  0  0  0
   -0.8940    0.8125    0.3476 N   0  0  0  0  0  0  0  0  0  0  0  0
   -1.0396   -1.4048    0.2364 N   0  0  0  0  0  0  0  0  0  0  0  0
   -3.2165    1.4222   -0.0377 N   0  0  0  0  0  0  0  0  0  0  0  0
   -4.5970   -0.5655   -0.3491 N   0  0  0  0  0  0  0  0  0  0  0  0
   -3.6971   -2.7808   -0.2736 N   0  0  0  0  0  0  0  0  0  0  0  0
    1.8131    1.0542    0.6256 C   0  0  2  0  0  0  0  0  0  0  0  0
   -0.2052    2.0874    0.4571 C   0  0  2  0  0  0  0  0  0  0  0  0
    1.8066    1.6828   -0.7747 C   0  0  1  0  0  0  0  0  0  0  0  0
    0.4876    2.4538   -0.8470 C   0  0  0  0  0  0  0  0  0  0  0  0
    1.2446   -0.3820    0.6966 C   0  0  1  0  0  0  0  0  0  0  0  0
   -0.2201   -0.3869    0.4075 C   0  0  0  0  0  0  0  0  0  0  0  0
   -2.2058    0.5517    0.1101 C   0  0  0  0  0  0  0  0  0  0  0  0
   -2.2775   -0.8339    0.0453 C   0  0  0  0  0  0  0  0  0  0  0  0
   -3.5318   -1.3873   -0.1930 C   0  0  0  0  0  0  0  0  0  0  0  0
   -4.3762    0.7683   -0.2637 C   0  0  0  0  0  0  0  0  0  0  0  0
    2.7893    1.1209    1.1135 H   0  0  0  0  0  0  0  0  0  0  0  0
   -0.8952    2.8455    0.8364 H   0  0  0  0  0  0  0  0  0  0  0  0
    1.9083    0.9469   -1.5774 H   0  0  0  0  0  0  0  0  0  0  0  0
    0.6722    3.5338   -0.8828 H   0  0  0  0  0  0  0  0  0  0  0  0
   -0.1023    2.1833   -1.7290 H   0  0  0  0  0  0  0  0  0  0  0  0
    1.3808   -0.7806    1.7091 H   0  0  0  0  0  0  0  0  0  0  0  0
    2.8299    3.0098   -1.7734 H   0  0  0  0  0  0  0  0  0  0  0  0
   -5.2513    1.3959   -0.3949 H   0  0  0  0  0  0  0  0  0  0  0  0
   -4.6180   -3.1592   -0.4488 H   0  0  0  0  0  0  0  0  0  0  0  0
   -2.9037   -3.3969   -0.1587 H   0  0  0  0  0  0  0  0  0  0  0  0
    4.7287   -2.8337   -1.4053 H   0  0  0  0  0  0  0  0  0  0  0  0
    4.5989   -2.3067    1.6076 H   0  0  0  0  0  0  0  0  0  0  0  0
  1  3  1  0  0  0  0
  1  5  1  0  0  0  0
  1  6  1  0  0  0  0
  1  7  2  0  0  0  0
  2 13  1  0  0  0  0
  2 14  1  0  0  0  0
  3 17  1  0  0  0  0
  4 15  1  0  0  0  0
  4 29  1  0  0  0  0
  5 33  1  0  0  0  0
  6 34  1  0  0  0  0
  8 14  1  0  0  0  0
  8 18  1  0  0  0  0
  8 19  1  0  0  0  0
  9 18  2  0  0  0  0
  9 20  1  0  0  0  0
 10 19  2  0  0  0  0
 10 22  1  0  0  0  0
 11 21  1  0  0  0  0
 11 22  2  0  0  0  0
 12 21  1  0  0  0  0
 12 31  1  0  0  0  0
 12 32  1  0  0  0  0
 13 15  1  0  0  0  0
 13 17  1  0  0  0  0
 13 23  1  0  0  0  0
 14 16  1  0  0  0  0
 14 24  1  0  0  0  0
 15 16  1  0  0  0  0
 15 25  1  0  0  0  0
 16 26  1  0  0  0  0
 16 27  1  0  0  0  0
 17 18  1  0  0  0  0
 17 28  1  0  0  0  0
 19 20  1  0  0  0  0
 20 21  2  0  0  0  0
 22 30  1  0  0  0  0
M  END
> <PUBCHEM_COMPOUND_CID>
127498

> <PUBCHEM_CONFORMER_RMSD>
0.6

> <PUBCHEM_CONFORMER_DIVERSEORDER>
2
9
6
4
8
5
3
7
10
1

> <PUBCHEM_MMFF94_PARTIAL_CHARGES>
27
1 1.51
10 -0.57
11 -0.62
12 -0.9
13 0.28
14 0.54
15 0.28
17 0.46
18 0.01
19 0.11
2 -0.56
20 0.23
21 0.41
22 0.47
29 0.4
3 -0.55
30 0.15
31 0.4
32 0.4
33 0.5
34 0.5
4 -0.68
5 -0.77
6 -0.77
7 -0.7
8 0.05
9 -0.57

> <PUBCHEM_EFFECTIVE_ROTOR_COUNT>
2.8

> <PUBCHEM_PHARMACOPHORE_FEATURES>
15
1 12 cation
1 12 donor
1 2 acceptor
1 4 acceptor
1 4 donor
1 5 acceptor
1 6 acceptor
1 7 acceptor
3 10 11 22 cation
3 8 10 19 cation
3 8 9 18 cation
4 1 5 6 7 anion
5 8 9 18 19 20 rings
6 10 11 19 20 21 22 rings
8 2 8 13 14 15 16 17 18 rings

> <PUBCHEM_HEAVY_ATOM_COUNT>
22

> <PUBCHEM_ATOM_DEF_STEREO_COUNT>
0

> <PUBCHEM_ATOM_UDEF_STEREO_COUNT>
4

> <PUBCHEM_BOND_DEF_STEREO_COUNT>
0

> <PUBCHEM_BOND_UDEF_STEREO_COUNT>
0

> <PUBCHEM_ISOTOPIC_ATOM_COUNT>
0

> <PUBCHEM_COMPONENT_COUNT>
1

> <PUBCHEM_CACTVS_TAUTO_COUNT>
3

> <PUBCHEM_CONFORMER_ID>
0001F20A00000002

> <PUBCHEM_MMFF94_ENERGY>
23.9363

> <PUBCHEM_FEATURE_SELFOVERLAP>
76.782

> <PUBCHEM_SHAPE_FINGERPRINT>
10062212 137 18343299267127079999
10756046 5 18336547209144096445
11578080 2 17242147116637041076
116883 192 18338516331184805100
11963148 33 17615399694280987923
12553582 1 18263648359477246954
13134695 92 17988913470680917185
13140716 1 18411980248097417707
13583140 156 15337396147614279331
14181834 199 18260838119810617788
14790565 3 17620199728329604713
14866123 147 17409096798593996475
15099037 51 18338793404294394735
15196674 1 18410292553256483645
15238133 3 13768744834580449127
15442244 35 18409728443899308321
15536298 74 18412542141040744208
16945 1 18191862323325818161
17357779 13 18197201577617936372
17492 89 18338516464466519335
17804303 29 18342172237691213897
1813 80 18261394386747226036
18186145 218 18040704892718947295
20645477 70 18410011082653959135
20691752 17 17458337563455317057
21267235 1 18410865360191640715
21452121 199 18410847772574695064
21501502 16 18410857706907780049
21634736 98 18408324384466516538
221490 88 18264212576699091611
2255824 54 18259981600036393290
2334 1 18338232777633444003
23366157 5 18041277768057082952
23402539 116 18337383825908528298
23419403 2 18054193628233246824
23557571 272 17986111795390105382
23559900 14 18271524187706443534
2748010 2 18337942463593075505
3004659 81 18262521386424666062
312423 11 18339087094211199987
335352 9 18339359652872610725
350125 39 18337955572429855473
4280585 95 18336550405006336478
5104073 3 18341331180237105787
633830 44 17603299384623108177
7364860 26 18269552900353891080
81228 2 17979367365026414026
9709674 26 18190742127573466019
9981440 41 17613717441458277224

> <PUBCHEM_SHAPE_MULTIPOLES>
396.48
7.96
3
0.95
2.56
0.06
0.06
4.39
-1.41
-1.46
-0.48
-0.69
-0.08
-0.28

> <PUBCHEM_SHAPE_SELFOVERLAP>
869.177

> <PUBCHEM_SHAPE_VOLUME>
216.6

> <PUBCHEM_COORDINATE_TYPE>
2
5
10

$$$$
