127484
  -OEChem-03292013323D

 46 50  0     0  0  0  0  0  0999 V2000
   -0.3386   -0.0007    2.0925 O   0  0  0  0  0  0  0  0  0  0  0  0
    2.6721    0.0002   -0.6551 O   0  0  0  0  0  0  0  0  0  0  0  0
   -2.3143   -0.0010    3.2993 O   0  0  0  0  0  0  0  0  0  0  0  0
    3.0805    4.7182   -0.3729 O   0  0  0  0  0  0  0  0  0  0  0  0
    3.0816   -4.7176   -0.3736 O   0  0  0  0  0  0  0  0  0  0  0  0
   -6.1567   -0.0017   -0.2138 O   0  0  0  0  0  0  0  0  0  0  0  0
   -5.6594    0.0005   -2.4318 O   0  0  0  0  0  0  0  0  0  0  0  0
    0.0792   -0.0002    0.6905 C   0  0  0  0  0  0  0  0  0  0  0  0
    0.8850    1.2587    0.4376 C   0  0  0  0  0  0  0  0  0  0  0  0
    0.8854   -1.2587    0.4369 C   0  0  0  0  0  0  0  0  0  0  0  0
   -1.2382    0.0001   -0.0155 C   0  0  0  0  0  0  0  0  0  0  0  0
    2.1126    1.1808   -0.2301 C   0  0  0  0  0  0  0  0  0  0  0  0
    2.1131   -1.1805   -0.2303 C   0  0  0  0  0  0  0  0  0  0  0  0
   -2.2660   -0.0006    0.9102 C   0  0  0  0  0  0  0  0  0  0  0  0
   -1.7009   -0.0008    2.2509 C   0  0  0  0  0  0  0  0  0  0  0  0
    0.4187    2.5257    0.8302 C   0  0  0  0  0  0  0  0  0  0  0  0
    0.4190   -2.5260    0.8286 C   0  0  0  0  0  0  0  0  0  0  0  0
   -1.5226    0.0007   -1.3721 C   0  0  0  0  0  0  0  0  0  0  0  0
    2.8506    2.3362   -0.5085 C   0  0  0  0  0  0  0  0  0  0  0  0
    2.8516   -2.3357   -0.5087 C   0  0  0  0  0  0  0  0  0  0  0  0
   -3.5999   -0.0004    0.5469 C   0  0  0  0  0  0  0  0  0  0  0  0
    1.1585    3.6781    0.5584 C   0  0  0  0  0  0  0  0  0  0  0  0
    1.1592   -3.6780    0.5571 C   0  0  0  0  0  0  0  0  0  0  0  0
    2.3736    3.5832   -0.1127 C   0  0  0  0  0  0  0  0  0  0  0  0
    2.3747   -3.5828   -0.1132 C   0  0  0  0  0  0  0  0  0  0  0  0
   -2.8626    0.0009   -1.7705 C   0  0  0  0  0  0  0  0  0  0  0  0
   -3.8943    0.0003   -0.8167 C   0  0  0  0  0  0  0  0  0  0  0  0
    4.1589    2.2423   -1.2292 C   0  0  0  0  0  0  0  0  0  0  0  0
    4.1604   -2.2412   -1.2284 C   0  0  0  0  0  0  0  0  0  0  0  0
   -5.2811    0.0001   -1.2560 C   0  0  0  0  0  0  0  0  0  0  0  0
   -0.5314    2.6304    1.3479 H   0  0  0  0  0  0  0  0  0  0  0  0
   -0.5315   -2.6309    1.3458 H   0  0  0  0  0  0  0  0  0  0  0  0
   -0.7301    0.0011   -2.1130 H   0  0  0  0  0  0  0  0  0  0  0  0
   -4.3623   -0.0007    1.3180 H   0  0  0  0  0  0  0  0  0  0  0  0
    0.7767    4.6464    0.8708 H   0  0  0  0  0  0  0  0  0  0  0  0
    0.7709   -4.6430    0.8720 H   0  0  0  0  0  0  0  0  0  0  0  0
   -3.0888    0.0014   -2.8342 H   0  0  0  0  0  0  0  0  0  0  0  0
    4.1232    2.8209   -2.1590 H   0  0  0  0  0  0  0  0  0  0  0  0
    4.9688    2.6204   -0.5957 H   0  0  0  0  0  0  0  0  0  0  0  0
    4.4357    1.2227   -1.5123 H   0  0  0  0  0  0  0  0  0  0  0  0
    4.0389   -1.6914   -2.1683 H   0  0  0  0  0  0  0  0  0  0  0  0
    4.8945   -1.7212   -0.6038 H   0  0  0  0  0  0  0  0  0  0  0  0
    4.5824   -3.2164   -1.4892 H   0  0  0  0  0  0  0  0  0  0  0  0
    3.9131    4.5208   -0.8283 H   0  0  0  0  0  0  0  0  0  0  0  0
    2.5936   -5.4833   -0.0250 H   0  0  0  0  0  0  0  0  0  0  0  0
   -7.0886   -0.0024   -0.5201 H   0  0  0  0  0  0  0  0  0  0  0  0
  1  8  1  0  0  0  0
  1 15  1  0  0  0  0
  2 12  1  0  0  0  0
  2 13  1  0  0  0  0
  3 15  2  0  0  0  0
  4 24  1  0  0  0  0
  4 44  1  0  0  0  0
  5 25  1  0  0  0  0
  5 45  1  0  0  0  0
  6 30  1  0  0  0  0
  6 46  1  0  0  0  0
  7 30  2  0  0  0  0
  8  9  1  0  0  0  0
  8 10  1  0  0  0  0
  8 11  1  0  0  0  0
  9 12  2  0  0  0  0
  9 16  1  0  0  0  0
 10 13  2  0  0  0  0
 10 17  1  0  0  0  0
 11 14  2  0  0  0  0
 11 18  1  0  0  0  0
 12 19  1  0  0  0  0
 13 20  1  0  0  0  0
 14 15  1  0  0  0  0
 14 21  1  0  0  0  0
 16 22  2  0  0  0  0
 16 31  1  0  0  0  0
 17 23  2  0  0  0  0
 17 32  1  0  0  0  0
 18 26  2  0  0  0  0
 18 33  1  0  0  0  0
 19 24  2  0  0  0  0
 19 28  1  0  0  0  0
 20 25  2  0  0  0  0
 20 29  1  0  0  0  0
 21 27  2  0  0  0  0
 21 34  1  0  0  0  0
 22 24  1  0  0  0  0
 22 35  1  0  0  0  0
 23 25  1  0  0  0  0
 23 36  1  0  0  0  0
 26 27  1  0  0  0  0
 26 37  1  0  0  0  0
 27 30  1  0  0  0  0
 28 38  1  0  0  0  0
 28 39  1  0  0  0  0
 28 40  1  0  0  0  0
 29 41  1  0  0  0  0
 29 42  1  0  0  0  0
 29 43  1  0  0  0  0
M  END
> <PUBCHEM_COMPOUND_CID>
127484

> <PUBCHEM_CONFORMER_RMSD>
0.6

> <PUBCHEM_CONFORMER_DIVERSEORDER>
1

> <PUBCHEM_MMFF94_PARTIAL_CHARGES>
40
1 -0.43
10 -0.14
11 -0.14
12 0.08
13 0.08
14 0.09
15 0.63
16 -0.15
17 -0.15
18 -0.15
19 -0.14
2 -0.17
20 -0.14
21 -0.15
22 -0.15
23 -0.15
24 0.08
25 0.08
26 -0.15
27 0.09
28 0.14
29 0.14
3 -0.57
30 0.63
31 0.15
32 0.15
33 0.15
34 0.15
35 0.15
36 0.15
37 0.15
4 -0.53
44 0.45
45 0.45
46 0.5
5 -0.53
6 -0.65
7 -0.57
8 0.71
9 -0.14

> <PUBCHEM_EFFECTIVE_ROTOR_COUNT>
1.4

> <PUBCHEM_PHARMACOPHORE_FEATURES>
12
1 2 acceptor
1 3 acceptor
1 4 donor
1 5 donor
1 6 acceptor
1 7 acceptor
3 6 7 30 anion
5 1 8 11 14 15 rings
6 10 13 17 20 23 25 rings
6 11 14 18 21 26 27 rings
6 2 8 9 10 12 13 rings
6 9 12 16 19 22 24 rings

> <PUBCHEM_HEAVY_ATOM_COUNT>
30

> <PUBCHEM_ATOM_DEF_STEREO_COUNT>
0

> <PUBCHEM_ATOM_UDEF_STEREO_COUNT>
0

> <PUBCHEM_BOND_DEF_STEREO_COUNT>
0

> <PUBCHEM_BOND_UDEF_STEREO_COUNT>
0

> <PUBCHEM_ISOTOPIC_ATOM_COUNT>
0

> <PUBCHEM_COMPONENT_COUNT>
1

> <PUBCHEM_CACTVS_TAUTO_COUNT>
5

> <PUBCHEM_CONFORMER_ID>
0001F1FC00000001

> <PUBCHEM_MMFF94_ENERGY>
98.0373

> <PUBCHEM_FEATURE_SELFOVERLAP>
61.102

> <PUBCHEM_SHAPE_FINGERPRINT>
10165383 225 17541146285495921516
105312 117 17901949973989481148
10693767 8 18131357393072758230
11045515 52 18048032973923741999
11101153 10 18121221970904130830
11115154 58 18049432652912184005
11227688 84 17905355951458746075
11578080 2 17678203614017532337
11582403 64 17606941052405933737
11720765 8 18122321520088990157
11725454 13 17604978385632687169
12553582 1 18122646971615736994
12730499 353 18263084473763883985
12788726 201 17181653974908456650
13004483 165 17908690744539590350
13009979 54 17489032539510932443
13140716 1 18122092972801324634
133893 2 18342470226384615689
13681431 1 18265041453841999616
13911987 19 18189919573002077038
14415360 78 17907880735077400001
15131766 46 15007905339769897982
15219462 58 17903680459583978913
15324884 4 17750815417407380489
15328829 1 17631471011325289961
17980427 26 17981927199815655137
1813 80 17987515896991842111
18915476 22 18335993059589227251
20101258 96 17834692499962760730
21033648 29 17976256060305157177
21304303 282 16905205351401487812
22033318 11 17770809844150862601
22182313 1 17749967672947687379
22907989 373 16967170596859030228
23419403 2 17824010907169500275
23522609 53 17917445259138576609
23559900 14 18410005537983198251
238 59 18336824294379328805
25147074 1 17846232016256486817
266924 1 17917440817234953521
350125 39 17474132246100289808
376196 1 17824238605341173965
44802255 64 17099780324327777446
46194498 28 18188758475610942183
495365 180 18263635320172807449
57527295 17 17970347010307963547
6004065 56 18410566284760847402
70251023 43 18267023851732128047
7471813 234 18270396066631381526
81228 2 17469596318211754592

> <PUBCHEM_SHAPE_MULTIPOLES>
576.3
8.6
5.03
1.87
12.24
0
-0.77
0
5.48
-9.67
0.13
2.25
0
0

> <PUBCHEM_SHAPE_SELFOVERLAP>
1321.358

> <PUBCHEM_SHAPE_VOLUME>
297.9

> <PUBCHEM_COORDINATE_TYPE>
2
5
10

$$$$
