127425
  -OEChem-03292013323D

 25 24  0     1  0  0  0  0  0999 V2000
    2.3466    1.8331   -0.0072 O   0  0  0  0  0  0  0  0  0  0  0  0
   -0.3158    2.2297   -0.2172 O   0  0  0  0  0  0  0  0  0  0  0  0
    3.4675   -0.1867    1.4110 O   0  0  0  0  0  0  0  0  0  0  0  0
    1.5682   -2.0153   -0.8737 O   0  0  0  0  0  0  0  0  0  0  0  0
   -2.4694    0.8351   -1.2457 O   0  0  0  0  0  0  0  0  0  0  0  0
    3.4865   -0.8591   -1.2586 O   0  0  0  0  0  0  0  0  0  0  0  0
   -4.5170   -0.3826   -0.4188 O   0  0  0  0  0  0  0  0  0  0  0  0
   -3.3248   -1.2639    1.3324 O   0  0  0  0  0  0  0  0  0  0  0  0
    1.4788    0.8918    0.6421 C   0  0  1  0  0  0  0  0  0  0  0  0
    0.1636    0.8779   -0.1547 C   0  0  1  0  0  0  0  0  0  0  0  0
    2.2145   -0.4471    0.7789 C   0  0  1  0  0  0  0  0  0  0  0  0
   -0.9416    0.0377    0.4896 C   0  0  0  0  0  0  0  0  0  0  0  0
   -2.2587    0.1610   -0.2486 C   0  0  0  0  0  0  0  0  0  0  0  0
    2.5229   -1.1089   -0.5482 C   0  0  0  0  0  0  0  0  0  0  0  0
   -3.4214   -0.6026    0.3186 C   0  0  0  0  0  0  0  0  0  0  0  0
    1.2985    1.3113    1.6399 H   0  0  0  0  0  0  0  0  0  0  0  0
    0.3333    0.5655   -1.1915 H   0  0  0  0  0  0  0  0  0  0  0  0
    1.6567   -1.1394    1.4183 H   0  0  0  0  0  0  0  0  0  0  0  0
   -0.6564   -1.0183    0.5129 H   0  0  0  0  0  0  0  0  0  0  0  0
   -1.1152    0.3859    1.5149 H   0  0  0  0  0  0  0  0  0  0  0  0
    3.1729    1.8672    0.5046 H   0  0  0  0  0  0  0  0  0  0  0  0
    0.3803    2.7647   -0.6358 H   0  0  0  0  0  0  0  0  0  0  0  0
    3.8758   -1.0458    1.6140 H   0  0  0  0  0  0  0  0  0  0  0  0
    1.7486   -2.4430   -1.7379 H   0  0  0  0  0  0  0  0  0  0  0  0
   -5.3041   -0.8475   -0.0633 H   0  0  0  0  0  0  0  0  0  0  0  0
  1  9  1  0  0  0  0
  1 21  1  0  0  0  0
  2 10  1  0  0  0  0
  2 22  1  0  0  0  0
  3 11  1  0  0  0  0
  3 23  1  0  0  0  0
  4 14  1  0  0  0  0
  4 24  1  0  0  0  0
  5 13  2  0  0  0  0
  6 14  2  0  0  0  0
  7 15  1  0  0  0  0
  7 25  1  0  0  0  0
  8 15  2  0  0  0  0
  9 10  1  0  0  0  0
  9 11  1  0  0  0  0
  9 16  1  0  0  0  0
 10 12  1  0  0  0  0
 10 17  1  0  0  0  0
 11 14  1  0  0  0  0
 11 18  1  0  0  0  0
 12 13  1  0  0  0  0
 12 19  1  0  0  0  0
 12 20  1  0  0  0  0
 13 15  1  0  0  0  0
M  END
> <PUBCHEM_COMPOUND_CID>
127425

> <PUBCHEM_CONFORMER_RMSD>
0.8

> <PUBCHEM_CONFORMER_DIVERSEORDER>
5
150
18
57
167
156
1
52
78
13
140
166
106
28
44
149
131
65
10
168
37
172
21
90
89
40
6
162
97
85
19
22
147
164
96
143
153
48
158
64
77
94
66
165
79
47
111
53
70
84
144
36
161
33
136
42
134
29
54
23
115
32
146
20
128
95
155
160
12
122
14
102
121
55
25
170
152
114
9
4
127
26
38
154
99
67
163
80
171
82
103
35
145
69
7
133
110
105
107
15
129
159
118
8
132
51
16
76
71
116
112
30
139
58
135
113
100
91
74
104
126
125
41
60
123
130
49
86
176
39
108
31
101
98
2
137
24
83
81
141
173
72
92
73
59
109
174
175
45
93
75
119
50
56
88
120
3
87
43
62
46
151
148
17
34
27
138
157
169
117
142
11
68
124
63
61

> <PUBCHEM_MMFF94_PARTIAL_CHARGES>
20
1 -0.68
10 0.28
11 0.34
12 0.06
13 0.51
14 0.66
15 0.72
2 -0.68
21 0.4
22 0.4
23 0.4
24 0.5
25 0.5
3 -0.68
4 -0.65
5 -0.57
6 -0.57
7 -0.65
8 -0.57
9 0.28

> <PUBCHEM_EFFECTIVE_ROTOR_COUNT>
6

> <PUBCHEM_PHARMACOPHORE_FEATURES>
13
1 1 acceptor
1 1 donor
1 2 acceptor
1 2 donor
1 3 acceptor
1 3 donor
1 4 acceptor
1 5 acceptor
1 6 acceptor
1 7 acceptor
1 8 acceptor
3 4 6 14 anion
3 7 8 15 anion

> <PUBCHEM_HEAVY_ATOM_COUNT>
15

> <PUBCHEM_ATOM_DEF_STEREO_COUNT>
0

> <PUBCHEM_ATOM_UDEF_STEREO_COUNT>
3

> <PUBCHEM_BOND_DEF_STEREO_COUNT>
0

> <PUBCHEM_BOND_UDEF_STEREO_COUNT>
0

> <PUBCHEM_ISOTOPIC_ATOM_COUNT>
0

> <PUBCHEM_COMPONENT_COUNT>
1

> <PUBCHEM_CACTVS_TAUTO_COUNT>
2

> <PUBCHEM_CONFORMER_ID>
0001F1C100000005

> <PUBCHEM_MMFF94_ENERGY>
23.4412

> <PUBCHEM_FEATURE_SELFOVERLAP>
66.141

> <PUBCHEM_SHAPE_FINGERPRINT>
10618630 7 18271808994907752481
11543360 7 15213592246686538363
12251169 10 14261348042161289643
12346645 6 18270398411889604248
12932764 1 17603304830256628153
13296908 3 18341610391196221429
14115302 16 16877942715714134978
14251717 144 18201716279883648167
14252887 29 18342457053772744394
15375358 24 18338504292501873835
18186145 218 17967814950977475145
19766037 51 18339379490609100103
20201158 50 18409448072507770139
20279233 1 18408035213135453251
20281407 28 18341334409551267059
20339313 130 18411989082481531601
20645477 70 18339635733048462223
20871998 22 18341331098194830912
20871999 31 18114190687488512749
22721475 48 18340494361018807870
23048698 100 16415476051987051787
23557571 272 17895184476911202068
2748010 2 18336253609174437973
3082319 5 15574715781109423611
474 4 16270213076940528648
58051976 378 18041840760670300020
581208 293 18202559609454538754
7364860 26 18267589181013360108
81228 2 18122619457570124049
94968 8 18343308045866374206

> <PUBCHEM_SHAPE_MULTIPOLES>
261.74
6.94
1.7
1.14
4.06
0.37
-0.08
-2.4
-0.13
-0.74
0.28
-0.3
-0.24
0.92

> <PUBCHEM_SHAPE_SELFOVERLAP>
518.589

> <PUBCHEM_SHAPE_VOLUME>
153.3

> <PUBCHEM_COORDINATE_TYPE>
2
5
10

$$$$
