127568
  -OEChem-03292013323D

 54 56  0     1  0  0  0  0  0999 V2000
    3.5806   -1.8261   -0.1276 O   0  0  0  0  0  0  0  0  0  0  0  0
   -1.8423   -2.9754   -1.4138 O   0  0  0  0  0  0  0  0  0  0  0  0
    0.9084    0.5485   -0.8923 O   0  0  0  0  0  0  0  0  0  0  0  0
   -3.5256   -0.9891   -1.5943 O   0  0  0  0  0  0  0  0  0  0  0  0
    4.0092    0.7507    1.1921 O   0  0  0  0  0  0  0  0  0  0  0  0
    4.6492    2.6119   -0.6799 O   0  0  0  0  0  0  0  0  0  0  0  0
   -0.4435   -0.7468    1.3424 C   0  0  1  0  0  0  0  0  0  0  0  0
   -1.0429    0.5447    0.6559 C   0  0  1  0  0  0  0  0  0  0  0  0
   -2.5190    0.4311    0.1181 C   0  0  2  0  0  0  0  0  0  0  0  0
   -1.0381   -2.0412    0.6773 C   0  0  1  0  0  0  0  0  0  0  0  0
    1.0997   -0.6972    1.1571 C   0  0  0  0  0  0  0  0  0  0  0  0
   -0.8577    1.8388    1.4715 C   0  0  0  0  0  0  0  0  0  0  0  0
   -1.4118   -1.7743   -0.7894 C   0  0  2  0  0  0  0  0  0  0  0  0
   -2.5697   -0.7820   -0.8440 C   0  0  0  0  0  0  0  0  0  0  0  0
   -0.6978   -0.7897    2.8661 C   0  0  0  0  0  0  0  0  0  0  0  0
    1.4751   -0.6249   -0.3132 C   0  0  2  0  0  0  0  0  0  0  0  0
   -2.9038    1.7443   -0.5967 C   0  0  0  0  0  0  0  0  0  0  0  0
    2.9670   -0.5821   -0.4681 C   0  0  2  0  0  0  0  0  0  0  0  0
   -3.5648    0.1789    1.2221 C   0  0  0  0  0  0  0  0  0  0  0  0
   -1.1151    3.0658    0.6015 C   0  0  0  0  0  0  0  0  0  0  0  0
   -0.1579   -3.2944    0.8131 C   0  0  0  0  0  0  0  0  0  0  0  0
   -2.2524    2.8995   -0.3553 C   0  0  0  0  0  0  0  0  0  0  0  0
    3.5795   -1.4583   -1.5131 C   0  0  0  0  0  0  0  0  0  0  0  0
   -4.0773    1.7794   -1.5444 C   0  0  0  0  0  0  0  0  0  0  0  0
    3.7011    0.5840    0.0254 C   0  0  0  0  0  0  0  0  0  0  0  0
    4.0498    1.6038   -1.0105 C   0  0  0  0  0  0  0  0  0  0  0  0
   -0.6945    0.7670   -0.3130 H   0  0  0  0  0  0  0  0  0  0  0  0
   -1.9659   -2.2992    1.2058 H   0  0  0  0  0  0  0  0  0  0  0  0
    1.5860   -1.5513    1.6432 H   0  0  0  0  0  0  0  0  0  0  0  0
    1.4863    0.1862    1.6793 H   0  0  0  0  0  0  0  0  0  0  0  0
    0.1601    1.9209    1.8665 H   0  0  0  0  0  0  0  0  0  0  0  0
   -1.5320    1.8546    2.3349 H   0  0  0  0  0  0  0  0  0  0  0  0
   -0.6371   -1.3702   -1.4302 H   0  0  0  0  0  0  0  0  0  0  0  0
   -0.2941   -1.7064    3.3098 H   0  0  0  0  0  0  0  0  0  0  0  0
   -0.2163    0.0462    3.3845 H   0  0  0  0  0  0  0  0  0  0  0  0
   -1.7618   -0.7565    3.1095 H   0  0  0  0  0  0  0  0  0  0  0  0
    1.1359   -1.4946   -0.8671 H   0  0  0  0  0  0  0  0  0  0  0  0
   -3.4314   -0.7870    1.7133 H   0  0  0  0  0  0  0  0  0  0  0  0
   -3.5495    0.9567    1.9921 H   0  0  0  0  0  0  0  0  0  0  0  0
   -4.5820    0.1535    0.8136 H   0  0  0  0  0  0  0  0  0  0  0  0
   -0.2137    3.2965    0.0205 H   0  0  0  0  0  0  0  0  0  0  0  0
   -1.3042    3.9305    1.2477 H   0  0  0  0  0  0  0  0  0  0  0  0
   -0.7309   -4.1893    0.5435 H   0  0  0  0  0  0  0  0  0  0  0  0
    0.7244   -3.2828    0.1699 H   0  0  0  0  0  0  0  0  0  0  0  0
    0.1702   -3.4403    1.8469 H   0  0  0  0  0  0  0  0  0  0  0  0
   -2.5557    3.8051   -0.8758 H   0  0  0  0  0  0  0  0  0  0  0  0
    2.9404   -2.0227   -2.1806 H   0  0  0  0  0  0  0  0  0  0  0  0
    4.5301   -1.1792   -1.9507 H   0  0  0  0  0  0  0  0  0  0  0  0
   -4.9491    1.2737   -1.1199 H   0  0  0  0  0  0  0  0  0  0  0  0
   -3.8174    1.3084   -2.4971 H   0  0  0  0  0  0  0  0  0  0  0  0
   -4.3921    2.8045   -1.7712 H   0  0  0  0  0  0  0  0  0  0  0  0
   -2.0141   -2.7764   -2.3502 H   0  0  0  0  0  0  0  0  0  0  0  0
    1.1550    0.5579   -1.8332 H   0  0  0  0  0  0  0  0  0  0  0  0
    3.7243    1.3811   -2.0385 H   0  0  0  0  0  0  0  0  0  0  0  0
  1 18  1  0  0  0  0
  1 23  1  0  0  0  0
  2 13  1  0  0  0  0
  2 52  1  0  0  0  0
  3 16  1  0  0  0  0
  3 53  1  0  0  0  0
  4 14  2  0  0  0  0
  5 25  2  0  0  0  0
  6 26  2  0  0  0  0
  7  8  1  0  0  0  0
  7 10  1  0  0  0  0
  7 11  1  0  0  0  0
  7 15  1  0  0  0  0
  8  9  1  0  0  0  0
  8 12  1  0  0  0  0
  8 27  1  0  0  0  0
  9 14  1  0  0  0  0
  9 17  1  0  0  0  0
  9 19  1  0  0  0  0
 10 13  1  0  0  0  0
 10 21  1  0  0  0  0
 10 28  1  0  0  0  0
 11 16  1  0  0  0  0
 11 29  1  0  0  0  0
 11 30  1  0  0  0  0
 12 20  1  0  0  0  0
 12 31  1  0  0  0  0
 12 32  1  0  0  0  0
 13 14  1  0  0  0  0
 13 33  1  0  0  0  0
 15 34  1  0  0  0  0
 15 35  1  0  0  0  0
 15 36  1  0  0  0  0
 16 18  1  0  0  0  0
 16 37  1  0  0  0  0
 17 22  2  0  0  0  0
 17 24  1  0  0  0  0
 18 23  1  0  0  0  0
 18 25  1  0  0  0  0
 19 38  1  0  0  0  0
 19 39  1  0  0  0  0
 19 40  1  0  0  0  0
 20 22  1  0  0  0  0
 20 41  1  0  0  0  0
 20 42  1  0  0  0  0
 21 43  1  0  0  0  0
 21 44  1  0  0  0  0
 21 45  1  0  0  0  0
 22 46  1  0  0  0  0
 23 47  1  0  0  0  0
 23 48  1  0  0  0  0
 24 49  1  0  0  0  0
 24 50  1  0  0  0  0
 24 51  1  0  0  0  0
 25 26  1  0  0  0  0
 26 54  1  0  0  0  0
M  END
> <PUBCHEM_COMPOUND_CID>
127568

> <PUBCHEM_CONFORMER_RMSD>
0.8

> <PUBCHEM_CONFORMER_DIVERSEORDER>
1
3
8
9
7
5
2
6
4
10

> <PUBCHEM_MMFF94_PARTIAL_CHARGES>
24
1 -0.3
13 0.34
14 0.45
16 0.38
17 -0.28
18 0.05
2 -0.68
20 0.14
22 -0.29
23 -0.05
24 0.14
25 0.57
26 0.51
3 -0.68
4 -0.57
46 0.15
47 0.1
48 0.1
5 -0.57
52 0.4
53 0.4
54 0.06
6 -0.57
9 0.2

> <PUBCHEM_EFFECTIVE_ROTOR_COUNT>
6.6

> <PUBCHEM_PHARMACOPHORE_FEATURES>
10
1 1 acceptor
1 2 acceptor
1 2 donor
1 3 acceptor
1 3 donor
1 4 acceptor
1 5 acceptor
1 6 acceptor
6 7 8 9 10 13 14 rings
6 8 9 12 17 20 22 rings

> <PUBCHEM_HEAVY_ATOM_COUNT>
26

> <PUBCHEM_ATOM_DEF_STEREO_COUNT>
7

> <PUBCHEM_ATOM_UDEF_STEREO_COUNT>
0

> <PUBCHEM_BOND_DEF_STEREO_COUNT>
0

> <PUBCHEM_BOND_UDEF_STEREO_COUNT>
0

> <PUBCHEM_ISOTOPIC_ATOM_COUNT>
0

> <PUBCHEM_COMPONENT_COUNT>
1

> <PUBCHEM_CACTVS_TAUTO_COUNT>
4

> <PUBCHEM_CONFORMER_ID>
0001F25000000001

> <PUBCHEM_MMFF94_ENERGY>
105.4108

> <PUBCHEM_FEATURE_SELFOVERLAP>
50.787

> <PUBCHEM_SHAPE_FINGERPRINT>
10498660 4 18339629054358635605
10863032 1 18059851761934087943
10948715 1 18191024500176865597
11370993 70 18128527176706256054
11578080 2 17201915049419932353
11640471 11 18042114384425376112
11961588 58 18041540483112647389
12035759 4 18196358231151765861
12173636 292 18187093861697611207
12403814 3 18342465841724068827
12592029 89 18121228584303986219
12788726 201 18337946899961924531
13224815 77 18408613556352000524
13544653 18 10231453204235297641
13583140 156 17822577088219635386
13994607 96 17969239986487020476
14142880 1 17313100886704562749
14251751 93 18196373619787790703
14787075 74 18042129902669549241
14790565 3 18200316494735529401
15420108 30 16758315567423878480
16945 1 18187645778359869859
17349148 13 18187644734819817368
17492 54 18339070601309774453
18186145 218 18268719320257976706
19765921 60 17822844278509815305
20510252 161 18409176527463435659
20775530 9 14329137465384001037
21524375 3 17898860040981647522
22907989 373 18119842233000068662
22956985 138 14218038683661339088
23227448 37 18262523705163485717
23352939 185 18058174019281342251
23419403 2 16843300536112585019
23559900 14 18202276966943205338
238 59 18124599673826894910
394222 165 17898839167941898761
4028521 119 18408886204801613940
469060 322 17906468957957506378
474 4 18040992887055249088
9709674 26 18413114965693574462
9981440 41 18261949769327014138

> <PUBCHEM_SHAPE_MULTIPOLES>
499.85
7.42
3.43
1.82
6.32
0.14
0.62
3.77
-3.04
-0.52
-0.35
-0.72
-0.46
-0.07

> <PUBCHEM_SHAPE_SELFOVERLAP>
1054.451

> <PUBCHEM_SHAPE_VOLUME>
277

> <PUBCHEM_COORDINATE_TYPE>
2
5
10

$$$$
