127548
  -OEChem-03292013323D

 30 29  0     1  0  0  0  0  0999 V2000
    2.6987    2.4519    1.0149 O   0  0  0  0  0  0  0  0  0  0  0  0
    2.3904    2.1374   -1.2102 O   0  0  0  0  0  0  0  0  0  0  0  0
    2.5455   -2.9905   -0.9429 O   0  0  0  0  0  0  0  0  0  0  0  0
    1.5760   -2.4648    1.0470 O   0  0  0  0  0  0  0  0  0  0  0  0
   -2.6318   -0.0479    0.3300 N   0  0  0  0  0  0  0  0  0  0  0  0
   -4.4668   -1.4624    0.2747 N   0  0  0  0  0  0  0  0  0  0  0  0
   -4.6963    0.5699   -0.7314 N   0  0  0  0  0  0  0  0  0  0  0  0
    1.7392    0.3642    0.3209 C   0  0  1  0  0  0  0  0  0  0  0  0
    0.2779    0.2514   -0.1477 C   0  0  0  0  0  0  0  0  0  0  0  0
   -0.6187    1.3418    0.4544 C   0  0  0  0  0  0  0  0  0  0  0  0
    2.6207   -0.7262   -0.3141 C   0  0  0  0  0  0  0  0  0  0  0  0
   -2.0592    1.2479   -0.0391 C   0  0  0  0  0  0  0  0  0  0  0  0
    2.3062    1.7233   -0.0605 C   0  0  0  0  0  0  0  0  0  0  0  0
    2.1749   -2.1265    0.0375 C   0  0  0  0  0  0  0  0  0  0  0  0
   -3.8565   -0.2694   -0.0336 C   0  0  0  0  0  0  0  0  0  0  0  0
    1.7697    0.2621    1.4132 H   0  0  0  0  0  0  0  0  0  0  0  0
   -0.1238   -0.7311    0.1208 H   0  0  0  0  0  0  0  0  0  0  0  0
    0.2344    0.3224   -1.2424 H   0  0  0  0  0  0  0  0  0  0  0  0
   -0.6013    1.2571    1.5481 H   0  0  0  0  0  0  0  0  0  0  0  0
   -0.2371    2.3369    0.2009 H   0  0  0  0  0  0  0  0  0  0  0  0
    2.6040   -0.6166   -1.4060 H   0  0  0  0  0  0  0  0  0  0  0  0
    3.6609   -0.6135    0.0132 H   0  0  0  0  0  0  0  0  0  0  0  0
   -2.6359    2.0615    0.4173 H   0  0  0  0  0  0  0  0  0  0  0  0
   -2.0738    1.3790   -1.1280 H   0  0  0  0  0  0  0  0  0  0  0  0
    3.0528    3.3284    0.7532 H   0  0  0  0  0  0  0  0  0  0  0  0
    2.2720   -3.9108   -0.7415 H   0  0  0  0  0  0  0  0  0  0  0  0
   -3.9741   -2.1854    0.7877 H   0  0  0  0  0  0  0  0  0  0  0  0
   -5.4233   -1.6556   -0.0012 H   0  0  0  0  0  0  0  0  0  0  0  0
   -5.6430    0.2880   -0.9622 H   0  0  0  0  0  0  0  0  0  0  0  0
   -4.4076    1.4920   -1.0377 H   0  0  0  0  0  0  0  0  0  0  0  0
  1 13  1  0  0  0  0
  1 25  1  0  0  0  0
  2 13  2  0  0  0  0
  3 14  1  0  0  0  0
  3 26  1  0  0  0  0
  4 14  2  0  0  0  0
  5 12  1  0  0  0  0
  5 15  2  0  0  0  0
  6 15  1  0  0  0  0
  6 27  1  0  0  0  0
  6 28  1  0  0  0  0
  7 15  1  0  0  0  0
  7 29  1  0  0  0  0
  7 30  1  0  0  0  0
  8  9  1  0  0  0  0
  8 11  1  0  0  0  0
  8 13  1  0  0  0  0
  8 16  1  0  0  0  0
  9 10  1  0  0  0  0
  9 17  1  0  0  0  0
  9 18  1  0  0  0  0
 10 12  1  0  0  0  0
 10 19  1  0  0  0  0
 10 20  1  0  0  0  0
 11 14  1  0  0  0  0
 11 21  1  0  0  0  0
 11 22  1  0  0  0  0
 12 23  1  0  0  0  0
 12 24  1  0  0  0  0
M  END
> <PUBCHEM_COMPOUND_CID>
127548

> <PUBCHEM_CONFORMER_RMSD>
0.8

> <PUBCHEM_CONFORMER_DIVERSEORDER>
1
77
8
171
51
70
162
89
3
129
117
124
133
2
119
33
78
123
107
28
104
173
136
166
17
142
130
139
126
111
14
72
145
38
82
159
143
9
160
120
37
141
161
44
170
86
110
148
168
97
71
73
43
152
157
115
55
22
29
91
176
169
30
155
53
144
132
127
118
54
61
140
46
147
150
21
59
41
153
4
26
125
80
175
35
84
66
85
134
103
121
163
92
99
7
65
36
100
32
63
113
68
60
83
6
167
64
87
34
47
156
158
18
95
5
135
138
49
154
45
94
151
106
12
146
128
58
10
137
48
96
112
31
52
149
11
102
108
177
116
20
105
109
81
15
165
90
27
24
25
114
164
56
23
67
172
39
50
40
74
93
174
131
16
79
19
178
101
62
98
57
75
88
69
42
76
122
13

> <PUBCHEM_MMFF94_PARTIAL_CHARGES>
19
1 -0.65
11 0.06
12 0.25
13 0.66
14 0.66
15 0.55
2 -0.57
25 0.5
26 0.5
27 0.4
28 0.4
29 0.4
3 -0.65
30 0.4
4 -0.57
5 -0.7
6 -0.85
7 -0.85
8 0.06

> <PUBCHEM_EFFECTIVE_ROTOR_COUNT>
7

> <PUBCHEM_PHARMACOPHORE_FEATURES>
10
1 1 acceptor
1 2 acceptor
1 3 acceptor
1 4 acceptor
1 6 donor
1 7 donor
3 1 2 13 anion
3 3 4 14 anion
4 5 6 7 15 cation
4 8 9 10 11 hydrophobe

> <PUBCHEM_HEAVY_ATOM_COUNT>
15

> <PUBCHEM_ATOM_DEF_STEREO_COUNT>
0

> <PUBCHEM_ATOM_UDEF_STEREO_COUNT>
1

> <PUBCHEM_BOND_DEF_STEREO_COUNT>
0

> <PUBCHEM_BOND_UDEF_STEREO_COUNT>
0

> <PUBCHEM_ISOTOPIC_ATOM_COUNT>
0

> <PUBCHEM_COMPONENT_COUNT>
1

> <PUBCHEM_CACTVS_TAUTO_COUNT>
2

> <PUBCHEM_CONFORMER_ID>
0001F23C00000001

> <PUBCHEM_MMFF94_ENERGY>
26.0339

> <PUBCHEM_FEATURE_SELFOVERLAP>
50.918

> <PUBCHEM_SHAPE_FINGERPRINT>
11806522 49 18411421666236570666
12616999 72 18187935048269758005
13533116 47 18342459236465307161
14251705 54 18270121184604128335
14251717 144 18409449171982331618
15375462 6 18409448089803787901
15477762 27 18338800018169633518
18186145 218 17894908499845836817
20281475 54 18342178873690031761
20559304 39 18343581815697999504
20645477 70 18411695474702062871
20671657 53 18191021197041267747
20708731 107 18408611344512252644
221490 88 18408893918626304459
2255824 54 18408329882246325036
23530152 11 18194688287690189478
23557571 272 17603860109820608357
23559900 14 18408597050592273913
23598291 2 18197231251631698329
257057 1 17830447281119872106
3060560 45 18188780586023895900
33824 294 18338794619279652539
58051976 378 18335137630631174805
581208 293 18408882975065211641
7364860 26 18342455928818308168
81228 2 17115782220915190744
81539 233 18335419127230531980
9709674 26 18334016107712998171

> <PUBCHEM_SHAPE_MULTIPOLES>
270.27
7.6
2.99
0.89
11.08
1.18
-0.03
1.51
-0.83
-3.6
0
-0.4
-0.06
0.39

> <PUBCHEM_SHAPE_SELFOVERLAP>
521.574

> <PUBCHEM_SHAPE_VOLUME>
161.6

> <PUBCHEM_COORDINATE_TYPE>
2
5
10

$$$$
