127532
  -OEChem-03292013323D

 24 24  0     0  0  0  0  0  0999 V2000
   -3.0128    0.0448   -0.8861 S   0  0  0  0  0  0  0  0  0  0  0  0
    0.5835   -0.0440    0.8093 O   0  0  0  0  0  0  0  0  0  0  0  0
    2.1693    2.2903    0.3866 O   0  0  0  0  0  0  0  0  0  0  0  0
    2.2236   -2.3172    0.2728 O   0  0  0  0  0  0  0  0  0  0  0  0
   -0.0825    0.0765   -1.3938 O   0  0  0  0  0  0  0  0  0  0  0  0
   -4.4444   -0.0793    1.3311 O   0  0  0  0  0  0  0  0  0  0  0  0
    1.8855   -0.0175    0.3480 N   0  0  0  0  0  0  0  0  0  0  0  0
    3.9124    0.7895   -0.3667 C   0  0  0  0  0  0  0  0  0  0  0  0
    3.9304   -0.7402   -0.4046 C   0  0  0  0  0  0  0  0  0  0  0  0
    2.5552    1.1515    0.1730 C   0  0  0  0  0  0  0  0  0  0  0  0
    2.5825   -1.1605    0.1159 C   0  0  0  0  0  0  0  0  0  0  0  0
   -0.3545    0.0098   -0.2030 C   0  0  0  0  0  0  0  0  0  0  0  0
   -1.7387   -0.0243    0.3953 C   0  0  0  0  0  0  0  0  0  0  0  0
   -4.4675   -0.0109    0.1081 C   0  0  0  0  0  0  0  0  0  0  0  0
   -5.7420    0.0314   -0.6861 C   0  0  0  0  0  0  0  0  0  0  0  0
    4.0383    1.2133   -1.3673 H   0  0  0  0  0  0  0  0  0  0  0  0
    4.6909    1.1793    0.2955 H   0  0  0  0  0  0  0  0  0  0  0  0
    4.7184   -1.1437    0.2379 H   0  0  0  0  0  0  0  0  0  0  0  0
    4.0656   -1.1109   -1.4248 H   0  0  0  0  0  0  0  0  0  0  0  0
   -1.8484   -0.9539    0.9618 H   0  0  0  0  0  0  0  0  0  0  0  0
   -1.8500    0.8376    1.0600 H   0  0  0  0  0  0  0  0  0  0  0  0
   -5.8006   -0.8317   -1.3548 H   0  0  0  0  0  0  0  0  0  0  0  0
   -5.8003    0.9604   -1.2600 H   0  0  0  0  0  0  0  0  0  0  0  0
   -6.5951   -0.0044   -0.0018 H   0  0  0  0  0  0  0  0  0  0  0  0
  1 13  1  0  0  0  0
  1 14  1  0  0  0  0
  2  7  1  0  0  0  0
  2 12  1  0  0  0  0
  3 10  2  0  0  0  0
  4 11  2  0  0  0  0
  5 12  2  0  0  0  0
  6 14  2  0  0  0  0
  7 10  1  0  0  0  0
  7 11  1  0  0  0  0
  8  9  1  0  0  0  0
  8 10  1  0  0  0  0
  8 16  1  0  0  0  0
  8 17  1  0  0  0  0
  9 11  1  0  0  0  0
  9 18  1  0  0  0  0
  9 19  1  0  0  0  0
 12 13  1  0  0  0  0
 13 20  1  0  0  0  0
 13 21  1  0  0  0  0
 14 15  1  0  0  0  0
 15 22  1  0  0  0  0
 15 23  1  0  0  0  0
 15 24  1  0  0  0  0
M  END
> <PUBCHEM_COMPOUND_CID>
127532

> <PUBCHEM_CONFORMER_RMSD>
0.6

> <PUBCHEM_CONFORMER_DIVERSEORDER>
1
336
65
283
80
263
216
89
112
323
164
326
317
101
189
99
27
211
48
155
280
258
77
191
8
319
226
340
301
140
111
170
237
129
87
172
312
268
286
84
128
244
120
161
218
28
299
20
163
245
322
144
153
213
75
304
92
231
116
292
13
311
34
240
208
308
54
298
31
110
94
269
205
11
214
197
119
183
224
113
162
179
67
131
41
324
328
154
203
18
261
126
282
86
256
117
171
333
289
252
125
15
43
233
303
25
223
327
302
207
78
242
284
52
91
63
275
118
168
150
285
51
222
49
46
141
121
79
127
181
82
138
193
209
173
61
236
24
291
58
149
279
215
331
187
220
6
17
296
132
295
16
136
93
76
174
249
122
180
107
262
57
37
98
288
274
194
105
160
176
184
134
206
337
88
56
227
238
157
210
199
234
316
12
293
169
73
217
4
278
202
36
332
325
147
137
156
334
3
44
219
204
314
66
318
315
178
39
114
2
146
201
148
307
71
72
166
22
247
243
310
195
42
297
106
83
29
339
159
259
270
196
277
253
10
198
40
276
32
335
320
241
152
104
167
287
123
330
35
90
9
266
281
212
130
185
26
230
145
7
100
228
257
96
143
254
267
68
74
5
23
50
69
251
19
250
142
21
158
260
62
60
186
135
109
38
64
229
30
306
255
273
85
103
321
53
165
246
188
55
200
309
81
182
248
14
192
221
102
151
338
45
294
225
272
305
313
47
124
115
239
232
133
108
70
190
264
177
329
139
271
97
175
235
300
33
95
265
59
290

> <PUBCHEM_MMFF94_PARTIAL_CHARGES>
15
1 -0.37
10 0.57
11 0.57
12 0.66
13 0.29
14 0.65
15 0.06
2 -0.19
3 -0.57
4 -0.57
5 -0.57
6 -0.57
7 -0.08
8 0.06
9 0.06

> <PUBCHEM_EFFECTIVE_ROTOR_COUNT>
5.6

> <PUBCHEM_PHARMACOPHORE_FEATURES>
4
1 3 acceptor
1 4 acceptor
1 5 acceptor
5 7 8 9 10 11 rings

> <PUBCHEM_HEAVY_ATOM_COUNT>
15

> <PUBCHEM_ATOM_DEF_STEREO_COUNT>
0

> <PUBCHEM_ATOM_UDEF_STEREO_COUNT>
0

> <PUBCHEM_BOND_DEF_STEREO_COUNT>
0

> <PUBCHEM_BOND_UDEF_STEREO_COUNT>
0

> <PUBCHEM_ISOTOPIC_ATOM_COUNT>
0

> <PUBCHEM_COMPONENT_COUNT>
1

> <PUBCHEM_CACTVS_TAUTO_COUNT>
3

> <PUBCHEM_CONFORMER_ID>
0001F22C00000001

> <PUBCHEM_MMFF94_ENERGY>
22.413

> <PUBCHEM_FEATURE_SELFOVERLAP>
20.298

> <PUBCHEM_SHAPE_FINGERPRINT>
11471102 20 18410575093611787680
11615757 297 18272934920980076913
12236239 1 17561085791494841834
12670546 56 17988922258552990833
13167823 11 18201715185120746527
13760787 19 18130503128108702423
14251717 144 18410573963872196238
14252887 29 17676211255792353995
15242439 84 18040152903479756931
15375358 24 17458065975820415059
17834072 33 18342452686403024871
18186145 218 18342450461082217383
20279233 1 17603590716027530451
20645477 70 18337384942336359319
22289505 5 18261947466565614925
23048698 100 18273496779985262353
23402539 116 17632856396150659129
23402655 69 18412262835064579621
23557571 272 16733257950618866143
23559900 14 16877943806482944546
23590187 302 18411138030559013748
3060560 45 18412265047526768246
449060 50 18187086190964804133
522135 26 18413105052355102214
8272917 22 18272375226348349327

> <PUBCHEM_SHAPE_MULTIPOLES>
278.21
10.55
1.43
0.98
12.69
0.02
-0.05
0.03
-0.63
-2.12
0.18
0.68
-0.01
0.09

> <PUBCHEM_SHAPE_SELFOVERLAP>
550.827

> <PUBCHEM_SHAPE_VOLUME>
166

> <PUBCHEM_COORDINATE_TYPE>
2
5
10

$$$$
