127570
  -OEChem-03292013323D

 66 68  0     1  0  0  0  0  0999 V2000
    3.3749   -1.4098   -0.0192 O   0  0  0  0  0  0  0  0  0  0  0  0
    3.4664    0.3166    1.5476 O   0  0  0  0  0  0  0  0  0  0  0  0
    7.2491   -2.5144    0.7794 O   0  0  0  0  0  0  0  0  0  0  0  0
    5.9647   -3.4260   -1.6445 O   0  0  0  0  0  0  0  0  0  0  0  0
    6.2924    0.1763    1.5046 O   0  0  0  0  0  0  0  0  0  0  0  0
    1.8812   -2.4131   -2.0974 O   0  0  0  0  0  0  0  0  0  0  0  0
    1.0103    3.4416   -1.0917 O   0  0  0  0  0  0  0  0  0  0  0  0
   -0.1528    4.9438   -2.3643 O   0  0  0  0  0  0  0  0  0  0  0  0
    6.2191   -1.7889    0.1060 C   0  0  1  0  0  0  0  0  0  0  0  0
    5.2855   -2.8004   -0.5589 C   0  0  1  0  0  0  0  0  0  0  0  0
    5.4663   -0.9202    1.1138 C   0  0  2  0  0  0  0  0  0  0  0  0
    4.0225   -2.1120   -1.0817 C   0  0  1  0  0  0  0  0  0  0  0  0
    4.1785   -0.3586    0.5112 C   0  0  1  0  0  0  0  0  0  0  0  0
    3.0231   -3.1175   -1.6449 C   0  0  0  0  0  0  0  0  0  0  0  0
   -4.8069    0.8413    0.6677 C   0  0  0  0  0  0  0  0  0  0  0  0
   -5.4777   -0.3238   -0.0653 C   0  0  0  0  0  0  0  0  0  0  0  0
   -3.4524    1.1852    0.0398 C   0  0  0  0  0  0  0  0  0  0  0  0
   -6.8154   -0.6883    0.5817 C   0  0  0  0  0  0  0  0  0  0  0  0
    2.2773    0.8867    1.2123 C   0  0  0  0  0  0  0  0  0  0  0  0
   -2.7316    2.3273    0.7600 C   0  0  0  0  0  0  0  0  0  0  0  0
   -7.5744   -1.7897   -0.1647 C   0  0  0  0  0  0  0  0  0  0  0  0
   -1.4429    2.7166    0.1167 C   0  0  0  0  0  0  0  0  0  0  0  0
   -0.1929    2.0614    0.5253 C   0  0  0  0  0  0  0  0  0  0  0  0
   -8.9600   -2.1382    0.3874 C   0  0  0  0  0  0  0  0  0  0  0  0
    2.2276    1.8748    0.2347 C   0  0  0  0  0  0  0  0  0  0  0  0
    0.9971    2.4463   -0.0939 C   0  0  0  0  0  0  0  0  0  0  0  0
    1.1046    0.4819    1.8477 C   0  0  0  0  0  0  0  0  0  0  0  0
   -0.1216    1.0643    1.5074 C   0  0  0  0  0  0  0  0  0  0  0  0
   -9.6938   -3.1981   -0.4346 C   0  0  0  0  0  0  0  0  0  0  0  0
   -1.4002    3.6599   -0.8348 C   0  0  0  0  0  0  0  0  0  0  0  0
   -0.1530    4.0768   -1.4976 C   0  0  0  0  0  0  0  0  0  0  0  0
  -11.0648   -3.5020    0.1501 C   0  0  0  0  0  0  0  0  0  0  0  0
    6.7188   -1.1631   -0.6438 H   0  0  0  0  0  0  0  0  0  0  0  0
    5.0302   -3.5803    0.1704 H   0  0  0  0  0  0  0  0  0  0  0  0
    5.2514   -1.4998    2.0203 H   0  0  0  0  0  0  0  0  0  0  0  0
    4.2672   -1.3949   -1.8772 H   0  0  0  0  0  0  0  0  0  0  0  0
    4.4293    0.3588   -0.2814 H   0  0  0  0  0  0  0  0  0  0  0  0
    3.4331   -3.6730   -2.4923 H   0  0  0  0  0  0  0  0  0  0  0  0
    2.6956   -3.8293   -0.8799 H   0  0  0  0  0  0  0  0  0  0  0  0
    7.6981   -3.0659    0.1159 H   0  0  0  0  0  0  0  0  0  0  0  0
    5.4614   -4.2193   -1.8932 H   0  0  0  0  0  0  0  0  0  0  0  0
    5.7817    0.7165    2.1317 H   0  0  0  0  0  0  0  0  0  0  0  0
   -5.4593    1.7222    0.6385 H   0  0  0  0  0  0  0  0  0  0  0  0
   -4.6631    0.5782    1.7226 H   0  0  0  0  0  0  0  0  0  0  0  0
   -4.8182   -1.1998   -0.0563 H   0  0  0  0  0  0  0  0  0  0  0  0
   -5.6391   -0.0504   -1.1150 H   0  0  0  0  0  0  0  0  0  0  0  0
   -2.8169    0.2907    0.0461 H   0  0  0  0  0  0  0  0  0  0  0  0
   -3.6059    1.4533   -1.0136 H   0  0  0  0  0  0  0  0  0  0  0  0
   -7.4491    0.2062    0.6263 H   0  0  0  0  0  0  0  0  0  0  0  0
   -6.6466   -1.0077    1.6174 H   0  0  0  0  0  0  0  0  0  0  0  0
   -3.4030    3.1986    0.7566 H   0  0  0  0  0  0  0  0  0  0  0  0
   -2.6087    2.1004    1.8248 H   0  0  0  0  0  0  0  0  0  0  0  0
   -7.6869   -1.4845   -1.2130 H   0  0  0  0  0  0  0  0  0  0  0  0
   -6.9586   -2.6979   -0.1728 H   0  0  0  0  0  0  0  0  0  0  0  0
   -8.8528   -2.4870    1.4219 H   0  0  0  0  0  0  0  0  0  0  0  0
   -9.5674   -1.2253    0.4234 H   0  0  0  0  0  0  0  0  0  0  0  0
    1.5233   -1.9160   -1.3418 H   0  0  0  0  0  0  0  0  0  0  0  0
    3.1299    2.2179   -0.2627 H   0  0  0  0  0  0  0  0  0  0  0  0
    1.1356   -0.2921    2.6103 H   0  0  0  0  0  0  0  0  0  0  0  0
   -1.0049    0.7031    2.0256 H   0  0  0  0  0  0  0  0  0  0  0  0
   -9.8105   -2.8517   -1.4678 H   0  0  0  0  0  0  0  0  0  0  0  0
   -9.1009   -4.1194   -0.4655 H   0  0  0  0  0  0  0  0  0  0  0  0
   -2.3056    4.1625   -1.1620 H   0  0  0  0  0  0  0  0  0  0  0  0
  -11.5728   -4.2623   -0.4514 H   0  0  0  0  0  0  0  0  0  0  0  0
  -10.9797   -3.8797    1.1740 H   0  0  0  0  0  0  0  0  0  0  0  0
  -11.6926   -2.6053    0.1652 H   0  0  0  0  0  0  0  0  0  0  0  0
  1 12  1  0  0  0  0
  1 13  1  0  0  0  0
  2 13  1  0  0  0  0
  2 19  1  0  0  0  0
  3  9  1  0  0  0  0
  3 40  1  0  0  0  0
  4 10  1  0  0  0  0
  4 41  1  0  0  0  0
  5 11  1  0  0  0  0
  5 42  1  0  0  0  0
  6 14  1  0  0  0  0
  6 57  1  0  0  0  0
  7 26  1  0  0  0  0
  7 31  1  0  0  0  0
  8 31  2  0  0  0  0
  9 10  1  0  0  0  0
  9 11  1  0  0  0  0
  9 33  1  0  0  0  0
 10 12  1  0  0  0  0
 10 34  1  0  0  0  0
 11 13  1  0  0  0  0
 11 35  1  0  0  0  0
 12 14  1  0  0  0  0
 12 36  1  0  0  0  0
 13 37  1  0  0  0  0
 14 38  1  0  0  0  0
 14 39  1  0  0  0  0
 15 16  1  0  0  0  0
 15 17  1  0  0  0  0
 15 43  1  0  0  0  0
 15 44  1  0  0  0  0
 16 18  1  0  0  0  0
 16 45  1  0  0  0  0
 16 46  1  0  0  0  0
 17 20  1  0  0  0  0
 17 47  1  0  0  0  0
 17 48  1  0  0  0  0
 18 21  1  0  0  0  0
 18 49  1  0  0  0  0
 18 50  1  0  0  0  0
 19 25  2  0  0  0  0
 19 27  1  0  0  0  0
 20 22  1  0  0  0  0
 20 51  1  0  0  0  0
 20 52  1  0  0  0  0
 21 24  1  0  0  0  0
 21 53  1  0  0  0  0
 21 54  1  0  0  0  0
 22 23  1  0  0  0  0
 22 30  2  0  0  0  0
 23 26  2  0  0  0  0
 23 28  1  0  0  0  0
 24 29  1  0  0  0  0
 24 55  1  0  0  0  0
 24 56  1  0  0  0  0
 25 26  1  0  0  0  0
 25 58  1  0  0  0  0
 27 28  2  0  0  0  0
 27 59  1  0  0  0  0
 28 60  1  0  0  0  0
 29 32  1  0  0  0  0
 29 61  1  0  0  0  0
 29 62  1  0  0  0  0
 30 31  1  0  0  0  0
 30 63  1  0  0  0  0
 32 64  1  0  0  0  0
 32 65  1  0  0  0  0
 32 66  1  0  0  0  0
M  END
> <PUBCHEM_COMPOUND_CID>
127570

> <PUBCHEM_CONFORMER_RMSD>
1.2

> <PUBCHEM_CONFORMER_DIVERSEORDER>
1
421
99
188
59
328
31
369
230
250
7
125
325
262
322
48
349
251
246
222
372
87
402
214
10
189
357
190
418
407
28
112
363
155
288
379
353
233
249
128
302
220
179
94
211
8
23
44
231
68
15
368
335
97
377
101
243
296
382
424
158
280
238
235
306
227
217
300
228
22
232
133
373
272
365
86
6
304
327
18
386
110
129
221
67
403
339
14
45
275
396
57
173
42
91
156
344
319
413
394
55
410
163
39
209
121
332
333
120
108
167
34
176
398
16
294
376
20
194
124
106
47
301
326
77
397
40
35
37
346
311
122
348
390
351
291
160
69
342
58
219
387
76
131
159
127
309
96
330
392
143
257
334
93
267
84
137
32
293
107
419
218
241
303
139
38
312
75
389
404
359
318
134
71
408
5
350
352
197
118
50
411
400
182
281
19
358
95
329
323
383
13
61
162
202
381
56
149
192
195
105
172
166
66
183
49
191
362
340
164
150
245
270
63
4
264
276
255
203
290
226
253
416
240
151
286
268
82
299
187
316
21
199
206
170
54
90
224
33
284
244
223
321
3
283
141
146
263
78
285
229
261
266
422
278
65
25
297
168
260
336
274
79
142
113
208
385
36
24
213
356
399
111
393
405
289
380
89
415
46
420
198
315
186
64
200
406
236
53
147
310
324
126
29
175
74
41
360
409
73
364
279
185
282
273
271
193
30
265
247
355
81
295
216
242
43
366
338
136
258
417
401
205
252
17
287
239
371
12
104
145
313
177
292
308
11
88
80
140
237
248
305
72
123
337
169
314
317
171
388
83
9
119
130
204
26
210
354
212
225
341
370
254
70
181
2
132
178
269
298
367
114
207
51
180
144
414
184
375
174
62
152
361
27
135
331
256
154
117
412
391
320
196
103
161
378
423
116
201
277
102
109
148
165
395
234
100
307
92
347
374
85
60
138
153
157
345
52
343
259
384
98
215
115

> <PUBCHEM_MMFF94_PARTIAL_CHARGES>
32
1 -0.56
10 0.28
11 0.28
12 0.28
13 0.56
14 0.28
19 0.08
2 -0.36
20 0.14
22 -0.17
23 0.03
25 -0.15
26 0.08
27 -0.15
28 -0.15
3 -0.68
30 -0.14
31 0.71
4 -0.68
40 0.4
41 0.4
42 0.4
5 -0.68
57 0.4
58 0.15
59 0.15
6 -0.68
60 0.15
63 0.15
7 -0.23
8 -0.57
9 0.28

> <PUBCHEM_EFFECTIVE_ROTOR_COUNT>
12.2

> <PUBCHEM_PHARMACOPHORE_FEATURES>
15
1 1 acceptor
1 2 acceptor
1 3 acceptor
1 3 donor
1 32 hydrophobe
1 4 acceptor
1 4 donor
1 5 acceptor
1 5 donor
1 6 acceptor
1 6 donor
1 8 acceptor
6 1 9 10 11 12 13 rings
6 19 23 25 26 27 28 rings
6 7 22 23 26 30 31 rings

> <PUBCHEM_HEAVY_ATOM_COUNT>
32

> <PUBCHEM_ATOM_DEF_STEREO_COUNT>
5

> <PUBCHEM_ATOM_UDEF_STEREO_COUNT>
0

> <PUBCHEM_BOND_DEF_STEREO_COUNT>
0

> <PUBCHEM_BOND_UDEF_STEREO_COUNT>
0

> <PUBCHEM_ISOTOPIC_ATOM_COUNT>
0

> <PUBCHEM_COMPONENT_COUNT>
1

> <PUBCHEM_CACTVS_TAUTO_COUNT>
1

> <PUBCHEM_CONFORMER_ID>
0001F25200000001

> <PUBCHEM_MMFF94_ENERGY>
81.3241

> <PUBCHEM_FEATURE_SELFOVERLAP>
76.212

> <PUBCHEM_SHAPE_FINGERPRINT>
10669705 251 18272654541394762671
10693767 8 18261113001902038305
11607047 191 8527549779968476620
11607047 74 18050282871822276681
117089 54 18411990152640850027
12623949 98 18273501160514748996
13383661 66 17844257232737790398
13782708 43 18196651800978090938
14359421 15 17967806142575325259
14556957 393 16154566254604763357
15152005 1 18340491071681644911
15152005 77 18201996613101263431
15510800 12 18412256221563919815
19301679 30 18272655645580704585
20587220 46 17986403385030622399
21197605 99 18202282490113314570
21585482 310 18334586767507392131
21792965 78 17751084600557891666
23523788 1 17561092366968512133
23569917 315 17986117310925673230
255183 451 18260828237592406341
2838139 119 11458727017790754057
406291 66 18411979183415461819
46194498 28 18338514124458078440

> <PUBCHEM_SHAPE_MULTIPOLES>
611.59
25.43
6.05
1.65
72.35
2.76
0.43
-45.52
-2.69
0.81
4.28
-2.05
0.51
1.43

> <PUBCHEM_SHAPE_SELFOVERLAP>
1261.744

> <PUBCHEM_SHAPE_VOLUME>
347.5

> <PUBCHEM_COORDINATE_TYPE>
2
5
10

$$$$
