127501
  -OEChem-03292013323D

 48 49  0     1  0  0  0  0  0999 V2000
   -1.8033   -0.5542    1.5543 O   0  0  0  0  0  0  0  0  0  0  0  0
   -4.9732    1.7249    0.2129 O   0  0  0  0  0  0  0  0  0  0  0  0
    0.6344   -4.2749   -0.9287 O   0  0  0  0  0  0  0  0  0  0  0  0
    0.7710   -1.1790   -1.4432 O   0  0  0  0  0  0  0  0  0  0  0  0
    4.7380   -1.2387    0.8389 O   0  0  0  0  0  0  0  0  0  0  0  0
   -4.2294   -0.4433    0.6901 N   0  0  0  0  0  0  0  0  0  0  0  0
   -1.1882   -2.3015    0.1434 N   0  0  0  0  0  0  0  0  0  0  0  0
    2.0386   -0.8675    0.4757 N   0  0  0  0  0  0  0  0  0  0  0  0
    5.0898   -0.1302   -1.1420 N   0  0  0  0  0  0  0  0  0  0  0  0
   -3.4262   -1.4499    0.0557 C   0  0  1  0  0  0  0  0  0  0  0  0
   -3.4239   -1.0426   -1.4054 C   0  0  0  0  0  0  0  0  0  0  0  0
   -3.6288    0.4718   -1.3756 C   0  0  0  0  0  0  0  0  0  0  0  0
   -2.0697   -1.3747    0.6801 C   0  0  0  0  0  0  0  0  0  0  0  0
   -4.3800    0.7002   -0.0869 C   0  0  0  0  0  0  0  0  0  0  0  0
    0.1861   -2.4183    0.5571 C   0  0  2  0  0  0  0  0  0  0  0  0
    2.9398    0.1224   -0.0667 C   0  0  1  0  0  0  0  0  0  0  0  0
    1.0173   -1.4418   -0.2679 C   0  0  0  0  0  0  0  0  0  0  0  0
    2.9103    1.4315    0.7302 C   0  0  0  0  0  0  0  0  0  0  0  0
    0.6944   -3.8508    0.4284 C   0  0  0  0  0  0  0  0  0  0  0  0
    1.7241    2.2986    0.3848 C   0  0  0  0  0  0  0  0  0  0  0  0
    4.3363   -0.4818   -0.0418 C   0  0  0  0  0  0  0  0  0  0  0  0
    1.8231    3.2399   -0.6399 C   0  0  0  0  0  0  0  0  0  0  0  0
    0.5287    2.1584    1.0899 C   0  0  0  0  0  0  0  0  0  0  0  0
    0.7269    4.0411   -0.9593 C   0  0  0  0  0  0  0  0  0  0  0  0
   -0.5675    2.9596    0.7703 C   0  0  0  0  0  0  0  0  0  0  0  0
   -0.4683    3.9009   -0.2543 C   0  0  0  0  0  0  0  0  0  0  0  0
   -3.8662   -2.4370    0.2253 H   0  0  0  0  0  0  0  0  0  0  0  0
   -2.5247   -1.3182   -1.9638 H   0  0  0  0  0  0  0  0  0  0  0  0
   -4.2812   -1.5041   -1.9123 H   0  0  0  0  0  0  0  0  0  0  0  0
   -2.6733    1.0031   -1.3249 H   0  0  0  0  0  0  0  0  0  0  0  0
   -4.2076    0.8207   -2.2341 H   0  0  0  0  0  0  0  0  0  0  0  0
   -4.6157   -0.5347    1.6247 H   0  0  0  0  0  0  0  0  0  0  0  0
    0.2376   -2.1249    1.6130 H   0  0  0  0  0  0  0  0  0  0  0  0
   -1.5062   -2.9035   -0.6109 H   0  0  0  0  0  0  0  0  0  0  0  0
    2.6665    0.3160   -1.1114 H   0  0  0  0  0  0  0  0  0  0  0  0
    3.8260    2.0089    0.5432 H   0  0  0  0  0  0  0  0  0  0  0  0
    2.9161    1.2286    1.8098 H   0  0  0  0  0  0  0  0  0  0  0  0
    2.1917   -1.1747    1.4321 H   0  0  0  0  0  0  0  0  0  0  0  0
    1.7315   -3.9386    0.7687 H   0  0  0  0  0  0  0  0  0  0  0  0
    0.0779   -4.5359    1.0191 H   0  0  0  0  0  0  0  0  0  0  0  0
    2.7481    3.3564   -1.1982 H   0  0  0  0  0  0  0  0  0  0  0  0
    0.4389    1.4289    1.8903 H   0  0  0  0  0  0  0  0  0  0  0  0
    1.2698   -3.7416   -1.4354 H   0  0  0  0  0  0  0  0  0  0  0  0
    0.8035    4.7731   -1.7578 H   0  0  0  0  0  0  0  0  0  0  0  0
   -1.4991    2.8487    1.3176 H   0  0  0  0  0  0  0  0  0  0  0  0
    6.0358   -0.4784   -1.2569 H   0  0  0  0  0  0  0  0  0  0  0  0
    4.7451    0.4942   -1.8641 H   0  0  0  0  0  0  0  0  0  0  0  0
   -1.3225    4.5236   -0.5040 H   0  0  0  0  0  0  0  0  0  0  0  0
  1 13  2  0  0  0  0
  2 14  2  0  0  0  0
  3 19  1  0  0  0  0
  3 43  1  0  0  0  0
  4 17  2  0  0  0  0
  5 21  2  0  0  0  0
  6 10  1  0  0  0  0
  6 14  1  0  0  0  0
  6 32  1  0  0  0  0
  7 13  1  0  0  0  0
  7 15  1  0  0  0  0
  7 34  1  0  0  0  0
  8 16  1  0  0  0  0
  8 17  1  0  0  0  0
  8 38  1  0  0  0  0
  9 21  1  0  0  0  0
  9 46  1  0  0  0  0
  9 47  1  0  0  0  0
 10 11  1  0  0  0  0
 10 13  1  0  0  0  0
 10 27  1  0  0  0  0
 11 12  1  0  0  0  0
 11 28  1  0  0  0  0
 11 29  1  0  0  0  0
 12 14  1  0  0  0  0
 12 30  1  0  0  0  0
 12 31  1  0  0  0  0
 15 17  1  0  0  0  0
 15 19  1  0  0  0  0
 15 33  1  0  0  0  0
 16 18  1  0  0  0  0
 16 21  1  0  0  0  0
 16 35  1  0  0  0  0
 18 20  1  0  0  0  0
 18 36  1  0  0  0  0
 18 37  1  0  0  0  0
 19 39  1  0  0  0  0
 19 40  1  0  0  0  0
 20 22  2  0  0  0  0
 20 23  1  0  0  0  0
 22 24  1  0  0  0  0
 22 41  1  0  0  0  0
 23 25  2  0  0  0  0
 23 42  1  0  0  0  0
 24 26  2  0  0  0  0
 24 44  1  0  0  0  0
 25 26  1  0  0  0  0
 25 45  1  0  0  0  0
 26 48  1  0  0  0  0
M  END
> <PUBCHEM_COMPOUND_CID>
127501

> <PUBCHEM_CONFORMER_RMSD>
1

> <PUBCHEM_CONFORMER_DIVERSEORDER>
1
17
9
71
47
70
91
26
68
49
45
53
77
54
11
21
93
15
78
75
61
30
92
44
43
27
97
84
95
19
28
90
87
32
89
4
85
33
88
46
72
23
56
29
20
5
60
48
59
13
65
96
50
69
101
31
76
74
3
58
14
52
98
12
73
55
34
62
94
42
18
57
6
8
64
66
25
22
10
2
7
24
86
39
63
100
81
35
104
79
36
16
99
80
102
83
51
67
41
82
37
40
38
103

> <PUBCHEM_MMFF94_PARTIAL_CHARGES>
36
1 -0.57
10 0.36
12 0.06
13 0.57
14 0.57
15 0.36
16 0.36
17 0.57
18 0.14
19 0.28
2 -0.57
20 -0.14
21 0.57
22 -0.15
23 -0.15
24 -0.15
25 -0.15
26 -0.15
3 -0.68
32 0.37
34 0.37
38 0.37
4 -0.57
41 0.15
42 0.15
43 0.4
44 0.15
45 0.15
46 0.37
47 0.37
48 0.15
5 -0.57
6 -0.73
7 -0.73
8 -0.73
9 -0.8

> <PUBCHEM_EFFECTIVE_ROTOR_COUNT>
10.8

> <PUBCHEM_PHARMACOPHORE_FEATURES>
12
1 1 acceptor
1 2 acceptor
1 3 acceptor
1 3 donor
1 4 acceptor
1 5 acceptor
1 6 donor
1 7 donor
1 8 donor
1 9 donor
5 6 10 11 12 14 rings
6 20 22 23 24 25 26 rings

> <PUBCHEM_HEAVY_ATOM_COUNT>
26

> <PUBCHEM_ATOM_DEF_STEREO_COUNT>
3

> <PUBCHEM_ATOM_UDEF_STEREO_COUNT>
0

> <PUBCHEM_BOND_DEF_STEREO_COUNT>
0

> <PUBCHEM_BOND_UDEF_STEREO_COUNT>
0

> <PUBCHEM_ISOTOPIC_ATOM_COUNT>
0

> <PUBCHEM_COMPONENT_COUNT>
1

> <PUBCHEM_CACTVS_TAUTO_COUNT>
24

> <PUBCHEM_CONFORMER_ID>
0001F20D00000001

> <PUBCHEM_MMFF94_ENERGY>
60.6145

> <PUBCHEM_FEATURE_SELFOVERLAP>
60.903

> <PUBCHEM_SHAPE_FINGERPRINT>
10074138 170 16242617121569226547
12403259 226 18191301791818928835
12403260 363 18266730471312035111
12422481 6 18052512638580055208
12788726 201 18409735020069179962
13122387 1 17473822823560627741
13402501 40 18407755928734696189
13583140 156 17533195691114242379
14466204 15 18336255778343691866
15210252 30 18188218619322547060
17093844 170 18338789022795536297
17357779 13 18272087171682175164
19930381 70 18337388365925927859
20600515 1 18342466962489279180
20764821 26 18408603695049242325
22113638 7 18339356469821731162
23558518 356 17906443682233490810
238 59 17903879535433683237
3027735 51 18197498424403801632
3052486 1 18265910059628314956
3524813 1 18114170943729458037

> <PUBCHEM_SHAPE_MULTIPOLES>
485.8
8.2
5.38
1.2
1.81
1.08
0.16
-0.4
0.83
-1.52
0.53
0.25
0.02
-0.07

> <PUBCHEM_SHAPE_SELFOVERLAP>
1011.589

> <PUBCHEM_SHAPE_VOLUME>
274.5

> <PUBCHEM_COORDINATE_TYPE>
2
5
10

$$$$
