127583
  -OEChem-03292013323D

 34 34  0     0  0  0  0  0  0999 V2000
   -2.2732    0.1140    0.8793 O   0  0  0  0  0  0  0  0  0  0  0  0
    4.9612   -0.2028   -0.0448 O   0  0  0  0  0  0  0  0  0  0  0  0
   -3.9460   -2.1983    0.5589 O   0  0  0  0  0  0  0  0  0  0  0  0
   -3.8183    2.3780    0.0219 O   0  0  0  0  0  0  0  0  0  0  0  0
    2.7307    0.0535    1.4150 O   0  0  0  0  0  0  0  0  0  0  0  0
   -1.5243   -0.2396   -1.2768 O   0  0  0  0  0  0  0  0  0  0  0  0
    7.4035    1.0528    0.5010 O   0  0  0  0  0  0  0  0  0  0  0  0
   -3.5731    0.0857    0.3283 N   0  0  0  0  0  0  0  0  0  0  0  0
   -5.5822   -0.7189   -0.4376 C   0  0  0  0  0  0  0  0  0  0  0  0
   -5.5397    0.8003   -0.6160 C   0  0  0  0  0  0  0  0  0  0  0  0
   -4.2749   -1.0725    0.2184 C   0  0  0  0  0  0  0  0  0  0  0  0
   -4.2108    1.2238   -0.0511 C   0  0  0  0  0  0  0  0  0  0  0  0
    1.1854   -0.2024   -0.4277 C   0  0  0  0  0  0  0  0  0  0  0  0
    0.0455   -0.0249    0.5716 C   0  0  0  0  0  0  0  0  0  0  0  0
    2.5653   -0.1221    0.2090 C   0  0  0  0  0  0  0  0  0  0  0  0
   -1.3192   -0.0658   -0.0830 C   0  0  0  0  0  0  0  0  0  0  0  0
    3.7358   -0.2804   -0.7417 C   0  0  0  0  0  0  0  0  0  0  0  0
    6.0783   -0.3489   -0.9168 C   0  0  0  0  0  0  0  0  0  0  0  0
    7.3559   -0.2317   -0.1081 C   0  0  0  0  0  0  0  0  0  0  0  0
   -6.4136   -1.0197    0.2064 H   0  0  0  0  0  0  0  0  0  0  0  0
   -5.6633   -1.2300   -1.4013 H   0  0  0  0  0  0  0  0  0  0  0  0
   -6.3492    1.2874   -0.0646 H   0  0  0  0  0  0  0  0  0  0  0  0
   -5.5988    1.0782   -1.6724 H   0  0  0  0  0  0  0  0  0  0  0  0
    1.1264    0.5744   -1.1989 H   0  0  0  0  0  0  0  0  0  0  0  0
    1.0970   -1.1768   -0.9216 H   0  0  0  0  0  0  0  0  0  0  0  0
    0.1500    0.9405    1.0804 H   0  0  0  0  0  0  0  0  0  0  0  0
    0.0890   -0.8206    1.3243 H   0  0  0  0  0  0  0  0  0  0  0  0
    3.6793    0.5207   -1.4865 H   0  0  0  0  0  0  0  0  0  0  0  0
    3.6479   -1.2564   -1.2308 H   0  0  0  0  0  0  0  0  0  0  0  0
    6.0370   -1.3252   -1.4119 H   0  0  0  0  0  0  0  0  0  0  0  0
    6.0440    0.4446   -1.6724 H   0  0  0  0  0  0  0  0  0  0  0  0
    8.2340   -0.3525   -0.7490 H   0  0  0  0  0  0  0  0  0  0  0  0
    7.3780   -0.9812    0.6893 H   0  0  0  0  0  0  0  0  0  0  0  0
    8.2308    1.0960    1.0102 H   0  0  0  0  0  0  0  0  0  0  0  0
  1  8  1  0  0  0  0
  1 16  1  0  0  0  0
  2 17  1  0  0  0  0
  2 18  1  0  0  0  0
  3 11  2  0  0  0  0
  4 12  2  0  0  0  0
  5 15  2  0  0  0  0
  6 16  2  0  0  0  0
  7 19  1  0  0  0  0
  7 34  1  0  0  0  0
  8 11  1  0  0  0  0
  8 12  1  0  0  0  0
  9 10  1  0  0  0  0
  9 11  1  0  0  0  0
  9 20  1  0  0  0  0
  9 21  1  0  0  0  0
 10 12  1  0  0  0  0
 10 22  1  0  0  0  0
 10 23  1  0  0  0  0
 13 14  1  0  0  0  0
 13 15  1  0  0  0  0
 13 24  1  0  0  0  0
 13 25  1  0  0  0  0
 14 16  1  0  0  0  0
 14 26  1  0  0  0  0
 14 27  1  0  0  0  0
 15 17  1  0  0  0  0
 17 28  1  0  0  0  0
 17 29  1  0  0  0  0
 18 19  1  0  0  0  0
 18 30  1  0  0  0  0
 18 31  1  0  0  0  0
 19 32  1  0  0  0  0
 19 33  1  0  0  0  0
M  END
> <PUBCHEM_COMPOUND_CID>
127583

> <PUBCHEM_CONFORMER_RMSD>
0.8

> <PUBCHEM_CONFORMER_DIVERSEORDER>
1
117
144
56
26
173
67
116
155
48
102
88
120
154
66
177
99
10
124
158
171
150
40
176
162
105
36
61
153
122
69
92
101
164
133
118
84
142
179
64
123
77
107
174
62
161
119
128
7
103
108
27
151
132
146
46
130
182
112
89
19
73
85
121
38
50
178
97
175
35
106
96
152
13
43
139
138
134
183
127
41
9
136
17
23
49
111
33
59
145
137
98
180
141
60
65
32
126
6
147
135
20
181
14
8
83
25
44
18
51
63
70
55
53
157
110
159
125
156
68
52
148
160
29
184
113
91
5
90
12
4
28
74
166
3
24
72
169
172
47
21
140
79
163
22
30
87
167
34
31
94
114
45
57
39
15
82
170
11
143
76
42
100
2
131
109
37
165
71
115
129
104
81
16
58
80
93
86
168
54
75
78
149
95

> <PUBCHEM_MMFF94_PARTIAL_CHARGES>
20
1 -0.19
10 0.06
11 0.57
12 0.57
13 0.06
14 0.06
15 0.45
16 0.66
17 0.34
18 0.28
19 0.28
2 -0.56
3 -0.57
34 0.4
4 -0.57
5 -0.57
6 -0.57
7 -0.68
8 -0.08
9 0.06

> <PUBCHEM_EFFECTIVE_ROTOR_COUNT>
9.6

> <PUBCHEM_PHARMACOPHORE_FEATURES>
8
1 2 acceptor
1 3 acceptor
1 4 acceptor
1 5 acceptor
1 6 acceptor
1 7 acceptor
1 7 donor
5 8 9 10 11 12 rings

> <PUBCHEM_HEAVY_ATOM_COUNT>
19

> <PUBCHEM_ATOM_DEF_STEREO_COUNT>
0

> <PUBCHEM_ATOM_UDEF_STEREO_COUNT>
0

> <PUBCHEM_BOND_DEF_STEREO_COUNT>
0

> <PUBCHEM_BOND_UDEF_STEREO_COUNT>
0

> <PUBCHEM_ISOTOPIC_ATOM_COUNT>
0

> <PUBCHEM_COMPONENT_COUNT>
1

> <PUBCHEM_CACTVS_TAUTO_COUNT>
9

> <PUBCHEM_CONFORMER_ID>
0001F25F00000001

> <PUBCHEM_MMFF94_ENERGY>
27.4607

> <PUBCHEM_FEATURE_SELFOVERLAP>
40.612

> <PUBCHEM_SHAPE_FINGERPRINT>
10968037 39 16845854598591919044
11089746 13 17531249474102357332
11315181 36 18040720285792032989
12091667 2 18261115174864969539
12166972 35 11599998865098786874
12236239 1 17530965778237151394
13288520 33 18410575111350891023
1420 363 17346885550426600966
14251718 22 18272934916690247774
14251752 14 18342737382584030398
14849402 71 12103262950940689914
15183329 4 17821451231900937630
15716309 27 13470690330371239558
17093844 174 18261109686002175881
17834072 33 18114467837417254020
17834076 25 16008750212382353622
17844677 252 18341900709584811416
19489759 90 18409450276110530605
21054139 6 17822009865032983978
21150785 3 17989481926755655253
2297311 6 18413392042813599945
23081809 10 17167870781322622110
23198884 109 18259987054554876568
23402539 116 17967252005181838846
23536379 177 18408324363619498994
23557571 272 18201162061973441853
23559900 14 18411976996765184313
300161 21 17530961371611229291
57583515 80 16588023515382122902
6327066 14 17679856017366260557

> <PUBCHEM_SHAPE_MULTIPOLES>
344.94
19.15
1.32
0.94
27.73
0.19
0
1.27
-1.68
-2.33
0.12
0.29
-0.04
0.65

> <PUBCHEM_SHAPE_SELFOVERLAP>
690.079

> <PUBCHEM_SHAPE_VOLUME>
203.1

> <PUBCHEM_COORDINATE_TYPE>
2
5
10

$$$$
