127569
  -OEChem-03292013323D

 60 62  0     1  0  0  0  0  0999 V2000
    3.0965    0.4701   -0.6218 O   0  0  0  0  0  0  0  0  0  0  0  0
    2.8354   -1.0251    1.1503 O   0  0  0  0  0  0  0  0  0  0  0  0
    6.8656    1.5063    0.6378 O   0  0  0  0  0  0  0  0  0  0  0  0
    5.4618    3.1972   -1.2398 O   0  0  0  0  0  0  0  0  0  0  0  0
    4.9698    0.2443    2.5070 O   0  0  0  0  0  0  0  0  0  0  0  0
    1.7268    1.7665   -2.6216 O   0  0  0  0  0  0  0  0  0  0  0  0
   -0.5791   -3.6278   -0.9307 O   0  0  0  0  0  0  0  0  0  0  0  0
   -2.2038   -4.8848   -1.9353 O   0  0  0  0  0  0  0  0  0  0  0  0
    5.4425    1.6137    0.5771 C   0  0  1  0  0  0  0  0  0  0  0  0
    5.0501    1.8821   -0.8758 C   0  0  1  0  0  0  0  0  0  0  0  0
    4.8121    0.3190    1.0903 C   0  0  2  0  0  0  0  0  0  0  0  0
    3.5362    1.7563   -1.0618 C   0  0  1  0  0  0  0  0  0  0  0  0
    3.3181    0.2635    0.7713 C   0  0  1  0  0  0  0  0  0  0  0  0
    3.1327    1.9043   -2.5254 C   0  0  0  0  0  0  0  0  0  0  0  0
    1.5135   -1.2756    0.9481 C   0  0  0  0  0  0  0  0  0  0  0  0
   -4.1591   -0.0972    0.0831 C   0  0  0  0  0  0  0  0  0  0  0  0
   -5.2249    0.7960    0.7298 C   0  0  0  0  0  0  0  0  0  0  0  0
   -3.7177   -1.3031    0.9168 C   0  0  0  0  0  0  0  0  0  0  0  0
   -5.6470    1.9743   -0.1506 C   0  0  0  0  0  0  0  0  0  0  0  0
   -2.6387   -2.1095    0.2759 C   0  0  0  0  0  0  0  0  0  0  0  0
   -1.2295   -1.7860    0.5362 C   0  0  0  0  0  0  0  0  0  0  0  0
    1.1196   -2.3183    0.1160 C   0  0  0  0  0  0  0  0  0  0  0  0
   -0.2420   -2.5579   -0.0776 C   0  0  0  0  0  0  0  0  0  0  0  0
   -6.7326    2.8123    0.5288 C   0  0  0  0  0  0  0  0  0  0  0  0
    0.5493   -0.4880    1.5746 C   0  0  0  0  0  0  0  0  0  0  0  0
   -0.8122   -0.7404    1.3707 C   0  0  0  0  0  0  0  0  0  0  0  0
   -7.1795    3.9713   -0.3619 C   0  0  0  0  0  0  0  0  0  0  0  0
   -2.9299   -3.1325   -0.5400 C   0  0  0  0  0  0  0  0  0  0  0  0
   -1.8997   -3.9564   -1.1946 C   0  0  0  0  0  0  0  0  0  0  0  0
   -8.2344    4.8254    0.3229 C   0  0  0  0  0  0  0  0  0  0  0  0
    5.1730    2.4616    1.2176 H   0  0  0  0  0  0  0  0  0  0  0  0
    5.5759    1.1807   -1.5353 H   0  0  0  0  0  0  0  0  0  0  0  0
    5.3269   -0.5524    0.6686 H   0  0  0  0  0  0  0  0  0  0  0  0
    3.0026    2.5233   -0.4840 H   0  0  0  0  0  0  0  0  0  0  0  0
    2.7897    1.0323    1.3504 H   0  0  0  0  0  0  0  0  0  0  0  0
    3.5872    1.1176   -3.1367 H   0  0  0  0  0  0  0  0  0  0  0  0
    3.4179    2.8826   -2.9239 H   0  0  0  0  0  0  0  0  0  0  0  0
    7.1355    0.7489    0.0909 H   0  0  0  0  0  0  0  0  0  0  0  0
    4.9902    3.8281   -0.6696 H   0  0  0  0  0  0  0  0  0  0  0  0
    4.5190    1.0103    2.9016 H   0  0  0  0  0  0  0  0  0  0  0  0
   -4.5403   -0.4516   -0.8837 H   0  0  0  0  0  0  0  0  0  0  0  0
   -3.2835    0.5250   -0.1437 H   0  0  0  0  0  0  0  0  0  0  0  0
   -6.1048    0.1837    0.9629 H   0  0  0  0  0  0  0  0  0  0  0  0
   -4.8404    1.1750    1.6847 H   0  0  0  0  0  0  0  0  0  0  0  0
   -3.4498   -0.9937    1.9330 H   0  0  0  0  0  0  0  0  0  0  0  0
   -4.6004   -1.9420    1.0655 H   0  0  0  0  0  0  0  0  0  0  0  0
   -6.0200    1.5972   -1.1105 H   0  0  0  0  0  0  0  0  0  0  0  0
   -4.7744    2.6024   -0.3662 H   0  0  0  0  0  0  0  0  0  0  0  0
    1.4927    1.8591   -3.5608 H   0  0  0  0  0  0  0  0  0  0  0  0
    1.8632   -2.9377   -0.3774 H   0  0  0  0  0  0  0  0  0  0  0  0
   -7.5957    2.1776    0.7637 H   0  0  0  0  0  0  0  0  0  0  0  0
   -6.3510    3.2036    1.4797 H   0  0  0  0  0  0  0  0  0  0  0  0
    0.8352    0.3219    2.2404 H   0  0  0  0  0  0  0  0  0  0  0  0
   -1.5199   -0.0909    1.8770 H   0  0  0  0  0  0  0  0  0  0  0  0
   -7.5852    3.5826   -1.3031 H   0  0  0  0  0  0  0  0  0  0  0  0
   -6.3180    4.6002   -0.6149 H   0  0  0  0  0  0  0  0  0  0  0  0
   -3.9608   -3.3970   -0.7556 H   0  0  0  0  0  0  0  0  0  0  0  0
   -7.8478    5.2568    1.2517 H   0  0  0  0  0  0  0  0  0  0  0  0
   -8.5402    5.6473   -0.3319 H   0  0  0  0  0  0  0  0  0  0  0  0
   -9.1234    4.2332    0.5627 H   0  0  0  0  0  0  0  0  0  0  0  0
  1 12  1  0  0  0  0
  1 13  1  0  0  0  0
  2 13  1  0  0  0  0
  2 15  1  0  0  0  0
  3  9  1  0  0  0  0
  3 38  1  0  0  0  0
  4 10  1  0  0  0  0
  4 39  1  0  0  0  0
  5 11  1  0  0  0  0
  5 40  1  0  0  0  0
  6 14  1  0  0  0  0
  6 49  1  0  0  0  0
  7 23  1  0  0  0  0
  7 29  1  0  0  0  0
  8 29  2  0  0  0  0
  9 10  1  0  0  0  0
  9 11  1  0  0  0  0
  9 31  1  0  0  0  0
 10 12  1  0  0  0  0
 10 32  1  0  0  0  0
 11 13  1  0  0  0  0
 11 33  1  0  0  0  0
 12 14  1  0  0  0  0
 12 34  1  0  0  0  0
 13 35  1  0  0  0  0
 14 36  1  0  0  0  0
 14 37  1  0  0  0  0
 15 22  2  0  0  0  0
 15 25  1  0  0  0  0
 16 17  1  0  0  0  0
 16 18  1  0  0  0  0
 16 41  1  0  0  0  0
 16 42  1  0  0  0  0
 17 19  1  0  0  0  0
 17 43  1  0  0  0  0
 17 44  1  0  0  0  0
 18 20  1  0  0  0  0
 18 45  1  0  0  0  0
 18 46  1  0  0  0  0
 19 24  1  0  0  0  0
 19 47  1  0  0  0  0
 19 48  1  0  0  0  0
 20 21  1  0  0  0  0
 20 28  2  0  0  0  0
 21 23  2  0  0  0  0
 21 26  1  0  0  0  0
 22 23  1  0  0  0  0
 22 50  1  0  0  0  0
 24 27  1  0  0  0  0
 24 51  1  0  0  0  0
 24 52  1  0  0  0  0
 25 26  2  0  0  0  0
 25 53  1  0  0  0  0
 26 54  1  0  0  0  0
 27 30  1  0  0  0  0
 27 55  1  0  0  0  0
 27 56  1  0  0  0  0
 28 29  1  0  0  0  0
 28 57  1  0  0  0  0
 30 58  1  0  0  0  0
 30 59  1  0  0  0  0
 30 60  1  0  0  0  0
M  END
> <PUBCHEM_COMPOUND_CID>
127569

> <PUBCHEM_CONFORMER_RMSD>
1

> <PUBCHEM_CONFORMER_DIVERSEORDER>
1
200
11
47
64
133
137
319
392
66
346
28
224
375
58
345
172
43
19
277
208
274
96
237
169
143
320
334
184
302
263
34
152
310
299
68
30
242
206
264
377
202
91
372
129
99
128
190
207
374
279
210
159
98
40
389
388
106
241
355
258
195
307
269
213
83
144
259
306
336
268
296
278
62
385
271
290
367
59
322
201
124
218
244
321
221
161
240
155
233
363
142
84
76
255
77
196
331
283
97
225
181
217
360
138
22
115
111
182
261
165
285
212
254
82
236
249
357
293
198
275
189
15
105
156
37
147
314
386
18
216
326
219
383
366
267
391
56
130
284
338
280
44
204
70
167
183
104
324
311
352
272
215
358
23
75
90
253
214
112
61
239
171
238
356
88
359
248
265
151
373
361
370
170
381
120
69
309
157
287
117
94
36
235
351
95
177
305
312
35
102
13
234
332
153
108
63
160
136
323
79
260
339
378
291
125
250
145
315
8
38
103
185
368
67
349
337
89
223
148
342
270
262
113
282
178
140
50
266
114
174
243
325
194
209
24
57
72
390
340
188
376
176
5
387
51
295
308
328
126
100
16
257
301
292
333
78
131
232
335
318
192
191
65
300
347
39
7
281
327
60
193
205
21
80
141
344
353
187
288
313
246
226
341
110
85
42
371
298
20
329
197
86
180
49
362
222
46
348
175
14
92
122
158
294
231
93
81
289
179
350
303
166
168
164
146
3
41
186
9
276
227
132
330
228
317
199
273
87
150
48
251
154
135
33
163
384
316
162
73
52
6
343
304
252
71
74
382
245
119
364
149
230
27
101
297
139
127
31
380
29
211
26
247
32
379
256
354
365
229
17
121
369
53
12
123
45
2
118
286
107
54
10
25
4
173
203
220
116
55
134
109

> <PUBCHEM_MMFF94_PARTIAL_CHARGES>
32
1 -0.56
10 0.28
11 0.28
12 0.28
13 0.56
14 0.28
15 0.08
18 0.14
2 -0.36
20 -0.17
21 0.03
22 -0.15
23 0.08
25 -0.15
26 -0.15
28 -0.14
29 0.71
3 -0.68
38 0.4
39 0.4
4 -0.68
40 0.4
49 0.4
5 -0.68
50 0.15
53 0.15
54 0.15
57 0.15
6 -0.68
7 -0.23
8 -0.57
9 0.28

> <PUBCHEM_EFFECTIVE_ROTOR_COUNT>
10.2

> <PUBCHEM_PHARMACOPHORE_FEATURES>
17
1 1 acceptor
1 2 acceptor
1 3 acceptor
1 3 donor
1 30 hydrophobe
1 4 acceptor
1 4 donor
1 5 acceptor
1 5 donor
1 6 acceptor
1 6 donor
1 8 acceptor
3 16 17 18 hydrophobe
3 19 24 27 hydrophobe
6 1 9 10 11 12 13 rings
6 15 21 22 23 25 26 rings
6 7 20 21 23 28 29 rings

> <PUBCHEM_HEAVY_ATOM_COUNT>
30

> <PUBCHEM_ATOM_DEF_STEREO_COUNT>
5

> <PUBCHEM_ATOM_UDEF_STEREO_COUNT>
0

> <PUBCHEM_BOND_DEF_STEREO_COUNT>
0

> <PUBCHEM_BOND_UDEF_STEREO_COUNT>
0

> <PUBCHEM_ISOTOPIC_ATOM_COUNT>
0

> <PUBCHEM_COMPONENT_COUNT>
1

> <PUBCHEM_CACTVS_TAUTO_COUNT>
1

> <PUBCHEM_CONFORMER_ID>
0001F25100000001

> <PUBCHEM_MMFF94_ENERGY>
81.6688

> <PUBCHEM_FEATURE_SELFOVERLAP>
86.374

> <PUBCHEM_SHAPE_FINGERPRINT>
105312 117 18202003265482923063
10673678 19 18268997488769330409
10864689 126 18342460318164985616
11062273 29 17341558257903447503
12236239 1 18191863651441384194
12422481 6 17749383750130934781
12975358 362 18046083566665546465
13617811 41 17767686423041896903
13944108 23 17980760438049394481
14294032 229 18270686471789872571
14747282 540 18265049133149858829
15198563 99 17913754288535046743
15803439 3 16702012068241440423
16988056 13 17475236800014332063
20715895 44 18338235960077739801
21033650 10 18053123966780950750
22033318 11 17894906296116567208
22122407 14 17750245853447339009
23522609 53 17677342748501296076
23559900 14 17632309951905133350
23569914 2 17057209402442694704
2748736 6 18336822010090353801
5219985 13 18411698747693917555
6327066 14 18412258403381023337
9849439 229 18339080394193917999

> <PUBCHEM_SHAPE_MULTIPOLES>
570.43
17.98
6.07
1.85
18.88
1.6
-0.64
-32.54
2.48
10.26
-3.32
-2.38
-0.12
-2.56

> <PUBCHEM_SHAPE_SELFOVERLAP>
1186.416

> <PUBCHEM_SHAPE_VOLUME>
321.5

> <PUBCHEM_COORDINATE_TYPE>
2
5
10

$$$$
