127554
  -OEChem-03292013323D

 61 65  0     1  0  0  0  0  0999 V2000
    0.0915    2.3144   -1.6710 O   0  0  0  0  0  0  0  0  0  0  0  0
   -1.1750   -1.9758    0.2232 O   0  0  0  0  0  0  0  0  0  0  0  0
    2.0985    2.8734   -0.5728 O   0  0  0  0  0  0  0  0  0  0  0  0
    0.7350    2.7338    1.9123 O   0  0  0  0  0  0  0  0  0  0  0  0
    4.6175   -0.4392   -0.9495 O   0  0  0  0  0  0  0  0  0  0  0  0
   -3.4215    0.1653   -0.3959 O   0  0  0  0  0  0  0  0  0  0  0  0
    3.9178    0.1974    2.1282 O   0  0  0  0  0  0  0  0  0  0  0  0
   -3.0312   -2.3433    1.4712 O   0  0  0  0  0  0  0  0  0  0  0  0
   -5.0834   -1.2085    0.4340 O   0  0  0  0  0  0  0  0  0  0  0  0
   -0.4337    0.2579   -0.5514 C   0  0  2  0  0  0  0  0  0  0  0  0
    1.0173    0.6807   -0.2196 C   0  0  1  0  0  0  0  0  0  0  0  0
    2.1701   -0.1070   -0.9495 C   0  0  2  0  0  0  0  0  0  0  0  0
   -1.2897    0.6761    0.7000 C   0  0  1  0  0  0  0  0  0  0  0  0
    0.8551    2.2045   -0.4575 C   0  0  2  0  0  0  0  0  0  0  0  0
   -0.7033   -1.2116   -0.9077 C   0  0  1  0  0  0  0  0  0  0  0  0
    1.8450   -1.6504   -0.8762 C   0  0  2  0  0  0  0  0  0  0  0  0
   -0.7333    1.1464   -1.7785 C   0  0  0  0  0  0  0  0  0  0  0  0
   -1.3916    2.2205    0.8296 C   0  0  2  0  0  0  0  0  0  0  0  0
    0.4830   -1.9428   -1.5398 C   0  0  0  0  0  0  0  0  0  0  0  0
    0.0192    2.8544    0.6812 C   0  0  1  0  0  0  0  0  0  0  0  0
    3.5372    0.1610   -0.2386 C   0  0  1  0  0  0  0  0  0  0  0  0
    1.9387   -2.2277    0.5750 C   0  0  2  0  0  0  0  0  0  0  0  0
   -2.6189   -0.0876    0.7334 C   0  0  2  0  0  0  0  0  0  0  0  0
    2.3676    0.3099   -2.4309 C   0  0  0  0  0  0  0  0  0  0  0  0
    3.2942   -1.9280    1.2198 C   0  0  0  0  0  0  0  0  0  0  0  0
    3.5943   -0.4563    1.1381 C   0  0  0  0  0  0  0  0  0  0  0  0
   -2.0636    2.6558    2.1363 C   0  0  0  0  0  0  0  0  0  0  0  0
   -2.3169   -1.5693    0.8422 C   0  0  0  0  0  0  0  0  0  0  0  0
    1.7111   -3.7442    0.6256 C   0  0  0  0  0  0  0  0  0  0  0  0
   -4.6454   -0.4603   -0.4294 C   0  0  0  0  0  0  0  0  0  0  0  0
   -5.3855   -0.0998   -1.6818 C   0  0  0  0  0  0  0  0  0  0  0  0
    1.2121    0.5231    0.8476 H   0  0  0  0  0  0  0  0  0  0  0  0
   -0.7495    0.3293    1.5962 H   0  0  0  0  0  0  0  0  0  0  0  0
   -1.5203   -1.2682   -1.6411 H   0  0  0  0  0  0  0  0  0  0  0  0
    2.5884   -2.1896   -1.4796 H   0  0  0  0  0  0  0  0  0  0  0  0
   -0.5050    0.6588   -2.7293 H   0  0  0  0  0  0  0  0  0  0  0  0
   -1.7795    1.4568   -1.8495 H   0  0  0  0  0  0  0  0  0  0  0  0
   -2.0197    2.6049    0.0166 H   0  0  0  0  0  0  0  0  0  0  0  0
    0.5389   -1.6662   -2.5987 H   0  0  0  0  0  0  0  0  0  0  0  0
    0.2916   -3.0216   -1.5448 H   0  0  0  0  0  0  0  0  0  0  0  0
   -0.0947    3.9272    0.4788 H   0  0  0  0  0  0  0  0  0  0  0  0
    3.7618    1.2262   -0.1569 H   0  0  0  0  0  0  0  0  0  0  0  0
    1.1708   -1.7585    1.2009 H   0  0  0  0  0  0  0  0  0  0  0  0
   -3.1638    0.1948    1.6424 H   0  0  0  0  0  0  0  0  0  0  0  0
    3.1141   -0.3229   -2.9252 H   0  0  0  0  0  0  0  0  0  0  0  0
    1.4663    0.2252   -3.0343 H   0  0  0  0  0  0  0  0  0  0  0  0
    2.7212    1.3422   -2.5155 H   0  0  0  0  0  0  0  0  0  0  0  0
    4.1070   -2.4851    0.7417 H   0  0  0  0  0  0  0  0  0  0  0  0
    3.2793   -2.2182    2.2773 H   0  0  0  0  0  0  0  0  0  0  0  0
   -1.6016    2.1838    3.0095 H   0  0  0  0  0  0  0  0  0  0  0  0
   -2.0047    3.7426    2.2598 H   0  0  0  0  0  0  0  0  0  0  0  0
   -3.1257    2.3911    2.1360 H   0  0  0  0  0  0  0  0  0  0  0  0
    1.9642    3.8127   -0.3643 H   0  0  0  0  0  0  0  0  0  0  0  0
    1.8854   -4.1296    1.6364 H   0  0  0  0  0  0  0  0  0  0  0  0
    0.6846   -4.0108    0.3605 H   0  0  0  0  0  0  0  0  0  0  0  0
    2.3890   -4.2688   -0.0560 H   0  0  0  0  0  0  0  0  0  0  0  0
    0.3655    3.3809    2.5364 H   0  0  0  0  0  0  0  0  0  0  0  0
    4.4224   -1.3734   -1.1209 H   0  0  0  0  0  0  0  0  0  0  0  0
   -4.8098   -0.4176   -2.5547 H   0  0  0  0  0  0  0  0  0  0  0  0
   -5.5623    0.9782   -1.7088 H   0  0  0  0  0  0  0  0  0  0  0  0
   -6.3510   -0.6135   -1.6942 H   0  0  0  0  0  0  0  0  0  0  0  0
  1 14  1  0  0  0  0
  1 17  1  0  0  0  0
  2 15  1  0  0  0  0
  2 28  1  0  0  0  0
  3 14  1  0  0  0  0
  3 53  1  0  0  0  0
  4 20  1  0  0  0  0
  4 57  1  0  0  0  0
  5 21  1  0  0  0  0
  5 58  1  0  0  0  0
  6 23  1  0  0  0  0
  6 30  1  0  0  0  0
  7 26  2  0  0  0  0
  8 28  2  0  0  0  0
  9 30  2  0  0  0  0
 10 11  1  0  0  0  0
 10 13  1  0  0  0  0
 10 15  1  0  0  0  0
 10 17  1  0  0  0  0
 11 12  1  0  0  0  0
 11 14  1  0  0  0  0
 11 32  1  0  0  0  0
 12 16  1  0  0  0  0
 12 21  1  0  0  0  0
 12 24  1  0  0  0  0
 13 18  1  0  0  0  0
 13 23  1  0  0  0  0
 13 33  1  0  0  0  0
 14 20  1  0  0  0  0
 15 19  1  0  0  0  0
 15 34  1  0  0  0  0
 16 19  1  0  0  0  0
 16 22  1  0  0  0  0
 16 35  1  0  0  0  0
 17 36  1  0  0  0  0
 17 37  1  0  0  0  0
 18 20  1  0  0  0  0
 18 27  1  0  0  0  0
 18 38  1  0  0  0  0
 19 39  1  0  0  0  0
 19 40  1  0  0  0  0
 20 41  1  0  0  0  0
 21 26  1  0  0  0  0
 21 42  1  0  0  0  0
 22 25  1  0  0  0  0
 22 29  1  0  0  0  0
 22 43  1  0  0  0  0
 23 28  1  0  0  0  0
 23 44  1  0  0  0  0
 24 45  1  0  0  0  0
 24 46  1  0  0  0  0
 24 47  1  0  0  0  0
 25 26  1  0  0  0  0
 25 48  1  0  0  0  0
 25 49  1  0  0  0  0
 27 50  1  0  0  0  0
 27 51  1  0  0  0  0
 27 52  1  0  0  0  0
 29 54  1  0  0  0  0
 29 55  1  0  0  0  0
 29 56  1  0  0  0  0
 30 31  1  0  0  0  0
 31 59  1  0  0  0  0
 31 60  1  0  0  0  0
 31 61  1  0  0  0  0
M  END
> <PUBCHEM_COMPOUND_CID>
127554

> <PUBCHEM_CONFORMER_RMSD>
0.8

> <PUBCHEM_CONFORMER_DIVERSEORDER>
1
3
2

> <PUBCHEM_MMFF94_PARTIAL_CHARGES>
23
1 -0.56
14 0.56
15 0.28
17 0.28
2 -0.43
20 0.28
21 0.34
23 0.34
25 0.06
26 0.45
28 0.66
3 -0.68
30 0.66
31 0.06
4 -0.68
5 -0.68
53 0.4
57 0.4
58 0.4
6 -0.43
7 -0.57
8 -0.57
9 -0.57

> <PUBCHEM_EFFECTIVE_ROTOR_COUNT>
4

> <PUBCHEM_PHARMACOPHORE_FEATURES>
14
1 1 acceptor
1 3 acceptor
1 3 donor
1 4 acceptor
1 4 donor
1 5 acceptor
1 5 donor
1 7 acceptor
1 8 acceptor
1 9 acceptor
6 10 11 12 15 16 19 rings
6 12 16 21 22 25 26 rings
6 2 10 13 15 23 28 rings
8 1 10 11 13 14 17 18 20 rings

> <PUBCHEM_HEAVY_ATOM_COUNT>
31

> <PUBCHEM_ATOM_DEF_STEREO_COUNT>
11

> <PUBCHEM_ATOM_UDEF_STEREO_COUNT>
1

> <PUBCHEM_BOND_DEF_STEREO_COUNT>
0

> <PUBCHEM_BOND_UDEF_STEREO_COUNT>
0

> <PUBCHEM_ISOTOPIC_ATOM_COUNT>
0

> <PUBCHEM_COMPONENT_COUNT>
1

> <PUBCHEM_CACTVS_TAUTO_COUNT>
4

> <PUBCHEM_CONFORMER_ID>
0001F24200000001

> <PUBCHEM_MMFF94_ENERGY>
128.5965

> <PUBCHEM_FEATURE_SELFOVERLAP>
71.245

> <PUBCHEM_SHAPE_FINGERPRINT>
10366900 7 18271807904281764106
10863032 1 17458913750460852655
1100329 8 18268429220966206798
11578080 2 18041552658575253188
12011746 2 18412826880392975678
12156800 1 14111958484534378288
12553582 1 18338255789957517633
12788726 201 18271251504216714217
13140716 1 18197497543824917955
13224815 77 18267310841283076174
13583140 156 18042689575542265947
14081887 123 17915463796090316280
14178342 30 18127981797274274840
14223421 5 18127126381944578586
14251757 17 17024853880524331927
14787075 74 18131350855663138240
16752209 62 18341061730514604557
16945 1 18336565848948850013
17349148 13 18412266129726482279
18981168 100 14403467543992756448
20691752 17 17898310315269759018
20715895 44 17533765028042111855
20905425 154 18198912400625916310
21285901 2 17604701167280109127
21421861 104 18193587586388121713
2334 1 17837503212022499319
23419403 2 17980160215915720589
23559900 14 18261953058823932989
2818148 4 17979090284001960486
3380486 77 17750796554106695275
35225 105 16696144910369782680
392239 28 18342451591138625858
394222 165 16951986157054272500
460360 51 17823709568501899109
484985 159 16161833880820940970
81228 2 18122076299115477299

> <PUBCHEM_SHAPE_MULTIPOLES>
585.14
7.45
3.53
1.96
5.17
0.45
0.15
-3.19
-0.02
-0.44
-1.29
-0.3
0.55
-0.6

> <PUBCHEM_SHAPE_SELFOVERLAP>
1278.557

> <PUBCHEM_SHAPE_VOLUME>
309.7

> <PUBCHEM_COORDINATE_TYPE>
2
5
10

$$$$
