127582
  -OEChem-03292013323D

 47 48  0     0  0  0  0  0  0999 V2000
    4.2904   -1.4888    0.1124 S   0  0  0  0  0  0  0  0  0  0  0  0
    3.8161    0.0968   -1.1074 S   0  0  0  0  0  0  0  0  0  0  0  0
    1.1844    1.8938   -2.0827 N   0  0  0  0  0  0  0  0  0  0  0  0
    2.5255    0.8363    1.1744 N   0  0  0  0  0  0  0  0  0  0  0  0
   -0.3850    2.8713   -0.8377 N   0  0  0  0  0  0  0  0  0  0  0  0
    0.4930    2.1778    1.3206 N   0  0  0  0  0  0  0  0  0  0  0  0
    1.5604    1.3713    3.2399 N   0  0  0  0  0  0  0  0  0  0  0  0
   -1.2691   -2.1311   -0.2778 C   0  0  0  0  0  0  0  0  0  0  0  0
   -2.7193   -2.0467    0.2044 C   0  0  0  0  0  0  0  0  0  0  0  0
   -0.6368   -3.4720    0.1017 C   0  0  0  0  0  0  0  0  0  0  0  0
   -3.3664   -0.7219   -0.2064 C   0  0  0  0  0  0  0  0  0  0  0  0
    0.7935   -3.6404   -0.4189 C   0  0  0  0  0  0  0  0  0  0  0  0
   -4.8260   -0.6542    0.2486 C   0  0  0  0  0  0  0  0  0  0  0  0
    1.7572   -2.5622    0.0862 C   0  0  0  0  0  0  0  0  0  0  0  0
   -5.5126    0.6651   -0.1108 C   0  0  0  0  0  0  0  0  0  0  0  0
    3.1540   -2.7677   -0.4949 C   0  0  0  0  0  0  0  0  0  0  0  0
   -6.9827    0.7096    0.2764 C   0  0  0  0  0  0  0  0  0  0  0  0
    2.5272    0.9046   -0.1759 C   0  0  0  0  0  0  0  0  0  0  0  0
    1.5099    1.6111   -0.7867 C   0  0  0  0  0  0  0  0  0  0  0  0
    0.5208    2.2286   -0.0329 C   0  0  0  0  0  0  0  0  0  0  0  0
    0.0425    2.6506   -2.0625 C   0  0  0  0  0  0  0  0  0  0  0  0
    1.5229    1.4681    1.8301 C   0  0  0  0  0  0  0  0  0  0  0  0
   -0.7111   -1.3024    0.1708 H   0  0  0  0  0  0  0  0  0  0  0  0
   -1.2317   -2.0018   -1.3660 H   0  0  0  0  0  0  0  0  0  0  0  0
   -2.7512   -2.1504    1.2957 H   0  0  0  0  0  0  0  0  0  0  0  0
   -3.2944   -2.8801   -0.2172 H   0  0  0  0  0  0  0  0  0  0  0  0
   -0.6374   -3.5790    1.1935 H   0  0  0  0  0  0  0  0  0  0  0  0
   -1.2489   -4.2904   -0.2965 H   0  0  0  0  0  0  0  0  0  0  0  0
   -2.8060    0.1131    0.2316 H   0  0  0  0  0  0  0  0  0  0  0  0
   -3.3179   -0.6079   -1.2960 H   0  0  0  0  0  0  0  0  0  0  0  0
    1.1622   -4.6286   -0.1177 H   0  0  0  0  0  0  0  0  0  0  0  0
    0.7765   -3.6302   -1.5159 H   0  0  0  0  0  0  0  0  0  0  0  0
   -5.3825   -1.4834   -0.2059 H   0  0  0  0  0  0  0  0  0  0  0  0
   -4.8761   -0.7978    1.3351 H   0  0  0  0  0  0  0  0  0  0  0  0
    1.3781   -1.5850   -0.2173 H   0  0  0  0  0  0  0  0  0  0  0  0
    1.7870   -2.5854    1.1824 H   0  0  0  0  0  0  0  0  0  0  0  0
   -4.9889    1.4927    0.3823 H   0  0  0  0  0  0  0  0  0  0  0  0
   -5.4289    0.8352   -1.1909 H   0  0  0  0  0  0  0  0  0  0  0  0
    3.5466   -3.7368   -0.1685 H   0  0  0  0  0  0  0  0  0  0  0  0
    3.1428   -2.7770   -1.5901 H   0  0  0  0  0  0  0  0  0  0  0  0
   -7.5444   -0.0803   -0.2322 H   0  0  0  0  0  0  0  0  0  0  0  0
   -7.1055    0.5776    1.3560 H   0  0  0  0  0  0  0  0  0  0  0  0
   -7.4206    1.6731   -0.0019 H   0  0  0  0  0  0  0  0  0  0  0  0
    1.6906    1.5998   -2.9075 H   0  0  0  0  0  0  0  0  0  0  0  0
   -0.4227    3.0055   -2.9711 H   0  0  0  0  0  0  0  0  0  0  0  0
    0.8406    1.8219    3.7878 H   0  0  0  0  0  0  0  0  0  0  0  0
    2.3072    0.8538    3.6823 H   0  0  0  0  0  0  0  0  0  0  0  0
  1  2  1  0  0  0  0
  1 16  1  0  0  0  0
  2 18  1  0  0  0  0
  3 19  1  0  0  0  0
  3 21  1  0  0  0  0
  3 44  1  0  0  0  0
  4 18  2  0  0  0  0
  4 22  1  0  0  0  0
  5 20  1  0  0  0  0
  5 21  2  0  0  0  0
  6 20  1  0  0  0  0
  6 22  2  0  0  0  0
  7 22  1  0  0  0  0
  7 46  1  0  0  0  0
  7 47  1  0  0  0  0
  8  9  1  0  0  0  0
  8 10  1  0  0  0  0
  8 23  1  0  0  0  0
  8 24  1  0  0  0  0
  9 11  1  0  0  0  0
  9 25  1  0  0  0  0
  9 26  1  0  0  0  0
 10 12  1  0  0  0  0
 10 27  1  0  0  0  0
 10 28  1  0  0  0  0
 11 13  1  0  0  0  0
 11 29  1  0  0  0  0
 11 30  1  0  0  0  0
 12 14  1  0  0  0  0
 12 31  1  0  0  0  0
 12 32  1  0  0  0  0
 13 15  1  0  0  0  0
 13 33  1  0  0  0  0
 13 34  1  0  0  0  0
 14 16  1  0  0  0  0
 14 35  1  0  0  0  0
 14 36  1  0  0  0  0
 15 17  1  0  0  0  0
 15 37  1  0  0  0  0
 15 38  1  0  0  0  0
 16 39  1  0  0  0  0
 16 40  1  0  0  0  0
 17 41  1  0  0  0  0
 17 42  1  0  0  0  0
 17 43  1  0  0  0  0
 18 19  1  0  0  0  0
 19 20  2  0  0  0  0
 21 45  1  0  0  0  0
M  END
> <PUBCHEM_COMPOUND_CID>
127582

> <PUBCHEM_CONFORMER_RMSD>
1.4

> <PUBCHEM_CONFORMER_DIVERSEORDER>
1
63
20
41
12
21
10
43
57
58
80
74
8
79
51
81
67
78
26
55
9
45
39
33
3
25
44
75
73
66
62
7
15
77
31
13
16
64
40
53
76
19
60
6
14
68
24
27
18
47
65
61
50
30
5
59
23
35
38
32
4
17
42
29
28
2
72
11
46
71
70
22
34
56
69
54
82
37
49
48
52
36

> <PUBCHEM_MMFF94_PARTIAL_CHARGES>
17
1 -0.23
16 0.23
18 0.41
19 -0.15
2 -0.1
20 0.48
21 0.04
22 0.72
3 0.03
4 -0.62
44 0.27
45 0.15
46 0.4
47 0.4
5 -0.57
6 -0.57
7 -0.9

> <PUBCHEM_EFFECTIVE_ROTOR_COUNT>
11

> <PUBCHEM_PHARMACOPHORE_FEATURES>
8
1 17 hydrophobe
1 3 donor
1 4 acceptor
1 7 donor
3 3 5 21 cation
4 4 6 7 22 cation
5 3 5 19 20 21 rings
6 4 6 18 19 20 22 rings

> <PUBCHEM_HEAVY_ATOM_COUNT>
22

> <PUBCHEM_ATOM_DEF_STEREO_COUNT>
0

> <PUBCHEM_ATOM_UDEF_STEREO_COUNT>
0

> <PUBCHEM_BOND_DEF_STEREO_COUNT>
0

> <PUBCHEM_BOND_UDEF_STEREO_COUNT>
0

> <PUBCHEM_ISOTOPIC_ATOM_COUNT>
0

> <PUBCHEM_COMPONENT_COUNT>
1

> <PUBCHEM_CACTVS_TAUTO_COUNT>
9

> <PUBCHEM_CONFORMER_ID>
0001F25E00000001

> <PUBCHEM_MMFF94_ENERGY>
13.9495

> <PUBCHEM_FEATURE_SELFOVERLAP>
40.727

> <PUBCHEM_SHAPE_FINGERPRINT>
10688039 33 17896886456317639311
10764073 3 17985804129998178024
12156800 1 17393291357678901194
13075007 39 17750821950754374971
13402501 40 18335700482090700199
13965767 371 18123157294854488802
14464042 87 18059581217992212739
151778 21 18046929326764815947
15210252 30 18041573528316365638
17093844 170 18409728478179717476
17492 54 18042711467085370222
17921350 177 17314766650957388031
23419403 2 17915434191645330624
3014063 31 18337955563064155847
508706 21 17968362474030712831
550186 83 17530951476143982709
6443956 14 18412547600065282251

> <PUBCHEM_SHAPE_MULTIPOLES>
435.54
9.84
4.6
1.77
21.18
2.3
1
1.2
0.2
-1.91
-0.89
-1.42
-1.91
0.48

> <PUBCHEM_SHAPE_SELFOVERLAP>
849.867

> <PUBCHEM_SHAPE_VOLUME>
264.4

> <PUBCHEM_COORDINATE_TYPE>
2
5
10

$$$$
