127593
  -OEChem-03292013323D

 39 41  0     1  0  0  0  0  0999 V2000
   -2.2395    2.5817   -1.1205 O   0  0  0  0  0  0  0  0  0  0  0  0
   -2.7487   -1.1416   -0.4283 O   0  0  0  0  0  0  0  0  0  0  0  0
    3.5035    1.2061   -0.6363 O   0  0  0  0  0  0  0  0  0  0  0  0
    0.1446   -2.8186    0.6769 O   0  0  0  0  0  0  0  0  0  0  0  0
   -4.4268   -2.0542    0.8566 O   0  0  0  0  0  0  0  0  0  0  0  0
    0.5967    1.6123   -0.1385 N   0  0  0  0  0  0  0  0  0  0  0  0
   -0.2283    4.2617    1.4106 N   0  0  0  0  0  0  0  0  0  0  0  0
    2.7490   -3.4449    0.2882 N   0  0  0  0  0  0  0  0  0  0  0  0
   -4.4594   -2.2012   -1.4379 N   0  0  0  0  0  0  0  0  0  0  0  0
   -0.4271    3.7119    0.0685 C   0  0  2  0  0  0  0  0  0  0  0  0
   -0.7137    1.3622    0.1483 C   0  0  0  0  0  0  0  0  0  0  0  0
   -1.5169    2.6002    0.1018 C   0  0  2  0  0  0  0  0  0  0  0  0
    0.8691    3.0113   -0.4112 C   0  0  0  0  0  0  0  0  0  0  0  0
   -0.8452    0.0208    0.3969 C   0  0  0  0  0  0  0  0  0  0  0  0
    1.3340    0.4819   -0.0936 C   0  0  0  0  0  0  0  0  0  0  0  0
    0.4619   -0.5385    0.2408 C   0  0  0  0  0  0  0  0  0  0  0  0
   -2.0884   -0.6884    0.7537 C   0  0  0  0  0  0  0  0  0  0  0  0
    2.7344    0.2991   -0.3332 C   0  0  0  0  0  0  0  0  0  0  0  0
    0.9057   -1.9040    0.3820 C   0  0  0  0  0  0  0  0  0  0  0  0
    3.2273   -1.1223   -0.1889 C   0  0  0  0  0  0  0  0  0  0  0  0
    2.3845   -2.1324    0.1397 C   0  0  0  0  0  0  0  0  0  0  0  0
    4.7032   -1.2853   -0.4408 C   0  0  0  0  0  0  0  0  0  0  0  0
   -3.9200   -1.8177   -0.2350 C   0  0  0  0  0  0  0  0  0  0  0  0
   -0.6938    4.5328   -0.6056 H   0  0  0  0  0  0  0  0  0  0  0  0
   -2.2194    2.6929    0.9355 H   0  0  0  0  0  0  0  0  0  0  0  0
    1.0056    3.1107   -1.4928 H   0  0  0  0  0  0  0  0  0  0  0  0
    1.7743    3.3180    0.1201 H   0  0  0  0  0  0  0  0  0  0  0  0
   -2.7591   -0.0082    1.2940 H   0  0  0  0  0  0  0  0  0  0  0  0
   -1.8828   -1.5384    1.4131 H   0  0  0  0  0  0  0  0  0  0  0  0
    0.5475    4.9228    1.3965 H   0  0  0  0  0  0  0  0  0  0  0  0
    0.0455    3.5200    2.0542 H   0  0  0  0  0  0  0  0  0  0  0  0
   -2.7059    3.4317   -1.1946 H   0  0  0  0  0  0  0  0  0  0  0  0
    5.2763   -0.6713    0.2624 H   0  0  0  0  0  0  0  0  0  0  0  0
    4.9497   -0.9665   -1.4594 H   0  0  0  0  0  0  0  0  0  0  0  0
    5.0565   -2.3130   -0.3313 H   0  0  0  0  0  0  0  0  0  0  0  0
    2.0483   -4.1331    0.5352 H   0  0  0  0  0  0  0  0  0  0  0  0
    3.7061   -3.7401    0.1542 H   0  0  0  0  0  0  0  0  0  0  0  0
   -5.3324   -2.7158   -1.4856 H   0  0  0  0  0  0  0  0  0  0  0  0
   -4.0016   -1.9816   -2.3162 H   0  0  0  0  0  0  0  0  0  0  0  0
  1 12  1  0  0  0  0
  1 32  1  0  0  0  0
  2 17  1  0  0  0  0
  2 23  1  0  0  0  0
  3 18  2  0  0  0  0
  4 19  2  0  0  0  0
  5 23  2  0  0  0  0
  6 11  1  0  0  0  0
  6 13  1  0  0  0  0
  6 15  1  0  0  0  0
  7 10  1  0  0  0  0
  7 30  1  0  0  0  0
  7 31  1  0  0  0  0
  8 21  1  0  0  0  0
  8 36  1  0  0  0  0
  8 37  1  0  0  0  0
  9 23  1  0  0  0  0
  9 38  1  0  0  0  0
  9 39  1  0  0  0  0
 10 12  1  0  0  0  0
 10 13  1  0  0  0  0
 10 24  1  0  0  0  0
 11 12  1  0  0  0  0
 11 14  2  0  0  0  0
 12 25  1  0  0  0  0
 13 26  1  0  0  0  0
 13 27  1  0  0  0  0
 14 16  1  0  0  0  0
 14 17  1  0  0  0  0
 15 16  2  0  0  0  0
 15 18  1  0  0  0  0
 16 19  1  0  0  0  0
 17 28  1  0  0  0  0
 17 29  1  0  0  0  0
 18 20  1  0  0  0  0
 19 21  1  0  0  0  0
 20 21  2  0  0  0  0
 20 22  1  0  0  0  0
 22 33  1  0  0  0  0
 22 34  1  0  0  0  0
 22 35  1  0  0  0  0
M  END
> <PUBCHEM_COMPOUND_CID>
127593

> <PUBCHEM_CONFORMER_RMSD>
0.6

> <PUBCHEM_CONFORMER_DIVERSEORDER>
1
13
5
8
3
9
7
4
11
12
2
10
6

> <PUBCHEM_MMFF94_PARTIAL_CHARGES>
30
1 -0.68
10 0.27
11 -0.33
12 0.46
13 0.26
14 -0.18
15 -0.24
16 -0.09
17 0.46
18 0.64
19 0.64
2 -0.43
20 -0.12
21 0.11
22 0.14
23 0.78
3 -0.57
30 0.36
31 0.36
32 0.4
36 0.4
37 0.4
38 0.37
39 0.37
4 -0.57
5 -0.57
6 0.05
7 -0.99
8 -0.9
9 -0.8

> <PUBCHEM_EFFECTIVE_ROTOR_COUNT>
3.6

> <PUBCHEM_PHARMACOPHORE_FEATURES>
14
1 1 acceptor
1 1 donor
1 3 acceptor
1 4 acceptor
1 5 acceptor
1 6 cation
1 7 cation
1 7 donor
1 8 cation
1 8 donor
1 9 donor
5 6 10 11 12 13 rings
5 6 11 14 15 16 rings
6 15 16 18 19 20 21 rings

> <PUBCHEM_HEAVY_ATOM_COUNT>
23

> <PUBCHEM_ATOM_DEF_STEREO_COUNT>
2

> <PUBCHEM_ATOM_UDEF_STEREO_COUNT>
0

> <PUBCHEM_BOND_DEF_STEREO_COUNT>
0

> <PUBCHEM_BOND_UDEF_STEREO_COUNT>
0

> <PUBCHEM_ISOTOPIC_ATOM_COUNT>
0

> <PUBCHEM_COMPONENT_COUNT>
1

> <PUBCHEM_CACTVS_TAUTO_COUNT>
20

> <PUBCHEM_CONFORMER_ID>
0001F26900000001

> <PUBCHEM_MMFF94_ENERGY>
48.38

> <PUBCHEM_FEATURE_SELFOVERLAP>
71.384

> <PUBCHEM_SHAPE_FINGERPRINT>
10411042 1 18410296908401268834
10616163 171 18267026050887259022
10967382 1 18193283115982310792
1100329 8 18120651327719328833
11578080 2 17774419656213863929
12035758 1 17905321080723875456
12553582 1 18410294730910820123
12788726 201 18263077725980268643
13004483 165 18267574733075633843
13140716 1 18338515227483614376
13540713 5 17899424091307228122
138480 1 15095362388153298531
13911987 19 17972331860797985524
14790565 3 18048336709843535493
15042514 8 18193844730316915299
15309172 13 17185038263267468152
16087824 20 18194124011273239081
16945 1 18191319358240113000
17357779 13 18261666060629744567
20028762 73 17479168662359695197
20510252 161 18411986845368008024
20645477 70 18046896363102114623
21029758 11 18338519745688735728
21478907 32 18337954476574566739
221357 26 18335686283551234303
221490 88 17903361746856313091
2255824 54 18053103110092460439
2334 1 18336272275376301096
23419403 2 17176249093653179516
23557571 272 18198908019848802382
23558518 356 18117851992859100362
23559900 14 17621319040685075518
238 59 17615641497018429519
25147074 1 17825958022794958906
2748010 2 18336552620861073848
283562 15 18409172078362821578
3091708 16 8993376757382164841
352729 6 18051689936955500391
46194498 28 17532647056724408903
463206 1 18337955709046097175
54173680 148 18193556657859059107
6443956 14 18337956791546076101
7164475 11 18338232635831594486
7471813 234 18130219488684498717
81228 2 18189903023685632472
84936 182 17625548165625499929
9709674 26 17909828735021847614

> <PUBCHEM_SHAPE_MULTIPOLES>
424.06
6.68
4.97
0.91
0
3.33
-0.03
-6.67
-1.56
-2.51
0.61
-0.55
0.08
-0.62

> <PUBCHEM_SHAPE_SELFOVERLAP>
930.735

> <PUBCHEM_SHAPE_VOLUME>
231.9

> <PUBCHEM_COORDINATE_TYPE>
2
5
10

$$$$
