127622
  -OEChem-03292013323D

 50 50  0     1  0  0  0  0  0999 V2000
    2.5812   -0.5847    0.2470 O   0  0  0  0  0  0  0  0  0  0  0  0
    1.1485    1.2383    0.5054 O   0  0  0  0  0  0  0  0  0  0  0  0
    5.8955    1.8414    0.2901 O   0  0  0  0  0  0  0  0  0  0  0  0
    3.2369    2.9688   -0.2875 O   0  0  0  0  0  0  0  0  0  0  0  0
    6.0797   -0.8525   -0.7857 O   0  0  0  0  0  0  0  0  0  0  0  0
    4.8105   -3.2086   -0.4396 O   0  0  0  0  0  0  0  0  0  0  0  0
    3.0257   -2.9953    0.9621 O   0  0  0  0  0  0  0  0  0  0  0  0
   -5.8805    2.5372   -1.0108 O   0  0  0  0  0  0  0  0  0  0  0  0
   -5.0002    0.9218    0.0208 N   0  0  0  0  0  0  0  0  0  0  0  0
   -5.9851    1.8010   -0.0224 N   0  0  0  0  0  0  0  0  0  0  0  0
    4.8097    1.1391   -0.3165 C   0  0  2  0  0  0  0  0  0  0  0  0
    3.4865    1.6660    0.2398 C   0  0  2  0  0  0  0  0  0  0  0  0
    4.9855   -0.3506   -0.0203 C   0  0  1  0  0  0  0  0  0  0  0  0
    2.3204    0.7584   -0.1525 C   0  0  1  0  0  0  0  0  0  0  0  0
    3.7295   -1.1275   -0.3946 C   0  0  1  0  0  0  0  0  0  0  0  0
   -0.0298    0.7686   -0.1310 C   0  0  0  0  0  0  0  0  0  0  0  0
   -1.2571    1.3196    0.5832 C   0  0  0  0  0  0  0  0  0  0  0  0
    3.7883   -2.5253    0.1310 C   0  0  0  0  0  0  0  0  0  0  0  0
   -2.5522    0.8226   -0.0570 C   0  0  0  0  0  0  0  0  0  0  0  0
   -3.7755    1.4147    0.6406 C   0  0  0  0  0  0  0  0  0  0  0  0
   -5.4213   -0.3272    0.6713 C   0  0  0  0  0  0  0  0  0  0  0  0
   -6.1332   -1.2338   -0.3313 C   0  0  0  0  0  0  0  0  0  0  0  0
   -6.5613   -2.5493    0.3202 C   0  0  0  0  0  0  0  0  0  0  0  0
   -7.3020   -3.4426   -0.6622 C   0  0  0  0  0  0  0  0  0  0  0  0
    4.8848    1.3345   -1.3927 H   0  0  0  0  0  0  0  0  0  0  0  0
    3.5421    1.7707    1.3298 H   0  0  0  0  0  0  0  0  0  0  0  0
    5.2366   -0.4974    1.0374 H   0  0  0  0  0  0  0  0  0  0  0  0
    2.1690    0.7999   -1.2405 H   0  0  0  0  0  0  0  0  0  0  0  0
    3.5593   -1.1771   -1.4772 H   0  0  0  0  0  0  0  0  0  0  0  0
   -0.0472   -0.3274   -0.1086 H   0  0  0  0  0  0  0  0  0  0  0  0
   -0.0399    1.0977   -1.1771 H   0  0  0  0  0  0  0  0  0  0  0  0
   -1.2216    1.0312    1.6411 H   0  0  0  0  0  0  0  0  0  0  0  0
   -1.2198    2.4160    0.5691 H   0  0  0  0  0  0  0  0  0  0  0  0
    5.8442    1.7051    1.2516 H   0  0  0  0  0  0  0  0  0  0  0  0
    3.1811    2.8968   -1.2557 H   0  0  0  0  0  0  0  0  0  0  0  0
   -2.5751   -0.2728   -0.0119 H   0  0  0  0  0  0  0  0  0  0  0  0
   -2.5639    1.0994   -1.1190 H   0  0  0  0  0  0  0  0  0  0  0  0
    5.8677   -0.7358   -1.7275 H   0  0  0  0  0  0  0  0  0  0  0  0
   -3.6989    2.5077    0.5394 H   0  0  0  0  0  0  0  0  0  0  0  0
   -3.7517    1.2192    1.7217 H   0  0  0  0  0  0  0  0  0  0  0  0
   -4.5511   -0.8873    1.0399 H   0  0  0  0  0  0  0  0  0  0  0  0
   -6.0516   -0.1389    1.5522 H   0  0  0  0  0  0  0  0  0  0  0  0
   -7.0204   -0.7308   -0.7359 H   0  0  0  0  0  0  0  0  0  0  0  0
   -5.4687   -1.4462   -1.1788 H   0  0  0  0  0  0  0  0  0  0  0  0
    4.8671   -4.1293   -0.1060 H   0  0  0  0  0  0  0  0  0  0  0  0
   -5.6811   -3.0820    0.6985 H   0  0  0  0  0  0  0  0  0  0  0  0
   -7.2116   -2.3455    1.1790 H   0  0  0  0  0  0  0  0  0  0  0  0
   -7.5969   -4.3778   -0.1759 H   0  0  0  0  0  0  0  0  0  0  0  0
   -6.6694   -3.6907   -1.5204 H   0  0  0  0  0  0  0  0  0  0  0  0
   -8.2078   -2.9522   -1.0328 H   0  0  0  0  0  0  0  0  0  0  0  0
  1 14  1  0  0  0  0
  1 15  1  0  0  0  0
  2 14  1  0  0  0  0
  2 16  1  0  0  0  0
  3 11  1  0  0  0  0
  3 34  1  0  0  0  0
  4 12  1  0  0  0  0
  4 35  1  0  0  0  0
  5 13  1  0  0  0  0
  5 38  1  0  0  0  0
  6 18  1  0  0  0  0
  6 45  1  0  0  0  0
  7 18  2  0  0  0  0
  8 10  2  0  0  0  0
  9 10  1  0  0  0  0
  9 20  1  0  0  0  0
  9 21  1  0  0  0  0
 11 12  1  0  0  0  0
 11 13  1  0  0  0  0
 11 25  1  0  0  0  0
 12 14  1  0  0  0  0
 12 26  1  0  0  0  0
 13 15  1  0  0  0  0
 13 27  1  0  0  0  0
 14 28  1  0  0  0  0
 15 18  1  0  0  0  0
 15 29  1  0  0  0  0
 16 17  1  0  0  0  0
 16 30  1  0  0  0  0
 16 31  1  0  0  0  0
 17 19  1  0  0  0  0
 17 32  1  0  0  0  0
 17 33  1  0  0  0  0
 19 20  1  0  0  0  0
 19 36  1  0  0  0  0
 19 37  1  0  0  0  0
 20 39  1  0  0  0  0
 20 40  1  0  0  0  0
 21 22  1  0  0  0  0
 21 41  1  0  0  0  0
 21 42  1  0  0  0  0
 22 23  1  0  0  0  0
 22 43  1  0  0  0  0
 22 44  1  0  0  0  0
 23 24  1  0  0  0  0
 23 46  1  0  0  0  0
 23 47  1  0  0  0  0
 24 48  1  0  0  0  0
 24 49  1  0  0  0  0
 24 50  1  0  0  0  0
M  END
> <PUBCHEM_COMPOUND_CID>
127622

> <PUBCHEM_CONFORMER_RMSD>
1

> <PUBCHEM_CONFORMER_DIVERSEORDER>
1
40
2
42
34
90
74
67
97
60
32
73
17
72
31
23
58
50
51
21
20
88
81
45
99
95
35
30
69
15
75
13
100
16
98
82
66
22
53
7
41
65
33
103
56
84
28
25
102
101
104
3
9
71
37
92
63
26
64
47
38
5
61
12
8
91
77
79
52
68
10
87
27
89
94
48
39
62
4
57
29
43
78
54
6
24
76
14
46
93
55
59
80
96
86
49
19
36
11
83
85
44
70
18

> <PUBCHEM_MMFF94_PARTIAL_CHARGES>
23
1 -0.56
10 -0.01
11 0.28
12 0.28
13 0.28
14 0.56
15 0.34
16 0.28
18 0.66
2 -0.56
20 0.27
21 0.27
3 -0.68
34 0.4
35 0.4
38 0.4
4 -0.68
45 0.5
5 -0.68
6 -0.65
7 -0.57
8 -0.16
9 -0.36

> <PUBCHEM_EFFECTIVE_ROTOR_COUNT>
12.2

> <PUBCHEM_PHARMACOPHORE_FEATURES>
13
1 1 acceptor
1 2 acceptor
1 24 hydrophobe
1 3 acceptor
1 3 donor
1 4 acceptor
1 4 donor
1 5 acceptor
1 5 donor
1 6 acceptor
1 7 acceptor
3 6 7 18 anion
6 1 11 12 13 14 15 rings

> <PUBCHEM_HEAVY_ATOM_COUNT>
24

> <PUBCHEM_ATOM_DEF_STEREO_COUNT>
5

> <PUBCHEM_ATOM_UDEF_STEREO_COUNT>
0

> <PUBCHEM_BOND_DEF_STEREO_COUNT>
0

> <PUBCHEM_BOND_UDEF_STEREO_COUNT>
0

> <PUBCHEM_ISOTOPIC_ATOM_COUNT>
0

> <PUBCHEM_COMPONENT_COUNT>
1

> <PUBCHEM_CACTVS_TAUTO_COUNT>
1

> <PUBCHEM_CONFORMER_ID>
0001F28600000001

> <PUBCHEM_MMFF94_ENERGY>
42.2642

> <PUBCHEM_FEATURE_SELFOVERLAP>
66.106

> <PUBCHEM_SHAPE_FINGERPRINT>
10595046 47 18412267254860695089
10693767 8 18198920119711172822
117089 54 17830742311795214827
11796584 16 18270402681450775017
12107183 9 17693102863825326481
12596602 18 17917999377330728985
13073987 5 18342739624451554889
13167823 11 18413107243199905737
13533116 47 18271243824841634184
1361 4 18341050800340534831
14211702 104 18341058479826189799
14251732 16 18341895229180063969
14461889 52 18339356478585622944
15183329 4 18336546002364216569
17844677 252 18410018736687035821
19427546 62 18263367048616661000
20567600 247 18341332275263822627
20645477 70 18339082580105288424
21197605 99 18341334495562136446
220451 1 18338809939813385537
22224240 67 18410570726363758152
23559900 14 18411132516095884329
25222932 49 18342738554482576111
4073 2 18259992586741948345
439807 62 18341895217065314891
465052 167 18131355172474068516
5104073 3 18060703875420228385
6431902 208 18337112371533786979
7970288 3 17834114148141363826

> <PUBCHEM_SHAPE_MULTIPOLES>
436.99
21.19
3.83
0.79
24.14
2.6
0
9.33
-2.64
1.59
-0.27
0.3
0.06
-0.13

> <PUBCHEM_SHAPE_SELFOVERLAP>
860.794

> <PUBCHEM_SHAPE_VOLUME>
259

> <PUBCHEM_COORDINATE_TYPE>
2
5
10

$$$$
