127689
  -OEChem-03292013323D

 40 41  0     1  0  0  0  0  0999 V2000
    1.4372    0.8362   -0.5539 O   0  0  0  0  0  0  0  0  0  0  0  0
   -0.4622   -0.4878   -0.8426 O   0  0  0  0  0  0  0  0  0  0  0  0
    3.8086   -2.4654    0.0314 O   0  0  0  0  0  0  0  0  0  0  0  0
    4.7568    0.1457    0.8306 O   0  0  0  0  0  0  0  0  0  0  0  0
    0.8889   -2.6535    0.3791 O   0  0  0  0  0  0  0  0  0  0  0  0
    2.2695    3.4250   -0.1520 O   0  0  0  0  0  0  0  0  0  0  0  0
   -2.6881    3.5749    0.2706 O   0  0  0  0  0  0  0  0  0  0  0  0
   -2.0807   -2.6212   -1.0001 O   0  0  0  0  0  0  0  0  0  0  0  0
    2.9487   -1.3977    0.4328 C   0  0  1  0  0  0  0  0  0  0  0  0
    3.6063   -0.0806    0.0204 C   0  0  1  0  0  0  0  0  0  0  0  0
    1.5829   -1.5665   -0.2326 C   0  0  2  0  0  0  0  0  0  0  0  0
    2.6323    1.0882    0.1871 C   0  0  1  0  0  0  0  0  0  0  0  0
    0.7301   -0.3071   -0.0791 C   0  0  1  0  0  0  0  0  0  0  0  0
    3.2258    2.3957   -0.3278 C   0  0  0  0  0  0  0  0  0  0  0  0
   -1.5820    0.1547   -0.3905 C   0  0  0  0  0  0  0  0  0  0  0  0
   -2.7219   -0.5642   -0.0403 C   0  0  0  0  0  0  0  0  0  0  0  0
   -1.5668    1.5434   -0.2882 C   0  0  0  0  0  0  0  0  0  0  0  0
   -3.8547    0.1102    0.4153 C   0  0  0  0  0  0  0  0  0  0  0  0
   -2.6996    2.2177    0.1676 C   0  0  0  0  0  0  0  0  0  0  0  0
   -2.7566   -2.0162   -0.1455 C   0  0  0  0  0  0  0  0  0  0  0  0
   -3.8435    1.5010    0.5193 C   0  0  0  0  0  0  0  0  0  0  0  0
   -3.6308   -2.8327    0.7985 C   0  0  0  0  0  0  0  0  0  0  0  0
    2.8575   -1.4672    1.5238 H   0  0  0  0  0  0  0  0  0  0  0  0
    3.9468   -0.1533   -1.0198 H   0  0  0  0  0  0  0  0  0  0  0  0
    1.7051   -1.8242   -1.2913 H   0  0  0  0  0  0  0  0  0  0  0  0
    2.3640    1.2306    1.2429 H   0  0  0  0  0  0  0  0  0  0  0  0
    0.4660   -0.1642    0.9794 H   0  0  0  0  0  0  0  0  0  0  0  0
    3.4611    2.3365   -1.3957 H   0  0  0  0  0  0  0  0  0  0  0  0
    4.1325    2.6711    0.2182 H   0  0  0  0  0  0  0  0  0  0  0  0
    4.6701   -2.3221    0.4593 H   0  0  0  0  0  0  0  0  0  0  0  0
    4.4636    0.2189    1.7549 H   0  0  0  0  0  0  0  0  0  0  0  0
    0.7643   -2.4413    1.3198 H   0  0  0  0  0  0  0  0  0  0  0  0
    1.4764    3.1785   -0.6575 H   0  0  0  0  0  0  0  0  0  0  0  0
   -0.6948    2.1213   -0.5770 H   0  0  0  0  0  0  0  0  0  0  0  0
   -4.7653   -0.4187    0.6827 H   0  0  0  0  0  0  0  0  0  0  0  0
   -4.7333    2.0152    0.8729 H   0  0  0  0  0  0  0  0  0  0  0  0
   -4.6284   -2.9474    0.3676 H   0  0  0  0  0  0  0  0  0  0  0  0
   -3.6914   -2.3575    1.7813 H   0  0  0  0  0  0  0  0  0  0  0  0
   -3.1783   -3.8190    0.9390 H   0  0  0  0  0  0  0  0  0  0  0  0
   -3.5526    3.8729    0.6021 H   0  0  0  0  0  0  0  0  0  0  0  0
  1 12  1  0  0  0  0
  1 13  1  0  0  0  0
  2 13  1  0  0  0  0
  2 15  1  0  0  0  0
  3  9  1  0  0  0  0
  3 30  1  0  0  0  0
  4 10  1  0  0  0  0
  4 31  1  0  0  0  0
  5 11  1  0  0  0  0
  5 32  1  0  0  0  0
  6 14  1  0  0  0  0
  6 33  1  0  0  0  0
  7 19  1  0  0  0  0
  7 40  1  0  0  0  0
  8 20  2  0  0  0  0
  9 10  1  0  0  0  0
  9 11  1  0  0  0  0
  9 23  1  0  0  0  0
 10 12  1  0  0  0  0
 10 24  1  0  0  0  0
 11 13  1  0  0  0  0
 11 25  1  0  0  0  0
 12 14  1  0  0  0  0
 12 26  1  0  0  0  0
 13 27  1  0  0  0  0
 14 28  1  0  0  0  0
 14 29  1  0  0  0  0
 15 16  2  0  0  0  0
 15 17  1  0  0  0  0
 16 18  1  0  0  0  0
 16 20  1  0  0  0  0
 17 19  2  0  0  0  0
 17 34  1  0  0  0  0
 18 21  2  0  0  0  0
 18 35  1  0  0  0  0
 19 21  1  0  0  0  0
 20 22  1  0  0  0  0
 21 36  1  0  0  0  0
 22 37  1  0  0  0  0
 22 38  1  0  0  0  0
 22 39  1  0  0  0  0
M  END
> <PUBCHEM_COMPOUND_CID>
127689

> <PUBCHEM_CONFORMER_RMSD>
0.8

> <PUBCHEM_CONFORMER_DIVERSEORDER>
2
66
123
39
35
132
80
113
108
88
52
40
90
16
68
126
93
121
111
15
128
60
97
13
45
71
106
25
75
76
91
20
26
32
77
130
86
117
67
33
18
10
34
105
84
14
127
50
51
104
116
43
41
125
118
9
31
74
87
22
58
3
11
30
122
101
107
6
46
110
55
124
114
47
92
120
44
12
103
102
56
19
81
57
5
96
24
95
17
70
53
49
48
62
83
89
54
82
36
4
129
73
59
23
109
78
94
100
42
85
65
1
119
37
7
63
64
8
115
98
131
27
61
79
21
72
28
69
112
99
38
29

> <PUBCHEM_MMFF94_PARTIAL_CHARGES>
30
1 -0.56
10 0.28
11 0.28
12 0.28
13 0.56
14 0.28
15 0.08
16 0.09
17 -0.15
18 -0.15
19 0.08
2 -0.36
20 0.42
21 -0.15
22 0.06
3 -0.68
30 0.4
31 0.4
32 0.4
33 0.4
34 0.15
35 0.15
36 0.15
4 -0.68
40 0.45
5 -0.68
6 -0.68
7 -0.53
8 -0.57
9 0.28

> <PUBCHEM_EFFECTIVE_ROTOR_COUNT>
5.2

> <PUBCHEM_PHARMACOPHORE_FEATURES>
14
1 1 acceptor
1 2 acceptor
1 3 acceptor
1 3 donor
1 4 acceptor
1 4 donor
1 5 acceptor
1 5 donor
1 6 acceptor
1 6 donor
1 7 donor
1 8 acceptor
6 1 9 10 11 12 13 rings
6 15 16 17 18 19 21 rings

> <PUBCHEM_HEAVY_ATOM_COUNT>
22

> <PUBCHEM_ATOM_DEF_STEREO_COUNT>
5

> <PUBCHEM_ATOM_UDEF_STEREO_COUNT>
0

> <PUBCHEM_BOND_DEF_STEREO_COUNT>
0

> <PUBCHEM_BOND_UDEF_STEREO_COUNT>
0

> <PUBCHEM_ISOTOPIC_ATOM_COUNT>
0

> <PUBCHEM_COMPONENT_COUNT>
1

> <PUBCHEM_CACTVS_TAUTO_COUNT>
9

> <PUBCHEM_CONFORMER_ID>
0001F2C900000002

> <PUBCHEM_MMFF94_ENERGY>
70.6319

> <PUBCHEM_FEATURE_SELFOVERLAP>
71.119

> <PUBCHEM_SHAPE_FINGERPRINT>
10616163 171 18411703218032277159
10967382 1 18122624950858876716
12173636 292 18340764828442569701
12251169 10 18410012100481944069
12553582 1 18047741599506947238
12633257 1 18334853879274233760
13004483 165 18340477989326649319
13140716 1 18337956804452128945
13224815 77 18336549433567994415
13675066 3 18060696195955216954
14178342 30 18337657647147685042
14223421 5 18411420639227677637
14289901 80 18339360871962762794
14341114 176 18411424973002660168
14420673 8 18122629345128385486
14787075 74 17467066779631728547
14790565 3 17400655204052678309
15042514 8 18409175411605700251
15442244 35 18338515236089119454
15927050 60 16034373592291554237
17492 89 18409450323055296210
1813 80 17095812005978641110
19050596 39 18336547204458712824
19591789 44 16318942577495345223
19930381 70 17978226393910940249
20510252 161 18196941178240893241
21065198 57 18410294666301194122
21501502 16 18411136960916991263
21731228 192 18124042234865088641
221490 88 18408892858122751746
23227448 37 18411417293775175661
23558518 356 18334861606131707387
23559900 14 18411695474142750586
312423 11 18189341319573257716
335352 9 18122906426046714238
350125 39 18338237171316649684
5104073 3 18411131433811137762
5312544 6 17829051253313509868
58051976 378 18340764927015963750
6287921 2 18261684765138842460
7097593 13 18262513680820644970
7832392 63 18338795585821386766
9709674 26 18341054025639135863

> <PUBCHEM_SHAPE_MULTIPOLES>
405.8
8.32
3.92
0.78
2.76
1.05
-0.01
-0.02
1.64
-1.13
0.16
-0.12
-0.16
-0.39

> <PUBCHEM_SHAPE_SELFOVERLAP>
853.783

> <PUBCHEM_SHAPE_VOLUME>
226

> <PUBCHEM_COORDINATE_TYPE>
2
5
10

$$$$
