127632
  -OEChem-03292013323D

 58 60  0     1  0  0  0  0  0999 V2000
    2.4084   -0.6610    0.5760 O   0  0  0  0  0  0  0  0  0  0  0  0
    0.4843    0.9425    1.4285 O   0  0  0  0  0  0  0  0  0  0  0  0
   -1.2914   -2.5328   -0.9190 O   0  0  0  0  0  0  0  0  0  0  0  0
   -1.1560    2.8453    0.8407 O   0  0  0  0  0  0  0  0  0  0  0  0
    0.9564   -3.0860    0.5675 O   0  0  0  0  0  0  0  0  0  0  0  0
    0.8199    2.7636   -1.0701 O   0  0  0  0  0  0  0  0  0  0  0  0
   -1.1315    0.6351   -0.4045 C   0  0  2  0  0  0  0  0  0  0  0  0
   -1.8745   -0.5254    0.3940 C   0  0  1  0  0  0  0  0  0  0  0  0
    0.4087    0.6280    0.0198 C   0  0  2  0  0  0  0  0  0  0  0  0
   -3.4471   -0.6173    0.1689 C   0  0  0  0  0  0  0  0  0  0  0  0
    1.1364   -0.7460   -0.1147 C   0  0  2  0  0  0  0  0  0  0  0  0
   -1.1468   -1.9013    0.3458 C   0  0  2  0  0  0  0  0  0  0  0  0
   -1.8655    2.0184   -0.0809 C   0  0  1  0  0  0  0  0  0  0  0  0
    0.3436   -1.8009    0.7052 C   0  0  1  0  0  0  0  0  0  0  0  0
   -4.0627    0.7667   -0.1484 C   0  0  0  0  0  0  0  0  0  0  0  0
   -3.2817    1.8925    0.4879 C   0  0  0  0  0  0  0  0  0  0  0  0
   -1.2666    0.4353   -1.9373 C   0  0  0  0  0  0  0  0  0  0  0  0
    1.2815    1.7158   -0.6157 C   0  0  0  0  0  0  0  0  0  0  0  0
    1.4412   -1.2559   -1.5393 C   0  0  0  0  0  0  0  0  0  0  0  0
   -4.0907   -1.1338    1.4857 C   0  0  0  0  0  0  0  0  0  0  0  0
   -3.9092   -1.5834   -0.9411 C   0  0  0  0  0  0  0  0  0  0  0  0
    3.3084    0.4045    0.2586 C   0  0  1  0  0  0  0  0  0  0  0  0
    2.7717    1.4675   -0.7104 C   0  0  0  0  0  0  0  0  0  0  0  0
    3.7001    1.0596    1.5934 C   0  0  0  0  0  0  0  0  0  0  0  0
    4.5451   -0.2351   -0.3169 C   0  0  0  0  0  0  0  0  0  0  0  0
    4.9179   -1.4961   -0.0737 C   0  0  0  0  0  0  0  0  0  0  0  0
   -1.7648   -0.2164    1.4465 H   0  0  0  0  0  0  0  0  0  0  0  0
   -1.6164   -2.5804    1.0667 H   0  0  0  0  0  0  0  0  0  0  0  0
   -1.9402    2.6033   -1.0075 H   0  0  0  0  0  0  0  0  0  0  0  0
    0.4168   -1.5572    1.7734 H   0  0  0  0  0  0  0  0  0  0  0  0
   -5.1038    0.8103    0.1970 H   0  0  0  0  0  0  0  0  0  0  0  0
   -4.1141    0.9380   -1.2299 H   0  0  0  0  0  0  0  0  0  0  0  0
   -3.8091    2.8429    0.3346 H   0  0  0  0  0  0  0  0  0  0  0  0
   -3.2446    1.7633    1.5773 H   0  0  0  0  0  0  0  0  0  0  0  0
   -0.5976    1.1041   -2.4881 H   0  0  0  0  0  0  0  0  0  0  0  0
   -1.0519   -0.5771   -2.2674 H   0  0  0  0  0  0  0  0  0  0  0  0
   -2.2742    0.6595   -2.2963 H   0  0  0  0  0  0  0  0  0  0  0  0
    1.7256   -0.4550   -2.2238 H   0  0  0  0  0  0  0  0  0  0  0  0
    2.2777   -1.9641   -1.5288 H   0  0  0  0  0  0  0  0  0  0  0  0
    0.6103   -1.7740   -2.0131 H   0  0  0  0  0  0  0  0  0  0  0  0
   -3.7276   -2.1328    1.7477 H   0  0  0  0  0  0  0  0  0  0  0  0
   -3.8730   -0.4679    2.3279 H   0  0  0  0  0  0  0  0  0  0  0  0
   -5.1813   -1.2005    1.3951 H   0  0  0  0  0  0  0  0  0  0  0  0
   -4.9921   -1.5031   -1.0991 H   0  0  0  0  0  0  0  0  0  0  0  0
   -3.4309   -1.3668   -1.9000 H   0  0  0  0  0  0  0  0  0  0  0  0
   -3.7162   -2.6294   -0.6820 H   0  0  0  0  0  0  0  0  0  0  0  0
    2.9688    1.1875   -1.7522 H   0  0  0  0  0  0  0  0  0  0  0  0
    3.2889    2.4228   -0.5539 H   0  0  0  0  0  0  0  0  0  0  0  0
    0.1124    1.8248    1.5796 H   0  0  0  0  0  0  0  0  0  0  0  0
   -0.8397   -3.3927   -0.8714 H   0  0  0  0  0  0  0  0  0  0  0  0
   -0.5247    3.3800    0.3301 H   0  0  0  0  0  0  0  0  0  0  0  0
    1.8880   -2.9924    0.8305 H   0  0  0  0  0  0  0  0  0  0  0  0
    2.8486    1.5717    2.0522 H   0  0  0  0  0  0  0  0  0  0  0  0
    4.0335    0.3105    2.3221 H   0  0  0  0  0  0  0  0  0  0  0  0
    4.5027    1.7955    1.4676 H   0  0  0  0  0  0  0  0  0  0  0  0
    5.2033    0.3837   -0.9229 H   0  0  0  0  0  0  0  0  0  0  0  0
    5.8378   -1.8799   -0.5028 H   0  0  0  0  0  0  0  0  0  0  0  0
    4.3445   -2.1711    0.5508 H   0  0  0  0  0  0  0  0  0  0  0  0
  1 11  1  0  0  0  0
  1 22  1  0  0  0  0
  2  9  1  0  0  0  0
  2 49  1  0  0  0  0
  3 12  1  0  0  0  0
  3 50  1  0  0  0  0
  4 13  1  0  0  0  0
  4 51  1  0  0  0  0
  5 14  1  0  0  0  0
  5 52  1  0  0  0  0
  6 18  2  0  0  0  0
  7  8  1  0  0  0  0
  7  9  1  0  0  0  0
  7 13  1  0  0  0  0
  7 17  1  0  0  0  0
  8 10  1  0  0  0  0
  8 12  1  0  0  0  0
  8 27  1  0  0  0  0
  9 11  1  0  0  0  0
  9 18  1  0  0  0  0
 10 15  1  0  0  0  0
 10 20  1  0  0  0  0
 10 21  1  0  0  0  0
 11 14  1  0  0  0  0
 11 19  1  0  0  0  0
 12 14  1  0  0  0  0
 12 28  1  0  0  0  0
 13 16  1  0  0  0  0
 13 29  1  0  0  0  0
 14 30  1  0  0  0  0
 15 16  1  0  0  0  0
 15 31  1  0  0  0  0
 15 32  1  0  0  0  0
 16 33  1  0  0  0  0
 16 34  1  0  0  0  0
 17 35  1  0  0  0  0
 17 36  1  0  0  0  0
 17 37  1  0  0  0  0
 18 23  1  0  0  0  0
 19 38  1  0  0  0  0
 19 39  1  0  0  0  0
 19 40  1  0  0  0  0
 20 41  1  0  0  0  0
 20 42  1  0  0  0  0
 20 43  1  0  0  0  0
 21 44  1  0  0  0  0
 21 45  1  0  0  0  0
 21 46  1  0  0  0  0
 22 23  1  0  0  0  0
 22 24  1  0  0  0  0
 22 25  1  0  0  0  0
 23 47  1  0  0  0  0
 23 48  1  0  0  0  0
 24 53  1  0  0  0  0
 24 54  1  0  0  0  0
 24 55  1  0  0  0  0
 25 26  2  0  0  0  0
 25 56  1  0  0  0  0
 26 57  1  0  0  0  0
 26 58  1  0  0  0  0
M  END
> <PUBCHEM_COMPOUND_CID>
127632

> <PUBCHEM_CONFORMER_RMSD>
0.6

> <PUBCHEM_CONFORMER_DIVERSEORDER>
1
2

> <PUBCHEM_MMFF94_PARTIAL_CHARGES>
23
1 -0.56
11 0.28
12 0.28
13 0.28
14 0.28
18 0.45
2 -0.68
22 0.42
23 0.06
25 -0.29
26 -0.3
3 -0.68
4 -0.68
49 0.4
5 -0.68
50 0.4
51 0.4
52 0.4
56 0.15
57 0.15
58 0.15
6 -0.57
9 0.34

> <PUBCHEM_EFFECTIVE_ROTOR_COUNT>
2.8

> <PUBCHEM_PHARMACOPHORE_FEATURES>
15
1 1 acceptor
1 2 acceptor
1 2 donor
1 26 hydrophobe
1 3 acceptor
1 3 donor
1 4 acceptor
1 4 donor
1 5 acceptor
1 5 donor
1 6 acceptor
3 10 20 21 hydrophobe
6 1 9 11 18 22 23 rings
6 7 8 10 13 15 16 rings
6 7 8 9 11 12 14 rings

> <PUBCHEM_HEAVY_ATOM_COUNT>
26

> <PUBCHEM_ATOM_DEF_STEREO_COUNT>
8

> <PUBCHEM_ATOM_UDEF_STEREO_COUNT>
0

> <PUBCHEM_BOND_DEF_STEREO_COUNT>
0

> <PUBCHEM_BOND_UDEF_STEREO_COUNT>
0

> <PUBCHEM_ISOTOPIC_ATOM_COUNT>
0

> <PUBCHEM_COMPONENT_COUNT>
1

> <PUBCHEM_CACTVS_TAUTO_COUNT>
2

> <PUBCHEM_CONFORMER_ID>
0001F29000000001

> <PUBCHEM_MMFF94_ENERGY>
131.6892

> <PUBCHEM_FEATURE_SELFOVERLAP>
76.205

> <PUBCHEM_SHAPE_FINGERPRINT>
10863032 1 18271524182920722955
10948715 1 18201717310490929421
10967382 1 18336266726141359077
1100329 8 18265898141157287379
11132069 177 18341607174144390962
11578080 2 16736357353348507503
12011746 2 18335416842365784007
12236239 1 17312824879659114894
12403259 226 18271519892111504329
12422481 6 18265354857943303305
12553582 1 18196944472670856141
12633257 1 17774735237362094483
12788726 201 18198366067938490488
13132413 78 18410011018028736269
13140716 1 18120941865055993731
13224815 77 18343012307060452817
13583140 156 16845280657437398580
13675066 3 18272087214599855304
14178342 30 18264208023791255753
14223421 5 18266457594590260453
14787075 74 17986101027358617752
14790565 3 18334307465198765788
15196674 1 18408606976082145476
15209289 33 18410857642245893778
16752209 62 18408602578035608384
16945 1 18334871531874877483
17349148 13 18408886256304174702
17492 89 18192152813745286386
1813 80 17167861938037590390
19591789 44 18336547114613026954
200 152 18411973685450673245
20028762 73 18268712890693129887
20261772 1 18340211885499489683
20510252 161 18342175583175676432
20691752 17 17822578209311782575
20905425 154 18270965613654667174
21033648 29 18201990032403672792
21267235 1 18336557070188781683
21330990 113 18188774929456501358
21421861 104 17463129037639654752
22182313 1 18267877094340739391
2334 1 17760650669351098163
23402539 116 18412538799761806014
23419403 2 16826375847994209620
23557571 272 18060423512602591803
23559900 14 18272649069869678032
2748010 2 18265897947551176943
296302 2 17203331168877998424
3286 77 17631728404072361147
335352 9 18336266747605594549
34934 24 18263641758660846517
350125 39 18337957774808561888
392239 28 18201710799489684936
4340502 62 18268713818806362321
5104073 3 18410013230148189920
59755656 215 18339644413045511749
90525 40 18410294713566848999
9709674 26 18412550928728552126
9981440 41 17181655603013077656

> <PUBCHEM_SHAPE_MULTIPOLES>
499.85
7.69
2.86
1.33
2.42
0.05
-0.11
-1.18
1.02
-0.52
0.02
-0.08
0.04
-0.01

> <PUBCHEM_SHAPE_SELFOVERLAP>
1056.992

> <PUBCHEM_SHAPE_VOLUME>
274.6

> <PUBCHEM_COORDINATE_TYPE>
2
5
10

$$$$
