127656
  -OEChem-03292013323D

 36 37  0     1  0  0  0  0  0999 V2000
    1.3445   -0.1584    0.1130 O   0  0  0  0  0  0  0  0  0  0  0  0
    4.6575    1.1058    0.6268 O   0  0  0  0  0  0  0  0  0  0  0  0
    0.0479    1.7829    0.5072 O   0  0  0  0  0  0  0  0  0  0  0  0
    2.6713    3.0233   -0.7939 O   0  0  0  0  0  0  0  0  0  0  0  0
    3.1084   -1.6701   -1.4735 O   0  0  0  0  0  0  0  0  0  0  0  0
    2.9369   -4.0517   -0.0154 O   0  0  0  0  0  0  0  0  0  0  0  0
   -5.3917   -0.7348   -1.3327 O   0  5  0  0  0  0  0  0  0  0  0  0
   -5.4754   -1.1683    0.8205 O   0  0  0  0  0  0  0  0  0  0  0  0
   -4.8985   -0.6853   -0.1817 N   0  3  0  0  0  0  0  0  0  0  0  0
    2.7214   -0.3406    0.4813 C   0  0  2  0  0  0  0  0  0  0  0  0
    3.4642    0.8552   -0.0898 C   0  0  1  0  0  0  0  0  0  0  0  0
    2.4445    1.9531    0.1056 C   0  0  2  0  0  0  0  0  0  0  0  0
    1.1429    1.2288   -0.2074 C   0  0  1  0  0  0  0  0  0  0  0  0
    3.2230   -1.6704   -0.0515 C   0  0  1  0  0  0  0  0  0  0  0  0
    2.4046   -2.8335    0.4940 C   0  0  0  0  0  0  0  0  0  0  0  0
   -1.1685    1.1764    0.3379 C   0  0  0  0  0  0  0  0  0  0  0  0
   -1.7334    1.1079   -0.9308 C   0  0  0  0  0  0  0  0  0  0  0  0
   -1.8263    0.6336    1.4363 C   0  0  0  0  0  0  0  0  0  0  0  0
   -2.9716    0.4890   -1.1035 C   0  0  0  0  0  0  0  0  0  0  0  0
   -3.0644    0.0147    1.2637 C   0  0  0  0  0  0  0  0  0  0  0  0
   -3.6370   -0.0575   -0.0063 C   0  0  0  0  0  0  0  0  0  0  0  0
    2.7752   -0.3457    1.5779 H   0  0  0  0  0  0  0  0  0  0  0  0
    3.7170    0.7466   -1.1502 H   0  0  0  0  0  0  0  0  0  0  0  0
    2.4602    2.3566    1.1247 H   0  0  0  0  0  0  0  0  0  0  0  0
    0.9487    1.2936   -1.2856 H   0  0  0  0  0  0  0  0  0  0  0  0
    4.2832   -1.8130    0.1840 H   0  0  0  0  0  0  0  0  0  0  0  0
    2.4491   -2.8729    1.5864 H   0  0  0  0  0  0  0  0  0  0  0  0
    1.3555   -2.7835    0.1848 H   0  0  0  0  0  0  0  0  0  0  0  0
    4.4324    1.2320    1.5642 H   0  0  0  0  0  0  0  0  0  0  0  0
    1.9271    3.6426   -0.7023 H   0  0  0  0  0  0  0  0  0  0  0  0
    2.1741   -1.5189   -1.6976 H   0  0  0  0  0  0  0  0  0  0  0  0
    2.8992   -4.0027   -0.9860 H   0  0  0  0  0  0  0  0  0  0  0  0
   -1.2383    1.5436   -1.7936 H   0  0  0  0  0  0  0  0  0  0  0  0
   -1.3828    0.6872    2.4265 H   0  0  0  0  0  0  0  0  0  0  0  0
   -3.3888    0.4553   -2.1067 H   0  0  0  0  0  0  0  0  0  0  0  0
   -3.5534   -0.3998    2.1416 H   0  0  0  0  0  0  0  0  0  0  0  0
  1 10  1  0  0  0  0
  1 13  1  0  0  0  0
  2 11  1  0  0  0  0
  2 29  1  0  0  0  0
  3 13  1  0  0  0  0
  3 16  1  0  0  0  0
  4 12  1  0  0  0  0
  4 30  1  0  0  0  0
  5 14  1  0  0  0  0
  5 31  1  0  0  0  0
  6 15  1  0  0  0  0
  6 32  1  0  0  0  0
  7  9  1  0  0  0  0
  8  9  2  0  0  0  0
  9 21  1  0  0  0  0
 10 11  1  0  0  0  0
 10 14  1  0  0  0  0
 10 22  1  0  0  0  0
 11 12  1  0  0  0  0
 11 23  1  0  0  0  0
 12 13  1  0  0  0  0
 12 24  1  0  0  0  0
 13 25  1  0  0  0  0
 14 15  1  0  0  0  0
 14 26  1  0  0  0  0
 15 27  1  0  0  0  0
 15 28  1  0  0  0  0
 16 17  2  0  0  0  0
 16 18  1  0  0  0  0
 17 19  1  0  0  0  0
 17 33  1  0  0  0  0
 18 20  2  0  0  0  0
 18 34  1  0  0  0  0
 19 21  2  0  0  0  0
 19 35  1  0  0  0  0
 20 21  1  0  0  0  0
 20 36  1  0  0  0  0
M  CHG  2   7  -1   9   1
M  END
> <PUBCHEM_COMPOUND_CID>
127656

> <PUBCHEM_CONFORMER_RMSD>
0.8

> <PUBCHEM_CONFORMER_DIVERSEORDER>
6
24
11
14
38
18
43
37
27
34
13
21
40
2
23
20
4
41
26
33
17
16
25
44
39
10
7
9
30
35
28
15
19
5
32
29
12
31
22
42
8
1
36
3

> <PUBCHEM_MMFF94_PARTIAL_CHARGES>
29
1 -0.56
10 0.28
11 0.28
12 0.28
13 0.56
14 0.28
15 0.28
16 0.08
17 -0.15
18 -0.15
19 -0.15
2 -0.68
20 -0.15
21 0.13
29 0.4
3 -0.36
30 0.4
31 0.4
32 0.4
33 0.15
34 0.15
35 0.15
36 0.15
4 -0.68
5 -0.68
6 -0.68
7 -0.52
8 -0.52
9 0.91

> <PUBCHEM_EFFECTIVE_ROTOR_COUNT>
6

> <PUBCHEM_PHARMACOPHORE_FEATURES>
15
1 1 acceptor
1 2 acceptor
1 2 donor
1 3 acceptor
1 4 acceptor
1 4 donor
1 5 acceptor
1 5 donor
1 6 acceptor
1 6 donor
1 7 acceptor
1 7 anion
1 8 acceptor
5 1 10 11 12 13 rings
6 16 17 18 19 20 21 rings

> <PUBCHEM_HEAVY_ATOM_COUNT>
21

> <PUBCHEM_ATOM_DEF_STEREO_COUNT>
5

> <PUBCHEM_ATOM_UDEF_STEREO_COUNT>
0

> <PUBCHEM_BOND_DEF_STEREO_COUNT>
0

> <PUBCHEM_BOND_UDEF_STEREO_COUNT>
0

> <PUBCHEM_ISOTOPIC_ATOM_COUNT>
0

> <PUBCHEM_COMPONENT_COUNT>
1

> <PUBCHEM_CACTVS_TAUTO_COUNT>
1

> <PUBCHEM_CONFORMER_ID>
0001F2A800000006

> <PUBCHEM_MMFF94_ENERGY>
70.7009

> <PUBCHEM_FEATURE_SELFOVERLAP>
76.258

> <PUBCHEM_SHAPE_FINGERPRINT>
10366900 7 18334866051423027776
114674 6 18260551099894413386
11595378 159 16271938086156778979
12107183 9 17838347280956110737
12236239 1 17704076226177965185
12363563 72 18119813508586217050
12553582 1 18049736113578354810
12596602 18 16988282087800815331
12788726 201 17417546764976757513
13533116 47 18343304786497574723
13583140 156 17917980686081988457
13836976 161 18262520415735605660
14251764 30 17272309946255426830
14508693 111 15909626043862177887
14767858 380 18192173542048566590
14844126 61 16676122670980510730
14848160 33 18338229367050005535
14863182 85 18411704309592059676
15375462 189 17917988403800219329
15537594 2 18202004377916233367
15635459 17 18260550021756764842
15848702 151 18261111881310946521
17134984 74 18196634410719410663
17138139 8 17484780951368999919
17492 89 18340204077296626027
17818456 19 17771639953264302729
200 152 18412543240937682337
20279233 1 17749391481072106569
20645477 70 18260548960836753537
21054139 6 18127684031734348582
21285901 2 17749378274416865421
221490 88 18264488395282877582
22224240 67 18200301247717023712
2255824 54 18410864265402059828
22646028 28 18201720635133142153
23402539 116 16588288532360945877
235170 7 17748817527881900199
23557571 272 17313093151305478309
23559900 14 18333728022285564872
23596394 208 18113330886638790367
23598288 3 17559957610871311497
239999 70 18341338855079919014
312423 11 18200328648943765937
314194 84 18270398412416988619
33382 64 18338803437602171323
33824 294 18410009957593852874
4463277 69 18411981343176986453
59682541 52 18266996467948739709
6025842 7 18337110188819741829
9709674 26 18260268529705641107

> <PUBCHEM_SHAPE_MULTIPOLES>
380.23
10.18
3.03
1.15
9.74
2.21
-0.05
3.91
-0.75
-4.78
-0.24
0.8
0.02
0.11

> <PUBCHEM_SHAPE_SELFOVERLAP>
800.659

> <PUBCHEM_SHAPE_VOLUME>
214.5

> <PUBCHEM_COORDINATE_TYPE>
2
5
10

$$$$
