127685
  -OEChem-03292013323D

 40 41  0     1  0  0  0  0  0999 V2000
    0.9803   -0.5776    0.2759 O   0  0  0  0  0  0  0  0  0  0  0  0
   -0.2380    1.2548   -0.4999 O   0  0  0  0  0  0  0  0  0  0  0  0
    4.5289    1.4535   -0.1107 O   0  0  0  0  0  0  0  0  0  0  0  0
    4.5409   -1.4258    0.1449 O   0  0  0  0  0  0  0  0  0  0  0  0
    2.1376    2.3487   -1.5807 O   0  0  0  0  0  0  0  0  0  0  0  0
    0.7918   -3.2618    0.8374 O   0  0  0  0  0  0  0  0  0  0  0  0
   -5.0350   -1.4167   -0.9988 O   0  0  0  0  0  0  0  0  0  0  0  0
   -0.9373    1.8289    1.8851 O   0  0  0  0  0  0  0  0  0  0  0  0
    3.4600    0.6136   -0.5495 C   0  0  1  0  0  0  0  0  0  0  0  0
    3.4021   -0.6009    0.3773 C   0  0  1  0  0  0  0  0  0  0  0  0
    2.1488    1.3987   -0.5154 C   0  0  2  0  0  0  0  0  0  0  0  0
    2.1293   -1.4137    0.1283 C   0  0  1  0  0  0  0  0  0  0  0  0
    0.9429    0.4748   -0.6852 C   0  0  1  0  0  0  0  0  0  0  0  0
    1.9912   -2.5645    1.1201 C   0  0  0  0  0  0  0  0  0  0  0  0
   -1.4312    0.5947   -0.6083 C   0  0  0  0  0  0  0  0  0  0  0  0
   -2.3217    0.5561    0.4613 C   0  0  0  0  0  0  0  0  0  0  0  0
   -1.7442   -0.0391   -1.8080 C   0  0  0  0  0  0  0  0  0  0  0  0
   -3.5340   -0.1212    0.3302 C   0  0  0  0  0  0  0  0  0  0  0  0
   -2.9566   -0.7162   -1.9389 C   0  0  0  0  0  0  0  0  0  0  0  0
   -2.0083    1.2130    1.7229 C   0  0  0  0  0  0  0  0  0  0  0  0
   -3.8515   -0.7573   -0.8700 C   0  0  0  0  0  0  0  0  0  0  0  0
   -2.9961    1.1579    2.8818 C   0  0  0  0  0  0  0  0  0  0  0  0
    3.7036    0.3135   -1.5761 H   0  0  0  0  0  0  0  0  0  0  0  0
    3.4474   -0.2655    1.4207 H   0  0  0  0  0  0  0  0  0  0  0  0
    2.0711    1.9684    0.4183 H   0  0  0  0  0  0  0  0  0  0  0  0
    2.1238   -1.8376   -0.8852 H   0  0  0  0  0  0  0  0  0  0  0  0
    0.9455    0.0535   -1.6989 H   0  0  0  0  0  0  0  0  0  0  0  0
    1.9303   -2.1999    2.1509 H   0  0  0  0  0  0  0  0  0  0  0  0
    2.8251   -3.2679    1.0434 H   0  0  0  0  0  0  0  0  0  0  0  0
    5.3435    0.9225   -0.1308 H   0  0  0  0  0  0  0  0  0  0  0  0
    4.5053   -1.7341   -0.7766 H   0  0  0  0  0  0  0  0  0  0  0  0
    2.2076    1.8622   -2.4198 H   0  0  0  0  0  0  0  0  0  0  0  0
    0.0591   -2.6255    0.9013 H   0  0  0  0  0  0  0  0  0  0  0  0
   -1.0712   -0.0019   -2.6596 H   0  0  0  0  0  0  0  0  0  0  0  0
   -4.2529   -0.1725    1.1423 H   0  0  0  0  0  0  0  0  0  0  0  0
   -3.2005   -1.2058   -2.8779 H   0  0  0  0  0  0  0  0  0  0  0  0
   -3.1550    0.1232    3.1965 H   0  0  0  0  0  0  0  0  0  0  0  0
   -3.9371    1.6383    2.6020 H   0  0  0  0  0  0  0  0  0  0  0  0
   -2.5787    1.7071    3.7321 H   0  0  0  0  0  0  0  0  0  0  0  0
   -5.5308   -1.3444   -0.1652 H   0  0  0  0  0  0  0  0  0  0  0  0
  1 12  1  0  0  0  0
  1 13  1  0  0  0  0
  2 13  1  0  0  0  0
  2 15  1  0  0  0  0
  3  9  1  0  0  0  0
  3 30  1  0  0  0  0
  4 10  1  0  0  0  0
  4 31  1  0  0  0  0
  5 11  1  0  0  0  0
  5 32  1  0  0  0  0
  6 14  1  0  0  0  0
  6 33  1  0  0  0  0
  7 21  1  0  0  0  0
  7 40  1  0  0  0  0
  8 20  2  0  0  0  0
  9 10  1  0  0  0  0
  9 11  1  0  0  0  0
  9 23  1  0  0  0  0
 10 12  1  0  0  0  0
 10 24  1  0  0  0  0
 11 13  1  0  0  0  0
 11 25  1  0  0  0  0
 12 14  1  0  0  0  0
 12 26  1  0  0  0  0
 13 27  1  0  0  0  0
 14 28  1  0  0  0  0
 14 29  1  0  0  0  0
 15 16  2  0  0  0  0
 15 17  1  0  0  0  0
 16 18  1  0  0  0  0
 16 20  1  0  0  0  0
 17 19  2  0  0  0  0
 17 34  1  0  0  0  0
 18 21  2  0  0  0  0
 18 35  1  0  0  0  0
 19 21  1  0  0  0  0
 19 36  1  0  0  0  0
 20 22  1  0  0  0  0
 22 37  1  0  0  0  0
 22 38  1  0  0  0  0
 22 39  1  0  0  0  0
M  END
> <PUBCHEM_COMPOUND_CID>
127685

> <PUBCHEM_CONFORMER_RMSD>
0.8

> <PUBCHEM_CONFORMER_DIVERSEORDER>
1
29
108
109
116
119
104
14
12
58
106
11
51
102
111
89
78
37
118
113
59
91
110
100
20
98
43
81
70
105
115
57
16
54
69
96
33
71
114
129
128
30
74
32
75
126
25
130
72
99
103
27
28
67
49
61
101
82
56
94
4
121
79
55
38
15
73
65
127
19
120
36
92
62
123
41
48
44
24
8
53
6
7
95
122
88
26
85
125
124
90
5
86
60
84
47
76
3
117
40
80
77
87
17
2
22
68
45
107
50
23
13
39
9
112
10
35
18
64
93
31
63
34
52
21
83
97
66
46
42

> <PUBCHEM_MMFF94_PARTIAL_CHARGES>
30
1 -0.56
10 0.28
11 0.28
12 0.28
13 0.56
14 0.28
15 0.08
16 0.09
17 -0.15
18 -0.15
19 -0.15
2 -0.36
20 0.42
21 0.08
22 0.06
3 -0.68
30 0.4
31 0.4
32 0.4
33 0.4
34 0.15
35 0.15
36 0.15
4 -0.68
40 0.45
5 -0.68
6 -0.68
7 -0.53
8 -0.57
9 0.28

> <PUBCHEM_EFFECTIVE_ROTOR_COUNT>
5.2

> <PUBCHEM_PHARMACOPHORE_FEATURES>
14
1 1 acceptor
1 2 acceptor
1 3 acceptor
1 3 donor
1 4 acceptor
1 4 donor
1 5 acceptor
1 5 donor
1 6 acceptor
1 6 donor
1 7 donor
1 8 acceptor
6 1 9 10 11 12 13 rings
6 15 16 17 18 19 21 rings

> <PUBCHEM_HEAVY_ATOM_COUNT>
22

> <PUBCHEM_ATOM_DEF_STEREO_COUNT>
5

> <PUBCHEM_ATOM_UDEF_STEREO_COUNT>
0

> <PUBCHEM_BOND_DEF_STEREO_COUNT>
0

> <PUBCHEM_BOND_UDEF_STEREO_COUNT>
0

> <PUBCHEM_ISOTOPIC_ATOM_COUNT>
0

> <PUBCHEM_COMPONENT_COUNT>
1

> <PUBCHEM_CACTVS_TAUTO_COUNT>
6

> <PUBCHEM_CONFORMER_ID>
0001F2C500000001

> <PUBCHEM_MMFF94_ENERGY>
71.0377

> <PUBCHEM_FEATURE_SELFOVERLAP>
71.126

> <PUBCHEM_SHAPE_FINGERPRINT>
10366900 7 16950562155814479862
11578080 2 18055884702549395385
11615757 297 18409728448041164942
12236239 1 18272934942101583101
12553582 1 18043819671494993898
12596599 1 18199756846999476742
12788726 201 17846785122324187435
13009979 54 18057596565002329594
13032168 30 18269270338502612466
13538477 17 17917715638990843737
13583140 156 18337411378435099233
13911987 19 17823148980791281348
13965767 371 17555198864100354592
14420673 8 16841655387750741614
14787075 74 17842822593559506664
15375358 24 16877659067341371917
15375462 189 18200864167167693807
16752209 62 17417801800119021117
17138139 8 17909533296885392615
19422 9 18059577949384768222
200 152 18410568500810543293
20600515 1 16558177337097927253
20645477 70 17822007627243512116
22112679 90 18059583468191338393
23419403 2 16545543076184104913
23526113 38 17023458634248146376
23557571 272 16056614165463879336
23559900 14 15285354020863045900
23598288 3 17988638541756241453
23598291 2 18198636444687371228
23598294 1 17346601837682128569
23728640 28 15738503087664297747
238 59 17822285794979528986
312423 11 18202571661459682748
33382 64 18188772881300965715
4409770 3 15819857778174809320
474 4 18053940925364089576
7097593 13 17841439124279273986
77492 1 18272378571980160245
9981440 41 16548878969031201240

> <PUBCHEM_SHAPE_MULTIPOLES>
405.8
8.16
2.4
2
0.98
0.98
-0.68
1.49
0.7
1.16
-0.86
-1.87
-0.59
-2.74

> <PUBCHEM_SHAPE_SELFOVERLAP>
854.646

> <PUBCHEM_SHAPE_VOLUME>
226.2

> <PUBCHEM_COORDINATE_TYPE>
2
5
10

$$$$
