127678
  -OEChem-03292013323D

 36 38  0     0  0  0  0  0  0999 V2000
   -2.4201    1.1986    0.5658 O   0  0  0  0  0  0  0  0  0  0  0  0
    1.7676    1.2262    1.6622 O   0  0  0  0  0  0  0  0  0  0  0  0
   -0.0480    0.0855    0.8271 N   0  0  0  0  0  0  0  0  0  0  0  0
    0.1855   -1.6213   -0.7807 N   0  0  0  0  0  0  0  0  0  0  0  0
    4.2577    0.6923    0.6611 N   0  0  0  0  0  0  0  0  0  0  0  0
    4.3504   -0.9607   -0.8840 N   0  0  0  0  0  0  0  0  0  0  0  0
    5.4933    0.4360    0.2089 N   0  0  0  0  0  0  0  0  0  0  0  0
    5.5958   -0.5364   -0.7078 N   0  0  0  0  0  0  0  0  0  0  0  0
   -2.0319   -1.1085    0.0352 C   0  0  0  0  0  0  0  0  0  0  0  0
   -2.8991   -0.0532    0.3185 C   0  0  0  0  0  0  0  0  0  0  0  0
   -0.5623   -0.8979   -0.0051 C   0  0  0  0  0  0  0  0  0  0  0  0
   -2.8504    2.2408   -0.3072 C   0  0  0  0  0  0  0  0  0  0  0  0
   -1.7457    3.2808   -0.4132 C   0  0  0  0  0  0  0  0  0  0  0  0
   -2.5421   -2.3827   -0.2137 C   0  0  0  0  0  0  0  0  0  0  0  0
   -4.2763   -0.2722    0.3526 C   0  0  0  0  0  0  0  0  0  0  0  0
    2.1600   -0.4317   -0.0143 C   0  0  0  0  0  0  0  0  0  0  0  0
    1.3009    0.3821    0.9022 C   0  0  0  0  0  0  0  0  0  0  0  0
   -3.9193   -2.6015   -0.1794 C   0  0  0  0  0  0  0  0  0  0  0  0
   -4.7863   -1.5465    0.1038 C   0  0  0  0  0  0  0  0  0  0  0  0
    1.5303   -1.3568   -0.7606 C   0  0  0  0  0  0  0  0  0  0  0  0
   -2.1402    4.4335   -1.3190 C   0  0  0  0  0  0  0  0  0  0  0  0
    3.5804   -0.2066   -0.0527 C   0  0  0  0  0  0  0  0  0  0  0  0
   -3.7586    2.6930    0.1071 H   0  0  0  0  0  0  0  0  0  0  0  0
   -3.0790    1.8450   -1.3053 H   0  0  0  0  0  0  0  0  0  0  0  0
   -1.4989    3.6591    0.5860 H   0  0  0  0  0  0  0  0  0  0  0  0
   -0.8308    2.8082   -0.7904 H   0  0  0  0  0  0  0  0  0  0  0  0
   -1.8863   -3.2222   -0.4292 H   0  0  0  0  0  0  0  0  0  0  0  0
   -0.6695    0.6096    1.4360 H   0  0  0  0  0  0  0  0  0  0  0  0
   -4.9641    0.5376    0.5805 H   0  0  0  0  0  0  0  0  0  0  0  0
   -4.3166   -3.5941   -0.3709 H   0  0  0  0  0  0  0  0  0  0  0  0
   -5.8584   -1.7176    0.1329 H   0  0  0  0  0  0  0  0  0  0  0  0
    2.0960   -1.9858   -1.4424 H   0  0  0  0  0  0  0  0  0  0  0  0
   -3.0315    4.9434   -0.9394 H   0  0  0  0  0  0  0  0  0  0  0  0
   -1.3287    5.1656   -1.3763 H   0  0  0  0  0  0  0  0  0  0  0  0
   -2.3515    4.0809   -2.3335 H   0  0  0  0  0  0  0  0  0  0  0  0
    6.3036    0.9477    0.5413 H   0  0  0  0  0  0  0  0  0  0  0  0
  1 10  1  0  0  0  0
  1 12  1  0  0  0  0
  2 17  2  0  0  0  0
  3 11  1  0  0  0  0
  3 17  1  0  0  0  0
  3 28  1  0  0  0  0
  4 11  2  0  0  0  0
  4 20  1  0  0  0  0
  5  7  1  0  0  0  0
  5 22  2  0  0  0  0
  6  8  2  0  0  0  0
  6 22  1  0  0  0  0
  7  8  1  0  0  0  0
  7 36  1  0  0  0  0
  9 10  1  0  0  0  0
  9 11  1  0  0  0  0
  9 14  2  0  0  0  0
 10 15  2  0  0  0  0
 12 13  1  0  0  0  0
 12 23  1  0  0  0  0
 12 24  1  0  0  0  0
 13 21  1  0  0  0  0
 13 25  1  0  0  0  0
 13 26  1  0  0  0  0
 14 18  1  0  0  0  0
 14 27  1  0  0  0  0
 15 19  1  0  0  0  0
 15 29  1  0  0  0  0
 16 17  1  0  0  0  0
 16 20  2  0  0  0  0
 16 22  1  0  0  0  0
 18 19  2  0  0  0  0
 18 30  1  0  0  0  0
 19 31  1  0  0  0  0
 20 32  1  0  0  0  0
 21 33  1  0  0  0  0
 21 34  1  0  0  0  0
 21 35  1  0  0  0  0
M  END
> <PUBCHEM_COMPOUND_CID>
127678

> <PUBCHEM_CONFORMER_RMSD>
0.8

> <PUBCHEM_CONFORMER_DIVERSEORDER>
1
21
14
23
19
16
4
7
3
15
12
2
6
17
18
11
22
10
13
20
9
5
8

> <PUBCHEM_MMFF94_PARTIAL_CHARGES>
27
1 -0.36
10 0.08
11 0.42
12 0.28
14 -0.15
15 -0.15
16 0.06
17 0.62
18 -0.15
19 -0.15
2 -0.57
20 0.02
22 0.47
27 0.15
28 0.37
29 0.15
3 -0.49
30 0.15
31 0.15
32 0.15
36 0.27
4 -0.62
5 -0.71
6 -0.23
7 0.57
8 -0.42
9 0.09

> <PUBCHEM_EFFECTIVE_ROTOR_COUNT>
5

> <PUBCHEM_PHARMACOPHORE_FEATURES>
8
1 1 acceptor
1 2 acceptor
1 21 hydrophobe
1 3 donor
3 5 6 22 cation
5 5 6 7 8 22 rings
6 3 4 11 16 17 20 rings
6 9 10 14 15 18 19 rings

> <PUBCHEM_HEAVY_ATOM_COUNT>
22

> <PUBCHEM_ATOM_DEF_STEREO_COUNT>
0

> <PUBCHEM_ATOM_UDEF_STEREO_COUNT>
0

> <PUBCHEM_BOND_DEF_STEREO_COUNT>
0

> <PUBCHEM_BOND_UDEF_STEREO_COUNT>
0

> <PUBCHEM_ISOTOPIC_ATOM_COUNT>
0

> <PUBCHEM_COMPONENT_COUNT>
1

> <PUBCHEM_CACTVS_TAUTO_COUNT>
8

> <PUBCHEM_CONFORMER_ID>
0001F2BE00000001

> <PUBCHEM_MMFF94_ENERGY>
58.144

> <PUBCHEM_FEATURE_SELFOVERLAP>
40.596

> <PUBCHEM_SHAPE_FINGERPRINT>
10165383 225 18126576613452141073
10670039 82 18336001813165483572
11045515 52 18115020935285488629
11595378 159 18187628216075008104
12107183 9 17539679215072924802
12236239 1 17458060482230358034
12403259 226 18271802470847103368
12403259 415 17988920085336384592
12788726 201 18186513285688530881
13402501 40 18201720652218091851
138480 1 15671536202677763021
14251751 93 18409727327091721244
14508225 48 18339631361083108453
15196674 1 18059859510166126170
15961568 22 18191020321406776220
17357779 13 18270664459686530021
200 152 16702024201271388555
20645477 70 17059787628729444886
21033650 10 18045246889485709302
21267235 1 18271251642009504499
22182313 1 17988060267312308536
2297311 6 18410301336586098775
23402539 116 18411415150687157055
23557571 272 18413114948023094861
23559900 14 18272364329952775643
350125 39 18272938262127120705
3524813 1 18131063857537424073
4214541 1 18343587330367377394
59755656 215 18201160966461219895
7808743 9 18190178975424649069

> <PUBCHEM_SHAPE_MULTIPOLES>
411.13
10.26
3.6
0.99
11.39
4.98
0.08
-2.93
-0.51
-5.46
-1.57
0.38
0.35
1.06

> <PUBCHEM_SHAPE_SELFOVERLAP>
890.25

> <PUBCHEM_SHAPE_VOLUME>
224.9

> <PUBCHEM_COORDINATE_TYPE>
2
5
10

$$$$
