127699
  -OEChem-03292013323D

 45 46  0     1  0  0  0  0  0999 V2000
   -0.9022   -1.6065   -3.2838 Br  0  0  0  0  0  0  0  0  0  0  0  0
    2.2280   -2.1736    0.6295 S   0  0  0  0  0  0  0  0  0  0  0  0
    3.8435   -0.7901    0.5909 P   0  0  1  0  0  0  0  0  0  0  0  0
    0.6134    1.2041   -0.8530 O   0  0  0  0  0  0  0  0  0  0  0  0
    1.0576    4.2992    0.9165 O   0  0  0  0  0  0  0  0  0  0  0  0
   -0.4197    4.1852   -1.3762 O   0  0  0  0  0  0  0  0  0  0  0  0
    3.2483    0.5999   -0.0356 O   0  0  0  0  0  0  0  0  0  0  0  0
    4.2375   -0.5588    2.0342 O   0  5  0  0  0  0  0  0  0  0  0  0
    4.8445   -1.3518   -0.3963 O   0  0  0  0  0  0  0  0  0  0  0  0
   -3.2423   -2.1151    2.7068 O   0  0  0  0  0  0  0  0  0  0  0  0
   -0.3738   -3.1988   -0.2949 O   0  0  0  0  0  0  0  0  0  0  0  0
   -1.7849    0.9722   -0.5473 N   0  3  0  0  0  0  0  0  0  0  0  0
   -1.0842   -1.3477    2.8176 N   0  0  0  0  0  0  0  0  0  0  0  0
    0.4736    3.0583    0.5827 C   0  0  1  0  0  0  0  0  0  0  0  0
   -0.6750    3.1765   -0.4007 C   0  0  2  0  0  0  0  0  0  0  0  0
    1.4409    2.1517   -0.1587 C   0  0  1  0  0  0  0  0  0  0  0  0
   -0.6764    1.8095   -1.0794 C   0  0  1  0  0  0  0  0  0  0  0  0
    2.4060    1.4190    0.7562 C   0  0  0  0  0  0  0  0  0  0  0  0
   -1.5630    0.2208    0.5398 C   0  0  0  0  0  0  0  0  0  0  0  0
   -2.9699    0.9970   -1.1724 C   0  0  0  0  0  0  0  0  0  0  0  0
   -2.5791   -0.5692    1.0583 C   0  0  0  0  0  0  0  0  0  0  0  0
   -4.0225    0.2270   -0.6985 C   0  0  0  0  0  0  0  0  0  0  0  0
   -3.8204   -0.5630    0.4292 C   0  0  0  0  0  0  0  0  0  0  0  0
   -2.3491   -1.3875    2.2366 C   0  0  0  0  0  0  0  0  0  0  0  0
    1.7811   -2.4293   -1.0998 C   0  0  0  0  0  0  0  0  0  0  0  0
    0.3772   -2.9844   -1.2466 C   0  0  0  0  0  0  0  0  0  0  0  0
   -0.0890   -3.2447   -2.6553 C   0  0  0  0  0  0  0  0  0  0  0  0
    0.1255    2.5740    1.5029 H   0  0  0  0  0  0  0  0  0  0  0  0
   -1.6158    3.4369    0.0940 H   0  0  0  0  0  0  0  0  0  0  0  0
    2.0097    2.7065   -0.9160 H   0  0  0  0  0  0  0  0  0  0  0  0
   -0.8106    1.8751   -2.1655 H   0  0  0  0  0  0  0  0  0  0  0  0
    1.8569    0.7958    1.4696 H   0  0  0  0  0  0  0  0  0  0  0  0
    3.0305    2.1236    1.3140 H   0  0  0  0  0  0  0  0  0  0  0  0
    0.3550    4.8626    1.2829 H   0  0  0  0  0  0  0  0  0  0  0  0
   -1.1675    4.1831   -1.9979 H   0  0  0  0  0  0  0  0  0  0  0  0
   -0.5748    0.2891    0.9621 H   0  0  0  0  0  0  0  0  0  0  0  0
   -3.0648    1.6364   -2.0416 H   0  0  0  0  0  0  0  0  0  0  0  0
   -4.9855    0.2418   -1.1975 H   0  0  0  0  0  0  0  0  0  0  0  0
   -4.6451   -1.1656    0.8001 H   0  0  0  0  0  0  0  0  0  0  0  0
    1.8361   -1.4712   -1.6230 H   0  0  0  0  0  0  0  0  0  0  0  0
    2.4912   -3.1286   -1.5492 H   0  0  0  0  0  0  0  0  0  0  0  0
   -0.8949   -1.9151    3.6379 H   0  0  0  0  0  0  0  0  0  0  0  0
   -0.3027   -0.7915    2.4949 H   0  0  0  0  0  0  0  0  0  0  0  0
    0.7424   -3.5055   -3.3126 H   0  0  0  0  0  0  0  0  0  0  0  0
   -0.8423   -4.0351   -2.6728 H   0  0  0  0  0  0  0  0  0  0  0  0
  1 27  1  0  0  0  0
  2  3  1  0  0  0  0
  2 25  1  0  0  0  0
  3  7  1  0  0  0  0
  3  8  1  0  0  0  0
  3  9  2  0  0  0  0
  4 16  1  0  0  0  0
  4 17  1  0  0  0  0
  5 14  1  0  0  0  0
  5 34  1  0  0  0  0
  6 15  1  0  0  0  0
  6 35  1  0  0  0  0
  7 18  1  0  0  0  0
 10 24  2  0  0  0  0
 11 26  2  0  0  0  0
 12 17  1  0  0  0  0
 12 19  1  0  0  0  0
 12 20  2  0  0  0  0
 13 24  1  0  0  0  0
 13 42  1  0  0  0  0
 13 43  1  0  0  0  0
 14 15  1  0  0  0  0
 14 16  1  0  0  0  0
 14 28  1  0  0  0  0
 15 17  1  0  0  0  0
 15 29  1  0  0  0  0
 16 18  1  0  0  0  0
 16 30  1  0  0  0  0
 17 31  1  0  0  0  0
 18 32  1  0  0  0  0
 18 33  1  0  0  0  0
 19 21  2  0  0  0  0
 19 36  1  0  0  0  0
 20 22  1  0  0  0  0
 20 37  1  0  0  0  0
 21 23  1  0  0  0  0
 21 24  1  0  0  0  0
 22 23  2  0  0  0  0
 22 38  1  0  0  0  0
 23 39  1  0  0  0  0
 25 26  1  0  0  0  0
 25 40  1  0  0  0  0
 25 41  1  0  0  0  0
 26 27  1  0  0  0  0
 27 44  1  0  0  0  0
 27 45  1  0  0  0  0
M  CHG  2   8  -1  12   1
M  END
> <PUBCHEM_COMPOUND_CID>
127699

> <PUBCHEM_CONFORMER_RMSD>
1.2

> <PUBCHEM_CONFORMER_DIVERSEORDER>
1
330
233
328
6
243
41
333
39
82
414
119
183
79
202
341
138
263
90
102
267
318
103
430
458
485
513
272
254
295
285
133
327
277
122
290
269
83
387
308
338
258
213
256
465
61
340
404
45
273
484
159
300
284
169
187
146
129
329
514
307
5
120
358
30
448
211
367
2
29
116
158
253
510
420
64
12
93
108
240
173
475
23
24
416
426
31
51
33
197
154
135
396
225
71
317
21
94
48
172
19
72
247
22
177
174
13
227
54
53
4
77
335
410
14
130
9
261
25
85
157
80
81
18
132
8
17
143
3
118
20

> <PUBCHEM_MMFF94_PARTIAL_CHARGES>
35
1 -0.23
10 -0.57
11 -0.57
12 -0.21
13 -0.8
14 0.28
15 0.28
16 0.28
17 0.77
18 0.28
19 0.21
2 -0.48
20 0.21
21 0.09
22 -0.15
23 -0.15
24 0.54
25 0.29
26 0.45
27 0.29
3 1.42
34 0.4
35 0.4
36 0.15
37 0.15
38 0.15
39 0.15
4 -0.56
42 0.37
43 0.37
5 -0.68
6 -0.68
7 -0.55
8 -0.95
9 -0.95

> <PUBCHEM_EFFECTIVE_ROTOR_COUNT>
10

> <PUBCHEM_PHARMACOPHORE_FEATURES>
13
1 1 hydrophobe
1 10 acceptor
1 11 acceptor
1 13 donor
1 4 acceptor
1 5 acceptor
1 5 donor
1 6 acceptor
1 6 donor
1 8 acceptor
1 9 acceptor
5 4 14 15 16 17 rings
6 12 19 20 21 22 23 rings

> <PUBCHEM_HEAVY_ATOM_COUNT>
27

> <PUBCHEM_ATOM_DEF_STEREO_COUNT>
4

> <PUBCHEM_ATOM_UDEF_STEREO_COUNT>
0

> <PUBCHEM_BOND_DEF_STEREO_COUNT>
0

> <PUBCHEM_BOND_UDEF_STEREO_COUNT>
0

> <PUBCHEM_ISOTOPIC_ATOM_COUNT>
0

> <PUBCHEM_COMPONENT_COUNT>
1

> <PUBCHEM_CACTVS_TAUTO_COUNT>
6

> <PUBCHEM_CONFORMER_ID>
0001F2D300000001

> <PUBCHEM_MMFF94_ENERGY>
61.7656

> <PUBCHEM_FEATURE_SELFOVERLAP>
65.997

> <PUBCHEM_SHAPE_FINGERPRINT>
10708813 3 18056746857072019198
10906281 52 18264781956213449229
11221954 11 17619908357726534310
12596599 1 17275101721878138294
12788726 201 18117834395961396496
13402501 40 18335983077684434371
13615921 28 17248889196841556386
14363568 33 18120961626490646816
19930381 70 18340476760601798095
20397935 3 17242481462112785547
20600515 1 17676777478431811805
20905425 154 18046333150411493627
21796203 349 18266759011612148472
23419403 2 17606103225057758415
23558518 356 17760652464784720936
23559900 14 17895753036013037181
3493558 16 15868327339477769078
35225 105 14060042899275971935
469060 322 18197474385303989095
6287921 2 17201946785123965767
81228 2 17759545273644565533

> <PUBCHEM_SHAPE_MULTIPOLES>
512.37
6.24
4.98
2.68
3.56
3.12
0.25
-1.82
2.53
0.81
-2
-1.63
-2.48
1.39

> <PUBCHEM_SHAPE_SELFOVERLAP>
1018.088

> <PUBCHEM_SHAPE_VOLUME>
308.4

> <PUBCHEM_COORDINATE_TYPE>
2
5
10

$$$$
