127681
  -OEChem-03292013323D

 55 54  0     1  0  0  0  0  0999 V2000
    1.4228   -0.2876    0.8634 O   0  0  0  0  0  0  0  0  0  0  0  0
    1.4207    2.3010   -2.0557 O   0  0  0  0  0  0  0  0  0  0  0  0
   -1.4632    3.3882    1.3912 O   0  0  0  0  0  0  0  0  0  0  0  0
    2.3089    0.1033    2.9608 O   0  0  0  0  0  0  0  0  0  0  0  0
   -3.0862    3.8829   -0.1157 O   0  0  0  0  0  0  0  0  0  0  0  0
    3.5489   -1.7815   -0.8083 N   0  3  0  0  0  0  0  0  0  0  0  0
    0.0676    2.2044   -0.1698 N   0  0  0  0  0  0  0  0  0  0  0  0
   -3.3311   -1.8573    0.2628 N   0  0  0  0  0  0  0  0  0  0  0  0
   -4.3261   -3.3524   -1.3323 N   0  0  0  0  0  0  0  0  0  0  0  0
   -4.2975   -3.8691    0.8874 N   0  0  0  0  0  0  0  0  0  0  0  0
    2.8716   -0.4842   -1.0549 C   0  0  0  0  0  0  0  0  0  0  0  0
    2.5995    0.2490    0.2581 C   0  0  1  0  0  0  0  0  0  0  0  0
    2.6911   -2.6815    0.0918 C   0  0  0  0  0  0  0  0  0  0  0  0
    3.7990   -2.5254   -2.1274 C   0  0  0  0  0  0  0  0  0  0  0  0
    4.9026   -1.5670   -0.1175 C   0  0  0  0  0  0  0  0  0  0  0  0
    2.4183    1.7593    0.0874 C   0  0  0  0  0  0  0  0  0  0  0  0
    1.2736    2.1153   -0.8509 C   0  0  0  0  0  0  0  0  0  0  0  0
   -1.1815    2.5337   -0.8173 C   0  0  1  0  0  0  0  0  0  0  0  0
   -1.9208    1.2940   -1.3284 C   0  0  0  0  0  0  0  0  0  0  0  0
   -2.3011    0.2918   -0.2321 C   0  0  0  0  0  0  0  0  0  0  0  0
    1.4148   -0.2982    2.2282 C   0  0  0  0  0  0  0  0  0  0  0  0
   -2.0186    3.3469    0.1518 C   0  0  0  0  0  0  0  0  0  0  0  0
   -2.9940   -0.9325   -0.8207 C   0  0  0  0  0  0  0  0  0  0  0  0
    0.1263   -0.8843    2.7202 C   0  0  0  0  0  0  0  0  0  0  0  0
   -3.9458   -2.9487   -0.0718 C   0  0  0  0  0  0  0  0  0  0  0  0
    3.5300    0.1048   -1.7047 H   0  0  0  0  0  0  0  0  0  0  0  0
    1.9395   -0.6927   -1.5946 H   0  0  0  0  0  0  0  0  0  0  0  0
    3.4507    0.1548    0.9347 H   0  0  0  0  0  0  0  0  0  0  0  0
    2.7444   -2.3346    1.1244 H   0  0  0  0  0  0  0  0  0  0  0  0
    3.1098   -3.6927    0.0521 H   0  0  0  0  0  0  0  0  0  0  0  0
    1.6676   -2.6911   -0.2935 H   0  0  0  0  0  0  0  0  0  0  0  0
    4.2983   -3.4742   -1.9100 H   0  0  0  0  0  0  0  0  0  0  0  0
    4.4317   -1.8942   -2.7582 H   0  0  0  0  0  0  0  0  0  0  0  0
    2.8315   -2.7020   -2.6063 H   0  0  0  0  0  0  0  0  0  0  0  0
    5.4658   -2.5040   -0.1809 H   0  0  0  0  0  0  0  0  0  0  0  0
    4.7624   -1.3257    0.9381 H   0  0  0  0  0  0  0  0  0  0  0  0
    5.4406   -0.7737   -0.6444 H   0  0  0  0  0  0  0  0  0  0  0  0
    3.3323    2.2071   -0.3207 H   0  0  0  0  0  0  0  0  0  0  0  0
    2.2384    2.2376    1.0580 H   0  0  0  0  0  0  0  0  0  0  0  0
   -0.9527    3.1924   -1.6638 H   0  0  0  0  0  0  0  0  0  0  0  0
    0.0481    1.9984    0.8251 H   0  0  0  0  0  0  0  0  0  0  0  0
   -1.2918    0.7863   -2.0710 H   0  0  0  0  0  0  0  0  0  0  0  0
   -2.8332    1.6110   -1.8495 H   0  0  0  0  0  0  0  0  0  0  0  0
   -1.4042   -0.0323    0.3056 H   0  0  0  0  0  0  0  0  0  0  0  0
   -2.9600    0.7652    0.5054 H   0  0  0  0  0  0  0  0  0  0  0  0
   -3.9021   -0.6136   -1.3466 H   0  0  0  0  0  0  0  0  0  0  0  0
   -2.3222   -1.4183   -1.5387 H   0  0  0  0  0  0  0  0  0  0  0  0
   -0.6647   -0.1334    2.6621 H   0  0  0  0  0  0  0  0  0  0  0  0
    0.2485   -1.2020    3.7595 H   0  0  0  0  0  0  0  0  0  0  0  0
   -0.1382   -1.7658    2.1295 H   0  0  0  0  0  0  0  0  0  0  0  0
   -2.0142    3.8991    2.0218 H   0  0  0  0  0  0  0  0  0  0  0  0
   -4.1434   -2.7930   -2.1577 H   0  0  0  0  0  0  0  0  0  0  0  0
   -4.8058   -4.2345   -1.4759 H   0  0  0  0  0  0  0  0  0  0  0  0
   -4.0844   -3.7123    1.8665 H   0  0  0  0  0  0  0  0  0  0  0  0
   -4.7793   -4.7283    0.6466 H   0  0  0  0  0  0  0  0  0  0  0  0
  1 12  1  0  0  0  0
  1 21  1  0  0  0  0
  2 17  2  0  0  0  0
  3 22  1  0  0  0  0
  3 51  1  0  0  0  0
  4 21  2  0  0  0  0
  5 22  2  0  0  0  0
  6 11  1  0  0  0  0
  6 13  1  0  0  0  0
  6 14  1  0  0  0  0
  6 15  1  0  0  0  0
  7 17  1  0  0  0  0
  7 18  1  0  0  0  0
  7 41  1  0  0  0  0
  8 23  1  0  0  0  0
  8 25  2  0  0  0  0
  9 25  1  0  0  0  0
  9 52  1  0  0  0  0
  9 53  1  0  0  0  0
 10 25  1  0  0  0  0
 10 54  1  0  0  0  0
 10 55  1  0  0  0  0
 11 12  1  0  0  0  0
 11 26  1  0  0  0  0
 11 27  1  0  0  0  0
 12 16  1  0  0  0  0
 12 28  1  0  0  0  0
 13 29  1  0  0  0  0
 13 30  1  0  0  0  0
 13 31  1  0  0  0  0
 14 32  1  0  0  0  0
 14 33  1  0  0  0  0
 14 34  1  0  0  0  0
 15 35  1  0  0  0  0
 15 36  1  0  0  0  0
 15 37  1  0  0  0  0
 16 17  1  0  0  0  0
 16 38  1  0  0  0  0
 16 39  1  0  0  0  0
 18 19  1  0  0  0  0
 18 22  1  0  0  0  0
 18 40  1  0  0  0  0
 19 20  1  0  0  0  0
 19 42  1  0  0  0  0
 19 43  1  0  0  0  0
 20 23  1  0  0  0  0
 20 44  1  0  0  0  0
 20 45  1  0  0  0  0
 21 24  1  0  0  0  0
 23 46  1  0  0  0  0
 23 47  1  0  0  0  0
 24 48  1  0  0  0  0
 24 49  1  0  0  0  0
 24 50  1  0  0  0  0
M  CHG  1   6   1
M  END
> <PUBCHEM_COMPOUND_CID>
127681

> <PUBCHEM_CONFORMER_RMSD>
1.2

> <PUBCHEM_CONFORMER_DIVERSEORDER>
1
15
42
65
49
8
56
67
32
28
13
18
39
62
35
33
4
25
68
29
17
46
60
9
21
37
63
10
48
34
40
6
31
64
26
59
7
50
61
36
44
52
24
58
38
45
47
41
12
22
51
16
66
43
54
23
19
30
14
11
20
27
57
53
2
5
55
3

> <PUBCHEM_MMFF94_PARTIAL_CHARGES>
29
1 -0.43
10 -0.85
11 0.5
12 0.28
13 0.5
14 0.5
15 0.5
16 0.06
17 0.57
18 0.36
2 -0.57
21 0.66
22 0.66
23 0.25
24 0.06
25 0.55
3 -0.65
4 -0.57
41 0.37
5 -0.57
51 0.5
52 0.4
53 0.4
54 0.4
55 0.4
6 -1.01
7 -0.73
8 -0.7
9 -0.85

> <PUBCHEM_EFFECTIVE_ROTOR_COUNT>
13

> <PUBCHEM_PHARMACOPHORE_FEATURES>
10
1 10 donor
1 2 acceptor
1 3 acceptor
1 4 acceptor
1 5 acceptor
1 6 cation
1 7 donor
1 9 donor
3 3 5 22 anion
4 8 9 10 25 cation

> <PUBCHEM_HEAVY_ATOM_COUNT>
25

> <PUBCHEM_ATOM_DEF_STEREO_COUNT>
2

> <PUBCHEM_ATOM_UDEF_STEREO_COUNT>
0

> <PUBCHEM_BOND_DEF_STEREO_COUNT>
0

> <PUBCHEM_BOND_UDEF_STEREO_COUNT>
0

> <PUBCHEM_ISOTOPIC_ATOM_COUNT>
0

> <PUBCHEM_COMPONENT_COUNT>
1

> <PUBCHEM_CACTVS_TAUTO_COUNT>
4

> <PUBCHEM_CONFORMER_ID>
0001F2C100000001

> <PUBCHEM_MMFF94_ENERGY>
60.3629

> <PUBCHEM_FEATURE_SELFOVERLAP>
50.861

> <PUBCHEM_SHAPE_FINGERPRINT>
11578080 2 17988923345259033512
12549972 3 17488159527082981753
12596599 1 18334852792668678073
14863182 85 17904202877414283692
17909252 39 18267879439603749582
19319366 153 17026293084924751512
20600515 1 17973966696896735901
20775530 9 18341615961838006383
23557571 272 18196908085491549609
23558518 356 18259995876597693620
238 59 17322958210379628657
5309563 4 18268711778327761975

> <PUBCHEM_SHAPE_MULTIPOLES>
460.24
8.2
5.27
2.18
0.09
0.29
-1.42
8.63
2.26
-6.99
0.85
1.41
0.38
0.48

> <PUBCHEM_SHAPE_SELFOVERLAP>
891.968

> <PUBCHEM_SHAPE_VOLUME>
277.3

> <PUBCHEM_COORDINATE_TYPE>
2
5
10

$$$$
