127794
  -OEChem-03292013323D

 41 41  0     0  0  0  0  0  0999 V2000
   -5.6707    0.5180   -1.9809 Cl  0  0  0  0  0  0  0  0  0  0  0  0
    6.5681   -2.9207   -1.3050 O   0  0  0  0  0  0  0  0  0  0  0  0
    7.1235   -1.6724    0.5090 O   0  0  0  0  0  0  0  0  0  0  0  0
   -0.3424   -0.3990    0.5933 O   0  0  0  0  0  0  0  0  0  0  0  0
    1.0215    1.9815    0.3526 N   0  0  0  0  0  0  0  0  0  0  0  0
   -1.2509    1.6869    0.0550 N   0  0  0  0  0  0  0  0  0  0  0  0
   -0.3866    3.8265   -0.2354 N   0  0  0  0  0  0  0  0  0  0  0  0
   -3.4407    0.2867   -0.7035 N   0  0  0  0  0  0  0  0  0  0  0  0
   -4.2291   -1.9435    0.8035 N   0  0  0  0  0  0  0  0  0  0  0  0
   -2.0970   -1.9615    1.8513 N   0  0  0  0  0  0  0  0  0  0  0  0
   -6.3464   -1.8971   -0.2633 N   0  0  0  0  0  0  0  0  0  0  0  0
    3.7110    0.9070   -0.2281 C   0  0  0  0  0  0  0  0  0  0  0  0
    3.4198    2.0596    0.7359 C   0  0  0  0  0  0  0  0  0  0  0  0
    4.9668    0.1133    0.1368 C   0  0  0  0  0  0  0  0  0  0  0  0
    2.1856    2.8702    0.3578 C   0  0  0  0  0  0  0  0  0  0  0  0
    5.1718   -1.0663   -0.8137 C   0  0  0  0  0  0  0  0  0  0  0  0
    6.3850   -1.8873   -0.4420 C   0  0  0  0  0  0  0  0  0  0  0  0
   -0.1191    2.5120    0.0675 C   0  0  0  0  0  0  0  0  0  0  0  0
   -1.3028    0.3120    0.3114 C   0  0  0  0  0  0  0  0  0  0  0  0
   -2.6457   -0.3101    0.1877 C   0  0  0  0  0  0  0  0  0  0  0  0
   -3.0056   -1.3929    0.9304 C   0  0  0  0  0  0  0  0  0  0  0  0
   -5.0517   -1.3591   -0.0901 C   0  0  0  0  0  0  0  0  0  0  0  0
   -4.6645   -0.2638   -0.8302 C   0  0  0  0  0  0  0  0  0  0  0  0
    2.8557    0.2207   -0.2479 H   0  0  0  0  0  0  0  0  0  0  0  0
    3.8200    1.3060   -1.2442 H   0  0  0  0  0  0  0  0  0  0  0  0
    4.2863    2.7308    0.7707 H   0  0  0  0  0  0  0  0  0  0  0  0
    3.2904    1.6539    1.7472 H   0  0  0  0  0  0  0  0  0  0  0  0
    4.8815   -0.2539    1.1671 H   0  0  0  0  0  0  0  0  0  0  0  0
    5.8431    0.7726    0.1081 H   0  0  0  0  0  0  0  0  0  0  0  0
    2.3345    3.3176   -0.6322 H   0  0  0  0  0  0  0  0  0  0  0  0
    2.0540    3.6735    1.0924 H   0  0  0  0  0  0  0  0  0  0  0  0
    4.2968   -1.7250   -0.7841 H   0  0  0  0  0  0  0  0  0  0  0  0
    5.3080   -0.6983   -1.8366 H   0  0  0  0  0  0  0  0  0  0  0  0
   -2.1289    2.1460   -0.1746 H   0  0  0  0  0  0  0  0  0  0  0  0
   -1.3305    4.1333   -0.4446 H   0  0  0  0  0  0  0  0  0  0  0  0
    0.3390    4.5337   -0.2634 H   0  0  0  0  0  0  0  0  0  0  0  0
    7.3538   -3.4587   -1.0693 H   0  0  0  0  0  0  0  0  0  0  0  0
   -2.4280   -2.7605    2.3786 H   0  0  0  0  0  0  0  0  0  0  0  0
   -1.1058   -1.9132    1.6524 H   0  0  0  0  0  0  0  0  0  0  0  0
   -6.5963   -2.6971    0.3044 H   0  0  0  0  0  0  0  0  0  0  0  0
   -7.0850   -1.2816   -0.5807 H   0  0  0  0  0  0  0  0  0  0  0  0
  1 23  1  0  0  0  0
  2 17  1  0  0  0  0
  2 37  1  0  0  0  0
  3 17  2  0  0  0  0
  4 19  2  0  0  0  0
  5 15  1  0  0  0  0
  5 18  2  0  0  0  0
  6 18  1  0  0  0  0
  6 19  1  0  0  0  0
  6 34  1  0  0  0  0
  7 18  1  0  0  0  0
  7 35  1  0  0  0  0
  7 36  1  0  0  0  0
  8 20  1  0  0  0  0
  8 23  2  0  0  0  0
  9 21  1  0  0  0  0
  9 22  2  0  0  0  0
 10 21  1  0  0  0  0
 10 38  1  0  0  0  0
 10 39  1  0  0  0  0
 11 22  1  0  0  0  0
 11 40  1  0  0  0  0
 11 41  1  0  0  0  0
 12 13  1  0  0  0  0
 12 14  1  0  0  0  0
 12 24  1  0  0  0  0
 12 25  1  0  0  0  0
 13 15  1  0  0  0  0
 13 26  1  0  0  0  0
 13 27  1  0  0  0  0
 14 16  1  0  0  0  0
 14 28  1  0  0  0  0
 14 29  1  0  0  0  0
 15 30  1  0  0  0  0
 15 31  1  0  0  0  0
 16 17  1  0  0  0  0
 16 32  1  0  0  0  0
 16 33  1  0  0  0  0
 19 20  1  0  0  0  0
 20 21  2  0  0  0  0
 22 23  1  0  0  0  0
M  END
> <PUBCHEM_COMPOUND_CID>
127794

> <PUBCHEM_CONFORMER_RMSD>
1

> <PUBCHEM_CONFORMER_DIVERSEORDER>
1
104
70
107
109
55
84
76
69
87
137
146
11
114
145
135
48
66
129
99
121
10
160
32
15
62
89
14
144
127
67
82
20
58
28
161
74
86
132
117
59
108
170
37
183
64
35
4
22
26
49
156
124
155
41
54
150
173
94
113
12
61
36
148
88
133
123
60
157
38
166
103
182
56
97
24
172
177
18
141
31
128
138
179
118
122
96
136
39
9
175
106
2
83
126
152
8
154
71
111
5
120
23
174
33
17
50
153
73
16
147
151
19
102
51
29
110
3
115
40
142
57
169
165
158
98
131
21
47
13
149
30
46
180
81
119
27
112
93
52
164
167
75
130
53
65
85
78
91
68
168
140
63
162
178
6
100
79
77
163
95
159
72
171
80
181
43
143
105
44
90
176
139
7
92
125
25
101
116
134
45
34
42

> <PUBCHEM_MMFF94_PARTIAL_CHARGES>
28
1 -0.18
10 -0.9
11 -0.9
15 0.25
16 0.06
17 0.66
18 0.56
19 0.54
2 -0.65
20 0.4
21 0.41
22 0.41
23 0.49
3 -0.57
34 0.37
35 0.4
36 0.4
37 0.5
38 0.4
39 0.4
4 -0.57
40 0.4
41 0.4
5 -0.7
6 -0.49
7 -0.85
8 -0.62
9 -0.62

> <PUBCHEM_EFFECTIVE_ROTOR_COUNT>
9

> <PUBCHEM_PHARMACOPHORE_FEATURES>
13
1 10 cation
1 10 donor
1 11 donor
1 2 acceptor
1 3 acceptor
1 4 acceptor
1 6 donor
1 7 donor
1 8 acceptor
3 2 3 17 anion
3 9 11 22 cation
4 12 13 14 16 hydrophobe
6 8 9 20 21 22 23 rings

> <PUBCHEM_HEAVY_ATOM_COUNT>
23

> <PUBCHEM_ATOM_DEF_STEREO_COUNT>
0

> <PUBCHEM_ATOM_UDEF_STEREO_COUNT>
0

> <PUBCHEM_BOND_DEF_STEREO_COUNT>
0

> <PUBCHEM_BOND_UDEF_STEREO_COUNT>
0

> <PUBCHEM_ISOTOPIC_ATOM_COUNT>
0

> <PUBCHEM_COMPONENT_COUNT>
1

> <PUBCHEM_CACTVS_TAUTO_COUNT>
54

> <PUBCHEM_CONFORMER_ID>
0001F33200000001

> <PUBCHEM_MMFF94_ENERGY>
59.2981

> <PUBCHEM_FEATURE_SELFOVERLAP>
66.074

> <PUBCHEM_SHAPE_FINGERPRINT>
10693767 8 18199174260772284287
10917259 69 18196647394669523845
11809386 21 18190175686170127920
12596602 18 14692570996923244966
12760667 363 18341334409688579632
13533116 47 18130507556009059584
13911852 28 18342459261544157228
13955234 65 17914611907188116784
14251764 75 9295277336486378494
14866123 147 18268436728537775537
14931854 50 17968663714373683066
15052358 14 18187635891313603565
15183329 4 17968370169641513040
15352361 1 18411422791734260592
15510800 12 18341325609938964994
15519825 34 14692268669436746804
15927050 60 17763463915653226617
20403669 9 18342182146412841918
20645477 70 18339077223843740192
21033650 10 16950557740488451092
21130935 74 18127413565344646387
21279426 13 18261381257175029885
21307412 95 18408040697713913847
21315763 87 17632286870792426258
21315764 119 17458624471898187582
21401589 2 9583227328250867556
21682296 61 18411985788631927595
2215653 11 18336539512404569837
22849339 104 16806173305476490515
23559900 14 18334572494508076056
270888 7 8358250433229919478
3004659 81 17967529091150352704
3014063 24 17846773001578299398
3421961 26 18342458201167790008
345986 75 17346610689800098016
437815 12 18411133636839423908
444769 64 18339085878698772657
5207 123 18410855469019296556
59682541 35 10087630555489002277
6138700 20 18409165493692815755

> <PUBCHEM_SHAPE_MULTIPOLES>
422.72
17.53
3.58
1.2
15.34
1.96
-0.18
-16.66
-5.74
3.41
0.13
-1.04
-0.46
2.54

> <PUBCHEM_SHAPE_SELFOVERLAP>
852.763

> <PUBCHEM_SHAPE_VOLUME>
246.2

> <PUBCHEM_COORDINATE_TYPE>
2
5
10

$$$$
