127735
  -OEChem-03292013323D

 52 55  0     1  0  0  0  0  0999 V2000
   -1.2453   -1.0827   -0.8918 O   0  0  0  0  0  0  0  0  0  0  0  0
    1.1138   -1.8528   -0.7651 O   0  0  0  0  0  0  0  0  0  0  0  0
    2.8119    2.9871    0.7305 O   0  0  0  0  0  0  0  0  0  0  0  0
    3.4625   -2.8036   -0.6913 O   0  0  0  0  0  0  0  0  0  0  0  0
   -4.4744    4.3302    0.0808 O   0  0  0  0  0  0  0  0  0  0  0  0
   -4.0444   -0.8217    1.3066 O   0  0  0  0  0  0  0  0  0  0  0  0
    6.9682    0.1611    0.5634 O   0  0  0  0  0  0  0  0  0  0  0  0
   -3.0850   -3.7321    1.0511 O   0  0  0  0  0  0  0  0  0  0  0  0
   -1.7504    1.2040   -0.3639 C   0  0  0  0  0  0  0  0  0  0  0  0
    0.5407    0.3758   -0.2653 C   0  0  0  0  0  0  0  0  0  0  0  0
    0.9859    1.6372    0.1256 C   0  0  0  0  0  0  0  0  0  0  0  0
   -1.2986    2.4837    0.0326 C   0  0  0  0  0  0  0  0  0  0  0  0
   -3.1200    1.0037   -0.6039 C   0  0  0  0  0  0  0  0  0  0  0  0
   -0.8216    0.1600   -0.5093 C   0  0  0  0  0  0  0  0  0  0  0  0
    0.0704    2.6867    0.2738 C   0  0  0  0  0  0  0  0  0  0  0  0
    2.9298   -0.5000   -0.1653 C   0  0  0  0  0  0  0  0  0  0  0  0
    3.3761    0.7641    0.2252 C   0  0  0  0  0  0  0  0  0  0  0  0
    1.4958   -0.7406   -0.4246 C   0  0  0  0  0  0  0  0  0  0  0  0
   -3.7224   -0.3013   -1.0280 C   0  0  0  0  0  0  0  0  0  0  0  0
    2.4204    1.8787    0.3861 C   0  0  0  0  0  0  0  0  0  0  0  0
   -2.2294    3.5258    0.1778 C   0  0  0  0  0  0  0  0  0  0  0  0
   -4.0306    2.0498   -0.4548 C   0  0  0  0  0  0  0  0  0  0  0  0
    3.8452   -1.5491   -0.3122 C   0  0  0  0  0  0  0  0  0  0  0  0
   -3.5860    3.3091   -0.0648 C   0  0  0  0  0  0  0  0  0  0  0  0
   -4.1514   -1.1839    0.1359 C   0  0  0  0  0  0  0  0  0  0  0  0
    4.7380    0.9799    0.4676 C   0  0  0  0  0  0  0  0  0  0  0  0
    5.2015   -1.3300   -0.0692 C   0  0  0  0  0  0  0  0  0  0  0  0
   -4.7193   -2.5461   -0.2455 C   0  0  0  0  0  0  0  0  0  0  0  0
    5.6469   -0.0683    0.3197 C   0  0  0  0  0  0  0  0  0  0  0  0
   -4.4880   -3.6123    0.8249 C   0  0  1  0  0  0  0  0  0  0  0  0
    6.1847   -2.4469   -0.2235 C   0  0  0  0  0  0  0  0  0  0  0  0
   -5.0250   -4.9653    0.3770 C   0  0  0  0  0  0  0  0  0  0  0  0
    0.4150    3.6732    0.5791 H   0  0  0  0  0  0  0  0  0  0  0  0
   -4.6559   -0.0875   -1.5716 H   0  0  0  0  0  0  0  0  0  0  0  0
   -3.1487   -0.8442   -1.7799 H   0  0  0  0  0  0  0  0  0  0  0  0
   -1.8981    4.5170    0.4825 H   0  0  0  0  0  0  0  0  0  0  0  0
   -5.0917    1.8921   -0.6357 H   0  0  0  0  0  0  0  0  0  0  0  0
    5.0962    1.9602    0.7724 H   0  0  0  0  0  0  0  0  0  0  0  0
   -4.2216   -2.8585   -1.1716 H   0  0  0  0  0  0  0  0  0  0  0  0
   -5.7873   -2.4204   -0.4522 H   0  0  0  0  0  0  0  0  0  0  0  0
   -4.9595   -3.3257    1.7716 H   0  0  0  0  0  0  0  0  0  0  0  0
   -0.6302   -1.7631   -0.5779 H   0  0  0  0  0  0  0  0  0  0  0  0
    7.2225   -2.1216   -0.1001 H   0  0  0  0  0  0  0  0  0  0  0  0
    6.0036   -3.2223    0.5286 H   0  0  0  0  0  0  0  0  0  0  0  0
    6.1204   -2.8833   -1.2265 H   0  0  0  0  0  0  0  0  0  0  0  0
   -4.5244   -5.3048   -0.5365 H   0  0  0  0  0  0  0  0  0  0  0  0
   -4.8285   -5.7240    1.1423 H   0  0  0  0  0  0  0  0  0  0  0  0
   -6.1029   -4.9244    0.1940 H   0  0  0  0  0  0  0  0  0  0  0  0
    4.1676   -3.4565   -0.5679 H   0  0  0  0  0  0  0  0  0  0  0  0
   -5.3672    4.0048   -0.1268 H   0  0  0  0  0  0  0  0  0  0  0  0
    7.0882    1.0910    0.8217 H   0  0  0  0  0  0  0  0  0  0  0  0
   -2.7770   -2.9059    1.4602 H   0  0  0  0  0  0  0  0  0  0  0  0
  1 14  1  0  0  0  0
  1 42  1  0  0  0  0
  2 18  2  0  0  0  0
  3 20  2  0  0  0  0
  4 23  1  0  0  0  0
  4 49  1  0  0  0  0
  5 24  1  0  0  0  0
  5 50  1  0  0  0  0
  6 25  2  0  0  0  0
  7 29  1  0  0  0  0
  7 51  1  0  0  0  0
  8 30  1  0  0  0  0
  8 52  1  0  0  0  0
  9 12  1  0  0  0  0
  9 13  2  0  0  0  0
  9 14  1  0  0  0  0
 10 11  1  0  0  0  0
 10 14  2  0  0  0  0
 10 18  1  0  0  0  0
 11 15  2  0  0  0  0
 11 20  1  0  0  0  0
 12 15  1  0  0  0  0
 12 21  2  0  0  0  0
 13 19  1  0  0  0  0
 13 22  1  0  0  0  0
 15 33  1  0  0  0  0
 16 17  1  0  0  0  0
 16 18  1  0  0  0  0
 16 23  2  0  0  0  0
 17 20  1  0  0  0  0
 17 26  2  0  0  0  0
 19 25  1  0  0  0  0
 19 34  1  0  0  0  0
 19 35  1  0  0  0  0
 21 24  1  0  0  0  0
 21 36  1  0  0  0  0
 22 24  2  0  0  0  0
 22 37  1  0  0  0  0
 23 27  1  0  0  0  0
 25 28  1  0  0  0  0
 26 29  1  0  0  0  0
 26 38  1  0  0  0  0
 27 29  2  0  0  0  0
 27 31  1  0  0  0  0
 28 30  1  0  0  0  0
 28 39  1  0  0  0  0
 28 40  1  0  0  0  0
 30 32  1  0  0  0  0
 30 41  1  0  0  0  0
 31 43  1  0  0  0  0
 31 44  1  0  0  0  0
 31 45  1  0  0  0  0
 32 46  1  0  0  0  0
 32 47  1  0  0  0  0
 32 48  1  0  0  0  0
M  END
> <PUBCHEM_COMPOUND_CID>
127735

> <PUBCHEM_CONFORMER_RMSD>
0.8

> <PUBCHEM_CONFORMER_DIVERSEORDER>
1
10
9
6
2
14
8
7
5
17
13
12
3
11
4
15
16
18

> <PUBCHEM_MMFF94_PARTIAL_CHARGES>
38
1 -0.53
10 0.09
11 0.09
13 -0.14
14 0.08
15 -0.15
16 0.09
17 0.09
18 0.4
19 0.2
2 -0.57
20 0.4
21 -0.15
22 -0.15
23 0.08
24 0.08
25 0.45
26 -0.15
27 -0.14
28 0.06
29 0.08
3 -0.57
30 0.28
31 0.14
33 0.15
36 0.15
37 0.15
38 0.15
4 -0.53
42 0.45
49 0.45
5 -0.53
50 0.45
51 0.45
52 0.4
6 -0.57
7 -0.53
8 -0.68

> <PUBCHEM_EFFECTIVE_ROTOR_COUNT>
4

> <PUBCHEM_PHARMACOPHORE_FEATURES>
13
1 1 donor
1 2 acceptor
1 3 acceptor
1 4 donor
1 5 donor
1 6 acceptor
1 7 donor
1 8 acceptor
1 8 donor
6 10 11 16 17 18 20 rings
6 16 17 23 26 27 29 rings
6 9 10 11 12 14 15 rings
6 9 12 13 21 22 24 rings

> <PUBCHEM_HEAVY_ATOM_COUNT>
32

> <PUBCHEM_ATOM_DEF_STEREO_COUNT>
0

> <PUBCHEM_ATOM_UDEF_STEREO_COUNT>
1

> <PUBCHEM_BOND_DEF_STEREO_COUNT>
0

> <PUBCHEM_BOND_UDEF_STEREO_COUNT>
0

> <PUBCHEM_ISOTOPIC_ATOM_COUNT>
0

> <PUBCHEM_COMPONENT_COUNT>
1

> <PUBCHEM_CACTVS_TAUTO_COUNT>
996

> <PUBCHEM_CONFORMER_ID>
0001F2F700000001

> <PUBCHEM_MMFF94_ENERGY>
105.01

> <PUBCHEM_FEATURE_SELFOVERLAP>
66.042

> <PUBCHEM_SHAPE_FINGERPRINT>
10050765 1 18410293623041489636
10290309 65 17686901618433910869
10411042 1 18194401319719689903
10675989 125 15891640494611781142
10838868 158 18116727393984723866
10906281 52 17629487393333360477
10940486 97 18187658950581754493
1100329 8 17760644763755755243
11135609 12 18261684726652974257
11227688 84 18053932120706799287
11578080 2 12607134937177483104
117089 54 18337678640584597203
11828532 37 17245835119308771251
11963148 33 17976814612575895138
13140716 1 18342742897090352057
13911852 28 18122905589077081103
14659021 117 18334572477734070987
14844126 61 18334019385105049507
14866123 147 18410859829096365275
15196674 1 18270675360450878436
15320467 1 17401485944584327307
15361156 5 18188507868084243331
15400415 2 17977666403011033884
15927050 60 18193273001693726475
17492 89 18337952397588725980
18393751 57 17191207047369868593
18608769 82 18339923848435067434
19315092 285 16914247671142060259
21033648 29 17559650903177573360
21133410 171 17543575021047090435
21236236 1 18342172220100238845
21267235 1 18270681956929892484
22122407 14 16128375965399168297
221490 88 18413106165073794428
23559900 14 18270386214314917824
335352 9 18126842699181267500
3383291 50 18337953386348842395
350125 39 18342174479379857836
392239 28 18336269028048982651
4073 2 18409729517915250554
4144715 1 18341057302772808158
4616759 239 18059001796722933704
484989 97 18342746222143761702
5104073 3 18271237223708801336
5309563 4 18194964273804444151
6431902 208 18339918311389059110
7970288 3 18122061163846476603
9709674 26 18341610369832473269

> <PUBCHEM_SHAPE_MULTIPOLES>
611.59
13.9
5.54
0.86
12.21
1.95
-0.03
9.39
-1.53
-9.77
-1.05
-0.37
0.25
1.9

> <PUBCHEM_SHAPE_SELFOVERLAP>
1372.325

> <PUBCHEM_SHAPE_VOLUME>
322.7

> <PUBCHEM_COORDINATE_TYPE>
2
5
10

$$$$
