127772
  -OEChem-03292013323D

 40 41  0     0  0  0  0  0  0999 V2000
   -0.7389    3.6563   -0.4762 S   0  0  0  0  0  0  0  0  0  0  0  0
    2.6786    0.4876    0.3053 N   0  0  0  0  0  0  0  0  0  0  0  0
   -3.8262    0.1305   -0.0356 N   0  0  0  0  0  0  0  0  0  0  0  0
    1.6753    2.6022   -0.1093 N   0  0  0  0  0  0  0  0  0  0  0  0
   -0.2061    1.1772    0.0267 N   0  0  0  0  0  0  0  0  0  0  0  0
   -3.2395   -1.9667    0.3999 N   0  0  0  0  0  0  0  0  0  0  0  0
    3.9466    2.4818   -0.0162 N   0  0  0  0  0  0  0  0  0  0  0  0
    2.8393   -2.4075   -0.3491 C   0  0  0  0  0  0  0  0  0  0  0  0
    3.6073   -1.7238    0.7861 C   0  0  0  0  0  0  0  0  0  0  0  0
    2.5898   -3.8836   -0.0386 C   0  0  0  0  0  0  0  0  0  0  0  0
    3.9225   -0.2639    0.4804 C   0  0  0  0  0  0  0  0  0  0  0  0
    1.8011   -4.5606   -1.1482 C   0  0  0  0  0  0  0  0  0  0  0  0
   -2.4681    0.1292    0.0622 C   0  0  0  0  0  0  0  0  0  0  0  0
   -1.5772    1.2941   -0.0923 C   0  0  0  0  0  0  0  0  0  0  0  0
    2.7709    1.7598    0.0818 C   0  0  0  0  0  0  0  0  0  0  0  0
    0.3273    2.3573   -0.1572 C   0  0  0  0  0  0  0  0  0  0  0  0
   -4.2472   -1.1530    0.1752 C   0  0  0  0  0  0  0  0  0  0  0  0
   -2.1245   -1.1694    0.3310 C   0  0  0  0  0  0  0  0  0  0  0  0
   -2.0528    2.5596   -0.3644 C   0  0  0  0  0  0  0  0  0  0  0  0
   -5.6782   -1.5072    0.1386 C   0  0  0  0  0  0  0  0  0  0  0  0
    3.4081   -2.3204   -1.2828 H   0  0  0  0  0  0  0  0  0  0  0  0
    1.8778   -1.9049   -0.5079 H   0  0  0  0  0  0  0  0  0  0  0  0
    3.0183   -1.7847    1.7097 H   0  0  0  0  0  0  0  0  0  0  0  0
    4.5475   -2.2583    0.9668 H   0  0  0  0  0  0  0  0  0  0  0  0
    3.5458   -4.4035    0.0931 H   0  0  0  0  0  0  0  0  0  0  0  0
    2.0364   -3.9777    0.9031 H   0  0  0  0  0  0  0  0  0  0  0  0
    4.5352   -0.2088   -0.4275 H   0  0  0  0  0  0  0  0  0  0  0  0
    4.5006    0.1452    1.3177 H   0  0  0  0  0  0  0  0  0  0  0  0
    1.6354   -5.6152   -0.9064 H   0  0  0  0  0  0  0  0  0  0  0  0
    2.3404   -4.5106   -2.0995 H   0  0  0  0  0  0  0  0  0  0  0  0
    0.8240   -4.0851   -1.2813 H   0  0  0  0  0  0  0  0  0  0  0  0
   -4.4197    0.9270   -0.2278 H   0  0  0  0  0  0  0  0  0  0  0  0
    1.9266    3.5773   -0.2623 H   0  0  0  0  0  0  0  0  0  0  0  0
   -1.1366   -1.5828    0.4791 H   0  0  0  0  0  0  0  0  0  0  0  0
   -3.0701    2.8993   -0.5008 H   0  0  0  0  0  0  0  0  0  0  0  0
   -5.8172   -2.5759    0.3295 H   0  0  0  0  0  0  0  0  0  0  0  0
   -6.2347   -0.9522    0.9003 H   0  0  0  0  0  0  0  0  0  0  0  0
   -6.1091   -1.2798   -0.8416 H   0  0  0  0  0  0  0  0  0  0  0  0
    4.8573    2.0487    0.0861 H   0  0  0  0  0  0  0  0  0  0  0  0
    3.9389    3.4800   -0.1961 H   0  0  0  0  0  0  0  0  0  0  0  0
  1 16  1  0  0  0  0
  1 19  1  0  0  0  0
  2 11  1  0  0  0  0
  2 15  2  0  0  0  0
  3 13  1  0  0  0  0
  3 17  1  0  0  0  0
  3 32  1  0  0  0  0
  4 15  1  0  0  0  0
  4 16  1  0  0  0  0
  4 33  1  0  0  0  0
  5 14  1  0  0  0  0
  5 16  2  0  0  0  0
  6 17  2  0  0  0  0
  6 18  1  0  0  0  0
  7 15  1  0  0  0  0
  7 39  1  0  0  0  0
  7 40  1  0  0  0  0
  8  9  1  0  0  0  0
  8 10  1  0  0  0  0
  8 21  1  0  0  0  0
  8 22  1  0  0  0  0
  9 11  1  0  0  0  0
  9 23  1  0  0  0  0
  9 24  1  0  0  0  0
 10 12  1  0  0  0  0
 10 25  1  0  0  0  0
 10 26  1  0  0  0  0
 11 27  1  0  0  0  0
 11 28  1  0  0  0  0
 12 29  1  0  0  0  0
 12 30  1  0  0  0  0
 12 31  1  0  0  0  0
 13 14  1  0  0  0  0
 13 18  2  0  0  0  0
 14 19  2  0  0  0  0
 17 20  1  0  0  0  0
 18 34  1  0  0  0  0
 19 35  1  0  0  0  0
 20 36  1  0  0  0  0
 20 37  1  0  0  0  0
 20 38  1  0  0  0  0
M  END
> <PUBCHEM_COMPOUND_CID>
127772

> <PUBCHEM_CONFORMER_RMSD>
0.8

> <PUBCHEM_CONFORMER_DIVERSEORDER>
1
359
269
171
318
360
379
123
62
397
244
85
5
337
305
271
377
299
242
291
7
131
302
329
281
193
339
82
36
356
295
43
189
49
376
363
393
323
203
6
132
13
109
212
144
389
312
10
268
340
23
289
287
403
197
201
330
250
140
191
59
119
103
80
262
351
252
402
325
40
238
200
294
146
159
384
63
33
283
233
157
187
133
227
11
194
292
95
349
394
17
308
392
56
217
48
139
315
245
66
192
104
369
142
255
130
162
182
401
260
353
208
304
96
161
398
207
31
127
46
58
105
141
195
297
90
98
278
355
331
153
122
382
280
26
12
72
41
348
322
71
69
76
174
221
92
94
107
279
247
296
93
99
170
15
388
84
16
54
91
230
206
179
22
101
186
316
257
204
258
231
303
42
347
113
277
129
128
399
30
284
336
222
374
386
288
64
125
147
248
111
188
173
215
358
372
77
37
136
184
143
267
120
253
216
115
285
306
108
61
70
395
343
300
44
270
214
263
185
121
298
261
158
38
224
367
83
168
220
28
151
243
362
152
51
364
117
301
341
334
381
311
266
175
307
256
400
88
251
324
166
154
335
3
172
167
218
134
232
190
39
213
155
160
118
137
164
97
156
176
390
163
112
320
180
149
135
327
114
293
380
396
383
2
239
177
89
365
4
100
18
148
240
165
138
20
50
228
45
181
246
274
236
183
309
79
350
145
254
225
344
272
21
29
286
110
198
60
275
106
34
169
226
229
249
370
74
333
352
35
178
14
81
332
205
102
378
326
78
68
67
241
73
319
47
55
368
338
19
265
373
86
196
273
219
209
65
314
290
116
210
310
357
124
259
87
57
126
371
276
234
150
202
24
27
328
211
75
346
8
342
366
317
313
345
387
237
321
385
391
235
282
354
25
223
9
375
361
32
53
52
199
264

> <PUBCHEM_MMFF94_PARTIAL_CHARGES>
22
1 -0.08
11 0.25
13 -0.15
14 0.23
15 0.55
16 0.46
17 0.01
18 0.08
19 -0.11
2 -0.7
20 0.18
3 0.03
32 0.27
33 0.4
34 0.15
35 0.15
39 0.4
4 -0.53
40 0.4
5 -0.57
6 -0.57
7 -0.85

> <PUBCHEM_EFFECTIVE_ROTOR_COUNT>
7

> <PUBCHEM_PHARMACOPHORE_FEATURES>
8
1 12 hydrophobe
1 3 donor
1 4 donor
1 7 donor
3 3 6 17 cation
4 2 4 7 15 cation
5 1 5 14 16 19 rings
5 3 6 13 17 18 rings

> <PUBCHEM_HEAVY_ATOM_COUNT>
20

> <PUBCHEM_ATOM_DEF_STEREO_COUNT>
0

> <PUBCHEM_ATOM_UDEF_STEREO_COUNT>
0

> <PUBCHEM_BOND_DEF_STEREO_COUNT>
0

> <PUBCHEM_BOND_UDEF_STEREO_COUNT>
0

> <PUBCHEM_ISOTOPIC_ATOM_COUNT>
0

> <PUBCHEM_COMPONENT_COUNT>
1

> <PUBCHEM_CACTVS_TAUTO_COUNT>
10

> <PUBCHEM_CONFORMER_ID>
0001F31C00000001

> <PUBCHEM_MMFF94_ENERGY>
19.2957

> <PUBCHEM_FEATURE_SELFOVERLAP>
40.653

> <PUBCHEM_SHAPE_FINGERPRINT>
10616163 171 18410292476295153964
12038231 1 17977946778676206586
12553582 1 18338506568650119300
12990986 174 17760363297722543602
13533116 47 18272652389720824091
1361 2 18267582597229610379
14251705 54 18339359652529842426
14251757 5 17044031394864444526
14863182 85 18263088876063372508
14916288 52 18051132484687039366
15322534 239 14668099857692200215
15352361 1 18408882902124672674
17492 89 18337668603509348434
19930381 70 18409728448136669067
20645477 70 18334289911381960065
20765182 114 18271526395209072207
21279426 13 18261663793493881701
21285901 2 17822281431672564973
21344244 181 18057067868166805798
21478907 32 18408319969794654305
22113638 7 17977660141253774958
23559900 14 18267012865474667296
3004659 81 17967525800794142232
3117164 225 18126301739871527361
463206 1 18265613380172067915
5283384 97 18269822268176711703
5309563 4 18410575106312430463
5486654 2 18049448338212311620
56633871 153 18124887759264501281
6299153 45 18342469102358776969
6433294 58 18410573976783380962
9709674 26 18123461683761024980

> <PUBCHEM_SHAPE_MULTIPOLES>
385.55
9.21
5.72
0.76
4.64
1.89
-0.07
6.68
1.16
-3.65
-1.56
-0.28
0.32
1.08

> <PUBCHEM_SHAPE_SELFOVERLAP>
779.807

> <PUBCHEM_SHAPE_VOLUME>
226.8

> <PUBCHEM_COORDINATE_TYPE>
2
5
10

$$$$
