127736
  -OEChem-03292013323D

 50 53  0     0  0  0  0  0  0999 V2000
   -0.7322   -2.4749   -0.1771 S   0  0  0  0  0  0  0  0  0  0  0  0
    5.8674   -2.5191   -0.1224 O   0  0  0  0  0  0  0  0  0  0  0  0
    2.4794    4.8934    0.1828 O   0  0  0  0  0  0  0  0  0  0  0  0
   -4.1341    2.6253    1.0165 O   0  0  0  0  0  0  0  0  0  0  0  0
   -4.4941    1.4983   -0.9272 O   0  0  0  0  0  0  0  0  0  0  0  0
   -4.3452   -0.9502    0.4272 N   0  0  0  0  0  0  0  0  0  0  0  0
   -1.5954   -0.0404   -0.0766 N   0  0  0  0  0  0  0  0  0  0  0  0
   -3.3446   -1.6747   -0.1669 C   0  0  0  0  0  0  0  0  0  0  0  0
   -1.9788   -1.2963   -0.1368 C   0  0  0  0  0  0  0  0  0  0  0  0
    0.4284   -1.2141   -0.1102 C   0  0  0  0  0  0  0  0  0  0  0  0
   -0.2147    0.0054   -0.0610 C   0  0  0  0  0  0  0  0  0  0  0  0
    1.8322   -1.5508   -0.1132 C   0  0  0  0  0  0  0  0  0  0  0  0
    0.4784    1.2614    0.0017 C   0  0  0  0  0  0  0  0  0  0  0  0
   -3.9188   -2.7774   -0.7608 C   0  0  0  0  0  0  0  0  0  0  0  0
   -4.1850    0.2857    1.1633 C   0  0  0  0  0  0  0  0  0  0  0  0
   -5.5484   -1.5730    0.2208 C   0  0  0  0  0  0  0  0  0  0  0  0
   -5.3127   -2.7131   -0.5153 C   0  0  0  0  0  0  0  0  0  0  0  0
    2.4989   -1.7673    1.0920 C   0  0  0  0  0  0  0  0  0  0  0  0
    2.5195   -1.6588   -1.3214 C   0  0  0  0  0  0  0  0  0  0  0  0
    0.8257    1.9258   -1.1746 C   0  0  0  0  0  0  0  0  0  0  0  0
    0.8035    1.8176    1.2388 C   0  0  0  0  0  0  0  0  0  0  0  0
    3.8554   -2.0924    1.0889 C   0  0  0  0  0  0  0  0  0  0  0  0
    3.8759   -1.9840   -1.3244 C   0  0  0  0  0  0  0  0  0  0  0  0
    1.4984    3.1463   -1.1137 C   0  0  0  0  0  0  0  0  0  0  0  0
    1.4761    3.0381    1.2997 C   0  0  0  0  0  0  0  0  0  0  0  0
    4.5439   -2.2007   -0.1193 C   0  0  0  0  0  0  0  0  0  0  0  0
    1.8235    3.7024    0.1234 C   0  0  0  0  0  0  0  0  0  0  0  0
   -4.2943    1.4971    0.2783 C   0  0  0  0  0  0  0  0  0  0  0  0
    6.4877   -2.7285    1.1453 C   0  0  0  0  0  0  0  0  0  0  0  0
    2.8038    5.5188   -1.0579 C   0  0  0  0  0  0  0  0  0  0  0  0
   -3.4078   -3.5503   -1.3190 H   0  0  0  0  0  0  0  0  0  0  0  0
   -4.9936    0.3266    1.9028 H   0  0  0  0  0  0  0  0  0  0  0  0
   -3.2378    0.2726    1.7074 H   0  0  0  0  0  0  0  0  0  0  0  0
   -6.4697   -1.1591    0.6085 H   0  0  0  0  0  0  0  0  0  0  0  0
   -6.0636   -3.4188   -0.8412 H   0  0  0  0  0  0  0  0  0  0  0  0
    1.9762   -1.6850    2.0423 H   0  0  0  0  0  0  0  0  0  0  0  0
    2.0142   -1.4916   -2.2697 H   0  0  0  0  0  0  0  0  0  0  0  0
    0.5786    1.5048   -2.1465 H   0  0  0  0  0  0  0  0  0  0  0  0
    0.5391    1.3127    2.1650 H   0  0  0  0  0  0  0  0  0  0  0  0
    4.3123   -2.2472    2.0604 H   0  0  0  0  0  0  0  0  0  0  0  0
    4.4071   -2.0668   -2.2687 H   0  0  0  0  0  0  0  0  0  0  0  0
    1.7379    3.6082   -2.0654 H   0  0  0  0  0  0  0  0  0  0  0  0
    1.7266    3.4665    2.2663 H   0  0  0  0  0  0  0  0  0  0  0  0
   -4.1980    3.4347    0.4658 H   0  0  0  0  0  0  0  0  0  0  0  0
    7.5380   -2.9724    0.9549 H   0  0  0  0  0  0  0  0  0  0  0  0
    6.0509   -3.5846    1.6705 H   0  0  0  0  0  0  0  0  0  0  0  0
    6.4764   -1.8180    1.7541 H   0  0  0  0  0  0  0  0  0  0  0  0
    1.9035    5.7851   -1.6218 H   0  0  0  0  0  0  0  0  0  0  0  0
    3.4973    4.9088   -1.6468 H   0  0  0  0  0  0  0  0  0  0  0  0
    3.3219    6.4543   -0.8227 H   0  0  0  0  0  0  0  0  0  0  0  0
  1  9  1  0  0  0  0
  1 10  1  0  0  0  0
  2 26  1  0  0  0  0
  2 29  1  0  0  0  0
  3 27  1  0  0  0  0
  3 30  1  0  0  0  0
  4 28  1  0  0  0  0
  4 44  1  0  0  0  0
  5 28  2  0  0  0  0
  6  8  1  0  0  0  0
  6 15  1  0  0  0  0
  6 16  1  0  0  0  0
  7  9  2  0  0  0  0
  7 11  1  0  0  0  0
  8  9  1  0  0  0  0
  8 14  2  0  0  0  0
 10 11  2  0  0  0  0
 10 12  1  0  0  0  0
 11 13  1  0  0  0  0
 12 18  2  0  0  0  0
 12 19  1  0  0  0  0
 13 20  2  0  0  0  0
 13 21  1  0  0  0  0
 14 17  1  0  0  0  0
 14 31  1  0  0  0  0
 15 28  1  0  0  0  0
 15 32  1  0  0  0  0
 15 33  1  0  0  0  0
 16 17  2  0  0  0  0
 16 34  1  0  0  0  0
 17 35  1  0  0  0  0
 18 22  1  0  0  0  0
 18 36  1  0  0  0  0
 19 23  2  0  0  0  0
 19 37  1  0  0  0  0
 20 24  1  0  0  0  0
 20 38  1  0  0  0  0
 21 25  2  0  0  0  0
 21 39  1  0  0  0  0
 22 26  2  0  0  0  0
 22 40  1  0  0  0  0
 23 26  1  0  0  0  0
 23 41  1  0  0  0  0
 24 27  2  0  0  0  0
 24 42  1  0  0  0  0
 25 27  1  0  0  0  0
 25 43  1  0  0  0  0
 29 45  1  0  0  0  0
 29 46  1  0  0  0  0
 29 47  1  0  0  0  0
 30 48  1  0  0  0  0
 30 49  1  0  0  0  0
 30 50  1  0  0  0  0
M  END
> <PUBCHEM_COMPOUND_CID>
127736

> <PUBCHEM_CONFORMER_RMSD>
0.8

> <PUBCHEM_CONFORMER_DIVERSEORDER>
1
13
38
25
36
15
18
29
39
32
33
4
11
24
40
34
35
17
10
37
26
8
23
22
28
19
31
7
21
27
20
14
9
6
3
16
30
2
12
5

> <PUBCHEM_MMFF94_PARTIAL_CHARGES>
42
1 -0.08
10 -0.01
11 0.17
12 0.05
13 0.05
14 -0.15
15 0.32
16 -0.3
17 -0.15
18 -0.15
19 -0.15
2 -0.36
20 -0.15
21 -0.15
22 -0.15
23 -0.15
24 -0.15
25 -0.15
26 0.08
27 0.08
28 0.66
29 0.28
3 -0.36
30 0.28
31 0.15
34 0.15
35 0.15
36 0.15
37 0.15
38 0.15
39 0.15
4 -0.65
40 0.15
41 0.15
42 0.15
43 0.15
44 0.5
5 -0.57
6 0.05
7 -0.57
8 -0.15
9 0.38

> <PUBCHEM_EFFECTIVE_ROTOR_COUNT>
7

> <PUBCHEM_PHARMACOPHORE_FEATURES>
11
1 2 acceptor
1 3 acceptor
1 4 acceptor
1 5 acceptor
1 6 cation
1 7 acceptor
3 4 5 28 anion
5 1 7 9 10 11 rings
5 6 8 14 16 17 rings
6 12 18 19 22 23 26 rings
6 13 20 21 24 25 27 rings

> <PUBCHEM_HEAVY_ATOM_COUNT>
30

> <PUBCHEM_ATOM_DEF_STEREO_COUNT>
0

> <PUBCHEM_ATOM_UDEF_STEREO_COUNT>
0

> <PUBCHEM_BOND_DEF_STEREO_COUNT>
0

> <PUBCHEM_BOND_UDEF_STEREO_COUNT>
0

> <PUBCHEM_ISOTOPIC_ATOM_COUNT>
0

> <PUBCHEM_COMPONENT_COUNT>
1

> <PUBCHEM_CACTVS_TAUTO_COUNT>
1

> <PUBCHEM_CONFORMER_ID>
0001F2F800000001

> <PUBCHEM_MMFF94_ENERGY>
86.0409

> <PUBCHEM_FEATURE_SELFOVERLAP>
55.881

> <PUBCHEM_SHAPE_FINGERPRINT>
10050765 1 18338234972936732111
10675989 125 17981057615162879112
10940486 97 18201996659649389278
1100329 8 18340212882200882241
11445158 3 18341324595424844590
11578080 2 17750212807736478813
11963148 33 17548128287554952631
12107698 1 18412260649712735679
12236239 1 17895480220096784878
12422481 6 18125689445112383840
12788726 201 17827074000952288762
133893 2 18265630946529773408
13540713 5 18200883997485438475
13590594 115 18336553724367040889
140371 6 18058181531115741755
14394314 77 18264487300161494466
14466204 15 18339080367997255795
14849402 71 18337117876963961432
14955137 171 18195271952234274763
15439362 3 18191865849609954140
15664445 248 18342190951080624422
15775530 1 17899999401480111442
15927050 60 17764030564217126758
1601671 61 18268433434223772055
17492 89 18338795749378979371
17627616 140 18266467683569373697
17980427 23 17917430891501916717
1813 80 18341616997062196782
20600515 1 18128828434249616956
21033648 29 17202465733290355419
21133665 82 17907024229691564140
22311459 1 18411138026898121063
23366157 5 18263081183381065862
23559900 14 18342165701030778731
249057 3 18339921512125761253
249999 5 18121780792443674418
3178227 256 18194139425857520009
3380486 145 18122357786940303339
3411729 13 18194115454842810514
350125 39 18411706504425862167
4058900 60 17830751103065034204
4409770 3 17755570547700109685
469060 322 18267314123287099906
5104073 3 18269568294345271347
5171179 24 18334845134926787949
5385378 56 18122630723479720897
59755656 215 18194967576138351525
6086070 43 18189875575103700495
67856867 119 18269835488006641087
9962374 69 18270113643285641591
9981440 41 17688591988543877235

> <PUBCHEM_SHAPE_MULTIPOLES>
587.8
11.95
6.29
1.24
4.32
9.24
-0.03
-10.45
-1.28
-7.6
0.78
-0.7
0.24
-1.76

> <PUBCHEM_SHAPE_SELFOVERLAP>
1282.119

> <PUBCHEM_SHAPE_VOLUME>
324.4

> <PUBCHEM_COORDINATE_TYPE>
2
5
10

$$$$
