127714
  -OEChem-03292013323D

 31 33  0     0  0  0  0  0  0999 V2000
    0.0526    0.3763    0.2804 O   0  0  0  0  0  0  0  0  0  0  0  0
   -2.0508   -2.9847   -0.6567 O   0  0  0  0  0  0  0  0  0  0  0  0
   -6.0321    1.8918    0.2404 O   0  5  0  0  0  0  0  0  0  0  0  0
   -6.1905   -0.2348   -0.2810 O   0  0  0  0  0  0  0  0  0  0  0  0
    6.1714    1.6889   -0.2404 O   0  5  0  0  0  0  0  0  0  0  0  0
    4.2644    2.6659   -0.7180 O   0  0  0  0  0  0  0  0  0  0  0  0
   -5.5063    0.7768    0.0072 N   0  3  0  0  0  0  0  0  0  0  0  0
    4.9215    1.6628   -0.3486 N   0  3  0  0  0  0  0  0  0  0  0  0
   -2.0960   -0.6845   -0.1167 C   0  0  0  0  0  0  0  0  0  0  0  0
   -1.3160    0.4262    0.2008 C   0  0  0  0  0  0  0  0  0  0  0  0
    0.6855   -0.8307    0.0254 C   0  0  0  0  0  0  0  0  0  0  0  0
    2.1564   -0.7736    0.1434 C   0  0  0  0  0  0  0  0  0  0  0  0
   -1.4287   -1.9691   -0.3778 C   0  0  0  0  0  0  0  0  0  0  0  0
    0.0450   -1.9696   -0.2828 C   0  0  0  0  0  0  0  0  0  0  0  0
   -3.4870   -0.5753   -0.1831 C   0  0  0  0  0  0  0  0  0  0  0  0
   -1.9243    1.6556    0.4549 C   0  0  0  0  0  0  0  0  0  0  0  0
   -4.0927    0.6558    0.0710 C   0  0  0  0  0  0  0  0  0  0  0  0
    2.8400    0.4076   -0.1561 C   0  0  0  0  0  0  0  0  0  0  0  0
   -3.3133    1.7689    0.3894 C   0  0  0  0  0  0  0  0  0  0  0  0
    2.8713   -1.9010    0.5558 C   0  0  0  0  0  0  0  0  0  0  0  0
    4.2294    0.4610   -0.0439 C   0  0  0  0  0  0  0  0  0  0  0  0
    4.2605   -1.8477    0.6681 C   0  0  0  0  0  0  0  0  0  0  0  0
    4.9396   -0.6668    0.3684 C   0  0  0  0  0  0  0  0  0  0  0  0
    0.5427   -2.9089   -0.4936 H   0  0  0  0  0  0  0  0  0  0  0  0
   -4.0789   -1.4524   -0.4318 H   0  0  0  0  0  0  0  0  0  0  0  0
   -1.3247    2.5270    0.7035 H   0  0  0  0  0  0  0  0  0  0  0  0
    2.2793    1.2796   -0.4862 H   0  0  0  0  0  0  0  0  0  0  0  0
   -3.7542    2.7415    0.5931 H   0  0  0  0  0  0  0  0  0  0  0  0
    2.3782   -2.8327    0.8199 H   0  0  0  0  0  0  0  0  0  0  0  0
    4.8131   -2.7242    0.9939 H   0  0  0  0  0  0  0  0  0  0  0  0
    6.0219   -0.6618    0.4685 H   0  0  0  0  0  0  0  0  0  0  0  0
  1 10  1  0  0  0  0
  1 11  1  0  0  0  0
  2 13  2  0  0  0  0
  3  7  1  0  0  0  0
  4  7  2  0  0  0  0
  5  8  1  0  0  0  0
  6  8  2  0  0  0  0
  7 17  1  0  0  0  0
  8 21  1  0  0  0  0
  9 10  2  0  0  0  0
  9 13  1  0  0  0  0
  9 15  1  0  0  0  0
 10 16  1  0  0  0  0
 11 12  1  0  0  0  0
 11 14  2  0  0  0  0
 12 18  2  0  0  0  0
 12 20  1  0  0  0  0
 13 14  1  0  0  0  0
 14 24  1  0  0  0  0
 15 17  2  0  0  0  0
 15 25  1  0  0  0  0
 16 19  2  0  0  0  0
 16 26  1  0  0  0  0
 17 19  1  0  0  0  0
 18 21  1  0  0  0  0
 18 27  1  0  0  0  0
 19 28  1  0  0  0  0
 20 22  2  0  0  0  0
 20 29  1  0  0  0  0
 21 23  2  0  0  0  0
 22 23  1  0  0  0  0
 22 30  1  0  0  0  0
 23 31  1  0  0  0  0
M  CHG  4   3  -1   5  -1   7   1   8   1
M  END
> <PUBCHEM_COMPOUND_CID>
127714

> <PUBCHEM_CONFORMER_RMSD>
0.6

> <PUBCHEM_CONFORMER_DIVERSEORDER>
1
6
4
2
5
3

> <PUBCHEM_MMFF94_PARTIAL_CHARGES>
31
1 -0.16
10 0.08
11 0.05
12 0.03
13 0.47
14 -0.14
15 -0.15
16 -0.15
17 0.13
18 -0.15
19 -0.15
2 -0.57
20 -0.15
21 0.13
22 -0.15
23 -0.15
24 0.15
25 0.15
26 0.15
27 0.15
28 0.15
29 0.15
3 -0.52
30 0.15
31 0.15
4 -0.52
5 -0.52
6 -0.52
7 0.91
8 0.91
9 0.09

> <PUBCHEM_EFFECTIVE_ROTOR_COUNT>
3

> <PUBCHEM_PHARMACOPHORE_FEATURES>
11
1 1 acceptor
1 2 acceptor
1 3 acceptor
1 3 anion
1 4 acceptor
1 5 acceptor
1 5 anion
1 6 acceptor
6 1 9 10 11 13 14 rings
6 12 18 20 21 22 23 rings
6 9 10 15 16 17 19 rings

> <PUBCHEM_HEAVY_ATOM_COUNT>
23

> <PUBCHEM_ATOM_DEF_STEREO_COUNT>
0

> <PUBCHEM_ATOM_UDEF_STEREO_COUNT>
0

> <PUBCHEM_BOND_DEF_STEREO_COUNT>
0

> <PUBCHEM_BOND_UDEF_STEREO_COUNT>
0

> <PUBCHEM_ISOTOPIC_ATOM_COUNT>
0

> <PUBCHEM_COMPONENT_COUNT>
1

> <PUBCHEM_CACTVS_TAUTO_COUNT>
1

> <PUBCHEM_CONFORMER_ID>
0001F2E200000001

> <PUBCHEM_MMFF94_ENERGY>
76.5958

> <PUBCHEM_FEATURE_SELFOVERLAP>
56.016

> <PUBCHEM_SHAPE_FINGERPRINT>
10411042 1 17759518868840589146
10595046 47 18411134723555404769
10906281 52 18130240276463329049
11578080 2 16915077754363904450
12107183 9 17617093603590250778
12236239 1 18335137570717884451
12390115 104 17845388669294782193
12403259 118 18192421979081560681
12403259 415 17895189944288226541
12403260 363 18268144253964488633
12596602 18 17894912927677408459
12788726 201 17703516501697524153
13583140 156 17894922797216894435
13785724 45 17617938028621758930
14528608 73 18411983567827770148
14739800 52 18129364030352967672
14767858 380 18200861951423252093
14787075 74 18343860001141062155
14790565 3 18341616975750845209
15196674 1 18410855464539465995
15342168 16 17676778681460374932
19427546 20 18195527214629984567
20715895 44 17977660905716528613
21033648 29 16515678910391952199
21033650 10 16128113156181442642
21267235 1 18339084783191896514
21315764 268 18188204316975878308
21781055 127 17273708567773941266
23227448 37 18412263977520521492
23402539 116 18201427057197294879
23559900 14 18059297570115776926
245318 6 17751660946466524332
25147074 1 18338219549203393498
2838139 119 17679848333410915325
3004659 81 18341332202476277146
335352 9 18410293589166691030
3472631 163 18340492248285334388
34797466 226 17346605209226655244
34934 24 18409447011777260042
350125 39 18337952294683649088
3545911 37 18410575085211653134
397830 11 16951147173769064057
4073 2 17822580498941023082
4340502 62 17240489078787684587
474 4 17895196662218418212
474229 33 18342173333140275119
5104073 3 18187640349595100314
54446538 1 18337389348993436280
5486654 2 18201719544564993737
9981440 41 17830452036149952632

> <PUBCHEM_SHAPE_MULTIPOLES>
428.15
13.64
2.63
0.71
2.02
0.17
0.02
-7.04
-0.1
-1.11
-0.31
-0.18
0.04
-1.49

> <PUBCHEM_SHAPE_SELFOVERLAP>
952.868

> <PUBCHEM_SHAPE_VOLUME>
227.5

> <PUBCHEM_COORDINATE_TYPE>
2
5
10

$$$$
