127706
  -OEChem-03292013323D

 53 55  0     1  0  0  0  0  0999 V2000
   -0.2873   -0.6593    2.4000 O   0  0  0  0  0  0  0  0  0  0  0  0
    2.2131   -1.7278   -2.4847 O   0  0  0  0  0  0  0  0  0  0  0  0
    0.5754   -2.5960   -1.1058 O   0  0  0  0  0  0  0  0  0  0  0  0
   -1.7225   -0.2684   -1.1196 O   0  0  0  0  0  0  0  0  0  0  0  0
   -5.5773   -1.7443   -1.0520 O   0  0  0  0  0  0  0  0  0  0  0  0
    1.4701   -1.2836    1.0062 N   0  0  0  0  0  0  0  0  0  0  0  0
   -1.1492    1.0683    0.6999 N   0  0  0  0  0  0  0  0  0  0  0  0
   -4.2526    0.1817   -0.9177 N   0  0  0  0  0  0  0  0  0  0  0  0
    2.5447    3.5716    0.0361 N   0  0  0  0  0  0  0  0  0  0  0  0
    1.1235    4.8626   -1.0800 N   0  0  0  0  0  0  0  0  0  0  0  0
    2.2454   -1.0949   -0.2309 C   0  0  1  0  0  0  0  0  0  0  0  0
    3.7203   -1.4733   -0.0810 C   0  0  0  0  0  0  0  0  0  0  0  0
    1.6887   -2.5401    1.7330 C   0  0  0  0  0  0  0  0  0  0  0  0
    3.9351   -2.7983    0.6461 C   0  0  0  0  0  0  0  0  0  0  0  0
    3.1683   -2.8178    1.9618 C   0  0  0  0  0  0  0  0  0  0  0  0
    0.2691    0.8570    0.6678 C   0  0  2  0  0  0  0  0  0  0  0  0
    0.4502   -0.4275    1.4382 C   0  0  0  0  0  0  0  0  0  0  0  0
   -3.4569    0.8516    0.0717 C   0  0  1  0  0  0  0  0  0  0  0  0
    1.0634    1.9800    1.3221 C   0  0  0  0  0  0  0  0  0  0  0  0
    1.5631   -1.8997   -1.2985 C   0  0  0  0  0  0  0  0  0  0  0  0
   -3.9667    0.2908    1.3857 C   0  0  0  0  0  0  0  0  0  0  0  0
   -2.0332    0.4854   -0.2010 C   0  0  0  0  0  0  0  0  0  0  0  0
   -4.4950   -1.0972    1.0243 C   0  0  0  0  0  0  0  0  0  0  0  0
   -4.8768   -0.9610   -0.4293 C   0  0  0  0  0  0  0  0  0  0  0  0
    1.2958    3.1293    0.3703 C   0  0  0  0  0  0  0  0  0  0  0  0
    0.4355    3.9416   -0.3304 C   0  0  0  0  0  0  0  0  0  0  0  0
    1.6646   -2.4437   -3.5958 C   0  0  0  0  0  0  0  0  0  0  0  0
    2.3910    4.6129   -0.8364 C   0  0  0  0  0  0  0  0  0  0  0  0
    2.2284   -0.0516   -0.5477 H   0  0  0  0  0  0  0  0  0  0  0  0
    4.2335   -1.5018   -1.0488 H   0  0  0  0  0  0  0  0  0  0  0  0
    4.2148   -0.6867    0.5051 H   0  0  0  0  0  0  0  0  0  0  0  0
    1.1771   -2.5116    2.7009 H   0  0  0  0  0  0  0  0  0  0  0  0
    1.2318   -3.3550    1.1617 H   0  0  0  0  0  0  0  0  0  0  0  0
    3.6021   -3.6279    0.0108 H   0  0  0  0  0  0  0  0  0  0  0  0
    5.0037   -2.9481    0.8360 H   0  0  0  0  0  0  0  0  0  0  0  0
    3.2931   -3.7899    2.4513 H   0  0  0  0  0  0  0  0  0  0  0  0
    3.5842   -2.0588    2.6360 H   0  0  0  0  0  0  0  0  0  0  0  0
    0.5147    0.7449   -0.3885 H   0  0  0  0  0  0  0  0  0  0  0  0
   -3.5913    1.9339   -0.0140 H   0  0  0  0  0  0  0  0  0  0  0  0
    2.0388    1.6041    1.6582 H   0  0  0  0  0  0  0  0  0  0  0  0
    0.5524    2.3599    2.2159 H   0  0  0  0  0  0  0  0  0  0  0  0
   -3.2273    0.2460    2.1904 H   0  0  0  0  0  0  0  0  0  0  0  0
   -4.8041    0.9047    1.7415 H   0  0  0  0  0  0  0  0  0  0  0  0
   -1.5258    1.6498    1.4432 H   0  0  0  0  0  0  0  0  0  0  0  0
   -3.7129   -1.8576    1.1129 H   0  0  0  0  0  0  0  0  0  0  0  0
   -5.3593   -1.3740    1.6326 H   0  0  0  0  0  0  0  0  0  0  0  0
   -4.3234    0.4833   -1.8846 H   0  0  0  0  0  0  0  0  0  0  0  0
    3.4236    3.1987    0.3700 H   0  0  0  0  0  0  0  0  0  0  0  0
   -0.6446    3.9138   -0.3348 H   0  0  0  0  0  0  0  0  0  0  0  0
    1.7029   -3.5208   -3.4077 H   0  0  0  0  0  0  0  0  0  0  0  0
    0.6365   -2.1201   -3.7843 H   0  0  0  0  0  0  0  0  0  0  0  0
    2.2706   -2.2193   -4.4775 H   0  0  0  0  0  0  0  0  0  0  0  0
    3.2359    5.1413   -1.2544 H   0  0  0  0  0  0  0  0  0  0  0  0
  1 17  2  0  0  0  0
  2 20  1  0  0  0  0
  2 27  1  0  0  0  0
  3 20  2  0  0  0  0
  4 22  2  0  0  0  0
  5 24  2  0  0  0  0
  6 11  1  0  0  0  0
  6 13  1  0  0  0  0
  6 17  1  0  0  0  0
  7 16  1  0  0  0  0
  7 22  1  0  0  0  0
  7 44  1  0  0  0  0
  8 18  1  0  0  0  0
  8 24  1  0  0  0  0
  8 47  1  0  0  0  0
  9 25  1  0  0  0  0
  9 28  1  0  0  0  0
  9 48  1  0  0  0  0
 10 26  1  0  0  0  0
 10 28  2  0  0  0  0
 11 12  1  0  0  0  0
 11 20  1  0  0  0  0
 11 29  1  0  0  0  0
 12 14  1  0  0  0  0
 12 30  1  0  0  0  0
 12 31  1  0  0  0  0
 13 15  1  0  0  0  0
 13 32  1  0  0  0  0
 13 33  1  0  0  0  0
 14 15  1  0  0  0  0
 14 34  1  0  0  0  0
 14 35  1  0  0  0  0
 15 36  1  0  0  0  0
 15 37  1  0  0  0  0
 16 17  1  0  0  0  0
 16 19  1  0  0  0  0
 16 38  1  0  0  0  0
 18 21  1  0  0  0  0
 18 22  1  0  0  0  0
 18 39  1  0  0  0  0
 19 25  1  0  0  0  0
 19 40  1  0  0  0  0
 19 41  1  0  0  0  0
 21 23  1  0  0  0  0
 21 42  1  0  0  0  0
 21 43  1  0  0  0  0
 23 24  1  0  0  0  0
 23 45  1  0  0  0  0
 23 46  1  0  0  0  0
 25 26  2  0  0  0  0
 26 49  1  0  0  0  0
 27 50  1  0  0  0  0
 27 51  1  0  0  0  0
 27 52  1  0  0  0  0
 28 53  1  0  0  0  0
M  END
> <PUBCHEM_COMPOUND_CID>
127706

> <PUBCHEM_CONFORMER_RMSD>
1.4

> <PUBCHEM_CONFORMER_DIVERSEORDER>
1
43
41
42
12
71
50
58
27
51
37
103
39
78
29
36
82
64
91
75
38
46
65
13
108
106
4
54
95
70
94
85
30
49
33
109
97
99
79
88
93
77
35
21
10
31
23
63
24
17
7
67
52
60
107
80
110
55
100
73
86
96
111
45
44
83
14
61
105
26
89
40
101
11
20
18
104
5
8
2
47
68
69
25
98
28
92
34
90
9
15
74
62
32
72
59
57
81
48
16
6
76
56
3
87
66
22
102
19
53
84

> <PUBCHEM_MMFF94_PARTIAL_CHARGES>
29
1 -0.57
10 -0.57
11 0.36
13 0.3
16 0.36
17 0.57
18 0.36
19 0.18
2 -0.43
20 0.66
22 0.57
23 0.06
24 0.57
25 -0.33
26 0.08
27 0.28
28 0.04
3 -0.57
4 -0.57
44 0.37
47 0.37
48 0.27
49 0.15
5 -0.57
53 0.15
6 -0.66
7 -0.73
8 -0.73
9 0.03

> <PUBCHEM_EFFECTIVE_ROTOR_COUNT>
11

> <PUBCHEM_PHARMACOPHORE_FEATURES>
11
1 1 acceptor
1 3 acceptor
1 4 acceptor
1 5 acceptor
1 7 donor
1 8 donor
1 9 donor
3 9 10 28 cation
5 8 18 21 23 24 rings
5 9 10 25 26 28 rings
6 6 11 12 13 14 15 rings

> <PUBCHEM_HEAVY_ATOM_COUNT>
28

> <PUBCHEM_ATOM_DEF_STEREO_COUNT>
2

> <PUBCHEM_ATOM_UDEF_STEREO_COUNT>
1

> <PUBCHEM_BOND_DEF_STEREO_COUNT>
0

> <PUBCHEM_BOND_UDEF_STEREO_COUNT>
0

> <PUBCHEM_ISOTOPIC_ATOM_COUNT>
0

> <PUBCHEM_COMPONENT_COUNT>
1

> <PUBCHEM_CACTVS_TAUTO_COUNT>
12

> <PUBCHEM_CONFORMER_ID>
0001F2DA00000001

> <PUBCHEM_MMFF94_ENERGY>
54.4633

> <PUBCHEM_FEATURE_SELFOVERLAP>
55.822

> <PUBCHEM_SHAPE_FINGERPRINT>
107951 10 17686353361833037452
11045515 52 18191023404786502360
11477941 20 17333145937472844454
11488393 25 18125180447810516962
11578080 2 17604130555010073405
11763715 3 17973740081890796602
12160290 23 17330577344618240368
12633046 712 17823433612890188171
12788726 201 17612895706734458728
13257819 37 17467928800853013924
133893 2 18196064828776567989
13681431 1 18341622490040336953
14856354 85 15481516782252323202
15664445 248 18268725925664619870
1813 80 18271532970545188467
20578428 11 18263650739753850455
20739085 24 18272928306487718130
21285901 2 17410475603476812581
21304303 282 16747023617176660820
21344244 246 18339363101525588340
22393880 68 13334747834037667587
23557571 272 17695905527891493384
23559900 14 18263063514618924321
23598288 3 17323520687433077672
238 59 18266475375654963913
26353 1 18125179150793703613
3298306 158 18047202022791846644
6669772 16 18120377815970940908
6786 2 17757561024623759464
81228 2 17693939592226713849

> <PUBCHEM_SHAPE_MULTIPOLES>
521.98
7.99
5.66
2.32
11.62
9.77
1.44
-6.93
0.22
-6.02
1.55
-1.52
-2.24
-0.74

> <PUBCHEM_SHAPE_SELFOVERLAP>
1098.184

> <PUBCHEM_SHAPE_VOLUME>
293.2

> <PUBCHEM_COORDINATE_TYPE>
2
5
10

$$$$
