127803
  -OEChem-03292013323D

 54 57  0     1  0  0  0  0  0999 V2000
    2.2107   -1.3081   -0.7222 S   0  0  1  0  0  0  0  0  0  0  0  0
   -7.1891    0.9056    0.3770 O   0  0  0  0  0  0  0  0  0  0  0  0
    2.4097   -2.6770   -0.1302 O   0  0  0  0  0  0  0  0  0  0  0  0
    7.3699    1.2131   -0.9501 O   0  0  0  0  0  0  0  0  0  0  0  0
   -0.5407   -1.7945   -0.6866 N   0  0  0  0  0  0  0  0  0  0  0  0
    0.0415    0.2925   -0.1947 N   0  0  0  0  0  0  0  0  0  0  0  0
    4.8610   -1.0549    1.4672 N   0  0  0  0  0  0  0  0  0  0  0  0
   -5.5041   -0.7878   -0.1469 C   0  0  0  0  0  0  0  0  0  0  0  0
   -4.8458    1.6035    0.4178 C   0  0  0  0  0  0  0  0  0  0  0  0
   -4.0044   -0.5878   -0.1832 C   0  0  0  0  0  0  0  0  0  0  0  0
   -3.6410    0.7353    0.1290 C   0  0  0  0  0  0  0  0  0  0  0  0
   -6.0072    0.6135    0.2349 C   0  0  0  0  0  0  0  0  0  0  0  0
   -6.0578   -1.1714   -1.5189 C   0  0  0  0  0  0  0  0  0  0  0  0
   -5.9174   -1.7884    0.9317 C   0  0  0  0  0  0  0  0  0  0  0  0
   -4.9816    2.7410   -0.5942 C   0  0  0  0  0  0  0  0  0  0  0  0
   -4.8398    2.1229    1.8551 C   0  0  0  0  0  0  0  0  0  0  0  0
   -3.0497   -1.5597   -0.4831 C   0  0  0  0  0  0  0  0  0  0  0  0
   -2.3042    1.1386    0.1534 C   0  0  0  0  0  0  0  0  0  0  0  0
   -1.7200   -1.1332   -0.4524 C   0  0  0  0  0  0  0  0  0  0  0  0
   -1.3289    0.1704   -0.1467 C   0  0  0  0  0  0  0  0  0  0  0  0
    0.4807   -0.9019   -0.5207 C   0  0  0  0  0  0  0  0  0  0  0  0
    2.8799   -0.1148    0.4677 C   0  0  0  0  0  0  0  0  0  0  0  0
    4.3767   -0.1930    0.5498 C   0  0  0  0  0  0  0  0  0  0  0  0
    5.1568    0.5874   -0.2820 C   0  0  0  0  0  0  0  0  0  0  0  0
    6.5377    0.4754   -0.1638 C   0  0  0  0  0  0  0  0  0  0  0  0
    4.5512    1.5205   -1.2755 C   0  0  0  0  0  0  0  0  0  0  0  0
    7.0813   -0.4010    0.7689 C   0  0  0  0  0  0  0  0  0  0  0  0
    6.2077   -1.1368    1.5534 C   0  0  0  0  0  0  0  0  0  0  0  0
    7.7667    2.4905   -0.4548 C   0  0  0  0  0  0  0  0  0  0  0  0
   -5.7886   -0.4306   -2.2814 H   0  0  0  0  0  0  0  0  0  0  0  0
   -5.6746   -2.1429   -1.8505 H   0  0  0  0  0  0  0  0  0  0  0  0
   -7.1519   -1.2322   -1.4996 H   0  0  0  0  0  0  0  0  0  0  0  0
   -5.5273   -2.7906    0.7220 H   0  0  0  0  0  0  0  0  0  0  0  0
   -5.5477   -1.4886    1.9197 H   0  0  0  0  0  0  0  0  0  0  0  0
   -7.0086   -1.8625    1.0038 H   0  0  0  0  0  0  0  0  0  0  0  0
   -5.0219    2.3605   -1.6220 H   0  0  0  0  0  0  0  0  0  0  0  0
   -5.9017    3.3119   -0.4246 H   0  0  0  0  0  0  0  0  0  0  0  0
   -4.1387    3.4384   -0.5317 H   0  0  0  0  0  0  0  0  0  0  0  0
   -4.7789    1.3006    2.5783 H   0  0  0  0  0  0  0  0  0  0  0  0
   -3.9901    2.7897    2.0390 H   0  0  0  0  0  0  0  0  0  0  0  0
   -5.7569    2.6806    2.0768 H   0  0  0  0  0  0  0  0  0  0  0  0
   -3.3171   -2.5814   -0.7248 H   0  0  0  0  0  0  0  0  0  0  0  0
   -2.0242    2.1583    0.3943 H   0  0  0  0  0  0  0  0  0  0  0  0
   -0.4469   -2.7698   -0.9372 H   0  0  0  0  0  0  0  0  0  0  0  0
    2.4537   -0.3495    1.4510 H   0  0  0  0  0  0  0  0  0  0  0  0
    2.5428    0.8951    0.2162 H   0  0  0  0  0  0  0  0  0  0  0  0
    5.2816    1.8986   -1.9980 H   0  0  0  0  0  0  0  0  0  0  0  0
    3.7795    1.0250   -1.8724 H   0  0  0  0  0  0  0  0  0  0  0  0
    4.1158    2.3866   -0.7665 H   0  0  0  0  0  0  0  0  0  0  0  0
    8.1542   -0.5103    0.8834 H   0  0  0  0  0  0  0  0  0  0  0  0
    6.5811   -1.8346    2.2958 H   0  0  0  0  0  0  0  0  0  0  0  0
    8.3834    2.9762   -1.2160 H   0  0  0  0  0  0  0  0  0  0  0  0
    8.3616    2.3767    0.4571 H   0  0  0  0  0  0  0  0  0  0  0  0
    6.8946    3.1215   -0.2565 H   0  0  0  0  0  0  0  0  0  0  0  0
  1  3  2  0  0  0  0
  1 21  1  0  0  0  0
  1 22  1  0  0  0  0
  2 12  2  0  0  0  0
  4 25  1  0  0  0  0
  4 29  1  0  0  0  0
  5 19  1  0  0  0  0
  5 21  1  0  0  0  0
  5 44  1  0  0  0  0
  6 20  1  0  0  0  0
  6 21  2  0  0  0  0
  7 23  2  0  0  0  0
  7 28  1  0  0  0  0
  8 10  1  0  0  0  0
  8 12  1  0  0  0  0
  8 13  1  0  0  0  0
  8 14  1  0  0  0  0
  9 11  1  0  0  0  0
  9 12  1  0  0  0  0
  9 15  1  0  0  0  0
  9 16  1  0  0  0  0
 10 11  1  0  0  0  0
 10 17  2  0  0  0  0
 11 18  2  0  0  0  0
 13 30  1  0  0  0  0
 13 31  1  0  0  0  0
 13 32  1  0  0  0  0
 14 33  1  0  0  0  0
 14 34  1  0  0  0  0
 14 35  1  0  0  0  0
 15 36  1  0  0  0  0
 15 37  1  0  0  0  0
 15 38  1  0  0  0  0
 16 39  1  0  0  0  0
 16 40  1  0  0  0  0
 16 41  1  0  0  0  0
 17 19  1  0  0  0  0
 17 42  1  0  0  0  0
 18 20  1  0  0  0  0
 18 43  1  0  0  0  0
 19 20  2  0  0  0  0
 22 23  1  0  0  0  0
 22 45  1  0  0  0  0
 22 46  1  0  0  0  0
 23 24  1  0  0  0  0
 24 25  2  0  0  0  0
 24 26  1  0  0  0  0
 25 27  1  0  0  0  0
 26 47  1  0  0  0  0
 26 48  1  0  0  0  0
 26 49  1  0  0  0  0
 27 28  2  0  0  0  0
 27 50  1  0  0  0  0
 28 51  1  0  0  0  0
 29 52  1  0  0  0  0
 29 53  1  0  0  0  0
 29 54  1  0  0  0  0
M  END
> <PUBCHEM_COMPOUND_CID>
127803

> <PUBCHEM_CONFORMER_RMSD>
0.8

> <PUBCHEM_CONFORMER_DIVERSEORDER>
1
6
44
19
5
33
3
20
46
16
34
27
23
40
10
17
39
43
2
45
9
48
4
38
22
11
35
47
32
8
21
28
12
13
41
18
31
7
36
29
25
37
30
14
24
42
26
15

> <PUBCHEM_MMFF94_PARTIAL_CHARGES>
30
1 0.3
10 -0.14
11 -0.14
12 0.45
17 -0.15
18 -0.15
19 -0.15
2 -0.57
20 0.23
21 0.2
22 0.34
23 0.17
24 -0.14
25 0.08
26 0.14
27 -0.15
28 0.16
29 0.28
3 -0.5
4 -0.36
42 0.15
43 0.15
44 0.27
5 0.03
50 0.15
51 0.15
6 -0.57
7 -0.62
8 0.2
9 0.2

> <PUBCHEM_EFFECTIVE_ROTOR_COUNT>
4.4

> <PUBCHEM_PHARMACOPHORE_FEATURES>
12
1 2 acceptor
1 3 acceptor
1 4 acceptor
1 5 donor
1 7 acceptor
3 5 6 21 cation
3 8 13 14 hydrophobe
3 9 15 16 hydrophobe
5 5 6 19 20 21 rings
5 8 9 10 11 12 rings
6 10 11 17 18 19 20 rings
6 7 23 24 25 27 28 rings

> <PUBCHEM_HEAVY_ATOM_COUNT>
29

> <PUBCHEM_ATOM_DEF_STEREO_COUNT>
0

> <PUBCHEM_ATOM_UDEF_STEREO_COUNT>
1

> <PUBCHEM_BOND_DEF_STEREO_COUNT>
0

> <PUBCHEM_BOND_UDEF_STEREO_COUNT>
0

> <PUBCHEM_ISOTOPIC_ATOM_COUNT>
0

> <PUBCHEM_COMPONENT_COUNT>
1

> <PUBCHEM_CACTVS_TAUTO_COUNT>
1

> <PUBCHEM_CONFORMER_ID>
0001F33B00000001

> <PUBCHEM_MMFF94_ENERGY>
86.0169

> <PUBCHEM_FEATURE_SELFOVERLAP>
61.085

> <PUBCHEM_SHAPE_FINGERPRINT>
10 15 18334581231009158785
10076449 9 17703781532578638989
10290309 65 17917153789008467319
10299344 5 18334293167436597450
10411042 1 17839174466389338871
10554248 39 18268697338948042670
10638233 991 18335137635406514900
10670039 82 17060349483149363312
10939801 23 18336266847155584356
11315181 36 18259984903588735251
11646440 116 17203892976633837832
11991303 11 16200144452124328076
12236239 1 18333448742611901896
12596602 18 17967531268076195634
13167372 99 18335137571118940980
13533116 47 17313097515545918106
13631057 29 18342173419303637947
14251764 18 18408602587063354044
14849402 71 18189058745275596508
14856354 85 18271242833015639807
14933364 13 18410576189060556708
15183329 4 17989491822655918768
15419008 47 16415758622127780424
15461852 350 17988637524112632991
1577012 14 18408323281039930972
16989713 51 17417238987816122559
17980427 23 18335426764125405645
19377110 9 18409170987029697747
19611394 137 18117290344080290771
20281389 69 18335137588040457772
21130935 74 18040434378335824666
22122407 14 18262248823452464112
22224240 67 16805320024787685938
23081809 10 18408036308483858986
23522609 53 18263947508693202036
23569914 152 14543422038135682236
335352 9 18272928333354949661
3411729 13 18340486669265923390
3663271 9 18113898260587842562
397830 11 15069203297432431596
4073 2 18333737917975234755
4169191 19 18334293180089637964
4325135 7 18343299275838204295
445580 37 17846505824226034864
5104073 3 18268998587954456683
5758199 1 17967814981564225882

> <PUBCHEM_SHAPE_MULTIPOLES>
568.1
23.39
2.4
1.21
21.11
0.65
0.24
7.8
1.95
-0.96
-0.11
0.21
0.05
-2.34

> <PUBCHEM_SHAPE_SELFOVERLAP>
1230.823

> <PUBCHEM_SHAPE_VOLUME>
320.2

> <PUBCHEM_COORDINATE_TYPE>
2
5
10

$$$$
