127866
  -OEChem-03292013323D

 53 58  0     0  0  0  0  0  0999 V2000
    1.4554    1.7412   -0.9886 O   0  0  0  0  0  0  0  0  0  0  0  0
    1.6608   -1.1037   -2.6974 O   0  0  0  0  0  0  0  0  0  0  0  0
    0.1895   -1.3743   -0.9861 O   0  0  0  0  0  0  0  0  0  0  0  0
    4.3337    0.7264    1.0041 N   0  0  0  0  0  0  0  0  0  0  0  0
   -3.0351   -2.1879    1.0492 N   0  0  0  0  0  0  0  0  0  0  0  0
   -3.5989   -2.0383   -1.1388 N   0  0  0  0  0  0  0  0  0  0  0  0
   -2.5079   -3.1527    0.2822 N   0  0  0  0  0  0  0  0  0  0  0  0
   -2.8157   -3.1035   -1.0214 N   0  0  0  0  0  0  0  0  0  0  0  0
    3.4594    2.9444    0.5970 C   0  0  0  0  0  0  0  0  0  0  0  0
    4.7296    3.6607    0.2693 C   0  0  0  0  0  0  0  0  0  0  0  0
    3.5171    3.8434   -0.5958 C   0  0  0  0  0  0  0  0  0  0  0  0
    3.3833    1.4666    0.3888 C   0  0  0  0  0  0  0  0  0  0  0  0
    2.3792    0.9386   -0.3970 C   0  0  0  0  0  0  0  0  0  0  0  0
    2.3500   -0.4389   -0.5607 C   0  0  0  0  0  0  0  0  0  0  0  0
    4.3030   -0.6101    0.8434 C   0  0  0  0  0  0  0  0  0  0  0  0
    3.3159   -1.2430    0.0594 C   0  0  0  0  0  0  0  0  0  0  0  0
    5.2623   -1.4094    1.4592 C   0  0  0  0  0  0  0  0  0  0  0  0
    3.3138   -2.6406   -0.0866 C   0  0  0  0  0  0  0  0  0  0  0  0
    1.2928   -1.0114   -1.3931 C   0  0  0  0  0  0  0  0  0  0  0  0
    0.1235    1.5419   -0.6623 C   0  0  0  0  0  0  0  0  0  0  0  0
    5.2604   -2.7988    1.3143 C   0  0  0  0  0  0  0  0  0  0  0  0
    4.2852   -3.4157    0.5405 C   0  0  0  0  0  0  0  0  0  0  0  0
   -0.2254    1.3686    0.6643 C   0  0  0  0  0  0  0  0  0  0  0  0
   -0.8206    1.5216   -1.6722 C   0  0  0  0  0  0  0  0  0  0  0  0
   -2.5342    1.1444   -0.0114 C   0  0  0  0  0  0  0  0  0  0  0  0
   -1.5662    1.1682    0.9927 C   0  0  0  0  0  0  0  0  0  0  0  0
   -2.1613    1.3211   -1.3438 C   0  0  0  0  0  0  0  0  0  0  0  0
   -3.9245    0.9371    0.3295 C   0  0  0  0  0  0  0  0  0  0  0  0
   -4.4866   -0.3411    0.3893 C   0  0  0  0  0  0  0  0  0  0  0  0
   -4.7175    2.0541    0.6045 C   0  0  0  0  0  0  0  0  0  0  0  0
   -5.8318   -0.5007    0.7217 C   0  0  0  0  0  0  0  0  0  0  0  0
   -6.0627    1.8947    0.9371 C   0  0  0  0  0  0  0  0  0  0  0  0
   -3.7064   -1.5200    0.1133 C   0  0  0  0  0  0  0  0  0  0  0  0
   -6.6199    0.6173    0.9955 C   0  0  0  0  0  0  0  0  0  0  0  0
    2.9089    3.3260    1.4537 H   0  0  0  0  0  0  0  0  0  0  0  0
    5.5615    3.1059   -0.1478 H   0  0  0  0  0  0  0  0  0  0  0  0
    5.0230    4.4868    0.9059 H   0  0  0  0  0  0  0  0  0  0  0  0
    2.9953    4.7913   -0.5386 H   0  0  0  0  0  0  0  0  0  0  0  0
    3.5621    3.4247   -1.5941 H   0  0  0  0  0  0  0  0  0  0  0  0
    6.0371   -0.9504    2.0707 H   0  0  0  0  0  0  0  0  0  0  0  0
    2.5641   -3.1525   -0.6846 H   0  0  0  0  0  0  0  0  0  0  0  0
    6.0222   -3.3958    1.8072 H   0  0  0  0  0  0  0  0  0  0  0  0
    4.2806   -4.4953    0.4258 H   0  0  0  0  0  0  0  0  0  0  0  0
    0.5061    1.4008    1.4659 H   0  0  0  0  0  0  0  0  0  0  0  0
   -0.5313    1.6579   -2.7098 H   0  0  0  0  0  0  0  0  0  0  0  0
   -1.8402    1.0354    2.0367 H   0  0  0  0  0  0  0  0  0  0  0  0
   -2.9029    1.3041   -2.1391 H   0  0  0  0  0  0  0  0  0  0  0  0
    0.9474   -1.4860   -3.2517 H   0  0  0  0  0  0  0  0  0  0  0  0
   -4.3021    3.0587    0.5642 H   0  0  0  0  0  0  0  0  0  0  0  0
   -6.2834   -1.4888    0.7718 H   0  0  0  0  0  0  0  0  0  0  0  0
   -6.6765    2.7650    1.1503 H   0  0  0  0  0  0  0  0  0  0  0  0
   -7.6674    0.4932    1.2542 H   0  0  0  0  0  0  0  0  0  0  0  0
   -1.9099   -3.8769    0.6654 H   0  0  0  0  0  0  0  0  0  0  0  0
  1 13  1  0  0  0  0
  1 20  1  0  0  0  0
  2 19  1  0  0  0  0
  2 48  1  0  0  0  0
  3 19  2  0  0  0  0
  4 12  2  0  0  0  0
  4 15  1  0  0  0  0
  5  7  1  0  0  0  0
  5 33  2  0  0  0  0
  6  8  2  0  0  0  0
  6 33  1  0  0  0  0
  7  8  1  0  0  0  0
  7 53  1  0  0  0  0
  9 10  1  0  0  0  0
  9 11  1  0  0  0  0
  9 12  1  0  0  0  0
  9 35  1  0  0  0  0
 10 11  1  0  0  0  0
 10 36  1  0  0  0  0
 10 37  1  0  0  0  0
 11 38  1  0  0  0  0
 11 39  1  0  0  0  0
 12 13  1  0  0  0  0
 13 14  2  0  0  0  0
 14 16  1  0  0  0  0
 14 19  1  0  0  0  0
 15 16  1  0  0  0  0
 15 17  2  0  0  0  0
 16 18  2  0  0  0  0
 17 21  1  0  0  0  0
 17 40  1  0  0  0  0
 18 22  1  0  0  0  0
 18 41  1  0  0  0  0
 20 23  2  0  0  0  0
 20 24  1  0  0  0  0
 21 22  2  0  0  0  0
 21 42  1  0  0  0  0
 22 43  1  0  0  0  0
 23 26  1  0  0  0  0
 23 44  1  0  0  0  0
 24 27  2  0  0  0  0
 24 45  1  0  0  0  0
 25 26  2  0  0  0  0
 25 27  1  0  0  0  0
 25 28  1  0  0  0  0
 26 46  1  0  0  0  0
 27 47  1  0  0  0  0
 28 29  1  0  0  0  0
 28 30  2  0  0  0  0
 29 31  2  0  0  0  0
 29 33  1  0  0  0  0
 30 32  1  0  0  0  0
 30 49  1  0  0  0  0
 31 34  1  0  0  0  0
 31 50  1  0  0  0  0
 32 34  2  0  0  0  0
 32 51  1  0  0  0  0
 34 52  1  0  0  0  0
M  END
> <PUBCHEM_COMPOUND_CID>
127866

> <PUBCHEM_CONFORMER_RMSD>
1

> <PUBCHEM_CONFORMER_DIVERSEORDER>
1
5
14
2
13
7
9
15
4
3
6
10
11
12
8

> <PUBCHEM_MMFF94_PARTIAL_CHARGES>
50
1 -0.17
10 -0.2
11 -0.2
12 0.28
13 0.08
14 0.09
15 0.31
17 -0.15
18 -0.15
19 0.63
2 -0.65
20 0.08
21 -0.15
22 -0.15
23 -0.15
24 -0.15
26 -0.15
27 -0.15
29 0.05
3 -0.57
30 -0.15
31 -0.15
32 -0.15
33 0.46
34 -0.15
35 0.1
36 0.1
37 0.1
38 0.1
39 0.1
4 -0.62
40 0.15
41 0.15
42 0.15
43 0.15
44 0.15
45 0.15
46 0.15
47 0.15
48 0.5
49 0.15
5 -0.71
50 0.15
51 0.15
52 0.15
53 0.27
6 -0.23
7 0.57
8 -0.42
9 -0.07

> <PUBCHEM_EFFECTIVE_ROTOR_COUNT>
6.6

> <PUBCHEM_PHARMACOPHORE_FEATURES>
11
1 1 acceptor
1 2 acceptor
1 3 acceptor
1 4 acceptor
3 2 3 19 anion
3 5 6 33 cation
5 5 6 7 8 33 rings
6 15 16 17 18 21 22 rings
6 20 23 24 25 26 27 rings
6 28 29 30 31 32 34 rings
6 4 12 13 14 15 16 rings

> <PUBCHEM_HEAVY_ATOM_COUNT>
34

> <PUBCHEM_ATOM_DEF_STEREO_COUNT>
0

> <PUBCHEM_ATOM_UDEF_STEREO_COUNT>
0

> <PUBCHEM_BOND_DEF_STEREO_COUNT>
0

> <PUBCHEM_BOND_UDEF_STEREO_COUNT>
0

> <PUBCHEM_ISOTOPIC_ATOM_COUNT>
0

> <PUBCHEM_COMPONENT_COUNT>
1

> <PUBCHEM_CACTVS_TAUTO_COUNT>
2

> <PUBCHEM_CONFORMER_ID>
0001F37A00000001

> <PUBCHEM_MMFF94_ENERGY>
124.541

> <PUBCHEM_FEATURE_SELFOVERLAP>
55.913

> <PUBCHEM_SHAPE_FINGERPRINT>
10074138 170 15609299076731199289
11135926 11 18263919003026582532
11513181 2 18058176192334977886
12107183 9 18195532493619818081
12422481 6 18409731729697067331
12633257 1 18341332201763971155
12788726 201 17417544535709863721
13140716 1 18410293609707623343
13533116 47 18335144176077379897
13583140 156 18190161435099245046
13782708 43 17386564640144992160
14790565 3 17688313803934861652
14955137 171 18202563952700326444
15001296 14 18260823826022657795
15250474 111 18269827773812776423
16112460 7 18410579448661173074
16992610 120 17973740361871741604
1813 80 17095245834726343037
1979834 28 17488745562644036710
20511986 3 18339350976827682377
20715895 44 18200033928730636513
21033648 29 14764353708822403233
21133410 171 16908289404013524791
21756936 100 17558544953452583076
21859007 373 17823125723865516541
23559900 14 17916324756828940135
3117164 225 18411697655996666987
32027 91 18188759540261801003
3411729 13 18341056310735933924
350125 39 18338232795399193756
3633792 109 18336248091222754797
3680242 22 18339651031690595107
392239 28 18272094838536038755
4015057 19 18341313549264934197
4073 2 18190748720121522744
463206 1 17968382255643003235
5104073 3 18338812164833194865
56638632 33 18341602715958113697

> <PUBCHEM_SHAPE_MULTIPOLES>
657.19
14.1
4.36
1.46
10.03
0.12
0.58
-1.05
-6.7
-5.07
-0.1
-0.28
-0.26
-1.3

> <PUBCHEM_SHAPE_SELFOVERLAP>
1492.778

> <PUBCHEM_SHAPE_VOLUME>
344

> <PUBCHEM_COORDINATE_TYPE>
2
5
10

$$$$
