127812
  -OEChem-03292013323D

 49 52  0     1  0  0  0  0  0999 V2000
    0.6373   -1.8065   -0.3996 S   0  0  0  0  0  0  0  0  0  0  0  0
   -2.2386    1.5939   -2.2017 F   0  0  0  0  0  0  0  0  0  0  0  0
   -4.8145    4.1982    0.7931 F   0  0  0  0  0  0  0  0  0  0  0  0
   -2.0695   -0.7947   -1.6838 O   0  0  0  0  0  0  0  0  0  0  0  0
   -3.8061   -2.0156    0.3268 N   0  0  0  0  0  0  0  0  0  0  0  0
   -4.3053   -2.0510   -0.9023 N   0  0  0  0  0  0  0  0  0  0  0  0
   -5.8635   -2.5508    0.6961 N   0  0  0  0  0  0  0  0  0  0  0  0
    2.9492   -0.7833   -1.2804 N   0  0  0  0  0  0  0  0  0  0  0  0
    4.2259   -0.3294   -1.1635 N   0  0  0  0  0  0  0  0  0  0  0  0
    6.1183    0.1299    0.1477 N   0  0  0  0  0  0  0  0  0  0  0  0
    6.7789    0.1557    1.3183 N   0  0  0  0  0  0  0  0  0  0  0  0
    8.0754    0.9540   -0.3889 N   0  0  0  0  0  0  0  0  0  0  0  0
   -1.8602   -0.4577   -0.2953 C   0  0  2  0  0  0  0  0  0  0  0  0
   -0.2941   -0.2167   -0.1257 C   0  0  0  0  0  0  0  0  0  0  0  0
   -2.3896   -1.6814    0.5302 C   0  0  0  0  0  0  0  0  0  0  0  0
   -2.6698    0.8194    0.0002 C   0  0  0  0  0  0  0  0  0  0  0  0
    0.0710    0.2266    1.3077 C   0  0  0  0  0  0  0  0  0  0  0  0
    0.3061    0.7921   -1.1204 C   0  0  0  0  0  0  0  0  0  0  0  0
   -2.7950    1.7556   -0.9931 C   0  0  0  0  0  0  0  0  0  0  0  0
   -3.2261    0.9567    1.2458 C   0  0  0  0  0  0  0  0  0  0  0  0
    2.3065   -1.2267   -0.1799 C   0  0  0  0  0  0  0  0  0  0  0  0
   -3.5283    2.9109   -0.7221 C   0  0  0  0  0  0  0  0  0  0  0  0
   -3.9592    2.1120    1.5169 C   0  0  0  0  0  0  0  0  0  0  0  0
   -4.7108   -2.3070    1.2750 C   0  0  0  0  0  0  0  0  0  0  0  0
   -4.1105    3.0890    0.5330 C   0  0  0  0  0  0  0  0  0  0  0  0
    2.8846   -1.2437    1.0728 C   0  0  0  0  0  0  0  0  0  0  0  0
   -5.5683   -2.3829   -0.6265 C   0  0  0  0  0  0  0  0  0  0  0  0
    4.1837   -0.7820    1.1918 C   0  0  0  0  0  0  0  0  0  0  0  0
    4.8174   -0.3342    0.0499 C   0  0  0  0  0  0  0  0  0  0  0  0
    6.9005    0.6079   -0.8614 C   0  0  0  0  0  0  0  0  0  0  0  0
    7.9545    0.6616    0.9395 C   0  0  0  0  0  0  0  0  0  0  0  0
   -1.8897   -2.6057    0.2173 H   0  0  0  0  0  0  0  0  0  0  0  0
   -2.2189   -1.5829    1.6069 H   0  0  0  0  0  0  0  0  0  0  0  0
   -0.1189   -0.5535    2.0530 H   0  0  0  0  0  0  0  0  0  0  0  0
   -0.5173    1.1008    1.6052 H   0  0  0  0  0  0  0  0  0  0  0  0
    1.1037    0.5702    1.4095 H   0  0  0  0  0  0  0  0  0  0  0  0
    1.3526    1.0400   -0.9253 H   0  0  0  0  0  0  0  0  0  0  0  0
    0.2120    0.4629   -2.1611 H   0  0  0  0  0  0  0  0  0  0  0  0
   -0.1891    1.7636   -1.0355 H   0  0  0  0  0  0  0  0  0  0  0  0
   -1.5287   -1.5787   -1.8811 H   0  0  0  0  0  0  0  0  0  0  0  0
   -3.1049    0.2466    2.0532 H   0  0  0  0  0  0  0  0  0  0  0  0
   -3.6456    3.6717   -1.4879 H   0  0  0  0  0  0  0  0  0  0  0  0
   -4.4058    2.2554    2.4965 H   0  0  0  0  0  0  0  0  0  0  0  0
   -4.5065   -2.3326    2.3361 H   0  0  0  0  0  0  0  0  0  0  0  0
    2.3608   -1.6133    1.9484 H   0  0  0  0  0  0  0  0  0  0  0  0
   -6.2966   -2.5060   -1.4142 H   0  0  0  0  0  0  0  0  0  0  0  0
    4.6491   -0.7931    2.1718 H   0  0  0  0  0  0  0  0  0  0  0  0
    6.5857    0.6842   -1.8935 H   0  0  0  0  0  0  0  0  0  0  0  0
    8.7481    0.8219    1.6539 H   0  0  0  0  0  0  0  0  0  0  0  0
  1 14  1  0  0  0  0
  1 21  1  0  0  0  0
  2 19  1  0  0  0  0
  3 25  1  0  0  0  0
  4 13  1  0  0  0  0
  4 40  1  0  0  0  0
  5  6  1  0  0  0  0
  5 15  1  0  0  0  0
  5 24  1  0  0  0  0
  6 27  2  0  0  0  0
  7 24  2  0  0  0  0
  7 27  1  0  0  0  0
  8  9  1  0  0  0  0
  8 21  2  0  0  0  0
  9 29  2  0  0  0  0
 10 11  1  0  0  0  0
 10 29  1  0  0  0  0
 10 30  1  0  0  0  0
 11 31  2  0  0  0  0
 12 30  2  0  0  0  0
 12 31  1  0  0  0  0
 13 14  1  0  0  0  0
 13 15  1  0  0  0  0
 13 16  1  0  0  0  0
 14 17  1  0  0  0  0
 14 18  1  0  0  0  0
 15 32  1  0  0  0  0
 15 33  1  0  0  0  0
 16 19  2  0  0  0  0
 16 20  1  0  0  0  0
 17 34  1  0  0  0  0
 17 35  1  0  0  0  0
 17 36  1  0  0  0  0
 18 37  1  0  0  0  0
 18 38  1  0  0  0  0
 18 39  1  0  0  0  0
 19 22  1  0  0  0  0
 20 23  2  0  0  0  0
 20 41  1  0  0  0  0
 21 26  1  0  0  0  0
 22 25  2  0  0  0  0
 22 42  1  0  0  0  0
 23 25  1  0  0  0  0
 23 43  1  0  0  0  0
 24 44  1  0  0  0  0
 26 28  2  0  0  0  0
 26 45  1  0  0  0  0
 27 46  1  0  0  0  0
 28 29  1  0  0  0  0
 28 47  1  0  0  0  0
 30 48  1  0  0  0  0
 31 49  1  0  0  0  0
M  END
> <PUBCHEM_COMPOUND_CID>
127812

> <PUBCHEM_CONFORMER_RMSD>
0.8

> <PUBCHEM_CONFORMER_DIVERSEORDER>
3
51
13
31
63
22
61
59
45
68
1
44
32
20
9
27
67
57
65
53
39
52
49
66
42
48
34
24
2
14
33
54
30
56
25
38
50
37
5
18
35
62
7
47
19
29
46
43
41
10
16
40
60
8
58
17
23
55
6
26
36
64
4
15
11
21
12
28

> <PUBCHEM_MMFF94_PARTIAL_CHARGES>
39
1 -0.33
10 0.59
11 -0.71
12 -0.57
13 0.42
14 0.23
15 0.26
16 -0.14
19 0.19
2 -0.19
20 -0.15
21 0.41
22 -0.15
23 -0.15
24 0.04
25 0.19
26 -0.15
27 0.37
28 -0.15
29 0.29
3 -0.19
30 0.04
31 0.37
4 -0.68
40 0.4
41 0.15
42 0.15
43 0.15
44 0.15
45 0.15
46 0.15
47 0.15
48 0.15
49 0.15
5 0.31
6 -0.71
7 -0.57
8 -0.31
9 -0.31

> <PUBCHEM_EFFECTIVE_ROTOR_COUNT>
7

> <PUBCHEM_PHARMACOPHORE_FEATURES>
13
1 4 acceptor
1 4 donor
1 8 acceptor
3 10 12 30 cation
3 11 12 31 cation
3 14 17 18 hydrophobe
3 5 7 24 cation
3 6 7 27 cation
3 9 10 29 cation
5 10 11 12 30 31 rings
5 5 6 7 24 27 rings
6 16 19 20 22 23 25 rings
6 8 9 21 26 28 29 rings

> <PUBCHEM_HEAVY_ATOM_COUNT>
31

> <PUBCHEM_ATOM_DEF_STEREO_COUNT>
0

> <PUBCHEM_ATOM_UDEF_STEREO_COUNT>
1

> <PUBCHEM_BOND_DEF_STEREO_COUNT>
0

> <PUBCHEM_BOND_UDEF_STEREO_COUNT>
0

> <PUBCHEM_ISOTOPIC_ATOM_COUNT>
0

> <PUBCHEM_COMPONENT_COUNT>
1

> <PUBCHEM_CACTVS_TAUTO_COUNT>
1

> <PUBCHEM_CONFORMER_ID>
0001F34400000003

> <PUBCHEM_MMFF94_ENERGY>
93.9038

> <PUBCHEM_FEATURE_SELFOVERLAP>
71.618

> <PUBCHEM_SHAPE_FINGERPRINT>
10076449 9 18060128882774206215
10319688 45 18127123298216933735
10369192 42 17346324825150201318
10674148 151 13623525793329888699
11101153 10 18262804106498878492
11315181 36 17676205809689705990
11578080 2 17987810583746806387
12082328 90 18411419514916930518
12107698 1 18338796827114317274
12390115 104 18342462512939986354
12788726 201 18336560407800461263
13073987 5 18410291398454022378
13540713 4 18058184825314058103
13631057 29 18336260236662494587
13914758 101 14707471608419872046
14068700 675 18264203785301918063
14118638 360 18408317787946064690
14150022 121 18272940427513227337
14395042 24 18261407650424557001
14856354 85 18270966872154672199
15183329 4 13901907787643367596
15338160 23 18411984641944205449
1577012 14 18259704481158463712
15849732 13 14045471067710339963
17686467 74 18191022511575313842
17980427 23 17894639149424536542
19303781 99 17553752259883156999
19377110 9 17894915122437429290
21033648 144 18265890268091876756
21033648 29 17703494537582477058
21236236 1 18408885131212816123
21792961 116 17561087969470840482
21927370 108 17822303409167826779
22956985 138 17400083470938570819
23081809 10 18040434383199938394
249057 25 17749114426296946470
25147074 1 17968956269706238701
2747138 104 18267022936999241530
283562 15 18408038512214272811
32027 91 17840880572990231398
34797466 226 18059303179722328012
350125 39 18412828014522733041
3663271 9 18260544512052352170
497634 4 18260542329491534263
5085150 59 11097849722549408152
5104073 3 18335415713132744498
5219985 9 18264205980431463823
5969126 39 18342731962446144487
6703917 75 18261120725113228942

> <PUBCHEM_SHAPE_MULTIPOLES>
581.55
18.41
3.29
1.5
37.58
1.99
-0.12
1.98
2.97
-8.84
0.38
-0.31
0.25
-0.41

> <PUBCHEM_SHAPE_SELFOVERLAP>
1258.875

> <PUBCHEM_SHAPE_VOLUME>
323.4

> <PUBCHEM_COORDINATE_TYPE>
2
5
10

$$$$
