127834
  -OEChem-03292013323D

 49 50  0     1  0  0  0  0  0999 V2000
    4.4676    0.9812    0.4381 S   0  0  0  0  0  0  0  0  0  0  0  0
   -1.7039    0.0568    1.5279 O   0  0  0  0  0  0  0  0  0  0  0  0
    0.4526    0.5211   -2.3453 O   0  0  0  0  0  0  0  0  0  0  0  0
    1.1187    1.9408    1.3646 O   0  0  0  0  0  0  0  0  0  0  0  0
   -4.2145    0.4475    0.9769 N   0  0  0  0  0  0  0  0  0  0  0  0
    2.1236    0.7531   -0.7560 N   0  0  0  0  0  0  0  0  0  0  0  0
   -1.1263   -0.6153   -0.6259 N   0  0  0  0  0  0  0  0  0  0  0  0
    2.6057    0.9993    2.8467 N   0  0  0  0  0  0  0  0  0  0  0  0
   -3.3986   -0.0175   -0.1448 C   0  0  1  0  0  0  0  0  0  0  0  0
    0.2756   -0.8321   -0.4005 C   0  0  1  0  0  0  0  0  0  0  0  0
   -3.5098    1.0577   -1.2219 C   0  0  0  0  0  0  0  0  0  0  0  0
   -4.4404    2.1056   -0.6294 C   0  0  0  0  0  0  0  0  0  0  0  0
    0.7309   -2.2366   -0.7961 C   0  0  0  0  0  0  0  0  0  0  0  0
   -5.2264    1.3325    0.4085 C   0  0  0  0  0  0  0  0  0  0  0  0
    0.0448   -3.3773   -0.0175 C   0  0  0  0  0  0  0  0  0  0  0  0
   -2.0038   -0.1868    0.3621 C   0  0  0  0  0  0  0  0  0  0  0  0
    0.9489    0.2080   -1.2610 C   0  0  0  0  0  0  0  0  0  0  0  0
    2.7470    0.4153    0.5185 C   0  0  2  0  0  0  0  0  0  0  0  0
    2.8665    1.7632   -1.5027 C   0  0  0  0  0  0  0  0  0  0  0  0
    4.3476    1.5076   -1.2890 C   0  0  0  0  0  0  0  0  0  0  0  0
    0.2921   -3.2865    1.4890 C   0  0  0  0  0  0  0  0  0  0  0  0
    0.5378   -4.7295   -0.5400 C   0  0  0  0  0  0  0  0  0  0  0  0
    2.0644    1.1919    1.5977 C   0  0  0  0  0  0  0  0  0  0  0  0
   -3.7684   -0.9824   -0.5105 H   0  0  0  0  0  0  0  0  0  0  0  0
    0.4746   -0.6572    0.6557 H   0  0  0  0  0  0  0  0  0  0  0  0
   -3.9685    0.6305   -2.1217 H   0  0  0  0  0  0  0  0  0  0  0  0
   -2.5575    1.5126   -1.5134 H   0  0  0  0  0  0  0  0  0  0  0  0
   -5.0826    2.5649   -1.3865 H   0  0  0  0  0  0  0  0  0  0  0  0
   -3.8528    2.8996   -0.1519 H   0  0  0  0  0  0  0  0  0  0  0  0
    1.8189   -2.3176   -0.6758 H   0  0  0  0  0  0  0  0  0  0  0  0
    0.5406   -2.3856   -1.8684 H   0  0  0  0  0  0  0  0  0  0  0  0
   -6.0266    0.7443   -0.0549 H   0  0  0  0  0  0  0  0  0  0  0  0
   -5.6708    1.9850    1.1655 H   0  0  0  0  0  0  0  0  0  0  0  0
   -3.6391    1.0032    1.6120 H   0  0  0  0  0  0  0  0  0  0  0  0
   -1.0374   -3.3300   -0.1912 H   0  0  0  0  0  0  0  0  0  0  0  0
   -1.4830   -0.7655   -1.5658 H   0  0  0  0  0  0  0  0  0  0  0  0
    2.6999   -0.6569    0.7215 H   0  0  0  0  0  0  0  0  0  0  0  0
    2.6064    1.7454   -2.5657 H   0  0  0  0  0  0  0  0  0  0  0  0
    2.5753    2.7439   -1.1065 H   0  0  0  0  0  0  0  0  0  0  0  0
    4.6978    0.6884   -1.9248 H   0  0  0  0  0  0  0  0  0  0  0  0
    4.9544    2.3949   -1.4867 H   0  0  0  0  0  0  0  0  0  0  0  0
   -0.1801   -2.3999    1.9213 H   0  0  0  0  0  0  0  0  0  0  0  0
   -0.1283   -4.1570    2.0043 H   0  0  0  0  0  0  0  0  0  0  0  0
    1.3635   -3.2468    1.7132 H   0  0  0  0  0  0  0  0  0  0  0  0
    0.3361   -4.8294   -1.6118 H   0  0  0  0  0  0  0  0  0  0  0  0
    0.0298   -5.5536   -0.0280 H   0  0  0  0  0  0  0  0  0  0  0  0
    1.6157   -4.8471   -0.3848 H   0  0  0  0  0  0  0  0  0  0  0  0
    3.3922    0.3775    3.0051 H   0  0  0  0  0  0  0  0  0  0  0  0
    2.2300    1.4773    3.6590 H   0  0  0  0  0  0  0  0  0  0  0  0
  1 18  1  0  0  0  0
  1 20  1  0  0  0  0
  2 16  2  0  0  0  0
  3 17  2  0  0  0  0
  4 23  2  0  0  0  0
  5  9  1  0  0  0  0
  5 14  1  0  0  0  0
  5 34  1  0  0  0  0
  6 17  1  0  0  0  0
  6 18  1  0  0  0  0
  6 19  1  0  0  0  0
  7 10  1  0  0  0  0
  7 16  1  0  0  0  0
  7 36  1  0  0  0  0
  8 23  1  0  0  0  0
  8 48  1  0  0  0  0
  8 49  1  0  0  0  0
  9 11  1  0  0  0  0
  9 16  1  0  0  0  0
  9 24  1  0  0  0  0
 10 13  1  0  0  0  0
 10 17  1  0  0  0  0
 10 25  1  0  0  0  0
 11 12  1  0  0  0  0
 11 26  1  0  0  0  0
 11 27  1  0  0  0  0
 12 14  1  0  0  0  0
 12 28  1  0  0  0  0
 12 29  1  0  0  0  0
 13 15  1  0  0  0  0
 13 30  1  0  0  0  0
 13 31  1  0  0  0  0
 14 32  1  0  0  0  0
 14 33  1  0  0  0  0
 15 21  1  0  0  0  0
 15 22  1  0  0  0  0
 15 35  1  0  0  0  0
 18 23  1  0  0  0  0
 18 37  1  0  0  0  0
 19 20  1  0  0  0  0
 19 38  1  0  0  0  0
 19 39  1  0  0  0  0
 20 40  1  0  0  0  0
 20 41  1  0  0  0  0
 21 42  1  0  0  0  0
 21 43  1  0  0  0  0
 21 44  1  0  0  0  0
 22 45  1  0  0  0  0
 22 46  1  0  0  0  0
 22 47  1  0  0  0  0
M  END
> <PUBCHEM_COMPOUND_CID>
127834

> <PUBCHEM_CONFORMER_RMSD>
1

> <PUBCHEM_CONFORMER_DIVERSEORDER>
1
15
58
146
67
121
57
149
95
141
85
117
53
130
148
144
62
59
73
98
24
96
104
139
23
105
61
45
80
14
162
74
38
37
81
56
39
140
89
90
134
60
106
108
18
156
113
150
78
30
161
88
128
154
152
69
99
119
79
92
112
143
93
26
87
111
43
40
160
120
17
132
142
29
131
4
71
129
135
76
63
86
159
101
100
137
157
25
102
84
44
110
48
158
103
77
32
5
125
13
16
138
124
50
20
122
94
83
66
109
22
127
55
8
21
49
147
41
6
42
115
68
2
136
82
31
107
75
133
35
116
70
97
12
91
72
65
34
7
153
19
155
54
64
47
52
10
28
114
51
46
36
151
126
11
27
123
9
33
3
145
118

> <PUBCHEM_MMFF94_PARTIAL_CHARGES>
21
1 -0.46
10 0.36
14 0.27
16 0.57
17 0.57
18 0.59
19 0.3
2 -0.57
20 0.23
23 0.57
3 -0.57
34 0.36
36 0.37
4 -0.57
48 0.37
49 0.37
5 -0.9
6 -0.66
7 -0.73
8 -0.8
9 0.33

> <PUBCHEM_EFFECTIVE_ROTOR_COUNT>
10

> <PUBCHEM_PHARMACOPHORE_FEATURES>
10
1 2 acceptor
1 3 acceptor
1 4 acceptor
1 5 cation
1 5 donor
1 7 donor
1 8 donor
3 15 21 22 hydrophobe
5 1 6 18 19 20 rings
5 5 9 11 12 14 rings

> <PUBCHEM_HEAVY_ATOM_COUNT>
23

> <PUBCHEM_ATOM_DEF_STEREO_COUNT>
2

> <PUBCHEM_ATOM_UDEF_STEREO_COUNT>
1

> <PUBCHEM_BOND_DEF_STEREO_COUNT>
0

> <PUBCHEM_BOND_UDEF_STEREO_COUNT>
0

> <PUBCHEM_ISOTOPIC_ATOM_COUNT>
0

> <PUBCHEM_COMPONENT_COUNT>
1

> <PUBCHEM_CACTVS_TAUTO_COUNT>
4

> <PUBCHEM_CONFORMER_ID>
0001F35A00000001

> <PUBCHEM_MMFF94_ENERGY>
47.2206

> <PUBCHEM_FEATURE_SELFOVERLAP>
50.746

> <PUBCHEM_SHAPE_FINGERPRINT>
11582403 64 16555044806610474746
12788726 201 17684366543836654482
12839892 36 18188214307592152075
12892183 10 15936124166707067373
13464513 79 11530769218761111080
13681431 1 17906170655198598703
14178342 30 18334300885767433743
14251757 17 16845010229232728335
14251764 3 18271523195152267153
15163728 17 18262536817698861357
15664445 248 8430317990985397298
16752209 62 18122054574986816906
18186145 218 17704070733109810001
20567600 347 18412257355166825715
20600515 1 17044042926487429111
21033648 29 18342453793845600728
212916 134 18340757225986647064
21524375 3 18343021129118652895
23419403 2 17472101035178958634
23559900 14 17971756563124895439
35225 105 18122071059076418538
474 4 18335704914559928173
495365 180 18266732485978257455
633830 44 17775279495544457929
7364860 26 18196652895852242839
7471813 234 17626655008577462999
81228 2 17692243462512966159
84936 182 18200314295305123817

> <PUBCHEM_SHAPE_MULTIPOLES>
439.65
8.34
3.88
1.93
6.71
7.1
0.62
-8.55
0.25
-0.87
-0.31
-1.34
-0.67
0.16

> <PUBCHEM_SHAPE_SELFOVERLAP>
881.812

> <PUBCHEM_SHAPE_VOLUME>
261.1

> <PUBCHEM_COORDINATE_TYPE>
2
5
10

$$$$
