127875
  -OEChem-03292013323D

 29 29  0     1  0  0  0  0  0999 V2000
   -3.7274    1.2123    1.1086 F   0  0  0  0  0  0  0  0  0  0  0  0
   -4.5259   -0.7888    0.7696 F   0  0  0  0  0  0  0  0  0  0  0  0
   -4.7191    0.7382   -0.7730 F   0  0  0  0  0  0  0  0  0  0  0  0
    2.2424   -1.4613   -0.9957 O   0  0  0  0  0  0  0  0  0  0  0  0
   -0.0950   -2.0733    0.2927 O   0  0  0  0  0  0  0  0  0  0  0  0
    4.7726   -0.5598    0.9092 O   0  0  0  0  0  0  0  0  0  0  0  0
    4.6909    1.0102   -0.7415 O   0  0  0  0  0  0  0  0  0  0  0  0
   -2.4852   -1.0457   -1.2815 O   0  0  0  0  0  0  0  0  0  0  0  0
    0.5624    1.5818   -0.0690 N   0  0  0  0  0  0  0  0  0  0  0  0
   -1.5004    0.5139    0.1394 N   0  0  0  0  0  0  0  0  0  0  0  0
    2.0210   -0.9424    0.3188 C   0  0  2  0  0  0  0  0  0  0  0  0
    0.5145   -0.8187    0.5890 C   0  0  1  0  0  0  0  0  0  0  0  0
    2.6857    0.4293    0.4775 C   0  0  2  0  0  0  0  0  0  0  0  0
   -0.1265    0.3017   -0.2481 C   0  0  2  0  0  0  0  0  0  0  0  0
    1.9902    1.4901   -0.3811 C   0  0  0  0  0  0  0  0  0  0  0  0
    4.1413    0.3504    0.1279 C   0  0  0  0  0  0  0  0  0  0  0  0
   -2.5630   -0.1811   -0.4135 C   0  0  0  0  0  0  0  0  0  0  0  0
   -3.8785    0.2430    0.1706 C   0  0  0  0  0  0  0  0  0  0  0  0
    2.4468   -1.6761    1.0140 H   0  0  0  0  0  0  0  0  0  0  0  0
    0.3506   -0.6176    1.6560 H   0  0  0  0  0  0  0  0  0  0  0  0
    2.6233    0.7471    1.5277 H   0  0  0  0  0  0  0  0  0  0  0  0
   -0.1262    0.0223   -1.3093 H   0  0  0  0  0  0  0  0  0  0  0  0
    2.4466    2.4720   -0.2073 H   0  0  0  0  0  0  0  0  0  0  0  0
    2.1165    1.2817   -1.4512 H   0  0  0  0  0  0  0  0  0  0  0  0
    0.4589    1.8734    0.9032 H   0  0  0  0  0  0  0  0  0  0  0  0
   -1.6836    1.1980    0.8675 H   0  0  0  0  0  0  0  0  0  0  0  0
    3.1885   -1.6680   -1.0787 H   0  0  0  0  0  0  0  0  0  0  0  0
    0.3251   -2.7447    0.8569 H   0  0  0  0  0  0  0  0  0  0  0  0
    5.7272   -0.6280    0.6940 H   0  0  0  0  0  0  0  0  0  0  0  0
  1 18  1  0  0  0  0
  2 18  1  0  0  0  0
  3 18  1  0  0  0  0
  4 11  1  0  0  0  0
  4 27  1  0  0  0  0
  5 12  1  0  0  0  0
  5 28  1  0  0  0  0
  6 16  1  0  0  0  0
  6 29  1  0  0  0  0
  7 16  2  0  0  0  0
  8 17  2  0  0  0  0
  9 14  1  0  0  0  0
  9 15  1  0  0  0  0
  9 25  1  0  0  0  0
 10 14  1  0  0  0  0
 10 17  1  0  0  0  0
 10 26  1  0  0  0  0
 11 12  1  0  0  0  0
 11 13  1  0  0  0  0
 11 19  1  0  0  0  0
 12 14  1  0  0  0  0
 12 20  1  0  0  0  0
 13 15  1  0  0  0  0
 13 16  1  0  0  0  0
 13 21  1  0  0  0  0
 14 22  1  0  0  0  0
 15 23  1  0  0  0  0
 15 24  1  0  0  0  0
 17 18  1  0  0  0  0
M  END
> <PUBCHEM_COMPOUND_CID>
127875

> <PUBCHEM_CONFORMER_RMSD>
0.6

> <PUBCHEM_CONFORMER_DIVERSEORDER>
1
10
12
14
5
8
11
6
2
13
4
3
9
7

> <PUBCHEM_MMFF94_PARTIAL_CHARGES>
23
1 -0.34
10 -0.73
11 0.28
12 0.28
13 0.06
14 0.57
15 0.27
16 0.66
17 0.57
18 1.08
2 -0.34
25 0.36
26 0.37
27 0.4
28 0.4
29 0.5
3 -0.34
4 -0.68
5 -0.68
6 -0.65
7 -0.57
8 -0.57
9 -0.9

> <PUBCHEM_EFFECTIVE_ROTOR_COUNT>
5.2

> <PUBCHEM_PHARMACOPHORE_FEATURES>
12
1 10 donor
1 4 acceptor
1 4 donor
1 5 acceptor
1 5 donor
1 6 acceptor
1 7 acceptor
1 8 acceptor
1 9 cation
1 9 donor
3 6 7 16 anion
6 9 11 12 13 14 15 rings

> <PUBCHEM_HEAVY_ATOM_COUNT>
18

> <PUBCHEM_ATOM_DEF_STEREO_COUNT>
4

> <PUBCHEM_ATOM_UDEF_STEREO_COUNT>
0

> <PUBCHEM_BOND_DEF_STEREO_COUNT>
0

> <PUBCHEM_BOND_UDEF_STEREO_COUNT>
0

> <PUBCHEM_ISOTOPIC_ATOM_COUNT>
0

> <PUBCHEM_COMPONENT_COUNT>
1

> <PUBCHEM_CACTVS_TAUTO_COUNT>
2

> <PUBCHEM_CONFORMER_ID>
0001F38300000001

> <PUBCHEM_MMFF94_ENERGY>
23.3635

> <PUBCHEM_FEATURE_SELFOVERLAP>
61.01

> <PUBCHEM_SHAPE_FINGERPRINT>
10062212 137 18270389598574508574
11132069 177 18343010108300752960
11401426 45 18341886411807176208
11471102 20 18408318874007723012
12236239 1 18273493473013535509
12500047 106 17132108048394359335
13214271 11 18113615686405309463
13221675 6 18411699872363289509
13675066 3 18342455958529703425
13760787 5 18186793695486919484
14252887 29 18343309136782552026
15196674 1 18334856151491333098
15536298 74 18059297565292944502
16945 1 18261379088332284464
17834072 33 18200867470092262719
18186145 218 18336834099958561599
19026448 4 15357687579239211496
200 152 18341323462291507421
20279233 1 17676207953352841611
20645477 70 18269548352004727823
20671657 1 17898300647230181229
23402539 116 18340476829405319926
23402655 69 18342455928401680764
23559900 14 17775002436468951632
4990 188 17775011189105794844
5104073 3 18335980969119165536
537710 114 18334860528448311476
9981440 41 17190642997878133808

> <PUBCHEM_SHAPE_MULTIPOLES>
309.3
9.38
1.51
0.93
2.62
0.2
-0.06
-1.34
0.55
-0.35
-0.07
0.21
0.09
-0.37

> <PUBCHEM_SHAPE_SELFOVERLAP>
635.362

> <PUBCHEM_SHAPE_VOLUME>
176.1

> <PUBCHEM_COORDINATE_TYPE>
2
5
10

$$$$
