127839
  -OEChem-03292013323D

 40 41  0     1  0  0  0  0  0999 V2000
   -5.6407    1.0610   -0.5890 O   0  0  0  0  0  0  0  0  0  0  0  0
   -1.6737    0.5400   -1.6248 O   0  0  0  0  0  0  0  0  0  0  0  0
    0.7864   -0.8061   -1.8325 O   0  0  0  0  0  0  0  0  0  0  0  0
   -3.4273    1.6201   -0.0692 N   0  0  0  0  0  0  0  0  0  0  0  0
   -0.2791   -0.1294    0.1269 N   0  0  0  0  0  0  0  0  0  0  0  0
    1.8461   -2.7571    0.0905 N   0  0  0  0  0  0  0  0  0  0  0  0
    4.0461    1.5491   -0.6351 N   0  0  0  0  0  0  0  0  0  0  0  0
    3.0690    2.8653    0.8632 N   0  0  0  0  0  0  0  0  0  0  0  0
   -2.3190    1.0223    0.6202 C   0  0  1  0  0  0  0  0  0  0  0  0
   -2.9632   -0.0497    1.4786 C   0  0  0  0  0  0  0  0  0  0  0  0
   -4.2357   -0.4264    0.7205 C   0  0  0  0  0  0  0  0  0  0  0  0
    1.8382   -1.3074    0.2934 C   0  0  1  0  0  0  0  0  0  0  0  0
   -4.5690    0.8261   -0.0526 C   0  0  0  0  0  0  0  0  0  0  0  0
   -1.4137    0.4588   -0.4278 C   0  0  0  0  0  0  0  0  0  0  0  0
    3.2164   -0.7281   -0.0610 C   0  0  0  0  0  0  0  0  0  0  0  0
    0.7495   -0.7246   -0.6061 C   0  0  0  0  0  0  0  0  0  0  0  0
    3.2897    0.7669    0.1544 C   0  0  0  0  0  0  0  0  0  0  0  0
    0.5534   -3.3301    0.4293 C   0  0  0  0  0  0  0  0  0  0  0  0
    2.6946    1.5606    1.0660 C   0  0  0  0  0  0  0  0  0  0  0  0
    0.5489   -4.8352    0.2230 C   0  0  0  0  0  0  0  0  0  0  0  0
    3.8832    2.8236   -0.1679 C   0  0  0  0  0  0  0  0  0  0  0  0
   -1.7940    1.7827    1.2058 H   0  0  0  0  0  0  0  0  0  0  0  0
   -3.2446    0.3815    2.4480 H   0  0  0  0  0  0  0  0  0  0  0  0
   -2.3357   -0.9237    1.6767 H   0  0  0  0  0  0  0  0  0  0  0  0
   -4.0524   -1.2395    0.0113 H   0  0  0  0  0  0  0  0  0  0  0  0
   -5.0482   -0.6959    1.3995 H   0  0  0  0  0  0  0  0  0  0  0  0
    1.6258   -1.0986    1.3494 H   0  0  0  0  0  0  0  0  0  0  0  0
   -3.3768    2.5105   -0.5544 H   0  0  0  0  0  0  0  0  0  0  0  0
    3.9910   -1.1978    0.5593 H   0  0  0  0  0  0  0  0  0  0  0  0
    3.4630   -0.9524   -1.1078 H   0  0  0  0  0  0  0  0  0  0  0  0
   -0.1932   -0.1147    1.1399 H   0  0  0  0  0  0  0  0  0  0  0  0
    2.5742   -3.1812    0.6647 H   0  0  0  0  0  0  0  0  0  0  0  0
    0.3016   -3.1191    1.4756 H   0  0  0  0  0  0  0  0  0  0  0  0
   -0.2523   -2.9318   -0.1963 H   0  0  0  0  0  0  0  0  0  0  0  0
    4.6224    1.2660   -1.4171 H   0  0  0  0  0  0  0  0  0  0  0  0
    2.0197    1.2959    1.8666 H   0  0  0  0  0  0  0  0  0  0  0  0
    0.7612   -5.0920   -0.8203 H   0  0  0  0  0  0  0  0  0  0  0  0
    1.2978   -5.3238    0.8555 H   0  0  0  0  0  0  0  0  0  0  0  0
   -0.4309   -5.2504    0.4803 H   0  0  0  0  0  0  0  0  0  0  0  0
    4.3815    3.6691   -0.6204 H   0  0  0  0  0  0  0  0  0  0  0  0
  1 13  2  0  0  0  0
  2 14  2  0  0  0  0
  3 16  2  0  0  0  0
  4  9  1  0  0  0  0
  4 13  1  0  0  0  0
  4 28  1  0  0  0  0
  5 14  1  0  0  0  0
  5 16  1  0  0  0  0
  5 31  1  0  0  0  0
  6 12  1  0  0  0  0
  6 18  1  0  0  0  0
  6 32  1  0  0  0  0
  7 17  1  0  0  0  0
  7 21  1  0  0  0  0
  7 35  1  0  0  0  0
  8 19  1  0  0  0  0
  8 21  2  0  0  0  0
  9 10  1  0  0  0  0
  9 14  1  0  0  0  0
  9 22  1  0  0  0  0
 10 11  1  0  0  0  0
 10 23  1  0  0  0  0
 10 24  1  0  0  0  0
 11 13  1  0  0  0  0
 11 25  1  0  0  0  0
 11 26  1  0  0  0  0
 12 15  1  0  0  0  0
 12 16  1  0  0  0  0
 12 27  1  0  0  0  0
 15 17  1  0  0  0  0
 15 29  1  0  0  0  0
 15 30  1  0  0  0  0
 17 19  2  0  0  0  0
 18 20  1  0  0  0  0
 18 33  1  0  0  0  0
 18 34  1  0  0  0  0
 19 36  1  0  0  0  0
 20 37  1  0  0  0  0
 20 38  1  0  0  0  0
 20 39  1  0  0  0  0
 21 40  1  0  0  0  0
M  END
> <PUBCHEM_COMPOUND_CID>
127839

> <PUBCHEM_CONFORMER_RMSD>
0.8

> <PUBCHEM_CONFORMER_DIVERSEORDER>
1
156
278
329
255
215
57
355
339
321
319
299
198
323
108
236
336
244
303
130
181
326
294
30
345
200
260
164
93
106
126
310
161
35
229
234
350
296
317
270
112
333
247
288
342
224
320
243
290
331
344
155
197
118
211
279
300
283
312
205
13
338
218
216
332
261
195
203
65
239
335
251
228
206
286
145
140
301
52
136
298
256
347
221
222
80
314
358
120
167
249
363
308
250
187
42
306
352
79
210
273
337
131
101
248
162
263
20
258
297
38
262
264
190
148
361
171
111
231
196
189
313
328
360
168
114
254
242
55
315
202
353
265
354
54
291
343
204
257
341
32
86
365
295
117
127
282
27
368
199
280
166
348
327
128
292
15
272
105
346
91
87
113
367
152
316
349
227
60
268
311
324
184
37
351
74
233
178
325
138
235
340
307
285
163
58
182
232
209
356
85
318
359
305
193
207
97
322
6
304
122
72
214
289
102
59
240
174
223
68
64
276
142
34
76
287
191
125
83
267
103
41
9
213
73
139
170
172
88
217
159
362
366
48
16
39
334
7
245
330
302
269
69
153
135
98
144
237
165
12
150
137
275
157
274
17
40
188
277
241
194
226
179
94
46
151
219
143
71
149
252
158
175
147
293
271
67
124
107
2
8
173
141
31
92
123
56
169
180
133
33
53
192
95
90
3
61
129
259
134
238
230
4
50
146
281
183
28
36
284
364
110
115
212
186
104
154
309
47
26
225
82
19
246
45
23
81
121
21
22
75
109
185
116
77
63
70
266
201
51
11
208
176
89
357
78
14
44
10
5
119
253
99
49
43
177
160
29
132
84
24
96
25
100
62
18
66
220

> <PUBCHEM_MMFF94_PARTIAL_CHARGES>
25
1 -0.57
11 0.06
12 0.33
13 0.57
14 0.57
15 0.18
16 0.57
17 -0.33
18 0.27
19 0.08
2 -0.57
21 0.04
28 0.37
3 -0.57
31 0.37
32 0.36
35 0.27
36 0.15
4 -0.73
40 0.15
5 -0.49
6 -0.9
7 0.03
8 -0.57
9 0.36

> <PUBCHEM_EFFECTIVE_ROTOR_COUNT>
8.8

> <PUBCHEM_PHARMACOPHORE_FEATURES>
11
1 1 acceptor
1 2 acceptor
1 3 acceptor
1 4 donor
1 5 donor
1 6 cation
1 6 donor
1 7 donor
3 7 8 21 cation
5 4 9 10 11 13 rings
5 7 8 17 19 21 rings

> <PUBCHEM_HEAVY_ATOM_COUNT>
21

> <PUBCHEM_ATOM_DEF_STEREO_COUNT>
2

> <PUBCHEM_ATOM_UDEF_STEREO_COUNT>
0

> <PUBCHEM_BOND_DEF_STEREO_COUNT>
0

> <PUBCHEM_BOND_UDEF_STEREO_COUNT>
0

> <PUBCHEM_ISOTOPIC_ATOM_COUNT>
0

> <PUBCHEM_COMPONENT_COUNT>
1

> <PUBCHEM_CACTVS_TAUTO_COUNT>
18

> <PUBCHEM_CONFORMER_ID>
0001F35F00000001

> <PUBCHEM_MMFF94_ENERGY>
30.9808

> <PUBCHEM_FEATURE_SELFOVERLAP>
55.825

> <PUBCHEM_SHAPE_FINGERPRINT>
10090160 65 18411411830566387973
10165383 225 18260839219733799876
10366900 7 18188783729459368795
11370993 70 18335703857861064019
11615757 297 17918278632062704177
12788726 201 17692513920988259354
13004483 165 9006515861568581488
13533116 47 18192997020211633339
13583140 156 18265609875884417173
13955234 65 18337674092577734467
14289901 80 18341891840814513745
14528608 73 18272366503633871893
146900 427 18202291324860451961
14787075 74 18058451087684930099
14955137 171 18265608776595166850
15342168 16 18335701714525041044
17818456 19 12613296609171684295
17868525 174 17762334717396182217
17980427 23 17023753458262775231
1813 80 17413317871352767670
204376 136 18410014381009214947
21049683 118 18122035831653871690
21524375 3 18202283623746660852
21756936 100 18197212775289071924
22182937 141 17910396418134834592
2255824 54 18269272374596692118
23532345 1 18410575050704371225
23557571 272 17313385561543036229
23558518 356 17695890508254027516
23559900 14 18264485079604899211
23845131 108 18336821000108271139
2637199 183 18129956671051386388
283562 15 17398379215161991130
31174 14 18192427472360432943
474 4 18413105069645981592
49207404 50 18261398887672700352
495365 180 18337102389322298809
4990 188 12175903238484500949
59755656 520 18336823216880555980
621550 34 18260825969421977485
633830 44 18272370884104602356
6442390 28 18337114587108832762
7364860 26 18265617572033762162
7808743 9 17975418237435870412
81228 2 17612025284968644874
81539 233 18411702097061598128
8272917 22 18340207380004676633
8988823 20 18265043649034466039
9709674 26 18118408333016180187
9777508 108 18123188171569714050
9999458 23 18410012105140966998

> <PUBCHEM_SHAPE_MULTIPOLES>
389.66
9
4.15
1.14
8.08
5.78
-0.17
-7.72
0.3
-4.02
0.62
0.29
-0.15
0.56

> <PUBCHEM_SHAPE_SELFOVERLAP>
810.438

> <PUBCHEM_SHAPE_VOLUME>
223.9

> <PUBCHEM_COORDINATE_TYPE>
2
5
10

$$$$
