127868
  -OEChem-03292013323D

 27 27  0     1  0  0  0  0  0999 V2000
   -1.1286   -0.5730   -1.6265 O   0  0  0  0  0  0  0  0  0  0  0  0
   -3.5831   -2.0853   -0.1183 O   0  0  0  0  0  0  0  0  0  0  0  0
   -3.0105   -0.9505    1.7590 O   0  0  0  0  0  0  0  0  0  0  0  0
    4.8222   -0.7527    0.4808 O   0  5  0  0  0  0  0  0  0  0  0  0
    3.3496   -2.2190   -0.2398 O   0  0  0  0  0  0  0  0  0  0  0  0
   -4.5229    1.0971    0.2354 N   0  0  0  0  0  0  0  0  0  0  0  0
    3.6646   -1.0551    0.1050 N   0  3  0  0  0  0  0  0  0  0  0  0
   -2.1329    1.1097   -0.2596 C   0  0  0  0  0  0  0  0  0  0  0  0
   -3.4243    0.2914   -0.3030 C   0  0  1  0  0  0  0  0  0  0  0  0
   -0.9503    0.3335   -0.8140 C   0  0  0  0  0  0  0  0  0  0  0  0
    0.4370    0.6600   -0.3706 C   0  0  0  0  0  0  0  0  0  0  0  0
    1.3755   -0.3461   -0.3456 C   0  0  0  0  0  0  0  0  0  0  0  0
    0.7233    1.9549   -0.0030 C   0  0  0  0  0  0  0  0  0  0  0  0
   -3.3039   -0.9476    0.5703 C   0  0  0  0  0  0  0  0  0  0  0  0
    2.6716   -0.0405    0.0695 C   0  0  0  0  0  0  0  0  0  0  0  0
    2.0193    2.2605    0.4121 C   0  0  0  0  0  0  0  0  0  0  0  0
    2.9935    1.2627    0.4483 C   0  0  0  0  0  0  0  0  0  0  0  0
   -1.9088    1.3970    0.7754 H   0  0  0  0  0  0  0  0  0  0  0  0
   -2.2437    2.0219   -0.8581 H   0  0  0  0  0  0  0  0  0  0  0  0
   -3.6628   -0.0003   -1.3317 H   0  0  0  0  0  0  0  0  0  0  0  0
    1.1008   -1.3554   -0.6393 H   0  0  0  0  0  0  0  0  0  0  0  0
   -0.0148    2.7496   -0.0359 H   0  0  0  0  0  0  0  0  0  0  0  0
   -4.3260    1.3608    1.2001 H   0  0  0  0  0  0  0  0  0  0  0  0
   -5.3803    0.5463    0.2522 H   0  0  0  0  0  0  0  0  0  0  0  0
    2.2705    3.2760    0.7041 H   0  0  0  0  0  0  0  0  0  0  0  0
    3.9926    1.5383    0.7762 H   0  0  0  0  0  0  0  0  0  0  0  0
   -3.5126   -2.8823    0.4493 H   0  0  0  0  0  0  0  0  0  0  0  0
  1 10  2  0  0  0  0
  2 14  1  0  0  0  0
  2 27  1  0  0  0  0
  3 14  2  0  0  0  0
  4  7  1  0  0  0  0
  5  7  2  0  0  0  0
  6  9  1  0  0  0  0
  6 23  1  0  0  0  0
  6 24  1  0  0  0  0
  7 15  1  0  0  0  0
  8  9  1  0  0  0  0
  8 10  1  0  0  0  0
  8 18  1  0  0  0  0
  8 19  1  0  0  0  0
  9 14  1  0  0  0  0
  9 20  1  0  0  0  0
 10 11  1  0  0  0  0
 11 12  2  0  0  0  0
 11 13  1  0  0  0  0
 12 15  1  0  0  0  0
 12 21  1  0  0  0  0
 13 16  2  0  0  0  0
 13 22  1  0  0  0  0
 15 17  2  0  0  0  0
 16 17  1  0  0  0  0
 16 25  1  0  0  0  0
 17 26  1  0  0  0  0
M  CHG  2   4  -1   7   1
M  END
> <PUBCHEM_COMPOUND_CID>
127868

> <PUBCHEM_CONFORMER_RMSD>
0.6

> <PUBCHEM_CONFORMER_DIVERSEORDER>
2
142
118
18
25
110
135
8
134
65
46
69
56
106
139
3
92
114
15
136
22
12
41
130
121
78
87
42
95
14
67
115
34
123
109
141
9
127
122
77
31
28
7
108
132
55
43
120
10
26
53
140
86
23
94
126
11
137
72
62
37
129
29
128
138
60
119
113
32
30
20
4
6
58
57
145
68
83
59
52
116
101
38
17
74
5
19
70
76
111
89
50
91
66
63
93
48
107
13
35
24
98
81
125
33
51
39
100
96
124
27
82
103
104
21
54
1
61
75
131
73
36
105
99
112
102
79
45
40
47
16
90
64
133
44
85
49
143
71
80
97
144
117
88
84

> <PUBCHEM_MMFF94_PARTIAL_CHARGES>
24
1 -0.57
10 0.42
11 0.09
12 -0.15
13 -0.15
14 0.66
15 0.13
16 -0.15
17 -0.15
2 -0.65
21 0.15
22 0.15
23 0.36
24 0.36
25 0.15
26 0.15
27 0.5
3 -0.57
4 -0.52
5 -0.52
6 -0.99
7 0.91
8 0.06
9 0.33

> <PUBCHEM_EFFECTIVE_ROTOR_COUNT>
5

> <PUBCHEM_PHARMACOPHORE_FEATURES>
10
1 1 acceptor
1 2 acceptor
1 3 acceptor
1 4 acceptor
1 4 anion
1 5 acceptor
1 6 cation
1 6 donor
3 2 3 14 anion
6 11 12 13 15 16 17 rings

> <PUBCHEM_HEAVY_ATOM_COUNT>
17

> <PUBCHEM_ATOM_DEF_STEREO_COUNT>
0

> <PUBCHEM_ATOM_UDEF_STEREO_COUNT>
1

> <PUBCHEM_BOND_DEF_STEREO_COUNT>
0

> <PUBCHEM_BOND_UDEF_STEREO_COUNT>
0

> <PUBCHEM_ISOTOPIC_ATOM_COUNT>
0

> <PUBCHEM_COMPONENT_COUNT>
1

> <PUBCHEM_CACTVS_TAUTO_COUNT>
2

> <PUBCHEM_CONFORMER_ID>
0001F37C00000002

> <PUBCHEM_MMFF94_ENERGY>
42.2033

> <PUBCHEM_FEATURE_SELFOVERLAP>
50.886

> <PUBCHEM_SHAPE_FINGERPRINT>
10799339 124 18343299271163655881
11471102 22 18339364166186938792
11543360 7 16443357468081410166
12032990 46 18410293580085827468
12251169 10 18060412508833082628
124424 183 18410852136314397157
12500047 106 17968649416052579781
12507560 40 18410574024286549017
12596602 18 16845001403296819066
12633257 1 18271260364887018883
13296908 3 18408320012131988357
13533116 47 18269552896528415519
13583140 156 17845363522097454249
13675066 3 18131624586982339952
13740256 8 18409449181189490086
14252887 29 17989207002395413582
14289901 80 18266742570202986681
15375462 189 18340759374008306758
15527383 91 18411139125665125320
15653759 3 18335139799758594181
17804303 29 18334863800907085271
17834074 16 18333450932565428314
19107657 162 17822857618599024379
200 152 18060126679128675725
20281475 54 18261395584853360213
20645477 70 18412816988893291630
20871998 22 18129383692422721044
21065198 57 18410574007117281337
21065199 12 18338517546871481577
221490 88 18334862761493461544
22169311 14 18409168809708118685
228727 97 13406795484693107348
231179 274 10663818585906017232
23557571 272 17095789014665849572
23559900 14 18334852844219133873
26918003 58 18411412886980636896
5104073 3 18412824720019190545
8809292 202 18259988154235413273
9709674 26 18116153453441580667

> <PUBCHEM_SHAPE_MULTIPOLES>
310.54
8.38
2.09
0.98
0.87
0.05
0.05
2.89
1.82
-0.86
0.16
0.62
0.18
0.47

> <PUBCHEM_SHAPE_SELFOVERLAP>
650.015

> <PUBCHEM_SHAPE_VOLUME>
175.1

> <PUBCHEM_COORDINATE_TYPE>
2
5
10

$$$$
