127850
  -OEChem-03292013323D

 41 43  0     1  0  0  0  0  0999 V2000
   -0.8629   -0.8249    0.3681 O   0  0  0  0  0  0  0  0  0  0  0  0
    0.6829   -1.2613    2.0285 O   0  0  0  0  0  0  0  0  0  0  0  0
    2.9588    3.3417    0.2943 O   0  0  0  0  0  0  0  0  0  0  0  0
    5.5834    2.5118   -0.0739 O   0  0  0  0  0  0  0  0  0  0  0  0
   -5.0505    2.5894   -0.4443 O   0  0  0  0  0  0  0  0  0  0  0  0
   -6.7610    0.5400   -1.2194 O   0  0  0  0  0  0  0  0  0  0  0  0
    1.7738   -2.6664   -0.2343 N   0  0  0  0  0  0  0  0  0  0  0  0
    1.3384   -1.2650   -0.2879 C   0  0  2  0  0  0  0  0  0  0  0  0
    2.4699   -0.2606   -0.2042 C   0  0  0  0  0  0  0  0  0  0  0  0
    4.1152   -2.1192   -0.6849 C   0  0  0  0  0  0  0  0  0  0  0  0
    3.7987   -0.6685   -0.4278 C   0  0  0  0  0  0  0  0  0  0  0  0
    2.8891   -2.9046   -1.1471 C   0  0  0  0  0  0  0  0  0  0  0  0
    2.2050    1.0999    0.0198 C   0  0  0  0  0  0  0  0  0  0  0  0
    4.8377    0.2705   -0.3673 C   0  0  0  0  0  0  0  0  0  0  0  0
    0.3763   -1.1237    0.8520 C   0  0  0  0  0  0  0  0  0  0  0  0
    3.2447    2.0293    0.0660 C   0  0  0  0  0  0  0  0  0  0  0  0
    4.5601    1.6142   -0.1218 C   0  0  0  0  0  0  0  0  0  0  0  0
   -1.8857   -0.6618    1.3557 C   0  0  0  0  0  0  0  0  0  0  0  0
   -3.1811   -0.3387    0.6707 C   0  0  0  0  0  0  0  0  0  0  0  0
   -3.5193    0.9878    0.4282 C   0  0  0  0  0  0  0  0  0  0  0  0
   -4.0315   -1.3690    0.2855 C   0  0  0  0  0  0  0  0  0  0  0  0
   -4.7239    1.2881   -0.2078 C   0  0  0  0  0  0  0  0  0  0  0  0
   -5.2360   -1.0688   -0.3505 C   0  0  0  0  0  0  0  0  0  0  0  0
   -5.5822    0.2598   -0.5972 C   0  0  0  0  0  0  0  0  0  0  0  0
    0.8187   -1.0953   -1.2405 H   0  0  0  0  0  0  0  0  0  0  0  0
    4.8956   -2.2011   -1.4508 H   0  0  0  0  0  0  0  0  0  0  0  0
    4.5085   -2.5550    0.2423 H   0  0  0  0  0  0  0  0  0  0  0  0
    2.6098   -2.6288   -2.1720 H   0  0  0  0  0  0  0  0  0  0  0  0
    3.1296   -3.9733   -1.1567 H   0  0  0  0  0  0  0  0  0  0  0  0
    0.9933   -3.2722   -0.4886 H   0  0  0  0  0  0  0  0  0  0  0  0
    1.1790    1.4345    0.1565 H   0  0  0  0  0  0  0  0  0  0  0  0
    5.8668   -0.0481   -0.5175 H   0  0  0  0  0  0  0  0  0  0  0  0
   -1.6091    0.1457    2.0451 H   0  0  0  0  0  0  0  0  0  0  0  0
   -1.9860   -1.5847    1.9407 H   0  0  0  0  0  0  0  0  0  0  0  0
    1.9975    3.4436    0.4011 H   0  0  0  0  0  0  0  0  0  0  0  0
    5.2099    3.3926    0.1038 H   0  0  0  0  0  0  0  0  0  0  0  0
   -2.8472    1.7871    0.7306 H   0  0  0  0  0  0  0  0  0  0  0  0
   -3.7706   -2.4072    0.4710 H   0  0  0  0  0  0  0  0  0  0  0  0
   -5.9000   -1.8744   -0.6519 H   0  0  0  0  0  0  0  0  0  0  0  0
   -4.3394    3.1611   -0.1074 H   0  0  0  0  0  0  0  0  0  0  0  0
   -6.8377    1.5059   -1.3087 H   0  0  0  0  0  0  0  0  0  0  0  0
  1 15  1  0  0  0  0
  1 18  1  0  0  0  0
  2 15  2  0  0  0  0
  3 16  1  0  0  0  0
  3 35  1  0  0  0  0
  4 17  1  0  0  0  0
  4 36  1  0  0  0  0
  5 22  1  0  0  0  0
  5 40  1  0  0  0  0
  6 24  1  0  0  0  0
  6 41  1  0  0  0  0
  7  8  1  0  0  0  0
  7 12  1  0  0  0  0
  7 30  1  0  0  0  0
  8  9  1  0  0  0  0
  8 15  1  0  0  0  0
  8 25  1  0  0  0  0
  9 11  1  0  0  0  0
  9 13  2  0  0  0  0
 10 11  1  0  0  0  0
 10 12  1  0  0  0  0
 10 26  1  0  0  0  0
 10 27  1  0  0  0  0
 11 14  2  0  0  0  0
 12 28  1  0  0  0  0
 12 29  1  0  0  0  0
 13 16  1  0  0  0  0
 13 31  1  0  0  0  0
 14 17  1  0  0  0  0
 14 32  1  0  0  0  0
 16 17  2  0  0  0  0
 18 19  1  0  0  0  0
 18 33  1  0  0  0  0
 18 34  1  0  0  0  0
 19 20  2  0  0  0  0
 19 21  1  0  0  0  0
 20 22  1  0  0  0  0
 20 37  1  0  0  0  0
 21 23  2  0  0  0  0
 21 38  1  0  0  0  0
 22 24  2  0  0  0  0
 23 24  1  0  0  0  0
 23 39  1  0  0  0  0
M  END
> <PUBCHEM_COMPOUND_CID>
127850

> <PUBCHEM_CONFORMER_RMSD>
0.8

> <PUBCHEM_CONFORMER_DIVERSEORDER>
24
123
185
117
150
10
132
7
72
189
14
115
4
86
167
120
168
146
114
176
130
33
66
44
74
101
119
13
16
5
177
94
149
145
166
116
156
126
2
191
148
196
56
83
49
127
34
15
129
3
81
160
6
153
179
122
80
69
27
133
35
48
57
184
1
82
63
45
61
100
26
93
197
92
30
178
171
91
55
161
90
11
195
159
29
21
118
138
143
88
128
125
147
180
165
144
139
65
182
134
107
173
187
23
152
169
64
112
40
131
43
95
17
188
52
89
8
186
36
97
67
108
172
183
22
175
9
73
181
121
28
39
19
31
163
62
111
99
25
42
12
104
84
79
158
75
109
105
51
77
110
151
68
41
54
124
70
157
174
71
37
194
78
162
50
96
192
190
58
137
142
53
32
106
98
140
87
103
135
102
18
38
164
154
136
141
20
85
113
76
155
46
170
193
59
60
47

> <PUBCHEM_MMFF94_PARTIAL_CHARGES>
34
1 -0.43
10 0.14
11 -0.14
12 0.27
13 -0.15
14 -0.15
15 0.66
16 0.08
17 0.08
18 0.42
19 -0.14
2 -0.57
20 -0.15
21 -0.15
22 0.08
23 -0.15
24 0.08
3 -0.53
30 0.36
31 0.15
32 0.15
35 0.45
36 0.45
37 0.15
38 0.15
39 0.15
4 -0.53
40 0.45
41 0.45
5 -0.53
6 -0.53
7 -0.9
8 0.47
9 -0.14

> <PUBCHEM_EFFECTIVE_ROTOR_COUNT>
4.8

> <PUBCHEM_PHARMACOPHORE_FEATURES>
10
1 2 acceptor
1 3 donor
1 4 donor
1 5 donor
1 6 donor
1 7 cation
1 7 donor
6 19 20 21 22 23 24 rings
6 7 8 9 10 11 12 rings
6 9 11 13 14 16 17 rings

> <PUBCHEM_HEAVY_ATOM_COUNT>
24

> <PUBCHEM_ATOM_DEF_STEREO_COUNT>
0

> <PUBCHEM_ATOM_UDEF_STEREO_COUNT>
1

> <PUBCHEM_BOND_DEF_STEREO_COUNT>
0

> <PUBCHEM_BOND_UDEF_STEREO_COUNT>
0

> <PUBCHEM_ISOTOPIC_ATOM_COUNT>
0

> <PUBCHEM_COMPONENT_COUNT>
1

> <PUBCHEM_CACTVS_TAUTO_COUNT>
180

> <PUBCHEM_CONFORMER_ID>
0001F36A00000018

> <PUBCHEM_MMFF94_ENERGY>
55.0706

> <PUBCHEM_FEATURE_SELFOVERLAP>
50.778

> <PUBCHEM_SHAPE_FINGERPRINT>
10411042 1 18052261688067986678
10595046 47 18343863321113871775
10693767 8 17774173280116578510
11069576 57 17273981237593221143
11089746 13 18114458972504846555
12403259 415 18187942693290426531
12633257 1 15285642126947436831
12730499 353 18410302436018676810
12769317 202 18342737455224103760
13402501 40 18260828219600212204
14251764 38 18115314500115524613
14528608 73 18412263951909096471
14681490 219 18412261710279793257
15003188 100 18335420205367654045
15183329 4 18340770355923113041
15961568 22 18113619022909882852
16989378 47 16628585522087171238
17844677 252 18341339894583258671
17980427 26 18114729500127384418
18335252 98 18338802321132479971
193927 3 13542457705306517855
20157964 124 18413108368075220479
20645477 70 18201728318809049150
21033648 29 17603595131628327163
21315763 129 18408884031489905906
21475661 188 18114181998970288536
21709351 56 18342740706298107918
21968339 14 18342449336091059672
221357 26 18411137991836002821
22289505 5 18411141307988280388
22950370 63 10231763296521092530
23522609 53 17417269692679258913
23559900 14 18199464381391444131
2838139 119 18337106890659378580
3004659 81 17916866803124413751
328310 1195 18411135835662076332
335352 9 18413113884052685254
34797466 226 18202290195194388607
4073 2 18187089489652902355
46194498 28 18342459188704053439
465052 167 7925642107071640560
495365 180 18200872980725246600
508706 21 17603585193190490805
5104073 3 18187370904621195843
5281201 14 18340494382757492431
59755656 215 18409171004663117692
6327066 14 18194683902930059212
6669772 16 17201340013703197504

> <PUBCHEM_SHAPE_MULTIPOLES>
453.71
14.8
3.08
1.06
15.38
0.83
-0.28
6.04
4.6
-3.77
0.44
0.46
-0.39
1.19

> <PUBCHEM_SHAPE_SELFOVERLAP>
986.833

> <PUBCHEM_SHAPE_VOLUME>
246.3

> <PUBCHEM_COORDINATE_TYPE>
2
5
10

$$$$
