127933
  -OEChem-03292013323D

 29 30  0     1  0  0  0  0  0999 V2000
   -3.1861   -0.0005    1.5053 O   0  0  0  0  0  0  0  0  0  0  0  0
    3.3005    1.7118   -0.1269 O   0  0  0  0  0  0  0  0  0  0  0  0
    2.7043   -1.0827   -0.1136 N   0  0  0  0  0  0  0  0  0  0  0  0
   -4.9111    0.2322   -0.7909 N   0  0  0  0  0  0  0  0  0  0  0  0
    1.6067    3.2188   -0.0267 N   0  0  0  0  0  0  0  0  0  0  0  0
   -1.2257    0.1291    0.1572 C   0  0  0  0  0  0  0  0  0  0  0  0
   -2.6736    0.4790    0.2554 C   0  0  1  0  0  0  0  0  0  0  0  0
    0.5257   -1.5400    0.0340 C   0  0  0  0  0  0  0  0  0  0  0  0
    1.4587   -0.5026   -0.0274 C   0  0  0  0  0  0  0  0  0  0  0  0
   -0.8425   -1.2167    0.1281 C   0  0  0  0  0  0  0  0  0  0  0  0
    1.0904    0.8472    0.0009 C   0  0  0  0  0  0  0  0  0  0  0  0
   -0.2724    1.1435    0.0946 C   0  0  0  0  0  0  0  0  0  0  0  0
   -3.4977   -0.1219   -0.8998 C   0  0  0  0  0  0  0  0  0  0  0  0
    1.2547   -2.7609   -0.0185 C   0  0  0  0  0  0  0  0  0  0  0  0
    2.5912   -2.4470   -0.1090 C   0  0  0  0  0  0  0  0  0  0  0  0
    2.0769    1.9106   -0.0628 C   0  0  0  0  0  0  0  0  0  0  0  0
   -2.8045    1.5684    0.2603 H   0  0  0  0  0  0  0  0  0  0  0  0
   -1.5768   -2.0147    0.1895 H   0  0  0  0  0  0  0  0  0  0  0  0
   -0.6442    2.1615    0.1227 H   0  0  0  0  0  0  0  0  0  0  0  0
   -3.4445   -1.2158   -0.8920 H   0  0  0  0  0  0  0  0  0  0  0  0
   -3.1083    0.2243   -1.8641 H   0  0  0  0  0  0  0  0  0  0  0  0
    3.5767   -0.5759   -0.1719 H   0  0  0  0  0  0  0  0  0  0  0  0
    0.8465   -3.7620    0.0071 H   0  0  0  0  0  0  0  0  0  0  0  0
    3.4706   -3.0724   -0.1704 H   0  0  0  0  0  0  0  0  0  0  0  0
   -4.1336    0.2170    1.5319 H   0  0  0  0  0  0  0  0  0  0  0  0
   -5.4133   -0.1309   -1.6000 H   0  0  0  0  0  0  0  0  0  0  0  0
   -5.0121    1.2459   -0.8229 H   0  0  0  0  0  0  0  0  0  0  0  0
    0.6382    3.5052    0.0297 H   0  0  0  0  0  0  0  0  0  0  0  0
    2.2723    3.9848   -0.0613 H   0  0  0  0  0  0  0  0  0  0  0  0
  1  7  1  0  0  0  0
  1 25  1  0  0  0  0
  2 16  2  0  0  0  0
  3  9  1  0  0  0  0
  3 15  1  0  0  0  0
  3 22  1  0  0  0  0
  4 13  1  0  0  0  0
  4 26  1  0  0  0  0
  4 27  1  0  0  0  0
  5 16  1  0  0  0  0
  5 28  1  0  0  0  0
  5 29  1  0  0  0  0
  6  7  1  0  0  0  0
  6 10  1  0  0  0  0
  6 12  2  0  0  0  0
  7 13  1  0  0  0  0
  7 17  1  0  0  0  0
  8  9  1  0  0  0  0
  8 10  2  0  0  0  0
  8 14  1  0  0  0  0
  9 11  2  0  0  0  0
 10 18  1  0  0  0  0
 11 12  1  0  0  0  0
 11 16  1  0  0  0  0
 12 19  1  0  0  0  0
 13 20  1  0  0  0  0
 13 21  1  0  0  0  0
 14 15  2  0  0  0  0
 14 23  1  0  0  0  0
 15 24  1  0  0  0  0
M  END
> <PUBCHEM_COMPOUND_CID>
127933

> <PUBCHEM_CONFORMER_RMSD>
0.6

> <PUBCHEM_CONFORMER_DIVERSEORDER>
2
13
20
7
16
9
10
6
23
19
1
22
21
14
18
11
15
5
8
3
24
4
12
17

> <PUBCHEM_MMFF94_PARTIAL_CHARGES>
25
1 -0.68
10 -0.15
11 0.09
12 -0.15
13 0.27
14 -0.15
15 -0.3
16 0.54
18 0.15
19 0.15
2 -0.57
22 0.27
23 0.15
24 0.15
25 0.4
26 0.36
27 0.36
28 0.37
29 0.37
3 0.03
4 -0.99
5 -0.8
6 -0.14
7 0.42
9 -0.15

> <PUBCHEM_EFFECTIVE_ROTOR_COUNT>
3

> <PUBCHEM_PHARMACOPHORE_FEATURES>
10
1 1 acceptor
1 1 donor
1 2 acceptor
1 3 cation
1 3 donor
1 4 cation
1 4 donor
1 5 donor
5 3 8 9 14 15 rings
6 6 8 9 10 11 12 rings

> <PUBCHEM_HEAVY_ATOM_COUNT>
16

> <PUBCHEM_ATOM_DEF_STEREO_COUNT>
0

> <PUBCHEM_ATOM_UDEF_STEREO_COUNT>
1

> <PUBCHEM_BOND_DEF_STEREO_COUNT>
0

> <PUBCHEM_BOND_UDEF_STEREO_COUNT>
0

> <PUBCHEM_ISOTOPIC_ATOM_COUNT>
0

> <PUBCHEM_COMPONENT_COUNT>
1

> <PUBCHEM_CACTVS_TAUTO_COUNT>
5

> <PUBCHEM_CONFORMER_ID>
0001F3BD00000002

> <PUBCHEM_MMFF94_ENERGY>
34.5119

> <PUBCHEM_FEATURE_SELFOVERLAP>
50.84

> <PUBCHEM_SHAPE_FINGERPRINT>
1 1 18338237179859059708
10967382 1 18410857659489027466
11471102 20 18410009922859535573
11680986 33 18410017662733877682
12138202 78 18335698308589198541
12553582 1 18122635954592092963
12654215 9 18261107448324305604
12730499 353 18336267955002990249
12759256 9 18340212899059075843
13134695 92 18264201422436766086
13140716 1 18338520866817755146
13380535 76 18336823216427037586
13897977 150 18337393845655273067
14181834 199 18410014312342661582
14250199 8 18411419488556224391
14251717 144 18411976953435638023
15219456 202 18187651327467964331
15442244 35 18125160433632111201
15477762 27 18341044112785960423
16945 1 18410580552251632706
17134986 127 18191869139734511092
18186145 218 18270694171795633685
193761 8 18194687188142060610
20645477 70 18410005521077486335
20671657 53 18196369226041476167
20715346 28 17894640274732230835
21029758 11 18265894657759345214
21499 59 18266455601836536381
21524375 3 18119808260009190952
21639500 275 18410846685805459885
22096605 113 18410005576832718853
22112679 90 17346321462428172313
221490 88 18408606980836542387
2255824 54 18413109454696730135
2334 1 18122911103276681130
23402539 116 18053374397417846774
23419403 2 17462249518959216086
23598291 2 17988090980412126749
25 1 18336543918845843228
257057 1 17832697976937213914
2748010 2 18193008229422375462
3060560 45 18338514239651711860
3071541 12 18411706486655337672
3071541 250 18195826080329897806
3071541 37 18335703866318941236
3091708 16 9256867001138691138
352729 6 18051137187549485080
474 4 18339358673055759441
6049 1 17822304457145141121
6992083 37 17625553289225766441
7364860 26 18412262826638058342
7615 1 17845938442383289921
77492 1 17775569715300897371
7832392 63 17980481153115068585
81228 2 17401206673156779040
81539 233 18187927326060744124
8272917 22 18412265021682974885
84936 182 18130220562099892737

> <PUBCHEM_SHAPE_MULTIPOLES>
302.59
5.95
2.93
0.8
7.04
0.61
-0.11
0.17
0.93
-3.7
0.09
0.69
-0.04
-0.04

> <PUBCHEM_SHAPE_SELFOVERLAP>
655.815

> <PUBCHEM_SHAPE_VOLUME>
166.6

> <PUBCHEM_COORDINATE_TYPE>
2
5
10

$$$$
