12797285
  -OEChem-03292013303D

 56 57  0     1  0  0  0  0  0999 V2000
    1.4126   -2.5178   -0.6892 S   0  0  0  0  0  0  0  0  0  0  0  0
   -0.0264   -3.9836   -0.6653 S   0  0  0  0  0  0  0  0  0  0  0  0
    1.7858    0.1962    1.7468 O   0  0  0  0  0  0  0  0  0  0  0  0
   -4.1710   -1.4927   -0.8106 O   0  0  0  0  0  0  0  0  0  0  0  0
    1.1774    3.2365   -0.5367 O   0  0  0  0  0  0  0  0  0  0  0  0
   -5.7117    1.8409    0.3474 O   0  0  0  0  0  0  0  0  0  0  0  0
    1.3975    1.2754   -1.6775 O   0  0  0  0  0  0  0  0  0  0  0  0
   -3.8507    2.1019   -0.9426 O   0  0  0  0  0  0  0  0  0  0  0  0
    3.3516    0.5338    0.0761 N   0  0  0  0  0  0  0  0  0  0  0  0
   -2.7434   -0.0552    0.3082 N   0  0  0  0  0  0  0  0  0  0  0  0
    3.1000    1.9579   -0.1025 C   0  0  1  0  0  0  0  0  0  0  0  0
   -3.7771    0.6879    1.0169 C   0  0  1  0  0  0  0  0  0  0  0  0
    4.2913    2.4635   -0.9078 C   0  0  0  0  0  0  0  0  0  0  0  0
   -3.0292    1.4514    2.1037 C   0  0  0  0  0  0  0  0  0  0  0  0
    4.7141    1.2423   -1.7209 C   0  0  0  0  0  0  0  0  0  0  0  0
   -1.6452    1.6680    1.4967 C   0  0  0  0  0  0  0  0  0  0  0  0
    4.4521    0.0827   -0.7718 C   0  0  0  0  0  0  0  0  0  0  0  0
   -1.4097    0.3939    0.6997 C   0  0  0  0  0  0  0  0  0  0  0  0
    2.7128   -0.2189    1.0493 C   0  0  0  0  0  0  0  0  0  0  0  0
   -3.0308   -1.1433   -0.5010 C   0  0  0  0  0  0  0  0  0  0  0  0
    3.2173   -1.6303    1.2141 C   0  0  2  0  0  0  0  0  0  0  0  0
   -1.8348   -1.9039   -1.0156 C   0  0  1  0  0  0  0  0  0  0  0  0
    1.8166    2.0874   -0.8662 C   0  0  0  0  0  0  0  0  0  0  0  0
   -4.4149    1.6133    0.0250 C   0  0  0  0  0  0  0  0  0  0  0  0
    2.0980   -2.6462    0.9800 C   0  0  0  0  0  0  0  0  0  0  0  0
   -1.4776   -3.0546   -0.0776 C   0  0  0  0  0  0  0  0  0  0  0  0
    3.7787   -1.7632    2.6271 C   0  0  0  0  0  0  0  0  0  0  0  0
   -2.1834   -2.4233   -2.4054 C   0  0  0  0  0  0  0  0  0  0  0  0
    3.0029    2.4394    0.8763 H   0  0  0  0  0  0  0  0  0  0  0  0
   -4.5241   -0.0084    1.4129 H   0  0  0  0  0  0  0  0  0  0  0  0
    4.0603    3.3239   -1.5432 H   0  0  0  0  0  0  0  0  0  0  0  0
    5.1053    2.7451   -0.2287 H   0  0  0  0  0  0  0  0  0  0  0  0
   -3.5076    2.3930    2.3894 H   0  0  0  0  0  0  0  0  0  0  0  0
   -2.9369    0.8258    2.9998 H   0  0  0  0  0  0  0  0  0  0  0  0
    5.7562    1.2894   -2.0489 H   0  0  0  0  0  0  0  0  0  0  0  0
    4.0823    1.1507   -2.6123 H   0  0  0  0  0  0  0  0  0  0  0  0
   -0.8715    1.8406    2.2500 H   0  0  0  0  0  0  0  0  0  0  0  0
   -1.6630    2.5351    0.8258 H   0  0  0  0  0  0  0  0  0  0  0  0
    5.3212   -0.1071   -0.1325 H   0  0  0  0  0  0  0  0  0  0  0  0
    4.1867   -0.8284   -1.3146 H   0  0  0  0  0  0  0  0  0  0  0  0
   -0.9519   -0.3833    1.3189 H   0  0  0  0  0  0  0  0  0  0  0  0
   -0.7848    0.5844   -0.1746 H   0  0  0  0  0  0  0  0  0  0  0  0
    4.0375   -1.8753    0.5374 H   0  0  0  0  0  0  0  0  0  0  0  0
   -1.0023   -1.2137   -1.1522 H   0  0  0  0  0  0  0  0  0  0  0  0
    1.2882   -2.4875    1.7015 H   0  0  0  0  0  0  0  0  0  0  0  0
    2.4884   -3.6597    1.1253 H   0  0  0  0  0  0  0  0  0  0  0  0
   -2.3146   -3.7583    0.0011 H   0  0  0  0  0  0  0  0  0  0  0  0
   -1.2837   -2.6981    0.9395 H   0  0  0  0  0  0  0  0  0  0  0  0
    4.5777   -1.0333    2.7991 H   0  0  0  0  0  0  0  0  0  0  0  0
    4.1957   -2.7632    2.7875 H   0  0  0  0  0  0  0  0  0  0  0  0
    3.0080   -1.5947    3.3878 H   0  0  0  0  0  0  0  0  0  0  0  0
   -1.3036   -2.7973   -2.9383 H   0  0  0  0  0  0  0  0  0  0  0  0
   -2.6061   -1.6245   -3.0271 H   0  0  0  0  0  0  0  0  0  0  0  0
   -2.9231   -3.2315   -2.3677 H   0  0  0  0  0  0  0  0  0  0  0  0
    0.3324    3.3381   -1.0244 H   0  0  0  0  0  0  0  0  0  0  0  0
   -6.1469    2.4463   -0.2900 H   0  0  0  0  0  0  0  0  0  0  0  0
  1  2  1  0  0  0  0
  1 25  1  0  0  0  0
  2 26  1  0  0  0  0
  3 19  2  0  0  0  0
  4 20  2  0  0  0  0
  5 23  1  0  0  0  0
  5 55  1  0  0  0  0
  6 24  1  0  0  0  0
  6 56  1  0  0  0  0
  7 23  2  0  0  0  0
  8 24  2  0  0  0  0
  9 11  1  0  0  0  0
  9 17  1  0  0  0  0
  9 19  1  0  0  0  0
 10 12  1  0  0  0  0
 10 18  1  0  0  0  0
 10 20  1  0  0  0  0
 11 13  1  0  0  0  0
 11 23  1  0  0  0  0
 11 29  1  0  0  0  0
 12 14  1  0  0  0  0
 12 24  1  0  0  0  0
 12 30  1  0  0  0  0
 13 15  1  0  0  0  0
 13 31  1  0  0  0  0
 13 32  1  0  0  0  0
 14 16  1  0  0  0  0
 14 33  1  0  0  0  0
 14 34  1  0  0  0  0
 15 17  1  0  0  0  0
 15 35  1  0  0  0  0
 15 36  1  0  0  0  0
 16 18  1  0  0  0  0
 16 37  1  0  0  0  0
 16 38  1  0  0  0  0
 17 39  1  0  0  0  0
 17 40  1  0  0  0  0
 18 41  1  0  0  0  0
 18 42  1  0  0  0  0
 19 21  1  0  0  0  0
 20 22  1  0  0  0  0
 21 25  1  0  0  0  0
 21 27  1  0  0  0  0
 21 43  1  0  0  0  0
 22 26  1  0  0  0  0
 22 28  1  0  0  0  0
 22 44  1  0  0  0  0
 25 45  1  0  0  0  0
 25 46  1  0  0  0  0
 26 47  1  0  0  0  0
 26 48  1  0  0  0  0
 27 49  1  0  0  0  0
 27 50  1  0  0  0  0
 27 51  1  0  0  0  0
 28 52  1  0  0  0  0
 28 53  1  0  0  0  0
 28 54  1  0  0  0  0
M  END
> <PUBCHEM_COMPOUND_CID>
12797285

> <PUBCHEM_CONFORMER_RMSD>
1.6

> <PUBCHEM_CONFORMER_DIVERSEORDER>
2
18
19
5
32
80
9
69
101
3
83
44
16
51
107
89
106
33
35
67
43
84
11
100
1
93
82
57
6
28
77
65
55
34
103
4
21
79
37
25
20
22
41
14
74
59
50
10
94
92
45
12
52
62
26
54
13
75
56
102
95
27
63
72
90
76
81
98
36
29
8
30
96
88
61
39
68
104
66
48
99
71
47
58
64
85
73
42
78
60
17
15
105
70
49
53
23
40
31
91
38
7
97
46
87
86
24

> <PUBCHEM_MMFF94_PARTIAL_CHARGES>
24
1 -0.23
10 -0.66
11 0.36
12 0.36
17 0.3
18 0.3
19 0.57
2 -0.23
20 0.57
21 0.06
22 0.06
23 0.66
24 0.66
25 0.23
26 0.23
3 -0.57
4 -0.57
5 -0.65
55 0.5
56 0.5
6 -0.65
7 -0.57
8 -0.57
9 -0.66

> <PUBCHEM_EFFECTIVE_ROTOR_COUNT>
13

> <PUBCHEM_PHARMACOPHORE_FEATURES>
14
1 27 hydrophobe
1 28 hydrophobe
1 3 acceptor
1 4 acceptor
1 5 acceptor
1 6 acceptor
1 7 acceptor
1 8 acceptor
3 1 21 25 hydrophobe
3 2 22 26 hydrophobe
3 5 7 23 anion
3 6 8 24 anion
5 10 12 14 16 18 rings
5 9 11 13 15 17 rings

> <PUBCHEM_HEAVY_ATOM_COUNT>
28

> <PUBCHEM_ATOM_DEF_STEREO_COUNT>
0

> <PUBCHEM_ATOM_UDEF_STEREO_COUNT>
4

> <PUBCHEM_BOND_DEF_STEREO_COUNT>
0

> <PUBCHEM_BOND_UDEF_STEREO_COUNT>
0

> <PUBCHEM_ISOTOPIC_ATOM_COUNT>
0

> <PUBCHEM_COMPONENT_COUNT>
1

> <PUBCHEM_CACTVS_TAUTO_COUNT>
1

> <PUBCHEM_CONFORMER_ID>
00C3456500000002

> <PUBCHEM_MMFF94_ENERGY>
54.116

> <PUBCHEM_FEATURE_SELFOVERLAP>
71.255

> <PUBCHEM_SHAPE_FINGERPRINT>
10369192 42 16155143657829517180
10670039 82 18272090551758244302
10708813 3 18336263552086570764
12633257 1 18041832922513344474
12788726 201 18127967723083502047
13583140 156 18114478837293073713
14117953 113 18122898729280683974
14251751 93 18199483214870119998
14251757 17 17343820107818818638
14289585 56 18041571230625225204
15297060 5 17988933266649311170
16752209 62 18130502049913765663
17921350 177 17680410174856104670
20511986 3 18410845586304920696
20715895 44 18050838924057654981
20764821 26 17905609904173436140
21864079 5 18411419552743889622
22393880 68 18341053020680059460
23558518 356 17903926904533142132
23559900 14 17774166690702601478
3052486 1 18201714076776356986
338550 245 18271237227423915651
445580 8 18408885105674848090
469060 322 16590560247537478451
474 4 18339362946727859475
474144 1 18408316670953446010
5048184 11 18411141358952959301
5895379 119 18199180879738529362
5951187 136 15265088766994744289
6287921 2 17914342281598582327
7064713 232 18200861882007767778

> <PUBCHEM_SHAPE_MULTIPOLES>
538.75
9.93
4.38
2.03
2.77
2.35
0.51
-5.8
-0.39
0.07
-1.1
-0.96
0.38
-3.38

> <PUBCHEM_SHAPE_SELFOVERLAP>
1076.245

> <PUBCHEM_SHAPE_VOLUME>
322.2

> <PUBCHEM_COORDINATE_TYPE>
2
5
10

$$$$
