127945
  -OEChem-03292013323D

 29 30  0     0  0  0  0  0  0999 V2000
   -3.6266   -1.0778    0.4309 O   0  0  0  0  0  0  0  0  0  0  0  0
    0.7848   -2.6738   -0.3953 O   0  0  0  0  0  0  0  0  0  0  0  0
    4.2775    0.2766   -0.8687 O   0  0  0  0  0  0  0  0  0  0  0  0
    1.7455   -0.1092   -0.6301 N   0  0  0  0  0  0  0  0  0  0  0  0
    2.3786   -0.0257    0.4439 N   0  0  0  0  0  0  0  0  0  0  0  0
    4.4359    0.2746    1.4040 N   0  0  0  0  0  0  0  0  0  0  0  0
   -1.8636    0.5192    0.0599 C   0  0  0  0  0  0  0  0  0  0  0  0
   -0.4969    0.7681   -0.2104 C   0  0  0  0  0  0  0  0  0  0  0  0
   -1.4244   -1.8734    0.0184 C   0  0  0  0  0  0  0  0  0  0  0  0
   -2.3115   -0.8073    0.1711 C   0  0  0  0  0  0  0  0  0  0  0  0
    0.3818   -0.3171   -0.3612 C   0  0  0  0  0  0  0  0  0  0  0  0
   -0.0802   -1.6287   -0.2470 C   0  0  0  0  0  0  0  0  0  0  0  0
   -2.7425    1.6042    0.2105 C   0  0  0  0  0  0  0  0  0  0  0  0
   -0.0494    2.0945   -0.3218 C   0  0  0  0  0  0  0  0  0  0  0  0
   -1.9161   -3.2805    0.1409 C   0  0  0  0  0  0  0  0  0  0  0  0
   -2.2805    2.9157    0.0969 C   0  0  0  0  0  0  0  0  0  0  0  0
   -0.9365    3.1604   -0.1689 C   0  0  0  0  0  0  0  0  0  0  0  0
    3.7242    0.1804    0.2271 C   0  0  0  0  0  0  0  0  0  0  0  0
   -3.7973    1.4735    0.4352 H   0  0  0  0  0  0  0  0  0  0  0  0
    0.9912    2.3299   -0.5326 H   0  0  0  0  0  0  0  0  0  0  0  0
   -1.9140   -3.5866    1.1919 H   0  0  0  0  0  0  0  0  0  0  0  0
   -2.9319   -3.3867   -0.2550 H   0  0  0  0  0  0  0  0  0  0  0  0
   -1.2992   -3.9843   -0.4274 H   0  0  0  0  0  0  0  0  0  0  0  0
   -2.9694    3.7465    0.2193 H   0  0  0  0  0  0  0  0  0  0  0  0
   -0.5777    4.1817   -0.2574 H   0  0  0  0  0  0  0  0  0  0  0  0
   -4.1914   -0.3946    0.0367 H   0  0  0  0  0  0  0  0  0  0  0  0
    1.6718   -2.3158   -0.5732 H   0  0  0  0  0  0  0  0  0  0  0  0
    3.9780    0.1951    2.3056 H   0  0  0  0  0  0  0  0  0  0  0  0
    5.4389    0.4264    1.4036 H   0  0  0  0  0  0  0  0  0  0  0  0
  1 10  1  0  0  0  0
  1 26  1  0  0  0  0
  2 12  1  0  0  0  0
  2 27  1  0  0  0  0
  3 18  2  0  0  0  0
  4  5  2  0  0  0  0
  4 11  1  0  0  0  0
  5 18  1  0  0  0  0
  6 18  1  0  0  0  0
  6 28  1  0  0  0  0
  6 29  1  0  0  0  0
  7  8  1  0  0  0  0
  7 10  1  0  0  0  0
  7 13  2  0  0  0  0
  8 11  1  0  0  0  0
  8 14  2  0  0  0  0
  9 10  2  0  0  0  0
  9 12  1  0  0  0  0
  9 15  1  0  0  0  0
 11 12  2  0  0  0  0
 13 16  1  0  0  0  0
 13 19  1  0  0  0  0
 14 17  1  0  0  0  0
 14 20  1  0  0  0  0
 15 21  1  0  0  0  0
 15 22  1  0  0  0  0
 15 23  1  0  0  0  0
 16 17  2  0  0  0  0
 16 24  1  0  0  0  0
 17 25  1  0  0  0  0
M  END
> <PUBCHEM_COMPOUND_CID>
127945

> <PUBCHEM_CONFORMER_RMSD>
0.6

> <PUBCHEM_CONFORMER_DIVERSEORDER>
1
2
5
3
4

> <PUBCHEM_MMFF94_PARTIAL_CHARGES>
24
1 -0.53
10 0.08
11 0.18
12 0.08
13 -0.15
14 -0.15
15 0.14
16 -0.15
17 -0.15
18 0.84
19 0.15
2 -0.53
20 0.15
24 0.15
25 0.15
26 0.45
27 0.45
28 0.37
29 0.37
3 -0.57
4 -0.18
5 -0.21
6 -0.8
9 -0.14

> <PUBCHEM_EFFECTIVE_ROTOR_COUNT>
2

> <PUBCHEM_PHARMACOPHORE_FEATURES>
7
1 1 donor
1 2 donor
1 3 acceptor
1 5 donor
1 6 donor
6 7 8 13 14 16 17 rings
6 7 8 9 10 11 12 rings

> <PUBCHEM_HEAVY_ATOM_COUNT>
18

> <PUBCHEM_ATOM_DEF_STEREO_COUNT>
0

> <PUBCHEM_ATOM_UDEF_STEREO_COUNT>
0

> <PUBCHEM_BOND_DEF_STEREO_COUNT>
0

> <PUBCHEM_BOND_UDEF_STEREO_COUNT>
1

> <PUBCHEM_ISOTOPIC_ATOM_COUNT>
0

> <PUBCHEM_COMPONENT_COUNT>
1

> <PUBCHEM_CACTVS_TAUTO_COUNT>
33

> <PUBCHEM_CONFORMER_ID>
0001F3C900000001

> <PUBCHEM_MMFF94_ENERGY>
53.2302

> <PUBCHEM_FEATURE_SELFOVERLAP>
35.602

> <PUBCHEM_SHAPE_FINGERPRINT>
10319926 262 18269531933277971200
10411042 1 17978514457177832118
10493431 412 18269847415131244745
10906281 52 18338534009739511869
10967382 1 16824467688750968015
1100329 8 18192998338497879843
11132069 177 18412826876029507816
12173636 292 18266734693059029020
12553582 1 18193565681585796231
13027679 85 18265895937775624669
13140716 1 18122915488733761243
14420673 8 17832132837289658698
14614273 12 18188485744929442925
14790565 3 18266481908896865709
15042514 8 18409169943321301467
16110190 28 17685747174993143378
16945 1 18338529615771683775
193761 8 18050008783835068335
20510252 161 18342741792845543608
20871998 184 18412266125178294485
21029758 11 18340480188164697493
21029758 27 18189065350807930349
21501502 16 18195241105504581567
21524375 3 17983003466832180148
21650355 55 18265604558324728626
22182313 1 18266756688045234359
2297311 6 18340220673545591078
2334 1 17762907966986692463
23366157 5 17826242795932084406
23402539 116 18342728650757353295
23419403 2 17270572988249564915
23557571 272 18272385173903907804
23559900 14 18270972250381284294
23598294 1 18335414647537340632
257057 1 17978784941622635591
2748010 2 18341338854710478423
3071541 12 17403460671925180317
3091708 16 9201123964596159931
350125 39 17978239261453032662
43471831 8 18335137540490050922
58807428 26 18192151499336951595
7097593 13 17970610906342319378
7364860 26 17403455169987645653
77492 1 17676210199620711534
81228 2 18339374027516071043
84936 182 17479164267922537848
90316 7 18337104665554816808

> <PUBCHEM_SHAPE_MULTIPOLES>
337.88
5.85
3.63
0.78
7.81
0.19
-0.08
-0.7
-1.26
-3.37
0.13
0.54
-0.04
0.19

> <PUBCHEM_SHAPE_SELFOVERLAP>
741.257

> <PUBCHEM_SHAPE_VOLUME>
183.8

> <PUBCHEM_COORDINATE_TYPE>
2
5
10

$$$$
