127969
  -OEChem-03292013323D

 38 39  0     0  0  0  0  0  0999 V2000
    0.6399    1.8335   -1.0275 O   0  0  0  0  0  0  0  0  0  0  0  0
    1.0284   -2.8215   -0.5848 O   0  0  0  0  0  0  0  0  0  0  0  0
   -1.3442   -1.1618    0.7828 O   0  0  0  0  0  0  0  0  0  0  0  0
   -5.1190    0.4340   -0.1857 O   0  0  0  0  0  0  0  0  0  0  0  0
   -3.8404   -0.4961    1.4917 O   0  0  0  0  0  0  0  0  0  0  0  0
    0.8114   -0.5005   -0.8163 N   0  0  0  0  0  0  0  0  0  0  0  0
    2.7910   -1.4977    0.1599 N   0  0  0  0  0  0  0  0  0  0  0  0
    3.3528    1.9591    0.2265 N   0  0  0  0  0  0  0  0  0  0  0  0
    4.4862    0.1453    0.8554 N   0  0  0  0  0  0  0  0  0  0  0  0
    2.5625    0.8890   -0.0813 C   0  0  0  0  0  0  0  0  0  0  0  0
    3.2793   -0.2074    0.3138 C   0  0  0  0  0  0  0  0  0  0  0  0
    1.2681    0.8374   -0.6796 C   0  0  0  0  0  0  0  0  0  0  0  0
   -0.5055   -0.6838   -1.4173 C   0  0  0  0  0  0  0  0  0  0  0  0
    1.5142   -1.6963   -0.4229 C   0  0  0  0  0  0  0  0  0  0  0  0
    4.4998    1.4605    0.7881 C   0  0  0  0  0  0  0  0  0  0  0  0
    3.5921   -2.6346    0.5964 C   0  0  0  0  0  0  0  0  0  0  0  0
   -1.5577   -0.6735   -0.3262 C   0  0  0  0  0  0  0  0  0  0  0  0
    3.0617    3.3566    0.0134 C   0  0  0  0  0  0  0  0  0  0  0  0
   -2.9095   -0.1105   -0.7235 C   0  0  0  0  0  0  0  0  0  0  0  0
   -3.9779   -0.1037    0.3419 C   0  0  0  0  0  0  0  0  0  0  0  0
   -6.2285    0.5306    0.7135 C   0  0  0  0  0  0  0  0  0  0  0  0
   -7.4046    1.1414   -0.0182 C   0  0  0  0  0  0  0  0  0  0  0  0
   -0.7053    0.1286   -2.1231 H   0  0  0  0  0  0  0  0  0  0  0  0
   -0.5709   -1.6348   -1.9544 H   0  0  0  0  0  0  0  0  0  0  0  0
    5.3053    2.0977    1.1273 H   0  0  0  0  0  0  0  0  0  0  0  0
    4.5392   -2.6336    0.0481 H   0  0  0  0  0  0  0  0  0  0  0  0
    3.0789   -3.5818    0.4120 H   0  0  0  0  0  0  0  0  0  0  0  0
    3.7865   -2.5417    1.6693 H   0  0  0  0  0  0  0  0  0  0  0  0
    3.8990    3.9625    0.3691 H   0  0  0  0  0  0  0  0  0  0  0  0
    2.9158    3.5205   -1.0571 H   0  0  0  0  0  0  0  0  0  0  0  0
    2.1580    3.6111    0.5725 H   0  0  0  0  0  0  0  0  0  0  0  0
   -2.7508    0.9257   -1.0421 H   0  0  0  0  0  0  0  0  0  0  0  0
   -3.2770   -0.7083   -1.5646 H   0  0  0  0  0  0  0  0  0  0  0  0
   -6.4951   -0.4694    1.0732 H   0  0  0  0  0  0  0  0  0  0  0  0
   -5.9539    1.1626    1.5655 H   0  0  0  0  0  0  0  0  0  0  0  0
   -8.2723    1.2302    0.6413 H   0  0  0  0  0  0  0  0  0  0  0  0
   -7.1472    2.1349   -0.3998 H   0  0  0  0  0  0  0  0  0  0  0  0
   -7.6795    0.5299   -0.8840 H   0  0  0  0  0  0  0  0  0  0  0  0
  1 12  2  0  0  0  0
  2 14  2  0  0  0  0
  3 17  2  0  0  0  0
  4 20  1  0  0  0  0
  4 21  1  0  0  0  0
  5 20  2  0  0  0  0
  6 12  1  0  0  0  0
  6 13  1  0  0  0  0
  6 14  1  0  0  0  0
  7 11  1  0  0  0  0
  7 14  1  0  0  0  0
  7 16  1  0  0  0  0
  8 10  1  0  0  0  0
  8 15  1  0  0  0  0
  8 18  1  0  0  0  0
  9 11  1  0  0  0  0
  9 15  2  0  0  0  0
 10 11  2  0  0  0  0
 10 12  1  0  0  0  0
 13 17  1  0  0  0  0
 13 23  1  0  0  0  0
 13 24  1  0  0  0  0
 15 25  1  0  0  0  0
 16 26  1  0  0  0  0
 16 27  1  0  0  0  0
 16 28  1  0  0  0  0
 17 19  1  0  0  0  0
 18 29  1  0  0  0  0
 18 30  1  0  0  0  0
 18 31  1  0  0  0  0
 19 20  1  0  0  0  0
 19 32  1  0  0  0  0
 19 33  1  0  0  0  0
 21 22  1  0  0  0  0
 21 34  1  0  0  0  0
 21 35  1  0  0  0  0
 22 36  1  0  0  0  0
 22 37  1  0  0  0  0
 22 38  1  0  0  0  0
M  END
> <PUBCHEM_COMPOUND_CID>
127969

> <PUBCHEM_CONFORMER_RMSD>
0.8

> <PUBCHEM_CONFORMER_DIVERSEORDER>
1
14
45
57
63
92
98
59
101
71
83
102
70
38
117
87
74
88
51
6
122
100
153
19
79
66
104
148
77
16
24
143
50
107
18
4
80
147
140
73
108
151
129
113
54
126
53
133
78
154
94
55
97
119
46
22
43
91
20
26
81
9
152
15
12
142
136
33
42
139
131
60
64
109
3
112
138
103
5
10
76
93
125
2
56
118
62
34
49
86
96
85
82
35
58
141
134
32
137
115
48
95
120
128
61
155
145
17
127
124
75
114
69
111
72
99
39
23
8
37
30
41
132
31
28
135
89
149
11
150
52
47
40
67
116
44
27
84
123
110
29
90
25
68
146
7
65
121
13
106
105
21
36
144
130

> <PUBCHEM_MMFF94_PARTIAL_CHARGES>
22
1 -0.57
10 -0.24
11 0.29
12 0.71
13 0.36
14 0.69
15 0.04
16 0.3
17 0.45
18 0.26
19 0.12
2 -0.57
20 0.66
21 0.28
25 0.15
3 -0.57
4 -0.43
5 -0.57
6 -0.42
7 -0.42
8 0.05
9 -0.57

> <PUBCHEM_EFFECTIVE_ROTOR_COUNT>
6

> <PUBCHEM_PHARMACOPHORE_FEATURES>
8
1 1 acceptor
1 19 anion
1 2 acceptor
1 3 acceptor
1 5 acceptor
3 8 9 15 cation
5 8 9 10 11 15 rings
6 6 7 10 11 12 14 rings

> <PUBCHEM_HEAVY_ATOM_COUNT>
22

> <PUBCHEM_ATOM_DEF_STEREO_COUNT>
0

> <PUBCHEM_ATOM_UDEF_STEREO_COUNT>
0

> <PUBCHEM_BOND_DEF_STEREO_COUNT>
0

> <PUBCHEM_BOND_UDEF_STEREO_COUNT>
0

> <PUBCHEM_ISOTOPIC_ATOM_COUNT>
0

> <PUBCHEM_COMPONENT_COUNT>
1

> <PUBCHEM_CACTVS_TAUTO_COUNT>
5

> <PUBCHEM_CONFORMER_ID>
0001F3E100000001

> <PUBCHEM_MMFF94_ENERGY>
31.2315

> <PUBCHEM_FEATURE_SELFOVERLAP>
40.719

> <PUBCHEM_SHAPE_FINGERPRINT>
10411042 1 17907861704604858046
10670039 82 16415216549831114241
10688039 33 18040716922896691269
11640471 11 17846223305540518558
11724838 91 18343299306166907639
11961588 58 14907891717095472336
12236239 1 17774996908060162199
12390115 104 17761782058769931892
12633257 1 17603861268765153329
13140716 1 18119796166056414834
13167372 99 18200033924720973633
13533116 47 18262238816083491651
13675066 3 17967532376626098519
13785724 45 17767410075886644679
13878862 14 18268126735294678549
14223995 32 17317875864421806773
14251764 75 18121502620160534748
14790565 3 17684659014420585124
15183329 4 9079127648564680399
15188451 53 16806175496732477635
15348495 7 18186808002307819481
15475509 35 16805871884945859946
15475509 84 18199182880650354272
15527383 91 18335984181791846254
16945 1 18192969691440224118
17810953 82 18411702109872958868
1813 80 17628934339432878838
19377110 9 18060147578730130035
19784866 240 12107780788077742317
20157964 124 18342176644702095455
20388580 30 8142091961161279871
21315764 268 18334854970966683789
21452121 103 18336546032581539445
21859007 373 17387117699422013197
23184049 59 18410290320084519014
23559900 14 17676498228216992523
2748010 2 18050821379374278734
3472631 163 16271633589865380160
34797466 226 13830126226689723265
351380 180 18335422357599754881
351380 3 12685085995265552657
4340502 62 18335425673298930307
474 4 18342740744899832011
5104073 3 18189609604504994747
633830 44 18199750426471535180
7970288 3 8141270626071251456
8272917 22 18342459231421545998

> <PUBCHEM_SHAPE_MULTIPOLES>
403.48
13.13
2.69
1.04
26.89
0.39
0.02
5.53
-4.14
-4.31
0.03
0.24
-0.1
0

> <PUBCHEM_SHAPE_SELFOVERLAP>
846.968

> <PUBCHEM_SHAPE_VOLUME>
228.3

> <PUBCHEM_COORDINATE_TYPE>
2
5
10

$$$$
