127991
  -OEChem-03292013323D

 29 29  0     0  0  0  0  0  0999 V2000
   -2.6715    1.4216    0.1606 S   0  0  0  0  0  0  0  0  0  0  0  0
   -2.1388    0.2632   -0.8769 O   0  0  0  0  0  0  0  0  0  0  0  0
   -2.5045   -2.1182    0.5081 O   0  0  0  0  0  0  0  0  0  0  0  0
   -4.0197    1.9986   -0.5565 O   0  0  0  0  0  0  0  0  0  0  0  0
   -3.0640    0.7939    1.4089 O   0  0  0  0  0  0  0  0  0  0  0  0
   -1.6914    2.4922    0.1651 O   0  0  0  0  0  0  0  0  0  0  0  0
    4.6551    0.9298   -0.1330 N   0  0  0  0  0  0  0  0  0  0  0  0
    2.6963   -0.4031   -0.8537 C   0  0  0  0  0  0  0  0  0  0  0  0
    1.3207   -0.8537   -0.4953 C   0  0  0  0  0  0  0  0  0  0  0  0
    3.3204    0.4744    0.2408 C   0  0  0  0  0  0  0  0  0  0  0  0
    0.2175   -0.0795   -0.8551 C   0  0  0  0  0  0  0  0  0  0  0  0
    1.1372   -2.0489    0.2001 C   0  0  0  0  0  0  0  0  0  0  0  0
   -1.0693   -0.5007   -0.5194 C   0  0  0  0  0  0  0  0  0  0  0  0
   -1.2526   -1.6960    0.1759 C   0  0  0  0  0  0  0  0  0  0  0  0
   -0.1495   -2.4700    0.5358 C   0  0  0  0  0  0  0  0  0  0  0  0
    5.2139    1.7964    0.8946 C   0  0  0  0  0  0  0  0  0  0  0  0
    3.3350   -1.2767   -1.0416 H   0  0  0  0  0  0  0  0  0  0  0  0
    2.6660    0.1472   -1.8037 H   0  0  0  0  0  0  0  0  0  0  0  0
    3.3738   -0.0984    1.1754 H   0  0  0  0  0  0  0  0  0  0  0  0
    2.6689    1.3385    0.4253 H   0  0  0  0  0  0  0  0  0  0  0  0
    0.3553    0.8528   -1.3975 H   0  0  0  0  0  0  0  0  0  0  0  0
    1.9888   -2.6599    0.4878 H   0  0  0  0  0  0  0  0  0  0  0  0
   -0.2781   -3.4031    1.0779 H   0  0  0  0  0  0  0  0  0  0  0  0
    4.6074    1.4393   -1.0149 H   0  0  0  0  0  0  0  0  0  0  0  0
    5.3069    1.2702    1.8503 H   0  0  0  0  0  0  0  0  0  0  0  0
    4.6055    2.6954    1.0381 H   0  0  0  0  0  0  0  0  0  0  0  0
    6.2177    2.1146    0.5962 H   0  0  0  0  0  0  0  0  0  0  0  0
   -2.4375   -2.9627    0.9858 H   0  0  0  0  0  0  0  0  0  0  0  0
   -3.9319    2.2002   -1.5177 H   0  0  0  0  0  0  0  0  0  0  0  0
  1  2  1  0  0  0  0
  1  4  1  0  0  0  0
  1  5  2  0  0  0  0
  1  6  2  0  0  0  0
  2 13  1  0  0  0  0
  3 14  1  0  0  0  0
  3 28  1  0  0  0  0
  4 29  1  0  0  0  0
  7 10  1  0  0  0  0
  7 16  1  0  0  0  0
  7 24  1  0  0  0  0
  8  9  1  0  0  0  0
  8 10  1  0  0  0  0
  8 17  1  0  0  0  0
  8 18  1  0  0  0  0
  9 11  2  0  0  0  0
  9 12  1  0  0  0  0
 10 19  1  0  0  0  0
 10 20  1  0  0  0  0
 11 13  1  0  0  0  0
 11 21  1  0  0  0  0
 12 15  2  0  0  0  0
 12 22  1  0  0  0  0
 13 14  2  0  0  0  0
 14 15  1  0  0  0  0
 15 23  1  0  0  0  0
 16 25  1  0  0  0  0
 16 26  1  0  0  0  0
 16 27  1  0  0  0  0
M  END
> <PUBCHEM_COMPOUND_CID>
127991

> <PUBCHEM_CONFORMER_RMSD>
0.6

> <PUBCHEM_CONFORMER_DIVERSEORDER>
1
37
56
59
8
61
33
43
21
17
24
46
40
60
53
38
41
50
32
57
54
22
58
23
19
45
36
11
6
47
35
25
16
10
12
29
18
28
44
52
34
7
51
3
14
42
9
39
13
49
5
20
30
31
4
48
26
27
2
15
55

> <PUBCHEM_MMFF94_PARTIAL_CHARGES>
22
1 1.67
10 0.27
11 -0.15
12 -0.15
13 0.08
14 0.08
15 -0.15
16 0.27
2 -0.27
21 0.15
22 0.15
23 0.15
24 0.36
28 0.45
29 0.5
3 -0.53
4 -0.68
5 -0.65
6 -0.65
7 -0.9
8 0.14
9 -0.14

> <PUBCHEM_EFFECTIVE_ROTOR_COUNT>
5

> <PUBCHEM_PHARMACOPHORE_FEATURES>
8
1 3 donor
1 4 acceptor
1 5 acceptor
1 6 acceptor
1 7 cation
1 7 donor
4 1 4 5 6 anion
6 9 11 12 13 14 15 rings

> <PUBCHEM_HEAVY_ATOM_COUNT>
16

> <PUBCHEM_ATOM_DEF_STEREO_COUNT>
0

> <PUBCHEM_ATOM_UDEF_STEREO_COUNT>
0

> <PUBCHEM_BOND_DEF_STEREO_COUNT>
0

> <PUBCHEM_BOND_UDEF_STEREO_COUNT>
0

> <PUBCHEM_ISOTOPIC_ATOM_COUNT>
0

> <PUBCHEM_COMPONENT_COUNT>
1

> <PUBCHEM_CACTVS_TAUTO_COUNT>
3

> <PUBCHEM_CONFORMER_ID>
0001F3F700000001

> <PUBCHEM_MMFF94_ENERGY>
28.2574

> <PUBCHEM_FEATURE_SELFOVERLAP>
40.653

> <PUBCHEM_SHAPE_FINGERPRINT>
11132069 177 18259990378959803556
122479 349 18341328976887181676
12390115 104 18340504343018766884
13140716 1 17612321053143199834
13296909 8 18336550515926094430
13764800 53 18409176501619882707
14123250 116 17559970826438189704
14123255 52 18337670810969401748
15209294 21 18407759248733522090
15279308 16 18273218625150341854
16945 1 17976261231751255887
1741750 31 18411418410477423374
17834072 32 18411138043602768904
18186145 218 18271257031966036214
204376 136 18335423439150739837
20510252 161 18339083799443821858
20645477 56 18341060674300874238
20671657 1 18120656825198742518
21524375 3 18269272370122091150
22182937 141 18271533073524456384
23402539 116 18197773521286233559
23500284 214 18341619217570286080
23557571 272 18197516188731565926
23559900 14 18272092648461913870
27216 239 18335986470840337352
2748010 2 18189068520193751391
526903 126 18341611507840447025
58807428 26 17967807228774217250
7364860 26 18051975809926501022
81228 2 18116164448162719447
90316 7 17385989707480981884

> <PUBCHEM_SHAPE_MULTIPOLES>
298.79
7.75
2.77
0.97
8.53
0.17
-0.06
-6.87
-1.44
-1.38
-0.6
-0.08
-0.08
0.75

> <PUBCHEM_SHAPE_SELFOVERLAP>
597.758

> <PUBCHEM_SHAPE_VOLUME>
177.2

> <PUBCHEM_COORDINATE_TYPE>
2
5
10

$$$$
