127986
  -OEChem-03292013323D

 65 66  0     1  0  0  0  0  0999 V2000
   -1.0507    0.4022    0.9716 O   0  0  0  0  0  0  0  0  0  0  0  0
    1.4091    2.1476    0.5233 O   0  0  0  0  0  0  0  0  0  0  0  0
    2.0186   -0.1345   -0.8205 O   0  0  0  0  0  0  0  0  0  0  0  0
   -3.3074    1.7841    0.0441 O   0  0  0  0  0  0  0  0  0  0  0  0
    1.3357   -5.5785    1.0594 O   0  0  0  0  0  0  0  0  0  0  0  0
   -0.3865   -1.8079    0.4196 N   0  0  0  0  0  0  0  0  0  0  0  0
    0.3514   -2.8959    0.6873 N   0  0  0  0  0  0  0  0  0  0  0  0
   -1.5380   -3.7346   -0.0212 N   0  0  0  0  0  0  0  0  0  0  0  0
   -0.6336   -6.4378    0.2985 N   0  0  0  0  0  0  0  0  0  0  0  0
    0.4272    1.6712   -0.3969 C   0  0  1  0  0  0  0  0  0  0  0  0
    0.6542    0.1954   -0.6592 C   0  0  2  0  0  0  0  0  0  0  0  0
   -0.9341    1.6734    0.2915 C   0  0  1  0  0  0  0  0  0  0  0  0
    0.0642   -0.4292    0.5959 C   0  0  1  0  0  0  0  0  0  0  0  0
   -2.0935    1.8027   -0.6864 C   0  0  0  0  0  0  0  0  0  0  0  0
    1.5374    3.5590    0.4552 C   0  0  0  0  0  0  0  0  0  0  0  0
    2.4876    0.1739   -2.1297 C   0  0  0  0  0  0  0  0  0  0  0  0
   -1.5203   -2.3693   -0.0056 C   0  0  0  0  0  0  0  0  0  0  0  0
    2.6089    4.0035    1.4406 C   0  0  0  0  0  0  0  0  0  0  0  0
    3.9525   -0.2257   -2.2343 C   0  0  0  0  0  0  0  0  0  0  0  0
   -4.4381    1.9015   -0.8114 C   0  0  0  0  0  0  0  0  0  0  0  0
    3.9657    3.3863    1.1142 C   0  0  0  0  0  0  0  0  0  0  0  0
   -0.3402   -4.0369    0.4230 C   0  0  0  0  0  0  0  0  0  0  0  0
    4.8113    0.5074   -1.2078 C   0  0  0  0  0  0  0  0  0  0  0  0
   -5.7007    1.8950    0.0386 C   0  0  0  0  0  0  0  0  0  0  0  0
   -6.9582    2.0023   -0.8192 C   0  0  0  0  0  0  0  0  0  0  0  0
    5.0419    3.8666    2.0745 C   0  0  0  0  0  0  0  0  0  0  0  0
    6.2661    0.0734   -1.2867 C   0  0  0  0  0  0  0  0  0  0  0  0
    0.1875   -5.3472    0.6112 C   0  0  0  0  0  0  0  0  0  0  0  0
   -8.2181    1.9520    0.0302 C   0  0  0  0  0  0  0  0  0  0  0  0
    0.4575    2.2583   -1.3219 H   0  0  0  0  0  0  0  0  0  0  0  0
    0.0745   -0.1300   -1.5342 H   0  0  0  0  0  0  0  0  0  0  0  0
   -1.0199    2.4420    1.0667 H   0  0  0  0  0  0  0  0  0  0  0  0
    0.7783   -0.4418    1.4286 H   0  0  0  0  0  0  0  0  0  0  0  0
   -2.0115    2.7430   -1.2435 H   0  0  0  0  0  0  0  0  0  0  0  0
   -2.0971    0.9650   -1.3934 H   0  0  0  0  0  0  0  0  0  0  0  0
    0.5877    4.0413    0.7103 H   0  0  0  0  0  0  0  0  0  0  0  0
    1.8218    3.8614   -0.5598 H   0  0  0  0  0  0  0  0  0  0  0  0
    2.3792    1.2459   -2.3286 H   0  0  0  0  0  0  0  0  0  0  0  0
    1.9062   -0.3845   -2.8723 H   0  0  0  0  0  0  0  0  0  0  0  0
   -2.3739   -1.7830   -0.3217 H   0  0  0  0  0  0  0  0  0  0  0  0
    2.6811    5.0971    1.4270 H   0  0  0  0  0  0  0  0  0  0  0  0
    2.3165    3.7027    2.4540 H   0  0  0  0  0  0  0  0  0  0  0  0
    4.0418   -1.3056   -2.0633 H   0  0  0  0  0  0  0  0  0  0  0  0
    4.3164   -0.0194   -3.2472 H   0  0  0  0  0  0  0  0  0  0  0  0
   -4.4529    1.0601   -1.5140 H   0  0  0  0  0  0  0  0  0  0  0  0
   -4.3732    2.8367   -1.3799 H   0  0  0  0  0  0  0  0  0  0  0  0
    3.9083    2.2941    1.1722 H   0  0  0  0  0  0  0  0  0  0  0  0
    4.2575    3.6458    0.0901 H   0  0  0  0  0  0  0  0  0  0  0  0
    4.4467    0.3122   -0.1933 H   0  0  0  0  0  0  0  0  0  0  0  0
    4.7478    1.5881   -1.3767 H   0  0  0  0  0  0  0  0  0  0  0  0
   -5.7275    0.9764    0.6384 H   0  0  0  0  0  0  0  0  0  0  0  0
   -5.6598    2.7216    0.7589 H   0  0  0  0  0  0  0  0  0  0  0  0
   -6.9845    1.1827   -1.5466 H   0  0  0  0  0  0  0  0  0  0  0  0
   -6.9427    2.9397   -1.3870 H   0  0  0  0  0  0  0  0  0  0  0  0
    4.7967    3.5953    3.1063 H   0  0  0  0  0  0  0  0  0  0  0  0
    6.0046    3.4105    1.8230 H   0  0  0  0  0  0  0  0  0  0  0  0
    5.1574    4.9539    2.0227 H   0  0  0  0  0  0  0  0  0  0  0  0
    6.3678   -0.9981   -1.0872 H   0  0  0  0  0  0  0  0  0  0  0  0
    6.8635    0.6149   -0.5464 H   0  0  0  0  0  0  0  0  0  0  0  0
    6.6839    0.2803   -2.2771 H   0  0  0  0  0  0  0  0  0  0  0  0
   -8.2391    2.7767    0.7498 H   0  0  0  0  0  0  0  0  0  0  0  0
   -9.1064    2.0319   -0.6041 H   0  0  0  0  0  0  0  0  0  0  0  0
   -8.2803    1.0101    0.5847 H   0  0  0  0  0  0  0  0  0  0  0  0
   -0.3055   -7.3898    0.4228 H   0  0  0  0  0  0  0  0  0  0  0  0
   -1.5758   -6.3170   -0.0591 H   0  0  0  0  0  0  0  0  0  0  0  0
  1 12  1  0  0  0  0
  1 13  1  0  0  0  0
  2 10  1  0  0  0  0
  2 15  1  0  0  0  0
  3 11  1  0  0  0  0
  3 16  1  0  0  0  0
  4 14  1  0  0  0  0
  4 20  1  0  0  0  0
  5 28  2  0  0  0  0
  6  7  1  0  0  0  0
  6 13  1  0  0  0  0
  6 17  1  0  0  0  0
  7 22  2  0  0  0  0
  8 17  2  0  0  0  0
  8 22  1  0  0  0  0
  9 28  1  0  0  0  0
  9 64  1  0  0  0  0
  9 65  1  0  0  0  0
 10 11  1  0  0  0  0
 10 12  1  0  0  0  0
 10 30  1  0  0  0  0
 11 13  1  0  0  0  0
 11 31  1  0  0  0  0
 12 14  1  0  0  0  0
 12 32  1  0  0  0  0
 13 33  1  0  0  0  0
 14 34  1  0  0  0  0
 14 35  1  0  0  0  0
 15 18  1  0  0  0  0
 15 36  1  0  0  0  0
 15 37  1  0  0  0  0
 16 19  1  0  0  0  0
 16 38  1  0  0  0  0
 16 39  1  0  0  0  0
 17 40  1  0  0  0  0
 18 21  1  0  0  0  0
 18 41  1  0  0  0  0
 18 42  1  0  0  0  0
 19 23  1  0  0  0  0
 19 43  1  0  0  0  0
 19 44  1  0  0  0  0
 20 24  1  0  0  0  0
 20 45  1  0  0  0  0
 20 46  1  0  0  0  0
 21 26  1  0  0  0  0
 21 47  1  0  0  0  0
 21 48  1  0  0  0  0
 22 28  1  0  0  0  0
 23 27  1  0  0  0  0
 23 49  1  0  0  0  0
 23 50  1  0  0  0  0
 24 25  1  0  0  0  0
 24 51  1  0  0  0  0
 24 52  1  0  0  0  0
 25 29  1  0  0  0  0
 25 53  1  0  0  0  0
 25 54  1  0  0  0  0
 26 55  1  0  0  0  0
 26 56  1  0  0  0  0
 26 57  1  0  0  0  0
 27 58  1  0  0  0  0
 27 59  1  0  0  0  0
 27 60  1  0  0  0  0
 29 61  1  0  0  0  0
 29 62  1  0  0  0  0
 29 63  1  0  0  0  0
M  END
> <PUBCHEM_COMPOUND_CID>
127986

> <PUBCHEM_CONFORMER_RMSD>
1.2

> <PUBCHEM_CONFORMER_DIVERSEORDER>
2
4
29
13
30
1
27
21
19
22
16
11
28
9
6
7
15
8
17
12
14
20
5
25
26
10
31
3
23
24
18

> <PUBCHEM_MMFF94_PARTIAL_CHARGES>
23
1 -0.56
10 0.28
11 0.28
12 0.28
13 0.54
14 0.28
15 0.28
16 0.28
17 0.04
2 -0.56
20 0.28
22 0.43
28 0.72
3 -0.56
4 -0.56
40 0.15
5 -0.57
6 0.31
64 0.37
65 0.37
7 -0.71
8 -0.57
9 -0.8

> <PUBCHEM_EFFECTIVE_ROTOR_COUNT>
16

> <PUBCHEM_PHARMACOPHORE_FEATURES>
13
1 1 acceptor
1 2 acceptor
1 26 hydrophobe
1 27 hydrophobe
1 29 hydrophobe
1 3 acceptor
1 4 acceptor
1 5 acceptor
1 9 donor
3 6 8 17 cation
3 7 8 22 cation
5 1 10 11 12 13 rings
5 6 7 8 17 22 rings

> <PUBCHEM_HEAVY_ATOM_COUNT>
29

> <PUBCHEM_ATOM_DEF_STEREO_COUNT>
4

> <PUBCHEM_ATOM_UDEF_STEREO_COUNT>
0

> <PUBCHEM_BOND_DEF_STEREO_COUNT>
0

> <PUBCHEM_BOND_UDEF_STEREO_COUNT>
0

> <PUBCHEM_ISOTOPIC_ATOM_COUNT>
0

> <PUBCHEM_COMPONENT_COUNT>
1

> <PUBCHEM_CACTVS_TAUTO_COUNT>
2

> <PUBCHEM_CONFORMER_ID>
0001F3F200000002

> <PUBCHEM_MMFF94_ENERGY>
54.7905

> <PUBCHEM_FEATURE_SELFOVERLAP>
68.731

> <PUBCHEM_SHAPE_FINGERPRINT>
11014199 57 17113537013602251439
11488393 25 17972334923315642611
12202916 173 18059297557415154158
12597179 24 18271519922271714420
13540713 4 18057050327251895012
13955234 65 18339357449760298153
13968360 50 18115877308445567799
14784336 7 17908149772482286694
15775530 1 18053955222956394132
17980427 26 18197756865598193349
19319366 153 18337676304512051631
21344244 246 17900834750960055062
25223398 141 17970366986395841287
3178227 256 18337971003978214537
6669772 16 18341602733233057740
6700243 42 16259556197775334991

> <PUBCHEM_SHAPE_MULTIPOLES>
547.54
12.9
8.41
1.58
20.94
16.7
-0.39
-18.31
-3.56
-1.98
5.23
-2.7
-0.72
3.25

> <PUBCHEM_SHAPE_SELFOVERLAP>
1088.205

> <PUBCHEM_SHAPE_VOLUME>
325.8

> <PUBCHEM_COORDINATE_TYPE>
2
5
10

$$$$
