128055
  -OEChem-03292013323D

 45 45  0     1  0  0  0  0  0999 V2000
   -2.4915   -1.5052    3.1267 Cl  0  0  0  0  0  0  0  0  0  0  0  0
   -2.1597   -2.6144    0.5341 O   0  0  0  0  0  0  0  0  0  0  0  0
    1.9630   -0.1177   -2.0613 O   0  0  0  0  0  0  0  0  0  0  0  0
    3.8957    1.6446   -1.0603 O   0  0  0  0  0  0  0  0  0  0  0  0
   -0.0088   -1.7633   -1.1905 N   0  0  0  0  0  0  0  0  0  0  0  0
    2.9449   -0.1701    0.0527 N   0  0  0  0  0  0  0  0  0  0  0  0
    5.8236    0.3455    1.0644 N   0  0  0  0  0  0  0  0  0  0  0  0
   -0.9024   -0.8351   -0.5142 C   0  0  1  0  0  0  0  0  0  0  0  0
   -1.9984   -0.3605   -1.4794 C   0  0  0  0  0  0  0  0  0  0  0  0
    1.2779   -1.8390   -0.5031 C   0  0  1  0  0  0  0  0  0  0  0  0
   -2.9670    0.6013   -0.8317 C   0  0  0  0  0  0  0  0  0  0  0  0
   -1.4750   -1.5999    0.6756 C   0  0  0  0  0  0  0  0  0  0  0  0
    1.9787   -3.1433   -0.8635 C   0  0  0  0  0  0  0  0  0  0  0  0
    2.0844   -0.6264   -0.9491 C   0  0  0  0  0  0  0  0  0  0  0  0
   -1.1595   -1.0708    2.0513 C   0  0  0  0  0  0  0  0  0  0  0  0
   -4.1111    0.1172   -0.1969 C   0  0  0  0  0  0  0  0  0  0  0  0
   -2.7173    1.9732   -0.8678 C   0  0  0  0  0  0  0  0  0  0  0  0
    4.6176    1.1599    1.1985 C   0  0  2  0  0  0  0  0  0  0  0  0
    3.7947    0.9329   -0.0633 C   0  0  0  0  0  0  0  0  0  0  0  0
   -5.0053    1.0050    0.4012 C   0  0  0  0  0  0  0  0  0  0  0  0
   -3.6116    2.8609   -0.2695 C   0  0  0  0  0  0  0  0  0  0  0  0
   -4.7556    2.3766    0.3650 C   0  0  0  0  0  0  0  0  0  0  0  0
    4.9825    2.6286    1.3813 C   0  0  0  0  0  0  0  0  0  0  0  0
   -0.3678    0.0519   -0.1520 H   0  0  0  0  0  0  0  0  0  0  0  0
   -2.5632   -1.2161   -1.8753 H   0  0  0  0  0  0  0  0  0  0  0  0
   -1.5464    0.1253   -2.3549 H   0  0  0  0  0  0  0  0  0  0  0  0
    1.1585   -1.8293    0.5849 H   0  0  0  0  0  0  0  0  0  0  0  0
    0.1289   -1.5030   -2.1664 H   0  0  0  0  0  0  0  0  0  0  0  0
    1.3813   -4.0098   -0.5603 H   0  0  0  0  0  0  0  0  0  0  0  0
    2.9507   -3.2093   -0.3624 H   0  0  0  0  0  0  0  0  0  0  0  0
    2.1655   -3.2145   -1.9413 H   0  0  0  0  0  0  0  0  0  0  0  0
   -0.2323   -1.5099    2.4244 H   0  0  0  0  0  0  0  0  0  0  0  0
   -1.0860    0.0189    2.0370 H   0  0  0  0  0  0  0  0  0  0  0  0
   -4.3243   -0.9477   -0.1668 H   0  0  0  0  0  0  0  0  0  0  0  0
   -1.8282    2.3621   -1.3570 H   0  0  0  0  0  0  0  0  0  0  0  0
    2.9634   -0.6865    0.9286 H   0  0  0  0  0  0  0  0  0  0  0  0
    4.0488    0.8299    2.0755 H   0  0  0  0  0  0  0  0  0  0  0  0
   -5.8968    0.6281    0.8940 H   0  0  0  0  0  0  0  0  0  0  0  0
   -3.4169    3.9290   -0.2970 H   0  0  0  0  0  0  0  0  0  0  0  0
   -5.4518    3.0678    0.8308 H   0  0  0  0  0  0  0  0  0  0  0  0
    5.5870    3.0043    0.5476 H   0  0  0  0  0  0  0  0  0  0  0  0
    5.5500    2.7804    2.3058 H   0  0  0  0  0  0  0  0  0  0  0  0
    4.0785    3.2452    1.4336 H   0  0  0  0  0  0  0  0  0  0  0  0
    6.4154    0.4731    1.8845 H   0  0  0  0  0  0  0  0  0  0  0  0
    5.5698   -0.6418    1.0492 H   0  0  0  0  0  0  0  0  0  0  0  0
  1 15  1  0  0  0  0
  2 12  2  0  0  0  0
  3 14  2  0  0  0  0
  4 19  2  0  0  0  0
  5  8  1  0  0  0  0
  5 10  1  0  0  0  0
  5 28  1  0  0  0  0
  6 14  1  0  0  0  0
  6 19  1  0  0  0  0
  6 36  1  0  0  0  0
  7 18  1  0  0  0  0
  7 44  1  0  0  0  0
  7 45  1  0  0  0  0
  8  9  1  0  0  0  0
  8 12  1  0  0  0  0
  8 24  1  0  0  0  0
  9 11  1  0  0  0  0
  9 25  1  0  0  0  0
  9 26  1  0  0  0  0
 10 13  1  0  0  0  0
 10 14  1  0  0  0  0
 10 27  1  0  0  0  0
 11 16  2  0  0  0  0
 11 17  1  0  0  0  0
 12 15  1  0  0  0  0
 13 29  1  0  0  0  0
 13 30  1  0  0  0  0
 13 31  1  0  0  0  0
 15 32  1  0  0  0  0
 15 33  1  0  0  0  0
 16 20  1  0  0  0  0
 16 34  1  0  0  0  0
 17 21  2  0  0  0  0
 17 35  1  0  0  0  0
 18 19  1  0  0  0  0
 18 23  1  0  0  0  0
 18 37  1  0  0  0  0
 20 22  2  0  0  0  0
 20 38  1  0  0  0  0
 21 22  1  0  0  0  0
 21 39  1  0  0  0  0
 22 40  1  0  0  0  0
 23 41  1  0  0  0  0
 23 42  1  0  0  0  0
 23 43  1  0  0  0  0
M  END
> <PUBCHEM_COMPOUND_CID>
128055

> <PUBCHEM_CONFORMER_RMSD>
1

> <PUBCHEM_CONFORMER_DIVERSEORDER>
1
3
101
87
110
39
40
107
65
54
55
68
48
73
75
70
61
18
96
69
60
82
84
79
86
78
105
23
89
76
72
92
88
21
111
34
56
104
37
77
74
43
17
97
103
27
9
91
33
51
38
99
25
108
62
46
28
41
95
44
106
49
94
2
52
85
102
16
10
6
114
66
53
50
109
93
4
58
13
63
64
47
30
81
35
67
100
36
15
90
29
12
113
32
57
42
71
112
45
14
83
5
22
80
24
8
31
59
19
11
20
98
7
26

> <PUBCHEM_MMFF94_PARTIAL_CHARGES>
30
1 -0.29
10 0.33
11 -0.14
12 0.45
14 0.57
15 0.35
16 -0.15
17 -0.15
18 0.33
19 0.57
2 -0.57
20 -0.15
21 -0.15
22 -0.15
28 0.36
3 -0.57
34 0.15
35 0.15
36 0.37
38 0.15
39 0.15
4 -0.57
40 0.15
44 0.36
45 0.36
5 -0.9
6 -0.49
7 -0.99
8 0.33
9 0.14

> <PUBCHEM_EFFECTIVE_ROTOR_COUNT>
10

> <PUBCHEM_PHARMACOPHORE_FEATURES>
9
1 2 acceptor
1 3 acceptor
1 4 acceptor
1 5 cation
1 5 donor
1 6 donor
1 7 cation
1 7 donor
6 11 16 17 20 21 22 rings

> <PUBCHEM_HEAVY_ATOM_COUNT>
23

> <PUBCHEM_ATOM_DEF_STEREO_COUNT>
3

> <PUBCHEM_ATOM_UDEF_STEREO_COUNT>
0

> <PUBCHEM_BOND_DEF_STEREO_COUNT>
0

> <PUBCHEM_BOND_UDEF_STEREO_COUNT>
0

> <PUBCHEM_ISOTOPIC_ATOM_COUNT>
0

> <PUBCHEM_COMPONENT_COUNT>
1

> <PUBCHEM_CACTVS_TAUTO_COUNT>
9

> <PUBCHEM_CONFORMER_ID>
0001F43700000001

> <PUBCHEM_MMFF94_ENERGY>
41.2633

> <PUBCHEM_FEATURE_SELFOVERLAP>
45.675

> <PUBCHEM_SHAPE_FINGERPRINT>
10042902 136 9438817505297388033
10692045 39 18266166237400847610
10928967 22 14201939252013351216
11552529 35 17315634260575041170
11578080 2 18271820016226747531
12549972 3 18043835116044689290
12633257 1 17167582713069906716
12788726 201 16737246042697063979
13103583 49 16950556710349784608
13402501 40 18343577447563870000
14178342 30 18187650236066749582
14251764 30 13118550781205872616
14251764 38 18267859674043752456
14468879 13 18410577296703216003
14713325 29 18268984448768935691
14951699 99 18194671791338874416
15295992 7 18192725453012707811
15537594 2 14345786159357128064
16067690 210 18190717886747081760
18186145 218 17897735249698925391
21033648 29 18341053021101851164
21401589 2 18410569596006520657
21857420 4 13451918106130979832
23559900 14 17970084261130675175
2838139 119 18130212796719737516
392239 28 17968957369856189425
469060 322 18124604342762826947
5081480 168 17200273384646012212
5104073 3 18265621983602952865
56616090 13 18269833125822140269
7970288 3 11025782177325534392
9981440 41 18410847772147667555

> <PUBCHEM_SHAPE_MULTIPOLES>
442.65
11.2
3.3
2.03
7.98
0.04
1.37
10.21
3.18
-0.15
0.28
-0.22
-0.87
2.34

> <PUBCHEM_SHAPE_SELFOVERLAP>
887.087

> <PUBCHEM_SHAPE_VOLUME>
259.4

> <PUBCHEM_COORDINATE_TYPE>
2
5
10

$$$$
