12800099
  -OEChem-03292013303D

 31 33  0     1  0  0  0  0  0999 V2000
    2.1276    0.1011    0.8802 O   0  0  0  0  0  0  0  0  0  0  0  0
    2.3315   -1.8733   -1.3988 O   0  0  0  0  0  0  0  0  0  0  0  0
    4.7037    0.9086    1.6489 O   0  0  0  0  0  0  0  0  0  0  0  0
   -0.1282   -0.0639    0.1488 N   0  0  0  0  0  0  0  0  0  0  0  0
   -1.5808   -1.6885    0.6363 N   0  0  0  0  0  0  0  0  0  0  0  0
   -1.6792    1.7231   -0.4034 N   0  0  0  0  0  0  0  0  0  0  0  0
   -3.9965    0.9878   -0.1902 N   0  0  0  0  0  0  0  0  0  0  0  0
   -4.5832   -1.2318    0.4855 N   0  0  0  0  0  0  0  0  0  0  0  0
    1.1576    0.6102   -0.0501 C   0  0  2  0  0  0  0  0  0  0  0  0
    2.8463   -0.5508   -1.2782 C   0  0  1  0  0  0  0  0  0  0  0  0
    1.7255    0.4493   -1.4576 C   0  0  0  0  0  0  0  0  0  0  0  0
    3.2967   -0.3258    0.1566 C   0  0  1  0  0  0  0  0  0  0  0  0
    4.3555    0.7629    0.2818 C   0  0  0  0  0  0  0  0  0  0  0  0
   -1.3748    0.4738   -0.0210 C   0  0  0  0  0  0  0  0  0  0  0  0
   -0.3076   -1.3657    0.5437 C   0  0  0  0  0  0  0  0  0  0  0  0
   -2.2591   -0.5480    0.2862 C   0  0  0  0  0  0  0  0  0  0  0  0
   -3.6159   -0.2554    0.1909 C   0  0  0  0  0  0  0  0  0  0  0  0
   -3.0190    1.8865   -0.4597 C   0  0  0  0  0  0  0  0  0  0  0  0
    0.9913    1.6675    0.1863 H   0  0  0  0  0  0  0  0  0  0  0  0
    3.6436   -0.4344   -2.0181 H   0  0  0  0  0  0  0  0  0  0  0  0
    2.1451    1.4098   -1.7800 H   0  0  0  0  0  0  0  0  0  0  0  0
    0.9762    0.1413   -2.1938 H   0  0  0  0  0  0  0  0  0  0  0  0
    3.6467   -1.2472    0.6350 H   0  0  0  0  0  0  0  0  0  0  0  0
    3.9818    1.7329   -0.0600 H   0  0  0  0  0  0  0  0  0  0  0  0
    5.2574    0.5137   -0.2857 H   0  0  0  0  0  0  0  0  0  0  0  0
    0.5185   -2.0318    0.7515 H   0  0  0  0  0  0  0  0  0  0  0  0
    3.0682   -2.4884   -1.2419 H   0  0  0  0  0  0  0  0  0  0  0  0
    5.0735    0.0614    1.9509 H   0  0  0  0  0  0  0  0  0  0  0  0
   -3.3598    2.8711   -0.7617 H   0  0  0  0  0  0  0  0  0  0  0  0
   -4.3017   -2.1599    0.7711 H   0  0  0  0  0  0  0  0  0  0  0  0
   -5.5629   -0.9945    0.4098 H   0  0  0  0  0  0  0  0  0  0  0  0
  1  9  1  0  0  0  0
  1 12  1  0  0  0  0
  2 10  1  0  0  0  0
  2 27  1  0  0  0  0
  3 13  1  0  0  0  0
  3 28  1  0  0  0  0
  4  9  1  0  0  0  0
  4 14  1  0  0  0  0
  4 15  1  0  0  0  0
  5 15  2  0  0  0  0
  5 16  1  0  0  0  0
  6 14  2  0  0  0  0
  6 18  1  0  0  0  0
  7 17  1  0  0  0  0
  7 18  2  0  0  0  0
  8 17  1  0  0  0  0
  8 30  1  0  0  0  0
  8 31  1  0  0  0  0
  9 11  1  0  0  0  0
  9 19  1  0  0  0  0
 10 11  1  0  0  0  0
 10 12  1  0  0  0  0
 10 20  1  0  0  0  0
 11 21  1  0  0  0  0
 11 22  1  0  0  0  0
 12 13  1  0  0  0  0
 12 23  1  0  0  0  0
 13 24  1  0  0  0  0
 13 25  1  0  0  0  0
 14 16  1  0  0  0  0
 15 26  1  0  0  0  0
 16 17  2  0  0  0  0
 18 29  1  0  0  0  0
M  END
> <PUBCHEM_COMPOUND_CID>
12800099

> <PUBCHEM_CONFORMER_RMSD>
0.6

> <PUBCHEM_CONFORMER_DIVERSEORDER>
1
9
14
13
4
6
15
10
5
8
3
11
16
12
7
2

> <PUBCHEM_MMFF94_PARTIAL_CHARGES>
23
1 -0.56
10 0.28
12 0.28
13 0.28
14 0.11
15 0.04
16 0.23
17 0.41
18 0.47
2 -0.68
26 0.15
27 0.4
28 0.4
29 0.15
3 -0.68
30 0.4
31 0.4
4 0.05
5 -0.57
6 -0.57
7 -0.62
8 -0.9
9 0.54

> <PUBCHEM_EFFECTIVE_ROTOR_COUNT>
3

> <PUBCHEM_PHARMACOPHORE_FEATURES>
13
1 1 acceptor
1 2 acceptor
1 2 donor
1 3 acceptor
1 3 donor
1 8 cation
1 8 donor
3 4 5 15 cation
3 4 6 14 cation
3 6 7 18 cation
5 1 9 10 11 12 rings
5 4 5 14 15 16 rings
6 6 7 14 16 17 18 rings

> <PUBCHEM_HEAVY_ATOM_COUNT>
18

> <PUBCHEM_ATOM_DEF_STEREO_COUNT>
3

> <PUBCHEM_ATOM_UDEF_STEREO_COUNT>
0

> <PUBCHEM_BOND_DEF_STEREO_COUNT>
0

> <PUBCHEM_BOND_UDEF_STEREO_COUNT>
0

> <PUBCHEM_ISOTOPIC_ATOM_COUNT>
0

> <PUBCHEM_COMPONENT_COUNT>
1

> <PUBCHEM_CACTVS_TAUTO_COUNT>
3

> <PUBCHEM_CONFORMER_ID>
00C3506300000001

> <PUBCHEM_MMFF94_ENERGY>
39.8586

> <PUBCHEM_FEATURE_SELFOVERLAP>
66.58

> <PUBCHEM_SHAPE_FINGERPRINT>
10608611 8 18413107234293693892
10646746 165 18337108969217678684
10922523 26 18339931419766149831
11132069 177 18261396615962106669
12236239 1 17095241432347557480
13538477 17 17168434868677589714
13581323 91 18259983786153322892
13675066 3 18334860510666938794
13862211 1 18187930655388853835
14144814 61 17967255273488329561
15219456 202 18201721725870212646
15375358 24 18343299275584996304
15536298 74 18263079929377599418
16945 1 18187094952977656235
18186145 218 18198916828610487397
19026448 4 18202285766597744573
19049666 15 18199755734713359272
200 152 16630527302101736862
20279233 1 18343871017268024158
204376 136 17346310561964523156
20510252 161 18412266108120076145
20645477 56 18410013230100703257
20645477 70 17346322544548980086
21065201 7 18261115123557476942
23402539 116 18335691776170580407
23557571 272 18411709789564283708
23559900 14 18339648841626285838
296302 2 17418373614373140780
43471831 8 18040714719435796771
474 4 15050864534666442434
5104073 3 18338519634040822347
573450 72 17749381563987273928
69090 78 18273494585114926183
74978 22 17168722932239426006
77492 1 16950008027644633212
9709674 26 18410582789929860342

> <PUBCHEM_SHAPE_MULTIPOLES>
327.92
8.52
1.64
1.14
0.9
0.02
0.14
-1.02
-1.62
-1.09
0.14
1.43
0.06
1.07

> <PUBCHEM_SHAPE_SELFOVERLAP>
713.331

> <PUBCHEM_SHAPE_VOLUME>
176.5

> <PUBCHEM_COORDINATE_TYPE>
2
5
10

$$$$
