128069
  -OEChem-03292013323D

 49 51  0     0  0  0  0  0  0999 V2000
   -2.8588    5.0260   -0.7259 Cl  0  0  0  0  0  0  0  0  0  0  0  0
    6.9636   -0.0207   -0.4120 S   0  0  0  0  0  0  0  0  0  0  0  0
   -4.6897   -0.3536    0.8058 O   0  0  0  0  0  0  0  0  0  0  0  0
    7.1323   -1.2923   -1.0941 O   0  0  0  0  0  0  0  0  0  0  0  0
    6.9114    1.2213   -1.1637 O   0  0  0  0  0  0  0  0  0  0  0  0
   -0.2663    0.8938   -1.2550 O   0  0  0  0  0  0  0  0  0  0  0  0
    2.9666   -0.2028    1.8112 O   0  0  0  0  0  0  0  0  0  0  0  0
   -1.6767    0.1388    0.4637 N   0  0  0  0  0  0  0  0  0  0  0  0
    0.6164   -0.4414    0.3843 N   0  0  0  0  0  0  0  0  0  0  0  0
    1.8540   -0.4150   -0.2128 N   0  0  0  0  0  0  0  0  0  0  0  0
   -2.0170   -1.0536    1.2569 C   0  0  0  0  0  0  0  0  0  0  0  0
    5.5123   -0.1204    0.5899 C   0  0  0  0  0  0  0  0  0  0  0  0
   -2.9251   -1.9401    0.4603 C   0  0  0  0  0  0  0  0  0  0  0  0
   -2.7333    1.1112    0.2429 C   0  0  0  0  0  0  0  0  0  0  0  0
    4.2489   -0.2546   -0.2435 C   0  0  0  0  0  0  0  0  0  0  0  0
    8.2746    0.1276    0.7799 C   0  0  0  0  0  0  0  0  0  0  0  0
   -4.2276   -1.5046    0.2218 C   0  0  0  0  0  0  0  0  0  0  0  0
   -4.1089    0.8416    0.4283 C   0  0  0  0  0  0  0  0  0  0  0  0
   -0.4293    0.2563   -0.2095 C   0  0  0  0  0  0  0  0  0  0  0  0
   -2.4932   -3.1456   -0.0999 C   0  0  0  0  0  0  0  0  0  0  0  0
    2.9767   -0.2924    0.5861 C   0  0  0  0  0  0  0  0  0  0  0  0
   -2.3847    2.4324   -0.1122 C   0  0  0  0  0  0  0  0  0  0  0  0
    9.6259    0.2277    0.1083 C   0  0  0  0  0  0  0  0  0  0  0  0
   -5.1165   -2.2776   -0.5236 C   0  0  0  0  0  0  0  0  0  0  0  0
   -5.0662    1.8597    0.2587 C   0  0  0  0  0  0  0  0  0  0  0  0
   -3.3720   -3.9149   -0.8645 C   0  0  0  0  0  0  0  0  0  0  0  0
   -3.3458    3.4314   -0.2961 C   0  0  0  0  0  0  0  0  0  0  0  0
   -4.6826   -3.4828   -1.0733 C   0  0  0  0  0  0  0  0  0  0  0  0
   -4.6888    3.1447   -0.1120 C   0  0  0  0  0  0  0  0  0  0  0  0
   -1.1358   -1.6279    1.5479 H   0  0  0  0  0  0  0  0  0  0  0  0
   -2.4876   -0.7379    2.1970 H   0  0  0  0  0  0  0  0  0  0  0  0
    5.4751    0.7859    1.2033 H   0  0  0  0  0  0  0  0  0  0  0  0
    5.6275   -0.9823    1.2553 H   0  0  0  0  0  0  0  0  0  0  0  0
    4.1699    0.5865   -0.9431 H   0  0  0  0  0  0  0  0  0  0  0  0
    4.2923   -1.1715   -0.8439 H   0  0  0  0  0  0  0  0  0  0  0  0
    8.0776    1.0220    1.3783 H   0  0  0  0  0  0  0  0  0  0  0  0
    8.2336   -0.7532    1.4274 H   0  0  0  0  0  0  0  0  0  0  0  0
   -1.4746   -3.4923    0.0522 H   0  0  0  0  0  0  0  0  0  0  0  0
   -1.3401    2.7221   -0.2050 H   0  0  0  0  0  0  0  0  0  0  0  0
   10.4177    0.3181    0.8582 H   0  0  0  0  0  0  0  0  0  0  0  0
    9.8329   -0.6587   -0.4997 H   0  0  0  0  0  0  0  0  0  0  0  0
    9.6782    1.1020   -0.5485 H   0  0  0  0  0  0  0  0  0  0  0  0
   -6.1398   -1.9486   -0.6801 H   0  0  0  0  0  0  0  0  0  0  0  0
   -6.1223    1.6452    0.4107 H   0  0  0  0  0  0  0  0  0  0  0  0
    0.5805   -0.8400    1.3147 H   0  0  0  0  0  0  0  0  0  0  0  0
    1.8848   -0.4998   -1.2236 H   0  0  0  0  0  0  0  0  0  0  0  0
   -3.0356   -4.8530   -1.2965 H   0  0  0  0  0  0  0  0  0  0  0  0
   -5.3656   -4.0878   -1.6625 H   0  0  0  0  0  0  0  0  0  0  0  0
   -5.4502    3.9088   -0.2420 H   0  0  0  0  0  0  0  0  0  0  0  0
  1 27  1  0  0  0  0
  2  4  2  0  0  0  0
  2  5  2  0  0  0  0
  2 12  1  0  0  0  0
  2 16  1  0  0  0  0
  3 17  1  0  0  0  0
  3 18  1  0  0  0  0
  6 19  2  0  0  0  0
  7 21  2  0  0  0  0
  8 11  1  0  0  0  0
  8 14  1  0  0  0  0
  8 19  1  0  0  0  0
  9 10  1  0  0  0  0
  9 19  1  0  0  0  0
  9 45  1  0  0  0  0
 10 21  1  0  0  0  0
 10 46  1  0  0  0  0
 11 13  1  0  0  0  0
 11 30  1  0  0  0  0
 11 31  1  0  0  0  0
 12 15  1  0  0  0  0
 12 32  1  0  0  0  0
 12 33  1  0  0  0  0
 13 17  1  0  0  0  0
 13 20  2  0  0  0  0
 14 18  2  0  0  0  0
 14 22  1  0  0  0  0
 15 21  1  0  0  0  0
 15 34  1  0  0  0  0
 15 35  1  0  0  0  0
 16 23  1  0  0  0  0
 16 36  1  0  0  0  0
 16 37  1  0  0  0  0
 17 24  2  0  0  0  0
 18 25  1  0  0  0  0
 20 26  1  0  0  0  0
 20 38  1  0  0  0  0
 22 27  2  0  0  0  0
 22 39  1  0  0  0  0
 23 40  1  0  0  0  0
 23 41  1  0  0  0  0
 23 42  1  0  0  0  0
 24 28  1  0  0  0  0
 24 43  1  0  0  0  0
 25 29  2  0  0  0  0
 25 44  1  0  0  0  0
 26 28  2  0  0  0  0
 26 47  1  0  0  0  0
 27 29  1  0  0  0  0
 28 48  1  0  0  0  0
 29 49  1  0  0  0  0
M  END
> <PUBCHEM_COMPOUND_CID>
128069

> <PUBCHEM_CONFORMER_RMSD>
1

> <PUBCHEM_CONFORMER_DIVERSEORDER>
1
70
109
144
124
5
33
102
172
31
68
170
198
181
146
179
53
30
197
169
51
67
10
178
189
38
6
135
74
101
191
26
18
91
200
122
120
8
152
201
192
131
43
15
147
182
114
107
65
104
128
79
130
69
66
141
36
103
32
60
62
25
94
125
93
110
139
151
71
193
183
171
113
105
112
39
143
108
78
87
150
97
160
49
37
13
187
55
64
148
16
166
118
48
190
4
168
174
12
106
137
34
27
84
149
194
57
153
88
123
121
19
23
54
164
111
9
86
156
142
7
52
162
2
45
127
80
117
14
95
11
134
63
176
185
167
180
90
119
98
132
163
20
50
82
41
85
46
140
133
199
56
21
115
175
157
28
158
61
92
42
184
155
76
72
159
59
22
47
195
73
161
186
177
196
29
188
35
173
126
99
44
138
136
75
129
165
58
96
89
24
100
145
81
83
154
77
3
116
40
17

> <PUBCHEM_MMFF94_PARTIAL_CHARGES>
37
1 -0.18
10 -0.43
11 0.44
12 0.11
13 -0.14
14 0.12
15 0.06
16 0.11
17 0.08
18 0.08
19 0.69
2 1.09
20 -0.15
21 0.57
22 -0.15
24 -0.15
25 -0.15
26 -0.15
27 0.18
28 -0.15
29 -0.15
3 -0.17
38 0.15
39 0.15
4 -0.65
43 0.15
44 0.15
45 0.37
46 0.37
47 0.15
48 0.15
49 0.15
5 -0.65
6 -0.57
7 -0.57
8 -0.48
9 -0.43

> <PUBCHEM_EFFECTIVE_ROTOR_COUNT>
8.6

> <PUBCHEM_PHARMACOPHORE_FEATURES>
10
1 10 donor
1 3 acceptor
1 4 acceptor
1 5 acceptor
1 6 acceptor
1 7 acceptor
1 9 donor
6 13 17 20 24 26 28 rings
6 14 18 22 25 27 29 rings
7 3 8 11 13 14 17 18 rings

> <PUBCHEM_HEAVY_ATOM_COUNT>
29

> <PUBCHEM_ATOM_DEF_STEREO_COUNT>
0

> <PUBCHEM_ATOM_UDEF_STEREO_COUNT>
0

> <PUBCHEM_BOND_DEF_STEREO_COUNT>
0

> <PUBCHEM_BOND_UDEF_STEREO_COUNT>
0

> <PUBCHEM_ISOTOPIC_ATOM_COUNT>
0

> <PUBCHEM_COMPONENT_COUNT>
1

> <PUBCHEM_CACTVS_TAUTO_COUNT>
4

> <PUBCHEM_CONFORMER_ID>
0001F44500000001

> <PUBCHEM_MMFF94_ENERGY>
87.6933

> <PUBCHEM_FEATURE_SELFOVERLAP>
52.326

> <PUBCHEM_SHAPE_FINGERPRINT>
100830 39 18411136918484562216
10165383 225 18201724995321845281
10319926 262 18270665529164905762
10411042 1 18122343743120392803
10670039 82 18409162233891876602
11056379 131 18411417310786285147
11101153 10 18191028000528388932
11315181 36 17967533501712468098
11524674 6 16702305671610384223
12082328 90 18412822496049011550
12788726 201 18334285483877658139
13690498 29 18340484559914078979
13782708 43 17846215613745124126
13885169 127 18410292498213108674
14508225 48 18268416019006554247
14856354 85 18339083799349214446
15183329 4 17458620147425374218
15230672 131 18194403286873285894
15510794 2 17988927761303006366
15876981 60 18261679258906360333
16087824 20 18410008816235183157
16989713 51 17916579976781847014
16992828 155 17532365366366961349
18927931 339 18410015468100632267
20511986 3 17531522079618595917
20771845 165 18196943158273590511
21236236 1 18408886243440436746
21792961 116 17561368341052185378
23081809 10 17894353281292295778
23522609 53 17677353623411522900
23559900 14 18201998815632657818
255183 313 18270981063733427009
32027 91 17769953281300799518
335507 130 18335428989113701470
397830 11 17916574479877224912
4073 2 18186810162845817530
4339292 15 17774711069238826375
44280117 145 18200876291765522230
504579 68 18187075183274971262
5265222 85 18340207384489989923
531348 171 18339082592600521546
5969126 39 18342169020655363887
6327066 14 18117272550495331509
9831232 110 18200324217756407398
99344 41 18409728427553480098

> <PUBCHEM_SHAPE_MULTIPOLES>
558.24
21.52
4.79
1.06
71.25
2.47
0.06
-0.46
-1.48
-13.21
-1.87
0.42
-0.2
-0.55

> <PUBCHEM_SHAPE_SELFOVERLAP>
1164.674

> <PUBCHEM_SHAPE_VOLUME>
316.2

> <PUBCHEM_COORDINATE_TYPE>
2
5
10

$$$$
