128066
  -OEChem-03292013323D

 44 45  0     0  0  0  0  0  0999 V2000
   -4.0718   -0.5232    0.1726 S   0  0  0  0  0  0  0  0  0  0  0  0
    0.5647   -2.9550    0.3158 S   0  0  0  0  0  0  0  0  0  0  0  0
   -0.1306    3.1989   -0.8651 N   0  0  0  0  0  0  0  0  0  0  0  0
    1.2948    2.2903    0.5752 N   0  0  0  0  0  0  0  0  0  0  0  0
   -2.3887   -2.5007   -0.3035 N   0  0  0  0  0  0  0  0  0  0  0  0
   -3.9687   -1.9465   -2.0329 N   0  0  0  0  0  0  0  0  0  0  0  0
   -3.1789    2.0140    0.7279 C   0  0  0  0  0  0  0  0  0  0  0  0
   -2.3283    3.2416    0.3768 C   0  0  0  0  0  0  0  0  0  0  0  0
   -3.0579    0.8937   -0.3049 C   0  0  0  0  0  0  0  0  0  0  0  0
   -0.8563    2.9319    0.2615 C   0  0  0  0  0  0  0  0  0  0  0  0
    0.0447    2.3711    1.1360 C   0  0  0  0  0  0  0  0  0  0  0  0
   -0.8348   -3.0598    1.4657 C   0  0  0  0  0  0  0  0  0  0  0  0
    0.9769   -1.2120    0.5602 C   0  0  0  0  0  0  0  0  0  0  0  0
   -1.9549   -2.1255    1.0361 C   0  0  0  0  0  0  0  0  0  0  0  0
    2.3806   -0.8943    0.1242 C   0  0  0  0  0  0  0  0  0  0  0  0
    1.1547    2.7966   -0.6297 C   0  0  0  0  0  0  0  0  0  0  0  0
   -3.3605   -1.8198   -0.8098 C   0  0  0  0  0  0  0  0  0  0  0  0
    2.6297   -0.4961   -1.1893 C   0  0  0  0  0  0  0  0  0  0  0  0
    3.4336   -0.9974    1.0333 C   0  0  0  0  0  0  0  0  0  0  0  0
    3.9316   -0.2012   -1.5938 C   0  0  0  0  0  0  0  0  0  0  0  0
    4.7355   -0.7023    0.6287 C   0  0  0  0  0  0  0  0  0  0  0  0
    4.9845   -0.3042   -0.6849 C   0  0  0  0  0  0  0  0  0  0  0  0
   -4.2251    2.3348    0.8115 H   0  0  0  0  0  0  0  0  0  0  0  0
   -2.8779    1.6416    1.7160 H   0  0  0  0  0  0  0  0  0  0  0  0
   -2.6910    3.6774   -0.5625 H   0  0  0  0  0  0  0  0  0  0  0  0
   -2.4620    4.0049    1.1528 H   0  0  0  0  0  0  0  0  0  0  0  0
   -2.0188    0.5709   -0.4110 H   0  0  0  0  0  0  0  0  0  0  0  0
   -3.3930    1.2462   -1.2861 H   0  0  0  0  0  0  0  0  0  0  0  0
   -0.4775    3.6166   -1.7184 H   0  0  0  0  0  0  0  0  0  0  0  0
   -0.1408    2.0194    2.1406 H   0  0  0  0  0  0  0  0  0  0  0  0
   -0.4964   -2.8253    2.4801 H   0  0  0  0  0  0  0  0  0  0  0  0
   -1.1858   -4.0973    1.4672 H   0  0  0  0  0  0  0  0  0  0  0  0
    0.2769   -0.5934   -0.0113 H   0  0  0  0  0  0  0  0  0  0  0  0
    0.8611   -0.9395    1.6157 H   0  0  0  0  0  0  0  0  0  0  0  0
   -2.7617   -2.2794    1.7652 H   0  0  0  0  0  0  0  0  0  0  0  0
   -1.6068   -1.0918    1.1143 H   0  0  0  0  0  0  0  0  0  0  0  0
    1.9336    2.8999   -1.3716 H   0  0  0  0  0  0  0  0  0  0  0  0
    1.8183   -0.4121   -1.9075 H   0  0  0  0  0  0  0  0  0  0  0  0
    3.2531   -1.3069    2.0593 H   0  0  0  0  0  0  0  0  0  0  0  0
    4.1254    0.1092   -2.6164 H   0  0  0  0  0  0  0  0  0  0  0  0
    5.5555   -0.7824    1.3364 H   0  0  0  0  0  0  0  0  0  0  0  0
    5.9982   -0.0743   -0.9997 H   0  0  0  0  0  0  0  0  0  0  0  0
   -3.6691   -2.6501   -2.6990 H   0  0  0  0  0  0  0  0  0  0  0  0
   -4.7334   -1.3387   -2.3057 H   0  0  0  0  0  0  0  0  0  0  0  0
  1  9  1  0  0  0  0
  1 17  1  0  0  0  0
  2 12  1  0  0  0  0
  2 13  1  0  0  0  0
  3 10  1  0  0  0  0
  3 16  1  0  0  0  0
  3 29  1  0  0  0  0
  4 11  1  0  0  0  0
  4 16  2  0  0  0  0
  5 14  1  0  0  0  0
  5 17  2  0  0  0  0
  6 17  1  0  0  0  0
  6 43  1  0  0  0  0
  6 44  1  0  0  0  0
  7  8  1  0  0  0  0
  7  9  1  0  0  0  0
  7 23  1  0  0  0  0
  7 24  1  0  0  0  0
  8 10  1  0  0  0  0
  8 25  1  0  0  0  0
  8 26  1  0  0  0  0
  9 27  1  0  0  0  0
  9 28  1  0  0  0  0
 10 11  2  0  0  0  0
 11 30  1  0  0  0  0
 12 14  1  0  0  0  0
 12 31  1  0  0  0  0
 12 32  1  0  0  0  0
 13 15  1  0  0  0  0
 13 33  1  0  0  0  0
 13 34  1  0  0  0  0
 14 35  1  0  0  0  0
 14 36  1  0  0  0  0
 15 18  2  0  0  0  0
 15 19  1  0  0  0  0
 16 37  1  0  0  0  0
 18 20  1  0  0  0  0
 18 38  1  0  0  0  0
 19 21  2  0  0  0  0
 19 39  1  0  0  0  0
 20 22  2  0  0  0  0
 20 40  1  0  0  0  0
 21 22  1  0  0  0  0
 21 41  1  0  0  0  0
 22 42  1  0  0  0  0
M  END
> <PUBCHEM_COMPOUND_CID>
128066

> <PUBCHEM_CONFORMER_RMSD>
1.2

> <PUBCHEM_CONFORMER_DIVERSEORDER>
1
154
37
23
86
67
60
176
64
126
35
49
125
174
41
186
81
21
120
140
102
28
158
189
69
107
33
47
68
93
108
106
157
83
129
101
133
61
45
194
127
97
163
19
9
27
55
13
193
115
15
153
2
181
5
54
155
159
56
96
48
84
139
150
151
43
161
195
12
29
149
7
3
65
185
95
169
180
87
62
10
4
104
75
38
14
147
182
123
160
88
131
164
17
46
36
119
18
172
152
111
175
121
22
39
130
136
117
170
58
8
11
31
190
57
183
142
76
30
138
144
184
114
168
26
105
92
177
59
80
100
128
103
53
113
32
191
74
66
99
116
16
6
188
72
162
141
94
70
24
52
134
44
122
173
79
78
82
112
98
20
110
167
143
42
89
137
50
179
25
145
192
40
187
124
71
51
63
109
148
132
146
90
165
166
85
178
171
77
73
156
135
91
34
118

> <PUBCHEM_MMFF94_PARTIAL_CHARGES>
31
1 -0.37
10 -0.33
11 0.08
12 0.23
13 0.37
14 0.25
15 -0.14
16 0.04
17 0.64
18 -0.15
19 -0.15
2 -0.46
20 -0.15
21 -0.15
22 -0.15
29 0.27
3 0.03
30 0.15
37 0.15
38 0.15
39 0.15
4 -0.57
40 0.15
41 0.15
42 0.15
43 0.4
44 0.4
5 -0.7
6 -0.85
8 0.18
9 0.23

> <PUBCHEM_EFFECTIVE_ROTOR_COUNT>
10

> <PUBCHEM_PHARMACOPHORE_FEATURES>
7
1 3 donor
1 6 donor
3 3 4 16 cation
3 5 6 17 cation
4 1 7 8 9 hydrophobe
5 3 4 10 11 16 rings
6 15 18 19 20 21 22 rings

> <PUBCHEM_HEAVY_ATOM_COUNT>
22

> <PUBCHEM_ATOM_DEF_STEREO_COUNT>
0

> <PUBCHEM_ATOM_UDEF_STEREO_COUNT>
0

> <PUBCHEM_BOND_DEF_STEREO_COUNT>
0

> <PUBCHEM_BOND_UDEF_STEREO_COUNT>
0

> <PUBCHEM_ISOTOPIC_ATOM_COUNT>
0

> <PUBCHEM_COMPONENT_COUNT>
1

> <PUBCHEM_CACTVS_TAUTO_COUNT>
4

> <PUBCHEM_CONFORMER_ID>
0001F44200000001

> <PUBCHEM_MMFF94_ENERGY>
43.846

> <PUBCHEM_FEATURE_SELFOVERLAP>
35.52

> <PUBCHEM_SHAPE_FINGERPRINT>
10670039 82 18263654987165659798
10871710 139 18337955576381281817
1100329 8 18410295830849267641
12553582 1 18409730660054784907
12596599 1 17989214745662103523
12788726 201 18410303488406593648
13122387 1 18410576141494052697
13140716 1 18339085990109024265
1361 2 15240887987618520395
14081887 123 18199740354456727584
14251757 5 18335717064911957134
14289585 56 16880778245007754470
14765038 42 18199489695659739800
14931854 50 18336823100758333415
17357779 13 18272647982667718106
17492 54 18187090516002295233
17818456 19 18191293902228160146
19026451 147 17912058849556523535
19930381 70 17042041837126598451
20775438 99 17119698092733951871
20905425 154 17980216492877202124
21315764 21 16951940922084703751
23402539 116 18412261723264428286
23557571 272 18272657814275185102
238 59 17117466122730614703
3052486 1 18335689517001971696
338550 245 17974013843111485754
469060 322 18191331349920536787
6438718 38 18201445735514199311
81228 2 18340222799280303890

> <PUBCHEM_SHAPE_MULTIPOLES>
440.52
8.49
4.75
1.39
4.94
1.84
-0.34
-2.27
-2.07
-3.69
0.67
-0.01
-0.52
-1.19

> <PUBCHEM_SHAPE_SELFOVERLAP>
874.349

> <PUBCHEM_SHAPE_VOLUME>
263.2

> <PUBCHEM_COORDINATE_TYPE>
2
5
10

$$$$
