12804717
  -OEChem-03292013303D

 39 41  0     1  0  0  0  0  0999 V2000
   -2.2200    0.6222    0.4120 O   0  0  0  0  0  0  0  0  0  0  0  0
    0.6862   -0.2915    2.4961 O   0  0  0  0  0  0  0  0  0  0  0  0
    0.5732    2.1839    0.4998 O   0  0  0  0  0  0  0  0  0  0  0  0
    1.4323   -3.0432   -0.1966 O   0  0  0  0  0  0  0  0  0  0  0  0
    2.9732    2.7635   -0.1907 O   0  0  0  0  0  0  0  0  0  0  0  0
   -5.0583    1.0863   -2.0935 O   0  0  0  0  0  0  0  0  0  0  0  0
   -5.1986    0.0820   -0.0558 O   0  0  0  0  0  0  0  0  0  0  0  0
   -0.0171   -0.0370    1.2789 C   0  0  1  0  0  0  0  0  0  0  0  0
   -0.1122   -1.3385    0.4787 C   0  0  1  0  0  0  0  0  0  0  0  0
   -1.4209    0.5277    1.5974 C   0  0  2  0  0  0  0  0  0  0  0  0
   -1.0529   -1.1868   -0.7201 C   0  0  0  0  0  0  0  0  0  0  0  0
   -2.3997   -0.6088   -0.2905 C   0  0  2  0  0  0  0  0  0  0  0  0
    0.8489    0.9890    0.5505 C   0  0  0  0  0  0  0  0  0  0  0  0
    1.2351   -1.8455   -0.0060 C   0  0  0  0  0  0  0  0  0  0  0  0
    2.1001    0.5029   -0.0720 C   0  0  0  0  0  0  0  0  0  0  0  0
    2.2957   -0.8588   -0.3103 C   0  0  0  0  0  0  0  0  0  0  0  0
   -2.1702   -0.2273    2.7006 C   0  0  0  0  0  0  0  0  0  0  0  0
   -3.2783   -0.3209   -1.5019 C   0  0  0  0  0  0  0  0  0  0  0  0
    3.0985    1.4237   -0.4121 C   0  0  0  0  0  0  0  0  0  0  0  0
    3.4985   -1.2994   -0.8763 C   0  0  0  0  0  0  0  0  0  0  0  0
   -4.6015    0.2766   -1.1038 C   0  0  0  0  0  0  0  0  0  0  0  0
    4.2936    0.9795   -0.9777 C   0  0  0  0  0  0  0  0  0  0  0  0
    4.4944   -0.3797   -1.2068 C   0  0  0  0  0  0  0  0  0  0  0  0
   -0.4951   -2.1237    1.1458 H   0  0  0  0  0  0  0  0  0  0  0  0
   -1.3184    1.5549    1.9689 H   0  0  0  0  0  0  0  0  0  0  0  0
   -0.5888   -0.5258   -1.4642 H   0  0  0  0  0  0  0  0  0  0  0  0
   -1.1971   -2.1560   -1.2135 H   0  0  0  0  0  0  0  0  0  0  0  0
   -2.9223   -1.3210    0.3587 H   0  0  0  0  0  0  0  0  0  0  0  0
   -2.2559   -1.2967    2.4875 H   0  0  0  0  0  0  0  0  0  0  0  0
   -1.6657   -0.1173    3.6657 H   0  0  0  0  0  0  0  0  0  0  0  0
   -3.1901    0.1598    2.7989 H   0  0  0  0  0  0  0  0  0  0  0  0
   -2.7659    0.4011   -2.1506 H   0  0  0  0  0  0  0  0  0  0  0  0
   -3.4711   -1.2327   -2.0766 H   0  0  0  0  0  0  0  0  0  0  0  0
    1.5014   -0.7834    2.3044 H   0  0  0  0  0  0  0  0  0  0  0  0
    3.6773   -2.3528   -1.0749 H   0  0  0  0  0  0  0  0  0  0  0  0
    5.0759    1.6876   -1.2382 H   0  0  0  0  0  0  0  0  0  0  0  0
    5.4259   -0.7241   -1.6467 H   0  0  0  0  0  0  0  0  0  0  0  0
    2.1764    2.9499    0.3289 H   0  0  0  0  0  0  0  0  0  0  0  0
   -5.9211    1.4929   -1.8643 H   0  0  0  0  0  0  0  0  0  0  0  0
  1 10  1  0  0  0  0
  1 12  1  0  0  0  0
  2  8  1  0  0  0  0
  2 34  1  0  0  0  0
  3 13  2  0  0  0  0
  4 14  2  0  0  0  0
  5 19  1  0  0  0  0
  5 38  1  0  0  0  0
  6 21  1  0  0  0  0
  6 39  1  0  0  0  0
  7 21  2  0  0  0  0
  8  9  1  0  0  0  0
  8 10  1  0  0  0  0
  8 13  1  0  0  0  0
  9 11  1  0  0  0  0
  9 14  1  0  0  0  0
  9 24  1  0  0  0  0
 10 17  1  0  0  0  0
 10 25  1  0  0  0  0
 11 12  1  0  0  0  0
 11 26  1  0  0  0  0
 11 27  1  0  0  0  0
 12 18  1  0  0  0  0
 12 28  1  0  0  0  0
 13 15  1  0  0  0  0
 14 16  1  0  0  0  0
 15 16  2  0  0  0  0
 15 19  1  0  0  0  0
 16 20  1  0  0  0  0
 17 29  1  0  0  0  0
 17 30  1  0  0  0  0
 17 31  1  0  0  0  0
 18 21  1  0  0  0  0
 18 32  1  0  0  0  0
 18 33  1  0  0  0  0
 19 22  2  0  0  0  0
 20 23  2  0  0  0  0
 20 35  1  0  0  0  0
 22 23  1  0  0  0  0
 22 36  1  0  0  0  0
 23 37  1  0  0  0  0
M  END
> <PUBCHEM_COMPOUND_CID>
12804717

> <PUBCHEM_CONFORMER_RMSD>
0.6

> <PUBCHEM_CONFORMER_DIVERSEORDER>
2
14
9
15
17
6
4
13
16
11
12
3
5
7
10
1
8

> <PUBCHEM_MMFF94_PARTIAL_CHARGES>
27
1 -0.56
10 0.28
12 0.28
13 0.42
14 0.42
15 0.09
16 0.09
18 0.06
19 0.08
2 -0.68
20 -0.15
21 0.66
22 -0.15
23 -0.15
3 -0.57
34 0.4
35 0.15
36 0.15
37 0.15
38 0.45
39 0.5
4 -0.57
5 -0.53
6 -0.65
7 -0.57
8 0.34
9 0.06

> <PUBCHEM_EFFECTIVE_ROTOR_COUNT>
2.8

> <PUBCHEM_PHARMACOPHORE_FEATURES>
12
1 1 acceptor
1 2 acceptor
1 2 donor
1 3 acceptor
1 4 acceptor
1 5 donor
1 6 acceptor
1 7 acceptor
3 6 7 21 anion
6 1 8 9 10 11 12 rings
6 15 16 19 20 22 23 rings
6 8 9 13 14 15 16 rings

> <PUBCHEM_HEAVY_ATOM_COUNT>
23

> <PUBCHEM_ATOM_DEF_STEREO_COUNT>
4

> <PUBCHEM_ATOM_UDEF_STEREO_COUNT>
0

> <PUBCHEM_BOND_DEF_STEREO_COUNT>
0

> <PUBCHEM_BOND_UDEF_STEREO_COUNT>
0

> <PUBCHEM_ISOTOPIC_ATOM_COUNT>
0

> <PUBCHEM_COMPONENT_COUNT>
1

> <PUBCHEM_CACTVS_TAUTO_COUNT>
10

> <PUBCHEM_CONFORMER_ID>
00C3626D00000002

> <PUBCHEM_MMFF94_ENERGY>
61.9129

> <PUBCHEM_FEATURE_SELFOVERLAP>
61.036

> <PUBCHEM_SHAPE_FINGERPRINT>
10498660 4 17168692039041216365
10948715 1 17240480333743561363
11578080 2 16589171340986313563
11582403 64 17827330470603431016
11725454 13 17603859035445566622
11796584 16 13830133892958459541
12035759 4 18131354085493966263
12236239 1 17632309946743963090
12363563 72 15195564636878778829
12553582 1 16200157646327098903
12592029 89 18407757032103441442
12633257 1 14779822823453960660
12730499 353 18187088343181444691
12788726 201 16558485123060137475
13009979 54 17271732671995481786
13140716 1 18197803148671754754
13464514 151 17822287929567790533
13544653 18 11095893669782645645
13583140 156 17458912655755843394
14115302 16 17774998011777047407
15163728 17 16371023862001499622
15210252 30 18113614577740304252
16752209 62 16988561260880906663
16945 1 18339376166758152154
17492 54 18342748437729409548
1813 80 14045743746171534923
18186145 218 18340219573802010398
18219364 16 18261971741941966882
192875 21 18343585118939124786
19784866 140 17561084730886118951
19862831 5 18060136561278808911
200 152 17632864122063341836
20645477 70 18410581664732681838
22112679 90 17131849628728149931
221357 26 18412536596908235869
22620623 9 15051193219506776345
231179 274 17822006514725682628
23557571 272 16878525508474446899
23559900 14 17702660115911148480
23598291 2 17844826792729451138
238 59 18409168818028878514
25 1 18334856129863619798
2748010 2 18124056760528931610
2838139 119 17749383814956416900
3009799 131 18335416851604493574
3060560 45 18410849971539967470
427121 178 15936405590143741449
463206 1 16128655245304842359
5895379 119 17831273035585036197
602551 16 14836128732049527767
6442390 28 16732704960852820619
77492 1 17632033973968544298
7808743 9 15791738515612635324

> <PUBCHEM_SHAPE_MULTIPOLES>
432.24
8.55
2.06
1.89
5.21
0.18
0.9
-1.45
-6.02
-1.98
-0.13
1.93
-0.27
-0.09

> <PUBCHEM_SHAPE_SELFOVERLAP>
946.642

> <PUBCHEM_SHAPE_VOLUME>
229.6

> <PUBCHEM_COORDINATE_TYPE>
2
5
10

$$$$
