128077
  -OEChem-03292013323D

 58 63  0     1  0  0  0  0  0999 V2000
    3.7466    0.0373    0.6134 O   0  0  0  0  0  0  0  0  0  0  0  0
   -3.0872   -0.7073   -1.8178 O   0  0  0  0  0  0  0  0  0  0  0  0
    2.9902    0.9997   -1.3743 O   0  0  0  0  0  0  0  0  0  0  0  0
   -1.2540    2.2516    0.3033 O   0  0  0  0  0  0  0  0  0  0  0  0
    7.6828    0.4504   -0.5961 O   0  0  0  0  0  0  0  0  0  0  0  0
    6.2136    0.9762    1.7047 O   0  0  0  0  0  0  0  0  0  0  0  0
    5.5414    0.5469   -2.5380 O   0  0  0  0  0  0  0  0  0  0  0  0
    2.9483   -1.3918    2.8180 O   0  0  0  0  0  0  0  0  0  0  0  0
   -4.0983   -2.6183   -2.6454 O   0  0  0  0  0  0  0  0  0  0  0  0
   -5.4105    4.2707    1.3236 O   0  0  0  0  0  0  0  0  0  0  0  0
   -2.5027   -0.2443   -0.5592 C   0  0  2  0  0  0  0  0  0  0  0  0
    6.4161   -0.1757   -0.4114 C   0  0  1  0  0  0  0  0  0  0  0  0
    6.1050   -0.3045    1.0801 C   0  0  2  0  0  0  0  0  0  0  0  0
    5.3420    0.6422   -1.1277 C   0  0  2  0  0  0  0  0  0  0  0  0
    4.6784   -0.8323    1.2683 C   0  0  1  0  0  0  0  0  0  0  0  0
    3.9456    0.1098   -0.7978 C   0  0  1  0  0  0  0  0  0  0  0  0
   -1.0443    0.0858   -0.8084 C   0  0  0  0  0  0  0  0  0  0  0  0
   -2.6876   -1.4415    0.3163 C   0  0  0  0  0  0  0  0  0  0  0  0
   -3.2917    0.9608   -0.0869 C   0  0  0  0  0  0  0  0  0  0  0  0
   -0.5129    1.2963   -0.3491 C   0  0  0  0  0  0  0  0  0  0  0  0
    4.2767   -0.9071    2.7367 C   0  0  0  0  0  0  0  0  0  0  0  0
   -3.3102   -2.4510   -0.3956 C   0  0  0  0  0  0  0  0  0  0  0  0
   -2.6210    2.1172    0.3275 C   0  0  0  0  0  0  0  0  0  0  0  0
    1.6756    0.7007   -1.1911 C   0  0  0  0  0  0  0  0  0  0  0  0
   -0.1863   -0.8109   -1.4693 C   0  0  0  0  0  0  0  0  0  0  0  0
    0.8399    1.6004   -0.5342 C   0  0  0  0  0  0  0  0  0  0  0  0
   -3.5669   -1.9905   -1.7515 C   0  0  0  0  0  0  0  0  0  0  0  0
   -2.3372   -1.6383    1.6429 C   0  0  0  0  0  0  0  0  0  0  0  0
    1.1622   -0.5043   -1.6605 C   0  0  0  0  0  0  0  0  0  0  0  0
   -4.6962    0.9449   -0.0207 C   0  0  0  0  0  0  0  0  0  0  0  0
   -3.6110   -3.6813    0.1588 C   0  0  0  0  0  0  0  0  0  0  0  0
   -3.3307    3.2243    0.8046 C   0  0  0  0  0  0  0  0  0  0  0  0
   -2.6285   -2.8725    2.2312 C   0  0  0  0  0  0  0  0  0  0  0  0
   -5.4047    2.0522    0.4490 C   0  0  0  0  0  0  0  0  0  0  0  0
   -4.7217    3.1913    0.8633 C   0  0  0  0  0  0  0  0  0  0  0  0
   -3.2611   -3.8873    1.4935 C   0  0  0  0  0  0  0  0  0  0  0  0
    6.4852   -1.1744   -0.8604 H   0  0  0  0  0  0  0  0  0  0  0  0
    6.8334   -0.9626    1.5668 H   0  0  0  0  0  0  0  0  0  0  0  0
    5.4314    1.7030   -0.8631 H   0  0  0  0  0  0  0  0  0  0  0  0
    4.5752   -1.8309    0.8235 H   0  0  0  0  0  0  0  0  0  0  0  0
    3.8238   -0.8872   -1.2412 H   0  0  0  0  0  0  0  0  0  0  0  0
    4.2947    0.0762    3.2175 H   0  0  0  0  0  0  0  0  0  0  0  0
    4.9310   -1.5843    3.2935 H   0  0  0  0  0  0  0  0  0  0  0  0
   -0.5591   -1.7617   -1.8416 H   0  0  0  0  0  0  0  0  0  0  0  0
    1.2415    2.5426   -0.1685 H   0  0  0  0  0  0  0  0  0  0  0  0
   -1.8482   -0.8588    2.2175 H   0  0  0  0  0  0  0  0  0  0  0  0
    1.7908   -1.2145   -2.1900 H   0  0  0  0  0  0  0  0  0  0  0  0
   -5.2554    0.0652   -0.3295 H   0  0  0  0  0  0  0  0  0  0  0  0
    7.8318    0.5298   -1.5539 H   0  0  0  0  0  0  0  0  0  0  0  0
    7.1123    1.3062    1.5342 H   0  0  0  0  0  0  0  0  0  0  0  0
    4.8314    1.0546   -2.9669 H   0  0  0  0  0  0  0  0  0  0  0  0
   -4.0992   -4.4620   -0.4134 H   0  0  0  0  0  0  0  0  0  0  0  0
   -2.7906    4.1123    1.1253 H   0  0  0  0  0  0  0  0  0  0  0  0
   -2.3631   -3.0504    3.2699 H   0  0  0  0  0  0  0  0  0  0  0  0
   -6.4898    2.0162    0.4918 H   0  0  0  0  0  0  0  0  0  0  0  0
   -3.4791   -4.8399    1.9685 H   0  0  0  0  0  0  0  0  0  0  0  0
    2.3822   -0.7861    2.3095 H   0  0  0  0  0  0  0  0  0  0  0  0
   -4.7780    4.9687    1.5664 H   0  0  0  0  0  0  0  0  0  0  0  0
  1 15  1  0  0  0  0
  1 16  1  0  0  0  0
  2 11  1  0  0  0  0
  2 27  1  0  0  0  0
  3 16  1  0  0  0  0
  3 24  1  0  0  0  0
  4 20  1  0  0  0  0
  4 23  1  0  0  0  0
  5 12  1  0  0  0  0
  5 49  1  0  0  0  0
  6 13  1  0  0  0  0
  6 50  1  0  0  0  0
  7 14  1  0  0  0  0
  7 51  1  0  0  0  0
  8 21  1  0  0  0  0
  8 57  1  0  0  0  0
  9 27  2  0  0  0  0
 10 35  1  0  0  0  0
 10 58  1  0  0  0  0
 11 17  1  0  0  0  0
 11 18  1  0  0  0  0
 11 19  1  0  0  0  0
 12 13  1  0  0  0  0
 12 14  1  0  0  0  0
 12 37  1  0  0  0  0
 13 15  1  0  0  0  0
 13 38  1  0  0  0  0
 14 16  1  0  0  0  0
 14 39  1  0  0  0  0
 15 21  1  0  0  0  0
 15 40  1  0  0  0  0
 16 41  1  0  0  0  0
 17 20  2  0  0  0  0
 17 25  1  0  0  0  0
 18 22  1  0  0  0  0
 18 28  2  0  0  0  0
 19 23  2  0  0  0  0
 19 30  1  0  0  0  0
 20 26  1  0  0  0  0
 21 42  1  0  0  0  0
 21 43  1  0  0  0  0
 22 27  1  0  0  0  0
 22 31  2  0  0  0  0
 23 32  1  0  0  0  0
 24 26  2  0  0  0  0
 24 29  1  0  0  0  0
 25 29  2  0  0  0  0
 25 44  1  0  0  0  0
 26 45  1  0  0  0  0
 28 33  1  0  0  0  0
 28 46  1  0  0  0  0
 29 47  1  0  0  0  0
 30 34  2  0  0  0  0
 30 48  1  0  0  0  0
 31 36  1  0  0  0  0
 31 52  1  0  0  0  0
 32 35  2  0  0  0  0
 32 53  1  0  0  0  0
 33 36  2  0  0  0  0
 33 54  1  0  0  0  0
 34 35  1  0  0  0  0
 34 55  1  0  0  0  0
 36 56  1  0  0  0  0
M  END
> <PUBCHEM_COMPOUND_CID>
128077

> <PUBCHEM_CONFORMER_RMSD>
0.8

> <PUBCHEM_CONFORMER_DIVERSEORDER>
5
61
76
8
82
30
64
88
81
91
70
15
79
55
49
62
89
45
80
57
28
54
77
69
87
86
75
58
29
13
67
6
37
84
53
16
40
39
52
90
38
42
7
22
34
63
68
43
21
26
20
23
46
50
56
59
32
18
4
51
14
44
27
65
3
24
19
41
2
73
47
72
25
71
1
48
17
10
66
78
74
35
60
33
9
31
36
85
83
11
12

> <PUBCHEM_MMFF94_PARTIAL_CHARGES>
51
1 -0.56
10 -0.53
11 0.71
12 0.28
13 0.28
14 0.28
15 0.28
16 0.56
17 -0.14
18 -0.14
19 -0.14
2 -0.43
20 0.08
21 0.28
22 0.09
23 0.08
24 0.08
25 -0.15
26 -0.15
27 0.63
28 -0.15
29 -0.15
3 -0.36
30 -0.15
31 -0.15
32 -0.15
33 -0.15
34 -0.15
35 0.08
36 -0.15
4 -0.17
44 0.15
45 0.15
46 0.15
47 0.15
48 0.15
49 0.4
5 -0.68
50 0.4
51 0.4
52 0.15
53 0.15
54 0.15
55 0.15
56 0.15
57 0.4
58 0.45
6 -0.68
7 -0.68
8 -0.68
9 -0.57

> <PUBCHEM_EFFECTIVE_ROTOR_COUNT>
4.6

> <PUBCHEM_PHARMACOPHORE_FEATURES>
19
1 1 acceptor
1 10 donor
1 3 acceptor
1 4 acceptor
1 5 acceptor
1 5 donor
1 6 acceptor
1 6 donor
1 7 acceptor
1 7 donor
1 8 acceptor
1 8 donor
1 9 acceptor
5 2 11 18 22 27 rings
6 1 12 13 14 15 16 rings
6 17 20 24 25 26 29 rings
6 18 22 28 31 33 36 rings
6 19 23 30 32 34 35 rings
6 4 11 17 19 20 23 rings

> <PUBCHEM_HEAVY_ATOM_COUNT>
36

> <PUBCHEM_ATOM_DEF_STEREO_COUNT>
5

> <PUBCHEM_ATOM_UDEF_STEREO_COUNT>
1

> <PUBCHEM_BOND_DEF_STEREO_COUNT>
0

> <PUBCHEM_BOND_UDEF_STEREO_COUNT>
0

> <PUBCHEM_ISOTOPIC_ATOM_COUNT>
0

> <PUBCHEM_COMPONENT_COUNT>
1

> <PUBCHEM_CACTVS_TAUTO_COUNT>
3

> <PUBCHEM_CONFORMER_ID>
0001F44D00000005

> <PUBCHEM_MMFF94_ENERGY>
118.3408

> <PUBCHEM_FEATURE_SELFOVERLAP>
96.645

> <PUBCHEM_SHAPE_FINGERPRINT>
11135926 11 17240478097015348154
11443803 9 18200024042222595917
11545043 162 17775567550769216574
11578080 2 17203329983884113571
12596602 18 18335982073585311548
12616971 3 17312823767072752868
12988421 55 18118971296007763541
13560911 23 18338226159495666128
13583140 156 16630524029505437166
13636023 51 17845378752626414972
13782708 43 17704078400365178902
14068700 675 18191301800467165087
14840074 17 17241048704230540562
14844126 61 18271525390192019023
15131766 46 16446475807638852621
15250474 111 17967528012960821098
15297060 5 18410294679798325490
15444296 121 18338248097587421876
15484559 13 14501393163250253678
15537594 2 17167864132613131610
15799311 1 17167587089905630598
16067690 210 18271229552644510104
17809404 112 17418097602526343476
19246450 95 17610605437173432336
20511986 3 18113609076113465876
20554085 129 17984976000090155489
21033648 29 17274807053046600656
21424621 283 17487629515951964225
21623969 137 15791737365284384904
21703447 108 18050845816799793761
21792961 116 16415490312449658292
22122407 14 13902193694145548602
23522609 53 17678487275375671524
23559900 14 17986970569742605620
3383291 50 18343586270180777727
376196 1 17413033089187876797
4073 2 18410582777862317806
469060 322 17774159157773355407
484985 159 17968663834437523923
508706 21 17631717344383874541
5104073 3 18335422421887504088
5364581 5 18058158600317816040
6691757 9 18411706452649202849
6697151 62 17763741393113104707
7226269 152 18271806766168574337
9981440 41 18130230363547279127

> <PUBCHEM_SHAPE_MULTIPOLES>
682.17
15.65
4.08
2.33
27.28
0.49
-0.25
-3.88
-2.14
-10.28
-2
1.26
1.29
-2.86

> <PUBCHEM_SHAPE_SELFOVERLAP>
1537.084

> <PUBCHEM_SHAPE_VOLUME>
354.7

> <PUBCHEM_COORDINATE_TYPE>
2
5
10

$$$$
