128002
  -OEChem-03292013323D

 37 36  0     1  0  0  0  0  0999 V2000
    4.8992    2.2026   -1.6425 Cl  0  0  0  0  0  0  0  0  0  0  0  0
    2.7452   -4.1301    0.4095 Cl  0  0  0  0  0  0  0  0  0  0  0  0
    0.6765    0.9678    2.1793 O   0  0  0  0  0  0  0  0  0  0  0  0
   -1.1145    2.5579    0.8852 O   0  0  0  0  0  0  0  0  0  0  0  0
   -3.4002    1.6254   -0.2941 O   0  0  0  0  0  0  0  0  0  0  0  0
   -3.4429   -0.9466    0.9174 O   0  0  0  0  0  0  0  0  0  0  0  0
   -4.8567   -1.2701   -1.3394 O   0  0  0  0  0  0  0  0  0  0  0  0
    2.0980   -0.1748    0.0085 N   0  0  0  0  0  0  0  0  0  0  0  0
   -0.0422    0.4130    1.0709 C   0  0  1  0  0  0  0  0  0  0  0  0
   -1.3893    1.1515    0.9564 C   0  0  2  0  0  0  0  0  0  0  0  0
    0.8394    0.5461   -0.1764 C   0  0  0  0  0  0  0  0  0  0  0  0
   -2.2494    0.7682   -0.2625 C   0  0  1  0  0  0  0  0  0  0  0  0
   -2.7469   -0.6809   -0.2927 C   0  0  2  0  0  0  0  0  0  0  0  0
    3.1011    0.2945   -0.9467 C   0  0  0  0  0  0  0  0  0  0  0  0
    1.8887   -1.6150   -0.1367 C   0  0  0  0  0  0  0  0  0  0  0  0
    3.6909    1.6147   -0.4753 C   0  0  0  0  0  0  0  0  0  0  0  0
    2.9817   -2.3761    0.5975 C   0  0  0  0  0  0  0  0  0  0  0  0
   -3.6787   -0.9480   -1.4583 C   0  0  0  0  0  0  0  0  0  0  0  0
   -0.2508   -0.6330    1.3116 H   0  0  0  0  0  0  0  0  0  0  0  0
   -1.9596    1.0243    1.8836 H   0  0  0  0  0  0  0  0  0  0  0  0
    0.3246    0.1818   -1.0730 H   0  0  0  0  0  0  0  0  0  0  0  0
    1.0286    1.6120   -0.3330 H   0  0  0  0  0  0  0  0  0  0  0  0
   -1.7176    0.9942   -1.1926 H   0  0  0  0  0  0  0  0  0  0  0  0
   -1.9042   -1.3759   -0.3660 H   0  0  0  0  0  0  0  0  0  0  0  0
    2.6733    0.3913   -1.9540 H   0  0  0  0  0  0  0  0  0  0  0  0
    3.9303   -0.4170   -1.0364 H   0  0  0  0  0  0  0  0  0  0  0  0
    1.8549   -1.9019   -1.1968 H   0  0  0  0  0  0  0  0  0  0  0  0
    0.9325   -1.9397    0.2863 H   0  0  0  0  0  0  0  0  0  0  0  0
    0.1218    0.8604    2.9708 H   0  0  0  0  0  0  0  0  0  0  0  0
   -0.7954    2.7620   -0.0097 H   0  0  0  0  0  0  0  0  0  0  0  0
    4.1969    1.4983    0.4887 H   0  0  0  0  0  0  0  0  0  0  0  0
    2.9500    2.4109   -0.3772 H   0  0  0  0  0  0  0  0  0  0  0  0
    2.9629   -2.1564    1.6700 H   0  0  0  0  0  0  0  0  0  0  0  0
    3.9833   -2.1553    0.2207 H   0  0  0  0  0  0  0  0  0  0  0  0
   -3.9162    1.4529    0.5122 H   0  0  0  0  0  0  0  0  0  0  0  0
   -3.2234   -0.8404   -2.4581 H   0  0  0  0  0  0  0  0  0  0  0  0
   -3.6460   -1.8976    0.9348 H   0  0  0  0  0  0  0  0  0  0  0  0
  1 16  1  0  0  0  0
  2 17  1  0  0  0  0
  3  9  1  0  0  0  0
  3 29  1  0  0  0  0
  4 10  1  0  0  0  0
  4 30  1  0  0  0  0
  5 12  1  0  0  0  0
  5 35  1  0  0  0  0
  6 13  1  0  0  0  0
  6 37  1  0  0  0  0
  7 18  2  0  0  0  0
  8 11  1  0  0  0  0
  8 14  1  0  0  0  0
  8 15  1  0  0  0  0
  9 10  1  0  0  0  0
  9 11  1  0  0  0  0
  9 19  1  0  0  0  0
 10 12  1  0  0  0  0
 10 20  1  0  0  0  0
 11 21  1  0  0  0  0
 11 22  1  0  0  0  0
 12 13  1  0  0  0  0
 12 23  1  0  0  0  0
 13 18  1  0  0  0  0
 13 24  1  0  0  0  0
 14 16  1  0  0  0  0
 14 25  1  0  0  0  0
 14 26  1  0  0  0  0
 15 17  1  0  0  0  0
 15 27  1  0  0  0  0
 15 28  1  0  0  0  0
 16 31  1  0  0  0  0
 16 32  1  0  0  0  0
 17 33  1  0  0  0  0
 17 34  1  0  0  0  0
 18 36  1  0  0  0  0
M  END
> <PUBCHEM_COMPOUND_CID>
128002

> <PUBCHEM_CONFORMER_RMSD>
0.8

> <PUBCHEM_CONFORMER_DIVERSEORDER>
1
131
212
354
51
67
156
261
301
319
157
341
326
270
110
194
163
356
240
256
162
182
165
355
224
105
351
122
340
160
115
192
247
352
136
197
336
339
29
283
35
202
200
171
138
241
107
317
177
325
316
257
40
358
180
102
249
286
38
269
289
21
190
5
330
94
46
357
130
208
312
274
91
335
106
314
305
95
133
334
329
78
281
149
227
4
359
230
201
272
221
120
167
206
324
318
89
353
34
166
74
103
255
214
307
147
158
303
327
253
321
279
300
148
292
346
109
265
159
80
86
344
222
174
134
264
219
220
223
118
150
331
92
169
60
77
342
238
294
248
203
207
8
234
175
39
242
267
183
235
251
128
146
186
262
348
59
168
184
322
104
347
306
145
338
42
259
277
226
47
65
63
244
121
161
258
309
233
179
9
282
16
196
41
114
199
250
246
215
320
23
178
188
137
111
170
154
210
310
291
298
129
252
113
323
79
217
43
72
191
285
73
97
299
36
53
333
117
48
17
24
58
32
198
345
280
57
216
271
296
350
302
181
189
85
52
276
273
11
209
141
225
99
313
33
3
135
311
284
139
126
293
96
71
25
28
26
61
100
195
98
140
176
151
7
218
260
349
243
82
124
332
75
155
297
27
295
308
20
87
185
245
229
268
62
237
204
254
13
263
50
288
213
2
187
116
193
125
66
101
275
164
14
143
55
84
231
304
142
172
205
22
127
315
18
31
287
90
132
328
68
10
228
123
93
112
278
15
83
119
54
232
108
173
76
69
239
343
290
153
30
64
44
12
88
19
37
70
236
6
49
45
211
152
144
81
56
266
337

> <PUBCHEM_MMFF94_PARTIAL_CHARGES>
23
1 -0.29
10 0.28
11 0.27
12 0.28
13 0.34
14 0.27
15 0.27
16 0.29
17 0.29
18 0.45
2 -0.29
29 0.4
3 -0.68
30 0.4
35 0.4
36 0.06
37 0.4
4 -0.68
5 -0.68
6 -0.68
7 -0.57
8 -0.81
9 0.28

> <PUBCHEM_EFFECTIVE_ROTOR_COUNT>
10

> <PUBCHEM_PHARMACOPHORE_FEATURES>
10
1 3 acceptor
1 3 donor
1 4 acceptor
1 4 donor
1 5 acceptor
1 5 donor
1 6 acceptor
1 6 donor
1 7 acceptor
1 8 cation

> <PUBCHEM_HEAVY_ATOM_COUNT>
18

> <PUBCHEM_ATOM_DEF_STEREO_COUNT>
4

> <PUBCHEM_ATOM_UDEF_STEREO_COUNT>
0

> <PUBCHEM_BOND_DEF_STEREO_COUNT>
0

> <PUBCHEM_BOND_UDEF_STEREO_COUNT>
0

> <PUBCHEM_ISOTOPIC_ATOM_COUNT>
0

> <PUBCHEM_COMPONENT_COUNT>
1

> <PUBCHEM_CACTVS_TAUTO_COUNT>
10

> <PUBCHEM_CONFORMER_ID>
0001F40200000001

> <PUBCHEM_MMFF94_ENERGY>
30.7052

> <PUBCHEM_FEATURE_SELFOVERLAP>
50.784

> <PUBCHEM_SHAPE_FINGERPRINT>
10759866 29 18411418405987414230
11069576 57 18268974454032450654
11725454 13 16733815544853693868
12553582 1 17846777438316523471
12788726 201 17773894020804499785
13004483 165 17036686657158855866
14115302 16 17984977090267510585
14251764 30 14620253969443516780
15003188 33 18191009132926611405
15099037 8 18267582399291109218
15375462 189 18131356318972113899
15502722 9 18333737905517022238
15537594 2 18129663131511769095
15842332 3 18127424362359386216
15852999 172 17531537584903546354
18186145 218 16588030065101708873
20281475 54 18130785625292624777
20645477 70 18187080633177338027
20871999 31 18343018917658907685
21054139 6 18412541046499440742
21452121 199 18266440041217405122
21618674 54 18335703827585159637
21634736 98 18267028258622002182
235170 7 17676759946607788791
23532345 88 18336823083420422414
23559900 14 18268980991261947946
23598288 3 18057621879602628817
23598291 2 18265620870636762574
2871803 45 18272367632777344853
312425 83 17969206855341460317
53777708 50 18339647715638141136
58051976 378 18337957895452677262
603831 33 18343587347515448716
67856867 119 18409441467343778632
7615 1 18198347260455555960
81228 2 15695474992811687256

> <PUBCHEM_SHAPE_MULTIPOLES>
339.84
8.84
3.48
1.48
2.16
3.45
0.16
-0.57
-4.88
-4.7
0.19
0.36
-0.43
-2.27

> <PUBCHEM_SHAPE_SELFOVERLAP>
629.074

> <PUBCHEM_SHAPE_VOLUME>
214.9

> <PUBCHEM_COORDINATE_TYPE>
2
5
10

$$$$
