12804716
  -OEChem-03292013303D

 39 41  0     1  0  0  0  0  0999 V2000
   -2.4995    0.7501   -0.3793 O   0  0  0  0  0  0  0  0  0  0  0  0
   -0.0815    0.2256   -1.8057 O   0  0  0  0  0  0  0  0  0  0  0  0
    1.3971    2.4315   -0.2774 O   0  0  0  0  0  0  0  0  0  0  0  0
    0.8857   -2.9015   -0.0208 O   0  0  0  0  0  0  0  0  0  0  0  0
    3.9484    2.2604   -0.0837 O   0  0  0  0  0  0  0  0  0  0  0  0
   -6.1269   -0.3537   -0.7867 O   0  0  0  0  0  0  0  0  0  0  0  0
   -5.2283    0.7219    1.0066 O   0  0  0  0  0  0  0  0  0  0  0  0
   -0.0680    0.5347   -0.4034 C   0  0  2  0  0  0  0  0  0  0  0  0
   -0.1827   -0.7710    0.3867 C   0  0  1  0  0  0  0  0  0  0  0  0
   -1.2721    1.4522   -0.1078 C   0  0  2  0  0  0  0  0  0  0  0  0
   -1.5245   -1.4452    0.0886 C   0  0  0  0  0  0  0  0  0  0  0  0
   -2.6776   -0.4710    0.3453 C   0  0  2  0  0  0  0  0  0  0  0  0
    1.2805    1.2114   -0.2063 C   0  0  0  0  0  0  0  0  0  0  0  0
    0.9967   -1.6881    0.1171 C   0  0  0  0  0  0  0  0  0  0  0  0
    2.4662    0.3378   -0.0072 C   0  0  0  0  0  0  0  0  0  0  0  0
    2.3338   -1.0510    0.1090 C   0  0  0  0  0  0  0  0  0  0  0  0
   -1.3125    2.0586    1.2974 C   0  0  0  0  0  0  0  0  0  0  0  0
   -4.0052   -1.0750   -0.0961 C   0  0  0  0  0  0  0  0  0  0  0  0
    3.7409    0.9167    0.0238 C   0  0  0  0  0  0  0  0  0  0  0  0
    3.4723   -1.8551    0.2390 C   0  0  0  0  0  0  0  0  0  0  0  0
   -5.1539   -0.1294    0.1334 C   0  0  0  0  0  0  0  0  0  0  0  0
    4.8724    0.1116    0.1618 C   0  0  0  0  0  0  0  0  0  0  0  0
    4.7386   -1.2712    0.2656 C   0  0  0  0  0  0  0  0  0  0  0  0
   -0.1378   -0.5626    1.4648 H   0  0  0  0  0  0  0  0  0  0  0  0
   -1.2639    2.2845   -0.8227 H   0  0  0  0  0  0  0  0  0  0  0  0
   -1.5406   -1.7812   -0.9565 H   0  0  0  0  0  0  0  0  0  0  0  0
   -1.6478   -2.3422    0.7078 H   0  0  0  0  0  0  0  0  0  0  0  0
   -2.7374   -0.2417    1.4158 H   0  0  0  0  0  0  0  0  0  0  0  0
   -1.2687    1.3005    2.0841 H   0  0  0  0  0  0  0  0  0  0  0  0
   -0.4861    2.7559    1.4596 H   0  0  0  0  0  0  0  0  0  0  0  0
   -2.2512    2.6048    1.4427 H   0  0  0  0  0  0  0  0  0  0  0  0
   -3.9582   -1.2915   -1.1710 H   0  0  0  0  0  0  0  0  0  0  0  0
   -4.2140   -2.0066    0.4399 H   0  0  0  0  0  0  0  0  0  0  0  0
    0.6050   -0.4337   -1.9992 H   0  0  0  0  0  0  0  0  0  0  0  0
    3.3933   -2.9349    0.3323 H   0  0  0  0  0  0  0  0  0  0  0  0
    5.8684    0.5465    0.1862 H   0  0  0  0  0  0  0  0  0  0  0  0
    5.6212   -1.8955    0.3711 H   0  0  0  0  0  0  0  0  0  0  0  0
    4.9014    2.4488   -0.0401 H   0  0  0  0  0  0  0  0  0  0  0  0
   -6.8917    0.2484   -0.6643 H   0  0  0  0  0  0  0  0  0  0  0  0
  1 10  1  0  0  0  0
  1 12  1  0  0  0  0
  2  8  1  0  0  0  0
  2 34  1  0  0  0  0
  3 13  2  0  0  0  0
  4 14  2  0  0  0  0
  5 19  1  0  0  0  0
  5 38  1  0  0  0  0
  6 21  1  0  0  0  0
  6 39  1  0  0  0  0
  7 21  2  0  0  0  0
  8  9  1  0  0  0  0
  8 10  1  0  0  0  0
  8 13  1  0  0  0  0
  9 11  1  0  0  0  0
  9 14  1  0  0  0  0
  9 24  1  0  0  0  0
 10 17  1  0  0  0  0
 10 25  1  0  0  0  0
 11 12  1  0  0  0  0
 11 26  1  0  0  0  0
 11 27  1  0  0  0  0
 12 18  1  0  0  0  0
 12 28  1  0  0  0  0
 13 15  1  0  0  0  0
 14 16  1  0  0  0  0
 15 16  2  0  0  0  0
 15 19  1  0  0  0  0
 16 20  1  0  0  0  0
 17 29  1  0  0  0  0
 17 30  1  0  0  0  0
 17 31  1  0  0  0  0
 18 21  1  0  0  0  0
 18 32  1  0  0  0  0
 18 33  1  0  0  0  0
 19 22  2  0  0  0  0
 20 23  2  0  0  0  0
 20 35  1  0  0  0  0
 22 23  1  0  0  0  0
 22 36  1  0  0  0  0
 23 37  1  0  0  0  0
M  END
> <PUBCHEM_COMPOUND_CID>
12804716

> <PUBCHEM_CONFORMER_RMSD>
0.6

> <PUBCHEM_CONFORMER_DIVERSEORDER>
1
3
2

> <PUBCHEM_MMFF94_PARTIAL_CHARGES>
27
1 -0.56
10 0.28
12 0.28
13 0.42
14 0.42
15 0.09
16 0.09
18 0.06
19 0.08
2 -0.68
20 -0.15
21 0.66
22 -0.15
23 -0.15
3 -0.57
34 0.4
35 0.15
36 0.15
37 0.15
38 0.45
39 0.5
4 -0.57
5 -0.53
6 -0.65
7 -0.57
8 0.34
9 0.06

> <PUBCHEM_EFFECTIVE_ROTOR_COUNT>
2.8

> <PUBCHEM_PHARMACOPHORE_FEATURES>
12
1 1 acceptor
1 2 acceptor
1 2 donor
1 3 acceptor
1 4 acceptor
1 5 donor
1 6 acceptor
1 7 acceptor
3 6 7 21 anion
6 1 8 9 10 11 12 rings
6 15 16 19 20 22 23 rings
6 8 9 13 14 15 16 rings

> <PUBCHEM_HEAVY_ATOM_COUNT>
23

> <PUBCHEM_ATOM_DEF_STEREO_COUNT>
4

> <PUBCHEM_ATOM_UDEF_STEREO_COUNT>
0

> <PUBCHEM_BOND_DEF_STEREO_COUNT>
0

> <PUBCHEM_BOND_UDEF_STEREO_COUNT>
0

> <PUBCHEM_ISOTOPIC_ATOM_COUNT>
0

> <PUBCHEM_COMPONENT_COUNT>
1

> <PUBCHEM_CACTVS_TAUTO_COUNT>
10

> <PUBCHEM_CONFORMER_ID>
00C3626C00000001

> <PUBCHEM_MMFF94_ENERGY>
63.4396

> <PUBCHEM_FEATURE_SELFOVERLAP>
60.998

> <PUBCHEM_SHAPE_FINGERPRINT>
10906281 52 18264227875240568627
10967382 1 18409449232570588754
1100329 8 18339358685982820434
11471102 20 18408884048954715623
11578080 2 16880184499595670415
11806522 49 18408323272027957727
12011746 2 18335707143658666806
12107183 9 17621325636772719003
12236239 1 17918274250926822291
12403259 415 18187076248310894420
12788726 201 17988378021455944152
12838862 33 18337654417765093544
13140716 1 18337674242532317938
13533116 47 18413670197485191786
13862211 1 18409443665792248531
14170010 4 18261110799005269501
14178342 30 18052247398146446234
14787075 74 18413105086978623707
14790565 3 18412268354287686393
15196674 1 18337110167397587675
15536298 74 18411983563474702490
16945 1 18119814857416593670
17349148 13 18335138670050053803
1813 80 16950284009400351316
19591789 44 18337671898049938198
200 152 18343297059550631083
20028762 73 18272927215503676614
20645477 70 18408882919135886174
21033648 29 17677034820493935429
21267235 1 18410017598446472618
21279426 13 18191019011103160181
21421861 104 18116151056813010579
2334 1 17112416074788401802
23402539 116 17989202638523862037
23559900 14 18338234976720243408
26918003 58 18260830410307346139
2748010 2 18408318870345706550
2871803 45 18259982643618416018
335352 9 18409449215559784846
34797466 226 15769496542360605465
34934 24 18269551805231786222
350125 39 18409731755582883000
42630746 31 18411981364488500278
5104073 3 18336829783405790155
5283173 99 17969491624816874301
59755656 215 18411143494111427102
7495541 125 13407088023837764615
8272917 22 18413395323440815359
9709674 26 18338804415968737922

> <PUBCHEM_SHAPE_MULTIPOLES>
432.24
10.38
2.34
0.87
8.29
0.08
0.08
-0.9
-0.46
-1.52
-0.21
0.41
0.2
-0.54

> <PUBCHEM_SHAPE_SELFOVERLAP>
946.574

> <PUBCHEM_SHAPE_VOLUME>
229.4

> <PUBCHEM_COORDINATE_TYPE>
2
5
10

$$$$
