128102
  -OEChem-03292013323D

 32 33  0     0  0  0  0  0  0999 V2000
    0.4607    1.6414   -1.4635 O   0  0  0  0  0  0  0  0  0  0  0  0
    2.3938    1.6323    0.4492 N   0  0  0  0  0  0  0  0  0  0  0  0
    4.7021    1.0579    0.3282 N   0  0  0  0  0  0  0  0  0  0  0  0
    5.3489   -1.2380   -0.0153 N   0  0  0  0  0  0  0  0  0  0  0  0
    1.1156    1.2284    0.7031 N   0  0  0  0  0  0  0  0  0  0  0  0
   -5.5618   -0.4076    0.6026 N   0  0  0  0  0  0  0  0  0  0  0  0
   -3.9536    1.3325    0.1635 N   0  0  0  0  0  0  0  0  0  0  0  0
   -1.8973    0.8472   -0.8193 N   0  0  0  0  0  0  0  0  0  0  0  0
   -1.0478    0.8218    0.1004 N   0  0  0  0  0  0  0  0  0  0  0  0
    3.4013    0.6722    0.2951 C   0  0  0  0  0  0  0  0  0  0  0  0
    4.0400   -1.5644   -0.0396 C   0  0  0  0  0  0  0  0  0  0  0  0
    3.0187   -0.6487    0.1105 C   0  0  0  0  0  0  0  0  0  0  0  0
    3.7107   -3.0054   -0.2432 C   0  0  0  0  0  0  0  0  0  0  0  0
   -4.6895   -1.2945    0.0799 C   0  0  0  0  0  0  0  0  0  0  0  0
   -3.4483   -0.9489   -0.4139 C   0  0  0  0  0  0  0  0  0  0  0  0
   -3.1308    0.3923   -0.3458 C   0  0  0  0  0  0  0  0  0  0  0  0
    5.6048    0.0711    0.1695 C   0  0  0  0  0  0  0  0  0  0  0  0
   -5.1220   -2.7218    0.0485 C   0  0  0  0  0  0  0  0  0  0  0  0
    0.1900    1.2626   -0.3232 C   0  0  0  0  0  0  0  0  0  0  0  0
   -5.1355    0.8697    0.6132 C   0  0  0  0  0  0  0  0  0  0  0  0
    1.9885   -0.9820    0.0738 H   0  0  0  0  0  0  0  0  0  0  0  0
    2.6351    2.5999    0.6159 H   0  0  0  0  0  0  0  0  0  0  0  0
    3.1449   -3.3912    0.6107 H   0  0  0  0  0  0  0  0  0  0  0  0
    3.1176   -3.1355   -1.1540 H   0  0  0  0  0  0  0  0  0  0  0  0
    4.6205   -3.6063   -0.3444 H   0  0  0  0  0  0  0  0  0  0  0  0
   -2.7672   -1.6821   -0.8289 H   0  0  0  0  0  0  0  0  0  0  0  0
    0.9073    0.9328    1.6502 H   0  0  0  0  0  0  0  0  0  0  0  0
    6.6479    0.3615    0.1934 H   0  0  0  0  0  0  0  0  0  0  0  0
   -4.4341   -3.3411    0.6329 H   0  0  0  0  0  0  0  0  0  0  0  0
   -6.1246   -2.8388    0.4729 H   0  0  0  0  0  0  0  0  0  0  0  0
   -5.1470   -3.0897   -0.9822 H   0  0  0  0  0  0  0  0  0  0  0  0
   -5.8161    1.6033    1.0277 H   0  0  0  0  0  0  0  0  0  0  0  0
  1 19  2  0  0  0  0
  2  5  1  0  0  0  0
  2 10  1  0  0  0  0
  2 22  1  0  0  0  0
  3 10  2  0  0  0  0
  3 17  1  0  0  0  0
  4 11  1  0  0  0  0
  4 17  2  0  0  0  0
  5 19  1  0  0  0  0
  5 27  1  0  0  0  0
  6 14  1  0  0  0  0
  6 20  2  0  0  0  0
  7 16  2  0  0  0  0
  7 20  1  0  0  0  0
  8  9  2  0  0  0  0
  8 16  1  0  0  0  0
  9 19  1  0  0  0  0
 10 12  1  0  0  0  0
 11 12  2  0  0  0  0
 11 13  1  0  0  0  0
 12 21  1  0  0  0  0
 13 23  1  0  0  0  0
 13 24  1  0  0  0  0
 13 25  1  0  0  0  0
 14 15  2  0  0  0  0
 14 18  1  0  0  0  0
 15 16  1  0  0  0  0
 15 26  1  0  0  0  0
 17 28  1  0  0  0  0
 18 29  1  0  0  0  0
 18 30  1  0  0  0  0
 18 31  1  0  0  0  0
 20 32  1  0  0  0  0
M  END
> <PUBCHEM_COMPOUND_CID>
128102

> <PUBCHEM_CONFORMER_RMSD>
0.8

> <PUBCHEM_CONFORMER_DIVERSEORDER>
1
42
22
9
31
34
37
51
7
17
49
5
32
36
45
35
39
27
28
23
19
50
47
29
21
12
6
25
40
4
43
11
46
44
41
14
16
10
38
8
2
18
15
30
33
3
48
20
13
26
24

> <PUBCHEM_MMFF94_PARTIAL_CHARGES>
26
1 -0.57
10 0.41
11 0.17
12 -0.15
13 0.14
14 0.17
15 -0.15
16 0.49
17 0.47
18 0.14
19 0.84
2 -0.52
20 0.47
21 0.15
22 0.4
26 0.15
27 0.37
28 0.15
3 -0.62
32 0.15
4 -0.62
5 -0.41
6 -0.62
7 -0.62
8 -0.18
9 -0.21

> <PUBCHEM_EFFECTIVE_ROTOR_COUNT>
5

> <PUBCHEM_PHARMACOPHORE_FEATURES>
10
1 1 acceptor
1 2 donor
1 5 donor
1 9 donor
3 2 3 10 cation
3 3 4 17 cation
3 6 7 20 cation
3 7 8 16 cation
6 3 4 10 11 12 17 rings
6 6 7 14 15 16 20 rings

> <PUBCHEM_HEAVY_ATOM_COUNT>
20

> <PUBCHEM_ATOM_DEF_STEREO_COUNT>
0

> <PUBCHEM_ATOM_UDEF_STEREO_COUNT>
0

> <PUBCHEM_BOND_DEF_STEREO_COUNT>
0

> <PUBCHEM_BOND_UDEF_STEREO_COUNT>
0

> <PUBCHEM_ISOTOPIC_ATOM_COUNT>
0

> <PUBCHEM_COMPONENT_COUNT>
1

> <PUBCHEM_CACTVS_TAUTO_COUNT>
6

> <PUBCHEM_CONFORMER_ID>
0001F46600000001

> <PUBCHEM_MMFF94_ENERGY>
53.3166

> <PUBCHEM_FEATURE_SELFOVERLAP>
52.653

> <PUBCHEM_SHAPE_FINGERPRINT>
11089746 13 10231757773367248884
11128504 68 16371015104568379708
12107183 9 17839470981343754137
12596602 18 16988560251268310362
12633257 1 15841545297266212657
12892183 10 18130783486061788369
13103583 49 17917441925378467073
13167823 11 18413387661440503841
13255334 9 18410013221373845990
13402501 40 18408605859517801386
13551218 46 18412265039000357735
13685833 64 18334861627843609099
14178000 29 18186521024798059708
14341114 176 18343588421194157489
14420673 8 18268717121261764015
14617045 38 18410580582654228358
15110567 62 18336547127587853258
15196674 1 18411417306306974350
15537594 2 18131627894355143206
17844677 252 18411425007247087929
17857418 61 18412260662296561079
1813 80 17530969068145339917
193927 3 17822299036922599177
20645477 70 18407759218895468112
21197605 99 18268994370043721142
21673915 165 18410853295512624111
22950370 63 18409731750749955956
23424784 1240 18339654389975913675
23559900 14 18340196497191077753
239999 70 18202569471580295462
2767999 5 11959732663730472457
3004659 81 18333450911707672898
33382 64 18412829100743316298
3421961 26 18341609334998692432
351380 3 18114178635741662803
4073 2 18334298707490878419
4214541 1 18412262818317610401
441001 317 9943809989194812269
465052 167 18202568384584252436
5104073 3 18272929410151823977
5924683 9 17489015093902396335
7970288 3 17763742492519322015

> <PUBCHEM_SHAPE_MULTIPOLES>
365.87
15.27
2.51
0.8
2.52
1.88
-0.12
6.36
2.18
-0.21
-0.14
0.17
-0.21
0.26

> <PUBCHEM_SHAPE_SELFOVERLAP>
774.025

> <PUBCHEM_SHAPE_VOLUME>
200.6

> <PUBCHEM_COORDINATE_TYPE>
2
5
10

$$$$
