128139
  -OEChem-03292013323D

 69 73  0     1  0  0  0  0  0999 V2000
    1.1628    0.0217    2.2070 O   0  0  0  0  0  0  0  0  0  0  0  0
   -0.4088   -1.5912    1.5902 O   0  0  0  0  0  0  0  0  0  0  0  0
   -2.2625    0.3469    1.8286 O   0  0  0  0  0  0  0  0  0  0  0  0
    1.0433   -2.1214   -0.7655 O   0  0  0  0  0  0  0  0  0  0  0  0
   -0.5731   -0.3525   -1.9840 O   0  0  0  0  0  0  0  0  0  0  0  0
   -1.9221    1.8598   -2.2471 O   0  0  0  0  0  0  0  0  0  0  0  0
   -3.9529   -0.0526    0.0478 O   0  0  0  0  0  0  0  0  0  0  0  0
    0.2455   -3.6898    0.7314 O   0  0  0  0  0  0  0  0  0  0  0  0
   -6.0838   -0.4916   -0.7292 O   0  0  0  0  0  0  0  0  0  0  0  0
   -0.2832    0.5177    0.3394 C   0  0  1  0  0  0  0  0  0  0  0  0
    0.7641    1.5588   -0.2145 C   0  0  2  0  0  0  0  0  0  0  0  0
    2.2157    1.1527    0.2775 C   0  0  2  0  0  0  0  0  0  0  0  0
    0.4929   -0.6040    1.0921 C   0  0  1  0  0  0  0  0  0  0  0  0
    2.5296   -0.2449   -0.3704 C   0  0  2  0  0  0  0  0  0  0  0  0
   -1.3254    1.2427    1.2443 C   0  0  1  0  0  0  0  0  0  0  0  0
   -1.2348    0.0233   -0.7898 C   0  0  1  0  0  0  0  0  0  0  0  0
   -2.0232    2.1387    0.2116 C   0  0  2  0  0  0  0  0  0  0  0  0
    1.5889   -1.2984    0.2577 C   0  0  2  0  0  0  0  0  0  0  0  0
   -2.2206    1.1979   -1.0213 C   0  0  1  0  0  0  0  0  0  0  0  0
    0.3839    3.0280    0.0916 C   0  0  0  0  0  0  0  0  0  0  0  0
    2.1348    0.9975    1.8111 C   0  0  0  0  0  0  0  0  0  0  0  0
    4.0418   -0.6827   -0.4435 C   0  0  0  0  0  0  0  0  0  0  0  0
    3.2417    2.2226   -0.1416 C   0  0  0  0  0  0  0  0  0  0  0  0
   -1.1085    3.3446   -0.0605 C   0  0  0  0  0  0  0  0  0  0  0  0
    4.8984    0.5130   -0.9214 C   0  0  0  0  0  0  0  0  0  0  0  0
    4.6899    1.7618   -0.0753 C   0  0  0  0  0  0  0  0  0  0  0  0
   -3.6591    0.6804   -1.1250 C   0  0  0  0  0  0  0  0  0  0  0  0
    4.1911   -1.8134   -1.4918 C   0  0  0  0  0  0  0  0  0  0  0  0
    4.6446   -1.2296    0.8693 C   0  0  0  0  0  0  0  0  0  0  0  0
    0.1982   -3.1107   -0.3454 C   0  0  0  0  0  0  0  0  0  0  0  0
   -0.8194   -3.3964   -1.4080 C   0  0  0  0  0  0  0  0  0  0  0  0
   -5.2111   -0.5920    0.1224 C   0  0  0  0  0  0  0  0  0  0  0  0
   -5.3787   -1.3369    1.4121 C   0  0  0  0  0  0  0  0  0  0  0  0
    0.7814    1.5018   -1.3111 H   0  0  0  0  0  0  0  0  0  0  0  0
    2.2382   -0.1430   -1.4281 H   0  0  0  0  0  0  0  0  0  0  0  0
   -0.8653    1.8064    2.0626 H   0  0  0  0  0  0  0  0  0  0  0  0
   -1.7658   -0.8610   -0.4296 H   0  0  0  0  0  0  0  0  0  0  0  0
   -2.9935    2.5002    0.5721 H   0  0  0  0  0  0  0  0  0  0  0  0
    2.1487   -1.9527    0.9318 H   0  0  0  0  0  0  0  0  0  0  0  0
    0.9520    3.7085   -0.5540 H   0  0  0  0  0  0  0  0  0  0  0  0
    0.6759    3.2877    1.1153 H   0  0  0  0  0  0  0  0  0  0  0  0
    3.0875    0.7111    2.2558 H   0  0  0  0  0  0  0  0  0  0  0  0
    1.8634    1.9384    2.3000 H   0  0  0  0  0  0  0  0  0  0  0  0
    3.1337    3.1213    0.4778 H   0  0  0  0  0  0  0  0  0  0  0  0
    3.0370    2.5330   -1.1752 H   0  0  0  0  0  0  0  0  0  0  0  0
   -1.3521    4.1361    0.6610 H   0  0  0  0  0  0  0  0  0  0  0  0
   -1.3073    3.7876   -1.0419 H   0  0  0  0  0  0  0  0  0  0  0  0
    4.6527    0.7504   -1.9654 H   0  0  0  0  0  0  0  0  0  0  0  0
    5.9634    0.2482   -0.9131 H   0  0  0  0  0  0  0  0  0  0  0  0
    5.3364    2.5624   -0.4543 H   0  0  0  0  0  0  0  0  0  0  0  0
    4.9908    1.5890    0.9630 H   0  0  0  0  0  0  0  0  0  0  0  0
   -3.7678    0.0355   -2.0064 H   0  0  0  0  0  0  0  0  0  0  0  0
   -4.3562    1.5202   -1.2374 H   0  0  0  0  0  0  0  0  0  0  0  0
   -1.2112   -1.1551    1.9147 H   0  0  0  0  0  0  0  0  0  0  0  0
    5.2440   -2.0835   -1.6342 H   0  0  0  0  0  0  0  0  0  0  0  0
    3.6597   -2.7200   -1.1836 H   0  0  0  0  0  0  0  0  0  0  0  0
    3.7968   -1.5087   -2.4676 H   0  0  0  0  0  0  0  0  0  0  0  0
    4.1756   -2.1648    1.1882 H   0  0  0  0  0  0  0  0  0  0  0  0
    5.7096   -1.4579    0.7344 H   0  0  0  0  0  0  0  0  0  0  0  0
    4.5858   -0.5246    1.6971 H   0  0  0  0  0  0  0  0  0  0  0  0
   -2.9308    0.8827    2.2887 H   0  0  0  0  0  0  0  0  0  0  0  0
   -1.2492   -0.6741   -2.6042 H   0  0  0  0  0  0  0  0  0  0  0  0
   -2.0261    1.2211   -2.9721 H   0  0  0  0  0  0  0  0  0  0  0  0
   -0.4943   -3.0132   -2.3789 H   0  0  0  0  0  0  0  0  0  0  0  0
   -1.7826   -2.9619   -1.1379 H   0  0  0  0  0  0  0  0  0  0  0  0
   -0.9233   -4.4809   -1.5087 H   0  0  0  0  0  0  0  0  0  0  0  0
   -5.2916   -0.6441    2.2526 H   0  0  0  0  0  0  0  0  0  0  0  0
   -4.6256   -2.1258    1.4840 H   0  0  0  0  0  0  0  0  0  0  0  0
   -6.3696   -1.7989    1.4388 H   0  0  0  0  0  0  0  0  0  0  0  0
  1 13  1  0  0  0  0
  1 21  1  0  0  0  0
  2 13  1  0  0  0  0
  2 54  1  0  0  0  0
  3 15  1  0  0  0  0
  3 61  1  0  0  0  0
  4 18  1  0  0  0  0
  4 30  1  0  0  0  0
  5 16  1  0  0  0  0
  5 62  1  0  0  0  0
  6 19  1  0  0  0  0
  6 63  1  0  0  0  0
  7 27  1  0  0  0  0
  7 32  1  0  0  0  0
  8 30  2  0  0  0  0
  9 32  2  0  0  0  0
 10 11  1  0  0  0  0
 10 13  1  0  0  0  0
 10 15  1  0  0  0  0
 10 16  1  0  0  0  0
 11 12  1  0  0  0  0
 11 20  1  0  0  0  0
 11 34  1  0  0  0  0
 12 14  1  0  0  0  0
 12 21  1  0  0  0  0
 12 23  1  0  0  0  0
 13 18  1  0  0  0  0
 14 18  1  0  0  0  0
 14 22  1  0  0  0  0
 14 35  1  0  0  0  0
 15 17  1  0  0  0  0
 15 36  1  0  0  0  0
 16 19  1  0  0  0  0
 16 37  1  0  0  0  0
 17 19  1  0  0  0  0
 17 24  1  0  0  0  0
 17 38  1  0  0  0  0
 18 39  1  0  0  0  0
 19 27  1  0  0  0  0
 20 24  1  0  0  0  0
 20 40  1  0  0  0  0
 20 41  1  0  0  0  0
 21 42  1  0  0  0  0
 21 43  1  0  0  0  0
 22 25  1  0  0  0  0
 22 28  1  0  0  0  0
 22 29  1  0  0  0  0
 23 26  1  0  0  0  0
 23 44  1  0  0  0  0
 23 45  1  0  0  0  0
 24 46  1  0  0  0  0
 24 47  1  0  0  0  0
 25 26  1  0  0  0  0
 25 48  1  0  0  0  0
 25 49  1  0  0  0  0
 26 50  1  0  0  0  0
 26 51  1  0  0  0  0
 27 52  1  0  0  0  0
 27 53  1  0  0  0  0
 28 55  1  0  0  0  0
 28 56  1  0  0  0  0
 28 57  1  0  0  0  0
 29 58  1  0  0  0  0
 29 59  1  0  0  0  0
 29 60  1  0  0  0  0
 30 31  1  0  0  0  0
 31 64  1  0  0  0  0
 31 65  1  0  0  0  0
 31 66  1  0  0  0  0
 32 33  1  0  0  0  0
 33 67  1  0  0  0  0
 33 68  1  0  0  0  0
 33 69  1  0  0  0  0
M  END
> <PUBCHEM_COMPOUND_CID>
128139

> <PUBCHEM_CONFORMER_RMSD>
1

> <PUBCHEM_CONFORMER_DIVERSEORDER>
3
2
1

> <PUBCHEM_MMFF94_PARTIAL_CHARGES>
24
1 -0.56
13 0.56
15 0.28
16 0.28
18 0.28
19 0.28
2 -0.68
21 0.28
27 0.28
3 -0.68
30 0.66
31 0.06
32 0.66
33 0.06
4 -0.43
5 -0.68
54 0.4
6 -0.68
61 0.4
62 0.4
63 0.4
7 -0.43
8 -0.57
9 -0.57

> <PUBCHEM_EFFECTIVE_ROTOR_COUNT>
7.4

> <PUBCHEM_PHARMACOPHORE_FEATURES>
15
1 1 acceptor
1 2 acceptor
1 2 donor
1 3 acceptor
1 3 donor
1 5 acceptor
1 5 donor
1 6 acceptor
1 6 donor
1 8 acceptor
1 9 acceptor
3 22 28 29 hydrophobe
6 12 14 22 23 25 26 rings
8 1 10 11 12 13 14 18 21 rings
8 10 11 15 16 17 19 20 24 rings

> <PUBCHEM_HEAVY_ATOM_COUNT>
33

> <PUBCHEM_ATOM_DEF_STEREO_COUNT>
9

> <PUBCHEM_ATOM_UDEF_STEREO_COUNT>
1

> <PUBCHEM_BOND_DEF_STEREO_COUNT>
0

> <PUBCHEM_BOND_UDEF_STEREO_COUNT>
0

> <PUBCHEM_ISOTOPIC_ATOM_COUNT>
0

> <PUBCHEM_COMPONENT_COUNT>
1

> <PUBCHEM_CACTVS_TAUTO_COUNT>
1

> <PUBCHEM_CONFORMER_ID>
0001F48B00000003

> <PUBCHEM_MMFF94_ENERGY>
166.4244

> <PUBCHEM_FEATURE_SELFOVERLAP>
76.268

> <PUBCHEM_SHAPE_FINGERPRINT>
10076449 9 18263948651312011430
10863032 1 18200875192353919836
1100329 8 18196090173352415325
11421498 54 17489036980839335451
11488393 25 18197506133929211251
11578080 2 17199946984015408168
12035758 1 18339640156743399848
12156800 1 17764056913503709495
12236239 1 17561091310259188129
12403260 363 18262799550023393352
12592029 89 18337669720142745066
12633257 1 14908176473775746661
12788726 201 17846229868477666968
13140716 1 18198891677540887170
13224815 77 18336546015191043984
13402501 40 18261115218516438003
14787075 74 18260268572650071565
14790565 3 18412832395268763597
14955137 171 18266188395242005089
15209289 33 17917430904017670475
15927050 60 17692255552914554493
16945 1 18123756353083224544
17492 54 18334590061340762524
19591789 44 18341049631649779926
19930381 70 18338802200086827628
20028762 73 18202561791414684895
20691752 17 18057294336542658236
21521721 280 18339931514503239689
22393880 68 17750786666859598844
22907989 373 17899451707587888468
229495 10 17025680824483556622
23559900 14 18334008419990758517
238 59 18266730290775228542
3380486 145 18049175654405220264
3383291 50 18409164373498266394
350125 39 18411982455547161504
3737641 26 18198636432135305023
392239 28 18411706473907806859
484989 97 18336277815984917818
6669772 16 18335693984169113346

> <PUBCHEM_SHAPE_MULTIPOLES>
626.3
9.16
3.55
1.67
4.67
1.21
0.14
1.31
-0.7
-0.37
-0.51
0.43
0.2
0.67

> <PUBCHEM_SHAPE_SELFOVERLAP>
1363.228

> <PUBCHEM_SHAPE_VOLUME>
329.9

> <PUBCHEM_COORDINATE_TYPE>
2
5
10

$$$$
