128185
  -OEChem-03292013323D

 32 32  0     1  0  0  0  0  0999 V2000
    1.6839    0.1733    1.9669 S   0  0  0  0  0  0  0  0  0  0  0  0
    1.4091    2.5836    0.1178 O   0  0  0  0  0  0  0  0  0  0  0  0
   -0.8647    3.3502   -1.2287 O   0  0  0  0  0  0  0  0  0  0  0  0
    3.0886    0.3982   -1.4440 O   0  0  0  0  0  0  0  0  0  0  0  0
    4.4947   -0.8661   -0.1908 O   0  0  0  0  0  0  0  0  0  0  0  0
   -4.6217   -2.2384   -0.1972 O   0  0  0  0  0  0  0  0  0  0  0  0
   -2.6871   -1.7444   -1.2778 O   0  0  0  0  0  0  0  0  0  0  0  0
    2.3632   -2.8212   -0.7388 N   0  0  0  0  0  0  0  0  0  0  0  0
    1.9236   -1.4956    1.2779 C   0  0  0  0  0  0  0  0  0  0  0  0
   -2.0904    0.3787    0.5102 C   0  0  0  0  0  0  0  0  0  0  0  0
    2.1514   -1.4629   -0.2345 C   0  0  1  0  0  0  0  0  0  0  0  0
    0.2352    0.7162    1.0698 C   0  0  0  0  0  0  0  0  0  0  0  0
   -0.9432   -0.0187    1.1970 C   0  0  0  0  0  0  0  0  0  0  0  0
    0.2672    1.8488    0.2564 C   0  0  0  0  0  0  0  0  0  0  0  0
   -3.3510   -0.4065    0.6457 C   0  0  0  0  0  0  0  0  0  0  0  0
   -2.0589    1.5112   -0.3033 C   0  0  0  0  0  0  0  0  0  0  0  0
   -0.8802    2.2463   -0.4303 C   0  0  0  0  0  0  0  0  0  0  0  0
    3.3674   -0.6393   -0.6149 C   0  0  0  0  0  0  0  0  0  0  0  0
   -3.4871   -1.5131   -0.3816 C   0  0  0  0  0  0  0  0  0  0  0  0
    1.0626   -2.1231    1.5326 H   0  0  0  0  0  0  0  0  0  0  0  0
    2.7936   -1.9257    1.7881 H   0  0  0  0  0  0  0  0  0  0  0  0
    1.2729   -1.0603   -0.7505 H   0  0  0  0  0  0  0  0  0  0  0  0
   -0.9839   -0.8991    1.8345 H   0  0  0  0  0  0  0  0  0  0  0  0
   -4.2175    0.2584    0.5473 H   0  0  0  0  0  0  0  0  0  0  0  0
   -3.4014   -0.8583    1.6439 H   0  0  0  0  0  0  0  0  0  0  0  0
   -2.9492    1.8251   -0.8428 H   0  0  0  0  0  0  0  0  0  0  0  0
    2.4146   -2.8039   -1.7570 H   0  0  0  0  0  0  0  0  0  0  0  0
    1.5582   -3.4016   -0.5058 H   0  0  0  0  0  0  0  0  0  0  0  0
    2.1070    2.1665    0.6520 H   0  0  0  0  0  0  0  0  0  0  0  0
    0.0284    3.7353   -1.2004 H   0  0  0  0  0  0  0  0  0  0  0  0
    3.8901    0.9220   -1.6574 H   0  0  0  0  0  0  0  0  0  0  0  0
   -4.7097   -2.9541   -0.8624 H   0  0  0  0  0  0  0  0  0  0  0  0
  1  9  1  0  0  0  0
  1 12  1  0  0  0  0
  2 14  1  0  0  0  0
  2 29  1  0  0  0  0
  3 17  1  0  0  0  0
  3 30  1  0  0  0  0
  4 18  1  0  0  0  0
  4 31  1  0  0  0  0
  5 18  2  0  0  0  0
  6 19  1  0  0  0  0
  6 32  1  0  0  0  0
  7 19  2  0  0  0  0
  8 11  1  0  0  0  0
  8 27  1  0  0  0  0
  8 28  1  0  0  0  0
  9 11  1  0  0  0  0
  9 20  1  0  0  0  0
  9 21  1  0  0  0  0
 10 13  1  0  0  0  0
 10 15  1  0  0  0  0
 10 16  2  0  0  0  0
 11 18  1  0  0  0  0
 11 22  1  0  0  0  0
 12 13  2  0  0  0  0
 12 14  1  0  0  0  0
 13 23  1  0  0  0  0
 14 17  2  0  0  0  0
 15 19  1  0  0  0  0
 15 24  1  0  0  0  0
 15 25  1  0  0  0  0
 16 17  1  0  0  0  0
 16 26  1  0  0  0  0
M  END
> <PUBCHEM_COMPOUND_CID>
128185

> <PUBCHEM_CONFORMER_RMSD>
0.8

> <PUBCHEM_CONFORMER_DIVERSEORDER>
1
46
59
134
145
72
136
96
7
143
123
101
44
125
34
144
40
78
88
39
52
24
141
119
83
90
130
95
109
74
63
43
16
105
8
92
29
94
19
82
62
99
66
133
100
58
98
110
14
121
93
13
23
84
38
111
21
86
18
37
56
91
55
138
147
27
69
75
140
102
146
10
87
36
117
61
129
107
65
31
116
132
6
70
85
131
104
139
42
128
120
124
80
64
97
51
12
137
118
35
32
76
135
17
11
126
47
2
22
108
25
127
115
4
106
26
15
41
89
3
60
49
30
142
9
113
45
112
53
122
50
20
71
28
5
33
67
54
73
48
114
68
57
77
81
103
79

> <PUBCHEM_MMFF94_PARTIAL_CHARGES>
27
1 -0.33
10 -0.14
11 0.33
12 0.1
13 -0.15
14 0.08
15 0.2
16 -0.15
17 0.08
18 0.66
19 0.66
2 -0.53
23 0.15
26 0.15
27 0.36
28 0.36
29 0.45
3 -0.53
30 0.45
31 0.5
32 0.5
4 -0.65
5 -0.57
6 -0.65
7 -0.57
8 -0.99
9 0.23

> <PUBCHEM_EFFECTIVE_ROTOR_COUNT>
6

> <PUBCHEM_PHARMACOPHORE_FEATURES>
11
1 2 donor
1 3 donor
1 4 acceptor
1 5 acceptor
1 6 acceptor
1 7 acceptor
1 8 cation
1 8 donor
3 4 5 18 anion
3 6 7 19 anion
6 10 12 13 14 16 17 rings

> <PUBCHEM_HEAVY_ATOM_COUNT>
19

> <PUBCHEM_ATOM_DEF_STEREO_COUNT>
1

> <PUBCHEM_ATOM_UDEF_STEREO_COUNT>
0

> <PUBCHEM_BOND_DEF_STEREO_COUNT>
0

> <PUBCHEM_BOND_UDEF_STEREO_COUNT>
0

> <PUBCHEM_ISOTOPIC_ATOM_COUNT>
0

> <PUBCHEM_COMPONENT_COUNT>
1

> <PUBCHEM_CACTVS_TAUTO_COUNT>
28

> <PUBCHEM_CONFORMER_ID>
0001F4B900000001

> <PUBCHEM_MMFF94_ENERGY>
35.7866

> <PUBCHEM_FEATURE_SELFOVERLAP>
55.943

> <PUBCHEM_SHAPE_FINGERPRINT>
10042902 136 17488177295595326623
11221954 11 11314610695822731351
11578080 2 18131058321040497025
116883 192 18337935828185361165
12054548 360 18411698746907810592
12202030 40 17916851431325003234
12403259 327 15984542346979654939
12553582 1 18335134302374626451
12841375 7 18058999692189055127
13464513 79 18201155571903304658
14251732 17 11458418047034638338
16945 1 18044922485936965337
17357779 13 18200571658393632719
17492 54 18117574031070276894
1813 80 18336261336263221563
18522851 268 18194410978852952510
18981168 100 10665790997485356645
192875 21 17603594023748395372
20645476 183 17322388203510252673
20645477 70 18048304833228539655
20871999 31 18335135358978493063
21731516 1 18336540543191348747
22889148 1 17391045081256240877
23402539 116 18113902615937952874
23557571 272 18196072362328670256
23559900 14 17692237549050024842
23598288 3 17753893809536688385
23598291 2 18340780337764816769
2748010 2 18188753038119489673
3060560 45 17903347453004152629
4463277 69 17987785441071370839
7364860 26 18126282175868102345
81228 2 18191289516976477241
84936 182 9078579021868294331

> <PUBCHEM_SHAPE_MULTIPOLES>
354.66
6.67
3.13
1.42
0.48
1.04
-0.35
-5.38
1.61
1.05
1.22
-0.62
0.02
0.04

> <PUBCHEM_SHAPE_SELFOVERLAP>
721.043

> <PUBCHEM_SHAPE_VOLUME>
206.8

> <PUBCHEM_COORDINATE_TYPE>
2
5
10

$$$$
