12818200
  -OEChem-03292013303D

 51 53  0     1  0  0  0  0  0999 V2000
    2.8610    2.0507   -0.1030 S   0  0  0  0  0  0  0  0  0  0  0  0
   -3.3982    1.9737    1.3034 O   0  0  0  0  0  0  0  0  0  0  0  0
    0.3774    0.9916   -1.6383 O   0  0  0  0  0  0  0  0  0  0  0  0
    2.8673    2.4476   -1.4979 O   0  0  0  0  0  0  0  0  0  0  0  0
    3.5219    2.8671    0.8967 O   0  0  0  0  0  0  0  0  0  0  0  0
   -0.9976    1.0976    0.2185 N   0  0  0  0  0  0  0  0  0  0  0  0
    1.2535    1.7450    0.3917 N   0  0  0  0  0  0  0  0  0  0  0  0
   -4.3033   -0.2022    0.4830 C   0  0  2  0  0  0  0  0  0  0  0  0
   -3.8768   -1.1240   -0.7020 C   0  0  0  0  0  0  0  0  0  0  0  0
   -2.3708   -0.9315   -0.3565 C   0  0  1  0  0  0  0  0  0  0  0  0
   -3.5292    1.1224    0.1801 C   0  0  2  0  0  0  0  0  0  0  0  0
   -2.1919    0.6124   -0.4113 C   0  0  1  0  0  0  0  0  0  0  0  0
   -3.6312   -0.8883    1.7039 C   0  0  0  0  0  0  0  0  0  0  0  0
   -2.2964   -1.3822    1.1239 C   0  0  0  0  0  0  0  0  0  0  0  0
   -5.7916    0.0129    0.6871 C   0  0  0  0  0  0  0  0  0  0  0  0
   -4.2799   -0.6344   -2.1080 C   0  0  0  0  0  0  0  0  0  0  0  0
   -4.3607   -2.5871   -0.6149 C   0  0  0  0  0  0  0  0  0  0  0  0
    0.2072    1.2512   -0.4508 C   0  0  0  0  0  0  0  0  0  0  0  0
    3.5638    0.4331    0.0119 C   0  0  0  0  0  0  0  0  0  0  0  0
    3.5210   -0.4025   -1.0909 C   0  0  0  0  0  0  0  0  0  0  0  0
    4.1455    0.0321    1.2021 C   0  0  0  0  0  0  0  0  0  0  0  0
    4.0772   -1.6783   -1.0005 C   0  0  0  0  0  0  0  0  0  0  0  0
    4.7019   -1.2439    1.2924 C   0  0  0  0  0  0  0  0  0  0  0  0
    4.6678   -2.0991    0.1911 C   0  0  0  0  0  0  0  0  0  0  0  0
    5.2621   -3.4636    0.2881 C   0  0  0  0  0  0  0  0  0  0  0  0
   -1.6694   -1.4697   -0.9995 H   0  0  0  0  0  0  0  0  0  0  0  0
   -4.0561    1.7072   -0.5830 H   0  0  0  0  0  0  0  0  0  0  0  0
   -2.1380    0.9135   -1.4646 H   0  0  0  0  0  0  0  0  0  0  0  0
   -4.2235   -1.7264    2.0873 H   0  0  0  0  0  0  0  0  0  0  0  0
   -3.4734   -0.2020    2.5422 H   0  0  0  0  0  0  0  0  0  0  0  0
   -1.4392   -0.9695    1.6638 H   0  0  0  0  0  0  0  0  0  0  0  0
   -2.2213   -2.4723    1.2012 H   0  0  0  0  0  0  0  0  0  0  0  0
   -6.3125   -0.9369    0.8467 H   0  0  0  0  0  0  0  0  0  0  0  0
   -5.9836    0.6438    1.5613 H   0  0  0  0  0  0  0  0  0  0  0  0
   -6.2457    0.4996   -0.1821 H   0  0  0  0  0  0  0  0  0  0  0  0
   -3.7668   -1.2242   -2.8765 H   0  0  0  0  0  0  0  0  0  0  0  0
   -4.0562    0.4135   -2.3144 H   0  0  0  0  0  0  0  0  0  0  0  0
   -5.3585   -0.7541   -2.2627 H   0  0  0  0  0  0  0  0  0  0  0  0
   -3.8625   -3.1973   -1.3774 H   0  0  0  0  0  0  0  0  0  0  0  0
   -5.4403   -2.6486   -0.7934 H   0  0  0  0  0  0  0  0  0  0  0  0
   -4.1771   -3.0737    0.3449 H   0  0  0  0  0  0  0  0  0  0  0  0
   -1.0278    1.3145    1.2100 H   0  0  0  0  0  0  0  0  0  0  0  0
   -4.2927    2.2086    1.6022 H   0  0  0  0  0  0  0  0  0  0  0  0
    1.0144    1.9738    1.3647 H   0  0  0  0  0  0  0  0  0  0  0  0
    3.0626   -0.0950   -2.0256 H   0  0  0  0  0  0  0  0  0  0  0  0
    4.1750    0.6792    2.0733 H   0  0  0  0  0  0  0  0  0  0  0  0
    4.0419   -2.3366   -1.8646 H   0  0  0  0  0  0  0  0  0  0  0  0
    5.1558   -1.5616    2.2273 H   0  0  0  0  0  0  0  0  0  0  0  0
    6.1059   -3.4781    0.9863 H   0  0  0  0  0  0  0  0  0  0  0  0
    4.5083   -4.1778    0.6337 H   0  0  0  0  0  0  0  0  0  0  0  0
    5.6439   -3.7983   -0.6824 H   0  0  0  0  0  0  0  0  0  0  0  0
  1  4  2  0  0  0  0
  1  5  2  0  0  0  0
  1  7  1  0  0  0  0
  1 19  1  0  0  0  0
  2 11  1  0  0  0  0
  2 43  1  0  0  0  0
  3 18  2  0  0  0  0
  6 12  1  0  0  0  0
  6 18  1  0  0  0  0
  6 42  1  0  0  0  0
  7 18  1  0  0  0  0
  7 44  1  0  0  0  0
  8  9  1  0  0  0  0
  8 11  1  0  0  0  0
  8 13  1  0  0  0  0
  8 15  1  0  0  0  0
  9 10  1  0  0  0  0
  9 16  1  0  0  0  0
  9 17  1  0  0  0  0
 10 12  1  0  0  0  0
 10 14  1  0  0  0  0
 10 26  1  0  0  0  0
 11 12  1  0  0  0  0
 11 27  1  0  0  0  0
 12 28  1  0  0  0  0
 13 14  1  0  0  0  0
 13 29  1  0  0  0  0
 13 30  1  0  0  0  0
 14 31  1  0  0  0  0
 14 32  1  0  0  0  0
 15 33  1  0  0  0  0
 15 34  1  0  0  0  0
 15 35  1  0  0  0  0
 16 36  1  0  0  0  0
 16 37  1  0  0  0  0
 16 38  1  0  0  0  0
 17 39  1  0  0  0  0
 17 40  1  0  0  0  0
 17 41  1  0  0  0  0
 19 20  2  0  0  0  0
 19 21  1  0  0  0  0
 20 22  1  0  0  0  0
 20 45  1  0  0  0  0
 21 23  2  0  0  0  0
 21 46  1  0  0  0  0
 22 24  2  0  0  0  0
 22 47  1  0  0  0  0
 23 24  1  0  0  0  0
 23 48  1  0  0  0  0
 24 25  1  0  0  0  0
 25 49  1  0  0  0  0
 25 50  1  0  0  0  0
 25 51  1  0  0  0  0
M  END
> <PUBCHEM_COMPOUND_CID>
12818200

> <PUBCHEM_CONFORMER_RMSD>
0.8

> <PUBCHEM_CONFORMER_DIVERSEORDER>
1
21
34
20
6
18
35
8
27
16
7
26
30
32
23
2
19
22
31
33
9
25
5
13
15
24
4
10
17
36
3
28
11
12
14
29

> <PUBCHEM_MMFF94_PARTIAL_CHARGES>
24
1 1.45
11 0.28
12 0.3
18 0.87
19 -0.01
2 -0.68
20 -0.15
21 -0.15
22 -0.15
23 -0.15
24 -0.14
25 0.14
3 -0.57
4 -0.65
42 0.37
43 0.4
44 0.42
45 0.15
46 0.15
47 0.15
48 0.15
5 -0.65
6 -0.73
7 -0.79

> <PUBCHEM_EFFECTIVE_ROTOR_COUNT>
6

> <PUBCHEM_PHARMACOPHORE_FEATURES>
10
1 2 acceptor
1 2 donor
1 3 acceptor
1 4 acceptor
1 5 acceptor
1 6 donor
1 7 donor
3 9 16 17 hydrophobe
6 19 20 21 22 23 24 rings
7 8 9 10 11 12 13 14 rings

> <PUBCHEM_HEAVY_ATOM_COUNT>
25

> <PUBCHEM_ATOM_DEF_STEREO_COUNT>
4

> <PUBCHEM_ATOM_UDEF_STEREO_COUNT>
0

> <PUBCHEM_BOND_DEF_STEREO_COUNT>
0

> <PUBCHEM_BOND_UDEF_STEREO_COUNT>
0

> <PUBCHEM_ISOTOPIC_ATOM_COUNT>
0

> <PUBCHEM_COMPONENT_COUNT>
1

> <PUBCHEM_CACTVS_TAUTO_COUNT>
3

> <PUBCHEM_CONFORMER_ID>
00C3971800000001

> <PUBCHEM_MMFF94_ENERGY>
75.7407

> <PUBCHEM_FEATURE_SELFOVERLAP>
50.811

> <PUBCHEM_SHAPE_FINGERPRINT>
10498660 4 9223220858823520654
10670039 82 9799416659011078738
10928967 22 17968095287693381618
11405975 8 18413111641009468985
11595378 159 15698009534838610824
12107183 9 18126292934555691121
12523318 42 15553869092582200431
12596602 18 16630237108626525194
12616971 3 18272933830011001775
12633257 1 18059864956005153495
13533116 47 18410576218840491313
13551218 46 18409732863642228035
13583140 156 16845277354639475992
13782708 43 17531535399187744859
13914758 101 18341887460486169461
14420673 8 18194127317353156058
14848178 5 18410282619007898494
14866123 147 17832988247954361952
15142526 21 17195995386634196320
15250474 111 18272082863503033918
17349148 13 18272374178412856125
17492 89 18340206396368060215
17818456 19 18200323108394081225
17857418 61 18342735230214487013
1813 80 17749114378588511284
1979834 28 17489029258393568406
20403669 9 18335702702557136946
20645477 70 18261107521576035396
20775530 9 17391063747569751082
23559900 14 18187646942158902332
2838139 119 9007046977461924666
3004659 81 18411142445817166084
341906 21 15339124562728786144
3421961 26 18411135827794821888
3472631 163 8213879084488158291
34797466 226 11458426808498728401
44062 13 18116429250065350612
463206 1 18188773830072332098
497634 4 7997974574853310019
5104073 3 18130513023876590651
559249 180 18264489482036106681
5924683 9 17489296508596401879
7808743 9 10158535814244176970
7970288 3 18194117409581373054
960060 61 17603874407560689862
9709674 26 18262240031152729587

> <PUBCHEM_SHAPE_MULTIPOLES>
484.9
13.8
3.05
1.52
1.31
0.36
0.22
7.33
-1.54
3.87
-0.03
-0.62
0.05
-0.82

> <PUBCHEM_SHAPE_SELFOVERLAP>
1019.196

> <PUBCHEM_SHAPE_VOLUME>
278.4

> <PUBCHEM_COORDINATE_TYPE>
2
5
10

$$$$
