128135
  -OEChem-03292013323D

 53 55  0     1  0  0  0  0  0999 V2000
    2.3506   -0.6521   -0.0054 O   0  0  0  0  0  0  0  0  0  0  0  0
    6.1151    0.6796    0.9575 O   0  0  0  0  0  0  0  0  0  0  0  0
    1.5376    1.5285   -0.1691 O   0  0  0  0  0  0  0  0  0  0  0  0
    5.7367   -2.0349   -0.0104 O   0  0  0  0  0  0  0  0  0  0  0  0
    4.1904    2.4846   -0.3503 O   0  0  0  0  0  0  0  0  0  0  0  0
    3.7584   -3.8683   -0.0223 O   0  0  0  0  0  0  0  0  0  0  0  0
    1.8195   -3.0109    0.8154 O   0  0  0  0  0  0  0  0  0  0  0  0
    0.1283    0.2034   -1.4168 O   0  0  0  0  0  0  0  0  0  0  0  0
   -2.4183    0.4070   -0.4294 N   0  0  0  0  0  0  0  0  0  0  0  0
    5.0682    0.2773    0.0731 C   0  0  1  0  0  0  0  0  0  0  0  0
    4.6891   -1.1643    0.4138 C   0  0  1  0  0  0  0  0  0  0  0  0
    3.8751    1.2201    0.2320 C   0  0  2  0  0  0  0  0  0  0  0  0
    3.4019   -1.5662   -0.2952 C   0  0  1  0  0  0  0  0  0  0  0  0
    2.6343    0.6658   -0.4685 C   0  0  1  0  0  0  0  0  0  0  0  0
    2.8834   -2.8648    0.2321 C   0  0  0  0  0  0  0  0  0  0  0  0
    0.3412    1.1763   -0.7100 C   0  0  0  0  0  0  0  0  0  0  0  0
   -0.7117    2.1504   -0.3266 C   0  0  0  0  0  0  0  0  0  0  0  0
   -2.0258    1.7450   -0.2018 C   0  0  0  0  0  0  0  0  0  0  0  0
   -0.3255    3.4585   -0.1039 C   0  0  0  0  0  0  0  0  0  0  0  0
   -3.4514   -0.3852    0.1037 C   0  0  0  0  0  0  0  0  0  0  0  0
   -4.0378   -1.4071   -0.6483 C   0  0  0  0  0  0  0  0  0  0  0  0
   -2.9924    2.6835    0.1596 C   0  0  0  0  0  0  0  0  0  0  0  0
   -5.0612   -2.1815   -0.1019 C   0  0  0  0  0  0  0  0  0  0  0  0
   -1.2920    4.3970    0.2576 C   0  0  0  0  0  0  0  0  0  0  0  0
   -3.8966   -0.1441    1.4063 C   0  0  0  0  0  0  0  0  0  0  0  0
   -2.6254    4.0095    0.3893 C   0  0  0  0  0  0  0  0  0  0  0  0
   -3.5675   -1.6724   -2.0441 C   0  0  0  0  0  0  0  0  0  0  0  0
   -5.5024   -1.9372    1.1985 C   0  0  0  0  0  0  0  0  0  0  0  0
   -4.9199   -0.9185    1.9527 C   0  0  0  0  0  0  0  0  0  0  0  0
   -5.7017   -3.2786   -0.8876 C   0  0  0  0  0  0  0  0  0  0  0  0
    5.4763    0.3497   -0.9427 H   0  0  0  0  0  0  0  0  0  0  0  0
    4.5936   -1.2775    1.5008 H   0  0  0  0  0  0  0  0  0  0  0  0
    3.6665    1.3981    1.2942 H   0  0  0  0  0  0  0  0  0  0  0  0
    3.5193   -1.6613   -1.3818 H   0  0  0  0  0  0  0  0  0  0  0  0
    2.7781    0.6635   -1.5579 H   0  0  0  0  0  0  0  0  0  0  0  0
    6.8524    0.0565    0.8383 H   0  0  0  0  0  0  0  0  0  0  0  0
    5.8322   -1.9446   -0.9739 H   0  0  0  0  0  0  0  0  0  0  0  0
    4.9942    2.8133    0.0876 H   0  0  0  0  0  0  0  0  0  0  0  0
    3.4365   -4.7302    0.3181 H   0  0  0  0  0  0  0  0  0  0  0  0
   -1.8194   -0.0882   -1.0819 H   0  0  0  0  0  0  0  0  0  0  0  0
    0.7014    3.7944   -0.2144 H   0  0  0  0  0  0  0  0  0  0  0  0
   -4.0426    2.4188    0.2452 H   0  0  0  0  0  0  0  0  0  0  0  0
   -1.0076    5.4307    0.4316 H   0  0  0  0  0  0  0  0  0  0  0  0
   -3.4467    0.6247    2.0288 H   0  0  0  0  0  0  0  0  0  0  0  0
   -3.3788    4.7420    0.6641 H   0  0  0  0  0  0  0  0  0  0  0  0
   -3.3103   -0.7435   -2.5650 H   0  0  0  0  0  0  0  0  0  0  0  0
   -2.6865   -2.3221   -2.0248 H   0  0  0  0  0  0  0  0  0  0  0  0
   -4.3289   -2.1414   -2.6736 H   0  0  0  0  0  0  0  0  0  0  0  0
   -6.2984   -2.5311    1.6398 H   0  0  0  0  0  0  0  0  0  0  0  0
   -5.2596   -0.7321    2.9673 H   0  0  0  0  0  0  0  0  0  0  0  0
   -4.9498   -3.9717   -1.2795 H   0  0  0  0  0  0  0  0  0  0  0  0
   -6.3809   -3.8736   -0.2665 H   0  0  0  0  0  0  0  0  0  0  0  0
   -6.2933   -2.8676   -1.7120 H   0  0  0  0  0  0  0  0  0  0  0  0
  1 13  1  0  0  0  0
  1 14  1  0  0  0  0
  2 10  1  0  0  0  0
  2 36  1  0  0  0  0
  3 14  1  0  0  0  0
  3 16  1  0  0  0  0
  4 11  1  0  0  0  0
  4 37  1  0  0  0  0
  5 12  1  0  0  0  0
  5 38  1  0  0  0  0
  6 15  1  0  0  0  0
  6 39  1  0  0  0  0
  7 15  2  0  0  0  0
  8 16  2  0  0  0  0
  9 18  1  0  0  0  0
  9 20  1  0  0  0  0
  9 40  1  0  0  0  0
 10 11  1  0  0  0  0
 10 12  1  0  0  0  0
 10 31  1  0  0  0  0
 11 13  1  0  0  0  0
 11 32  1  0  0  0  0
 12 14  1  0  0  0  0
 12 33  1  0  0  0  0
 13 15  1  0  0  0  0
 13 34  1  0  0  0  0
 14 35  1  0  0  0  0
 16 17  1  0  0  0  0
 17 18  1  0  0  0  0
 17 19  2  0  0  0  0
 18 22  2  0  0  0  0
 19 24  1  0  0  0  0
 19 41  1  0  0  0  0
 20 21  1  0  0  0  0
 20 25  2  0  0  0  0
 21 23  2  0  0  0  0
 21 27  1  0  0  0  0
 22 26  1  0  0  0  0
 22 42  1  0  0  0  0
 23 28  1  0  0  0  0
 23 30  1  0  0  0  0
 24 26  2  0  0  0  0
 24 43  1  0  0  0  0
 25 29  1  0  0  0  0
 25 44  1  0  0  0  0
 26 45  1  0  0  0  0
 27 46  1  0  0  0  0
 27 47  1  0  0  0  0
 27 48  1  0  0  0  0
 28 29  2  0  0  0  0
 28 49  1  0  0  0  0
 29 50  1  0  0  0  0
 30 51  1  0  0  0  0
 30 52  1  0  0  0  0
 30 53  1  0  0  0  0
M  END
> <PUBCHEM_COMPOUND_CID>
128135

> <PUBCHEM_CONFORMER_RMSD>
1

> <PUBCHEM_CONFORMER_DIVERSEORDER>
1
99
71
150
155
113
13
249
152
14
180
118
227
114
195
85
89
63
146
226
230
200
142
242
158
102
3
148
205
165
94
240
122
15
24
143
216
93
167
4
55
231
130
197
58
37
171
22
53
88
183
199
103
56
34
137
92
76
26
108
213
184
204
126
170
234
220
241
128
153
33
192
19
57
149
222
182
40
223
60
186
239
18
232
194
29
31
38
91
162
125
39
95
193
129
5
174
243
11
228
20
202
116
6
117
100
134
211
247
32
206
224
217
87
41
190
198
25
51
50
30
185
42
7
191
160
52
248
236
83
178
139
237
47
157
45
127
144
238
212
151
81
133
121
187
73
111
246
62
166
179
218
74
173
245
188
21
109
72
196
36
168
105
16
79
201
96
69
181
44
106
27
176
104
75
54
225
10
65
90
161
43
233
215
136
159
140
17
207
46
189
82
210
221
70
209
164
244
98
163
229
48
86
177
101
156
132
2
64
169
78
208
214
84
147
107
35
23
8
124
68
67
145
28
115
219
66
172
135
9
119
123
12
154
235
80
203
97
120
61
141
112
77
110
138
59
49
131
175

> <PUBCHEM_MMFF94_PARTIAL_CHARGES>
42
1 -0.56
10 0.28
11 0.28
12 0.28
13 0.34
14 0.56
15 0.66
16 0.63
17 0.09
18 0.1
19 -0.15
2 -0.68
20 0.1
21 -0.14
22 -0.15
23 -0.14
24 -0.15
25 -0.15
26 -0.15
27 0.14
28 -0.15
29 -0.15
3 -0.43
30 0.14
36 0.4
37 0.4
38 0.4
39 0.5
4 -0.68
40 0.4
41 0.15
42 0.15
43 0.15
44 0.15
45 0.15
49 0.15
5 -0.68
50 0.15
6 -0.65
7 -0.57
8 -0.57
9 -0.6

> <PUBCHEM_EFFECTIVE_ROTOR_COUNT>
7.2

> <PUBCHEM_PHARMACOPHORE_FEATURES>
16
1 1 acceptor
1 2 acceptor
1 2 donor
1 4 acceptor
1 4 donor
1 5 acceptor
1 5 donor
1 6 acceptor
1 7 acceptor
1 8 acceptor
1 9 cation
1 9 donor
3 6 7 15 anion
6 1 10 11 12 13 14 rings
6 17 18 19 22 24 26 rings
6 20 21 23 25 28 29 rings

> <PUBCHEM_HEAVY_ATOM_COUNT>
30

> <PUBCHEM_ATOM_DEF_STEREO_COUNT>
5

> <PUBCHEM_ATOM_UDEF_STEREO_COUNT>
0

> <PUBCHEM_BOND_DEF_STEREO_COUNT>
0

> <PUBCHEM_BOND_UDEF_STEREO_COUNT>
0

> <PUBCHEM_ISOTOPIC_ATOM_COUNT>
0

> <PUBCHEM_COMPONENT_COUNT>
1

> <PUBCHEM_CACTVS_TAUTO_COUNT>
2

> <PUBCHEM_CONFORMER_ID>
0001F48700000001

> <PUBCHEM_MMFF94_ENERGY>
102.8969

> <PUBCHEM_FEATURE_SELFOVERLAP>
81.289

> <PUBCHEM_SHAPE_FINGERPRINT>
11552529 35 18271810060213116857
11991303 11 17970629576565746437
12422481 6 17775018859859480415
12553582 1 18340497775997895493
12596602 18 17560808765788154946
12633257 1 16917072183100194755
13544653 18 18334860545369672517
13583140 156 17988065717541651016
1361 2 18051129495099937264
13631057 29 18411135840289469964
13690498 29 18195546812971691622
13911987 19 17755319090070944204
14394314 77 18412548743154473665
14840074 17 18201442523116214527
14844126 61 18338516327306316057
15042514 8 18338242557617647673
15361156 5 18042707025878221588
17492 89 18338235964562779766
1813 80 18198639893973774501
19301679 30 18337686273553034419
19315092 285 17559394867455557451
19319366 153 17831872608571532757
20028762 73 18341331197343666958
21065198 57 18122907534444078028
21133410 171 17540762388703992763
23559900 14 18265044739661474440
24893989 43 16907229591121913535
314194 84 18265059222338091193
3737641 26 18412269419307713450
392239 28 18409451401101922618
4073 2 18265333915809588848
44880168 125 17060065813075320662
4616759 239 17624954064559053034
46194498 28 17242444156538029983
463206 1 18191309475552598179
5104073 3 18340762625451765184
5309563 4 18339641252155498311
6004065 56 18121496027749128347
6431902 208 18335420183697697115
653340 110 18339075982634790402
70251023 43 18193268831680823985
7970288 3 18266739258962984567

> <PUBCHEM_SHAPE_MULTIPOLES>
565.45
13.85
5.3
1.2
5.04
2.67
0.02
-11.84
2.61
-1.74
0.06
-1.68
-0.55
-0.89

> <PUBCHEM_SHAPE_SELFOVERLAP>
1217.582

> <PUBCHEM_SHAPE_VOLUME>
307.7

> <PUBCHEM_COORDINATE_TYPE>
2
5
10

$$$$
