128149
  -OEChem-03292013323D

 39 42  0     1  0  0  0  0  0999 V2000
   -4.2690   -0.0198    1.6092 O   0  0  0  0  0  0  0  0  0  0  0  0
   -4.2288   -2.2489   -0.1266 O   0  0  0  0  0  0  0  0  0  0  0  0
   -1.6801   -2.0633    0.5897 O   0  0  0  0  0  0  0  0  0  0  0  0
    0.3881   -2.0570   -0.9284 O   0  0  0  0  0  0  0  0  0  0  0  0
    2.8122    2.5280   -0.1631 O   0  0  0  0  0  0  0  0  0  0  0  0
    5.0494    1.3853    0.4162 O   0  0  0  0  0  0  0  0  0  0  0  0
   -4.2965    0.1512    0.1863 C   0  0  1  0  0  0  0  0  0  0  0  0
   -3.5779    1.4595   -0.1724 C   0  0  0  0  0  0  0  0  0  0  0  0
   -3.5808   -1.0338   -0.4659 C   0  0  1  0  0  0  0  0  0  0  0  0
   -2.0665    1.3833   -0.1249 C   0  0  0  0  0  0  0  0  0  0  0  0
   -1.3508    0.1687   -0.1336 C   0  0  0  0  0  0  0  0  0  0  0  0
   -2.1483   -1.0784    0.0292 C   0  0  0  0  0  0  0  0  0  0  0  0
    0.0611    0.1771   -0.2002 C   0  0  0  0  0  0  0  0  0  0  0  0
   -5.7692    0.2181   -0.2326 C   0  0  0  0  0  0  0  0  0  0  0  0
    0.7419    1.4029   -0.1474 C   0  0  0  0  0  0  0  0  0  0  0  0
   -1.3583    2.5934   -0.1286 C   0  0  0  0  0  0  0  0  0  0  0  0
    0.0328    2.6063   -0.1127 C   0  0  0  0  0  0  0  0  0  0  0  0
    0.8727   -1.0481   -0.4321 C   0  0  0  0  0  0  0  0  0  0  0  0
    2.2209    1.4567   -0.1124 C   0  0  0  0  0  0  0  0  0  0  0  0
    2.3170   -1.0213   -0.1370 C   0  0  0  0  0  0  0  0  0  0  0  0
    2.9755    0.1974    0.0095 C   0  0  0  0  0  0  0  0  0  0  0  0
    4.3526    0.2248    0.2551 C   0  0  0  0  0  0  0  0  0  0  0  0
    3.0331   -2.2198   -0.0419 C   0  0  0  0  0  0  0  0  0  0  0  0
    5.0637   -0.9712    0.3565 C   0  0  0  0  0  0  0  0  0  0  0  0
    4.4053   -2.1911    0.2083 C   0  0  0  0  0  0  0  0  0  0  0  0
   -3.9102    2.2496    0.5139 H   0  0  0  0  0  0  0  0  0  0  0  0
   -3.8489    1.7613   -1.1927 H   0  0  0  0  0  0  0  0  0  0  0  0
   -3.5761   -0.9486   -1.5592 H   0  0  0  0  0  0  0  0  0  0  0  0
   -6.2629    1.0796    0.2319 H   0  0  0  0  0  0  0  0  0  0  0  0
   -5.8761    0.3027   -1.3189 H   0  0  0  0  0  0  0  0  0  0  0  0
   -6.3193   -0.6674    0.1047 H   0  0  0  0  0  0  0  0  0  0  0  0
   -1.8933    3.5404   -0.1284 H   0  0  0  0  0  0  0  0  0  0  0  0
    0.5432    3.5652   -0.0848 H   0  0  0  0  0  0  0  0  0  0  0  0
   -3.3584    0.1012    1.9254 H   0  0  0  0  0  0  0  0  0  0  0  0
   -3.7910   -2.9620   -0.6221 H   0  0  0  0  0  0  0  0  0  0  0  0
    2.5407   -3.1818   -0.1561 H   0  0  0  0  0  0  0  0  0  0  0  0
    6.1329   -0.9605    0.5511 H   0  0  0  0  0  0  0  0  0  0  0  0
    4.9618   -3.1207    0.2860 H   0  0  0  0  0  0  0  0  0  0  0  0
    4.4455    2.1432    0.4428 H   0  0  0  0  0  0  0  0  0  0  0  0
  1  7  1  0  0  0  0
  1 34  1  0  0  0  0
  2  9  1  0  0  0  0
  2 35  1  0  0  0  0
  3 12  2  0  0  0  0
  4 18  2  0  0  0  0
  5 19  2  0  0  0  0
  6 22  1  0  0  0  0
  6 39  1  0  0  0  0
  7  8  1  0  0  0  0
  7  9  1  0  0  0  0
  7 14  1  0  0  0  0
  8 10  1  0  0  0  0
  8 26  1  0  0  0  0
  8 27  1  0  0  0  0
  9 12  1  0  0  0  0
  9 28  1  0  0  0  0
 10 11  2  0  0  0  0
 10 16  1  0  0  0  0
 11 12  1  0  0  0  0
 11 13  1  0  0  0  0
 13 15  2  0  0  0  0
 13 18  1  0  0  0  0
 14 29  1  0  0  0  0
 14 30  1  0  0  0  0
 14 31  1  0  0  0  0
 15 17  1  0  0  0  0
 15 19  1  0  0  0  0
 16 17  2  0  0  0  0
 16 32  1  0  0  0  0
 17 33  1  0  0  0  0
 18 20  1  0  0  0  0
 19 21  1  0  0  0  0
 20 21  2  0  0  0  0
 20 23  1  0  0  0  0
 21 22  1  0  0  0  0
 22 24  2  0  0  0  0
 23 25  2  0  0  0  0
 23 36  1  0  0  0  0
 24 25  1  0  0  0  0
 24 37  1  0  0  0  0
 25 38  1  0  0  0  0
M  END
> <PUBCHEM_COMPOUND_CID>
128149

> <PUBCHEM_CONFORMER_RMSD>
0.6

> <PUBCHEM_CONFORMER_DIVERSEORDER>
1
2
6
3
7
4
5

> <PUBCHEM_MMFF94_PARTIAL_CHARGES>
32
1 -0.68
10 -0.14
11 0.09
12 0.42
13 0.09
15 0.09
16 -0.15
17 -0.15
18 0.4
19 0.4
2 -0.68
20 0.09
21 0.09
22 0.08
23 -0.15
24 -0.15
25 -0.15
3 -0.57
32 0.15
33 0.15
34 0.4
35 0.4
36 0.15
37 0.15
38 0.15
39 0.45
4 -0.57
5 -0.57
6 -0.53
7 0.28
8 0.14
9 0.34

> <PUBCHEM_EFFECTIVE_ROTOR_COUNT>
0.6

> <PUBCHEM_PHARMACOPHORE_FEATURES>
12
1 1 acceptor
1 1 donor
1 2 acceptor
1 2 donor
1 3 acceptor
1 4 acceptor
1 5 acceptor
1 6 donor
6 10 11 13 15 16 17 rings
6 13 15 18 19 20 21 rings
6 20 21 22 23 24 25 rings
6 7 8 9 10 11 12 rings

> <PUBCHEM_HEAVY_ATOM_COUNT>
25

> <PUBCHEM_ATOM_DEF_STEREO_COUNT>
0

> <PUBCHEM_ATOM_UDEF_STEREO_COUNT>
2

> <PUBCHEM_BOND_DEF_STEREO_COUNT>
0

> <PUBCHEM_BOND_UDEF_STEREO_COUNT>
0

> <PUBCHEM_ISOTOPIC_ATOM_COUNT>
0

> <PUBCHEM_COMPONENT_COUNT>
1

> <PUBCHEM_CACTVS_TAUTO_COUNT>
369

> <PUBCHEM_CONFORMER_ID>
0001F49500000001

> <PUBCHEM_MMFF94_ENERGY>
81.8871

> <PUBCHEM_FEATURE_SELFOVERLAP>
60.988

> <PUBCHEM_SHAPE_FINGERPRINT>
10 15 18339909482217674088
10616163 171 18340207491552682574
10675989 125 16245171257031726300
10688039 33 18113618949969103157
10906281 52 18339380599032331269
10967382 1 18410856589931582988
11135609 12 17823992323510668403
11578080 2 17058348513720868250
11796584 16 17022623074267754763
12011746 2 18411421687484593134
12107183 9 17837214774808850297
12236239 1 17775282764240851853
12403259 226 18337947900979889972
12553582 1 18338533974757145013
12633257 1 18341903961096178387
12788726 201 18059870427989232952
13140716 1 18411986879358162787
13224815 77 18202003222137156396
13402501 40 18410572864175542895
13544653 18 18333736814236528973
138480 1 14519462365501039268
13862211 1 18410852131607895119
14341114 176 18411142411304251946
14787075 74 18260267481934145722
14790565 3 17687754152416363308
15196674 1 18410854347758025452
15352361 1 18410009927107016983
15788980 27 18113901554595617007
15927050 60 17693657426414233612
17349148 13 18272367546804048277
17492 89 18410572843002244246
1813 80 17385445405885273476
19141452 34 18341895190978792071
19591789 44 18411979204051294166
200 152 18131344203196315413
20028762 73 18202556272318510143
20261772 1 18201714042284697934
21033648 29 17749656442326877725
21267235 1 18410300185381700663
21279426 13 18264483984441220333
21421861 104 18042400227626628426
221490 88 18335425702614218634
23402539 116 18411411800538585847
23559900 14 18339635647122826728
3004659 81 18186519874226430118
335352 9 18410292476369143917
34934 24 18411132571523874150
350125 39 18411699881602310892
3680242 22 18264493897067276043
4214541 1 18338233769449324197
5104073 3 18339360751862123000
5283173 99 18043238051429760421
59755656 215 18410578353771754894
9709674 26 18408326609244173882
9981440 41 17399233543517191809

> <PUBCHEM_SHAPE_MULTIPOLES>
479.27
10.71
2.84
0.76
1
0.48
-0.1
-2.66
-1.43
-0.77
0.16
0.33
-0.1
0.07

> <PUBCHEM_SHAPE_SELFOVERLAP>
1089.74

> <PUBCHEM_SHAPE_VOLUME>
247

> <PUBCHEM_COORDINATE_TYPE>
2
5
10

$$$$
