128147
  -OEChem-03292013323D

 50 49  0     1  0  0  0  0  0999 V2000
    3.7577   -3.0892   -0.7468 O   0  0  0  0  0  0  0  0  0  0  0  0
   -5.7163   -0.9096   -1.6560 O   0  0  0  0  0  0  0  0  0  0  0  0
    5.9754    3.0523   -0.3085 O   0  0  0  0  0  0  0  0  0  0  0  0
    4.2001    2.1177   -1.3732 O   0  0  0  0  0  0  0  0  0  0  0  0
    0.0159    1.5684    0.0062 O   0  0  0  0  0  0  0  0  0  0  0  0
   -1.8344    1.9041   -1.2793 O   0  0  0  0  0  0  0  0  0  0  0  0
    4.5890   -1.5229    0.9063 C   0  0  0  0  0  0  0  0  0  0  0  0
    4.3207   -0.2653    0.0657 C   0  0  0  0  0  0  0  0  0  0  0  0
    3.6252   -2.6840    0.6126 C   0  0  1  0  0  0  0  0  0  0  0  0
    5.3389    0.8402    0.3301 C   0  0  0  0  0  0  0  0  0  0  0  0
    2.1954   -2.3466    0.9539 C   0  0  0  0  0  0  0  0  0  0  0  0
   -5.3584   -0.3292    0.6481 C   0  0  0  0  0  0  0  0  0  0  0  0
   -5.0576   -1.3498   -0.4639 C   0  0  2  0  0  0  0  0  0  0  0  0
    5.1011    2.0441   -0.5472 C   0  0  0  0  0  0  0  0  0  0  0  0
   -4.7381    1.0263    0.4300 C   0  0  0  0  0  0  0  0  0  0  0  0
    1.1559   -2.3449    0.1044 C   0  0  0  0  0  0  0  0  0  0  0  0
   -3.2142    2.9923    0.9939 C   0  0  0  0  0  0  0  0  0  0  0  0
   -3.6182   -1.6713   -0.7850 C   0  0  0  0  0  0  0  0  0  0  0  0
   -3.8343    1.6405    1.2092 C   0  0  0  0  0  0  0  0  0  0  0  0
   -1.6921    2.9277    0.9110 C   0  0  0  0  0  0  0  0  0  0  0  0
   -0.1922   -2.0103    0.5093 C   0  0  0  0  0  0  0  0  0  0  0  0
   -2.5793   -1.6729    0.0645 C   0  0  0  0  0  0  0  0  0  0  0  0
   -1.2310   -2.0086   -0.3399 C   0  0  0  0  0  0  0  0  0  0  0  0
   -1.2093    2.0909   -0.2453 C   0  0  0  0  0  0  0  0  0  0  0  0
    4.5438   -1.2644    1.9716 H   0  0  0  0  0  0  0  0  0  0  0  0
    5.6130   -1.8598    0.7000 H   0  0  0  0  0  0  0  0  0  0  0  0
    3.3144    0.1173    0.2754 H   0  0  0  0  0  0  0  0  0  0  0  0
    4.3396   -0.5273   -0.9996 H   0  0  0  0  0  0  0  0  0  0  0  0
    3.9156   -3.5431    1.2292 H   0  0  0  0  0  0  0  0  0  0  0  0
    6.3506    0.4712    0.1293 H   0  0  0  0  0  0  0  0  0  0  0  0
    5.2762    1.1593    1.3761 H   0  0  0  0  0  0  0  0  0  0  0  0
    2.0206   -2.0911    1.9982 H   0  0  0  0  0  0  0  0  0  0  0  0
   -5.0372   -0.7360    1.6148 H   0  0  0  0  0  0  0  0  0  0  0  0
   -6.4440   -0.1814    0.7124 H   0  0  0  0  0  0  0  0  0  0  0  0
   -5.5472   -2.2925   -0.1888 H   0  0  0  0  0  0  0  0  0  0  0  0
   -5.0739    1.5524   -0.4621 H   0  0  0  0  0  0  0  0  0  0  0  0
    4.6890   -3.3276   -0.8933 H   0  0  0  0  0  0  0  0  0  0  0  0
    1.3058   -2.5984   -0.9413 H   0  0  0  0  0  0  0  0  0  0  0  0
   -3.6173    3.4530    0.0836 H   0  0  0  0  0  0  0  0  0  0  0  0
   -3.4993    3.6409    1.8305 H   0  0  0  0  0  0  0  0  0  0  0  0
   -3.5074    1.1195    2.1078 H   0  0  0  0  0  0  0  0  0  0  0  0
   -3.4313   -1.9683   -1.8169 H   0  0  0  0  0  0  0  0  0  0  0  0
   -1.2955    2.5060    1.8427 H   0  0  0  0  0  0  0  0  0  0  0  0
   -1.2801    3.9355    0.7912 H   0  0  0  0  0  0  0  0  0  0  0  0
   -0.3451   -1.7505    1.5545 H   0  0  0  0  0  0  0  0  0  0  0  0
   -2.7340   -1.4149    1.1082 H   0  0  0  0  0  0  0  0  0  0  0  0
   -1.0776   -2.2666   -1.3855 H   0  0  0  0  0  0  0  0  0  0  0  0
   -5.6453   -1.6198   -2.3168 H   0  0  0  0  0  0  0  0  0  0  0  0
    5.8004    3.8315   -0.8781 H   0  0  0  0  0  0  0  0  0  0  0  0
    0.3405    1.0188   -0.7388 H   0  0  0  0  0  0  0  0  0  0  0  0
  1  9  1  0  0  0  0
  1 37  1  0  0  0  0
  2 13  1  0  0  0  0
  2 48  1  0  0  0  0
  3 14  1  0  0  0  0
  3 49  1  0  0  0  0
  4 14  2  0  0  0  0
  5 24  1  0  0  0  0
  5 50  1  0  0  0  0
  6 24  2  0  0  0  0
  7  8  1  0  0  0  0
  7  9  1  0  0  0  0
  7 25  1  0  0  0  0
  7 26  1  0  0  0  0
  8 10  1  0  0  0  0
  8 27  1  0  0  0  0
  8 28  1  0  0  0  0
  9 11  1  0  0  0  0
  9 29  1  0  0  0  0
 10 14  1  0  0  0  0
 10 30  1  0  0  0  0
 10 31  1  0  0  0  0
 11 16  2  3  0  0  0
 11 32  1  0  0  0  0
 12 13  1  0  0  0  0
 12 15  1  0  0  0  0
 12 33  1  0  0  0  0
 12 34  1  0  0  0  0
 13 18  1  0  0  0  0
 13 35  1  0  0  0  0
 15 19  2  3  0  0  0
 15 36  1  0  0  0  0
 16 21  1  0  0  0  0
 16 38  1  0  0  0  0
 17 19  1  0  0  0  0
 17 20  1  0  0  0  0
 17 39  1  0  0  0  0
 17 40  1  0  0  0  0
 18 22  2  3  0  0  0
 18 42  1  0  0  0  0
 19 41  1  0  0  0  0
 20 24  1  0  0  0  0
 20 43  1  0  0  0  0
 20 44  1  0  0  0  0
 21 23  2  3  0  0  0
 21 45  1  0  0  0  0
 22 23  1  0  0  0  0
 22 46  1  0  0  0  0
 23 47  1  0  0  0  0
M  END
> <PUBCHEM_COMPOUND_CID>
128147

> <PUBCHEM_CONFORMER_RMSD>
1

> <PUBCHEM_CONFORMER_DIVERSEORDER>
1
200
175
92
49
182
191
2
30
94
207
232
99
20
156
61
36
209
117
52
142
96
205
145
12
81
65
137
234
194
47
120
196
19
158
85
237
239
128
21
197
56
195
59
39
26
100
51
150
46
235
181
41
73
134
188
218
88
230
193
138
53
212
8
108
184
202
123
121
130
48
14
50
229
139
17
216
104
176
16
127
109
160
124
155
168
29
201
118
238
110
203
190
163
136
192
69
225
220
170
43
157
95
79
166
140
221
4
131
198
189
10
55
45
143
106
206
33
226
115
178
32
236
9
119
173
31
147
82
185
63
70
167
169
114
76
84
3
89
102
177
74
58
87
64
35
93
77
151
222
42
60
159
97
23
62
228
22
132
213
101
172
25
15
180
71
90
103
11
37
68
174
144
57
164
199
219
210
146
66
154
152
165
233
67
18
6
215
83
211
112
179
5
148
227
44
231
54
162
78
72
126
113
98
153
204
40
141
217
135
27
116
133
149
214
86
208
111
75
80
122
171
13
107
38
183
105
186
34
223
187
125
7
161
224
28
129
91
24

> <PUBCHEM_MMFF94_PARTIAL_CHARGES>
34
1 -0.68
10 0.06
11 -0.29
12 0.14
13 0.42
14 0.66
15 -0.29
16 -0.15
17 0.14
18 -0.29
19 -0.29
2 -0.68
20 0.06
21 -0.15
22 -0.15
23 -0.15
24 0.66
3 -0.65
32 0.15
36 0.15
37 0.4
38 0.15
4 -0.57
41 0.15
42 0.15
45 0.15
46 0.15
47 0.15
48 0.4
49 0.5
5 -0.65
50 0.5
6 -0.57
9 0.42

> <PUBCHEM_EFFECTIVE_ROTOR_COUNT>
13

> <PUBCHEM_PHARMACOPHORE_FEATURES>
10
1 1 acceptor
1 1 donor
1 2 acceptor
1 2 donor
1 3 acceptor
1 4 acceptor
1 5 acceptor
1 6 acceptor
3 3 4 14 anion
3 5 6 24 anion

> <PUBCHEM_HEAVY_ATOM_COUNT>
24

> <PUBCHEM_ATOM_DEF_STEREO_COUNT>
2

> <PUBCHEM_ATOM_UDEF_STEREO_COUNT>
0

> <PUBCHEM_BOND_DEF_STEREO_COUNT>
0

> <PUBCHEM_BOND_UDEF_STEREO_COUNT>
4

> <PUBCHEM_ISOTOPIC_ATOM_COUNT>
0

> <PUBCHEM_COMPONENT_COUNT>
1

> <PUBCHEM_CACTVS_TAUTO_COUNT>
1

> <PUBCHEM_CONFORMER_ID>
0001F49300000001

> <PUBCHEM_MMFF94_ENERGY>
19.7778

> <PUBCHEM_FEATURE_SELFOVERLAP>
50.864

> <PUBCHEM_SHAPE_FINGERPRINT>
10670039 82 18411706461318193750
14251764 38 18338520733736903306
14394314 77 18340778095982552553
14464042 87 18411135865700343838
14790565 3 18411141294634217915
16110190 28 18341621361291723729
17844677 252 18340492149206369115
21623110 236 18409731721017370961
245318 6 17751377272603032444
338550 245 18335425642980834420
5312544 6 18334863822540443440

> <PUBCHEM_SHAPE_MULTIPOLES>
458.69
14.72
4.55
1.15
6.55
1.38
-0.14
3.34
-1.3
2.78
0.15
-0.53
0.19
-2.81

> <PUBCHEM_SHAPE_SELFOVERLAP>
886.704

> <PUBCHEM_SHAPE_VOLUME>
274.9

> <PUBCHEM_COORDINATE_TYPE>
2
5
10

$$$$
