128267
  -OEChem-03292013323D

 53 53  0     1  0  0  0  0  0999 V2000
   -2.0640    1.2805    0.3925 O   0  0  0  0  0  0  0  0  0  0  0  0
   -0.8541   -1.6345   -0.9902 O   0  0  0  0  0  0  0  0  0  0  0  0
   -3.5845    1.6306   -1.2875 O   0  0  0  0  0  0  0  0  0  0  0  0
    1.4412    0.1666    1.8098 O   0  0  0  0  0  0  0  0  0  0  0  0
    3.8169    1.1931    0.7330 O   0  0  0  0  0  0  0  0  0  0  0  0
   -3.2135   -0.4991   -0.4629 N   0  0  0  0  0  0  0  0  0  0  0  0
   -0.4087   -1.8346    1.2860 N   0  0  0  0  0  0  0  0  0  0  0  0
    2.9720   -0.9609    0.4569 N   0  0  0  0  0  0  0  0  0  0  0  0
    5.1109    0.4329   -1.8022 N   0  0  0  0  0  0  0  0  0  0  0  0
   -2.6417   -1.3548    0.5666 C   0  0  1  0  0  0  0  0  0  0  0  0
   -3.4812   -2.6265    0.5175 C   0  0  0  0  0  0  0  0  0  0  0  0
   -3.9439   -2.6928   -0.9370 C   0  0  0  0  0  0  0  0  0  0  0  0
   -4.1523   -1.2321   -1.3055 C   0  0  0  0  0  0  0  0  0  0  0  0
   -1.2158   -1.6124    0.1835 C   0  0  0  0  0  0  0  0  0  0  0  0
   -3.0017    0.8705   -0.5174 C   0  0  0  0  0  0  0  0  0  0  0  0
   -1.7796    2.6839    0.4106 C   0  0  0  0  0  0  0  0  0  0  0  0
    1.0027   -2.1285    1.1861 C   0  0  0  0  0  0  0  0  0  0  0  0
   -1.2465    3.0900   -0.9626 C   0  0  0  0  0  0  0  0  0  0  0  0
   -0.7257    2.9259    1.4890 C   0  0  0  0  0  0  0  0  0  0  0  0
   -3.0680    3.4368    0.7394 C   0  0  0  0  0  0  0  0  0  0  0  0
    1.8046   -0.8443    1.2148 C   0  0  0  0  0  0  0  0  0  0  0  0
    5.0751   -0.3967   -0.6006 C   0  0  2  0  0  0  0  0  0  0  0  0
    3.9051    0.0612    0.2619 C   0  0  0  0  0  0  0  0  0  0  0  0
    6.3828   -0.2653    0.1700 C   0  0  0  0  0  0  0  0  0  0  0  0
    3.8697    0.3107   -2.5518 C   0  0  0  0  0  0  0  0  0  0  0  0
   -2.7019   -0.8642    1.5443 H   0  0  0  0  0  0  0  0  0  0  0  0
   -2.9375   -3.5268    0.8194 H   0  0  0  0  0  0  0  0  0  0  0  0
   -4.3566   -2.5187    1.1696 H   0  0  0  0  0  0  0  0  0  0  0  0
   -4.8491   -3.2920   -1.0684 H   0  0  0  0  0  0  0  0  0  0  0  0
   -3.1552   -3.1303   -1.5604 H   0  0  0  0  0  0  0  0  0  0  0  0
   -3.9625   -1.0174   -2.3609 H   0  0  0  0  0  0  0  0  0  0  0  0
   -5.1622   -0.8914   -1.0524 H   0  0  0  0  0  0  0  0  0  0  0  0
   -0.8125   -1.7882    2.2169 H   0  0  0  0  0  0  0  0  0  0  0  0
    1.1857   -2.6921    0.2659 H   0  0  0  0  0  0  0  0  0  0  0  0
    1.2857   -2.7397    2.0481 H   0  0  0  0  0  0  0  0  0  0  0  0
   -0.5025    2.3695   -1.3222 H   0  0  0  0  0  0  0  0  0  0  0  0
   -0.7631    4.0728   -0.9091 H   0  0  0  0  0  0  0  0  0  0  0  0
   -2.0094    3.1795   -1.7398 H   0  0  0  0  0  0  0  0  0  0  0  0
   -0.4899    3.9897    1.5963 H   0  0  0  0  0  0  0  0  0  0  0  0
   -1.0646    2.5442    2.4587 H   0  0  0  0  0  0  0  0  0  0  0  0
    0.2009    2.3949    1.2490 H   0  0  0  0  0  0  0  0  0  0  0  0
   -3.7692    3.5271   -0.0939 H   0  0  0  0  0  0  0  0  0  0  0  0
   -2.8421    4.4657    1.0442 H   0  0  0  0  0  0  0  0  0  0  0  0
   -3.6052    2.9539    1.5640 H   0  0  0  0  0  0  0  0  0  0  0  0
    3.1563   -1.8597    0.0189 H   0  0  0  0  0  0  0  0  0  0  0  0
    4.9624   -1.4494   -0.8868 H   0  0  0  0  0  0  0  0  0  0  0  0
    6.5759    0.7721    0.4670 H   0  0  0  0  0  0  0  0  0  0  0  0
    6.3510   -0.8653    1.0863 H   0  0  0  0  0  0  0  0  0  0  0  0
    7.2317   -0.6102   -0.4304 H   0  0  0  0  0  0  0  0  0  0  0  0
    5.8903    0.1389   -2.3906 H   0  0  0  0  0  0  0  0  0  0  0  0
    3.6315   -0.7329   -2.7836 H   0  0  0  0  0  0  0  0  0  0  0  0
    3.9789    0.8387   -3.5052 H   0  0  0  0  0  0  0  0  0  0  0  0
    3.0206    0.7734   -2.0394 H   0  0  0  0  0  0  0  0  0  0  0  0
  1 15  1  0  0  0  0
  1 16  1  0  0  0  0
  2 14  2  0  0  0  0
  3 15  2  0  0  0  0
  4 21  2  0  0  0  0
  5 23  2  0  0  0  0
  6 10  1  0  0  0  0
  6 13  1  0  0  0  0
  6 15  1  0  0  0  0
  7 14  1  0  0  0  0
  7 17  1  0  0  0  0
  7 33  1  0  0  0  0
  8 21  1  0  0  0  0
  8 23  1  0  0  0  0
  8 45  1  0  0  0  0
  9 22  1  0  0  0  0
  9 25  1  0  0  0  0
  9 50  1  0  0  0  0
 10 11  1  0  0  0  0
 10 14  1  0  0  0  0
 10 26  1  0  0  0  0
 11 12  1  0  0  0  0
 11 27  1  0  0  0  0
 11 28  1  0  0  0  0
 12 13  1  0  0  0  0
 12 29  1  0  0  0  0
 12 30  1  0  0  0  0
 13 31  1  0  0  0  0
 13 32  1  0  0  0  0
 16 18  1  0  0  0  0
 16 19  1  0  0  0  0
 16 20  1  0  0  0  0
 17 21  1  0  0  0  0
 17 34  1  0  0  0  0
 17 35  1  0  0  0  0
 18 36  1  0  0  0  0
 18 37  1  0  0  0  0
 18 38  1  0  0  0  0
 19 39  1  0  0  0  0
 19 40  1  0  0  0  0
 19 41  1  0  0  0  0
 20 42  1  0  0  0  0
 20 43  1  0  0  0  0
 20 44  1  0  0  0  0
 22 23  1  0  0  0  0
 22 24  1  0  0  0  0
 22 46  1  0  0  0  0
 24 47  1  0  0  0  0
 24 48  1  0  0  0  0
 24 49  1  0  0  0  0
 25 51  1  0  0  0  0
 25 52  1  0  0  0  0
 25 53  1  0  0  0  0
M  END
> <PUBCHEM_COMPOUND_CID>
128267

> <PUBCHEM_CONFORMER_RMSD>
1

> <PUBCHEM_CONFORMER_DIVERSEORDER>
3
31
37
101
76
74
30
24
100
70
72
88
90
84
67
16
92
71
87
99
15
38
68
73
17
33
52
75
80
98
22
41
58
85
34
95
21
53
62
32
23
91
20
39
66
61
14
44
60
51
97
36
57
79
10
49
43
6
7
5
11
35
93
4
29
78
9
46
54
45
59
64
89
12
40
13
2
94
82
96
25
18
42
55
69
83
27
19
28
77
63
48
65
26
56
50
86
81
8
47
1

> <PUBCHEM_MMFF94_PARTIAL_CHARGES>
22
1 -0.43
10 0.36
13 0.3
14 0.57
15 0.78
16 0.28
17 0.36
2 -0.57
21 0.57
22 0.33
23 0.57
25 0.27
3 -0.57
33 0.37
4 -0.57
45 0.37
5 -0.57
50 0.36
6 -0.66
7 -0.73
8 -0.49
9 -0.9

> <PUBCHEM_EFFECTIVE_ROTOR_COUNT>
12

> <PUBCHEM_PHARMACOPHORE_FEATURES>
10
1 2 acceptor
1 3 acceptor
1 4 acceptor
1 5 acceptor
1 7 donor
1 8 donor
1 9 cation
1 9 donor
4 16 18 19 20 hydrophobe
5 6 10 11 12 13 rings

> <PUBCHEM_HEAVY_ATOM_COUNT>
25

> <PUBCHEM_ATOM_DEF_STEREO_COUNT>
2

> <PUBCHEM_ATOM_UDEF_STEREO_COUNT>
0

> <PUBCHEM_BOND_DEF_STEREO_COUNT>
0

> <PUBCHEM_BOND_UDEF_STEREO_COUNT>
0

> <PUBCHEM_ISOTOPIC_ATOM_COUNT>
0

> <PUBCHEM_COMPONENT_COUNT>
1

> <PUBCHEM_CACTVS_TAUTO_COUNT>
6

> <PUBCHEM_CONFORMER_ID>
0001F50B00000003

> <PUBCHEM_MMFF94_ENERGY>
57.5219

> <PUBCHEM_FEATURE_SELFOVERLAP>
50.75

> <PUBCHEM_SHAPE_FINGERPRINT>
10498660 4 18336815438119873793
10670039 82 18333169462505936942
10871710 139 18334297539608017445
11049842 53 18053370003592788210
12788726 201 18337100203511415211
13899415 154 18335985384963113395
13994607 96 17968674747553258017
14251751 93 18341052917589801116
14251757 17 17560247899436840246
14790565 3 18053656976760568729
14840074 17 17968953963420122469
14955137 171 18124884705770217643
15183329 4 17821729408817960346
15419009 47 17834414328122057982
16994733 274 15213558093776904279
17492 54 18191845870176558333
20642791 239 17968644004657504797
20642791 35 18341033195559109041
20775438 99 16972775889894993615
21033650 10 18267328494479741278
21095088 737 17969519275721282652
221357 26 18271519883605913706
23557571 272 18341896302800588247
23559900 14 18341598365198901584
46194498 28 17846220029208491540
469060 322 18042426727606370025
474 4 17240201023868484298
5048184 11 18120093883829961696
6299153 45 17896590688639197290

> <PUBCHEM_SHAPE_MULTIPOLES>
465.22
11.07
3.82
1.73
16.7
2.55
-0.59
-1.96
-4.22
-5.88
0.72
1.12
0.16
-0.88

> <PUBCHEM_SHAPE_SELFOVERLAP>
934.919

> <PUBCHEM_SHAPE_VOLUME>
274.4

> <PUBCHEM_COORDINATE_TYPE>
2
5
10

$$$$
