128232
  -OEChem-03292013323D

 43 46  0     0  0  0  0  0  0999 V2000
    2.7661    2.5684    0.8762 S   0  0  0  0  0  0  0  0  0  0  0  0
   -3.3713   -1.7063    0.6773 O   0  0  0  0  0  0  0  0  0  0  0  0
   -2.3457    2.8226    0.3334 O   0  0  0  0  0  0  0  0  0  0  0  0
   -1.8470   -0.9993   -0.9266 N   0  0  0  0  0  0  0  0  0  0  0  0
    0.7593   -1.9025    0.7929 N   0  0  0  0  0  0  0  0  0  0  0  0
   -2.8777    0.5613    0.5413 N   0  0  0  0  0  0  0  0  0  0  0  0
    0.8475    0.0606    1.8262 N   0  0  0  0  0  0  0  0  0  0  0  0
    2.8431   -1.8061   -0.4682 N   0  0  0  0  0  0  0  0  0  0  0  0
    3.8605    0.3992   -0.3113 N   0  0  0  0  0  0  0  0  0  0  0  0
   -0.2606   -2.9729   -1.2165 C   0  0  0  0  0  0  0  0  0  0  0  0
   -1.6508   -2.3593   -1.4469 C   0  0  0  0  0  0  0  0  0  0  0  0
    0.1710   -3.1115    0.2516 C   0  0  0  0  0  0  0  0  0  0  0  0
   -1.2674    1.3208   -1.1322 C   0  0  0  0  0  0  0  0  0  0  0  0
   -0.4907    2.4424   -1.7834 C   0  0  0  0  0  0  0  0  0  0  0  0
   -1.1658    0.0429   -1.5193 C   0  0  0  0  0  0  0  0  0  0  0  0
    0.9656    2.5475   -1.3013 C   0  0  0  0  0  0  0  0  0  0  0  0
   -2.7457   -0.7903    0.1339 C   0  0  0  0  0  0  0  0  0  0  0  0
   -2.2066    1.6536   -0.0243 C   0  0  0  0  0  0  0  0  0  0  0  0
    1.9275   -1.3178    0.3844 C   0  0  0  0  0  0  0  0  0  0  0  0
    1.0989    2.9122    0.1836 C   0  0  0  0  0  0  0  0  0  0  0  0
    1.9106   -0.0568    0.9617 C   0  0  0  0  0  0  0  0  0  0  0  0
    0.1987   -1.0800    1.7297 C   0  0  0  0  0  0  0  0  0  0  0  0
    2.8911    0.8388    0.5295 C   0  0  0  0  0  0  0  0  0  0  0  0
   -3.7977    0.8150    1.6457 C   0  0  0  0  0  0  0  0  0  0  0  0
    3.7874   -0.8824   -0.7373 C   0  0  0  0  0  0  0  0  0  0  0  0
   -0.2852   -3.9813   -1.6497 H   0  0  0  0  0  0  0  0  0  0  0  0
    0.4862   -2.4150   -1.7924 H   0  0  0  0  0  0  0  0  0  0  0  0
   -2.4020   -3.0306   -1.0153 H   0  0  0  0  0  0  0  0  0  0  0  0
   -1.8568   -2.3291   -2.5247 H   0  0  0  0  0  0  0  0  0  0  0  0
   -0.6709   -3.4063    0.8873 H   0  0  0  0  0  0  0  0  0  0  0  0
    0.9402   -3.8879    0.3405 H   0  0  0  0  0  0  0  0  0  0  0  0
   -0.9960    3.4050   -1.6425 H   0  0  0  0  0  0  0  0  0  0  0  0
   -0.4818    2.2781   -2.8693 H   0  0  0  0  0  0  0  0  0  0  0  0
   -0.5047   -0.2313   -2.3354 H   0  0  0  0  0  0  0  0  0  0  0  0
    1.4596    1.5989   -1.5355 H   0  0  0  0  0  0  0  0  0  0  0  0
    1.4775    3.3124   -1.8992 H   0  0  0  0  0  0  0  0  0  0  0  0
    0.9021    3.9822    0.3122 H   0  0  0  0  0  0  0  0  0  0  0  0
    0.3695    2.3877    0.8031 H   0  0  0  0  0  0  0  0  0  0  0  0
   -0.6999   -1.3390    2.2725 H   0  0  0  0  0  0  0  0  0  0  0  0
   -4.7964    0.4719    1.3569 H   0  0  0  0  0  0  0  0  0  0  0  0
   -3.4724    0.2342    2.5148 H   0  0  0  0  0  0  0  0  0  0  0  0
   -3.8435    1.8724    1.9161 H   0  0  0  0  0  0  0  0  0  0  0  0
    4.5845   -1.2023   -1.3996 H   0  0  0  0  0  0  0  0  0  0  0  0
  1 20  1  0  0  0  0
  1 23  1  0  0  0  0
  2 17  2  0  0  0  0
  3 18  2  0  0  0  0
  4 11  1  0  0  0  0
  4 15  1  0  0  0  0
  4 17  1  0  0  0  0
  5 12  1  0  0  0  0
  5 19  1  0  0  0  0
  5 22  1  0  0  0  0
  6 17  1  0  0  0  0
  6 18  1  0  0  0  0
  6 24  1  0  0  0  0
  7 21  1  0  0  0  0
  7 22  2  0  0  0  0
  8 19  1  0  0  0  0
  8 25  2  0  0  0  0
  9 23  2  0  0  0  0
  9 25  1  0  0  0  0
 10 11  1  0  0  0  0
 10 12  1  0  0  0  0
 10 26  1  0  0  0  0
 10 27  1  0  0  0  0
 11 28  1  0  0  0  0
 11 29  1  0  0  0  0
 12 30  1  0  0  0  0
 12 31  1  0  0  0  0
 13 14  1  0  0  0  0
 13 15  2  0  0  0  0
 13 18  1  0  0  0  0
 14 16  1  0  0  0  0
 14 32  1  0  0  0  0
 14 33  1  0  0  0  0
 15 34  1  0  0  0  0
 16 20  1  0  0  0  0
 16 35  1  0  0  0  0
 16 36  1  0  0  0  0
 19 21  2  0  0  0  0
 20 37  1  0  0  0  0
 20 38  1  0  0  0  0
 21 23  1  0  0  0  0
 22 39  1  0  0  0  0
 24 40  1  0  0  0  0
 24 41  1  0  0  0  0
 24 42  1  0  0  0  0
 25 43  1  0  0  0  0
M  END
> <PUBCHEM_COMPOUND_CID>
128232

> <PUBCHEM_CONFORMER_RMSD>
0.6

> <PUBCHEM_CONFORMER_DIVERSEORDER>
1
14
10
13
12
11
7
9
6
8
2
3
4
5

> <PUBCHEM_MMFF94_PARTIAL_CHARGES>
26
1 -0.33
11 0.3
12 0.26
13 -0.12
14 0.14
15 -0.04
17 0.69
18 0.62
19 0.11
2 -0.57
20 0.23
21 0.23
22 0.04
23 0.41
24 0.3
25 0.47
3 -0.57
34 0.15
39 0.15
4 -0.47
43 0.15
5 0.05
6 -0.42
7 -0.57
8 -0.57
9 -0.62

> <PUBCHEM_EFFECTIVE_ROTOR_COUNT>
1.4

> <PUBCHEM_PHARMACOPHORE_FEATURES>
8
1 2 acceptor
1 3 acceptor
1 9 acceptor
3 5 7 22 cation
3 8 9 25 cation
5 5 7 19 21 22 rings
6 4 6 13 15 17 18 rings
6 8 9 19 21 23 25 rings

> <PUBCHEM_HEAVY_ATOM_COUNT>
25

> <PUBCHEM_ATOM_DEF_STEREO_COUNT>
0

> <PUBCHEM_ATOM_UDEF_STEREO_COUNT>
0

> <PUBCHEM_BOND_DEF_STEREO_COUNT>
0

> <PUBCHEM_BOND_UDEF_STEREO_COUNT>
0

> <PUBCHEM_ISOTOPIC_ATOM_COUNT>
0

> <PUBCHEM_COMPONENT_COUNT>
1

> <PUBCHEM_CACTVS_TAUTO_COUNT>
1

> <PUBCHEM_CONFORMER_ID>
0001F4E800000001

> <PUBCHEM_MMFF94_ENERGY>
46.8419

> <PUBCHEM_FEATURE_SELFOVERLAP>
40.728

> <PUBCHEM_SHAPE_FINGERPRINT>
10165383 225 18130232544942083955
104564 63 15533595880060629206
10498660 4 18262504940641163255
10675989 125 16534504491302952580
10863032 1 18267027167425554198
12011746 2 18265333902761098277
12054548 360 18337389319139544686
12156800 1 16759508696153365100
12596599 1 18270110335463465028
12788726 201 16753836762616268701
128993 33 18339913827553555850
13140716 1 18265039242049854242
14386348 128 18337102350672861252
15209289 33 18336828692790161600
16945 1 18199452428470689066
17492 54 17605005877924175044
18981168 100 18128228169540920856
19930381 70 15961743161127552054
20905425 154 17899697856078423606
2334 1 18336250289385796468
23419403 2 14639149089393350748
238 59 17617059578964995805
2748010 2 18263342751332254172
2818148 4 17319326454690544342
35225 105 14547045311195324612
3797600 57 16226344676068805982
57527585 103 16883002891858962786
6287921 2 18339374078944882786

> <PUBCHEM_SHAPE_MULTIPOLES>
476.71
5.5
3.91
1.68
0.64
0.08
-0.01
0.59
1.12
0.06
-0.86
-0.5
0.16
-0.17

> <PUBCHEM_SHAPE_SELFOVERLAP>
1018.99

> <PUBCHEM_SHAPE_VOLUME>
265.6

> <PUBCHEM_COORDINATE_TYPE>
2
5
10

$$$$
