128206
  -OEChem-03292013323D

 36 37  0     1  0  0  0  0  0999 V2000
    3.9974   -0.9935    0.2203 S   0  0  0  0  0  0  0  0  0  0  0  0
    2.7273    1.0271   -1.9722 O   0  0  0  0  0  0  0  0  0  0  0  0
    5.3199   -0.3884   -0.5315 O   0  0  0  0  0  0  0  0  0  0  0  0
    3.4515   -2.0291   -0.6516 O   0  0  0  0  0  0  0  0  0  0  0  0
    4.4026   -1.3458    1.5774 O   0  0  0  0  0  0  0  0  0  0  0  0
   -1.2535    2.0714    1.4299 O   0  0  0  0  0  0  0  0  0  0  0  0
    2.9212    0.3011    0.2818 N   0  0  0  0  0  0  0  0  0  0  0  0
   -0.0969    1.4188   -0.4693 N   0  0  0  0  0  0  0  0  0  0  0  0
   -3.5296    2.3903   -0.1026 N   0  0  0  0  0  0  0  0  0  0  0  0
    1.7101    0.5060    1.1050 C   0  0  1  0  0  0  0  0  0  0  0  0
    1.2521    1.5835    0.0989 C   0  0  1  0  0  0  0  0  0  0  0  0
    2.3858    1.0155   -0.8124 C   0  0  0  0  0  0  0  0  0  0  0  0
    0.9112   -0.7843    1.1982 C   0  0  0  0  0  0  0  0  0  0  0  0
   -1.2487    1.6831    0.2628 C   0  0  0  0  0  0  0  0  0  0  0  0
   -2.5215    1.4174   -0.5336 C   0  0  1  0  0  0  0  0  0  0  0  0
   -2.9846   -0.0129   -0.3502 C   0  0  0  0  0  0  0  0  0  0  0  0
   -2.5253   -0.9869   -1.2187 C   0  0  0  0  0  0  0  0  0  0  0  0
   -3.8558   -0.3128    0.6820 C   0  0  0  0  0  0  0  0  0  0  0  0
   -2.9515   -2.3044   -1.0499 C   0  0  0  0  0  0  0  0  0  0  0  0
   -4.2819   -1.6302    0.8508 C   0  0  0  0  0  0  0  0  0  0  0  0
   -3.8297   -2.6260   -0.0152 C   0  0  0  0  0  0  0  0  0  0  0  0
    1.9543    0.9083    2.0949 H   0  0  0  0  0  0  0  0  0  0  0  0
    1.4450    2.6171    0.4081 H   0  0  0  0  0  0  0  0  0  0  0  0
    0.7059   -1.2233    0.2158 H   0  0  0  0  0  0  0  0  0  0  0  0
   -0.0488   -0.6057    1.6933 H   0  0  0  0  0  0  0  0  0  0  0  0
    1.4425   -1.5303    1.7988 H   0  0  0  0  0  0  0  0  0  0  0  0
   -0.1995    1.0971   -1.4288 H   0  0  0  0  0  0  0  0  0  0  0  0
   -2.3331    1.6056   -1.5982 H   0  0  0  0  0  0  0  0  0  0  0  0
    5.7176    0.4067   -0.1051 H   0  0  0  0  0  0  0  0  0  0  0  0
   -4.3689    2.2850   -0.6723 H   0  0  0  0  0  0  0  0  0  0  0  0
   -3.1893    3.3346   -0.2825 H   0  0  0  0  0  0  0  0  0  0  0  0
   -1.8411   -0.7473   -2.0273 H   0  0  0  0  0  0  0  0  0  0  0  0
   -4.2109    0.4356    1.3837 H   0  0  0  0  0  0  0  0  0  0  0  0
   -2.5988   -3.0798   -1.7236 H   0  0  0  0  0  0  0  0  0  0  0  0
   -4.9622   -1.8820    1.6591 H   0  0  0  0  0  0  0  0  0  0  0  0
   -4.1605   -3.6519    0.1173 H   0  0  0  0  0  0  0  0  0  0  0  0
  1  3  1  0  0  0  0
  1  4  2  0  0  0  0
  1  5  2  0  0  0  0
  1  7  1  0  0  0  0
  2 12  2  0  0  0  0
  3 29  1  0  0  0  0
  6 14  2  0  0  0  0
  7 10  1  0  0  0  0
  7 12  1  0  0  0  0
  8 11  1  0  0  0  0
  8 14  1  0  0  0  0
  8 27  1  0  0  0  0
  9 15  1  0  0  0  0
  9 30  1  0  0  0  0
  9 31  1  0  0  0  0
 10 11  1  0  0  0  0
 10 13  1  0  0  0  0
 10 22  1  0  0  0  0
 11 12  1  0  0  0  0
 11 23  1  0  0  0  0
 13 24  1  0  0  0  0
 13 25  1  0  0  0  0
 13 26  1  0  0  0  0
 14 15  1  0  0  0  0
 15 16  1  0  0  0  0
 15 28  1  0  0  0  0
 16 17  2  0  0  0  0
 16 18  1  0  0  0  0
 17 19  1  0  0  0  0
 17 32  1  0  0  0  0
 18 20  2  0  0  0  0
 18 33  1  0  0  0  0
 19 21  2  0  0  0  0
 19 34  1  0  0  0  0
 20 21  1  0  0  0  0
 20 35  1  0  0  0  0
 21 36  1  0  0  0  0
M  END
> <PUBCHEM_COMPOUND_CID>
128206

> <PUBCHEM_CONFORMER_RMSD>
0.8

> <PUBCHEM_CONFORMER_DIVERSEORDER>
8
14
68
27
45
65
69
18
51
67
29
66
63
42
40
35
31
56
61
72
48
33
50
41
4
58
74
53
11
49
34
64
46
13
36
54
43
26
10
19
55
39
28
37
5
60
30
38
47
62
1
22
71
57
59
6
32
73
23
12
16
25
2
17
15
21
52
9
7
24
70
3
44
20

> <PUBCHEM_MMFF94_PARTIAL_CHARGES>
29
1 1.62
10 0.31
11 0.28
12 0.75
14 0.57
15 0.47
16 -0.14
17 -0.15
18 -0.15
19 -0.15
2 -0.57
20 -0.15
21 -0.15
27 0.37
29 0.5
3 -0.68
30 0.36
31 0.36
32 0.15
33 0.15
34 0.15
35 0.15
36 0.15
4 -0.65
5 -0.65
6 -0.57
7 -0.68
8 -0.65
9 -0.99

> <PUBCHEM_EFFECTIVE_ROTOR_COUNT>
5.6

> <PUBCHEM_PHARMACOPHORE_FEATURES>
11
1 2 acceptor
1 3 acceptor
1 4 acceptor
1 5 acceptor
1 6 acceptor
1 8 donor
1 9 cation
1 9 donor
4 1 3 4 5 anion
4 7 10 11 12 rings
6 16 17 18 19 20 21 rings

> <PUBCHEM_HEAVY_ATOM_COUNT>
21

> <PUBCHEM_ATOM_DEF_STEREO_COUNT>
2

> <PUBCHEM_ATOM_UDEF_STEREO_COUNT>
1

> <PUBCHEM_BOND_DEF_STEREO_COUNT>
0

> <PUBCHEM_BOND_UDEF_STEREO_COUNT>
0

> <PUBCHEM_ISOTOPIC_ATOM_COUNT>
0

> <PUBCHEM_COMPONENT_COUNT>
1

> <PUBCHEM_CACTVS_TAUTO_COUNT>
2

> <PUBCHEM_CONFORMER_ID>
0001F4CE00000008

> <PUBCHEM_MMFF94_ENERGY>
39.533

> <PUBCHEM_FEATURE_SELFOVERLAP>
55.88

> <PUBCHEM_SHAPE_FINGERPRINT>
10062212 137 18260823761349669395
10498660 4 8070031073031213391
10616163 171 18411982442472667471
11552529 35 16486115378930485639
12553582 1 18267865176049092415
12596599 1 18263369100908927910
12596602 18 14333111005843466975
12633257 1 16056601010015767099
12714826 92 18342462573333486965
12892183 10 14045473288234344431
13583140 156 17631995491225290976
14251751 93 18335701602992644747
14251764 30 17823710844313428427
14576447 43 18113619010625613338
15209294 21 10952048948840400896
15375462 189 18198064887904455289
16752209 62 18340192034703856021
17349148 13 17967529099687598568
18186145 218 15719387356439455849
18915474 69 18261113023117983238
19422 9 18260270762988693973
20281475 54 18339645663102677045
20291156 8 18410008883746449171
21095088 737 10809634761198513867
21634736 98 18260548961037012036
21713013 43 17241037833942939019
221490 88 18410012182234158736
22646028 28 18334011709217697663
23402539 116 17822290125013198288
235170 7 15864342610122391951
23557571 272 18202568354171535774
23559900 14 18343007909293997624
27216 239 10519710033544097551
341906 21 9007054647814345726
5104073 3 18341608218038073328
559249 180 18189888726145588145
633830 44 16515692117184908508
7970288 3 18194401332399473959

> <PUBCHEM_SHAPE_MULTIPOLES>
391.73
9.75
2.7
1.34
4.74
0.13
0.05
5.57
-0.08
-2.1
0.06
0.49
0.07
-0.66

> <PUBCHEM_SHAPE_SELFOVERLAP>
806.306

> <PUBCHEM_SHAPE_VOLUME>
225.7

> <PUBCHEM_COORDINATE_TYPE>
2
5
10

$$$$
