128216
  -OEChem-03292013323D

 59 63  0     1  0  0  0  0  0999 V2000
    5.3009    0.9792    0.3009 O   0  0  0  0  0  0  0  0  0  0  0  0
    5.3565   -1.5286   -1.1231 O   0  0  0  0  0  0  0  0  0  0  0  0
    3.7899    2.6164   -1.0328 O   0  0  0  0  0  0  0  0  0  0  0  0
   -6.8285   -2.9717   -0.2579 O   0  0  0  0  0  0  0  0  0  0  0  0
   -8.3680   -0.7851    0.4972 O   0  0  0  0  0  0  0  0  0  0  0  0
    9.4770   -2.5628    0.9926 O   0  0  0  0  0  0  0  0  0  0  0  0
    1.8931    1.3457   -0.6004 N   0  0  0  0  0  0  0  0  0  0  0  0
   -0.9714    1.0892   -0.2705 N   0  0  0  0  0  0  0  0  0  0  0  0
   -2.9160   -0.2566   -0.2651 N   0  0  0  0  0  0  0  0  0  0  0  0
   -3.0372    2.0840    0.2951 N   0  0  0  0  0  0  0  0  0  0  0  0
   -5.0937    3.0789    0.8588 N   0  0  0  0  0  0  0  0  0  0  0  0
    1.2777    0.0862   -0.1758 C   0  0  0  0  0  0  0  0  0  0  0  0
    0.9787    2.4297   -0.9503 C   0  0  0  0  0  0  0  0  0  0  0  0
   -0.1616   -0.0651   -0.6684 C   0  0  0  0  0  0  0  0  0  0  0  0
   -0.3031    2.3851   -0.1213 C   0  0  0  0  0  0  0  0  0  0  0  0
    3.2704    1.5566   -0.6756 C   0  0  0  0  0  0  0  0  0  0  0  0
    4.1456    0.3883   -0.2929 C   0  0  1  0  0  0  0  0  0  0  0  0
   -2.3452    0.9711   -0.0746 C   0  0  0  0  0  0  0  0  0  0  0  0
    4.5335   -0.4252   -1.5126 C   0  0  0  0  0  0  0  0  0  0  0  0
    6.3232    0.0744    0.4284 C   0  0  0  0  0  0  0  0  0  0  0  0
    6.3445   -1.1455   -0.2532 C   0  0  0  0  0  0  0  0  0  0  0  0
   -4.2422   -0.3779   -0.0781 C   0  0  0  0  0  0  0  0  0  0  0  0
   -5.0322    0.7189    0.3034 C   0  0  0  0  0  0  0  0  0  0  0  0
   -4.3625    1.9274    0.4740 C   0  0  0  0  0  0  0  0  0  0  0  0
    7.3765    0.4206    1.2751 C   0  0  0  0  0  0  0  0  0  0  0  0
   -4.8768   -1.6046   -0.2586 C   0  0  0  0  0  0  0  0  0  0  0  0
    7.3978   -2.0382   -0.0547 C   0  0  0  0  0  0  0  0  0  0  0  0
   -6.4177    0.5801    0.4961 C   0  0  0  0  0  0  0  0  0  0  0  0
   -6.2543   -1.7507   -0.0688 C   0  0  0  0  0  0  0  0  0  0  0  0
   -7.0258   -0.6574    0.3088 C   0  0  0  0  0  0  0  0  0  0  0  0
    8.4360   -0.4673    1.4623 C   0  0  0  0  0  0  0  0  0  0  0  0
    8.4440   -1.6970    0.8028 C   0  0  0  0  0  0  0  0  0  0  0  0
   -7.2996   -3.2699   -1.5705 C   0  0  0  0  0  0  0  0  0  0  0  0
   -8.8094   -1.1282    1.8097 C   0  0  0  0  0  0  0  0  0  0  0  0
    1.3050    0.0754    0.9207 H   0  0  0  0  0  0  0  0  0  0  0  0
    1.8609   -0.7655   -0.5343 H   0  0  0  0  0  0  0  0  0  0  0  0
    0.7494    2.3193   -2.0173 H   0  0  0  0  0  0  0  0  0  0  0  0
    1.4755    3.3972   -0.8217 H   0  0  0  0  0  0  0  0  0  0  0  0
   -0.1814   -0.1544   -1.7613 H   0  0  0  0  0  0  0  0  0  0  0  0
   -0.5578   -0.9979   -0.2505 H   0  0  0  0  0  0  0  0  0  0  0  0
   -0.0764    2.5504    0.9388 H   0  0  0  0  0  0  0  0  0  0  0  0
   -0.9459    3.2058   -0.4610 H   0  0  0  0  0  0  0  0  0  0  0  0
    3.6823   -0.2286    0.4841 H   0  0  0  0  0  0  0  0  0  0  0  0
    3.6531   -0.8303   -2.0215 H   0  0  0  0  0  0  0  0  0  0  0  0
    5.0850    0.1767   -2.2472 H   0  0  0  0  0  0  0  0  0  0  0  0
    7.3737    1.3724    1.7992 H   0  0  0  0  0  0  0  0  0  0  0  0
   -4.2883   -2.4721   -0.5535 H   0  0  0  0  0  0  0  0  0  0  0  0
    7.4108   -2.9932   -0.5739 H   0  0  0  0  0  0  0  0  0  0  0  0
   -7.0437    1.4152    0.7984 H   0  0  0  0  0  0  0  0  0  0  0  0
    9.2485   -0.1907    2.1291 H   0  0  0  0  0  0  0  0  0  0  0  0
   -4.5465    3.9213    0.9938 H   0  0  0  0  0  0  0  0  0  0  0  0
   -6.0271    3.2039    0.4879 H   0  0  0  0  0  0  0  0  0  0  0  0
   10.1109   -2.1658    1.6145 H   0  0  0  0  0  0  0  0  0  0  0  0
   -6.4725   -3.2554   -2.2873 H   0  0  0  0  0  0  0  0  0  0  0  0
   -8.0726   -2.5567   -1.8739 H   0  0  0  0  0  0  0  0  0  0  0  0
   -7.7348   -4.2729   -1.5587 H   0  0  0  0  0  0  0  0  0  0  0  0
   -8.3996   -2.0968    2.1131 H   0  0  0  0  0  0  0  0  0  0  0  0
   -9.9005   -1.1987    1.7966 H   0  0  0  0  0  0  0  0  0  0  0  0
   -8.5168   -0.3547    2.5268 H   0  0  0  0  0  0  0  0  0  0  0  0
  1 17  1  0  0  0  0
  1 20  1  0  0  0  0
  2 19  1  0  0  0  0
  2 21  1  0  0  0  0
  3 16  2  0  0  0  0
  4 29  1  0  0  0  0
  4 33  1  0  0  0  0
  5 30  1  0  0  0  0
  5 34  1  0  0  0  0
  6 32  1  0  0  0  0
  6 53  1  0  0  0  0
  7 12  1  0  0  0  0
  7 13  1  0  0  0  0
  7 16  1  0  0  0  0
  8 14  1  0  0  0  0
  8 15  1  0  0  0  0
  8 18  1  0  0  0  0
  9 18  2  0  0  0  0
  9 22  1  0  0  0  0
 10 18  1  0  0  0  0
 10 24  2  0  0  0  0
 11 24  1  0  0  0  0
 11 51  1  0  0  0  0
 11 52  1  0  0  0  0
 12 14  1  0  0  0  0
 12 35  1  0  0  0  0
 12 36  1  0  0  0  0
 13 15  1  0  0  0  0
 13 37  1  0  0  0  0
 13 38  1  0  0  0  0
 14 39  1  0  0  0  0
 14 40  1  0  0  0  0
 15 41  1  0  0  0  0
 15 42  1  0  0  0  0
 16 17  1  0  0  0  0
 17 19  1  0  0  0  0
 17 43  1  0  0  0  0
 19 44  1  0  0  0  0
 19 45  1  0  0  0  0
 20 21  2  0  0  0  0
 20 25  1  0  0  0  0
 21 27  1  0  0  0  0
 22 23  1  0  0  0  0
 22 26  2  0  0  0  0
 23 24  1  0  0  0  0
 23 28  2  0  0  0  0
 25 31  2  0  0  0  0
 25 46  1  0  0  0  0
 26 29  1  0  0  0  0
 26 47  1  0  0  0  0
 27 32  2  0  0  0  0
 27 48  1  0  0  0  0
 28 30  1  0  0  0  0
 28 49  1  0  0  0  0
 29 30  2  0  0  0  0
 31 32  1  0  0  0  0
 31 50  1  0  0  0  0
 33 54  1  0  0  0  0
 33 55  1  0  0  0  0
 33 56  1  0  0  0  0
 34 57  1  0  0  0  0
 34 58  1  0  0  0  0
 34 59  1  0  0  0  0
M  END
> <PUBCHEM_COMPOUND_CID>
128216

> <PUBCHEM_CONFORMER_RMSD>
1

> <PUBCHEM_CONFORMER_DIVERSEORDER>
1
44
109
118
121
14
112
128
96
45
124
85
39
136
98
87
113
142
41
91
93
83
47
7
127
37
114
105
129
10
141
63
8
43
58
51
132
30
92
131
82
4
119
3
61
62
78
69
117
28
53
89
122
106
6
77
130
135
102
90
64
52
40
72
107
73
32
68
137
84
65
57
19
67
140
81
111
55
71
21
116
9
95
101
79
97
48
24
76
35
70
60
115
125
33
54
12
88
27
123
34
80
133
11
31
75
66
2
100
46
5
126
94
49
138
120
74
50
103
23
16
22
15
56
134
13
25
99
59
86
36
42
17
108
20
29
104
139
26
18
38
110

> <PUBCHEM_MMFF94_PARTIAL_CHARGES>
41
1 -0.36
10 -0.62
11 -0.9
12 0.3
13 0.3
14 0.37
15 0.37
16 0.57
17 0.34
18 0.72
19 0.28
2 -0.36
20 0.08
21 0.08
22 0.31
24 0.41
25 -0.15
26 -0.15
27 -0.15
28 -0.15
29 0.08
3 -0.57
30 0.08
31 -0.15
32 0.08
33 0.28
34 0.28
4 -0.36
46 0.15
47 0.15
48 0.15
49 0.15
5 -0.36
50 0.15
51 0.4
52 0.4
53 0.45
6 -0.53
7 -0.66
8 -0.84
9 -0.62

> <PUBCHEM_EFFECTIVE_ROTOR_COUNT>
7

> <PUBCHEM_PHARMACOPHORE_FEATURES>
13
1 1 acceptor
1 11 donor
1 2 acceptor
1 3 acceptor
1 4 acceptor
1 5 acceptor
1 6 donor
4 8 9 10 18 cation
6 1 2 17 19 20 21 rings
6 20 21 25 27 31 32 rings
6 22 23 26 28 29 30 rings
6 7 8 12 13 14 15 rings
6 9 10 18 22 23 24 rings

> <PUBCHEM_HEAVY_ATOM_COUNT>
34

> <PUBCHEM_ATOM_DEF_STEREO_COUNT>
0

> <PUBCHEM_ATOM_UDEF_STEREO_COUNT>
1

> <PUBCHEM_BOND_DEF_STEREO_COUNT>
0

> <PUBCHEM_BOND_UDEF_STEREO_COUNT>
0

> <PUBCHEM_ISOTOPIC_ATOM_COUNT>
0

> <PUBCHEM_COMPONENT_COUNT>
1

> <PUBCHEM_CACTVS_TAUTO_COUNT>
9

> <PUBCHEM_CONFORMER_ID>
0001F4D800000001

> <PUBCHEM_MMFF94_ENERGY>
140.8777

> <PUBCHEM_FEATURE_SELFOVERLAP>
66.063

> <PUBCHEM_SHAPE_FINGERPRINT>
10 15 17561361794868015604
10100884 174 18408322202829606146
10533779 47 16845018914606745430
10625338 86 15051731963161817434
11103572 95 18129384791285924407
11135926 11 18409443675326643503
11386260 185 14779556707734403894
11456790 92 18060150855689717089
11607047 74 17968387853488817924
11991303 11 14923953391596707627
12013929 27 17824539914941465095
12539765 74 8142097480558908680
13008946 119 17771918122029169729
13248334 5 18044942522324145428
13383668 362 18199738323554524624
13782708 43 18114185249944098741
13811026 1 18343299245309339300
15064981 113 14851872656612636875
15198563 99 15068611661113003214
1577012 14 18336557087237250245
16728433 281 11675140537322863239
16994733 274 11240000040327689966
1754908 1 17632574972223179914
1754911 235 8718827587182201506
1818759 1 17967818249285629010
20028762 73 18411140234120330198
20105231 36 17677060135738040747
2026 5 18041275483156081346
21102433 48 18271805779307525079
21130935 74 18271525304577425082
21267235 1 18333171665228366004
21585481 151 18342179913262404782
21792934 111 18272647948334990353
21792961 116 18259702303953059269
22002106 203 17987508390238763719
23522609 53 17972634084631081756
23559900 14 18268991072268135921
23569917 315 18041007253979974083
23576562 1 11603406294624707107
25025965 108 18129653249162033327
25242607 90 18410565194150156970
3178227 256 17132113550600776424
3383291 50 18335142011609301619
3504750 166 18410291398512005877
3711267 37 11600006582537937243
397830 11 18060134341182026480
3986486 107 11746932050321854434
406291 66 18335136513929394562
4169191 19 10015591588718929291
42767 46 18113894966406384202
44389302 135 18191859030479236554
4616759 239 17346326994879014515
504579 68 12829204464727733436
5718773 13 18408882966380214678
57303763 39 18341893027159846022
5758199 1 11743839166218386452
5937810 71 11169910550544599415
59682541 52 13479130178053962296
6201320 221 16662304258071986282
6201320 82 10230943048880775203
6691757 9 15984811658207706781
9831232 110 18268998588360353014
99344 41 18340769251847999318
9953998 17 17489590065585160595
9962374 69 18261392278377551108
9980921 7 11959730444282199731

> <PUBCHEM_SHAPE_MULTIPOLES>
639.58
31.8
3.11
1.2
14.69
0.17
-0.08
25.25
-11.38
-2.6
0.53
0.28
0.3
-2.3

> <PUBCHEM_SHAPE_SELFOVERLAP>
1402.866

> <PUBCHEM_SHAPE_VOLUME>
342.9

> <PUBCHEM_COORDINATE_TYPE>
2
5
10

$$$$
