128217
  -OEChem-03292013323D

 59 63  0     1  0  0  0  0  0999 V2000
    5.3278   -0.7861    0.2284 O   0  0  0  0  0  0  0  0  0  0  0  0
    5.2964    1.6182   -1.3635 O   0  0  0  0  0  0  0  0  0  0  0  0
    3.8244   -2.5532   -0.9620 O   0  0  0  0  0  0  0  0  0  0  0  0
   -6.8867    2.8817   -0.3865 O   0  0  0  0  0  0  0  0  0  0  0  0
   -8.3691    0.7266    0.5510 O   0  0  0  0  0  0  0  0  0  0  0  0
    9.4804    0.5739    2.0820 O   0  0  0  0  0  0  0  0  0  0  0  0
    1.9104   -1.2894   -0.5901 N   0  0  0  0  0  0  0  0  0  0  0  0
   -0.9525   -1.0626   -0.2274 N   0  0  0  0  0  0  0  0  0  0  0  0
   -2.9231    0.2443   -0.2800 N   0  0  0  0  0  0  0  0  0  0  0  0
   -2.9881   -2.0524    0.4466 N   0  0  0  0  0  0  0  0  0  0  0  0
   -5.0139   -3.0420    1.1193 N   0  0  0  0  0  0  0  0  0  0  0  0
    1.2776   -0.0140   -0.2463 C   0  0  0  0  0  0  0  0  0  0  0  0
    1.0117   -2.4117   -0.8473 C   0  0  0  0  0  0  0  0  0  0  0  0
   -0.1726    0.0748   -0.7219 C   0  0  0  0  0  0  0  0  0  0  0  0
   -0.2567   -2.3325   -0.0007 C   0  0  0  0  0  0  0  0  0  0  0  0
    3.2901   -1.4801   -0.6727 C   0  0  0  0  0  0  0  0  0  0  0  0
    4.1484   -0.2717   -0.3890 C   0  0  2  0  0  0  0  0  0  0  0  0
   -2.3247   -0.9560   -0.0137 C   0  0  0  0  0  0  0  0  0  0  0  0
    4.4996    0.4693   -1.6656 C   0  0  0  0  0  0  0  0  0  0  0  0
    6.3245    0.1535    0.2817 C   0  0  0  0  0  0  0  0  0  0  0  0
    6.3037    1.3238   -0.4818 C   0  0  0  0  0  0  0  0  0  0  0  0
   -4.2475    0.3546   -0.0756 C   0  0  0  0  0  0  0  0  0  0  0  0
   -5.0087   -0.7266    0.3981 C   0  0  0  0  0  0  0  0  0  0  0  0
   -4.3126   -1.9075    0.6402 C   0  0  0  0  0  0  0  0  0  0  0  0
    7.3961   -0.1041    1.1371 C   0  0  0  0  0  0  0  0  0  0  0  0
   -4.9092    1.5536   -0.3295 C   0  0  0  0  0  0  0  0  0  0  0  0
    7.3329    2.2573   -0.3575 C   0  0  0  0  0  0  0  0  0  0  0  0
   -6.3930   -0.5996    0.6080 C   0  0  0  0  0  0  0  0  0  0  0  0
   -6.2855    1.6878   -0.1233 C   0  0  0  0  0  0  0  0  0  0  0  0
   -7.0284    0.6102    0.3459 C   0  0  0  0  0  0  0  0  0  0  0  0
    8.4314    0.8238    1.2504 C   0  0  0  0  0  0  0  0  0  0  0  0
    8.3973    2.0051    0.5085 C   0  0  0  0  0  0  0  0  0  0  0  0
   -6.9571    3.8216    0.6839 C   0  0  0  0  0  0  0  0  0  0  0  0
   -9.2236    0.4098   -0.5466 C   0  0  0  0  0  0  0  0  0  0  0  0
    1.8376    0.8202   -0.6758 H   0  0  0  0  0  0  0  0  0  0  0  0
    1.3231    0.0766    0.8459 H   0  0  0  0  0  0  0  0  0  0  0  0
    1.5292   -3.3588   -0.6606 H   0  0  0  0  0  0  0  0  0  0  0  0
    0.7626   -2.3804   -1.9152 H   0  0  0  0  0  0  0  0  0  0  0  0
   -0.5800    1.0279   -0.3648 H   0  0  0  0  0  0  0  0  0  0  0  0
   -0.2129    0.0848   -1.8179 H   0  0  0  0  0  0  0  0  0  0  0  0
   -0.8892   -3.1864   -0.2709 H   0  0  0  0  0  0  0  0  0  0  0  0
   -0.0092   -2.4193    1.0641 H   0  0  0  0  0  0  0  0  0  0  0  0
    3.6814    0.3876    0.3504 H   0  0  0  0  0  0  0  0  0  0  0  0
    5.0586   -0.1664   -2.3652 H   0  0  0  0  0  0  0  0  0  0  0  0
    3.6024    0.8149   -2.1888 H   0  0  0  0  0  0  0  0  0  0  0  0
    7.4153   -1.0228    1.7183 H   0  0  0  0  0  0  0  0  0  0  0  0
   -4.3435    2.4080   -0.6983 H   0  0  0  0  0  0  0  0  0  0  0  0
    7.3189    3.1754   -0.9383 H   0  0  0  0  0  0  0  0  0  0  0  0
   -6.9994   -1.4269    0.9666 H   0  0  0  0  0  0  0  0  0  0  0  0
    9.2014    2.7306    0.5962 H   0  0  0  0  0  0  0  0  0  0  0  0
   -4.4576   -3.8792    1.2497 H   0  0  0  0  0  0  0  0  0  0  0  0
   -5.7717   -2.8993    1.7751 H   0  0  0  0  0  0  0  0  0  0  0  0
    9.3422   -0.2866    2.5140 H   0  0  0  0  0  0  0  0  0  0  0  0
   -5.9520    4.1015    1.0150 H   0  0  0  0  0  0  0  0  0  0  0  0
   -7.5279    3.4094    1.5220 H   0  0  0  0  0  0  0  0  0  0  0  0
   -7.4677    4.7174    0.3201 H   0  0  0  0  0  0  0  0  0  0  0  0
   -9.0210    1.0702   -1.3957 H   0  0  0  0  0  0  0  0  0  0  0  0
  -10.2592    0.5573   -0.2281 H   0  0  0  0  0  0  0  0  0  0  0  0
   -9.0940   -0.6357   -0.8438 H   0  0  0  0  0  0  0  0  0  0  0  0
  1 17  1  0  0  0  0
  1 20  1  0  0  0  0
  2 19  1  0  0  0  0
  2 21  1  0  0  0  0
  3 16  2  0  0  0  0
  4 29  1  0  0  0  0
  4 33  1  0  0  0  0
  5 30  1  0  0  0  0
  5 34  1  0  0  0  0
  6 31  1  0  0  0  0
  6 53  1  0  0  0  0
  7 12  1  0  0  0  0
  7 13  1  0  0  0  0
  7 16  1  0  0  0  0
  8 14  1  0  0  0  0
  8 15  1  0  0  0  0
  8 18  1  0  0  0  0
  9 18  2  0  0  0  0
  9 22  1  0  0  0  0
 10 18  1  0  0  0  0
 10 24  2  0  0  0  0
 11 24  1  0  0  0  0
 11 51  1  0  0  0  0
 11 52  1  0  0  0  0
 12 14  1  0  0  0  0
 12 35  1  0  0  0  0
 12 36  1  0  0  0  0
 13 15  1  0  0  0  0
 13 37  1  0  0  0  0
 13 38  1  0  0  0  0
 14 39  1  0  0  0  0
 14 40  1  0  0  0  0
 15 41  1  0  0  0  0
 15 42  1  0  0  0  0
 16 17  1  0  0  0  0
 17 19  1  0  0  0  0
 17 43  1  0  0  0  0
 19 44  1  0  0  0  0
 19 45  1  0  0  0  0
 20 21  2  0  0  0  0
 20 25  1  0  0  0  0
 21 27  1  0  0  0  0
 22 23  1  0  0  0  0
 22 26  2  0  0  0  0
 23 24  1  0  0  0  0
 23 28  2  0  0  0  0
 25 31  2  0  0  0  0
 25 46  1  0  0  0  0
 26 29  1  0  0  0  0
 26 47  1  0  0  0  0
 27 32  2  0  0  0  0
 27 48  1  0  0  0  0
 28 30  1  0  0  0  0
 28 49  1  0  0  0  0
 29 30  2  0  0  0  0
 31 32  1  0  0  0  0
 32 50  1  0  0  0  0
 33 54  1  0  0  0  0
 33 55  1  0  0  0  0
 33 56  1  0  0  0  0
 34 57  1  0  0  0  0
 34 58  1  0  0  0  0
 34 59  1  0  0  0  0
M  END
> <PUBCHEM_COMPOUND_CID>
128217

> <PUBCHEM_CONFORMER_RMSD>
1

> <PUBCHEM_CONFORMER_DIVERSEORDER>
5
28
124
81
131
11
121
126
113
92
125
106
57
24
8
135
122
37
51
87
139
78
108
1
129
72
98
127
94
29
40
132
107
82
68
63
134
38
4
76
80
90
97
83
70
74
93
17
64
45
86
88
115
65
25
18
100
66
23
59
44
112
109
99
69
12
33
39
96
73
54
56
48
137
53
16
91
60
128
7
41
14
36
118
50
120
119
103
34
46
13
138
117
10
26
110
95
133
22
19
116
61
49
67
77
114
58
42
31
89
101
55
2
79
35
27
130
75
104
9
52
62
47
85
3
43
105
136
111
20
15
6
71
123
102
21
30
84
32

> <PUBCHEM_MMFF94_PARTIAL_CHARGES>
41
1 -0.36
10 -0.62
11 -0.9
12 0.3
13 0.3
14 0.37
15 0.37
16 0.57
17 0.34
18 0.72
19 0.28
2 -0.36
20 0.08
21 0.08
22 0.31
24 0.41
25 -0.15
26 -0.15
27 -0.15
28 -0.15
29 0.08
3 -0.57
30 0.08
31 0.08
32 -0.15
33 0.28
34 0.28
4 -0.36
46 0.15
47 0.15
48 0.15
49 0.15
5 -0.36
50 0.15
51 0.4
52 0.4
53 0.45
6 -0.53
7 -0.66
8 -0.84
9 -0.62

> <PUBCHEM_EFFECTIVE_ROTOR_COUNT>
7

> <PUBCHEM_PHARMACOPHORE_FEATURES>
13
1 1 acceptor
1 11 donor
1 2 acceptor
1 3 acceptor
1 4 acceptor
1 5 acceptor
1 6 donor
4 8 9 10 18 cation
6 1 2 17 19 20 21 rings
6 20 21 25 27 31 32 rings
6 22 23 26 28 29 30 rings
6 7 8 12 13 14 15 rings
6 9 10 18 22 23 24 rings

> <PUBCHEM_HEAVY_ATOM_COUNT>
34

> <PUBCHEM_ATOM_DEF_STEREO_COUNT>
0

> <PUBCHEM_ATOM_UDEF_STEREO_COUNT>
1

> <PUBCHEM_BOND_DEF_STEREO_COUNT>
0

> <PUBCHEM_BOND_UDEF_STEREO_COUNT>
0

> <PUBCHEM_ISOTOPIC_ATOM_COUNT>
0

> <PUBCHEM_COMPONENT_COUNT>
1

> <PUBCHEM_CACTVS_TAUTO_COUNT>
9

> <PUBCHEM_CONFORMER_ID>
0001F4D900000005

> <PUBCHEM_MMFF94_ENERGY>
140.8608

> <PUBCHEM_FEATURE_SELFOVERLAP>
66.062

> <PUBCHEM_SHAPE_FINGERPRINT>
10 15 18186805785361032103
10280341 67 18336541595992041189
10533779 47 17676204629280595298
10625338 131 18410009923187337048
10835480 77 18412263904875485253
11007060 377 18262813878477365891
11409948 8 18334591149059154907
11456790 92 18186518826460600064
12124843 1 11383846991302115760
125118 31 18410014338761408836
12592606 108 8142083160899968713
12838862 33 18186793674486992783
13627175 4 12179857107772512417
13668630 136 10881398729933985006
13673619 4 12179839516240705766
14040221 310 17916572276670577535
14118638 360 16558762178536560434
14294032 229 18059289993672316806
14598715 104 18272926146245963944
15198563 99 15338857352061322448
15247644 1 14273459198045591465
15289351 153 17846218809817529434
15419008 145 17967805017140749532
15461852 350 17846495980683284183
1577012 14 17604157033699380006
16989713 51 17416117511483274455
1818759 1 11530480017306715368
18603816 31 13695879168643168873
18643901 69 10231756695768236323
19302320 297 18260553372343699492
20105231 36 11239994577862681557
2026 5 11169900693499923992
20554085 129 17917704717696294074
21130935 74 18261115136348323779
21150785 3 13758075199324344610
21362857 166 8574169293279257368
21585481 151 11530487718178224337
21647283 7 18188213220960177440
21781051 124 11097855186158946912
21792934 111 17967530151506030894
23576562 1 15410314672473882809
24771293 8 18409449197667772485
249057 25 17459198541115886767
306946 40 17203316841748230296
3663271 9 18040432222425460290
4073 2 18260838111194848523
4169191 19 18342459214563605409
4403749 210 18201718513351752927
44280117 145 17917426576125843295
445580 126 18412543219805236822
44802255 64 17275101726726656261
465052 167 11025797600795147866
4874694 18 18335417967816715387
504579 68 13542463167787292338
504843 32 17703788162816934423
5104073 3 18040720242410369987
54039377 194 10737285732054086578
5470011 282 12535341320766985600
636775 72 18412545393091032513
636775 8 11383826100264741693
6698420 124 18196668294016283633
9896288 288 12252443533071325455
99344 41 18335139795421448362
9953998 17 18040997362759311707
9995097 26 8934998188064424274

> <PUBCHEM_SHAPE_MULTIPOLES>
639.58
31.8
3.07
1.14
12.74
0.69
0.11
22.3
9.03
-3.74
0.15
2
0.03
0.99

> <PUBCHEM_SHAPE_SELFOVERLAP>
1402.799

> <PUBCHEM_SHAPE_VOLUME>
342.5

> <PUBCHEM_COORDINATE_TYPE>
2
5
10

$$$$
