128253
  -OEChem-03292013323D

 61 63  0     1  0  0  0  0  0999 V2000
    2.3950   -0.9413   -1.5515 S   0  0  0  0  0  0  0  0  0  0  0  0
   -2.4369    0.0944   -1.8448 O   0  0  0  0  0  0  0  0  0  0  0  0
   -2.9907   -2.3862    1.5577 O   0  0  0  0  0  0  0  0  0  0  0  0
   -1.1970   -3.6285    0.9666 O   0  0  0  0  0  0  0  0  0  0  0  0
    3.4904   -1.8156    1.7663 O   0  5  0  0  0  0  0  0  0  0  0  0
    4.0288   -3.4694    0.4270 O   0  0  0  0  0  0  0  0  0  0  0  0
   -2.1266   -0.1889    0.4383 N   0  0  0  0  0  0  0  0  0  0  0  0
    2.0660    1.6049   -0.7944 N   0  0  0  0  0  0  0  0  0  0  0  0
   -3.1349    2.7764   -0.8665 N   0  0  0  0  0  0  0  0  0  0  0  0
   -8.9219   -1.9428   -0.8303 N   0  0  0  0  0  0  0  0  0  0  0  0
    4.0562   -2.2566    0.7393 N   0  3  0  0  0  0  0  0  0  0  0  0
    0.1406   -0.9314    1.0500 C   0  0  0  0  0  0  0  0  0  0  0  0
   -1.1877   -1.2851    0.3663 C   0  0  1  0  0  0  0  0  0  0  0  0
    0.8033    0.2843    0.4660 C   0  0  0  0  0  0  0  0  0  0  0  0
   -3.6557    1.5279   -0.3134 C   0  0  1  0  0  0  0  0  0  0  0  0
   -5.0495    1.1857   -0.8606 C   0  0  0  0  0  0  0  0  0  0  0  0
    0.6068    1.6274    0.8930 C   0  0  0  0  0  0  0  0  0  0  0  0
   -5.6290   -0.1092   -0.2816 C   0  0  0  0  0  0  0  0  0  0  0  0
    1.7055    0.3028   -0.5725 C   0  0  0  0  0  0  0  0  0  0  0  0
    1.4103    2.4358    0.0861 C   0  0  0  0  0  0  0  0  0  0  0  0
   -2.6784    0.4155   -0.6828 C   0  0  0  0  0  0  0  0  0  0  0  0
   -7.0324   -0.3818   -0.8298 C   0  0  0  0  0  0  0  0  0  0  0  0
   -0.1802    2.2348    1.8916 C   0  0  0  0  0  0  0  0  0  0  0  0
   -1.7732   -2.5459    0.9856 C   0  0  0  0  0  0  0  0  0  0  0  0
    1.4666    3.8267    0.2284 C   0  0  0  0  0  0  0  0  0  0  0  0
   -7.5948   -1.6919   -0.2808 C   0  0  0  0  0  0  0  0  0  0  0  0
   -0.1342    3.6252    2.0453 C   0  0  0  0  0  0  0  0  0  0  0  0
    0.6773    4.4069    1.2255 C   0  0  0  0  0  0  0  0  0  0  0  0
    4.1281   -0.6915   -1.1639 C   0  0  0  0  0  0  0  0  0  0  0  0
    4.7553   -1.3462   -0.1037 C   0  0  0  0  0  0  0  0  0  0  0  0
    4.8523    0.1923   -1.9640 C   0  0  0  0  0  0  0  0  0  0  0  0
    6.1066   -1.1170    0.1560 C   0  0  0  0  0  0  0  0  0  0  0  0
    6.2035    0.4214   -1.7043 C   0  0  0  0  0  0  0  0  0  0  0  0
    6.8305   -0.2332   -0.6443 C   0  0  0  0  0  0  0  0  0  0  0  0
   -0.0275   -0.7677    2.1231 H   0  0  0  0  0  0  0  0  0  0  0  0
    0.8222   -1.7886    0.9922 H   0  0  0  0  0  0  0  0  0  0  0  0
   -1.0108   -1.5181   -0.6907 H   0  0  0  0  0  0  0  0  0  0  0  0
   -3.7221    1.6391    0.7749 H   0  0  0  0  0  0  0  0  0  0  0  0
   -5.0110    1.0997   -1.9549 H   0  0  0  0  0  0  0  0  0  0  0  0
   -5.7343    2.0139   -0.6361 H   0  0  0  0  0  0  0  0  0  0  0  0
   -4.9796   -0.9571   -0.5280 H   0  0  0  0  0  0  0  0  0  0  0  0
   -5.6680   -0.0373    0.8120 H   0  0  0  0  0  0  0  0  0  0  0  0
   -2.4237    0.1087    1.3627 H   0  0  0  0  0  0  0  0  0  0  0  0
    2.7072    1.9186   -1.5090 H   0  0  0  0  0  0  0  0  0  0  0  0
   -6.9936   -0.4268   -1.9256 H   0  0  0  0  0  0  0  0  0  0  0  0
   -7.6965    0.4503   -0.5640 H   0  0  0  0  0  0  0  0  0  0  0  0
   -0.8169    1.6425    2.5422 H   0  0  0  0  0  0  0  0  0  0  0  0
    2.0980    4.4360   -0.4095 H   0  0  0  0  0  0  0  0  0  0  0  0
   -6.9361   -2.5257   -0.5461 H   0  0  0  0  0  0  0  0  0  0  0  0
   -7.6557   -1.6494    0.8122 H   0  0  0  0  0  0  0  0  0  0  0  0
   -2.2535    3.0111   -0.4111 H   0  0  0  0  0  0  0  0  0  0  0  0
   -3.7773    3.5384   -0.6530 H   0  0  0  0  0  0  0  0  0  0  0  0
   -0.7391    4.0992    2.8137 H   0  0  0  0  0  0  0  0  0  0  0  0
    0.6976    5.4851    1.3623 H   0  0  0  0  0  0  0  0  0  0  0  0
   -9.3044   -2.7914   -0.4155 H   0  0  0  0  0  0  0  0  0  0  0  0
   -9.5518   -1.1865   -0.5657 H   0  0  0  0  0  0  0  0  0  0  0  0
   -3.3298   -3.2239    1.9391 H   0  0  0  0  0  0  0  0  0  0  0  0
    4.3876    0.7096   -2.8000 H   0  0  0  0  0  0  0  0  0  0  0  0
    6.6105   -1.6193    0.9784 H   0  0  0  0  0  0  0  0  0  0  0  0
    6.7678    1.1084   -2.3282 H   0  0  0  0  0  0  0  0  0  0  0  0
    7.8826   -0.0550   -0.4424 H   0  0  0  0  0  0  0  0  0  0  0  0
  1 19  1  0  0  0  0
  1 29  1  0  0  0  0
  2 21  2  0  0  0  0
  3 24  1  0  0  0  0
  3 57  1  0  0  0  0
  4 24  2  0  0  0  0
  5 11  1  0  0  0  0
  6 11  2  0  0  0  0
  7 13  1  0  0  0  0
  7 21  1  0  0  0  0
  7 43  1  0  0  0  0
  8 19  1  0  0  0  0
  8 20  1  0  0  0  0
  8 44  1  0  0  0  0
  9 15  1  0  0  0  0
  9 51  1  0  0  0  0
  9 52  1  0  0  0  0
 10 26  1  0  0  0  0
 10 55  1  0  0  0  0
 10 56  1  0  0  0  0
 11 30  1  0  0  0  0
 12 13  1  0  0  0  0
 12 14  1  0  0  0  0
 12 35  1  0  0  0  0
 12 36  1  0  0  0  0
 13 24  1  0  0  0  0
 13 37  1  0  0  0  0
 14 17  1  0  0  0  0
 14 19  2  0  0  0  0
 15 16  1  0  0  0  0
 15 21  1  0  0  0  0
 15 38  1  0  0  0  0
 16 18  1  0  0  0  0
 16 39  1  0  0  0  0
 16 40  1  0  0  0  0
 17 20  1  0  0  0  0
 17 23  2  0  0  0  0
 18 22  1  0  0  0  0
 18 41  1  0  0  0  0
 18 42  1  0  0  0  0
 20 25  2  0  0  0  0
 22 26  1  0  0  0  0
 22 45  1  0  0  0  0
 22 46  1  0  0  0  0
 23 27  1  0  0  0  0
 23 47  1  0  0  0  0
 25 28  1  0  0  0  0
 25 48  1  0  0  0  0
 26 49  1  0  0  0  0
 26 50  1  0  0  0  0
 27 28  2  0  0  0  0
 27 53  1  0  0  0  0
 28 54  1  0  0  0  0
 29 30  1  0  0  0  0
 29 31  2  0  0  0  0
 30 32  2  0  0  0  0
 31 33  1  0  0  0  0
 31 58  1  0  0  0  0
 32 34  1  0  0  0  0
 32 59  1  0  0  0  0
 33 34  2  0  0  0  0
 33 60  1  0  0  0  0
 34 61  1  0  0  0  0
M  CHG  2   5  -1  11   1
M  END
> <PUBCHEM_COMPOUND_CID>
128253

> <PUBCHEM_CONFORMER_RMSD>
1.2

> <PUBCHEM_CONFORMER_DIVERSEORDER>
1
18
98
118
8
94
182
79
45
145
178
110
176
115
155
37
41
125
3
160
87
104
181
54
143
148
135
106
124
170
112
63
82
132
64
61
75
168
83
62
47
107
30
144
72
96
93
180
127
68
140
97
157
123
147
12
134
86
88
139
100
14
101
172
55
92
81
122
43
120
35
33
174
36
153
56
24
71
28
89
165
85
116
60
142
136
32
23
91
7
95
67
177
40
156
161
103
126
108
113
167
171
65
48
26
173
131
151
109
49
114
166
31
53
102
150
73
137
15
90
19
80
6
44
179
111
119
38
158
11
154
52
22
50
29
17
58
141
128
51
76
66
133
59
117
163
169
10
159
70
21
164
84
57
78
46
77
149
16
39
105
13
69
74
146
25
130
4
27
138
175
34
129
42
20
121
99
2
5
162
9
152

> <PUBCHEM_MMFF94_PARTIAL_CHARGES>
45
1 -0.16
10 -0.99
11 0.91
12 0.18
13 0.36
14 -0.18
15 0.33
19 -0.1
2 -0.57
20 -0.15
21 0.57
23 -0.15
24 0.66
25 -0.15
26 0.27
27 -0.15
28 -0.15
29 0.1
3 -0.65
30 0.13
31 -0.15
32 -0.15
33 -0.15
34 -0.15
4 -0.57
43 0.37
44 0.27
47 0.15
48 0.15
5 -0.52
51 0.36
52 0.36
53 0.15
54 0.15
55 0.36
56 0.36
57 0.5
58 0.15
59 0.15
6 -0.52
60 0.15
61 0.15
7 -0.73
8 0.03
9 -0.99

> <PUBCHEM_EFFECTIVE_ROTOR_COUNT>
13

> <PUBCHEM_PHARMACOPHORE_FEATURES>
17
1 10 cation
1 10 donor
1 2 acceptor
1 3 acceptor
1 4 acceptor
1 5 acceptor
1 5 anion
1 6 acceptor
1 7 donor
1 8 cation
1 8 donor
1 9 cation
1 9 donor
3 3 4 24 anion
5 8 14 17 19 20 rings
6 17 20 23 25 27 28 rings
6 29 30 31 32 33 34 rings

> <PUBCHEM_HEAVY_ATOM_COUNT>
34

> <PUBCHEM_ATOM_DEF_STEREO_COUNT>
2

> <PUBCHEM_ATOM_UDEF_STEREO_COUNT>
0

> <PUBCHEM_BOND_DEF_STEREO_COUNT>
0

> <PUBCHEM_BOND_UDEF_STEREO_COUNT>
0

> <PUBCHEM_ISOTOPIC_ATOM_COUNT>
0

> <PUBCHEM_COMPONENT_COUNT>
1

> <PUBCHEM_CACTVS_TAUTO_COUNT>
2

> <PUBCHEM_CONFORMER_ID>
0001F4FD00000001

> <PUBCHEM_MMFF94_ENERGY>
61.0418

> <PUBCHEM_FEATURE_SELFOVERLAP>
86.507

> <PUBCHEM_SHAPE_FINGERPRINT>
10165383 225 18041002800314704213
10864689 126 18335695079929047111
10906281 52 18128275423135426468
12107698 1 18201999932904689253
12293681 4 18341341006526341589
12788726 201 18127693734387411864
13782708 43 18334012792314555167
140371 6 18270136638349899692
14840074 17 17489874830227408076
15183329 4 18260551121437535263
15351339 4 18260825951815016123
16992727 255 18262239889630585237
19319366 153 17603581889996851594
20775438 99 17765966752791053223
21049683 271 18411701018972722268
23559900 14 18189334744342454341
249057 3 17917709132922356455
3178227 256 18336560335044194841
350125 39 18187082849986896779
3633792 109 17970066635132875366
484989 97 18262805198180077555
6004065 56 18201721781705105863
6086070 43 18339929337229673131
9962374 69 17845361306511489079

> <PUBCHEM_SHAPE_MULTIPOLES>
649.3
16.73
4.42
1.72
19.77
3.32
-0.08
-12.54
8.23
-0.04
-2.64
-0.8
0.15
-0.07

> <PUBCHEM_SHAPE_SELFOVERLAP>
1360.675

> <PUBCHEM_SHAPE_VOLUME>
368.3

> <PUBCHEM_COORDINATE_TYPE>
2
5
10

$$$$
