128249
  -OEChem-03292013323D

 73 77  0     1  0  0  0  0  0999 V2000
    8.2151   -0.0253   -0.1533 O   0  0  0  0  0  0  0  0  0  0  0  0
   -2.6435    0.7186   -0.6072 O   0  0  0  0  0  0  0  0  0  0  0  0
   -4.0102   -0.7146    0.6982 O   0  0  0  0  0  0  0  0  0  0  0  0
   -5.1586    1.7481    1.8168 O   0  0  0  0  0  0  0  0  0  0  0  0
   -6.6913    2.2508   -0.4496 O   0  0  0  0  0  0  0  0  0  0  0  0
   -6.8554   -0.2376    0.8629 O   0  0  0  0  0  0  0  0  0  0  0  0
   -6.1793   -2.9258   -1.0170 O   0  0  0  0  0  0  0  0  0  0  0  0
   -5.0011   -3.1203    0.9247 O   0  0  0  0  0  0  0  0  0  0  0  0
    3.1315    0.2673   -0.7865 C   0  0  1  0  0  0  0  0  0  0  0  0
    3.3218   -0.6214    0.4726 C   0  0  1  0  0  0  0  0  0  0  0  0
    1.6236    0.6953   -1.0096 C   0  0  2  0  0  0  0  0  0  0  0  0
    4.7933   -1.0277    0.7217 C   0  0  2  0  0  0  0  0  0  0  0  0
    5.8590    0.0806    0.5645 C   0  0  2  0  0  0  0  0  0  0  0  0
    0.9918    1.2596    0.2993 C   0  0  2  0  0  0  0  0  0  0  0  0
    4.1314    1.4458   -0.7579 C   0  0  0  0  0  0  0  0  0  0  0  0
    5.5811    0.9628   -0.6688 C   0  0  0  0  0  0  0  0  0  0  0  0
    2.7043    0.0324    1.7173 C   0  0  0  0  0  0  0  0  0  0  0  0
    5.2520   -2.1378   -0.2521 C   0  0  0  0  0  0  0  0  0  0  0  0
    1.2297    0.3437    1.5133 C   0  0  0  0  0  0  0  0  0  0  0  0
    7.1447   -0.7645    0.4060 C   0  0  1  0  0  0  0  0  0  0  0  0
    0.8033   -0.5442   -1.4872 C   0  0  0  0  0  0  0  0  0  0  0  0
    6.7457   -1.9322   -0.4868 C   0  0  0  0  0  0  0  0  0  0  0  0
   -0.5169    1.5320    0.1416 C   0  0  0  0  0  0  0  0  0  0  0  0
    1.5497    1.7691   -2.1288 C   0  0  0  0  0  0  0  0  0  0  0  0
    6.0111    0.9699    1.8103 C   0  0  0  0  0  0  0  0  0  0  0  0
   -0.6991   -0.2864   -1.6163 C   0  0  0  0  0  0  0  0  0  0  0  0
   -1.3009    0.3156   -0.3500 C   0  0  2  0  0  0  0  0  0  0  0  0
   -3.4540    0.5998    0.5583 C   0  0  2  0  0  0  0  0  0  0  0  0
   -4.5541    1.6676    0.5265 C   0  0  1  0  0  0  0  0  0  0  0  0
   -5.6173    1.3212   -0.5223 C   0  0  1  0  0  0  0  0  0  0  0  0
   -4.9294   -1.0616   -0.3339 C   0  0  2  0  0  0  0  0  0  0  0  0
   -6.1268   -0.1138   -0.3595 C   0  0  1  0  0  0  0  0  0  0  0  0
   -5.3513   -2.4669   -0.0469 C   0  0  0  0  0  0  0  0  0  0  0  0
    3.4094   -0.3361   -1.6624 H   0  0  0  0  0  0  0  0  0  0  0  0
    2.7710   -1.5580    0.3145 H   0  0  0  0  0  0  0  0  0  0  0  0
    4.8701   -1.4535    1.7330 H   0  0  0  0  0  0  0  0  0  0  0  0
    1.4712    2.2220    0.5269 H   0  0  0  0  0  0  0  0  0  0  0  0
    3.9041    2.1324    0.0638 H   0  0  0  0  0  0  0  0  0  0  0  0
    4.0591    2.0308   -1.6807 H   0  0  0  0  0  0  0  0  0  0  0  0
    5.8088    0.4155   -1.5922 H   0  0  0  0  0  0  0  0  0  0  0  0
    6.2479    1.8345   -0.6687 H   0  0  0  0  0  0  0  0  0  0  0  0
    3.2158    0.9594    1.9819 H   0  0  0  0  0  0  0  0  0  0  0  0
    2.8075   -0.6387    2.5787 H   0  0  0  0  0  0  0  0  0  0  0  0
    4.7242   -2.1007   -1.2107 H   0  0  0  0  0  0  0  0  0  0  0  0
    5.0543   -3.1259    0.1785 H   0  0  0  0  0  0  0  0  0  0  0  0
    0.6839   -0.6007    1.4143 H   0  0  0  0  0  0  0  0  0  0  0  0
    0.8422    0.8285    2.4181 H   0  0  0  0  0  0  0  0  0  0  0  0
    7.4741   -1.1593    1.3760 H   0  0  0  0  0  0  0  0  0  0  0  0
    0.9353   -1.3838   -0.7966 H   0  0  0  0  0  0  0  0  0  0  0  0
    1.1849   -0.8906   -2.4563 H   0  0  0  0  0  0  0  0  0  0  0  0
    7.3197   -2.8313   -0.2376 H   0  0  0  0  0  0  0  0  0  0  0  0
    6.9471   -1.7183   -1.5430 H   0  0  0  0  0  0  0  0  0  0  0  0
   -0.9273    1.8867    1.0952 H   0  0  0  0  0  0  0  0  0  0  0  0
   -0.6754    2.3697   -0.5497 H   0  0  0  0  0  0  0  0  0  0  0  0
    2.0895    1.4371   -3.0230 H   0  0  0  0  0  0  0  0  0  0  0  0
    0.5264    1.9935   -2.4408 H   0  0  0  0  0  0  0  0  0  0  0  0
    1.9799    2.7216   -1.8013 H   0  0  0  0  0  0  0  0  0  0  0  0
    6.0937    0.3669    2.7214 H   0  0  0  0  0  0  0  0  0  0  0  0
    6.9115    1.5909    1.7459 H   0  0  0  0  0  0  0  0  0  0  0  0
    5.1736    1.6570    1.9424 H   0  0  0  0  0  0  0  0  0  0  0  0
   -0.9092    0.3614   -2.4756 H   0  0  0  0  0  0  0  0  0  0  0  0
   -1.2142   -1.2276   -1.8475 H   0  0  0  0  0  0  0  0  0  0  0  0
   -1.2937   -0.4724    0.4143 H   0  0  0  0  0  0  0  0  0  0  0  0
    8.4520    0.6784    0.4733 H   0  0  0  0  0  0  0  0  0  0  0  0
   -2.8598    0.7709    1.4644 H   0  0  0  0  0  0  0  0  0  0  0  0
   -4.1322    2.6553    0.3099 H   0  0  0  0  0  0  0  0  0  0  0  0
   -5.1749    1.4171   -1.5221 H   0  0  0  0  0  0  0  0  0  0  0  0
   -4.3960   -1.0631   -1.2926 H   0  0  0  0  0  0  0  0  0  0  0  0
   -6.8219   -0.3640   -1.1687 H   0  0  0  0  0  0  0  0  0  0  0  0
   -5.4545    0.8565    2.0673 H   0  0  0  0  0  0  0  0  0  0  0  0
   -6.3179    3.1409   -0.5666 H   0  0  0  0  0  0  0  0  0  0  0  0
   -7.5753    0.4157    0.8380 H   0  0  0  0  0  0  0  0  0  0  0  0
   -6.4673   -3.8480   -0.8471 H   0  0  0  0  0  0  0  0  0  0  0  0
  1 20  1  0  0  0  0
  1 64  1  0  0  0  0
  2 27  1  0  0  0  0
  2 28  1  0  0  0  0
  3 28  1  0  0  0  0
  3 31  1  0  0  0  0
  4 29  1  0  0  0  0
  4 70  1  0  0  0  0
  5 30  1  0  0  0  0
  5 71  1  0  0  0  0
  6 32  1  0  0  0  0
  6 72  1  0  0  0  0
  7 33  1  0  0  0  0
  7 73  1  0  0  0  0
  8 33  2  0  0  0  0
  9 10  1  0  0  0  0
  9 11  1  0  0  0  0
  9 15  1  0  0  0  0
  9 34  1  0  0  0  0
 10 12  1  0  0  0  0
 10 17  1  0  0  0  0
 10 35  1  0  0  0  0
 11 14  1  0  0  0  0
 11 21  1  0  0  0  0
 11 24  1  0  0  0  0
 12 13  1  0  0  0  0
 12 18  1  0  0  0  0
 12 36  1  0  0  0  0
 13 16  1  0  0  0  0
 13 20  1  0  0  0  0
 13 25  1  0  0  0  0
 14 19  1  0  0  0  0
 14 23  1  0  0  0  0
 14 37  1  0  0  0  0
 15 16  1  0  0  0  0
 15 38  1  0  0  0  0
 15 39  1  0  0  0  0
 16 40  1  0  0  0  0
 16 41  1  0  0  0  0
 17 19  1  0  0  0  0
 17 42  1  0  0  0  0
 17 43  1  0  0  0  0
 18 22  1  0  0  0  0
 18 44  1  0  0  0  0
 18 45  1  0  0  0  0
 19 46  1  0  0  0  0
 19 47  1  0  0  0  0
 20 22  1  0  0  0  0
 20 48  1  0  0  0  0
 21 26  1  0  0  0  0
 21 49  1  0  0  0  0
 21 50  1  0  0  0  0
 22 51  1  0  0  0  0
 22 52  1  0  0  0  0
 23 27  1  0  0  0  0
 23 53  1  0  0  0  0
 23 54  1  0  0  0  0
 24 55  1  0  0  0  0
 24 56  1  0  0  0  0
 24 57  1  0  0  0  0
 25 58  1  0  0  0  0
 25 59  1  0  0  0  0
 25 60  1  0  0  0  0
 26 27  1  0  0  0  0
 26 61  1  0  0  0  0
 26 62  1  0  0  0  0
 27 63  1  0  0  0  0
 28 29  1  0  0  0  0
 28 65  1  0  0  0  0
 29 30  1  0  0  0  0
 29 66  1  0  0  0  0
 30 32  1  0  0  0  0
 30 67  1  0  0  0  0
 31 32  1  0  0  0  0
 31 33  1  0  0  0  0
 31 68  1  0  0  0  0
 32 69  1  0  0  0  0
M  END
> <PUBCHEM_COMPOUND_CID>
128249

> <PUBCHEM_CONFORMER_RMSD>
1

> <PUBCHEM_CONFORMER_DIVERSEORDER>
2
69
139
123
106
63
91
71
109
95
116
119
83
78
7
88
64
5
53
80
23
100
125
114
129
41
45
122
103
89
124
120
25
121
94
72
97
115
17
59
3
141
18
1
131
140
70
110
107
42
135
9
98
47
65
13
40
126
8
61
111
138
117
133
134
99
113
128
22
57
86
62
101
105
21
27
14
84
36
76
137
30
26
82
96
31
28
127
75
73
37
43
85
108
60
16
49
4
11
38
79
58
19
93
32
66
52
130
112
50
92
20
39
104
12
51
81
54
136
24
102
34
10
46
56
68
15
44
90
33
74
77
48
118
29
6
132
55
67
87
35

> <PUBCHEM_MMFF94_PARTIAL_CHARGES>
21
1 -0.68
2 -0.56
20 0.28
27 0.28
28 0.56
29 0.28
3 -0.56
30 0.28
31 0.34
32 0.28
33 0.66
4 -0.68
5 -0.68
6 -0.68
64 0.4
7 -0.65
70 0.4
71 0.4
72 0.4
73 0.5
8 -0.57

> <PUBCHEM_EFFECTIVE_ROTOR_COUNT>
6.4

> <PUBCHEM_PHARMACOPHORE_FEATURES>
18
1 1 acceptor
1 1 donor
1 2 acceptor
1 3 acceptor
1 4 acceptor
1 4 donor
1 5 acceptor
1 5 donor
1 6 acceptor
1 6 donor
1 7 acceptor
1 8 acceptor
3 7 8 33 anion
5 12 13 18 20 22 rings
6 11 14 21 23 26 27 rings
6 3 28 29 30 31 32 rings
6 9 10 11 14 17 19 rings
6 9 10 12 13 15 16 rings

> <PUBCHEM_HEAVY_ATOM_COUNT>
33

> <PUBCHEM_ATOM_DEF_STEREO_COUNT>
8

> <PUBCHEM_ATOM_UDEF_STEREO_COUNT>
5

> <PUBCHEM_BOND_DEF_STEREO_COUNT>
0

> <PUBCHEM_BOND_UDEF_STEREO_COUNT>
0

> <PUBCHEM_ISOTOPIC_ATOM_COUNT>
0

> <PUBCHEM_COMPONENT_COUNT>
1

> <PUBCHEM_CACTVS_TAUTO_COUNT>
1

> <PUBCHEM_CONFORMER_ID>
0001F4F900000002

> <PUBCHEM_MMFF94_ENERGY>
110.2524

> <PUBCHEM_FEATURE_SELFOVERLAP>
91.752

> <PUBCHEM_SHAPE_FINGERPRINT>
10 15 17275102864054387408
10299344 5 18334859411345111098
11315181 36 18272652342513477273
11331351 85 18041846103652165764
11545043 162 18131067156314900555
11719270 70 18131351882228842430
11796584 16 18410294683570954867
12035758 1 16128654172021641166
12236239 1 18335139804074712684
12516196 113 18187362125555320956
12596602 18 18344144800137500368
13782708 43 18131634503866855630
13811026 1 18131351882154865695
14211702 104 18410865377276934863
14856354 85 18413111662911079789
14955137 171 18343300383776690608
15021287 119 17603311457723631581
15142383 8 18201432542018354508
15183329 4 17313096475404287234
15352257 5 18413389830294058450
1577012 14 18261399974378794580
15849732 13 18411416198474275348
20028762 73 18334012796504592738
20157964 124 11602825675518305450
21033648 29 16486967376346565233
21130935 74 18342457037020506586
21223535 225 16081356420379862589
21424621 283 10735873976456820172
21521721 280 16153718626346283748
21781051 124 17560813130334608726
23081809 10 18113625615763374548
23516275 137 18192730954776923867
23522609 53 18191617239776610828
23559900 14 14996293560102166701
23569914 152 14930073131863412987
23569943 247 17461152163131204298
23576562 1 11170496672342305331
24771293 8 17749390421149322628
249057 3 17967812731022916837
2838139 119 10663815282659844594
3004659 81 17967814942482427608
32027 91 17839754664303335919
3383291 50 18041845133506762051
3633792 109 17676755566247392839
397830 11 18058720442005378000
4015057 19 17459198541596115781
4073 2 18040441031039270618
4169191 19 14404891540420929650
4340502 62 18059853957411501710
439807 62 18263086677488795603
465052 167 17917712414013359532
5104073 3 18131074822335703763
6009941 240 18412262809479353219
6086070 43 16701717411688298367
7495541 125 18202283645016106936
9831232 110 18340212869680478062

> <PUBCHEM_SHAPE_MULTIPOLES>
632.17
21.81
2.36
1.52
3.13
1.42
0.05
6.07
2.76
3.27
-0.19
-0.54
-0.39
-0.35

> <PUBCHEM_SHAPE_SELFOVERLAP>
1345.169

> <PUBCHEM_SHAPE_VOLUME>
345.9

> <PUBCHEM_COORDINATE_TYPE>
2
5
10

$$$$
