128219
  -OEChem-03292013323D

 58 58  0     1  0  0  0  0  0999 V2000
   -0.5308    1.0614    1.2616 O   0  0  0  0  0  0  0  0  0  0  0  0
    1.4927   -0.1360   -1.4459 O   0  0  0  0  0  0  0  0  0  0  0  0
   -5.7883    0.2571    0.9199 O   0  0  0  0  0  0  0  0  0  0  0  0
    5.0613   -1.8949   -0.0492 O   0  0  0  0  0  0  0  0  0  0  0  0
    6.2846   -0.2815   -1.0460 O   0  0  0  0  0  0  0  0  0  0  0  0
   -6.2106   -2.1287   -0.2774 O   0  0  0  0  0  0  0  0  0  0  0  0
   -0.5577   -0.9264    0.0767 N   0  0  0  0  0  0  0  0  0  0  0  0
    2.9597   -0.4000    0.3421 N   0  0  0  0  0  0  0  0  0  0  0  0
   -4.9458   -1.7720    0.2091 N   0  0  0  0  0  0  0  0  0  0  0  0
    0.7740   -1.3708    0.4665 C   0  0  1  0  0  0  0  0  0  0  0  0
    0.8161   -2.8468    0.0881 C   0  0  0  0  0  0  0  0  0  0  0  0
   -1.2299   -1.9321   -0.7421 C   0  0  0  0  0  0  0  0  0  0  0  0
   -0.1441   -2.9372   -1.0954 C   0  0  0  0  0  0  0  0  0  0  0  0
   -2.5765    0.4535    0.2059 C   0  0  2  0  0  0  0  0  0  0  0  0
   -1.1304    0.2344    0.5727 C   0  0  0  0  0  0  0  0  0  0  0  0
   -2.8832    1.9581    0.1218 C   0  0  0  0  0  0  0  0  0  0  0  0
    1.7585   -0.5645   -0.3260 C   0  0  0  0  0  0  0  0  0  0  0  0
   -2.0812    2.7252   -0.9513 C   0  0  0  0  0  0  0  0  0  0  0  0
   -3.4416   -0.2381    1.2686 C   0  0  0  0  0  0  0  0  0  0  0  0
    4.0823    0.3191   -0.2153 C   0  0  1  0  0  0  0  0  0  0  0  0
    4.4220    1.5416    0.6641 C   0  0  0  0  0  0  0  0  0  0  0  0
   -2.3331    2.1908   -2.3621 C   0  0  0  0  0  0  0  0  0  0  0  0
   -2.4391    4.2134   -0.8945 C   0  0  0  0  0  0  0  0  0  0  0  0
   -4.8563   -0.5331    0.7977 C   0  0  0  0  0  0  0  0  0  0  0  0
    5.0028    1.1353    2.0212 C   0  0  0  0  0  0  0  0  0  0  0  0
    3.2373    2.4930    0.8583 C   0  0  0  0  0  0  0  0  0  0  0  0
    5.2576   -0.6208   -0.4690 C   0  0  0  0  0  0  0  0  0  0  0  0
    0.9184   -1.2100    1.5406 H   0  0  0  0  0  0  0  0  0  0  0  0
    1.8173   -3.2100   -0.1631 H   0  0  0  0  0  0  0  0  0  0  0  0
    0.4277   -3.4530    0.9155 H   0  0  0  0  0  0  0  0  0  0  0  0
   -2.0071   -2.4053   -0.1375 H   0  0  0  0  0  0  0  0  0  0  0  0
   -1.6732   -1.4894   -1.6373 H   0  0  0  0  0  0  0  0  0  0  0  0
   -0.5388   -3.9458   -1.2465 H   0  0  0  0  0  0  0  0  0  0  0  0
    0.3678   -2.6331   -2.0160 H   0  0  0  0  0  0  0  0  0  0  0  0
   -2.8072    0.0220   -0.7695 H   0  0  0  0  0  0  0  0  0  0  0  0
   -2.7028    2.4275    1.0985 H   0  0  0  0  0  0  0  0  0  0  0  0
   -3.9538    2.0914   -0.0821 H   0  0  0  0  0  0  0  0  0  0  0  0
   -1.0085    2.6406   -0.7432 H   0  0  0  0  0  0  0  0  0  0  0  0
   -2.9870   -1.1789    1.6041 H   0  0  0  0  0  0  0  0  0  0  0  0
   -3.5160    0.3827    2.1709 H   0  0  0  0  0  0  0  0  0  0  0  0
    3.0891   -0.8540    1.2417 H   0  0  0  0  0  0  0  0  0  0  0  0
    3.7862    0.6804   -1.2085 H   0  0  0  0  0  0  0  0  0  0  0  0
    5.2083    2.1054    0.1434 H   0  0  0  0  0  0  0  0  0  0  0  0
   -3.4028    2.1758   -2.5967 H   0  0  0  0  0  0  0  0  0  0  0  0
   -1.9413    1.1761   -2.4803 H   0  0  0  0  0  0  0  0  0  0  0  0
   -1.8327    2.8162   -3.1094 H   0  0  0  0  0  0  0  0  0  0  0  0
   -3.4999    4.3764   -1.1133 H   0  0  0  0  0  0  0  0  0  0  0  0
   -2.2292    4.6261    0.0979 H   0  0  0  0  0  0  0  0  0  0  0  0
   -1.8516    4.7833   -1.6223 H   0  0  0  0  0  0  0  0  0  0  0  0
    4.2773    0.5773    2.6220 H   0  0  0  0  0  0  0  0  0  0  0  0
    5.2923    2.0232    2.5943 H   0  0  0  0  0  0  0  0  0  0  0  0
    5.8987    0.5173    1.9064 H   0  0  0  0  0  0  0  0  0  0  0  0
    2.8148    2.7882   -0.1079 H   0  0  0  0  0  0  0  0  0  0  0  0
    3.5565    3.4043    1.3755 H   0  0  0  0  0  0  0  0  0  0  0  0
    2.4412    2.0347    1.4543 H   0  0  0  0  0  0  0  0  0  0  0  0
   -4.1783   -2.3923   -0.0170 H   0  0  0  0  0  0  0  0  0  0  0  0
    5.8298   -2.4700   -0.2517 H   0  0  0  0  0  0  0  0  0  0  0  0
   -6.5466   -2.6415    0.4771 H   0  0  0  0  0  0  0  0  0  0  0  0
  1 15  2  0  0  0  0
  2 17  2  0  0  0  0
  3 24  2  0  0  0  0
  4 27  1  0  0  0  0
  4 57  1  0  0  0  0
  5 27  2  0  0  0  0
  6  9  1  0  0  0  0
  6 58  1  0  0  0  0
  7 10  1  0  0  0  0
  7 12  1  0  0  0  0
  7 15  1  0  0  0  0
  8 17  1  0  0  0  0
  8 20  1  0  0  0  0
  8 41  1  0  0  0  0
  9 24  1  0  0  0  0
  9 56  1  0  0  0  0
 10 11  1  0  0  0  0
 10 17  1  0  0  0  0
 10 28  1  0  0  0  0
 11 13  1  0  0  0  0
 11 29  1  0  0  0  0
 11 30  1  0  0  0  0
 12 13  1  0  0  0  0
 12 31  1  0  0  0  0
 12 32  1  0  0  0  0
 13 33  1  0  0  0  0
 13 34  1  0  0  0  0
 14 15  1  0  0  0  0
 14 16  1  0  0  0  0
 14 19  1  0  0  0  0
 14 35  1  0  0  0  0
 16 18  1  0  0  0  0
 16 36  1  0  0  0  0
 16 37  1  0  0  0  0
 18 22  1  0  0  0  0
 18 23  1  0  0  0  0
 18 38  1  0  0  0  0
 19 24  1  0  0  0  0
 19 39  1  0  0  0  0
 19 40  1  0  0  0  0
 20 21  1  0  0  0  0
 20 27  1  0  0  0  0
 20 42  1  0  0  0  0
 21 25  1  0  0  0  0
 21 26  1  0  0  0  0
 21 43  1  0  0  0  0
 22 44  1  0  0  0  0
 22 45  1  0  0  0  0
 22 46  1  0  0  0  0
 23 47  1  0  0  0  0
 23 48  1  0  0  0  0
 23 49  1  0  0  0  0
 25 50  1  0  0  0  0
 25 51  1  0  0  0  0
 25 52  1  0  0  0  0
 26 53  1  0  0  0  0
 26 54  1  0  0  0  0
 26 55  1  0  0  0  0
M  END
> <PUBCHEM_COMPOUND_CID>
128219

> <PUBCHEM_CONFORMER_RMSD>
1.2

> <PUBCHEM_CONFORMER_DIVERSEORDER>
1
25
11
15
36
22
8
20
35
23
34
26
13
10
24
6
21
17
16
38
19
30
9
18
33
27
28
4
32
7
12
37
29
39
31
5
14
2
3

> <PUBCHEM_MMFF94_PARTIAL_CHARGES>
22
1 -0.57
10 0.36
12 0.3
14 0.06
15 0.57
17 0.57
19 0.06
2 -0.57
20 0.36
24 0.57
27 0.66
3 -0.57
4 -0.65
41 0.37
5 -0.57
56 0.37
57 0.5
58 0.4
6 -0.44
7 -0.66
8 -0.73
9 -0.39

> <PUBCHEM_EFFECTIVE_ROTOR_COUNT>
13

> <PUBCHEM_PHARMACOPHORE_FEATURES>
12
1 1 acceptor
1 2 acceptor
1 3 acceptor
1 4 acceptor
1 5 acceptor
1 8 donor
1 9 donor
3 18 22 23 hydrophobe
3 21 25 26 hydrophobe
3 4 5 27 anion
4 14 16 18 19 hydrophobe
5 7 10 11 12 13 rings

> <PUBCHEM_HEAVY_ATOM_COUNT>
27

> <PUBCHEM_ATOM_DEF_STEREO_COUNT>
3

> <PUBCHEM_ATOM_UDEF_STEREO_COUNT>
0

> <PUBCHEM_BOND_DEF_STEREO_COUNT>
0

> <PUBCHEM_BOND_UDEF_STEREO_COUNT>
0

> <PUBCHEM_ISOTOPIC_ATOM_COUNT>
0

> <PUBCHEM_COMPONENT_COUNT>
1

> <PUBCHEM_CACTVS_TAUTO_COUNT>
6

> <PUBCHEM_CONFORMER_ID>
0001F4DB00000001

> <PUBCHEM_MMFF94_ENERGY>
55.4027

> <PUBCHEM_FEATURE_SELFOVERLAP>
60.985

> <PUBCHEM_SHAPE_FINGERPRINT>
10366900 7 17894356587673484800
10670039 82 18187657886110106620
11578080 2 18048609118476008997
11595378 159 18041825290440368384
12403259 226 18410292480448060296
12403259 415 18341610391576360928
12422481 6 18335710446599501513
12516196 113 11746938715298591034
12596602 18 16153721967598692352
12616971 3 15985098600973267728
14787075 74 17917432081276598635
14790565 3 18201442536116900995
14840074 17 18335708298994229005
17349148 13 17167867465038007669
17980427 23 17386304111655375045
19319366 153 13901637294006841125
20645477 56 18271803570997034650
21033648 144 17988351659684951180
21033648 29 18340477894716056240
21315764 268 18412822499800549240
21524375 3 18410865338901550506
23557571 272 18041007189639171285
23559900 14 17834945378535914826
350125 39 18411986844993233942
59755656 215 18336551512511630783
6913067 236 18408879663982893715

> <PUBCHEM_SHAPE_MULTIPOLES>
505.49
12.72
3.73
1.47
4.25
1.83
-0.21
-1.18
2.19
-2.6
-1.32
0.06
0.71
2.02

> <PUBCHEM_SHAPE_SELFOVERLAP>
1009.289

> <PUBCHEM_SHAPE_VOLUME>
299

> <PUBCHEM_COORDINATE_TYPE>
2
5
10

$$$$
