128287
  -OEChem-03292013323D

 49 49  0     1  0  0  0  0  0999 V2000
   -0.3093   -0.3318   -1.8286 O   0  0  0  0  0  0  0  0  0  0  0  0
    0.0914   -4.0215    0.2581 O   0  0  0  0  0  0  0  0  0  0  0  0
   -0.8364    2.3635    1.0290 O   0  0  0  0  0  0  0  0  0  0  0  0
    2.2174   -4.2248   -0.4828 O   0  0  0  0  0  0  0  0  0  0  0  0
   -2.1341    1.2488   -0.5430 N   0  0  0  0  0  0  0  0  0  0  0  0
    0.0771   -1.4054    0.1940 N   0  0  0  0  0  0  0  0  0  0  0  0
   -0.8933    4.6223   -0.5404 N   0  0  0  0  0  0  0  0  0  0  0  0
   -3.1144   -1.0116   -0.3760 C   0  0  0  0  0  0  0  0  0  0  0  0
   -1.9349   -0.0878   -0.0459 C   0  0  1  0  0  0  0  0  0  0  0  0
   -4.4758   -0.5464    0.1799 C   0  0  0  0  0  0  0  0  0  0  0  0
   -0.6549   -0.6182   -0.6841 C   0  0  0  0  0  0  0  0  0  0  0  0
    1.3548   -1.9906   -0.1430 C   0  0  1  0  0  0  0  0  0  0  0  0
   -5.6199   -1.4755   -0.2280 C   0  0  0  0  0  0  0  0  0  0  0  0
   -4.4056   -0.4542    1.7067 C   0  0  0  0  0  0  0  0  0  0  0  0
    2.4496   -1.5232    0.8248 C   0  0  0  0  0  0  0  0  0  0  0  0
    2.9474   -0.1302    0.5228 C   0  0  0  0  0  0  0  0  0  0  0  0
   -1.5644    2.3759    0.0389 C   0  0  0  0  0  0  0  0  0  0  0  0
    1.2787   -3.5104   -0.1467 C   0  0  0  0  0  0  0  0  0  0  0  0
   -1.9694    3.6505   -0.6726 C   0  0  0  0  0  0  0  0  0  0  0  0
    4.0207    0.0530   -0.3491 C   0  0  0  0  0  0  0  0  0  0  0  0
    2.3338    0.9737    1.1151 C   0  0  0  0  0  0  0  0  0  0  0  0
    4.4807    1.3399   -0.6285 C   0  0  0  0  0  0  0  0  0  0  0  0
    2.7938    2.2606    0.8356 C   0  0  0  0  0  0  0  0  0  0  0  0
    3.8672    2.4436   -0.0362 C   0  0  0  0  0  0  0  0  0  0  0  0
   -2.8940   -2.0224   -0.0072 H   0  0  0  0  0  0  0  0  0  0  0  0
   -3.2014   -1.1059   -1.4673 H   0  0  0  0  0  0  0  0  0  0  0  0
   -1.7821   -0.0296    1.0374 H   0  0  0  0  0  0  0  0  0  0  0  0
   -4.7066    0.4503   -0.2157 H   0  0  0  0  0  0  0  0  0  0  0  0
    1.6069   -1.7079   -1.1727 H   0  0  0  0  0  0  0  0  0  0  0  0
   -5.6964   -1.5365   -1.3186 H   0  0  0  0  0  0  0  0  0  0  0  0
   -6.5779   -1.1088    0.1553 H   0  0  0  0  0  0  0  0  0  0  0  0
   -5.4641   -2.4887    0.1575 H   0  0  0  0  0  0  0  0  0  0  0  0
   -3.7293    0.3411    2.0336 H   0  0  0  0  0  0  0  0  0  0  0  0
   -5.3913   -0.2206    2.1244 H   0  0  0  0  0  0  0  0  0  0  0  0
   -4.0699   -1.3980    2.1498 H   0  0  0  0  0  0  0  0  0  0  0  0
   -2.6772    1.3589   -1.3946 H   0  0  0  0  0  0  0  0  0  0  0  0
   -0.3125   -1.6236    1.1066 H   0  0  0  0  0  0  0  0  0  0  0  0
    3.3100   -2.2051    0.7925 H   0  0  0  0  0  0  0  0  0  0  0  0
    2.0919   -1.5686    1.8627 H   0  0  0  0  0  0  0  0  0  0  0  0
   -2.1526    3.4571   -1.7339 H   0  0  0  0  0  0  0  0  0  0  0  0
   -2.8908    4.0282   -0.2189 H   0  0  0  0  0  0  0  0  0  0  0  0
    4.5052   -0.7989   -0.8188 H   0  0  0  0  0  0  0  0  0  0  0  0
    1.4990    0.8435    1.7983 H   0  0  0  0  0  0  0  0  0  0  0  0
    5.3158    1.4826   -1.3081 H   0  0  0  0  0  0  0  0  0  0  0  0
    2.3157    3.1200    1.2964 H   0  0  0  0  0  0  0  0  0  0  0  0
    4.2249    3.4457   -0.2541 H   0  0  0  0  0  0  0  0  0  0  0  0
    0.0898   -5.0023    0.2426 H   0  0  0  0  0  0  0  0  0  0  0  0
   -1.1629    5.4882   -1.0056 H   0  0  0  0  0  0  0  0  0  0  0  0
   -0.7650    4.8597    0.4428 H   0  0  0  0  0  0  0  0  0  0  0  0
  1 11  2  0  0  0  0
  2 18  1  0  0  0  0
  2 47  1  0  0  0  0
  3 17  2  0  0  0  0
  4 18  2  0  0  0  0
  5  9  1  0  0  0  0
  5 17  1  0  0  0  0
  5 36  1  0  0  0  0
  6 11  1  0  0  0  0
  6 12  1  0  0  0  0
  6 37  1  0  0  0  0
  7 19  1  0  0  0  0
  7 48  1  0  0  0  0
  7 49  1  0  0  0  0
  8  9  1  0  0  0  0
  8 10  1  0  0  0  0
  8 25  1  0  0  0  0
  8 26  1  0  0  0  0
  9 11  1  0  0  0  0
  9 27  1  0  0  0  0
 10 13  1  0  0  0  0
 10 14  1  0  0  0  0
 10 28  1  0  0  0  0
 12 15  1  0  0  0  0
 12 18  1  0  0  0  0
 12 29  1  0  0  0  0
 13 30  1  0  0  0  0
 13 31  1  0  0  0  0
 13 32  1  0  0  0  0
 14 33  1  0  0  0  0
 14 34  1  0  0  0  0
 14 35  1  0  0  0  0
 15 16  1  0  0  0  0
 15 38  1  0  0  0  0
 15 39  1  0  0  0  0
 16 20  2  0  0  0  0
 16 21  1  0  0  0  0
 17 19  1  0  0  0  0
 19 40  1  0  0  0  0
 19 41  1  0  0  0  0
 20 22  1  0  0  0  0
 20 42  1  0  0  0  0
 21 23  2  0  0  0  0
 21 43  1  0  0  0  0
 22 24  2  0  0  0  0
 22 44  1  0  0  0  0
 23 24  1  0  0  0  0
 23 45  1  0  0  0  0
 24 46  1  0  0  0  0
M  END
> <PUBCHEM_COMPOUND_CID>
128287

> <PUBCHEM_CONFORMER_RMSD>
1

> <PUBCHEM_CONFORMER_DIVERSEORDER>
1
41
8
30
36
19
28
34
22
23
29
21
33
13
7
16
26
43
6
44
4
18
14
25
15
12
35
37
40
42
3
24
39
17
5
10
11
27
32
38
9
31
2
20

> <PUBCHEM_MMFF94_PARTIAL_CHARGES>
30
1 -0.57
11 0.57
12 0.36
15 0.14
16 -0.14
17 0.57
18 0.66
19 0.33
2 -0.65
20 -0.15
21 -0.15
22 -0.15
23 -0.15
24 -0.15
3 -0.57
36 0.37
37 0.37
4 -0.57
42 0.15
43 0.15
44 0.15
45 0.15
46 0.15
47 0.5
48 0.36
49 0.36
5 -0.73
6 -0.73
7 -0.99
9 0.36

> <PUBCHEM_EFFECTIVE_ROTOR_COUNT>
11

> <PUBCHEM_PHARMACOPHORE_FEATURES>
11
1 1 acceptor
1 2 acceptor
1 3 acceptor
1 4 acceptor
1 5 donor
1 6 donor
1 7 cation
1 7 donor
3 10 13 14 hydrophobe
3 2 4 18 anion
6 16 20 21 22 23 24 rings

> <PUBCHEM_HEAVY_ATOM_COUNT>
24

> <PUBCHEM_ATOM_DEF_STEREO_COUNT>
2

> <PUBCHEM_ATOM_UDEF_STEREO_COUNT>
0

> <PUBCHEM_BOND_DEF_STEREO_COUNT>
0

> <PUBCHEM_BOND_UDEF_STEREO_COUNT>
0

> <PUBCHEM_ISOTOPIC_ATOM_COUNT>
0

> <PUBCHEM_COMPONENT_COUNT>
1

> <PUBCHEM_CACTVS_TAUTO_COUNT>
4

> <PUBCHEM_CONFORMER_ID>
0001F51F00000001

> <PUBCHEM_MMFF94_ENERGY>
46.2806

> <PUBCHEM_FEATURE_SELFOVERLAP>
55.882

> <PUBCHEM_SHAPE_FINGERPRINT>
10090160 65 18334570287100568871
10165383 225 18336551633234678940
10366900 7 18334586727982209507
10498660 4 18265605657910215836
1100329 8 17905326578134262181
11578080 2 17823977832016789861
13140716 1 18264477563549937458
1361 2 18194398025226105233
13911987 19 18263073478394431949
14223421 5 18337670789573413789
14787075 74 18261670493147101291
14790565 3 18267029542754121561
19591789 44 18195525015606260907
19930381 70 18410007745395532049
20600515 1 18054808426741734757
20681677 76 18194396689401748183
23558518 356 18045777884560837803
23559900 14 18122331385918798155
2637199 183 18271252711313345206
350125 39 18409729526362818682
44154327 71 18265331883820429324
469060 322 18411426115459193465
6442390 28 18267869561037141354
9709674 26 18122616155124667621

> <PUBCHEM_SHAPE_MULTIPOLES>
455.49
8.83
5.22
1.1
5.35
0.05
-0.11
0.43
-0.88
-1.28
0.8
0.3
0.16
0.39

> <PUBCHEM_SHAPE_SELFOVERLAP>
917.078

> <PUBCHEM_SHAPE_VOLUME>
265.5

> <PUBCHEM_COORDINATE_TYPE>
2
5
10

$$$$
