128236
  -OEChem-03292013323D

 56 56  0     1  0  0  0  0  0999 V2000
   -2.1336   -1.3259   -0.4344 O   0  0  0  0  0  0  0  0  0  0  0  0
   -0.8282    1.4207    1.1857 O   0  0  0  0  0  0  0  0  0  0  0  0
   -3.5453   -1.8673    1.2893 O   0  0  0  0  0  0  0  0  0  0  0  0
    1.2407   -0.0718   -1.9075 O   0  0  0  0  0  0  0  0  0  0  0  0
    3.5451   -1.3345   -0.9381 O   0  0  0  0  0  0  0  0  0  0  0  0
   -3.2203    0.3425    0.6861 N   0  0  0  0  0  0  0  0  0  0  0  0
   -0.5225    1.8767   -1.0772 N   0  0  0  0  0  0  0  0  0  0  0  0
    2.8102    0.8196   -0.4321 N   0  0  0  0  0  0  0  0  0  0  0  0
    4.4155   -0.3878    1.9306 N   0  0  0  0  0  0  0  0  0  0  0  0
   -2.7122    1.3102   -0.2757 C   0  0  1  0  0  0  0  0  0  0  0  0
   -3.5426    2.5651   -0.0314 C   0  0  0  0  0  0  0  0  0  0  0  0
   -3.9114    2.4668    1.4480 C   0  0  0  0  0  0  0  0  0  0  0  0
   -4.1010    0.9732    1.6633 C   0  0  0  0  0  0  0  0  0  0  0  0
   -1.2640    1.5287    0.0425 C   0  0  0  0  0  0  0  0  0  0  0  0
   -3.0101   -1.0238    0.5736 C   0  0  0  0  0  0  0  0  0  0  0  0
   -1.8557   -2.7174   -0.6273 C   0  0  0  0  0  0  0  0  0  0  0  0
    0.8879    2.1618   -1.0354 C   0  0  2  0  0  0  0  0  0  0  0  0
   -1.2377   -3.2725    0.6550 C   0  0  0  0  0  0  0  0  0  0  0  0
   -0.8734   -2.8334   -1.7909 C   0  0  0  0  0  0  0  0  0  0  0  0
   -3.1650   -3.4336   -0.9556 C   0  0  0  0  0  0  0  0  0  0  0  0
    1.2761    3.1581   -2.1165 C   0  0  0  0  0  0  0  0  0  0  0  0
    1.6462    0.8509   -1.2041 C   0  0  0  0  0  0  0  0  0  0  0  0
    4.8506    0.0102    0.5941 C   0  0  2  0  0  0  0  0  0  0  0  0
    3.6851   -0.2665   -0.3464 C   0  0  0  0  0  0  0  0  0  0  0  0
    6.0917   -0.7809    0.1993 C   0  0  0  0  0  0  0  0  0  0  0  0
    5.4737   -0.1690    2.9051 C   0  0  0  0  0  0  0  0  0  0  0  0
   -2.8360    0.9318   -1.2962 H   0  0  0  0  0  0  0  0  0  0  0  0
   -3.0161    3.4955   -0.2648 H   0  0  0  0  0  0  0  0  0  0  0  0
   -4.4581    2.5275   -0.6343 H   0  0  0  0  0  0  0  0  0  0  0  0
   -4.8045    3.0441    1.7029 H   0  0  0  0  0  0  0  0  0  0  0  0
   -3.0832    2.8348    2.0649 H   0  0  0  0  0  0  0  0  0  0  0  0
   -3.8451    0.6425    2.6740 H   0  0  0  0  0  0  0  0  0  0  0  0
   -5.1260    0.6591    1.4385 H   0  0  0  0  0  0  0  0  0  0  0  0
   -0.9788    1.8820   -1.9852 H   0  0  0  0  0  0  0  0  0  0  0  0
    1.1138    2.5916   -0.0522 H   0  0  0  0  0  0  0  0  0  0  0  0
   -0.4703   -2.5937    1.0454 H   0  0  0  0  0  0  0  0  0  0  0  0
   -0.7615   -4.2411    0.4610 H   0  0  0  0  0  0  0  0  0  0  0  0
   -1.9500   -3.4517    1.4642 H   0  0  0  0  0  0  0  0  0  0  0  0
   -0.6566   -3.8780   -2.0376 H   0  0  0  0  0  0  0  0  0  0  0  0
   -1.2669   -2.3378   -2.6855 H   0  0  0  0  0  0  0  0  0  0  0  0
    0.0726   -2.3398   -1.5477 H   0  0  0  0  0  0  0  0  0  0  0  0
   -3.8125   -3.6184   -0.0949 H   0  0  0  0  0  0  0  0  0  0  0  0
   -2.9626   -4.4215   -1.3865 H   0  0  0  0  0  0  0  0  0  0  0  0
   -3.7514   -2.8639   -1.6857 H   0  0  0  0  0  0  0  0  0  0  0  0
    1.0644    2.7627   -3.1166 H   0  0  0  0  0  0  0  0  0  0  0  0
    0.7195    4.0945   -2.0035 H   0  0  0  0  0  0  0  0  0  0  0  0
    2.3463    3.3863   -2.0717 H   0  0  0  0  0  0  0  0  0  0  0  0
    3.0364    1.6478    0.1129 H   0  0  0  0  0  0  0  0  0  0  0  0
    5.0869    1.0814    0.5615 H   0  0  0  0  0  0  0  0  0  0  0  0
    5.9653   -1.8566    0.3702 H   0  0  0  0  0  0  0  0  0  0  0  0
    6.2969   -0.6530   -0.8702 H   0  0  0  0  0  0  0  0  0  0  0  0
    6.9863   -0.4457    0.7342 H   0  0  0  0  0  0  0  0  0  0  0  0
    3.6045    0.1723    2.1950 H   0  0  0  0  0  0  0  0  0  0  0  0
    5.0582   -0.2949    3.9109 H   0  0  0  0  0  0  0  0  0  0  0  0
    6.2804   -0.9027    2.8159 H   0  0  0  0  0  0  0  0  0  0  0  0
    5.8859    0.8440    2.8495 H   0  0  0  0  0  0  0  0  0  0  0  0
  1 15  1  0  0  0  0
  1 16  1  0  0  0  0
  2 14  2  0  0  0  0
  3 15  2  0  0  0  0
  4 22  2  0  0  0  0
  5 24  2  0  0  0  0
  6 10  1  0  0  0  0
  6 13  1  0  0  0  0
  6 15  1  0  0  0  0
  7 14  1  0  0  0  0
  7 17  1  0  0  0  0
  7 34  1  0  0  0  0
  8 22  1  0  0  0  0
  8 24  1  0  0  0  0
  8 48  1  0  0  0  0
  9 23  1  0  0  0  0
  9 26  1  0  0  0  0
  9 53  1  0  0  0  0
 10 11  1  0  0  0  0
 10 14  1  0  0  0  0
 10 27  1  0  0  0  0
 11 12  1  0  0  0  0
 11 28  1  0  0  0  0
 11 29  1  0  0  0  0
 12 13  1  0  0  0  0
 12 30  1  0  0  0  0
 12 31  1  0  0  0  0
 13 32  1  0  0  0  0
 13 33  1  0  0  0  0
 16 18  1  0  0  0  0
 16 19  1  0  0  0  0
 16 20  1  0  0  0  0
 17 21  1  0  0  0  0
 17 22  1  0  0  0  0
 17 35  1  0  0  0  0
 18 36  1  0  0  0  0
 18 37  1  0  0  0  0
 18 38  1  0  0  0  0
 19 39  1  0  0  0  0
 19 40  1  0  0  0  0
 19 41  1  0  0  0  0
 20 42  1  0  0  0  0
 20 43  1  0  0  0  0
 20 44  1  0  0  0  0
 21 45  1  0  0  0  0
 21 46  1  0  0  0  0
 21 47  1  0  0  0  0
 23 24  1  0  0  0  0
 23 25  1  0  0  0  0
 23 49  1  0  0  0  0
 25 50  1  0  0  0  0
 25 51  1  0  0  0  0
 25 52  1  0  0  0  0
 26 54  1  0  0  0  0
 26 55  1  0  0  0  0
 26 56  1  0  0  0  0
M  END
> <PUBCHEM_COMPOUND_CID>
128236

> <PUBCHEM_CONFORMER_RMSD>
1

> <PUBCHEM_CONFORMER_DIVERSEORDER>
3
133
162
74
161
121
138
147
156
157
180
14
170
51
59
137
153
63
41
175
186
101
112
18
183
185
164
168
119
80
53
94
166
79
120
97
128
151
179
55
43
155
81
197
163
144
190
106
176
118
165
71
90
115
39
100
60
127
113
64
129
49
87
45
146
62
103
9
150
102
130
194
108
143
83
89
105
135
141
33
25
1
56
78
93
7
107
95
136
36
8
189
26
99
172
178
72
31
152
2
13
35
187
17
54
132
20
140
67
96
122
61
195
131
174
149
158
76
68
145
126
23
114
48
182
191
19
85
177
117
91
77
82
148
98
28
84
154
193
6
27
42
86
44
139
160
70
123
92
192
110
196
167
58
38
10
142
21
169
47
46
104
116
66
184
22
29
52
11
30
134
50
124
173
40
16
171
65
15
69
32
5
159
73
34
181
4
188
24
57
125
109
88
75
12
37
111

> <PUBCHEM_MMFF94_PARTIAL_CHARGES>
22
1 -0.43
10 0.36
13 0.3
14 0.57
15 0.78
16 0.28
17 0.36
2 -0.57
22 0.57
23 0.33
24 0.57
26 0.27
3 -0.57
34 0.37
4 -0.57
48 0.37
5 -0.57
53 0.36
6 -0.66
7 -0.73
8 -0.49
9 -0.9

> <PUBCHEM_EFFECTIVE_ROTOR_COUNT>
12

> <PUBCHEM_PHARMACOPHORE_FEATURES>
10
1 2 acceptor
1 3 acceptor
1 4 acceptor
1 5 acceptor
1 7 donor
1 8 donor
1 9 cation
1 9 donor
4 16 18 19 20 hydrophobe
5 6 10 11 12 13 rings

> <PUBCHEM_HEAVY_ATOM_COUNT>
26

> <PUBCHEM_ATOM_DEF_STEREO_COUNT>
3

> <PUBCHEM_ATOM_UDEF_STEREO_COUNT>
0

> <PUBCHEM_BOND_DEF_STEREO_COUNT>
0

> <PUBCHEM_BOND_UDEF_STEREO_COUNT>
0

> <PUBCHEM_ISOTOPIC_ATOM_COUNT>
0

> <PUBCHEM_COMPONENT_COUNT>
1

> <PUBCHEM_CACTVS_TAUTO_COUNT>
6

> <PUBCHEM_CONFORMER_ID>
0001F4EC00000003

> <PUBCHEM_MMFF94_ENERGY>
62.054

> <PUBCHEM_FEATURE_SELFOVERLAP>
50.75

> <PUBCHEM_SHAPE_FINGERPRINT>
11045977 3 17775001263637015720
11112241 14 17203032007094211416
11370993 144 17846776270364993638
11370993 70 18129667374358565236
11552529 35 18272925059845973918
11720765 8 16982060085418846607
12156800 1 16195310908925145839
12422481 6 18044650897995802994
12553582 1 18040155098218620796
12633257 1 18413102849580536400
12788726 201 18053686925308099215
13004483 165 17983855868112913799
13583140 156 16917061188026335670
13994607 96 12031508864332998823
14081887 123 18273208703728382714
14178342 30 18341898506203311398
15183329 4 11887682797441795960
15420108 30 18124030135989539053
15537594 2 17676774180492891120
16110190 28 18335712637080061564
16120349 306 18336539417741508906
16994733 274 15553608379915196825
19319366 153 16821663435636228127
20554085 129 18055900010361185529
20600515 1 18269570367981083668
20775438 99 8136102814009624857
21033648 29 18131350769900585560
21315759 227 17025159793775117378
23559900 14 17987810614001059540
23728640 28 18412270549263868643
3459 110 17487316378285644224
351380 3 17458352892747549648
46194498 28 12108090867863913002
602551 16 18411980256998724586
7064713 232 18342743970546917368
7097593 13 18263092156928042780
9795274 37 17395575446930285498
9862522 239 18189331278066469653
9953998 17 18411972543574993632

> <PUBCHEM_SHAPE_MULTIPOLES>
485.8
10.73
4.08
2.11
15.4
1.88
-0.61
0.85
-7.08
-5.02
1.61
1.69
-0.39
-1.77

> <PUBCHEM_SHAPE_SELFOVERLAP>
976.098

> <PUBCHEM_SHAPE_VOLUME>
286.7

> <PUBCHEM_COORDINATE_TYPE>
2
5
10

$$$$
