128252
  -OEChem-03292013323D

 33 35  0     1  0  0  0  0  0999 V2000
    2.2959    0.7697    1.1284 O   0  0  0  0  0  0  0  0  0  0  0  0
    2.1793   -1.7634   -1.4192 O   0  0  0  0  0  0  0  0  0  0  0  0
    4.3063   -1.3340    0.2168 O   0  0  0  0  0  0  0  0  0  0  0  0
    0.2006    0.0883    0.2477 N   0  0  0  0  0  0  0  0  0  0  0  0
   -0.7668   -2.1182    0.3606 N   0  0  0  0  0  0  0  0  0  0  0  0
   -3.1903   -2.1108    0.1270 N   0  0  0  0  0  0  0  0  0  0  0  0
   -4.4509   -0.1131   -0.1805 N   0  0  0  0  0  0  0  0  0  0  0  0
   -3.1515    3.3953   -0.3814 N   0  0  0  0  0  0  0  0  0  0  0  0
    1.6057   -0.2753    0.4164 C   0  0  1  0  0  0  0  0  0  0  0  0
    2.3583   -0.4649   -0.8917 C   0  0  1  0  0  0  0  0  0  0  0  0
    3.7857   -0.1906   -0.4610 C   0  0  1  0  0  0  0  0  0  0  0  0
    3.6094    0.9407    0.5471 C   0  0  1  0  0  0  0  0  0  0  0  0
    3.6754    2.3207   -0.0920 C   0  0  0  0  0  0  0  0  0  0  0  0
   -0.8590   -0.7835    0.2273 C   0  0  0  0  0  0  0  0  0  0  0  0
   -0.2668    1.3700    0.0835 C   0  0  0  0  0  0  0  0  0  0  0  0
   -2.0226   -0.0459    0.0467 C   0  0  0  0  0  0  0  0  0  0  0  0
   -1.6388    1.3166   -0.0431 C   0  0  0  0  0  0  0  0  0  0  0  0
   -3.2165   -0.7640   -0.0012 C   0  0  0  0  0  0  0  0  0  0  0  0
   -1.9836   -2.6963    0.2974 C   0  0  0  0  0  0  0  0  0  0  0  0
   -2.4698    2.4585   -0.2290 C   0  0  0  0  0  0  0  0  0  0  0  0
    1.6307   -1.1742    1.0445 H   0  0  0  0  0  0  0  0  0  0  0  0
    2.0400    0.2659   -1.6441 H   0  0  0  0  0  0  0  0  0  0  0  0
    4.4549    0.0384   -1.2953 H   0  0  0  0  0  0  0  0  0  0  0  0
    4.3390    0.8807    1.3620 H   0  0  0  0  0  0  0  0  0  0  0  0
    3.4865    3.0949    0.6594 H   0  0  0  0  0  0  0  0  0  0  0  0
    4.6572    2.5009   -0.5399 H   0  0  0  0  0  0  0  0  0  0  0  0
    2.9095    2.4441   -0.8647 H   0  0  0  0  0  0  0  0  0  0  0  0
    0.4105    2.2139    0.0638 H   0  0  0  0  0  0  0  0  0  0  0  0
    2.5120   -2.4020   -0.7657 H   0  0  0  0  0  0  0  0  0  0  0  0
    5.2031   -1.1090    0.5182 H   0  0  0  0  0  0  0  0  0  0  0  0
   -1.9969   -3.7763    0.3967 H   0  0  0  0  0  0  0  0  0  0  0  0
   -4.5081    0.8897   -0.2800 H   0  0  0  0  0  0  0  0  0  0  0  0
   -5.2941   -0.6707   -0.2098 H   0  0  0  0  0  0  0  0  0  0  0  0
  1  9  1  0  0  0  0
  1 12  1  0  0  0  0
  2 10  1  0  0  0  0
  2 29  1  0  0  0  0
  3 11  1  0  0  0  0
  3 30  1  0  0  0  0
  4  9  1  0  0  0  0
  4 14  1  0  0  0  0
  4 15  1  0  0  0  0
  5 14  2  0  0  0  0
  5 19  1  0  0  0  0
  6 18  1  0  0  0  0
  6 19  2  0  0  0  0
  7 18  1  0  0  0  0
  7 32  1  0  0  0  0
  7 33  1  0  0  0  0
  8 20  3  0  0  0  0
  9 10  1  0  0  0  0
  9 21  1  0  0  0  0
 10 11  1  0  0  0  0
 10 22  1  0  0  0  0
 11 12  1  0  0  0  0
 11 23  1  0  0  0  0
 12 13  1  0  0  0  0
 12 24  1  0  0  0  0
 13 25  1  0  0  0  0
 13 26  1  0  0  0  0
 13 27  1  0  0  0  0
 14 16  1  0  0  0  0
 15 17  2  0  0  0  0
 15 28  1  0  0  0  0
 16 17  1  0  0  0  0
 16 18  2  0  0  0  0
 17 20  1  0  0  0  0
 19 31  1  0  0  0  0
M  END
> <PUBCHEM_COMPOUND_CID>
128252

> <PUBCHEM_CONFORMER_RMSD>
0.6

> <PUBCHEM_CONFORMER_DIVERSEORDER>
3
2
4
11
5
8
9
6
10
1
7

> <PUBCHEM_MMFF94_PARTIAL_CHARGES>
24
1 -0.56
10 0.28
11 0.28
12 0.28
14 0.11
15 -0.3
17 0.02
18 0.41
19 0.47
2 -0.68
20 0.54
28 0.15
29 0.4
3 -0.68
30 0.4
31 0.15
32 0.4
33 0.4
4 0.05
5 -0.57
6 -0.62
7 -0.9
8 -0.56
9 0.54

> <PUBCHEM_EFFECTIVE_ROTOR_COUNT>
2

> <PUBCHEM_PHARMACOPHORE_FEATURES>
13
1 1 acceptor
1 2 acceptor
1 2 donor
1 3 acceptor
1 3 donor
1 7 cation
1 7 donor
1 8 acceptor
3 4 5 14 cation
3 5 6 19 cation
5 1 9 10 11 12 rings
5 4 14 15 16 17 rings
6 5 6 14 16 18 19 rings

> <PUBCHEM_HEAVY_ATOM_COUNT>
20

> <PUBCHEM_ATOM_DEF_STEREO_COUNT>
4

> <PUBCHEM_ATOM_UDEF_STEREO_COUNT>
0

> <PUBCHEM_BOND_DEF_STEREO_COUNT>
0

> <PUBCHEM_BOND_UDEF_STEREO_COUNT>
0

> <PUBCHEM_ISOTOPIC_ATOM_COUNT>
0

> <PUBCHEM_COMPONENT_COUNT>
1

> <PUBCHEM_CACTVS_TAUTO_COUNT>
4

> <PUBCHEM_CONFORMER_ID>
0001F4FC00000003

> <PUBCHEM_MMFF94_ENERGY>
43.8671

> <PUBCHEM_FEATURE_SELFOVERLAP>
66.261

> <PUBCHEM_SHAPE_FINGERPRINT>
10498660 4 18335699498221072077
10608611 8 18413387640045080976
10616163 171 18340208617192855622
11132069 177 18341047535621265595
12173636 292 18336542729430286661
12236239 1 17312820481158949210
12403260 363 18338223899804336606
12500047 106 18337390414145371196
12730499 353 17759809144162974021
13140716 1 18191593158347519505
14289901 80 18334295413725702800
14790565 3 18410581648228572097
15196674 1 18339080505119496619
15219456 202 18273216438832555418
15375358 24 18341612676061060431
15375462 6 18267305516114375284
16752209 62 18335972091564136843
16945 1 18408041823211343611
17134986 127 17975691693265092637
18186145 218 18128543664996053752
19049666 15 18272092634674645802
19141452 34 18058735835601293775
200 152 17132114649622085807
20510252 161 18413670201743612801
20645477 56 18337678503387827621
20645477 70 17131838629680823780
21501502 16 18413113870371347352
21524375 3 17826236190050473345
2334 1 18265612083429048083
23402539 116 18337943584247347446
23557571 272 18263084486205609380
23558518 356 18260834812342973216
23559900 14 18411980282652392842
2748010 2 18266182729884748965
350125 39 18191868925070165323
4214541 1 18410011009882114640
474 4 16951696989791680484
5104073 3 18339644546031431386
559249 180 18118679925220473242
58051976 378 18339357573728644100
633830 44 17912073959320237205
69090 78 18272649060615182999
7097593 13 17897985981320674618
7364860 26 17401488646608275609
81228 2 18334304192496404969
8809292 202 18411140259594585306
9709674 26 18343025462782891502

> <PUBCHEM_SHAPE_MULTIPOLES>
369.08
7.73
3.04
0.82
2.95
1.17
-0.08
0.69
-0.3
-2.36
-0.23
0.49
-0.12
0.76

> <PUBCHEM_SHAPE_SELFOVERLAP>
806.327

> <PUBCHEM_SHAPE_VOLUME>
197.3

> <PUBCHEM_COORDINATE_TYPE>
2
5
10

$$$$
