128237
  -OEChem-03292013323D

 60 64  0     1  0  0  0  0  0999 V2000
    4.3985    0.8681   -0.0096 O   0  0  0  0  0  0  0  0  0  0  0  0
    7.1247    1.0135   -0.9357 O   0  0  0  0  0  0  0  0  0  0  0  0
   -3.0248   -1.7828    1.7227 O   0  0  0  0  0  0  0  0  0  0  0  0
    2.5547   -3.7979   -0.4061 O   0  0  0  0  0  0  0  0  0  0  0  0
    3.0642   -1.5232   -0.1035 N   0  0  0  0  0  0  0  0  0  0  0  0
    4.8539    4.1485    1.4547 N   0  0  0  0  0  0  0  0  0  0  0  0
    3.3046    3.5050   -0.0663 N   0  0  0  0  0  0  0  0  0  0  0  0
    3.8401    5.0132    1.3083 N   0  0  0  0  0  0  0  0  0  0  0  0
    2.8988    4.6727    0.4169 N   0  0  0  0  0  0  0  0  0  0  0  0
   -6.1608   -0.2180    0.3538 C   0  0  0  0  0  0  0  0  0  0  0  0
    5.2699    1.9686    0.3095 C   0  0  1  0  0  0  0  0  0  0  0  0
   -5.2704   -1.2035    1.1077 C   0  0  0  0  0  0  0  0  0  0  0  0
   -7.6311   -0.6370    0.4186 C   0  0  0  0  0  0  0  0  0  0  0  0
    6.2793    2.1626   -0.8221 C   0  0  0  0  0  0  0  0  0  0  0  0
    5.0826   -0.2208   -0.4818 C   0  0  0  0  0  0  0  0  0  0  0  0
    6.4066   -0.1528   -0.9199 C   0  0  0  0  0  0  0  0  0  0  0  0
   -3.8009   -0.8182    1.0135 C   0  0  0  0  0  0  0  0  0  0  0  0
    4.3951   -1.4341   -0.5209 C   0  0  0  0  0  0  0  0  0  0  0  0
   -8.5232    0.3482   -0.2925 C   0  0  0  0  0  0  0  0  0  0  0  0
    4.4743    3.2198    0.5733 C   0  0  0  0  0  0  0  0  0  0  0  0
    7.0582   -1.3066   -1.3564 C   0  0  0  0  0  0  0  0  0  0  0  0
    5.0430   -2.5847   -0.9703 C   0  0  0  0  0  0  0  0  0  0  0  0
    6.3743   -2.5222   -1.3825 C   0  0  0  0  0  0  0  0  0  0  0  0
   -9.0684    1.4257    0.4058 C   0  0  0  0  0  0  0  0  0  0  0  0
   -8.8039    0.1823   -1.6486 C   0  0  0  0  0  0  0  0  0  0  0  0
   -1.7525   -1.9950    1.2882 C   0  0  0  0  0  0  0  0  0  0  0  0
    0.8567   -2.4282    0.4014 C   0  0  0  0  0  0  0  0  0  0  0  0
    2.2473   -2.6592   -0.0704 C   0  0  0  0  0  0  0  0  0  0  0  0
   -1.1603   -3.2476    1.4491 C   0  0  0  0  0  0  0  0  0  0  0  0
   -1.0402   -0.9589    0.6839 C   0  0  0  0  0  0  0  0  0  0  0  0
    0.1443   -3.4641    1.0056 C   0  0  0  0  0  0  0  0  0  0  0  0
    0.2644   -1.1756    0.2407 C   0  0  0  0  0  0  0  0  0  0  0  0
   -9.8943    2.3372   -0.2521 C   0  0  0  0  0  0  0  0  0  0  0  0
   -9.6297    1.0938   -2.3066 C   0  0  0  0  0  0  0  0  0  0  0  0
  -10.1749    2.1712   -1.6083 C   0  0  0  0  0  0  0  0  0  0  0  0
   -5.8394   -0.1567   -0.6937 H   0  0  0  0  0  0  0  0  0  0  0  0
   -6.0378    0.7856    0.7808 H   0  0  0  0  0  0  0  0  0  0  0  0
    5.7974    1.6977    1.2358 H   0  0  0  0  0  0  0  0  0  0  0  0
   -5.5671   -1.2540    2.1628 H   0  0  0  0  0  0  0  0  0  0  0  0
   -5.4048   -2.2170    0.7092 H   0  0  0  0  0  0  0  0  0  0  0  0
   -7.7598   -1.6334   -0.0233 H   0  0  0  0  0  0  0  0  0  0  0  0
   -7.9517   -0.7299    1.4642 H   0  0  0  0  0  0  0  0  0  0  0  0
    5.7834    2.3305   -1.7874 H   0  0  0  0  0  0  0  0  0  0  0  0
    6.9253    3.0257   -0.6266 H   0  0  0  0  0  0  0  0  0  0  0  0
   -3.6405    0.1690    1.4619 H   0  0  0  0  0  0  0  0  0  0  0  0
   -3.5286   -0.7860   -0.0496 H   0  0  0  0  0  0  0  0  0  0  0  0
    8.0924   -1.2651   -1.6872 H   0  0  0  0  0  0  0  0  0  0  0  0
    4.5912   -3.5639   -1.0299 H   0  0  0  0  0  0  0  0  0  0  0  0
    2.6874   -0.6464    0.2458 H   0  0  0  0  0  0  0  0  0  0  0  0
    6.8791   -3.4196   -1.7290 H   0  0  0  0  0  0  0  0  0  0  0  0
   -8.8556    1.5665    1.4622 H   0  0  0  0  0  0  0  0  0  0  0  0
   -8.3837   -0.6521   -2.2039 H   0  0  0  0  0  0  0  0  0  0  0  0
   -1.7099   -4.0577    1.9205 H   0  0  0  0  0  0  0  0  0  0  0  0
   -1.4567    0.0360    0.5580 H   0  0  0  0  0  0  0  0  0  0  0  0
    0.5897   -4.4457    1.1451 H   0  0  0  0  0  0  0  0  0  0  0  0
    0.7693   -0.3495   -0.2509 H   0  0  0  0  0  0  0  0  0  0  0  0
  -10.3183    3.1764    0.2914 H   0  0  0  0  0  0  0  0  0  0  0  0
   -9.8479    0.9650   -3.3627 H   0  0  0  0  0  0  0  0  0  0  0  0
  -10.8177    2.8810   -2.1205 H   0  0  0  0  0  0  0  0  0  0  0  0
    3.7886    5.8753    1.8403 H   0  0  0  0  0  0  0  0  0  0  0  0
  1 11  1  0  0  0  0
  1 15  1  0  0  0  0
  2 14  1  0  0  0  0
  2 16  1  0  0  0  0
  3 17  1  0  0  0  0
  3 26  1  0  0  0  0
  4 28  2  0  0  0  0
  5 18  1  0  0  0  0
  5 28  1  0  0  0  0
  5 49  1  0  0  0  0
  6  8  1  0  0  0  0
  6 20  2  0  0  0  0
  7  9  2  0  0  0  0
  7 20  1  0  0  0  0
  8  9  1  0  0  0  0
  8 60  1  0  0  0  0
 10 12  1  0  0  0  0
 10 13  1  0  0  0  0
 10 36  1  0  0  0  0
 10 37  1  0  0  0  0
 11 14  1  0  0  0  0
 11 20  1  0  0  0  0
 11 38  1  0  0  0  0
 12 17  1  0  0  0  0
 12 39  1  0  0  0  0
 12 40  1  0  0  0  0
 13 19  1  0  0  0  0
 13 41  1  0  0  0  0
 13 42  1  0  0  0  0
 14 43  1  0  0  0  0
 14 44  1  0  0  0  0
 15 16  1  0  0  0  0
 15 18  2  0  0  0  0
 16 21  2  0  0  0  0
 17 45  1  0  0  0  0
 17 46  1  0  0  0  0
 18 22  1  0  0  0  0
 19 24  2  0  0  0  0
 19 25  1  0  0  0  0
 21 23  1  0  0  0  0
 21 47  1  0  0  0  0
 22 23  2  0  0  0  0
 22 48  1  0  0  0  0
 23 50  1  0  0  0  0
 24 33  1  0  0  0  0
 24 51  1  0  0  0  0
 25 34  2  0  0  0  0
 25 52  1  0  0  0  0
 26 29  2  0  0  0  0
 26 30  1  0  0  0  0
 27 28  1  0  0  0  0
 27 31  2  0  0  0  0
 27 32  1  0  0  0  0
 29 31  1  0  0  0  0
 29 53  1  0  0  0  0
 30 32  2  0  0  0  0
 30 54  1  0  0  0  0
 31 55  1  0  0  0  0
 32 56  1  0  0  0  0
 33 35  2  0  0  0  0
 33 57  1  0  0  0  0
 34 35  1  0  0  0  0
 34 58  1  0  0  0  0
 35 59  1  0  0  0  0
M  END
> <PUBCHEM_COMPOUND_CID>
128237

> <PUBCHEM_CONFORMER_RMSD>
1

> <PUBCHEM_CONFORMER_DIVERSEORDER>
1
242
141
44
97
199
87
128
282
84
222
167
75
202
176
35
49
90
125
206
66
6
226
73
263
26
124
274
212
101
231
190
27
56
123
219
115
28
52
94
269
112
85
278
118
218
139
193
194
244
276
155
133
130
106
23
82
240
17
151
246
192
241
171
157
45
65
31
238
259
104
255
100
30
117
268
142
10
289
186
116
179
232
261
207
122
224
127
183
290
214
164
198
147
79
243
81
92
129
187
245
279
48
220
135
211
200
266
181
145
54
283
258
209
120
154
150
197
228
76
121
247
252
251
70
165
33
22
2
177
148
248
189
143
138
201
215
57
34
169
203
175
105
108
288
29
69
68
223
284
267
265
51
126
71
113
233
227
184
95
37
24
119
281
86
180
253
149
16
270
234
229
96
132
191
217
256
262
195
287
88
271
47
18
80
140
46
60
156
272
173
213
210
221
178
83
89
166
64
72
286
162
239
249
93
196
114
264
53
153
208
32
146
205
235
136
14
3
40
61
39
236
260
103
137
78
134
163
254
182
110
59
67
58
159
168
15
4
172
9
237
5
158
36
250
25
111
13
62
257
12
98
19
204
21
43
275
38
160
144
225
277
109
11
77
74
50
161
99
42
230
41
170
20
55
285
152
185
63
216
174
107
102
188
91
131
280
273
8
7

> <PUBCHEM_MMFF94_PARTIAL_CHARGES>
47
1 -0.36
11 0.46
13 0.14
14 0.28
15 0.08
16 0.08
17 0.28
18 0.12
19 -0.14
2 -0.36
20 0.34
21 -0.15
22 -0.15
23 -0.15
24 -0.15
25 -0.15
26 0.08
27 0.09
28 0.54
29 -0.15
3 -0.36
30 -0.15
31 -0.15
32 -0.15
33 -0.15
34 -0.15
35 -0.15
4 -0.57
47 0.15
48 0.15
49 0.37
5 -0.55
50 0.15
51 0.15
52 0.15
53 0.15
54 0.15
55 0.15
56 0.15
57 0.15
58 0.15
59 0.15
6 -0.71
60 0.27
7 -0.23
8 0.57
9 -0.42

> <PUBCHEM_EFFECTIVE_ROTOR_COUNT>
10.8

> <PUBCHEM_PHARMACOPHORE_FEATURES>
11
1 1 acceptor
1 2 acceptor
1 3 acceptor
1 4 acceptor
1 5 donor
3 6 7 20 cation
5 6 7 8 9 20 rings
6 1 2 11 14 15 16 rings
6 15 16 18 21 22 23 rings
6 19 24 25 33 34 35 rings
6 26 27 29 30 31 32 rings

> <PUBCHEM_HEAVY_ATOM_COUNT>
35

> <PUBCHEM_ATOM_DEF_STEREO_COUNT>
0

> <PUBCHEM_ATOM_UDEF_STEREO_COUNT>
1

> <PUBCHEM_BOND_DEF_STEREO_COUNT>
0

> <PUBCHEM_BOND_UDEF_STEREO_COUNT>
0

> <PUBCHEM_ISOTOPIC_ATOM_COUNT>
0

> <PUBCHEM_COMPONENT_COUNT>
1

> <PUBCHEM_CACTVS_TAUTO_COUNT>
4

> <PUBCHEM_CONFORMER_ID>
0001F4ED00000001

> <PUBCHEM_MMFF94_ENERGY>
102.7097

> <PUBCHEM_FEATURE_SELFOVERLAP>
55.865

> <PUBCHEM_SHAPE_FINGERPRINT>
10816530 90 18409160009288267051
11146346 40 18131623492293753009
11297010 23 18343306937781286198
11386260 185 18201447978014466708
11408170 108 10015575118273846321
11409948 41 17487908804716962462
11478447 147 18342453773093424549
11621639 179 18335991960484041476
12539747 72 17676489501629574627
12888983 3 18262238932400744369
12925494 130 18266748072240651146
13008946 282 18115857525694477211
13944108 23 18263935487744190772
14556957 393 17131569275165172073
14747282 540 18262523723320185172
150020 25 18335424556644369343
15320295 198 18335712675143819296
15530121 191 18333731313365215541
1754911 235 18412263900997451095
18335252 114 18341336630387339542
2026 5 11887958731556864453
20609170 84 16515951606624978485
23569917 315 9005965041685011900
3918712 181 18260264144886968753
44575985 391 18198621228183809864
4625314 4 18412266138565090423
4760202 170 18413105043759834309
5047190 47 18413106182364752073
57634706 306 18409163350889569011
57676310 151 18199754635281678425
58902169 19 17846781810414188494
5937810 71 18263647257094938621
6289498 60 15936412200805253959

> <PUBCHEM_SHAPE_MULTIPOLES>
671.9
33.56
5.7
1.57
89.98
5.73
0.32
23.01
18.28
-10.61
-2.28
1.65
0.05
5.61

> <PUBCHEM_SHAPE_SELFOVERLAP>
1462.496

> <PUBCHEM_SHAPE_VOLUME>
362.5

> <PUBCHEM_COORDINATE_TYPE>
2
5
10

$$$$
