128375
  -OEChem-03292013323D

 53 55  0     1  0  0  0  0  0999 V2000
   -1.0841    1.3633   -2.0482 O   0  0  0  0  0  0  0  0  0  0  0  0
    3.4406   -2.8243   -0.5166 O   0  0  0  0  0  0  0  0  0  0  0  0
   -0.6230   -0.2326   -3.6606 O   0  0  0  0  0  0  0  0  0  0  0  0
    3.5484   -1.3501    1.2651 O   0  0  0  0  0  0  0  0  0  0  0  0
    0.8926    4.0765    2.8331 O   0  5  0  0  0  0  0  0  0  0  0  0
   -0.2792    2.2253    2.9717 O   0  0  0  0  0  0  0  0  0  0  0  0
   -0.7604   -2.3096    0.2989 N   0  0  0  0  0  0  0  0  0  0  0  0
   -3.4586   -1.1757    0.1538 N   0  0  0  0  0  0  0  0  0  0  0  0
    0.5808    2.9399    2.4022 N   0  3  0  0  0  0  0  0  0  0  0  0
   -4.5943   -1.3976    2.0361 N   0  0  0  0  0  0  0  0  0  0  0  0
    1.1710   -0.6461   -0.9408 C   0  0  2  0  0  0  0  0  0  0  0  0
   -0.3035   -0.6792   -1.3550 C   0  0  0  0  0  0  0  0  0  0  0  0
    1.5231   -1.7220    0.0915 C   0  0  0  0  0  0  0  0  0  0  0  0
   -1.1935   -1.4721   -0.7164 C   0  0  0  0  0  0  0  0  0  0  0  0
    1.5236    0.7121   -0.4061 C   0  0  0  0  0  0  0  0  0  0  0  0
    0.5630   -2.4749    0.6749 C   0  0  0  0  0  0  0  0  0  0  0  0
   -2.6677   -1.5406   -1.0110 C   0  0  0  0  0  0  0  0  0  0  0  0
   -0.6818    0.1539   -2.5080 C   0  0  0  0  0  0  0  0  0  0  0  0
    0.8913    1.1866    0.7369 C   0  0  0  0  0  0  0  0  0  0  0  0
    0.7964   -3.5200    1.7322 C   0  0  0  0  0  0  0  0  0  0  0  0
    2.4800    1.4801   -1.0595 C   0  0  0  0  0  0  0  0  0  0  0  0
    2.9542   -1.9238    0.3713 C   0  0  0  0  0  0  0  0  0  0  0  0
    1.2203    2.4477    1.2339 C   0  0  0  0  0  0  0  0  0  0  0  0
    2.8089    2.7412   -0.5625 C   0  0  0  0  0  0  0  0  0  0  0  0
    2.1790    3.2250    0.5842 C   0  0  0  0  0  0  0  0  0  0  0  0
   -3.8769    0.0778    0.4722 C   0  0  0  0  0  0  0  0  0  0  0  0
   -3.9067   -2.0308    1.1118 C   0  0  0  0  0  0  0  0  0  0  0  0
   -1.4880    2.2930   -3.0588 C   0  0  0  0  0  0  0  0  0  0  0  0
   -4.5800   -0.0827    1.6430 C   0  0  0  0  0  0  0  0  0  0  0  0
    4.8317   -3.1288   -0.3716 C   0  0  0  0  0  0  0  0  0  0  0  0
   -1.9072    3.5887   -2.3976 C   0  0  0  0  0  0  0  0  0  0  0  0
    1.7588   -0.8652   -1.8441 H   0  0  0  0  0  0  0  0  0  0  0  0
   -1.4392   -2.9235    0.7322 H   0  0  0  0  0  0  0  0  0  0  0  0
   -2.9760   -0.8787   -1.8271 H   0  0  0  0  0  0  0  0  0  0  0  0
   -2.9533   -2.5594   -1.3001 H   0  0  0  0  0  0  0  0  0  0  0  0
    0.1452    0.5735    1.2354 H   0  0  0  0  0  0  0  0  0  0  0  0
    1.8478   -3.6092    2.0194 H   0  0  0  0  0  0  0  0  0  0  0  0
    0.2289   -3.2752    2.6365 H   0  0  0  0  0  0  0  0  0  0  0  0
    0.4671   -4.5009    1.3730 H   0  0  0  0  0  0  0  0  0  0  0  0
    2.9786    1.1159   -1.9534 H   0  0  0  0  0  0  0  0  0  0  0  0
    3.5555    3.3462   -1.0688 H   0  0  0  0  0  0  0  0  0  0  0  0
    2.4607    4.2118    0.9425 H   0  0  0  0  0  0  0  0  0  0  0  0
   -3.6507    0.9467   -0.1304 H   0  0  0  0  0  0  0  0  0  0  0  0
   -3.7171   -3.0955    1.0910 H   0  0  0  0  0  0  0  0  0  0  0  0
   -0.6498    2.4790   -3.7395 H   0  0  0  0  0  0  0  0  0  0  0  0
   -2.3297    1.8760   -3.6230 H   0  0  0  0  0  0  0  0  0  0  0  0
   -5.0753    0.6819    2.2234 H   0  0  0  0  0  0  0  0  0  0  0  0
    5.0229   -3.5664    0.6129 H   0  0  0  0  0  0  0  0  0  0  0  0
    5.1015   -3.8592   -1.1389 H   0  0  0  0  0  0  0  0  0  0  0  0
    5.4339   -2.2269   -0.5177 H   0  0  0  0  0  0  0  0  0  0  0  0
   -2.7331    3.4151   -1.6999 H   0  0  0  0  0  0  0  0  0  0  0  0
   -1.0809    4.0070   -1.8132 H   0  0  0  0  0  0  0  0  0  0  0  0
   -2.2220    4.3246   -3.1426 H   0  0  0  0  0  0  0  0  0  0  0  0
  1 18  1  0  0  0  0
  1 28  1  0  0  0  0
  2 22  1  0  0  0  0
  2 30  1  0  0  0  0
  3 18  2  0  0  0  0
  4 22  2  0  0  0  0
  5  9  1  0  0  0  0
  6  9  2  0  0  0  0
  7 14  1  0  0  0  0
  7 16  1  0  0  0  0
  7 33  1  0  0  0  0
  8 17  1  0  0  0  0
  8 26  1  0  0  0  0
  8 27  1  0  0  0  0
  9 23  1  0  0  0  0
 10 27  2  0  0  0  0
 10 29  1  0  0  0  0
 11 12  1  0  0  0  0
 11 13  1  0  0  0  0
 11 15  1  0  0  0  0
 11 32  1  0  0  0  0
 12 14  2  0  0  0  0
 12 18  1  0  0  0  0
 13 16  2  0  0  0  0
 13 22  1  0  0  0  0
 14 17  1  0  0  0  0
 15 19  2  0  0  0  0
 15 21  1  0  0  0  0
 16 20  1  0  0  0  0
 17 34  1  0  0  0  0
 17 35  1  0  0  0  0
 19 23  1  0  0  0  0
 19 36  1  0  0  0  0
 20 37  1  0  0  0  0
 20 38  1  0  0  0  0
 20 39  1  0  0  0  0
 21 24  2  0  0  0  0
 21 40  1  0  0  0  0
 23 25  2  0  0  0  0
 24 25  1  0  0  0  0
 24 41  1  0  0  0  0
 25 42  1  0  0  0  0
 26 29  2  0  0  0  0
 26 43  1  0  0  0  0
 27 44  1  0  0  0  0
 28 31  1  0  0  0  0
 28 45  1  0  0  0  0
 28 46  1  0  0  0  0
 29 47  1  0  0  0  0
 30 48  1  0  0  0  0
 30 49  1  0  0  0  0
 30 50  1  0  0  0  0
 31 51  1  0  0  0  0
 31 52  1  0  0  0  0
 31 53  1  0  0  0  0
M  CHG  2   5  -1   9   1
M  END
> <PUBCHEM_COMPOUND_CID>
128375

> <PUBCHEM_CONFORMER_RMSD>
1

> <PUBCHEM_CONFORMER_DIVERSEORDER>
16
5
57
72
76
92
73
91
78
44
45
77
82
54
80
81
79
64
90
32
95
48
88
33
68
41
40
51
86
96
93
66
67
20
83
34
94
9
69
49
70
50
61
56
28
13
4
87
89
47
58
84
22
71
63
65
62
43
74
14
59
12
37
60
2
17
31
85
27
19
29
10
35
75
46
7
52
15
53
11
55
38
30
36
23
18
42
3
25
26
39
21
97
8
24
6
1

> <PUBCHEM_MMFF94_PARTIAL_CHARGES>
38
1 -0.43
10 -0.57
11 0.42
12 -0.12
13 -0.12
14 -0.04
15 -0.14
16 -0.04
17 0.39
18 0.71
19 -0.15
2 -0.43
20 0.14
21 -0.15
22 0.71
23 0.13
24 -0.15
25 -0.15
26 -0.3
27 0.04
28 0.28
29 0.08
3 -0.57
30 0.28
33 0.4
36 0.15
4 -0.57
40 0.15
41 0.15
42 0.15
43 0.15
44 0.15
47 0.15
5 -0.52
6 -0.52
7 -0.6
8 0.05
9 0.91

> <PUBCHEM_EFFECTIVE_ROTOR_COUNT>
9.4

> <PUBCHEM_PHARMACOPHORE_FEATURES>
11
1 3 acceptor
1 4 acceptor
1 5 acceptor
1 5 anion
1 6 acceptor
1 7 cation
1 7 donor
3 8 10 27 cation
5 8 10 26 27 29 rings
6 15 19 21 23 24 25 rings
6 7 11 12 13 14 16 rings

> <PUBCHEM_HEAVY_ATOM_COUNT>
31

> <PUBCHEM_ATOM_DEF_STEREO_COUNT>
0

> <PUBCHEM_ATOM_UDEF_STEREO_COUNT>
1

> <PUBCHEM_BOND_DEF_STEREO_COUNT>
0

> <PUBCHEM_BOND_UDEF_STEREO_COUNT>
0

> <PUBCHEM_ISOTOPIC_ATOM_COUNT>
0

> <PUBCHEM_COMPONENT_COUNT>
1

> <PUBCHEM_CACTVS_TAUTO_COUNT>
3

> <PUBCHEM_CONFORMER_ID>
0001F57700000010

> <PUBCHEM_MMFF94_ENERGY>
74.3219

> <PUBCHEM_FEATURE_SELFOVERLAP>
55.903

> <PUBCHEM_SHAPE_FINGERPRINT>
10165383 225 18047198736809276644
11578080 2 18334565881038870213
12156800 1 17337913372266444870
12160290 23 17262692410572483058
12422481 6 18115848858867042416
12633257 1 18130801027388168145
12788726 201 18056788475943381806
13140716 1 17895471539377101154
14955137 171 18270694081517554642
16114785 44 16984315926016262162
17980427 26 17699843218116970708
229495 10 18411695512861130517
23559900 14 17750531722829994099
3552219 110 17973479583697903046
469060 322 17315374539481070662
56638632 10 17698976781901648496
5845 1 11000994327468636890
5895379 119 16985503484520670451
59444896 2 17471915359933375052
70251023 43 18195214842043987199
7288768 16 16834580463827322233

> <PUBCHEM_SHAPE_MULTIPOLES>
582.83
6.63
5.11
3.08
3.55
1.86
0.22
-4.93
-2.06
-3.2
-1.39
1.46
3.14
2.2

> <PUBCHEM_SHAPE_SELFOVERLAP>
1251.716

> <PUBCHEM_SHAPE_VOLUME>
322.7

> <PUBCHEM_COORDINATE_TYPE>
2
5
10

$$$$
