128349
  -OEChem-03292013323D

 50 54  0     0  0  0  0  0  0999 V2000
    2.6242   -1.4906   -2.4939 Cl  0  0  0  0  0  0  0  0  0  0  0  0
    0.2056    2.2954    0.4130 S   0  0  0  0  0  0  0  0  0  0  0  0
   -7.2846   -0.1019   -1.7177 O   0  0  0  0  0  0  0  0  0  0  0  0
   -4.4327    0.7338    2.2356 O   0  0  0  0  0  0  0  0  0  0  0  0
   -5.2027   -0.0212    0.1794 N   0  0  0  0  0  0  0  0  0  0  0  0
    2.7787    2.3395   -0.2685 N   0  0  0  0  0  0  0  0  0  0  0  0
    4.1704   -0.3035    0.5014 N   0  0  0  0  0  0  0  0  0  0  0  0
    4.8429    2.9527   -0.7546 N   0  0  0  0  0  0  0  0  0  0  0  0
    3.9817    3.8538   -1.3302 N   0  0  0  0  0  0  0  0  0  0  0  0
   -6.6015   -0.0640    0.6054 C   0  0  0  0  0  0  0  0  0  0  0  0
   -4.9661   -0.5558   -1.1658 C   0  0  0  0  0  0  0  0  0  0  0  0
   -2.8009    0.4088    0.5469 C   0  0  0  0  0  0  0  0  0  0  0  0
   -1.8336    0.8761    1.6250 C   0  0  0  0  0  0  0  0  0  0  0  0
   -4.2145    0.3900    1.0711 C   0  0  0  0  0  0  0  0  0  0  0  0
   -0.4186    0.8945    1.1610 C   0  0  0  0  0  0  0  0  0  0  0  0
   -7.4997    0.5461   -0.4612 C   0  0  0  0  0  0  0  0  0  0  0  0
   -5.9358    0.0706   -2.1600 C   0  0  0  0  0  0  0  0  0  0  0  0
    1.7934    0.2616    0.6546 C   0  0  0  0  0  0  0  0  0  0  0  0
    1.7347    1.5823    0.2487 C   0  0  0  0  0  0  0  0  0  0  0  0
    0.5213   -0.1110    1.2238 C   0  0  0  0  0  0  0  0  0  0  0  0
    2.9305   -0.6481    0.4616 C   0  0  0  0  0  0  0  0  0  0  0  0
    4.1205    2.0725   -0.0947 C   0  0  0  0  0  0  0  0  0  0  0  0
    4.6068    1.0380    0.8484 C   0  0  0  0  0  0  0  0  0  0  0  0
    2.6313   -2.0754    0.1711 C   0  0  0  0  0  0  0  0  0  0  0  0
    2.7601    3.4978   -1.0056 C   0  0  0  0  0  0  0  0  0  0  0  0
    2.4783   -2.5422   -1.1317 C   0  0  0  0  0  0  0  0  0  0  0  0
    2.5074   -2.9474    1.2500 C   0  0  0  0  0  0  0  0  0  0  0  0
    2.1997   -3.8903   -1.3574 C   0  0  0  0  0  0  0  0  0  0  0  0
    2.2286   -4.2954    1.0240 C   0  0  0  0  0  0  0  0  0  0  0  0
    2.0747   -4.7667   -0.2796 C   0  0  0  0  0  0  0  0  0  0  0  0
   -6.7391    0.4508    1.5609 H   0  0  0  0  0  0  0  0  0  0  0  0
   -6.8500   -1.1220    0.7498 H   0  0  0  0  0  0  0  0  0  0  0  0
   -5.1397   -1.6364   -1.1010 H   0  0  0  0  0  0  0  0  0  0  0  0
   -3.9398   -0.4009   -1.5015 H   0  0  0  0  0  0  0  0  0  0  0  0
   -2.7537    1.0820   -0.3170 H   0  0  0  0  0  0  0  0  0  0  0  0
   -2.5285   -0.6017    0.2205 H   0  0  0  0  0  0  0  0  0  0  0  0
   -2.1227    1.8717    1.9879 H   0  0  0  0  0  0  0  0  0  0  0  0
   -1.9050    0.2125    2.4977 H   0  0  0  0  0  0  0  0  0  0  0  0
   -8.5512    0.4124   -0.1892 H   0  0  0  0  0  0  0  0  0  0  0  0
   -7.3153    1.6212   -0.5727 H   0  0  0  0  0  0  0  0  0  0  0  0
   -5.7338    1.1399   -2.2944 H   0  0  0  0  0  0  0  0  0  0  0  0
   -5.8378   -0.4141   -3.1364 H   0  0  0  0  0  0  0  0  0  0  0  0
    0.2947   -1.0865    1.6354 H   0  0  0  0  0  0  0  0  0  0  0  0
    5.7029    1.0469    0.8450 H   0  0  0  0  0  0  0  0  0  0  0  0
    4.3088    1.2837    1.8752 H   0  0  0  0  0  0  0  0  0  0  0  0
    1.8573    4.0139   -1.3014 H   0  0  0  0  0  0  0  0  0  0  0  0
    2.6274   -2.5934    2.2707 H   0  0  0  0  0  0  0  0  0  0  0  0
    2.0767   -4.2738   -2.3673 H   0  0  0  0  0  0  0  0  0  0  0  0
    2.1318   -4.9780    1.8632 H   0  0  0  0  0  0  0  0  0  0  0  0
    1.8577   -5.8162   -0.4553 H   0  0  0  0  0  0  0  0  0  0  0  0
  1 26  1  0  0  0  0
  2 15  1  0  0  0  0
  2 19  1  0  0  0  0
  3 16  1  0  0  0  0
  3 17  1  0  0  0  0
  4 14  2  0  0  0  0
  5 10  1  0  0  0  0
  5 11  1  0  0  0  0
  5 14  1  0  0  0  0
  6 19  1  0  0  0  0
  6 22  1  0  0  0  0
  6 25  1  0  0  0  0
  7 21  2  0  0  0  0
  7 23  1  0  0  0  0
  8  9  1  0  0  0  0
  8 22  2  0  0  0  0
  9 25  2  0  0  0  0
 10 16  1  0  0  0  0
 10 31  1  0  0  0  0
 10 32  1  0  0  0  0
 11 17  1  0  0  0  0
 11 33  1  0  0  0  0
 11 34  1  0  0  0  0
 12 13  1  0  0  0  0
 12 14  1  0  0  0  0
 12 35  1  0  0  0  0
 12 36  1  0  0  0  0
 13 15  1  0  0  0  0
 13 37  1  0  0  0  0
 13 38  1  0  0  0  0
 15 20  2  0  0  0  0
 16 39  1  0  0  0  0
 16 40  1  0  0  0  0
 17 41  1  0  0  0  0
 17 42  1  0  0  0  0
 18 19  2  0  0  0  0
 18 20  1  0  0  0  0
 18 21  1  0  0  0  0
 20 43  1  0  0  0  0
 21 24  1  0  0  0  0
 22 23  1  0  0  0  0
 23 44  1  0  0  0  0
 23 45  1  0  0  0  0
 24 26  1  0  0  0  0
 24 27  2  0  0  0  0
 25 46  1  0  0  0  0
 26 28  2  0  0  0  0
 27 29  1  0  0  0  0
 27 47  1  0  0  0  0
 28 30  1  0  0  0  0
 28 48  1  0  0  0  0
 29 30  2  0  0  0  0
 29 49  1  0  0  0  0
 30 50  1  0  0  0  0
M  END
> <PUBCHEM_COMPOUND_CID>
128349

> <PUBCHEM_CONFORMER_RMSD>
0.8

> <PUBCHEM_CONFORMER_DIVERSEORDER>
1
179
10
210
193
205
194
70
214
195
49
174
132
219
144
224
173
95
55
196
14
64
38
166
154
71
56
142
218
129
240
39
198
86
234
94
78
207
12
36
96
66
152
209
200
177
75
223
165
50
28
116
33
104
93
40
120
230
156
17
235
111
9
113
128
229
31
60
159
137
226
206
187
184
62
23
41
201
157
217
140
73
134
220
212
150
130
43
176
237
59
83
20
182
46
239
232
102
92
110
126
52
19
192
72
158
57
44
197
231
161
89
145
105
3
37
85
221
25
125
114
121
122
227
203
6
155
88
63
18
98
136
143
24
103
199
233
91
170
101
7
147
2
82
51
186
148
213
149
99
241
123
119
215
188
118
124
45
115
26
168
172
236
8
183
153
222
53
4
5
109
106
84
27
90
47
48
58
164
135
162
141
131
216
34
67
204
189
35
178
211
208
21
202
185
225
151
32
76
146
81
97
228
79
74
190
77
107
127
169
15
181
42
112
100
191
175
139
163
167
171
87
238
180
11
133
16
69
108
22
54
160
65
13
29
30
80
117
68
61
138

> <PUBCHEM_MMFF94_PARTIAL_CHARGES>
36
1 -0.18
10 0.3
11 0.3
12 0.06
13 0.18
14 0.57
15 -0.14
16 0.28
17 0.28
18 -0.09
19 -0.04
2 -0.08
20 -0.15
21 0.45
22 0.01
23 0.43
24 0.09
25 0.04
26 0.18
27 -0.15
28 -0.15
29 -0.15
3 -0.56
30 -0.15
4 -0.57
43 0.15
46 0.15
47 0.15
48 0.15
49 0.15
5 -0.66
50 0.15
6 0.38
7 -0.7
8 -0.34
9 -0.34

> <PUBCHEM_EFFECTIVE_ROTOR_COUNT>
6.4

> <PUBCHEM_PHARMACOPHORE_FEATURES>
10
1 3 acceptor
1 4 acceptor
1 7 acceptor
3 6 8 22 cation
3 6 9 25 cation
5 2 15 18 19 20 rings
5 6 8 9 22 25 rings
6 24 26 27 28 29 30 rings
6 3 5 10 11 16 17 rings
7 6 7 18 19 21 22 23 rings

> <PUBCHEM_HEAVY_ATOM_COUNT>
30

> <PUBCHEM_ATOM_DEF_STEREO_COUNT>
0

> <PUBCHEM_ATOM_UDEF_STEREO_COUNT>
0

> <PUBCHEM_BOND_DEF_STEREO_COUNT>
0

> <PUBCHEM_BOND_UDEF_STEREO_COUNT>
0

> <PUBCHEM_ISOTOPIC_ATOM_COUNT>
0

> <PUBCHEM_COMPONENT_COUNT>
1

> <PUBCHEM_CACTVS_TAUTO_COUNT>
1

> <PUBCHEM_CONFORMER_ID>
0001F55D00000001

> <PUBCHEM_MMFF94_ENERGY>
78.2362

> <PUBCHEM_FEATURE_SELFOVERLAP>
53.33

> <PUBCHEM_SHAPE_FINGERPRINT>
10090160 65 18411985784257741984
10556698 54 17244951898185902829
10622 236 18056755426159749555
11069576 57 18272649004796445559
11135609 149 18048017593809833335
11135926 11 18339090375086017209
11421498 54 17988933249379810536
11719270 70 18410288142615111128
11991303 11 17901401292333609540
13150687 139 18129111168543438444
13533116 47 18202560658175600219
13540713 5 17987532411658034329
13968360 50 18409727400216837824
14117953 113 18408884045166150684
14675020 138 18200015374182229392
15131766 46 15505210330951430340
15250474 111 18131344207660321447
15274700 147 15588247818922157757
15484559 13 18270403914090980940
15705408 1 18122652490875326300
16989378 47 17773334356432540374
17134984 74 18342448284077721335
17138139 8 17630312271703220279
17818456 19 17413607046926155169
18681886 176 15841273752312523681
19319366 153 18271517688877696910
20028762 73 18343303665558732326
20721686 124 18186794794930735922
20721686 146 16733267966831143716
20775438 99 18342177756498440215
21033648 29 16081643512794370760
25222932 49 16343121593935682753
255183 451 18055359033212472014
3004659 81 18059292068035518215
34797466 226 18113613496362495417
3534868 343 18340494387069037537
3882209 13 17177404410060870811
46194498 28 18260822683787846341
504843 32 17901395811617521272
5223283 242 17826785946486873477
57359948 33 17822009753568919909
6025842 7 18409450301453157593
6058803 2 17985845743324892625

> <PUBCHEM_SHAPE_MULTIPOLES>
586.46
15.07
5.15
1.88
39.12
3.7
-0.61
-2.99
-4.67
-11.33
-1.31
1.09
0.36
-1.46

> <PUBCHEM_SHAPE_SELFOVERLAP>
1261.357

> <PUBCHEM_SHAPE_VOLUME>
325

> <PUBCHEM_COORDINATE_TYPE>
2
5
10

$$$$
