128302
  -OEChem-03292013323D

 51 53  0     1  0  0  0  0  0999 V2000
    2.5825    0.9573    1.9370 O   0  0  0  0  0  0  0  0  0  0  0  0
   -1.6136    0.3720   -2.5448 O   0  0  0  0  0  0  0  0  0  0  0  0
   -3.0142   -2.4439    1.8322 O   0  0  0  0  0  0  0  0  0  0  0  0
    5.8556    2.4303    0.5372 O   0  0  0  0  0  0  0  0  0  0  0  0
    4.2589    2.0879   -1.0532 O   0  0  0  0  0  0  0  0  0  0  0  0
   -4.0799    3.7492    0.7828 O   0  0  0  0  0  0  0  0  0  0  0  0
    3.5675   -0.2284    0.2105 N   0  0  0  0  0  0  0  0  0  0  0  0
   -1.7811   -0.7556    0.7771 N   0  0  0  0  0  0  0  0  0  0  0  0
   -1.6975   -2.8364   -0.0837 N   0  0  0  0  0  0  0  0  0  0  0  0
    0.6050   -0.7717    2.1179 N   0  0  0  0  0  0  0  0  0  0  0  0
   -3.0119    1.9850   -0.2689 N   0  0  0  0  0  0  0  0  0  0  0  0
   -4.1966    0.0091   -0.8460 N   0  0  0  0  0  0  0  0  0  0  0  0
   -0.9857   -0.6188   -0.4240 C   0  0  1  0  0  0  0  0  0  0  0  0
    0.3263    0.1106   -0.1633 C   0  0  0  0  0  0  0  0  0  0  0  0
   -0.7911   -2.0597   -0.9101 C   0  0  0  0  0  0  0  0  0  0  0  0
    1.2294   -0.6439    0.8081 C   0  0  1  0  0  0  0  0  0  0  0  0
    4.9186    0.2795    0.4093 C   0  0  1  0  0  0  0  0  0  0  0  0
    5.8081   -0.6602   -0.3965 C   0  0  0  0  0  0  0  0  0  0  0  0
    3.5320   -1.2295   -0.8525 C   0  0  0  0  0  0  0  0  0  0  0  0
    4.8940   -1.1346   -1.5236 C   0  0  0  0  0  0  0  0  0  0  0  0
    2.5155    0.1054    1.0492 C   0  0  0  0  0  0  0  0  0  0  0  0
   -1.8565    0.1627   -1.3669 C   0  0  0  0  0  0  0  0  0  0  0  0
   -2.2579   -2.0664    0.9470 C   0  0  0  0  0  0  0  0  0  0  0  0
    4.9497    1.6767   -0.1328 C   0  0  0  0  0  0  0  0  0  0  0  0
   -1.8852   -4.2571   -0.2781 C   0  0  0  0  0  0  0  0  0  0  0  0
   -3.1162    0.7196   -0.8035 C   0  0  0  0  0  0  0  0  0  0  0  0
   -4.1006    2.6265    0.2900 C   0  0  0  0  0  0  0  0  0  0  0  0
   -5.3060    0.6074   -0.3009 C   0  0  0  0  0  0  0  0  0  0  0  0
   -5.3487    1.8272    0.2507 C   0  0  0  0  0  0  0  0  0  0  0  0
    0.1244    1.1200    0.2240 H   0  0  0  0  0  0  0  0  0  0  0  0
    0.8535    0.2697   -1.1126 H   0  0  0  0  0  0  0  0  0  0  0  0
    0.2097   -2.4774   -0.8020 H   0  0  0  0  0  0  0  0  0  0  0  0
   -1.0895   -2.1925   -1.9562 H   0  0  0  0  0  0  0  0  0  0  0  0
    1.4653   -1.6532    0.4763 H   0  0  0  0  0  0  0  0  0  0  0  0
    5.1544    0.2880    1.4788 H   0  0  0  0  0  0  0  0  0  0  0  0
    6.7198   -0.1878   -0.7743 H   0  0  0  0  0  0  0  0  0  0  0  0
    6.0958   -1.5194    0.2216 H   0  0  0  0  0  0  0  0  0  0  0  0
    3.4026   -2.2140   -0.3899 H   0  0  0  0  0  0  0  0  0  0  0  0
    2.7090   -1.0453   -1.5469 H   0  0  0  0  0  0  0  0  0  0  0  0
    5.2146   -2.0846   -1.9603 H   0  0  0  0  0  0  0  0  0  0  0  0
    4.8683   -0.3855   -2.3238 H   0  0  0  0  0  0  0  0  0  0  0  0
   -2.0339    0.0113    1.3940 H   0  0  0  0  0  0  0  0  0  0  0  0
    1.2456   -1.2365    2.7615 H   0  0  0  0  0  0  0  0  0  0  0  0
   -0.2070   -1.3803    2.0635 H   0  0  0  0  0  0  0  0  0  0  0  0
   -2.2465   -4.4299   -1.2951 H   0  0  0  0  0  0  0  0  0  0  0  0
   -2.6109   -4.6454    0.4410 H   0  0  0  0  0  0  0  0  0  0  0  0
   -0.9258   -4.7612   -0.1351 H   0  0  0  0  0  0  0  0  0  0  0  0
   -2.1172    2.4661   -0.2806 H   0  0  0  0  0  0  0  0  0  0  0  0
    5.8920    3.3491    0.1957 H   0  0  0  0  0  0  0  0  0  0  0  0
   -6.2118    0.0105   -0.3363 H   0  0  0  0  0  0  0  0  0  0  0  0
   -6.2566    2.2460    0.6658 H   0  0  0  0  0  0  0  0  0  0  0  0
  1 21  2  0  0  0  0
  2 22  2  0  0  0  0
  3 23  2  0  0  0  0
  4 24  1  0  0  0  0
  4 49  1  0  0  0  0
  5 24  2  0  0  0  0
  6 27  2  0  0  0  0
  7 17  1  0  0  0  0
  7 19  1  0  0  0  0
  7 21  1  0  0  0  0
  8 13  1  0  0  0  0
  8 23  1  0  0  0  0
  8 42  1  0  0  0  0
  9 15  1  0  0  0  0
  9 23  1  0  0  0  0
  9 25  1  0  0  0  0
 10 16  1  0  0  0  0
 10 43  1  0  0  0  0
 10 44  1  0  0  0  0
 11 26  1  0  0  0  0
 11 27  1  0  0  0  0
 11 48  1  0  0  0  0
 12 26  2  0  0  0  0
 12 28  1  0  0  0  0
 13 14  1  0  0  0  0
 13 15  1  0  0  0  0
 13 22  1  0  0  0  0
 14 16  1  0  0  0  0
 14 30  1  0  0  0  0
 14 31  1  0  0  0  0
 15 32  1  0  0  0  0
 15 33  1  0  0  0  0
 16 21  1  0  0  0  0
 16 34  1  0  0  0  0
 17 18  1  0  0  0  0
 17 24  1  0  0  0  0
 17 35  1  0  0  0  0
 18 20  1  0  0  0  0
 18 36  1  0  0  0  0
 18 37  1  0  0  0  0
 19 20  1  0  0  0  0
 19 38  1  0  0  0  0
 19 39  1  0  0  0  0
 20 40  1  0  0  0  0
 20 41  1  0  0  0  0
 22 26  1  0  0  0  0
 25 45  1  0  0  0  0
 25 46  1  0  0  0  0
 25 47  1  0  0  0  0
 27 29  1  0  0  0  0
 28 29  2  0  0  0  0
 28 50  1  0  0  0  0
 29 51  1  0  0  0  0
M  END
> <PUBCHEM_COMPOUND_CID>
128302

> <PUBCHEM_CONFORMER_RMSD>
1

> <PUBCHEM_CONFORMER_DIVERSEORDER>
1
49
30
101
44
22
9
149
26
107
127
85
135
117
155
21
134
42
104
147
45
102
77
121
143
53
55
73
65
151
123
80
39
129
81
132
28
133
88
115
37
5
126
156
75
153
99
95
114
90
150
146
154
82
59
33
118
64
145
120
12
74
58
100
148
6
98
51
27
38
97
62
125
61
66
138
20
144
71
19
23
93
16
24
92
119
110
79
29
35
109
136
50
13
69
31
15
141
139
84
152
96
137
122
34
91
70
41
76
56
108
87
52
67
112
40
94
89
60
72
63
105
113
47
142
130
54
7
86
83
68
106
11
103
131
25
3
57
18
46
111
32
48
8
124
4
116
78
17
128
36
140
43
10
14
2

> <PUBCHEM_MMFF94_PARTIAL_CHARGES>
33
1 -0.57
10 -0.99
11 -0.49
12 -0.62
13 0.36
15 0.3
16 0.33
17 0.36
19 0.3
2 -0.57
21 0.57
22 0.51
23 0.69
24 0.66
25 0.3
26 0.51
27 0.62
28 0.02
29 -0.14
3 -0.57
4 -0.65
42 0.37
43 0.36
44 0.36
48 0.37
49 0.5
5 -0.57
50 0.15
51 0.15
6 -0.57
7 -0.66
8 -0.73
9 -0.66

> <PUBCHEM_EFFECTIVE_ROTOR_COUNT>
8.8

> <PUBCHEM_PHARMACOPHORE_FEATURES>
14
1 1 acceptor
1 10 cation
1 10 donor
1 11 donor
1 2 acceptor
1 3 acceptor
1 4 acceptor
1 5 acceptor
1 6 acceptor
1 8 donor
3 4 5 24 anion
5 7 17 18 19 20 rings
5 8 9 13 15 23 rings
6 11 12 26 27 28 29 rings

> <PUBCHEM_HEAVY_ATOM_COUNT>
29

> <PUBCHEM_ATOM_DEF_STEREO_COUNT>
3

> <PUBCHEM_ATOM_UDEF_STEREO_COUNT>
0

> <PUBCHEM_BOND_DEF_STEREO_COUNT>
0

> <PUBCHEM_BOND_UDEF_STEREO_COUNT>
0

> <PUBCHEM_ISOTOPIC_ATOM_COUNT>
0

> <PUBCHEM_COMPONENT_COUNT>
1

> <PUBCHEM_CACTVS_TAUTO_COUNT>
6

> <PUBCHEM_CONFORMER_ID>
0001F52E00000001

> <PUBCHEM_MMFF94_ENERGY>
77.2875

> <PUBCHEM_FEATURE_SELFOVERLAP>
71.11

> <PUBCHEM_SHAPE_FINGERPRINT>
107951 10 18342177734901895127
11115154 58 17832129899595636687
11405975 8 18334852823445670722
1200032 147 16699224673438131169
12788726 201 18191571163694214627
13135754 10 17823155543369589915
13583140 156 17702664505093028126
14790565 3 18268149747423046665
14840074 17 16950291684702159597
15183329 4 16200431338559337905
15238133 3 18269540655612841520
15880784 105 7997967994673697564
17844677 252 18336835294254804002
18785283 64 18047749300146010363
192875 21 13326563081684520186
21033648 29 18273206500040895249
21756936 100 18340758278369750585
23198884 109 18411980243464904752
23557571 272 18192145117152861738
23559900 14 18342175545380930462
2637199 183 18338232652752409851
3004659 81 17703790263719741486
3027735 51 12823306671503362501
4073 2 18335422405018572466
4098825 35 18410016559422725866
463206 1 10447630410224081677
469060 322 15068898724037265451
5104073 3 18113889507924586896
59755656 520 18336542729424985759
633830 44 18127401268404430477
7399639 24 17480848050132076184
7808743 9 18409724097207905480

> <PUBCHEM_SHAPE_MULTIPOLES>
531.7
13.01
3.56
1.56
9.65
1.17
-0.04
-8.72
1.13
-3.66
-0.49
0.1
0.26
0.69

> <PUBCHEM_SHAPE_SELFOVERLAP>
1136.379

> <PUBCHEM_SHAPE_VOLUME>
294.3

> <PUBCHEM_COORDINATE_TYPE>
2
5
10

$$$$
