128369
  -OEChem-03292013323D

 53 57  0     0  0  0  0  0  0999 V2000
   -1.8129    3.4255    0.2780 O   0  0  0  0  0  0  0  0  0  0  0  0
    1.8899   -1.9606    0.3246 O   0  0  0  0  0  0  0  0  0  0  0  0
   -4.1518    2.4802    0.3374 O   0  0  0  0  0  0  0  0  0  0  0  0
   -2.3495   -2.5030   -0.3421 O   0  0  0  0  0  0  0  0  0  0  0  0
   -6.5857    1.6808    0.4218 O   0  0  0  0  0  0  0  0  0  0  0  0
    4.9268   -2.4909    1.3069 O   0  0  0  0  0  0  0  0  0  0  0  0
    4.7787   -3.1670   -0.8581 O   0  0  0  0  0  0  0  0  0  0  0  0
   -7.3594   -2.9699   -0.0374 O   0  0  0  0  0  0  0  0  0  0  0  0
    6.4494    0.4106    1.6601 O   0  0  0  0  0  0  0  0  0  0  0  0
   -0.0113    1.9075   -0.0437 C   0  0  0  0  0  0  0  0  0  0  0  0
    0.9508    3.0694    0.0334 C   0  0  0  0  0  0  0  0  0  0  0  0
    0.4907    0.5944   -0.1956 C   0  0  0  0  0  0  0  0  0  0  0  0
    2.1680    2.8453   -0.8635 C   0  0  0  0  0  0  0  0  0  0  0  0
    1.9565    0.3881   -0.3075 C   0  0  0  0  0  0  0  0  0  0  0  0
    2.7877    1.4904   -0.6193 C   0  0  0  0  0  0  0  0  0  0  0  0
   -1.3885    2.1401    0.0920 C   0  0  0  0  0  0  0  0  0  0  0  0
   -2.2911    1.0754    0.0462 C   0  0  0  0  0  0  0  0  0  0  0  0
   -0.4400   -0.4595   -0.2487 C   0  0  0  0  0  0  0  0  0  0  0  0
   -1.8185   -0.2225   -0.1285 C   0  0  0  0  0  0  0  0  0  0  0  0
    2.5763   -0.8575   -0.1024 C   0  0  0  0  0  0  0  0  0  0  0  0
    4.1741    1.3274   -0.7580 C   0  0  0  0  0  0  0  0  0  0  0  0
    4.7578    0.0804   -0.5590 C   0  0  0  0  0  0  0  0  0  0  0  0
    3.9605   -1.0092   -0.2270 C   0  0  0  0  0  0  0  0  0  0  0  0
   -3.7387    1.3378    0.1811 C   0  0  0  0  0  0  0  0  0  0  0  0
   -2.7614   -1.3599   -0.1871 C   0  0  0  0  0  0  0  0  0  0  0  0
   -4.6811    0.2024    0.1231 C   0  0  0  0  0  0  0  0  0  0  0  0
   -4.2095   -1.0996   -0.0552 C   0  0  0  0  0  0  0  0  0  0  0  0
    6.2386   -0.0537   -0.7046 C   0  0  0  0  0  0  0  0  0  0  0  0
   -6.0559    0.4366    0.2470 C   0  0  0  0  0  0  0  0  0  0  0  0
    4.5800   -2.3114    0.0054 C   0  0  0  0  0  0  0  0  0  0  0  0
   -5.1126   -2.1679   -0.1092 C   0  0  0  0  0  0  0  0  0  0  0  0
    7.0069    0.1813    0.5876 C   0  0  0  0  0  0  0  0  0  0  0  0
   -6.4819   -1.9303    0.0147 C   0  0  0  0  0  0  0  0  0  0  0  0
   -6.9525   -0.6307    0.1924 C   0  0  0  0  0  0  0  0  0  0  0  0
    8.5098    0.1201    0.4951 C   0  0  0  0  0  0  0  0  0  0  0  0
    0.4772    4.0082   -0.2744 H   0  0  0  0  0  0  0  0  0  0  0  0
    1.2650    3.1840    1.0788 H   0  0  0  0  0  0  0  0  0  0  0  0
    2.8969    3.6425   -0.6755 H   0  0  0  0  0  0  0  0  0  0  0  0
    1.8781    2.9036   -1.9204 H   0  0  0  0  0  0  0  0  0  0  0  0
   -0.1319   -1.4760   -0.4634 H   0  0  0  0  0  0  0  0  0  0  0  0
    4.7918    2.1844   -1.0173 H   0  0  0  0  0  0  0  0  0  0  0  0
    6.5165   -1.0360   -1.1013 H   0  0  0  0  0  0  0  0  0  0  0  0
    6.6003    0.6778   -1.4388 H   0  0  0  0  0  0  0  0  0  0  0  0
   -2.7391    3.4487    0.5600 H   0  0  0  0  0  0  0  0  0  0  0  0
   -4.7648   -3.1888   -0.2471 H   0  0  0  0  0  0  0  0  0  0  0  0
    1.3231   -1.6844    1.0656 H   0  0  0  0  0  0  0  0  0  0  0  0
   -8.0214   -0.4538    0.2881 H   0  0  0  0  0  0  0  0  0  0  0  0
    8.9481    0.2972    1.4812 H   0  0  0  0  0  0  0  0  0  0  0  0
    8.8142   -0.8694    0.1457 H   0  0  0  0  0  0  0  0  0  0  0  0
    8.8657    0.8901   -0.1936 H   0  0  0  0  0  0  0  0  0  0  0  0
   -7.5541    1.6190    0.4839 H   0  0  0  0  0  0  0  0  0  0  0  0
    5.3444   -3.3659    1.4566 H   0  0  0  0  0  0  0  0  0  0  0  0
   -8.2633   -2.6261    0.0652 H   0  0  0  0  0  0  0  0  0  0  0  0
  1 16  1  0  0  0  0
  1 44  1  0  0  0  0
  2 20  1  0  0  0  0
  2 46  1  0  0  0  0
  3 24  2  0  0  0  0
  4 25  2  0  0  0  0
  5 29  1  0  0  0  0
  5 51  1  0  0  0  0
  6 30  1  0  0  0  0
  6 52  1  0  0  0  0
  7 30  2  0  0  0  0
  8 33  1  0  0  0  0
  8 53  1  0  0  0  0
  9 32  2  0  0  0  0
 10 11  1  0  0  0  0
 10 12  1  0  0  0  0
 10 16  2  0  0  0  0
 11 13  1  0  0  0  0
 11 36  1  0  0  0  0
 11 37  1  0  0  0  0
 12 14  1  0  0  0  0
 12 18  2  0  0  0  0
 13 15  1  0  0  0  0
 13 38  1  0  0  0  0
 13 39  1  0  0  0  0
 14 15  1  0  0  0  0
 14 20  2  0  0  0  0
 15 21  2  0  0  0  0
 16 17  1  0  0  0  0
 17 19  2  0  0  0  0
 17 24  1  0  0  0  0
 18 19  1  0  0  0  0
 18 40  1  0  0  0  0
 19 25  1  0  0  0  0
 20 23  1  0  0  0  0
 21 22  1  0  0  0  0
 21 41  1  0  0  0  0
 22 23  2  0  0  0  0
 22 28  1  0  0  0  0
 23 30  1  0  0  0  0
 24 26  1  0  0  0  0
 25 27  1  0  0  0  0
 26 27  2  0  0  0  0
 26 29  1  0  0  0  0
 27 31  1  0  0  0  0
 28 32  1  0  0  0  0
 28 42  1  0  0  0  0
 28 43  1  0  0  0  0
 29 34  2  0  0  0  0
 31 33  2  0  0  0  0
 31 45  1  0  0  0  0
 32 35  1  0  0  0  0
 33 34  1  0  0  0  0
 34 47  1  0  0  0  0
 35 48  1  0  0  0  0
 35 49  1  0  0  0  0
 35 50  1  0  0  0  0
M  END
> <PUBCHEM_COMPOUND_CID>
128369

> <PUBCHEM_CONFORMER_RMSD>
0.8

> <PUBCHEM_CONFORMER_DIVERSEORDER>
1
6
5
3
2
4

> <PUBCHEM_MMFF94_PARTIAL_CHARGES>
42
1 -0.53
10 -0.14
11 0.14
13 0.14
15 -0.14
16 0.08
17 0.09
18 -0.15
19 0.09
2 -0.53
20 0.08
21 -0.15
22 -0.14
23 0.09
24 0.4
25 0.4
26 0.09
27 0.09
28 0.2
29 0.08
3 -0.57
30 0.63
31 -0.15
32 0.45
33 0.08
34 -0.15
35 0.06
4 -0.57
40 0.15
41 0.15
44 0.45
45 0.15
46 0.45
47 0.15
5 -0.53
51 0.45
52 0.5
53 0.45
6 -0.65
7 -0.57
8 -0.53
9 -0.57

> <PUBCHEM_EFFECTIVE_ROTOR_COUNT>
3.4

> <PUBCHEM_PHARMACOPHORE_FEATURES>
15
1 1 donor
1 2 donor
1 3 acceptor
1 4 acceptor
1 5 donor
1 6 acceptor
1 7 acceptor
1 8 donor
1 9 acceptor
3 6 7 30 anion
6 10 11 12 13 14 15 rings
6 10 12 16 17 18 19 rings
6 14 15 20 21 22 23 rings
6 17 19 24 25 26 27 rings
6 26 27 29 31 33 34 rings

> <PUBCHEM_HEAVY_ATOM_COUNT>
35

> <PUBCHEM_ATOM_DEF_STEREO_COUNT>
0

> <PUBCHEM_ATOM_UDEF_STEREO_COUNT>
0

> <PUBCHEM_BOND_DEF_STEREO_COUNT>
0

> <PUBCHEM_BOND_UDEF_STEREO_COUNT>
0

> <PUBCHEM_ISOTOPIC_ATOM_COUNT>
0

> <PUBCHEM_COMPONENT_COUNT>
1

> <PUBCHEM_CACTVS_TAUTO_COUNT>
994

> <PUBCHEM_CONFORMER_ID>
0001F57100000001

> <PUBCHEM_MMFF94_ENERGY>
120.4202

> <PUBCHEM_FEATURE_SELFOVERLAP>
76.268

> <PUBCHEM_SHAPE_FINGERPRINT>
10050765 1 18194965141645904604
10595046 47 18409173233208111069
10939801 23 18340766044276977838
11963148 33 18409161121785997182
11991303 11 13840276913325965321
12107183 9 18267874878749771833
12236239 1 18259989288259851245
12516196 113 18413108363753723376
12838862 33 18338500980945282885
13782708 43 17530963579593769115
13811026 1 18412543180539004551
14068700 675 18408605889408648645
14347332 77 18335420162502442125
14394314 77 18411703153914177969
15021287 119 17603876593831529645
15183329 4 18409735062507091591
15320467 1 18410858776218552183
15351339 4 18113609080461448019
15728490 51 18413106173964026246
15927050 60 17622163885962359252
16087824 20 18338237047538870261
17492 89 18267023848023022142
17857418 61 18409450280025748277
18608769 82 18341609335050920144
18681886 176 18341327885358729736
19841028 212 18040991788040040018
20028762 73 18413110580289781454
20721686 56 18408327674327797059
21033648 29 17560220510604571050
21130935 74 18272373027325379450
21133410 171 17261254622989895942
21223535 225 15574987335255111109
21267235 1 18411145765942761573
23522609 53 18121535481456547885
23559900 14 18412258454836501121
24771750 20 18045512069130549076
3004659 81 18259984911297903301
335352 9 18411700977188308309
3383291 50 18336266851012766931
34797466 226 17346600777458397388
350125 39 18410295809216350965
4073 2 17968666049991587747
439807 62 18334861662604377735
4461854 278 18059021695275955806
46194498 28 17386005134365244932
5104073 3 18272089344766633984
6201320 221 16880161512794039827
99344 41 18410575063563061695
9962374 69 18267297819686572375

> <PUBCHEM_SHAPE_MULTIPOLES>
667.46
20.35
3.45
0.83
2.63
0.25
0.1
-9.38
3.21
-1.33
-0.11
1.04
-0.03
-0.79

> <PUBCHEM_SHAPE_SELFOVERLAP>
1518.532

> <PUBCHEM_SHAPE_VOLUME>
343.9

> <PUBCHEM_COORDINATE_TYPE>
2
5
10

$$$$
