128347
  -OEChem-03292013323D

 57 62  0     0  0  0  0  0  0999 V2000
    2.4293   -1.5709   -2.5758 Cl  0  0  0  0  0  0  0  0  0  0  0  0
    0.1882    1.7256    0.9901 S   0  0  0  0  0  0  0  0  0  0  0  0
   -7.3846    0.3128   -1.6633 O   0  0  0  0  0  0  0  0  0  0  0  0
   -4.5866    0.1593    2.4120 O   0  0  0  0  0  0  0  0  0  0  0  0
    2.7757    1.7260    0.3640 N   0  0  0  0  0  0  0  0  0  0  0  0
    4.1016    3.3334   -0.3611 N   0  0  0  0  0  0  0  0  0  0  0  0
    4.8872    2.2800    0.0365 N   0  0  0  0  0  0  0  0  0  0  0  0
    3.9727   -1.1060    0.6141 N   0  0  0  0  0  0  0  0  0  0  0  0
   -5.3510   -0.1232    0.2380 N   0  0  0  0  0  0  0  0  0  0  0  0
    1.7086    3.9627   -0.4978 C   0  0  0  0  0  0  0  0  0  0  0  0
    1.0220    3.7933   -1.8227 C   0  0  0  0  0  0  0  0  0  0  0  0
    1.9305    4.9656   -1.5936 C   0  0  0  0  0  0  0  0  0  0  0  0
    2.8513    3.0050   -0.1294 C   0  0  0  0  0  0  0  0  0  0  0  0
    4.0923    1.3387    0.4990 C   0  0  0  0  0  0  0  0  0  0  0  0
    1.6718    0.9555    0.7079 C   0  0  0  0  0  0  0  0  0  0  0  0
    1.6342   -0.4201    0.8458 C   0  0  0  0  0  0  0  0  0  0  0  0
    4.4858    0.1081    1.2251 C   0  0  0  0  0  0  0  0  0  0  0  0
   -0.5445    0.2514    1.4398 C   0  0  0  0  0  0  0  0  0  0  0  0
    2.7146   -1.3500    0.4910 C   0  0  0  0  0  0  0  0  0  0  0  0
    0.3264   -0.8089    1.3145 C   0  0  0  0  0  0  0  0  0  0  0  0
   -1.9690    0.2397    1.8737 C   0  0  0  0  0  0  0  0  0  0  0  0
   -2.9366    0.0603    0.7126 C   0  0  0  0  0  0  0  0  0  0  0  0
   -6.7602   -0.1526    0.6297 C   0  0  0  0  0  0  0  0  0  0  0  0
   -5.1153   -0.3987   -1.1833 C   0  0  0  0  0  0  0  0  0  0  0  0
   -4.3614    0.0362    1.2054 C   0  0  0  0  0  0  0  0  0  0  0  0
    2.3308   -2.6683   -0.0798 C   0  0  0  0  0  0  0  0  0  0  0  0
   -7.5892    0.7151   -0.3063 C   0  0  0  0  0  0  0  0  0  0  0  0
   -6.0164    0.4756   -2.0463 C   0  0  0  0  0  0  0  0  0  0  0  0
    2.1802   -2.8575   -1.4509 C   0  0  0  0  0  0  0  0  0  0  0  0
    2.1226   -3.7247    0.8033 C   0  0  0  0  0  0  0  0  0  0  0  0
    1.8188   -4.1118   -1.9426 C   0  0  0  0  0  0  0  0  0  0  0  0
    1.7611   -4.9790    0.3115 C   0  0  0  0  0  0  0  0  0  0  0  0
    1.6092   -5.1726   -1.0614 C   0  0  0  0  0  0  0  0  0  0  0  0
    1.1410    4.3472    0.3429 H   0  0  0  0  0  0  0  0  0  0  0  0
   -0.0439    3.9817   -1.8653 H   0  0  0  0  0  0  0  0  0  0  0  0
    1.3645    3.0150   -2.4940 H   0  0  0  0  0  0  0  0  0  0  0  0
    2.8723    4.9774   -2.1282 H   0  0  0  0  0  0  0  0  0  0  0  0
    1.4723    5.9416   -1.4852 H   0  0  0  0  0  0  0  0  0  0  0  0
    4.1775    0.1672    2.2764 H   0  0  0  0  0  0  0  0  0  0  0  0
    5.5799    0.0422    1.2377 H   0  0  0  0  0  0  0  0  0  0  0  0
    0.0266   -1.8283    1.5227 H   0  0  0  0  0  0  0  0  0  0  0  0
   -2.1056   -0.5755    2.5975 H   0  0  0  0  0  0  0  0  0  0  0  0
   -2.2020    1.1624    2.4221 H   0  0  0  0  0  0  0  0  0  0  0  0
   -2.7221   -0.8829    0.1967 H   0  0  0  0  0  0  0  0  0  0  0  0
   -2.8236    0.8849   -0.0007 H   0  0  0  0  0  0  0  0  0  0  0  0
   -6.8886    0.1730    1.6663 H   0  0  0  0  0  0  0  0  0  0  0  0
   -7.0805   -1.1988    0.5594 H   0  0  0  0  0  0  0  0  0  0  0  0
   -5.3603   -1.4565   -1.3351 H   0  0  0  0  0  0  0  0  0  0  0  0
   -4.0728   -0.2518   -1.4691 H   0  0  0  0  0  0  0  0  0  0  0  0
   -7.3325    1.7760   -0.2012 H   0  0  0  0  0  0  0  0  0  0  0  0
   -8.6538    0.6034   -0.0790 H   0  0  0  0  0  0  0  0  0  0  0  0
   -5.9251    0.1862   -3.0978 H   0  0  0  0  0  0  0  0  0  0  0  0
   -5.7421    1.5341   -1.9644 H   0  0  0  0  0  0  0  0  0  0  0  0
    2.2397   -3.5877    1.8751 H   0  0  0  0  0  0  0  0  0  0  0  0
    1.6962   -4.2794   -3.0097 H   0  0  0  0  0  0  0  0  0  0  0  0
    1.5983   -5.8050    0.9977 H   0  0  0  0  0  0  0  0  0  0  0  0
    1.3278   -6.1493   -1.4441 H   0  0  0  0  0  0  0  0  0  0  0  0
  1 29  1  0  0  0  0
  2 15  1  0  0  0  0
  2 18  1  0  0  0  0
  3 27  1  0  0  0  0
  3 28  1  0  0  0  0
  4 25  2  0  0  0  0
  5 13  1  0  0  0  0
  5 14  1  0  0  0  0
  5 15  1  0  0  0  0
  6  7  1  0  0  0  0
  6 13  2  0  0  0  0
  7 14  2  0  0  0  0
  8 17  1  0  0  0  0
  8 19  2  0  0  0  0
  9 23  1  0  0  0  0
  9 24  1  0  0  0  0
  9 25  1  0  0  0  0
 10 11  1  0  0  0  0
 10 12  1  0  0  0  0
 10 13  1  0  0  0  0
 10 34  1  0  0  0  0
 11 12  1  0  0  0  0
 11 35  1  0  0  0  0
 11 36  1  0  0  0  0
 12 37  1  0  0  0  0
 12 38  1  0  0  0  0
 14 17  1  0  0  0  0
 15 16  2  0  0  0  0
 16 19  1  0  0  0  0
 16 20  1  0  0  0  0
 17 39  1  0  0  0  0
 17 40  1  0  0  0  0
 18 20  2  0  0  0  0
 18 21  1  0  0  0  0
 19 26  1  0  0  0  0
 20 41  1  0  0  0  0
 21 22  1  0  0  0  0
 21 42  1  0  0  0  0
 21 43  1  0  0  0  0
 22 25  1  0  0  0  0
 22 44  1  0  0  0  0
 22 45  1  0  0  0  0
 23 27  1  0  0  0  0
 23 46  1  0  0  0  0
 23 47  1  0  0  0  0
 24 28  1  0  0  0  0
 24 48  1  0  0  0  0
 24 49  1  0  0  0  0
 26 29  1  0  0  0  0
 26 30  2  0  0  0  0
 27 50  1  0  0  0  0
 27 51  1  0  0  0  0
 28 52  1  0  0  0  0
 28 53  1  0  0  0  0
 29 31  2  0  0  0  0
 30 32  1  0  0  0  0
 30 54  1  0  0  0  0
 31 33  1  0  0  0  0
 31 55  1  0  0  0  0
 32 33  2  0  0  0  0
 32 56  1  0  0  0  0
 33 57  1  0  0  0  0
M  END
> <PUBCHEM_COMPOUND_CID>
128347

> <PUBCHEM_CONFORMER_RMSD>
1

> <PUBCHEM_CONFORMER_DIVERSEORDER>
1
31
109
82
103
89
75
16
28
70
135
98
65
18
123
113
40
25
130
139
101
90
42
73
55
21
51
37
60
127
99
112
121
85
105
52
126
39
104
111
24
34
124
67
11
47
94
76
45
50
6
15
54
95
27
87
84
29
88
120
117
66
122
36
97
128
62
83
100
91
10
71
86
134
78
12
74
79
96
49
137
125
56
30
20
131
8
58
77
110
46
116
92
5
53
14
129
118
119
9
61
114
41
68
133
32
17
13
59
108
44
3
64
26
107
63
19
106
4
7
93
102
23
33
2
132
138
48
136
43
81
80
72
115
22
69
38
57
35

> <PUBCHEM_MMFF94_PARTIAL_CHARGES>
43
1 -0.18
10 -0.01
11 -0.2
12 -0.2
13 0.1
14 0.01
15 -0.04
16 -0.09
17 0.43
18 -0.14
19 0.45
2 -0.08
20 -0.15
21 0.18
22 0.06
23 0.3
24 0.3
25 0.57
26 0.09
27 0.28
28 0.28
29 0.18
3 -0.56
30 -0.15
31 -0.15
32 -0.15
33 -0.15
34 0.1
35 0.1
36 0.1
37 0.1
38 0.1
4 -0.57
41 0.15
5 0.38
54 0.15
55 0.15
56 0.15
57 0.15
6 -0.34
7 -0.34
8 -0.7
9 -0.66

> <PUBCHEM_EFFECTIVE_ROTOR_COUNT>
8

> <PUBCHEM_PHARMACOPHORE_FEATURES>
10
1 3 acceptor
1 4 acceptor
1 8 acceptor
3 5 6 13 cation
3 5 7 14 cation
5 2 15 16 18 20 rings
5 5 6 7 13 14 rings
6 26 29 30 31 32 33 rings
6 3 9 23 24 27 28 rings
7 5 8 14 15 16 17 19 rings

> <PUBCHEM_HEAVY_ATOM_COUNT>
33

> <PUBCHEM_ATOM_DEF_STEREO_COUNT>
0

> <PUBCHEM_ATOM_UDEF_STEREO_COUNT>
0

> <PUBCHEM_BOND_DEF_STEREO_COUNT>
0

> <PUBCHEM_BOND_UDEF_STEREO_COUNT>
0

> <PUBCHEM_ISOTOPIC_ATOM_COUNT>
0

> <PUBCHEM_COMPONENT_COUNT>
1

> <PUBCHEM_CACTVS_TAUTO_COUNT>
1

> <PUBCHEM_CONFORMER_ID>
0001F55B00000001

> <PUBCHEM_MMFF94_ENERGY>
87.511

> <PUBCHEM_FEATURE_SELFOVERLAP>
53.33

> <PUBCHEM_SHAPE_FINGERPRINT>
10074138 170 9042101611004050513
10556698 54 17390477759780454477
10673678 19 18265899240727054481
11069576 57 18130786716219949935
11135609 149 18122894331582657007
11513181 2 18270688537025726141
1361 2 18411418431683059296
13690498 29 17187877232492774814
14117953 113 18410291411422690052
15274700 147 15878441927294293549
15484559 13 18410859884546149550
17138139 8 17344609664336444127
18365409 1 17843393235857449038
19319366 153 18130497613117720303
20721686 124 18334569144650311602
20775438 99 17327704355332022252
21857420 4 18042122068264736020
21987483 16 8645898085969394185
376196 1 17970346142603342201
38695281 34 18265899248878976680
394071 54 18410017624332067825
4017518 198 18201169858003372062
4435113 14 17896585220792700885
46194498 28 18335695023461287765
50150288 127 11017850166918191692
504843 32 18049166871476609402
5223283 242 18045498609214108925
59025328 239 18196368122224214747

> <PUBCHEM_SHAPE_MULTIPOLES>
648.2
13.87
6.62
2.11
39.57
2.13
-0.74
-2.62
-2.26
-11.91
-4.02
1.05
0.24
0.33

> <PUBCHEM_SHAPE_SELFOVERLAP>
1394.791

> <PUBCHEM_SHAPE_VOLUME>
358.7

> <PUBCHEM_COORDINATE_TYPE>
2
5
10

$$$$
