128443
  -OEChem-03292013323D

 63 66  0     1  0  0  0  0  0999 V2000
   -0.5955    3.2831   -0.9955 O   0  0  0  0  0  0  0  0  0  0  0  0
   -3.8023   -2.6153    0.3398 O   0  0  0  0  0  0  0  0  0  0  0  0
   -4.1294   -1.6548    2.4206 O   0  0  0  0  0  0  0  0  0  0  0  0
    2.3142   -3.6830   -0.4522 O   0  5  0  0  0  0  0  0  0  0  0  0
    1.8036   -2.7015    1.4440 O   0  0  0  0  0  0  0  0  0  0  0  0
   -4.4291    1.5965   -0.6264 N   0  0  0  0  0  0  0  0  0  0  0  0
    0.0523    2.1837    0.8453 N   0  0  0  0  0  0  0  0  0  0  0  0
    3.3363    2.4084    0.6443 N   0  0  2  0  0  0  0  0  0  0  0  0
    0.6708    3.7842   -0.6679 N   0  0  0  0  0  0  0  0  0  0  0  0
    1.5950   -2.9082    0.2239 N   0  3  0  0  0  0  0  0  0  0  0  0
   -2.2385    0.1940    0.4780 C   0  0  1  0  0  0  0  0  0  0  0  0
   -2.1061    1.6329   -0.0870 C   0  0  0  0  0  0  0  0  0  0  0  0
   -3.6733   -0.3313    0.5081 C   0  0  0  0  0  0  0  0  0  0  0  0
   -1.3602   -0.7362   -0.3095 C   0  0  0  0  0  0  0  0  0  0  0  0
   -3.2038    2.2427   -0.6110 C   0  0  0  0  0  0  0  0  0  0  0  0
   -4.6848    0.3634   -0.0551 C   0  0  0  0  0  0  0  0  0  0  0  0
   -0.8838    2.3465   -0.0546 C   0  0  0  0  0  0  0  0  0  0  0  0
   -0.3019   -1.3799    0.3202 C   0  0  0  0  0  0  0  0  0  0  0  0
   -3.2279    3.6295   -1.2080 C   0  0  0  0  0  0  0  0  0  0  0  0
   -1.6170   -0.9440   -1.6592 C   0  0  0  0  0  0  0  0  0  0  0  0
   -3.8986   -1.5959    1.2270 C   0  0  0  0  0  0  0  0  0  0  0  0
   -6.1200   -0.0839   -0.1226 C   0  0  0  0  0  0  0  0  0  0  0  0
    0.5123   -2.2446   -0.4112 C   0  0  0  0  0  0  0  0  0  0  0  0
    0.9861    3.0868    0.4277 C   0  0  0  0  0  0  0  0  0  0  0  0
    2.2564    3.2827    1.1347 C   0  0  0  0  0  0  0  0  0  0  0  0
   -0.8026   -1.8087   -2.3906 C   0  0  0  0  0  0  0  0  0  0  0  0
    0.2620   -2.4589   -1.7666 C   0  0  0  0  0  0  0  0  0  0  0  0
    2.9373    1.0099    0.7556 C   0  0  0  0  0  0  0  0  0  0  0  0
    4.5625    2.6605    1.3929 C   0  0  0  0  0  0  0  0  0  0  0  0
    3.9938    0.0808    0.2197 C   0  0  0  0  0  0  0  0  0  0  0  0
   -3.9996   -3.9211    0.8921 C   0  0  0  0  0  0  0  0  0  0  0  0
    3.9675   -0.2840   -1.1192 C   0  0  0  0  0  0  0  0  0  0  0  0
    4.9790   -0.3982    1.0719 C   0  0  0  0  0  0  0  0  0  0  0  0
    4.9463   -1.1448   -1.6158 C   0  0  0  0  0  0  0  0  0  0  0  0
    5.9577   -1.2590    0.5752 C   0  0  0  0  0  0  0  0  0  0  0  0
    5.9415   -1.6323   -0.7686 C   0  0  0  0  0  0  0  0  0  0  0  0
   -1.9017    0.2406    1.5241 H   0  0  0  0  0  0  0  0  0  0  0  0
   -5.2144    2.0839   -1.0429 H   0  0  0  0  0  0  0  0  0  0  0  0
   -0.1239   -1.1978    1.3771 H   0  0  0  0  0  0  0  0  0  0  0  0
   -4.2556    3.9991   -1.3081 H   0  0  0  0  0  0  0  0  0  0  0  0
   -2.7197    4.3614   -0.5722 H   0  0  0  0  0  0  0  0  0  0  0  0
   -2.7924    3.6288   -2.2125 H   0  0  0  0  0  0  0  0  0  0  0  0
   -2.4397   -0.4495   -2.1676 H   0  0  0  0  0  0  0  0  0  0  0  0
   -6.2839   -1.0649    0.3322 H   0  0  0  0  0  0  0  0  0  0  0  0
   -6.7641    0.6329    0.3980 H   0  0  0  0  0  0  0  0  0  0  0  0
   -6.4470   -0.1472   -1.1661 H   0  0  0  0  0  0  0  0  0  0  0  0
    2.0958    3.1262    2.2103 H   0  0  0  0  0  0  0  0  0  0  0  0
    2.5628    4.3309    1.0197 H   0  0  0  0  0  0  0  0  0  0  0  0
   -0.9977   -1.9753   -3.4460 H   0  0  0  0  0  0  0  0  0  0  0  0
    0.8756   -3.1248   -2.3678 H   0  0  0  0  0  0  0  0  0  0  0  0
    2.0330    0.7986    0.1744 H   0  0  0  0  0  0  0  0  0  0  0  0
    2.6984    0.7351    1.7929 H   0  0  0  0  0  0  0  0  0  0  0  0
    4.5018    2.3227    2.4339 H   0  0  0  0  0  0  0  0  0  0  0  0
    5.4391    2.2160    0.9120 H   0  0  0  0  0  0  0  0  0  0  0  0
    4.7788    3.7362    1.4135 H   0  0  0  0  0  0  0  0  0  0  0  0
   -5.0039   -4.0045    1.3184 H   0  0  0  0  0  0  0  0  0  0  0  0
   -3.8994   -4.6502    0.0837 H   0  0  0  0  0  0  0  0  0  0  0  0
   -3.2385   -4.1302    1.6499 H   0  0  0  0  0  0  0  0  0  0  0  0
    3.1977    0.0898   -1.7886 H   0  0  0  0  0  0  0  0  0  0  0  0
    4.9970   -0.1284    2.1239 H   0  0  0  0  0  0  0  0  0  0  0  0
    4.9329   -1.4363   -2.6619 H   0  0  0  0  0  0  0  0  0  0  0  0
    6.7304   -1.6415    1.2356 H   0  0  0  0  0  0  0  0  0  0  0  0
    6.7028   -2.3035   -1.1551 H   0  0  0  0  0  0  0  0  0  0  0  0
  1  9  1  0  0  0  0
  1 17  1  0  0  0  0
  2 21  1  0  0  0  0
  2 31  1  0  0  0  0
  3 21  2  0  0  0  0
  4 10  1  0  0  0  0
  5 10  2  0  0  0  0
  6 15  1  0  0  0  0
  6 16  1  0  0  0  0
  6 38  1  0  0  0  0
  7 17  2  0  0  0  0
  7 24  1  0  0  0  0
  8 25  1  0  0  0  0
  8 28  1  0  0  0  0
  8 29  1  0  0  0  0
  9 24  2  0  0  0  0
 10 23  1  0  0  0  0
 11 12  1  0  0  0  0
 11 13  1  0  0  0  0
 11 14  1  0  0  0  0
 11 37  1  0  0  0  0
 12 15  2  0  0  0  0
 12 17  1  0  0  0  0
 13 16  2  0  0  0  0
 13 21  1  0  0  0  0
 14 18  2  0  0  0  0
 14 20  1  0  0  0  0
 15 19  1  0  0  0  0
 16 22  1  0  0  0  0
 18 23  1  0  0  0  0
 18 39  1  0  0  0  0
 19 40  1  0  0  0  0
 19 41  1  0  0  0  0
 19 42  1  0  0  0  0
 20 26  2  0  0  0  0
 20 43  1  0  0  0  0
 22 44  1  0  0  0  0
 22 45  1  0  0  0  0
 22 46  1  0  0  0  0
 23 27  2  0  0  0  0
 24 25  1  0  0  0  0
 25 47  1  0  0  0  0
 25 48  1  0  0  0  0
 26 27  1  0  0  0  0
 26 49  1  0  0  0  0
 27 50  1  0  0  0  0
 28 30  1  0  0  0  0
 28 51  1  0  0  0  0
 28 52  1  0  0  0  0
 29 53  1  0  0  0  0
 29 54  1  0  0  0  0
 29 55  1  0  0  0  0
 30 32  2  0  0  0  0
 30 33  1  0  0  0  0
 31 56  1  0  0  0  0
 31 57  1  0  0  0  0
 31 58  1  0  0  0  0
 32 34  1  0  0  0  0
 32 59  1  0  0  0  0
 33 35  2  0  0  0  0
 33 60  1  0  0  0  0
 34 36  2  0  0  0  0
 34 61  1  0  0  0  0
 35 36  1  0  0  0  0
 35 62  1  0  0  0  0
 36 63  1  0  0  0  0
M  CHG  2   4  -1  10   1
M  END
> <PUBCHEM_COMPOUND_CID>
128443

> <PUBCHEM_CONFORMER_RMSD>
1.2

> <PUBCHEM_CONFORMER_DIVERSEORDER>
33
547
11
148
49
379
333
16
194
72
28
237
121
464
274
584
422
384
534
216
597
618
634
10
62
153
418
12
667
2
190
358
525
375
210
359
43
225
224
488
18
361
407
431
170
143
87
267
583
416
678
572
34
328
449
63
198
21
561
610
6
30
302
446
266
512
498
57
661
183
340
45
593
590
24
476
23
480
651
3
158
311
19
438
355
150
84
7
436
518
204
551
36
187
413
306
627
462
169
22
240
515
513
201
113
373
497
32
56
218
1
189
608
347
51
329
69
5
441
13
207
265
75
445
228
352
46
483
132
97
125
95
270
20
239
74
227
465
285
115
411
330
52
673
54
250
114
40
339
310
663
320
146
157
181
381
71
123
26
288
415
31
252
301
127
247
322
134
68
643
581
276
175

> <PUBCHEM_MMFF94_PARTIAL_CHARGES>
46
1 -0.02
10 0.91
11 0.42
12 -0.09
13 -0.12
14 -0.14
15 -0.04
16 -0.04
17 0.43
18 -0.15
19 0.14
2 -0.43
20 -0.15
21 0.71
22 0.14
23 0.13
24 0.34
25 0.45
26 -0.15
27 -0.15
28 0.41
29 0.27
3 -0.57
30 -0.14
31 0.28
32 -0.15
33 -0.15
34 -0.15
35 -0.15
36 -0.15
38 0.4
39 0.15
4 -0.52
43 0.15
49 0.15
5 -0.52
50 0.15
59 0.15
6 -0.6
60 0.15
61 0.15
62 0.15
63 0.15
7 -0.57
8 -0.81
9 -0.41

> <PUBCHEM_EFFECTIVE_ROTOR_COUNT>
9.4

> <PUBCHEM_PHARMACOPHORE_FEATURES>
12
1 3 acceptor
1 4 acceptor
1 4 anion
1 5 acceptor
1 6 cation
1 6 donor
1 8 cation
3 7 9 24 cation
5 1 7 9 17 24 rings
6 14 18 20 23 26 27 rings
6 30 32 33 34 35 36 rings
6 6 11 12 13 15 16 rings

> <PUBCHEM_HEAVY_ATOM_COUNT>
36

> <PUBCHEM_ATOM_DEF_STEREO_COUNT>
0

> <PUBCHEM_ATOM_UDEF_STEREO_COUNT>
1

> <PUBCHEM_BOND_DEF_STEREO_COUNT>
0

> <PUBCHEM_BOND_UDEF_STEREO_COUNT>
0

> <PUBCHEM_ISOTOPIC_ATOM_COUNT>
0

> <PUBCHEM_COMPONENT_COUNT>
1

> <PUBCHEM_CACTVS_TAUTO_COUNT>
4

> <PUBCHEM_CONFORMER_ID>
0001F5BB00000021

> <PUBCHEM_MMFF94_ENERGY>
102.4522

> <PUBCHEM_FEATURE_SELFOVERLAP>
60.98

> <PUBCHEM_SHAPE_FINGERPRINT>
10032420 55 17968087595153279056
11578080 2 16735498673980764405
12422481 6 18270415987317461337
13140716 1 18413108389518869752
13402501 40 18342454786473266452
13583140 156 18411984628711481839
14725015 67 18339353064192344544
14955137 171 18272658968956736531
15274700 259 17463111463515565421
19591789 44 18339641255996635577
20721686 56 18340198682922768592
20764821 26 18198602463555193068
23559900 14 18335136548790416321
3298306 158 18267293244987116164
392239 28 18335150794685299611
463206 1 18050289163848404352
469060 322 18264227858461568144
508706 21 18409722928828965141
56638632 33 17825660050083434498
5776283 40 18339372963461668164

> <PUBCHEM_SHAPE_MULTIPOLES>
686.61
12.05
5.18
1.63
5.47
1.54
-0.23
-3.3
1.83
-0.47
0.05
-0.09
-0.67
2.88

> <PUBCHEM_SHAPE_SELFOVERLAP>
1488.596

> <PUBCHEM_SHAPE_VOLUME>
377.3

> <PUBCHEM_COORDINATE_TYPE>
2
5
10

$$$$
