128473
  -OEChem-03292013323D

 62 63  0     1  0  0  0  0  0999 V2000
   -1.1879    3.1395   -0.7921 S   0  0  0  0  0  0  0  0  0  0  0  0
   -2.4124   -2.3052   -0.3764 O   0  0  0  0  0  0  0  0  0  0  0  0
   -1.9336   -0.5850   -3.2079 O   0  0  0  0  0  0  0  0  0  0  0  0
   -0.1458    0.5698   -2.3712 O   0  0  0  0  0  0  0  0  0  0  0  0
    3.5528   -3.6127   -0.1605 O   0  0  0  0  0  0  0  0  0  0  0  0
    1.3988   -1.0466    2.4621 O   0  0  0  0  0  0  0  0  0  0  0  0
    4.0646   -1.3188   -1.4962 O   0  0  0  0  0  0  0  0  0  0  0  0
    2.7361    2.0215    1.7847 O   0  0  0  0  0  0  0  0  0  0  0  0
   -3.2693   -0.1692   -0.8995 N   0  0  0  0  0  0  0  0  0  0  0  0
    1.8404    3.4228    0.1636 N   0  0  0  0  0  0  0  0  0  0  0  0
    4.0919   -0.1876    0.5294 N   0  0  0  0  0  0  0  0  0  0  0  0
   -4.1146    0.5084    0.1079 C   0  0  1  0  0  0  0  0  0  0  0  0
   -3.9802   -0.7866    0.9543 C   0  0  2  0  0  0  0  0  0  0  0  0
   -3.3716    1.8143    0.4109 C   0  0  0  0  0  0  0  0  0  0  0  0
   -3.0950   -1.3224   -0.1929 C   0  0  0  0  0  0  0  0  0  0  0  0
   -5.2327   -1.5900    1.2100 C   0  0  0  0  0  0  0  0  0  0  0  0
   -2.2691    0.6673   -1.3073 C   0  0  0  0  0  0  0  0  0  0  0  0
   -2.2777    1.8202   -0.6268 C   0  0  0  0  0  0  0  0  0  0  0  0
   -6.0386   -0.9886    2.3538 C   0  0  0  0  0  0  0  0  0  0  0  0
   -1.3191    0.2353   -2.3271 C   0  0  0  0  0  0  0  0  0  0  0  0
   -0.5123    3.1900    0.8957 C   0  0  0  0  0  0  0  0  0  0  0  0
    1.5470   -2.3342    0.3814 C   0  0  0  0  0  0  0  0  0  0  0  0
    0.7842    3.9847    0.9732 C   0  0  0  0  0  0  0  0  0  0  0  0
    3.1020   -2.4017    0.4408 C   0  0  2  0  0  0  0  0  0  0  0  0
    1.0151   -1.0653    1.0914 C   0  0  0  0  0  0  0  0  0  0  0  0
    0.9724   -3.5820    1.0940 C   0  0  0  0  0  0  0  0  0  0  0  0
    1.0475   -2.3632   -1.0768 C   0  0  0  0  0  0  0  0  0  0  0  0
    3.8084   -1.2649   -0.2947 C   0  0  0  0  0  0  0  0  0  0  0  0
    4.7339    1.0172    0.0568 C   0  0  0  0  0  0  0  0  0  0  0  0
    3.7291    2.0545   -0.4255 C   0  0  0  0  0  0  0  0  0  0  0  0
    2.7358    2.4785    0.6450 C   0  0  0  0  0  0  0  0  0  0  0  0
   -5.1230    0.6866   -0.2895 H   0  0  0  0  0  0  0  0  0  0  0  0
   -3.3869   -0.6504    1.8692 H   0  0  0  0  0  0  0  0  0  0  0  0
   -4.0374    2.6750    0.2871 H   0  0  0  0  0  0  0  0  0  0  0  0
   -2.9715    1.8115    1.4296 H   0  0  0  0  0  0  0  0  0  0  0  0
   -5.8574   -1.6485    0.3110 H   0  0  0  0  0  0  0  0  0  0  0  0
   -4.9648   -2.6186    1.4794 H   0  0  0  0  0  0  0  0  0  0  0  0
   -5.4491   -0.9598    3.2761 H   0  0  0  0  0  0  0  0  0  0  0  0
   -6.9380   -1.5833    2.5400 H   0  0  0  0  0  0  0  0  0  0  0  0
   -6.3463    0.0358    2.1203 H   0  0  0  0  0  0  0  0  0  0  0  0
   -0.3295    2.1654    1.2398 H   0  0  0  0  0  0  0  0  0  0  0  0
   -1.2569    3.6426    1.5587 H   0  0  0  0  0  0  0  0  0  0  0  0
    1.1229    4.0237    2.0148 H   0  0  0  0  0  0  0  0  0  0  0  0
    0.6305    5.0170    0.6396 H   0  0  0  0  0  0  0  0  0  0  0  0
   -1.3217   -0.8971   -3.9083 H   0  0  0  0  0  0  0  0  0  0  0  0
    3.4372   -2.4235    1.4850 H   0  0  0  0  0  0  0  0  0  0  0  0
   -0.0802   -1.0413    1.0552 H   0  0  0  0  0  0  0  0  0  0  0  0
    1.3740   -0.1537    0.6064 H   0  0  0  0  0  0  0  0  0  0  0  0
    1.3483   -3.6667    2.1196 H   0  0  0  0  0  0  0  0  0  0  0  0
    1.2365   -4.5060    0.5676 H   0  0  0  0  0  0  0  0  0  0  0  0
   -0.1216   -3.5370    1.1437 H   0  0  0  0  0  0  0  0  0  0  0  0
    1.3891   -1.4853   -1.6327 H   0  0  0  0  0  0  0  0  0  0  0  0
   -0.0436   -2.3728   -1.1226 H   0  0  0  0  0  0  0  0  0  0  0  0
    1.4024   -3.2531   -1.6080 H   0  0  0  0  0  0  0  0  0  0  0  0
    1.9127    3.7308   -0.8017 H   0  0  0  0  0  0  0  0  0  0  0  0
    3.8298   -0.2283    1.5100 H   0  0  0  0  0  0  0  0  0  0  0  0
    5.4243    0.7627   -0.7544 H   0  0  0  0  0  0  0  0  0  0  0  0
    5.3213    1.4130    0.8923 H   0  0  0  0  0  0  0  0  0  0  0  0
    3.1584    1.6545   -1.2728 H   0  0  0  0  0  0  0  0  0  0  0  0
    4.2644    2.9465   -0.7710 H   0  0  0  0  0  0  0  0  0  0  0  0
    4.5047   -3.6937    0.0218 H   0  0  0  0  0  0  0  0  0  0  0  0
    1.0387   -0.2295    2.8470 H   0  0  0  0  0  0  0  0  0  0  0  0
  1 18  1  0  0  0  0
  1 21  1  0  0  0  0
  2 15  2  0  0  0  0
  3 20  1  0  0  0  0
  3 45  1  0  0  0  0
  4 20  2  0  0  0  0
  5 24  1  0  0  0  0
  5 61  1  0  0  0  0
  6 25  1  0  0  0  0
  6 62  1  0  0  0  0
  7 28  2  0  0  0  0
  8 31  2  0  0  0  0
  9 12  1  0  0  0  0
  9 15  1  0  0  0  0
  9 17  1  0  0  0  0
 10 23  1  0  0  0  0
 10 31  1  0  0  0  0
 10 55  1  0  0  0  0
 11 28  1  0  0  0  0
 11 29  1  0  0  0  0
 11 56  1  0  0  0  0
 12 13  1  0  0  0  0
 12 14  1  0  0  0  0
 12 32  1  0  0  0  0
 13 15  1  0  0  0  0
 13 16  1  0  0  0  0
 13 33  1  0  0  0  0
 14 18  1  0  0  0  0
 14 34  1  0  0  0  0
 14 35  1  0  0  0  0
 16 19  1  0  0  0  0
 16 36  1  0  0  0  0
 16 37  1  0  0  0  0
 17 18  2  0  0  0  0
 17 20  1  0  0  0  0
 19 38  1  0  0  0  0
 19 39  1  0  0  0  0
 19 40  1  0  0  0  0
 21 23  1  0  0  0  0
 21 41  1  0  0  0  0
 21 42  1  0  0  0  0
 22 24  1  0  0  0  0
 22 25  1  0  0  0  0
 22 26  1  0  0  0  0
 22 27  1  0  0  0  0
 23 43  1  0  0  0  0
 23 44  1  0  0  0  0
 24 28  1  0  0  0  0
 24 46  1  0  0  0  0
 25 47  1  0  0  0  0
 25 48  1  0  0  0  0
 26 49  1  0  0  0  0
 26 50  1  0  0  0  0
 26 51  1  0  0  0  0
 27 52  1  0  0  0  0
 27 53  1  0  0  0  0
 27 54  1  0  0  0  0
 29 30  1  0  0  0  0
 29 57  1  0  0  0  0
 29 58  1  0  0  0  0
 30 31  1  0  0  0  0
 30 59  1  0  0  0  0
 30 60  1  0  0  0  0
M  END
> <PUBCHEM_COMPOUND_CID>
128473

> <PUBCHEM_CONFORMER_RMSD>
1.4

> <PUBCHEM_CONFORMER_DIVERSEORDER>
1
70
66
76
150
88
167
141
11
83
168
127
67
129
102
143
99
128
165
172
115
122
138
158
177
24
126
134
6
89
131
174
124
169
110
26
148
29
25
125
68
166
14
101
108
145
146
28
130
90
81
2
5
98
51
155
75
57
71
21
59
73
156
4
44
49
153
139
31
78
116
144
132
58
120
39
105
9
162
178
30
41
37
92
133
149
85
114
103
52
109
61
151
87
137
107
33
60
15
142
38
161
20
27
63
84
72
106
62
118
13
123
91
45
22
36
104
79
96
112
136
19
180
48
43
121
40
159
119
179
173
160
175
18
34
80
163
12
86
32
111
65
35
100
3
154
46
157
23
93
170
17
97
82
10
50
113
117
94
55
135
176
54
47
147
77
69
56
8
16
171
95
7
152
74
64
164
53
140
42

> <PUBCHEM_MMFF94_PARTIAL_CHARGES>
31
1 -0.33
10 -0.73
11 -0.73
12 0.22
13 0.05
14 0.14
15 0.58
17 0.12
18 -0.04
2 -0.57
20 0.71
21 0.23
23 0.3
24 0.34
25 0.28
28 0.57
29 0.3
3 -0.65
30 0.06
31 0.57
4 -0.57
45 0.5
5 -0.68
55 0.37
56 0.37
6 -0.68
61 0.4
62 0.4
7 -0.57
8 -0.57
9 -0.39

> <PUBCHEM_EFFECTIVE_ROTOR_COUNT>
14.4

> <PUBCHEM_PHARMACOPHORE_FEATURES>
15
1 10 donor
1 11 donor
1 19 hydrophobe
1 2 acceptor
1 3 acceptor
1 4 acceptor
1 5 acceptor
1 5 donor
1 6 acceptor
1 6 donor
1 7 acceptor
1 8 acceptor
3 22 26 27 hydrophobe
3 3 4 20 anion
7 9 12 13 14 15 17 18 rings

> <PUBCHEM_HEAVY_ATOM_COUNT>
31

> <PUBCHEM_ATOM_DEF_STEREO_COUNT>
3

> <PUBCHEM_ATOM_UDEF_STEREO_COUNT>
0

> <PUBCHEM_BOND_DEF_STEREO_COUNT>
0

> <PUBCHEM_BOND_UDEF_STEREO_COUNT>
0

> <PUBCHEM_ISOTOPIC_ATOM_COUNT>
0

> <PUBCHEM_COMPONENT_COUNT>
1

> <PUBCHEM_CACTVS_TAUTO_COUNT>
4

> <PUBCHEM_CONFORMER_ID>
0001F5D900000001

> <PUBCHEM_MMFF94_ENERGY>
74.4945

> <PUBCHEM_FEATURE_SELFOVERLAP>
76.187

> <PUBCHEM_SHAPE_FINGERPRINT>
11578080 2 17604415307252630589
12128747 34 18261667083412768397
12156800 1 16959882969228094300
12539773 59 17488742418870348485
13122387 1 17117190699331201252
13402501 40 18262238940473844112
13583140 156 18411975880195390205
14114211 80 17834137585740175716
14279260 333 18340774720491374118
15403338 16 18338513015760092741
15721738 202 17605300486736835493
17909252 39 18198632042994973306
19930381 70 18338793545421835904
20764821 26 18049716623069408972
21315759 227 18115578258567962376
35225 105 17326045655836019508
3737641 26 18412833468989137968
392239 28 18337674216936522299
42626532 9 17834121840185042634
469060 322 15942282724306711588
6287921 2 18335140950556647991
86090 222 17823424970989026259

> <PUBCHEM_SHAPE_MULTIPOLES>
585.79
9.83
4.88
2.1
4.8
1.48
0.84
-3.54
-3.44
-3.45
-1.32
1.38
-0.23
1.4

> <PUBCHEM_SHAPE_SELFOVERLAP>
1185.845

> <PUBCHEM_SHAPE_VOLUME>
345.5

> <PUBCHEM_COORDINATE_TYPE>
2
5
10

$$$$
