128471
  -OEChem-03292013323D

 29 28  0     1  0  0  0  0  0999 V2000
   -5.5411   -0.6453   -0.7757 Cl  0  0  0  0  0  0  0  0  0  0  0  0
    1.2626   -2.2557    1.6073 O   0  0  0  0  0  0  0  0  0  0  0  0
   -0.7719   -0.8852   -1.4598 O   0  0  0  0  0  0  0  0  0  0  0  0
    2.1918    1.9310   -1.1792 O   0  0  0  0  0  0  0  0  0  0  0  0
   -2.6117    2.0373    1.5812 O   0  0  0  0  0  0  0  0  0  0  0  0
    0.5291    0.0032    0.2151 N   0  0  0  0  0  0  0  0  0  0  0  0
   -1.7599    0.5821    0.0376 N   0  0  0  0  0  0  0  0  0  0  0  0
    2.3282   -3.0245   -0.2767 N   0  0  0  0  0  0  0  0  0  0  0  0
    4.1652    2.1844   -0.0287 N   0  0  0  0  0  0  0  0  0  0  0  0
   -1.5808    1.4491    1.2375 N   0  0  0  0  0  0  0  0  0  0  0  0
    1.7314   -0.6833   -0.1837 C   0  0  1  0  0  0  0  0  0  0  0  0
    2.9882    0.0974    0.2012 C   0  0  0  0  0  0  0  0  0  0  0  0
    1.7216   -2.0491    0.4864 C   0  0  0  0  0  0  0  0  0  0  0  0
   -0.6759   -0.1501   -0.4716 C   0  0  0  0  0  0  0  0  0  0  0  0
   -3.0782    0.5147   -0.5802 C   0  0  0  0  0  0  0  0  0  0  0  0
    3.0433    1.4833   -0.4169 C   0  0  0  0  0  0  0  0  0  0  0  0
   -3.9419   -0.5893    0.0062 C   0  0  0  0  0  0  0  0  0  0  0  0
    1.7051   -0.8158   -1.2726 H   0  0  0  0  0  0  0  0  0  0  0  0
    3.8832   -0.4540   -0.1124 H   0  0  0  0  0  0  0  0  0  0  0  0
    3.0439    0.2112    1.2918 H   0  0  0  0  0  0  0  0  0  0  0  0
    0.5586    0.5278    1.0822 H   0  0  0  0  0  0  0  0  0  0  0  0
   -3.5735    1.4904   -0.5125 H   0  0  0  0  0  0  0  0  0  0  0  0
   -2.9382    0.3234   -1.6518 H   0  0  0  0  0  0  0  0  0  0  0  0
   -4.1040   -0.4370    1.0778 H   0  0  0  0  0  0  0  0  0  0  0  0
   -3.4727   -1.5692   -0.1262 H   0  0  0  0  0  0  0  0  0  0  0  0
    2.7229   -2.8343   -1.1923 H   0  0  0  0  0  0  0  0  0  0  0  0
    2.4011   -3.9787    0.0604 H   0  0  0  0  0  0  0  0  0  0  0  0
    4.8583    1.7938    0.6015 H   0  0  0  0  0  0  0  0  0  0  0  0
    4.3346    3.1262   -0.3660 H   0  0  0  0  0  0  0  0  0  0  0  0
  1 17  1  0  0  0  0
  2 13  2  0  0  0  0
  3 14  2  0  0  0  0
  4 16  2  0  0  0  0
  5 10  2  0  0  0  0
  6 11  1  0  0  0  0
  6 14  1  0  0  0  0
  6 21  1  0  0  0  0
  7 10  1  0  0  0  0
  7 14  1  0  0  0  0
  7 15  1  0  0  0  0
  8 13  1  0  0  0  0
  8 26  1  0  0  0  0
  8 27  1  0  0  0  0
  9 16  1  0  0  0  0
  9 28  1  0  0  0  0
  9 29  1  0  0  0  0
 11 12  1  0  0  0  0
 11 13  1  0  0  0  0
 11 18  1  0  0  0  0
 12 16  1  0  0  0  0
 12 19  1  0  0  0  0
 12 20  1  0  0  0  0
 15 17  1  0  0  0  0
 15 22  1  0  0  0  0
 15 23  1  0  0  0  0
 17 24  1  0  0  0  0
 17 25  1  0  0  0  0
M  END
> <PUBCHEM_COMPOUND_CID>
128471

> <PUBCHEM_CONFORMER_RMSD>
0.8

> <PUBCHEM_CONFORMER_DIVERSEORDER>
1
171
324
91
330
149
261
348
257
104
68
320
356
239
238
360
341
207
290
370
369
236
271
144
150
154
131
232
96
212
276
316
368
130
156
192
26
331
187
378
273
89
115
8
414
172
345
44
137
15
332
73
231
39
105
354
389
16
323
338
160
305
116
167
23
295
262
229
106
293
402
165
202
52
336
191
223
251
158
254
397
289
227
291
182
20
278
260
415
140
303
310
21
409
19
67
217
107
318
142
216
322
411
269
86
353
190
365
100
361
177
215
196
335
97
74
384
112
287
114
181
151
366
174
79
185
53
275
396
226
168
63
347
264
110
42
342
394
357
395
28
333
230
245
71
267
283
314
294
391
309
253
6
103
38
162
127
92
180
146
249
120
258
179
344
128
321
374
197
218
241
358
193
25
412
201
398
362
381
401
350
372
319
247
243
81
308
388
77
183
280
69
27
274
296
176
143
95
329
43
385
206
246
403
65
220
250
277
233
351
80
416
45
339
54
175
186
60
240
204
70
383
298
300
62
266
136
48
392
405
408
265
343
122
352
90
155
376
325
312
178
32
382
126
213
99
288
14
393
263
301
147
205
132
46
9
123
83
284
102
355
270
359
255
17
198
404
406
340
334
299
153
111
327
125
188
133
50
163
109
157
242
371
317
328
124
57
349
373
139
164
286
101
307
166
386
228
36
410
234
30
268
208
134
7
84
235
64
66
367
399
173
407
189
24
75
346
285
387
282
72
138
121
237
252
40
3
337
364
141
390
135
78
37
221
211
304
98
11
315
311
22
159
313
256
5
377
145
129
152
214
380
88
279
306
33
184
400
194
76
35
272
244
56
4
200
248
34
219
225
170
47
363
210
118
195
61
82
51
108
375
55
93
222
302
10
169
413
209
49
199
161
94
297
13
259
326
224
113
292
85
117
203
18
41
87
119
148
2
59
281
31
58
12
29
379

> <PUBCHEM_MMFF94_PARTIAL_CHARGES>
22
1 -0.29
10 -0.02
11 0.36
12 0.06
13 0.57
14 0.69
15 0.3
16 0.57
17 0.29
2 -0.57
21 0.37
26 0.37
27 0.37
28 0.37
29 0.37
3 -0.57
4 -0.57
5 -0.16
6 -0.73
7 -0.18
8 -0.8
9 -0.8

> <PUBCHEM_EFFECTIVE_ROTOR_COUNT>
9

> <PUBCHEM_PHARMACOPHORE_FEATURES>
6
1 2 acceptor
1 3 acceptor
1 4 acceptor
1 6 donor
1 8 donor
1 9 donor

> <PUBCHEM_HEAVY_ATOM_COUNT>
17

> <PUBCHEM_ATOM_DEF_STEREO_COUNT>
1

> <PUBCHEM_ATOM_UDEF_STEREO_COUNT>
0

> <PUBCHEM_BOND_DEF_STEREO_COUNT>
0

> <PUBCHEM_BOND_UDEF_STEREO_COUNT>
0

> <PUBCHEM_ISOTOPIC_ATOM_COUNT>
0

> <PUBCHEM_COMPONENT_COUNT>
1

> <PUBCHEM_CACTVS_TAUTO_COUNT>
8

> <PUBCHEM_CONFORMER_ID>
0001F5D700000001

> <PUBCHEM_MMFF94_ENERGY>
33.0847

> <PUBCHEM_FEATURE_SELFOVERLAP>
30.448

> <PUBCHEM_SHAPE_FINGERPRINT>
10090160 65 18261947565671239087
12403259 327 15141231204498504708
12932764 1 17825398388022890495
13009979 54 17629484090481982338
13583140 156 17681856015899791049
14787075 74 18122627420887305371
15342168 16 17824263928373315444
15375358 24 17095520721291481003
19422 9 18200032833123819587
20559304 39 18130779027980290914
20645477 70 18335132069123644127
21524375 3 18337111276010625564
2255824 54 18336551491189982842
23419403 2 13987987418282689578
23559900 14 18266731394761496287
23598291 2 18196098737327085032
312423 11 18200883868119324895
33824 294 18114176449645734323
4175511 71 17763195635190004482
4340502 62 18113616828772008971
474 4 18261958552160970748
58051976 378 18260263088071968567
603831 33 18273208716576302917
7364860 26 18410854326726560598
7615 1 18198906916142674433
81539 233 18259982708137773846

> <PUBCHEM_SHAPE_MULTIPOLES>
303.34
8.35
2.61
1.18
8.61
0.93
0.26
-1.52
-1.43
-2.89
0.52
0.39
-0.14
-1.3

> <PUBCHEM_SHAPE_SELFOVERLAP>
578.735

> <PUBCHEM_SHAPE_VOLUME>
185.1

> <PUBCHEM_COORDINATE_TYPE>
2
5
10

$$$$
