128433
  -OEChem-03292013323D

 40 41  0     1  0  0  0  0  0999 V2000
   -3.5537   -0.5878   -0.0408 O   0  0  0  0  0  0  0  0  0  0  0  0
   -0.3451    2.3813   -0.0279 O   0  0  0  0  0  0  0  0  0  0  0  0
    2.1067    1.0928    0.0876 O   0  0  0  0  0  0  0  0  0  0  0  0
    2.2295   -1.6538    0.1768 O   0  0  0  0  0  0  0  0  0  0  0  0
   -3.2456    1.4914    1.0485 O   0  0  0  0  0  0  0  0  0  0  0  0
   -3.0290   -2.8332    0.0503 O   0  0  0  0  0  0  0  0  0  0  0  0
   -0.1051   -3.2029    0.1530 N   0  0  0  0  0  0  0  0  0  0  0  0
   -1.4336    0.2612    0.0120 C   0  0  0  0  0  0  0  0  0  0  0  0
   -1.3592   -1.1164    0.0529 C   0  0  0  0  0  0  0  0  0  0  0  0
   -2.8511    0.6827   -0.0483 C   0  0  1  0  0  0  0  0  0  0  0  0
   -0.2801    1.0251    0.0204 C   0  0  0  0  0  0  0  0  0  0  0  0
   -0.1577   -1.7985    0.1095 C   0  0  0  0  0  0  0  0  0  0  0  0
    0.9515    0.3655    0.0774 C   0  0  0  0  0  0  0  0  0  0  0  0
    1.0119   -1.0378    0.1222 C   0  0  0  0  0  0  0  0  0  0  0  0
   -2.7067   -1.6622    0.0245 C   0  0  0  0  0  0  0  0  0  0  0  0
   -0.3383    2.9886   -1.3202 C   0  0  0  0  0  0  0  0  0  0  0  0
    2.6159    1.4772    1.3619 C   0  0  0  0  0  0  0  0  0  0  0  0
    2.8424   -1.9820   -1.0667 C   0  0  0  0  0  0  0  0  0  0  0  0
   -0.4314    4.4911   -1.1594 C   0  0  0  0  0  0  0  0  0  0  0  0
    3.8987    2.2566    1.1655 C   0  0  0  0  0  0  0  0  0  0  0  0
    4.1798   -2.6387   -0.7991 C   0  0  0  0  0  0  0  0  0  0  0  0
   -3.0899    1.1938   -0.9859 H   0  0  0  0  0  0  0  0  0  0  0  0
   -0.9573   -3.7469    0.1460 H   0  0  0  0  0  0  0  0  0  0  0  0
    0.7884   -3.6727    0.2118 H   0  0  0  0  0  0  0  0  0  0  0  0
    0.5884    2.7298   -1.8452 H   0  0  0  0  0  0  0  0  0  0  0  0
   -1.1893    2.6261   -1.9075 H   0  0  0  0  0  0  0  0  0  0  0  0
   -2.5844    1.4112    1.7563 H   0  0  0  0  0  0  0  0  0  0  0  0
    1.8809    2.1013    1.8830 H   0  0  0  0  0  0  0  0  0  0  0  0
    2.8148    0.5861    1.9683 H   0  0  0  0  0  0  0  0  0  0  0  0
    2.2012   -2.6676   -1.6322 H   0  0  0  0  0  0  0  0  0  0  0  0
    2.9920   -1.0723   -1.6595 H   0  0  0  0  0  0  0  0  0  0  0  0
   -0.4271    4.9897   -2.1327 H   0  0  0  0  0  0  0  0  0  0  0  0
   -1.3474    4.7650   -0.6256 H   0  0  0  0  0  0  0  0  0  0  0  0
    0.4080    4.8675   -0.5654 H   0  0  0  0  0  0  0  0  0  0  0  0
    4.6407    1.6496    0.6362 H   0  0  0  0  0  0  0  0  0  0  0  0
    3.7190    3.1459    0.5524 H   0  0  0  0  0  0  0  0  0  0  0  0
    4.3179    2.5686    2.1261 H   0  0  0  0  0  0  0  0  0  0  0  0
    4.6801   -2.9030   -1.7350 H   0  0  0  0  0  0  0  0  0  0  0  0
    4.8304   -1.9686   -0.2274 H   0  0  0  0  0  0  0  0  0  0  0  0
    4.0505   -3.5454   -0.1990 H   0  0  0  0  0  0  0  0  0  0  0  0
  1 10  1  0  0  0  0
  1 15  1  0  0  0  0
  2 11  1  0  0  0  0
  2 16  1  0  0  0  0
  3 13  1  0  0  0  0
  3 17  1  0  0  0  0
  4 14  1  0  0  0  0
  4 18  1  0  0  0  0
  5 10  1  0  0  0  0
  5 27  1  0  0  0  0
  6 15  2  0  0  0  0
  7 12  1  0  0  0  0
  7 23  1  0  0  0  0
  7 24  1  0  0  0  0
  8  9  2  0  0  0  0
  8 10  1  0  0  0  0
  8 11  1  0  0  0  0
  9 12  1  0  0  0  0
  9 15  1  0  0  0  0
 10 22  1  0  0  0  0
 11 13  2  0  0  0  0
 12 14  2  0  0  0  0
 13 14  1  0  0  0  0
 16 19  1  0  0  0  0
 16 25  1  0  0  0  0
 16 26  1  0  0  0  0
 17 20  1  0  0  0  0
 17 28  1  0  0  0  0
 17 29  1  0  0  0  0
 18 21  1  0  0  0  0
 18 30  1  0  0  0  0
 18 31  1  0  0  0  0
 19 32  1  0  0  0  0
 19 33  1  0  0  0  0
 19 34  1  0  0  0  0
 20 35  1  0  0  0  0
 20 36  1  0  0  0  0
 20 37  1  0  0  0  0
 21 38  1  0  0  0  0
 21 39  1  0  0  0  0
 21 40  1  0  0  0  0
M  END
> <PUBCHEM_COMPOUND_CID>
128433

> <PUBCHEM_CONFORMER_RMSD>
0.8

> <PUBCHEM_CONFORMER_DIVERSEORDER>
1
12
10
8
5
11
4
3
9
2
7
6

> <PUBCHEM_MMFF94_PARTIAL_CHARGES>
21
1 -0.43
10 0.7
11 0.08
12 0.1
13 0.08
14 0.08
15 0.63
16 0.28
17 0.28
18 0.28
2 -0.36
23 0.4
24 0.4
27 0.4
3 -0.36
4 -0.36
5 -0.68
6 -0.57
7 -0.9
8 -0.14
9 0.09

> <PUBCHEM_EFFECTIVE_ROTOR_COUNT>
6.4

> <PUBCHEM_PHARMACOPHORE_FEATURES>
10
1 2 acceptor
1 3 acceptor
1 4 acceptor
1 5 acceptor
1 5 donor
1 6 acceptor
1 7 cation
1 7 donor
5 1 8 9 10 15 rings
6 8 9 11 12 13 14 rings

> <PUBCHEM_HEAVY_ATOM_COUNT>
21

> <PUBCHEM_ATOM_DEF_STEREO_COUNT>
0

> <PUBCHEM_ATOM_UDEF_STEREO_COUNT>
1

> <PUBCHEM_BOND_DEF_STEREO_COUNT>
0

> <PUBCHEM_BOND_UDEF_STEREO_COUNT>
0

> <PUBCHEM_ISOTOPIC_ATOM_COUNT>
0

> <PUBCHEM_COMPONENT_COUNT>
1

> <PUBCHEM_CACTVS_TAUTO_COUNT>
3

> <PUBCHEM_CONFORMER_ID>
0001F5B100000001

> <PUBCHEM_MMFF94_ENERGY>
78.8236

> <PUBCHEM_FEATURE_SELFOVERLAP>
50.847

> <PUBCHEM_SHAPE_FINGERPRINT>
10967382 1 18338516442948802731
1100329 8 17913500034169176512
11578080 2 17242989316974521622
11680986 33 18339646740981381795
12403259 226 18340486660517304326
12553582 1 18192711150792802171
13140716 1 18410575054799119155
14178342 30 18339644550574369897
14790565 3 17907880408886439824
14955137 171 17972909073884862776
15536298 74 18272370888441851738
16945 1 18121209888168726723
17804303 29 18269281161909765206
19591789 44 17906743496355649050
20691752 17 18259705583778317634
20739085 24 18265923335355999995
22182313 1 18336539495309135671
2334 1 18410292553319891131
23366157 5 18334295379598131290
23419403 2 17558523852293367794
23559900 14 18199189486959050982
2748010 2 18410009948772036895
350125 39 18050294665142769752
394222 165 16888909532669029793
5255222 1 18122063091906269833
59554788 170 18337959965221167125
59554788 191 17544740687685705198
7364860 26 18202282520109065762
81228 2 18187646856001470289
84936 31 16988840575684382894
90316 7 17971723757632556080

> <PUBCHEM_SHAPE_MULTIPOLES>
391.97
5.79
4.75
1.05
2.53
2.95
-0.04
-2.22
0.56
0.48
-1.4
0.59
0.74
1.76

> <PUBCHEM_SHAPE_SELFOVERLAP>
826.085

> <PUBCHEM_SHAPE_VOLUME>
223.8

> <PUBCHEM_COORDINATE_TYPE>
2
5
10

$$$$
