128421
  -OEChem-03292013323D

 42 43  0     1  0  0  0  0  0999 V2000
   -1.4814    2.9927    0.3322 Cl  0  0  0  0  0  0  0  0  0  0  0  0
    1.0918   -1.5757    0.5882 O   0  0  0  0  0  0  0  0  0  0  0  0
    4.5696    0.4227   -0.2793 O   0  0  0  0  0  0  0  0  0  0  0  0
   -0.0542    0.4197    0.9451 O   0  0  0  0  0  0  0  0  0  0  0  0
    4.2952   -2.3459   -1.0312 O   0  0  0  0  0  0  0  0  0  0  0  0
    0.6970   -4.2683    0.2307 O   0  0  0  0  0  0  0  0  0  0  0  0
    3.5870    2.9888    0.8844 O   0  0  0  0  0  0  0  0  0  0  0  0
   -5.8986   -1.3634   -0.4694 O   0  5  0  0  0  0  0  0  0  0  0  0
   -6.1010    0.8085   -0.7164 O   0  0  0  0  0  0  0  0  0  0  0  0
    2.0253    1.8591   -0.4204 N   0  0  0  0  0  0  0  0  0  0  0  0
   -5.4152   -0.2059   -0.4422 N   0  3  0  0  0  0  0  0  0  0  0  0
    2.2067    0.5412    0.1523 C   0  0  2  0  0  0  0  0  0  0  0  0
    3.3229   -0.2063   -0.5834 C   0  0  2  0  0  0  0  0  0  0  0  0
    3.3928   -1.6741   -0.1563 C   0  0  1  0  0  0  0  0  0  0  0  0
    2.0066   -2.3210   -0.2173 C   0  0  1  0  0  0  0  0  0  0  0  0
    0.8925   -0.2462    0.1105 C   0  0  1  0  0  0  0  0  0  0  0  0
    2.0128   -3.7513    0.3124 C   0  0  0  0  0  0  0  0  0  0  0  0
    2.7354    2.9693   -0.0004 C   0  0  0  0  0  0  0  0  0  0  0  0
   -1.3721    0.2887    0.6020 C   0  0  0  0  0  0  0  0  0  0  0  0
    2.3708    4.2049   -0.7790 C   0  0  0  0  0  0  0  0  0  0  0  0
   -2.1489    1.4024    0.2941 C   0  0  0  0  0  0  0  0  0  0  0  0
   -1.9271   -0.9880    0.5658 C   0  0  0  0  0  0  0  0  0  0  0  0
   -3.4901    1.2385   -0.0524 C   0  0  0  0  0  0  0  0  0  0  0  0
   -3.2683   -1.1519    0.2194 C   0  0  0  0  0  0  0  0  0  0  0  0
   -4.0497   -0.0386   -0.0897 C   0  0  0  0  0  0  0  0  0  0  0  0
    2.5030    0.6826    1.2008 H   0  0  0  0  0  0  0  0  0  0  0  0
    3.1918   -0.1347   -1.6702 H   0  0  0  0  0  0  0  0  0  0  0  0
    3.8039   -1.7348    0.8595 H   0  0  0  0  0  0  0  0  0  0  0  0
    1.6298   -2.3430   -1.2490 H   0  0  0  0  0  0  0  0  0  0  0  0
    0.5146   -0.2852   -0.9223 H   0  0  0  0  0  0  0  0  0  0  0  0
    2.3246   -3.7905    1.3614 H   0  0  0  0  0  0  0  0  0  0  0  0
    2.6678   -4.4003   -0.2750 H   0  0  0  0  0  0  0  0  0  0  0  0
    1.3924    1.9499   -1.2102 H   0  0  0  0  0  0  0  0  0  0  0  0
    4.7098    0.3676    0.6813 H   0  0  0  0  0  0  0  0  0  0  0  0
    4.4834   -3.2197   -0.6497 H   0  0  0  0  0  0  0  0  0  0  0  0
    0.1263   -3.7059    0.7813 H   0  0  0  0  0  0  0  0  0  0  0  0
    2.6126    5.0927   -0.1879 H   0  0  0  0  0  0  0  0  0  0  0  0
    2.9411    4.2237   -1.7115 H   0  0  0  0  0  0  0  0  0  0  0  0
    1.3017    4.2235   -1.0080 H   0  0  0  0  0  0  0  0  0  0  0  0
   -1.3503   -1.8689    0.8249 H   0  0  0  0  0  0  0  0  0  0  0  0
   -4.0823    2.1196   -0.2901 H   0  0  0  0  0  0  0  0  0  0  0  0
   -3.6720   -2.1611    0.2060 H   0  0  0  0  0  0  0  0  0  0  0  0
  1 21  1  0  0  0  0
  2 15  1  0  0  0  0
  2 16  1  0  0  0  0
  3 13  1  0  0  0  0
  3 34  1  0  0  0  0
  4 16  1  0  0  0  0
  4 19  1  0  0  0  0
  5 14  1  0  0  0  0
  5 35  1  0  0  0  0
  6 17  1  0  0  0  0
  6 36  1  0  0  0  0
  7 18  2  0  0  0  0
  8 11  1  0  0  0  0
  9 11  2  0  0  0  0
 10 12  1  0  0  0  0
 10 18  1  0  0  0  0
 10 33  1  0  0  0  0
 11 25  1  0  0  0  0
 12 13  1  0  0  0  0
 12 16  1  0  0  0  0
 12 26  1  0  0  0  0
 13 14  1  0  0  0  0
 13 27  1  0  0  0  0
 14 15  1  0  0  0  0
 14 28  1  0  0  0  0
 15 17  1  0  0  0  0
 15 29  1  0  0  0  0
 16 30  1  0  0  0  0
 17 31  1  0  0  0  0
 17 32  1  0  0  0  0
 18 20  1  0  0  0  0
 19 21  2  0  0  0  0
 19 22  1  0  0  0  0
 20 37  1  0  0  0  0
 20 38  1  0  0  0  0
 20 39  1  0  0  0  0
 21 23  1  0  0  0  0
 22 24  2  0  0  0  0
 22 40  1  0  0  0  0
 23 25  2  0  0  0  0
 23 41  1  0  0  0  0
 24 25  1  0  0  0  0
 24 42  1  0  0  0  0
M  CHG  2   8  -1  11   1
M  END
> <PUBCHEM_COMPOUND_CID>
128421

> <PUBCHEM_CONFORMER_RMSD>
0.8

> <PUBCHEM_CONFORMER_DIVERSEORDER>
1
113
119
108
80
101
123
67
61
15
124
105
75
79
110
11
46
120
24
62
89
27
34
47
129
121
41
77
76
6
19
126
10
59
98
53
86
64
58
32
7
92
115
114
56
28
74
94
43
97
49
20
29
90
104
72
51
23
87
70
112
54
65
66
18
73
45
55
111
21
78
107
117
68
4
37
100
26
9
48
102
122
95
2
38
81
109
96
83
8
35
16
103
17
13
118
30
69
106
40
127
71
88
42
39
44
93
25
52
99
57
5
125
116
50
36
12
85
3
84
63
82
128
33
31
14
22
60
91

> <PUBCHEM_MMFF94_PARTIAL_CHARGES>
32
1 -0.18
10 -0.73
11 0.91
12 0.3
13 0.28
14 0.28
15 0.28
16 0.56
17 0.28
18 0.57
19 0.08
2 -0.56
20 0.06
21 0.18
22 -0.15
23 -0.15
24 -0.15
25 0.13
3 -0.68
33 0.37
34 0.4
35 0.4
36 0.4
4 -0.36
40 0.15
41 0.15
42 0.15
5 -0.68
6 -0.68
7 -0.57
8 -0.52
9 -0.52

> <PUBCHEM_EFFECTIVE_ROTOR_COUNT>
7.2

> <PUBCHEM_PHARMACOPHORE_FEATURES>
15
1 10 donor
1 2 acceptor
1 3 acceptor
1 3 donor
1 4 acceptor
1 5 acceptor
1 5 donor
1 6 acceptor
1 6 donor
1 7 acceptor
1 8 acceptor
1 8 anion
1 9 acceptor
6 19 21 22 23 24 25 rings
6 2 12 13 14 15 16 rings

> <PUBCHEM_HEAVY_ATOM_COUNT>
25

> <PUBCHEM_ATOM_DEF_STEREO_COUNT>
5

> <PUBCHEM_ATOM_UDEF_STEREO_COUNT>
0

> <PUBCHEM_BOND_DEF_STEREO_COUNT>
0

> <PUBCHEM_BOND_UDEF_STEREO_COUNT>
0

> <PUBCHEM_ISOTOPIC_ATOM_COUNT>
0

> <PUBCHEM_COMPONENT_COUNT>
1

> <PUBCHEM_CACTVS_TAUTO_COUNT>
2

> <PUBCHEM_CONFORMER_ID>
0001F5A500000001

> <PUBCHEM_MMFF94_ENERGY>
72.938

> <PUBCHEM_FEATURE_SELFOVERLAP>
76.267

> <PUBCHEM_SHAPE_FINGERPRINT>
10090160 65 18338788043748181605
10366900 7 18187377479889265914
10693767 8 18129951070614889670
11370993 70 18337670944208002234
12553582 1 18049735018271971666
12730499 353 18335427897754262619
12788726 201 17274833437210016065
1361 2 18265611168590646437
138480 1 18337955584681501232
16728300 4 17390189730567319698
17492 89 18268148643944031871
18681886 176 18412539891047983322
19930381 70 18409729569128070241
20642791 105 17619342547783901512
20645477 70 18408601487314264961
221490 88 18337684082476375354
22149856 69 18266193889017133747
22393880 68 18196940967888112542
2255824 54 18410859858559905298
23522609 53 17772775947166905289
23559900 14 18410006633130968689
23598288 3 17559956511591922185
238 59 18337122240798472970
239999 70 18273217495173354254
2871803 45 18411421665688392703
3004659 81 18335416834029167107
3060560 45 18409732863605350246
312423 11 18059586771374415785
474 4 18336828718301600064
495365 180 18339355374504980632
58051976 378 18413110571493734938
59755656 215 18410858806509514028
6327066 14 17831016093731039748
6443956 14 18336834095911696260
67856867 119 18411128173434989881
7364860 26 18411982459889777104
9709674 26 18409454674072951195
9981440 41 18120371209783557304

> <PUBCHEM_SHAPE_MULTIPOLES>
459.44
10.28
4.81
0.81
13.14
0.37
0
-0.72
2.75
-5.84
0.09
-0.11
0.11
0.12

> <PUBCHEM_SHAPE_SELFOVERLAP>
952.47

> <PUBCHEM_SHAPE_VOLUME>
261.6

> <PUBCHEM_COORDINATE_TYPE>
2
5
10

$$$$
