128448
  -OEChem-03292013323D

 43 48  0     1  0  0  0  0  0999 V2000
    3.4587    2.2606    1.3823 O   0  0  0  0  0  0  0  0  0  0  0  0
    4.0514    3.3091   -1.0988 O   0  0  0  0  0  0  0  0  0  0  0  0
    1.5181    0.2858    0.1929 O   0  0  0  0  0  0  0  0  0  0  0  0
    3.1176   -3.4373   -0.0260 O   0  0  0  0  0  0  0  0  0  0  0  0
   -0.5287    1.7884    0.2274 O   0  0  0  0  0  0  0  0  0  0  0  0
   -3.8194   -2.3941   -0.2205 O   0  0  0  0  0  0  0  0  0  0  0  0
   -2.4919    3.4310    0.2749 O   0  0  0  0  0  0  0  0  0  0  0  0
    3.7161    1.3136    0.3548 C   0  0  1  0  0  0  0  0  0  0  0  0
    4.0608    1.8791   -0.9944 C   0  0  1  0  0  0  0  0  0  0  0  0
    4.5939    1.4027    1.5558 C   0  0  0  0  0  0  0  0  0  0  0  0
    3.0932    2.5960   -1.8916 C   0  0  0  0  0  0  0  0  0  0  0  0
    2.8936    0.0856    0.2317 C   0  0  0  0  0  0  0  0  0  0  0  0
    3.4508   -1.1345    0.1613 C   0  0  0  0  0  0  0  0  0  0  0  0
    0.6667   -0.7862    0.0779 C   0  0  0  0  0  0  0  0  0  0  0  0
    1.1506   -2.0945   -0.0024 C   0  0  0  0  0  0  0  0  0  0  0  0
    2.6014   -2.3300    0.0368 C   0  0  0  0  0  0  0  0  0  0  0  0
   -0.7218   -0.5503    0.0411 C   0  0  0  0  0  0  0  0  0  0  0  0
    0.2746   -3.1737   -0.1191 C   0  0  0  0  0  0  0  0  0  0  0  0
   -1.5978   -1.6375   -0.0763 C   0  0  0  0  0  0  0  0  0  0  0  0
   -1.0983   -2.9442   -0.1558 C   0  0  0  0  0  0  0  0  0  0  0  0
   -1.2794    0.8264    0.1243 C   0  0  0  0  0  0  0  0  0  0  0  0
   -3.0615   -1.4369   -0.1186 C   0  0  0  0  0  0  0  0  0  0  0  0
   -2.7433    1.0221    0.0813 C   0  0  0  0  0  0  0  0  0  0  0  0
   -3.6029   -0.0690   -0.0358 C   0  0  0  0  0  0  0  0  0  0  0  0
    0.7188   -4.5984   -0.2095 C   0  0  0  0  0  0  0  0  0  0  0  0
   -3.2714    2.3176    0.1594 C   0  0  0  0  0  0  0  0  0  0  0  0
   -4.9885    0.1313   -0.0752 C   0  0  0  0  0  0  0  0  0  0  0  0
   -4.6522    2.5143    0.1196 C   0  0  0  0  0  0  0  0  0  0  0  0
   -5.5094    1.4229    0.0025 C   0  0  0  0  0  0  0  0  0  0  0  0
    4.8781    1.3727   -1.5035 H   0  0  0  0  0  0  0  0  0  0  0  0
    4.5292    0.6591    2.3402 H   0  0  0  0  0  0  0  0  0  0  0  0
    5.5758    1.8468    1.4468 H   0  0  0  0  0  0  0  0  0  0  0  0
    3.2602    2.5549   -2.9600 H   0  0  0  0  0  0  0  0  0  0  0  0
    2.0546    2.6592   -1.5946 H   0  0  0  0  0  0  0  0  0  0  0  0
    4.5252   -1.2788    0.1889 H   0  0  0  0  0  0  0  0  0  0  0  0
   -1.7830   -3.7844   -0.2467 H   0  0  0  0  0  0  0  0  0  0  0  0
   -0.1302   -5.2869   -0.2957 H   0  0  0  0  0  0  0  0  0  0  0  0
    1.3346   -4.7594   -1.1003 H   0  0  0  0  0  0  0  0  0  0  0  0
    1.2629   -4.8954    0.6928 H   0  0  0  0  0  0  0  0  0  0  0  0
   -5.6779   -0.7039   -0.1660 H   0  0  0  0  0  0  0  0  0  0  0  0
   -5.0674    3.5170    0.1795 H   0  0  0  0  0  0  0  0  0  0  0  0
   -6.5841    1.5773   -0.0282 H   0  0  0  0  0  0  0  0  0  0  0  0
   -1.5528    3.1938    0.2913 H   0  0  0  0  0  0  0  0  0  0  0  0
  1  8  1  0  0  0  0
  1 10  1  0  0  0  0
  2  9  1  0  0  0  0
  2 11  1  0  0  0  0
  3 12  1  0  0  0  0
  3 14  1  0  0  0  0
  4 16  2  0  0  0  0
  5 21  2  0  0  0  0
  6 22  2  0  0  0  0
  7 26  1  0  0  0  0
  7 43  1  0  0  0  0
  8  9  1  0  0  0  0
  8 10  1  0  0  0  0
  8 12  1  0  0  0  0
  9 11  1  0  0  0  0
  9 30  1  0  0  0  0
 10 31  1  0  0  0  0
 10 32  1  0  0  0  0
 11 33  1  0  0  0  0
 11 34  1  0  0  0  0
 12 13  2  0  0  0  0
 13 16  1  0  0  0  0
 13 35  1  0  0  0  0
 14 15  2  0  0  0  0
 14 17  1  0  0  0  0
 15 16  1  0  0  0  0
 15 18  1  0  0  0  0
 17 19  2  0  0  0  0
 17 21  1  0  0  0  0
 18 20  2  0  0  0  0
 18 25  1  0  0  0  0
 19 20  1  0  0  0  0
 19 22  1  0  0  0  0
 20 36  1  0  0  0  0
 21 23  1  0  0  0  0
 22 24  1  0  0  0  0
 23 24  2  0  0  0  0
 23 26  1  0  0  0  0
 24 27  1  0  0  0  0
 25 37  1  0  0  0  0
 25 38  1  0  0  0  0
 25 39  1  0  0  0  0
 26 28  2  0  0  0  0
 27 29  2  0  0  0  0
 27 40  1  0  0  0  0
 28 29  1  0  0  0  0
 28 41  1  0  0  0  0
 29 42  1  0  0  0  0
M  END
> <PUBCHEM_COMPOUND_CID>
128448

> <PUBCHEM_CONFORMER_RMSD>
0.8

> <PUBCHEM_CONFORMER_DIVERSEORDER>
2
3
1
4

> <PUBCHEM_MMFF94_PARTIAL_CHARGES>
40
1 -0.3
10 -0.05
11 -0.05
12 0.04
13 -0.14
14 0.08
15 0.09
16 0.47
17 0.09
18 -0.14
19 0.09
2 -0.3
20 -0.15
21 0.4
22 0.4
23 0.09
24 0.09
25 0.14
26 0.08
27 -0.15
28 -0.15
29 -0.15
3 -0.16
30 0.1
31 0.1
32 0.1
33 0.1
34 0.1
35 0.15
36 0.15
4 -0.57
40 0.15
41 0.15
42 0.15
43 0.45
5 -0.57
6 -0.57
7 -0.53
8 0.19
9 0.05

> <PUBCHEM_EFFECTIVE_ROTOR_COUNT>
3.2

> <PUBCHEM_PHARMACOPHORE_FEATURES>
11
1 1 acceptor
1 2 acceptor
1 3 acceptor
1 4 acceptor
1 5 acceptor
1 6 acceptor
1 7 donor
6 14 15 17 18 19 20 rings
6 17 19 21 22 23 24 rings
6 23 24 26 27 28 29 rings
6 3 12 13 14 15 16 rings

> <PUBCHEM_HEAVY_ATOM_COUNT>
29

> <PUBCHEM_ATOM_DEF_STEREO_COUNT>
0

> <PUBCHEM_ATOM_UDEF_STEREO_COUNT>
2

> <PUBCHEM_BOND_DEF_STEREO_COUNT>
0

> <PUBCHEM_BOND_UDEF_STEREO_COUNT>
0

> <PUBCHEM_ISOTOPIC_ATOM_COUNT>
0

> <PUBCHEM_COMPONENT_COUNT>
1

> <PUBCHEM_CACTVS_TAUTO_COUNT>
5

> <PUBCHEM_CONFORMER_ID>
0001F5C000000002

> <PUBCHEM_MMFF94_ENERGY>
89.313

> <PUBCHEM_FEATURE_SELFOVERLAP>
55.914

> <PUBCHEM_SHAPE_FINGERPRINT>
10411042 1 17331681241614041711
10483366 6 18191328013427370974
10670039 82 18263935495769434796
1100329 8 18196369217219796874
11513181 2 18271534177399942270
11582403 64 17130401675600296976
12173636 292 18340481261426538679
12403259 226 17615405861747405935
12422481 6 17603856793683973229
12788726 201 17685780524806826042
12925494 130 17979633430014823545
12978246 48 18335702800998701296
13140716 1 18338790122354383482
13617811 41 18337662131632170725
138480 1 17763462816236518387
13911987 19 18047184443390309191
13965767 371 18189033413848336096
14117953 113 18335133159734192340
14790565 3 18338523057282958013
15196674 1 18340202995423491531
15297060 5 18269853032747942664
18681886 176 18056185882946725890
19591789 44 17906737251842615227
20715895 44 18263070025441698653
21133410 127 18040718052267953748
21133410 221 16479352420938645832
21859007 373 17463108164130907165
21860390 5 17984140357745307542
22149856 69 18340783563849707057
22393880 68 18343589533712065246
23366157 5 18189055291725959107
23558518 356 18335136488186159731
23559900 14 18198899223571611986
245318 6 17896055384377605540
3298306 158 18272368702176813020
335352 9 18123749747086361703
338550 245 18408885144324447908
350125 39 18410573946976916818
469060 322 18121800571216589555
474 4 18187086156615647664
5104073 3 18337674114368842051
5312544 6 18409168783727175557
6034566 193 18119271664002108249
6287921 2 18336270054535233692
6700243 42 17117800327469160190
7064713 232 18336820996024345836
7808743 9 18121502625019536636
9709674 26 18196937661058901231
9981440 41 18409163342104267667

> <PUBCHEM_SHAPE_MULTIPOLES>
555.72
10.14
5.06
0.95
4.59
2.71
-0.1
-7.97
0.38
-2.26
-0.75
-1.26
-0.79
-0.75

> <PUBCHEM_SHAPE_SELFOVERLAP>
1269.386

> <PUBCHEM_SHAPE_VOLUME>
285.8

> <PUBCHEM_COORDINATE_TYPE>
2
5
10

$$$$
