128422
  -OEChem-03292013323D

 47 47  0     1  0  0  0  0  0999 V2000
    0.6778    0.8749   -1.3255 O   0  0  0  0  0  0  0  0  0  0  0  0
   -1.7417    0.2583    1.7617 O   0  0  0  0  0  0  0  0  0  0  0  0
   -2.8075    2.5216   -0.8760 O   0  0  0  0  0  0  0  0  0  0  0  0
    2.6125    2.1003    0.0342 N   0  0  0  0  0  0  0  0  0  0  0  0
    0.4350   -0.6762    0.3943 N   0  0  0  0  0  0  0  0  0  0  0  0
   -3.0027   -0.0809   -0.1585 N   0  0  0  0  0  0  0  0  0  0  0  0
   -4.8787    3.0452   -0.0262 N   0  0  0  0  0  0  0  0  0  0  0  0
    2.4123    0.6752    0.2983 C   0  0  2  0  0  0  0  0  0  0  0  0
    3.5236   -0.1764   -0.3169 C   0  0  0  0  0  0  0  0  0  0  0  0
    4.8963    0.2811    0.1665 C   0  0  0  0  0  0  0  0  0  0  0  0
    5.0653    1.7814   -0.0509 C   0  0  0  0  0  0  0  0  0  0  0  0
    3.9007    2.5635    0.5535 C   0  0  0  0  0  0  0  0  0  0  0  0
   -0.8602   -1.1847    0.0237 C   0  0  1  0  0  0  0  0  0  0  0  0
   -1.0692   -2.6328    0.4850 C   0  0  0  0  0  0  0  0  0  0  0  0
    1.0965    0.3151   -0.3157 C   0  0  0  0  0  0  0  0  0  0  0  0
   -0.0398   -3.6416   -0.0641 C   0  0  0  0  0  0  0  0  0  0  0  0
   -1.9011   -0.2717    0.6641 C   0  0  0  0  0  0  0  0  0  0  0  0
   -0.0977   -3.6569   -1.5942 C   0  0  0  0  0  0  0  0  0  0  0  0
   -0.2652   -5.0553    0.4739 C   0  0  0  0  0  0  0  0  0  0  0  0
   -4.1108    0.7798    0.1879 C   0  0  0  0  0  0  0  0  0  0  0  0
   -3.8452    2.1801   -0.3149 C   0  0  0  0  0  0  0  0  0  0  0  0
    2.3728    0.5142    1.3834 H   0  0  0  0  0  0  0  0  0  0  0  0
    3.3772   -1.2327   -0.0603 H   0  0  0  0  0  0  0  0  0  0  0  0
    3.4862   -0.1184   -1.4132 H   0  0  0  0  0  0  0  0  0  0  0  0
    5.6835   -0.2669   -0.3626 H   0  0  0  0  0  0  0  0  0  0  0  0
    5.0039    0.0511    1.2335 H   0  0  0  0  0  0  0  0  0  0  0  0
    5.1286    1.9892   -1.1265 H   0  0  0  0  0  0  0  0  0  0  0  0
    6.0083    2.1160    0.3957 H   0  0  0  0  0  0  0  0  0  0  0  0
    4.0179    3.6254    0.3112 H   0  0  0  0  0  0  0  0  0  0  0  0
    3.9163    2.4810    1.6471 H   0  0  0  0  0  0  0  0  0  0  0  0
    1.8659    2.6386    0.4741 H   0  0  0  0  0  0  0  0  0  0  0  0
   -0.9566   -1.1092   -1.0651 H   0  0  0  0  0  0  0  0  0  0  0  0
   -2.0819   -2.9561    0.2092 H   0  0  0  0  0  0  0  0  0  0  0  0
   -1.0345   -2.6678    1.5828 H   0  0  0  0  0  0  0  0  0  0  0  0
    0.9677   -3.3323    0.2398 H   0  0  0  0  0  0  0  0  0  0  0  0
    0.8502   -1.0263    1.2530 H   0  0  0  0  0  0  0  0  0  0  0  0
    0.2449   -2.7098   -2.0216 H   0  0  0  0  0  0  0  0  0  0  0  0
    0.5562   -4.4385   -1.9968 H   0  0  0  0  0  0  0  0  0  0  0  0
   -1.1134   -3.8522   -1.9547 H   0  0  0  0  0  0  0  0  0  0  0  0
   -1.2499   -5.4373    0.1841 H   0  0  0  0  0  0  0  0  0  0  0  0
    0.4940   -5.7456    0.0915 H   0  0  0  0  0  0  0  0  0  0  0  0
   -0.2068   -5.0651    1.5673 H   0  0  0  0  0  0  0  0  0  0  0  0
   -3.0418   -0.5536   -1.0567 H   0  0  0  0  0  0  0  0  0  0  0  0
   -4.2438    0.7983    1.2740 H   0  0  0  0  0  0  0  0  0  0  0  0
   -5.0108    0.3812   -0.2894 H   0  0  0  0  0  0  0  0  0  0  0  0
   -5.7216    2.7430    0.4518 H   0  0  0  0  0  0  0  0  0  0  0  0
   -4.8305    4.0231   -0.2921 H   0  0  0  0  0  0  0  0  0  0  0  0
  1 15  2  0  0  0  0
  2 17  2  0  0  0  0
  3 21  2  0  0  0  0
  4  8  1  0  0  0  0
  4 12  1  0  0  0  0
  4 31  1  0  0  0  0
  5 13  1  0  0  0  0
  5 15  1  0  0  0  0
  5 36  1  0  0  0  0
  6 17  1  0  0  0  0
  6 20  1  0  0  0  0
  6 43  1  0  0  0  0
  7 21  1  0  0  0  0
  7 46  1  0  0  0  0
  7 47  1  0  0  0  0
  8  9  1  0  0  0  0
  8 15  1  0  0  0  0
  8 22  1  0  0  0  0
  9 10  1  0  0  0  0
  9 23  1  0  0  0  0
  9 24  1  0  0  0  0
 10 11  1  0  0  0  0
 10 25  1  0  0  0  0
 10 26  1  0  0  0  0
 11 12  1  0  0  0  0
 11 27  1  0  0  0  0
 11 28  1  0  0  0  0
 12 29  1  0  0  0  0
 12 30  1  0  0  0  0
 13 14  1  0  0  0  0
 13 17  1  0  0  0  0
 13 32  1  0  0  0  0
 14 16  1  0  0  0  0
 14 33  1  0  0  0  0
 14 34  1  0  0  0  0
 16 18  1  0  0  0  0
 16 19  1  0  0  0  0
 16 35  1  0  0  0  0
 18 37  1  0  0  0  0
 18 38  1  0  0  0  0
 18 39  1  0  0  0  0
 19 40  1  0  0  0  0
 19 41  1  0  0  0  0
 19 42  1  0  0  0  0
 20 21  1  0  0  0  0
 20 44  1  0  0  0  0
 20 45  1  0  0  0  0
M  END
> <PUBCHEM_COMPOUND_CID>
128422

> <PUBCHEM_CONFORMER_RMSD>
1

> <PUBCHEM_CONFORMER_DIVERSEORDER>
1
44
65
73
98
46
103
89
51
43
37
102
54
10
78
34
106
55
17
100
84
71
26
7
107
35
104
108
81
32
101
92
66
79
12
56
99
38
83
53
4
69
87
85
80
14
76
62
70
48
61
93
91
24
6
2
23
50
82
41
58
8
86
63
94
30
52
45
31
25
27
47
96
97
22
21
64
74
29
18
40
60
19
3
77
16
57
49
42
9
33
105
28
20
36
39
5
95
72
88
68
11
59
90
13
75
67
15

> <PUBCHEM_MMFF94_PARTIAL_CHARGES>
19
1 -0.57
12 0.27
13 0.36
15 0.57
17 0.57
2 -0.57
20 0.36
21 0.57
3 -0.57
31 0.36
36 0.37
4 -0.9
43 0.37
46 0.37
47 0.37
5 -0.73
6 -0.73
7 -0.8
8 0.33

> <PUBCHEM_EFFECTIVE_ROTOR_COUNT>
10.2

> <PUBCHEM_PHARMACOPHORE_FEATURES>
10
1 1 acceptor
1 2 acceptor
1 3 acceptor
1 4 cation
1 4 donor
1 5 donor
1 6 donor
1 7 donor
3 16 18 19 hydrophobe
6 4 8 9 10 11 12 rings

> <PUBCHEM_HEAVY_ATOM_COUNT>
21

> <PUBCHEM_ATOM_DEF_STEREO_COUNT>
2

> <PUBCHEM_ATOM_UDEF_STEREO_COUNT>
0

> <PUBCHEM_BOND_DEF_STEREO_COUNT>
0

> <PUBCHEM_BOND_UDEF_STEREO_COUNT>
0

> <PUBCHEM_ISOTOPIC_ATOM_COUNT>
0

> <PUBCHEM_COMPONENT_COUNT>
1

> <PUBCHEM_CACTVS_TAUTO_COUNT>
8

> <PUBCHEM_CONFORMER_ID>
0001F5A600000001

> <PUBCHEM_MMFF94_ENERGY>
27.4602

> <PUBCHEM_FEATURE_SELFOVERLAP>
50.747

> <PUBCHEM_SHAPE_FINGERPRINT>
11370993 70 18412544310130870080
11833330 49 17761205914265293339
12173636 292 18337950202923728511
12500047 106 18340486776591814456
12730499 353 18266189331613635873
12788726 201 18051956302042825351
13004483 165 17692241254794372014
13134695 92 17545318580157553007
13583140 156 17486491783420256968
138480 1 17617375078504046923
13955234 65 18121505644449604843
14178000 22 18410853295491193803
14178342 30 18120082047474567826
14466204 15 18194394490515961264
14508225 48 17549813838779268511
15042514 8 17976546327438307163
15664445 248 17264979390305600031
167882 2 18266178322942971738
20101258 96 17615418390245986994
20600515 1 17549845707579107167
20645477 56 18269283515630711640
21033648 29 18341044194253566264
21065198 57 18265895942408318944
212916 134 18269536326090647664
21524375 3 18413392046697344387
23402539 116 18126561465017890599
23558518 356 17900540383176713186
23559900 14 18131638872629076806
23598288 3 17681567153072896147
3084891 72 18343019960998142648
3091708 16 9193532923597116603
532947 4 18196940976562715750
5385378 56 18122913031806798137
6443956 14 17906457628012945350
7364860 26 18050848810787163519
77188 2 17112975721422024711
81228 2 17765144364979537523
84936 182 18199183984398563049
9981440 41 18408885118623145161

> <PUBCHEM_SHAPE_MULTIPOLES>
394.64
8.92
5.37
1.02
5.55
6.91
0.07
-11.27
-0.3
-4.19
0.49
-0.28
0.34
0.65

> <PUBCHEM_SHAPE_SELFOVERLAP>
777.793

> <PUBCHEM_SHAPE_VOLUME>
233.6

> <PUBCHEM_COORDINATE_TYPE>
2
5
10

$$$$
