128454
  -OEChem-03292013323D

 32 34  0     1  0  0  0  0  0999 V2000
    1.6503   -1.2630    0.6769 O   0  0  0  0  0  0  0  0  0  0  0  0
    3.3629   -0.6800   -1.6778 O   0  0  0  0  0  0  0  0  0  0  0  0
    4.2072    1.7499   -0.6275 O   0  0  0  0  0  0  0  0  0  0  0  0
    4.4550   -0.5627    0.9417 O   0  0  0  0  0  0  0  0  0  0  0  0
    0.0680    0.2088   -0.3411 N   0  0  0  0  0  0  0  0  0  0  0  0
   -1.4355   -1.6581   -0.2882 N   0  0  0  0  0  0  0  0  0  0  0  0
   -2.5090    1.8419    0.0625 N   0  0  0  0  0  0  0  0  0  0  0  0
   -4.5396    0.9395    0.2386 N   0  0  0  0  0  0  0  0  0  0  0  0
   -3.8408   -1.3776    0.0080 N   0  0  0  0  0  0  0  0  0  0  0  0
    2.3983    0.2229   -1.1296 C   0  0  2  0  0  0  0  0  0  0  0  0
    3.0529    1.1247   -0.0791 C   0  0  1  0  0  0  0  0  0  0  0  0
    1.2524   -0.6004   -0.5303 C   0  0  1  0  0  0  0  0  0  0  0  0
    3.3989    0.3614    1.1986 C   0  0  1  0  0  0  0  0  0  0  0  0
    2.1751   -0.4030    1.6923 C   0  0  0  0  0  0  0  0  0  0  0  0
   -1.2074   -0.3159   -0.2276 C   0  0  0  0  0  0  0  0  0  0  0  0
   -2.3258    0.4927   -0.0461 C   0  0  0  0  0  0  0  0  0  0  0  0
   -3.6007   -0.0454    0.0662 C   0  0  0  0  0  0  0  0  0  0  0  0
   -3.8507    2.0607    0.2317 C   0  0  0  0  0  0  0  0  0  0  0  0
   -2.7114   -2.0965   -0.1691 C   0  0  0  0  0  0  0  0  0  0  0  0
    2.0393    0.8286   -1.9705 H   0  0  0  0  0  0  0  0  0  0  0  0
    2.3516    1.9258    0.1859 H   0  0  0  0  0  0  0  0  0  0  0  0
    1.0234   -1.4018   -1.2440 H   0  0  0  0  0  0  0  0  0  0  0  0
    3.7646    1.0499    1.9671 H   0  0  0  0  0  0  0  0  0  0  0  0
    2.4498   -1.0454    2.5354 H   0  0  0  0  0  0  0  0  0  0  0  0
    1.3892    0.2802    2.0331 H   0  0  0  0  0  0  0  0  0  0  0  0
    0.1748    1.2126   -0.2489 H   0  0  0  0  0  0  0  0  0  0  0  0
    4.0984   -0.1447   -2.0217 H   0  0  0  0  0  0  0  0  0  0  0  0
    3.9283    2.2366   -1.4218 H   0  0  0  0  0  0  0  0  0  0  0  0
    4.1232   -1.2366    0.3246 H   0  0  0  0  0  0  0  0  0  0  0  0
   -1.7894    2.5516    0.0255 H   0  0  0  0  0  0  0  0  0  0  0  0
   -4.2567    3.0561    0.3432 H   0  0  0  0  0  0  0  0  0  0  0  0
   -2.8428   -3.1719   -0.2233 H   0  0  0  0  0  0  0  0  0  0  0  0
  1 12  1  0  0  0  0
  1 14  1  0  0  0  0
  2 10  1  0  0  0  0
  2 27  1  0  0  0  0
  3 11  1  0  0  0  0
  3 28  1  0  0  0  0
  4 13  1  0  0  0  0
  4 29  1  0  0  0  0
  5 12  1  0  0  0  0
  5 15  1  0  0  0  0
  5 26  1  0  0  0  0
  6 15  2  0  0  0  0
  6 19  1  0  0  0  0
  7 16  1  0  0  0  0
  7 18  1  0  0  0  0
  7 30  1  0  0  0  0
  8 17  1  0  0  0  0
  8 18  2  0  0  0  0
  9 17  1  0  0  0  0
  9 19  2  0  0  0  0
 10 11  1  0  0  0  0
 10 12  1  0  0  0  0
 10 20  1  0  0  0  0
 11 13  1  0  0  0  0
 11 21  1  0  0  0  0
 12 22  1  0  0  0  0
 13 14  1  0  0  0  0
 13 23  1  0  0  0  0
 14 24  1  0  0  0  0
 14 25  1  0  0  0  0
 15 16  1  0  0  0  0
 16 17  2  0  0  0  0
 18 31  1  0  0  0  0
 19 32  1  0  0  0  0
M  END
> <PUBCHEM_COMPOUND_CID>
128454

> <PUBCHEM_CONFORMER_RMSD>
0.6

> <PUBCHEM_CONFORMER_DIVERSEORDER>
4
31
3
25
2
33
22
30
20
1
38
43
40
14
44
12
34
15
47
45
11
32
29
13
18
26
16
21
28
37
24
8
6
19
36
39
42
46
23
17
41
10
9
7
35
27
5
48

> <PUBCHEM_MMFF94_PARTIAL_CHARGES>
26
1 -0.56
10 0.28
11 0.28
12 0.65
13 0.28
14 0.28
15 0.41
16 -0.15
17 0.48
18 0.04
19 0.47
2 -0.68
26 0.4
27 0.4
28 0.4
29 0.4
3 -0.68
30 0.27
31 0.15
32 0.15
4 -0.68
5 -0.87
6 -0.62
7 0.03
8 -0.57
9 -0.57

> <PUBCHEM_EFFECTIVE_ROTOR_COUNT>
3.2

> <PUBCHEM_PHARMACOPHORE_FEATURES>
15
1 1 acceptor
1 2 acceptor
1 2 donor
1 3 acceptor
1 3 donor
1 4 acceptor
1 4 donor
1 5 donor
1 7 donor
3 5 6 15 cation
3 6 9 19 cation
3 7 8 18 cation
5 7 8 16 17 18 rings
6 1 10 11 12 13 14 rings
6 6 9 15 16 17 19 rings

> <PUBCHEM_HEAVY_ATOM_COUNT>
19

> <PUBCHEM_ATOM_DEF_STEREO_COUNT>
4

> <PUBCHEM_ATOM_UDEF_STEREO_COUNT>
0

> <PUBCHEM_BOND_DEF_STEREO_COUNT>
0

> <PUBCHEM_BOND_UDEF_STEREO_COUNT>
0

> <PUBCHEM_ISOTOPIC_ATOM_COUNT>
0

> <PUBCHEM_COMPONENT_COUNT>
1

> <PUBCHEM_CACTVS_TAUTO_COUNT>
8

> <PUBCHEM_CONFORMER_ID>
0001F5C600000004

> <PUBCHEM_MMFF94_ENERGY>
46.9786

> <PUBCHEM_FEATURE_SELFOVERLAP>
76.388

> <PUBCHEM_SHAPE_FINGERPRINT>
10498660 4 18413109454939602437
10608611 8 18273497879249132621
10646746 165 18342736321326149176
11132069 177 18412826867761255181
12107183 9 17830442891394121360
12173636 292 18341329999052416605
12236239 1 17894908542589651563
12251169 10 18261667095347538937
12403814 3 17821725018907398181
13134695 92 16056598704040043120
13224815 77 17967532389078431639
13296908 3 17846502534323128119
13764800 53 18272654541240989403
14144814 61 18261110768523792949
14289901 80 18411418440157202683
14739800 52 18123174973847818472
15219456 202 17704073988336220439
15375358 24 17632570548174333913
15669948 3 18412258476110793047
1741750 31 18271527503236391513
1813 80 17024586682414688170
18186145 218 17845662451752560339
19050596 39 18113334206511197857
20279233 1 17203605995150506230
20510252 161 18272377486007256867
20645477 56 18343587334952358449
20645477 70 14851877071517374330
21065198 48 18187359947811365962
21503847 285 18186524280841945684
22854114 111 17821729437922206868
231179 274 16773506742232513490
23402655 69 12103574094886121594
23557571 272 18059571425334765947
23559900 14 18201727197911950558
474 4 17387138774167437148
495365 180 17274249531367566455
5104073 3 18408041835647950808
5281201 14 17918004870767954052
573450 72 18334848433361320811
6049 1 17632299011883899547
633830 44 17967541202784067398
7097593 13 17970613113243534802
77492 1 17822009821913888375
90316 7 17895189966053596677
9709674 26 18343306980661912807

> <PUBCHEM_SHAPE_MULTIPOLES>
342.63
9.27
1.87
1.14
0.09
0.13
-0.09
2.38
-0.64
1.68
0.06
-1.53
-0.12
-0.45

> <PUBCHEM_SHAPE_SELFOVERLAP>
742.065

> <PUBCHEM_SHAPE_VOLUME>
182.3

> <PUBCHEM_COORDINATE_TYPE>
2
5
10

$$$$
