128486
  -OEChem-03292013323D

 33 33  0     0  0  0  0  0  0999 V2000
    0.7598   -0.8844   -0.0932 S   0  0  0  0  0  0  0  0  0  0  0  0
    3.8314    0.7968    0.2144 N   0  0  0  0  0  0  0  0  0  0  0  0
   -2.3413   -0.4286    0.3394 N   0  0  0  0  0  0  0  0  0  0  0  0
    4.2066   -1.1637   -0.7591 N   0  0  0  0  0  0  0  0  0  0  0  0
   -3.9996    1.1859   -0.3263 N   0  0  0  0  0  0  0  0  0  0  0  0
   -4.4535   -1.1675   -0.3750 N   0  0  0  0  0  0  0  0  0  0  0  0
   -2.3407    2.9918    0.1742 N   0  0  0  0  0  0  0  0  0  0  0  0
    3.4630   -0.4991    0.0756 C   0  0  0  0  0  0  0  0  0  0  0  0
    2.2988   -1.0660    0.8358 C   0  0  0  0  0  0  0  0  0  0  0  0
   -0.3639   -1.6578    1.1105 C   0  0  0  0  0  0  0  0  0  0  0  0
   -1.7953   -1.7421    0.5954 C   0  0  0  0  0  0  0  0  0  0  0  0
    4.9095    0.9856   -0.6038 C   0  0  0  0  0  0  0  0  0  0  0  0
    3.2254    1.8037    1.0533 C   0  0  0  0  0  0  0  0  0  0  0  0
    5.1224   -0.2383   -1.1934 C   0  0  0  0  0  0  0  0  0  0  0  0
   -3.6261   -0.1984   -0.1276 C   0  0  0  0  0  0  0  0  0  0  0  0
   -5.7901   -0.8688   -0.8639 C   0  0  0  0  0  0  0  0  0  0  0  0
   -3.1063    2.1509   -0.0564 C   0  0  0  0  0  0  0  0  0  0  0  0
    2.4817   -2.1332    1.0040 H   0  0  0  0  0  0  0  0  0  0  0  0
    2.1990   -0.5943    1.8182 H   0  0  0  0  0  0  0  0  0  0  0  0
   -0.3340   -1.0738    2.0368 H   0  0  0  0  0  0  0  0  0  0  0  0
   -0.0023   -2.6678    1.3298 H   0  0  0  0  0  0  0  0  0  0  0  0
   -2.4102   -2.2483    1.3487 H   0  0  0  0  0  0  0  0  0  0  0  0
   -1.8327   -2.3482   -0.3177 H   0  0  0  0  0  0  0  0  0  0  0  0
    5.4161    1.9363   -0.6950 H   0  0  0  0  0  0  0  0  0  0  0  0
   -1.7173    0.3530    0.5135 H   0  0  0  0  0  0  0  0  0  0  0  0
    3.3361    1.4999    2.0971 H   0  0  0  0  0  0  0  0  0  0  0  0
    3.7313    2.7598    0.8950 H   0  0  0  0  0  0  0  0  0  0  0  0
    2.1714    1.9012    0.7836 H   0  0  0  0  0  0  0  0  0  0  0  0
    5.8884   -0.4999   -1.9088 H   0  0  0  0  0  0  0  0  0  0  0  0
   -4.9300    1.4008   -0.6672 H   0  0  0  0  0  0  0  0  0  0  0  0
   -6.3605   -0.2760   -0.1413 H   0  0  0  0  0  0  0  0  0  0  0  0
   -6.3318   -1.8086   -1.0112 H   0  0  0  0  0  0  0  0  0  0  0  0
   -5.7604   -0.3569   -1.8312 H   0  0  0  0  0  0  0  0  0  0  0  0
  1  9  1  0  0  0  0
  1 10  1  0  0  0  0
  2  8  1  0  0  0  0
  2 12  1  0  0  0  0
  2 13  1  0  0  0  0
  3 11  1  0  0  0  0
  3 15  1  0  0  0  0
  3 25  1  0  0  0  0
  4  8  2  0  0  0  0
  4 14  1  0  0  0  0
  5 15  1  0  0  0  0
  5 17  1  0  0  0  0
  5 30  1  0  0  0  0
  6 15  2  0  0  0  0
  6 16  1  0  0  0  0
  7 17  3  0  0  0  0
  8  9  1  0  0  0  0
  9 18  1  0  0  0  0
  9 19  1  0  0  0  0
 10 11  1  0  0  0  0
 10 20  1  0  0  0  0
 10 21  1  0  0  0  0
 11 22  1  0  0  0  0
 11 23  1  0  0  0  0
 12 14  2  0  0  0  0
 12 24  1  0  0  0  0
 13 26  1  0  0  0  0
 13 27  1  0  0  0  0
 13 28  1  0  0  0  0
 14 29  1  0  0  0  0
 16 31  1  0  0  0  0
 16 32  1  0  0  0  0
 16 33  1  0  0  0  0
M  END
> <PUBCHEM_COMPOUND_CID>
128486

> <PUBCHEM_CONFORMER_RMSD>
1

> <PUBCHEM_CONFORMER_DIVERSEORDER>
1
297
422
531
303
519
41
254
158
572
118
202
144
571
443
546
67
548
544
4
568
463
378
285
114
337
161
99
262
125
314
72
60
140
250
174
396
225
345
127
97
11
173
155
110
75
5
539
257
354
406
78
404
104
124
200
45
37
243
278
7
20
121
175
156
231
168
166
21
55
68
355
320
15
3
465
235
185
552
206
153
242
460
419
34
81
541
298
509
260
313
117
253
18
94
143
472
26
120
304
420
195
66
550
489
142
554
329
490
69
57
237
39
6
178
271
187
35
360
12
400
47
128
557
61
14
33
108
493
31
203
65
16
22
582
576
122
29
102
180
76
23
556
292
10
59
2

> <PUBCHEM_MMFF94_PARTIAL_CHARGES>
21
1 -0.46
10 0.23
11 0.37
12 -0.3
13 0.26
14 0.08
15 0.55
16 0.25
17 0.62
2 0.05
24 0.15
25 0.4
29 0.15
3 -0.82
30 0.4
4 -0.57
5 -0.51
6 -0.7
7 -0.56
8 0.01
9 0.41

> <PUBCHEM_EFFECTIVE_ROTOR_COUNT>
7

> <PUBCHEM_PHARMACOPHORE_FEATURES>
6
1 3 donor
1 5 donor
1 7 acceptor
3 2 4 8 cation
4 3 5 6 15 cation
5 2 4 8 12 14 rings

> <PUBCHEM_HEAVY_ATOM_COUNT>
17

> <PUBCHEM_ATOM_DEF_STEREO_COUNT>
0

> <PUBCHEM_ATOM_UDEF_STEREO_COUNT>
0

> <PUBCHEM_BOND_DEF_STEREO_COUNT>
0

> <PUBCHEM_BOND_UDEF_STEREO_COUNT>
0

> <PUBCHEM_ISOTOPIC_ATOM_COUNT>
0

> <PUBCHEM_COMPONENT_COUNT>
1

> <PUBCHEM_CACTVS_TAUTO_COUNT>
3

> <PUBCHEM_CONFORMER_ID>
0001F5E600000001

> <PUBCHEM_MMFF94_ENERGY>
35.4582

> <PUBCHEM_FEATURE_SELFOVERLAP>
30.476

> <PUBCHEM_SHAPE_FINGERPRINT>
10498660 4 18334849477175750945
10670039 82 18187651271612375204
12596602 18 15864356890698442056
12670546 177 17989487450189391623
12916748 109 18334581251893521803
13081056 2 18342738537249647107
14123260 362 18041009422552530282
14251757 17 18272929431991073000
14528608 73 18409162229596766263
17834072 32 18192152603286438649
1813 80 13614520783358261531
20300324 65 18412545401485099423
20645477 70 17346610660041164766
21652331 79 18410852187648035881
221357 26 18272651255163954280
235170 7 17703797989453160751
23557571 272 18130793343602030711
26918003 58 11097850809165116566
351380 180 18413106173341514500
351380 3 13326857729494758742
4028521 119 18408321081620880747
5281201 14 18131357384218773310

> <PUBCHEM_SHAPE_MULTIPOLES>
323.82
13.19
2.39
1.02
1.47
1.72
-0.01
1.09
4.81
1.68
-0.48
-0.63
-0.15
0.23

> <PUBCHEM_SHAPE_SELFOVERLAP>
628.566

> <PUBCHEM_SHAPE_VOLUME>
197.7

> <PUBCHEM_COORDINATE_TYPE>
2
5
10

$$$$
