128450
  -OEChem-03292013323D

 36 37  0     1  0  0  0  0  0999 V2000
   -2.3196   -0.4365    0.9550 O   0  0  0  0  0  0  0  0  0  0  0  0
   -1.3395    2.4734   -0.8954 O   0  0  0  0  0  0  0  0  0  0  0  0
   -3.7688    2.0969    0.2831 O   0  0  0  0  0  0  0  0  0  0  0  0
   -3.7224   -2.6354   -0.0773 O   0  0  0  0  0  0  0  0  0  0  0  0
    1.1846    1.7516    1.0628 O   0  0  0  0  0  0  0  0  0  0  0  0
    3.4374   -2.1482   -0.1876 O   0  0  0  0  0  0  0  0  0  0  0  0
   -0.0382   -0.1102    0.4006 N   0  0  0  0  0  0  0  0  0  0  0  0
    2.3603   -0.1659    0.4534 N   0  0  0  0  0  0  0  0  0  0  0  0
   -1.7935    1.1453   -0.7280 C   0  0  2  0  0  0  0  0  0  0  0  0
   -3.2991    1.0682   -0.5878 C   0  0  1  0  0  0  0  0  0  0  0  0
   -1.3187    0.5262    0.5771 C   0  0  1  0  0  0  0  0  0  0  0  0
   -3.4850   -0.2664    0.1197 C   0  0  1  0  0  0  0  0  0  0  0  0
   -3.5610   -1.4497   -0.8358 C   0  0  0  0  0  0  0  0  0  0  0  0
    1.1697    0.5813    0.6689 C   0  0  0  0  0  0  0  0  0  0  0  0
   -0.0127   -1.4241   -0.0423 C   0  0  0  0  0  0  0  0  0  0  0  0
    1.1035   -2.1215   -0.2452 C   0  0  0  0  0  0  0  0  0  0  0  0
    2.4156   -1.4927    0.0059 C   0  0  0  0  0  0  0  0  0  0  0  0
    3.6284    0.5040    0.7201 C   0  0  0  0  0  0  0  0  0  0  0  0
    4.0942    1.1801   -0.5264 C   0  0  0  0  0  0  0  0  0  0  0  0
    5.2649    0.9232   -1.1209 C   0  0  0  0  0  0  0  0  0  0  0  0
   -1.4756    0.5597   -1.5992 H   0  0  0  0  0  0  0  0  0  0  0  0
   -3.8370    1.1620   -1.5345 H   0  0  0  0  0  0  0  0  0  0  0  0
   -1.2419    1.2742    1.3750 H   0  0  0  0  0  0  0  0  0  0  0  0
   -4.3546   -0.2680    0.7867 H   0  0  0  0  0  0  0  0  0  0  0  0
   -2.6694   -1.5521   -1.4587 H   0  0  0  0  0  0  0  0  0  0  0  0
   -4.4290   -1.3452   -1.4952 H   0  0  0  0  0  0  0  0  0  0  0  0
   -0.3676    2.4513   -0.9001 H   0  0  0  0  0  0  0  0  0  0  0  0
   -3.3774    1.9701    1.1633 H   0  0  0  0  0  0  0  0  0  0  0  0
   -0.9536   -1.9185   -0.2284 H   0  0  0  0  0  0  0  0  0  0  0  0
    1.0792   -3.1484   -0.5897 H   0  0  0  0  0  0  0  0  0  0  0  0
   -3.7823   -3.3733   -0.7078 H   0  0  0  0  0  0  0  0  0  0  0  0
    3.5015    1.2514    1.5108 H   0  0  0  0  0  0  0  0  0  0  0  0
    4.3620   -0.2276    1.0780 H   0  0  0  0  0  0  0  0  0  0  0  0
    3.4495    1.9391   -0.9627 H   0  0  0  0  0  0  0  0  0  0  0  0
    5.5520    1.4553   -2.0212 H   0  0  0  0  0  0  0  0  0  0  0  0
    5.9522    0.1835   -0.7255 H   0  0  0  0  0  0  0  0  0  0  0  0
  1 11  1  0  0  0  0
  1 12  1  0  0  0  0
  2  9  1  0  0  0  0
  2 27  1  0  0  0  0
  3 10  1  0  0  0  0
  3 28  1  0  0  0  0
  4 13  1  0  0  0  0
  4 31  1  0  0  0  0
  5 14  2  0  0  0  0
  6 17  2  0  0  0  0
  7 11  1  0  0  0  0
  7 14  1  0  0  0  0
  7 15  1  0  0  0  0
  8 14  1  0  0  0  0
  8 17  1  0  0  0  0
  8 18  1  0  0  0  0
  9 10  1  0  0  0  0
  9 11  1  0  0  0  0
  9 21  1  0  0  0  0
 10 12  1  0  0  0  0
 10 22  1  0  0  0  0
 11 23  1  0  0  0  0
 12 13  1  0  0  0  0
 12 24  1  0  0  0  0
 13 25  1  0  0  0  0
 13 26  1  0  0  0  0
 15 16  2  0  0  0  0
 15 29  1  0  0  0  0
 16 17  1  0  0  0  0
 16 30  1  0  0  0  0
 18 19  1  0  0  0  0
 18 32  1  0  0  0  0
 18 33  1  0  0  0  0
 19 20  2  0  0  0  0
 19 34  1  0  0  0  0
 20 35  1  0  0  0  0
 20 36  1  0  0  0  0
M  END
> <PUBCHEM_COMPOUND_CID>
128450

> <PUBCHEM_CONFORMER_RMSD>
0.8

> <PUBCHEM_CONFORMER_DIVERSEORDER>
1
20
14
15
16
19
6
5
3
11
17
21
12
2
9
18
10
7
4
22
8
13

> <PUBCHEM_MMFF94_PARTIAL_CHARGES>
28
1 -0.56
10 0.28
11 0.58
12 0.28
13 0.28
14 0.69
15 -0.04
16 -0.14
17 0.62
18 0.44
19 -0.29
2 -0.68
20 -0.3
27 0.4
28 0.4
29 0.15
3 -0.68
30 0.15
31 0.4
34 0.15
35 0.15
36 0.15
4 -0.68
5 -0.57
6 -0.57
7 -0.47
8 -0.42
9 0.28

> <PUBCHEM_EFFECTIVE_ROTOR_COUNT>
5

> <PUBCHEM_PHARMACOPHORE_FEATURES>
12
1 1 acceptor
1 2 acceptor
1 2 donor
1 20 hydrophobe
1 3 acceptor
1 3 donor
1 4 acceptor
1 4 donor
1 5 acceptor
1 6 acceptor
5 1 9 10 11 12 rings
6 7 8 14 15 16 17 rings

> <PUBCHEM_HEAVY_ATOM_COUNT>
20

> <PUBCHEM_ATOM_DEF_STEREO_COUNT>
4

> <PUBCHEM_ATOM_UDEF_STEREO_COUNT>
0

> <PUBCHEM_BOND_DEF_STEREO_COUNT>
0

> <PUBCHEM_BOND_UDEF_STEREO_COUNT>
0

> <PUBCHEM_ISOTOPIC_ATOM_COUNT>
0

> <PUBCHEM_COMPONENT_COUNT>
1

> <PUBCHEM_CACTVS_TAUTO_COUNT>
1

> <PUBCHEM_CONFORMER_ID>
0001F5C200000001

> <PUBCHEM_MMFF94_ENERGY>
47.6904

> <PUBCHEM_FEATURE_SELFOVERLAP>
60.915

> <PUBCHEM_SHAPE_FINGERPRINT>
10366900 7 18336826519141032355
10498660 4 18334572443116051492
10608611 8 18264201422420999921
10616163 171 18412262861019077727
11759241 127 18040715874570431220
12670546 177 18342465811627948462
13140716 1 18270108003475993826
14289901 80 18333729096196116026
14790565 3 17908147581838651009
15196674 1 18411980239149046306
15219456 202 18337671919139211241
15375462 6 18408600361906414758
16945 1 18200018663783909195
18186145 218 18188770518335210098
19591789 44 18196934585545175994
20281475 54 18413105043812601505
20645477 70 18200591376229928734
21501502 16 18337665326390960995
221490 88 18412829070879583042
23114952 82 18195815068059962478
23402539 116 17967524692697627172
23402655 69 18341612581640189256
23557571 272 18341341053717942245
23559900 14 18197209253252599362
2838139 119 17240772821892451084
2871803 45 18339066186178781151
3323516 105 18130507517559756966
46194498 28 17466748957249016159
474 4 16588314946678861428
4990 188 17846789515954256044
5104073 3 18411697656060237739
58051976 378 18411696595509127108
633830 44 17894912880227162834
8809292 202 18338515218951870683
9709674 26 18407762534109651914

> <PUBCHEM_SHAPE_MULTIPOLES>
366.41
8.75
2.52
0.96
4.07
0.57
0.04
-0.89
2.05
-0.99
0.36
0.23
-0.25
-0.18

> <PUBCHEM_SHAPE_SELFOVERLAP>
764.706

> <PUBCHEM_SHAPE_VOLUME>
206.4

> <PUBCHEM_COORDINATE_TYPE>
2
5
10

$$$$
