128547
  -OEChem-03292013323D

 49 52  0     1  0  0  0  0  0999 V2000
   -5.8339    2.7080   -1.1448 S   0  0  0  0  0  0  0  0  0  0  0  0
    2.4071   -1.1673   -2.0420 O   0  0  0  0  0  0  0  0  0  0  0  0
    2.7085    2.0029   -0.1047 O   0  0  0  0  0  0  0  0  0  0  0  0
   -1.2485   -3.5085    0.5068 O   0  0  0  0  0  0  0  0  0  0  0  0
   -1.6669    1.6687   -0.7693 O   0  0  0  0  0  0  0  0  0  0  0  0
    2.6113    3.5070    1.6355 O   0  0  0  0  0  0  0  0  0  0  0  0
    3.0336   -0.9303    1.6638 N   0  0  0  0  0  0  0  0  0  0  0  0
    1.0963   -1.9456   -0.2205 N   0  0  1  0  0  0  0  0  0  0  0  0
   -3.9557    0.4266   -0.0233 N   0  0  0  0  0  0  0  0  0  0  0  0
    4.4418    3.4125    0.2472 N   0  0  0  0  0  0  0  0  0  0  0  0
    3.1630   -0.9178    0.2087 C   0  0  2  0  0  0  0  0  0  0  0  0
    1.9819   -0.8659   -0.7127 C   0  0  1  0  0  0  0  0  0  0  0  0
    3.0774   -2.2048    0.9683 C   0  0  2  0  0  0  0  0  0  0  0  0
    1.7895   -2.9016    0.6334 C   0  0  0  0  0  0  0  0  0  0  0  0
    1.0579    0.3951   -0.7352 C   0  0  1  0  0  0  0  0  0  0  0  0
   -0.2008   -1.5004   -0.1314 C   0  0  0  0  0  0  0  0  0  0  0  0
   -0.3003   -0.2065   -0.4330 C   0  0  0  0  0  0  0  0  0  0  0  0
    1.4282    1.5069    0.2413 C   0  0  0  0  0  0  0  0  0  0  0  0
   -1.3572   -2.3144    0.2501 C   0  0  0  0  0  0  0  0  0  0  0  0
   -1.5885    0.4891   -0.4405 C   0  0  0  0  0  0  0  0  0  0  0  0
    3.1310   -0.0868   -2.6088 C   0  0  0  0  0  0  0  0  0  0  0  0
   -2.6811   -1.6084    0.2955 C   0  0  0  0  0  0  0  0  0  0  0  0
   -2.7977   -0.3019   -0.0278 C   0  0  0  0  0  0  0  0  0  0  0  0
   -3.8282   -2.4862    0.7207 C   0  0  0  0  0  0  0  0  0  0  0  0
    3.1997    3.0164    0.6777 C   0  0  0  0  0  0  0  0  0  0  0  0
   -4.1383    1.6125    0.7692 C   0  0  0  0  0  0  0  0  0  0  0  0
   -5.5302    2.2009    0.5758 C   0  0  0  0  0  0  0  0  0  0  0  0
    4.1232   -0.6121   -0.1740 H   0  0  0  0  0  0  0  0  0  0  0  0
    3.9461   -2.8276    1.1033 H   0  0  0  0  0  0  0  0  0  0  0  0
    2.0789   -0.7256    1.9536 H   0  0  0  0  0  0  0  0  0  0  0  0
    1.9828   -3.8246    0.0783 H   0  0  0  0  0  0  0  0  0  0  0  0
    1.2278   -3.1370    1.5434 H   0  0  0  0  0  0  0  0  0  0  0  0
    0.9858    0.8301   -1.7368 H   0  0  0  0  0  0  0  0  0  0  0  0
    1.4087    1.1706    1.2824 H   0  0  0  0  0  0  0  0  0  0  0  0
    0.7065    2.3283    0.1537 H   0  0  0  0  0  0  0  0  0  0  0  0
    3.7444    0.4821   -1.9079 H   0  0  0  0  0  0  0  0  0  0  0  0
    2.4603    0.5850   -3.1518 H   0  0  0  0  0  0  0  0  0  0  0  0
    3.8078   -0.5110   -3.3579 H   0  0  0  0  0  0  0  0  0  0  0  0
   -4.7659   -1.9403    0.8533 H   0  0  0  0  0  0  0  0  0  0  0  0
   -3.6050   -2.9648    1.6806 H   0  0  0  0  0  0  0  0  0  0  0  0
   -4.0019   -3.2690   -0.0251 H   0  0  0  0  0  0  0  0  0  0  0  0
   -4.7989   -0.1288   -0.1397 H   0  0  0  0  0  0  0  0  0  0  0  0
   -4.0165    1.3573    1.8293 H   0  0  0  0  0  0  0  0  0  0  0  0
   -3.4004    2.3897    0.5503 H   0  0  0  0  0  0  0  0  0  0  0  0
    4.8881    2.9743   -0.5516 H   0  0  0  0  0  0  0  0  0  0  0  0
    4.9517    4.1545    0.7148 H   0  0  0  0  0  0  0  0  0  0  0  0
   -6.2981    1.4711    0.8537 H   0  0  0  0  0  0  0  0  0  0  0  0
   -5.6566    3.0776    1.2189 H   0  0  0  0  0  0  0  0  0  0  0  0
   -7.0820    3.1590   -0.9517 H   0  0  0  0  0  0  0  0  0  0  0  0
  1 27  1  0  0  0  0
  1 49  1  0  0  0  0
  2 12  1  0  0  0  0
  2 21  1  0  0  0  0
  3 18  1  0  0  0  0
  3 25  1  0  0  0  0
  4 19  2  0  0  0  0
  5 20  2  0  0  0  0
  6 25  2  0  0  0  0
  7 11  1  0  0  0  0
  7 13  1  0  0  0  0
  7 30  1  0  0  0  0
  8 12  1  0  0  0  0
  8 14  1  0  0  0  0
  8 16  1  0  0  0  0
  9 23  1  0  0  0  0
  9 26  1  0  0  0  0
  9 42  1  0  0  0  0
 10 25  1  0  0  0  0
 10 45  1  0  0  0  0
 10 46  1  0  0  0  0
 11 12  1  0  0  0  0
 11 13  1  0  0  0  0
 11 28  1  0  0  0  0
 12 15  1  0  0  0  0
 13 14  1  0  0  0  0
 13 29  1  0  0  0  0
 14 31  1  0  0  0  0
 14 32  1  0  0  0  0
 15 17  1  0  0  0  0
 15 18  1  0  0  0  0
 15 33  1  0  0  0  0
 16 17  2  0  0  0  0
 16 19  1  0  0  0  0
 17 20  1  0  0  0  0
 18 34  1  0  0  0  0
 18 35  1  0  0  0  0
 19 22  1  0  0  0  0
 20 23  1  0  0  0  0
 21 36  1  0  0  0  0
 21 37  1  0  0  0  0
 21 38  1  0  0  0  0
 22 23  2  0  0  0  0
 22 24  1  0  0  0  0
 24 39  1  0  0  0  0
 24 40  1  0  0  0  0
 24 41  1  0  0  0  0
 26 27  1  0  0  0  0
 26 43  1  0  0  0  0
 26 44  1  0  0  0  0
 27 47  1  0  0  0  0
 27 48  1  0  0  0  0
M  END
> <PUBCHEM_COMPOUND_CID>
128547

> <PUBCHEM_CONFORMER_RMSD>
0.8

> <PUBCHEM_CONFORMER_DIVERSEORDER>
1
32
26
22
34
23
4
31
29
12
27
9
37
10
21
17
33
28
14
35
11
19
25
18
30
36
6
24
8
20
13
2
7
16
5
15
3

> <PUBCHEM_MMFF94_PARTIAL_CHARGES>
34
1 -0.41
10 -0.8
11 -0.04
12 0.74
13 -0.04
14 0.46
15 0.14
16 0.11
17 -0.12
18 0.28
19 0.54
2 -0.56
20 0.54
21 0.28
22 -0.12
23 0.11
24 0.14
25 0.78
26 0.37
27 0.23
28 0.1
29 0.1
3 -0.43
30 0.36
4 -0.57
42 0.4
45 0.37
46 0.37
49 0.18
5 -0.57
6 -0.57
7 -0.68
8 -0.84
9 -0.87

> <PUBCHEM_EFFECTIVE_ROTOR_COUNT>
7.6

> <PUBCHEM_PHARMACOPHORE_FEATURES>
13
1 10 donor
1 2 acceptor
1 4 acceptor
1 5 acceptor
1 6 acceptor
1 7 cation
1 7 donor
1 8 cation
1 9 cation
1 9 donor
5 8 12 15 16 17 rings
6 16 17 19 20 22 23 rings
6 7 8 11 12 13 14 rings

> <PUBCHEM_HEAVY_ATOM_COUNT>
27

> <PUBCHEM_ATOM_DEF_STEREO_COUNT>
4

> <PUBCHEM_ATOM_UDEF_STEREO_COUNT>
0

> <PUBCHEM_BOND_DEF_STEREO_COUNT>
0

> <PUBCHEM_BOND_UDEF_STEREO_COUNT>
0

> <PUBCHEM_ISOTOPIC_ATOM_COUNT>
0

> <PUBCHEM_COMPONENT_COUNT>
1

> <PUBCHEM_CACTVS_TAUTO_COUNT>
36

> <PUBCHEM_CONFORMER_ID>
0001F62300000001

> <PUBCHEM_MMFF94_ENERGY>
100.4668

> <PUBCHEM_FEATURE_SELFOVERLAP>
66.214

> <PUBCHEM_SHAPE_FINGERPRINT>
1100329 8 18338232665669168226
11578080 2 17387664237830428374
12633257 1 18263627524764558352
12930653 34 18265613380256015785
13140716 1 18408041797510209155
13965767 371 18040707056791854901
14178342 30 18044096975905082871
14223421 5 18334850671160581586
14466204 15 17833262026571360713
14790565 3 17974011944646783556
14955137 171 18120094970319583250
15238133 3 18193565471147748764
16945 1 18408887321461845670
17980427 23 17914865743822683058
1813 80 15406448699686440748
20600515 1 18056194675071016530
20642791 105 17321821959122133012
20691752 17 17458343078119361615
21033648 29 17458618957624591973
21279426 13 18271539671232740884
21756936 100 17693364952179499048
21859007 373 17388518438222969589
22393880 68 18339655511061598183
23419403 2 17389903938885238254
23558518 356 18188212125738034211
23559900 14 18200603488132759582
2748010 2 18120668082149705134
335352 9 18263925436397007519
474 4 18271800203394781217
495365 180 18060412508754032573
5104073 3 18334299764775377057
5895379 119 17130723659960016440
633830 44 18201440234246746845
7097593 13 17969774185829824419
8509985 295 18118399549496277827

> <PUBCHEM_SHAPE_MULTIPOLES>
510.23
9.63
4.41
1.43
12.61
1.48
0.67
7.63
-0.18
-1.52
-1.66
-1.33
0.33
1.26

> <PUBCHEM_SHAPE_SELFOVERLAP>
1090.377

> <PUBCHEM_SHAPE_VOLUME>
287.9

> <PUBCHEM_COORDINATE_TYPE>
2
5
10

$$$$
