128526
  -OEChem-03292013323D

 63 66  0     1  0  0  0  0  0999 V2000
   -2.5907   -0.6810    0.0937 O   0  0  0  0  0  0  0  0  0  0  0  0
    1.4288    2.3143    1.5537 O   0  0  0  0  0  0  0  0  0  0  0  0
   -4.3051    2.0233   -0.5068 O   0  0  0  0  0  0  0  0  0  0  0  0
   -4.8281    1.6670    2.1764 O   0  0  0  0  0  0  0  0  0  0  0  0
   -3.8378   -2.4910    0.3268 O   0  0  0  0  0  0  0  0  0  0  0  0
    6.3472   -2.6075    0.6799 O   0  0  0  0  0  0  0  0  0  0  0  0
   -4.6738   -0.7224   -0.8923 O   0  0  0  0  0  0  0  0  0  0  0  0
   -0.9393    1.1342   -0.0712 C   0  0  1  0  0  0  0  0  0  0  0  0
   -0.1436    0.3566   -1.1430 C   0  0  2  0  0  0  0  0  0  0  0  0
    1.3604    0.6684   -1.1385 C   0  0  1  0  0  0  0  0  0  0  0  0
    1.9512    0.2823    0.2633 C   0  0  2  0  0  0  0  0  0  0  0  0
   -2.3716    0.6349   -0.4066 C   0  0  1  0  0  0  0  0  0  0  0  0
   -0.3832    0.7230    1.3068 C   0  0  0  0  0  0  0  0  0  0  0  0
   -0.9433    0.5962   -2.4209 C   0  0  0  0  0  0  0  0  0  0  0  0
    1.1431    0.9280    1.4333 C   0  0  2  0  0  0  0  0  0  0  0  0
    3.5199    0.4651    0.3206 C   0  0  1  0  0  0  0  0  0  0  0  0
   -2.4130    0.6098   -1.9515 C   0  0  0  0  0  0  0  0  0  0  0  0
    2.0708   -0.0946   -2.2711 C   0  0  0  0  0  0  0  0  0  0  0  0
   -0.8703    2.6760   -0.2543 C   0  0  0  0  0  0  0  0  0  0  0  0
    3.5836    0.0811   -2.2275 C   0  0  0  0  0  0  0  0  0  0  0  0
    4.1128   -0.2990   -0.8685 C   0  0  0  0  0  0  0  0  0  0  0  0
   -3.4749    1.4505    0.1973 C   0  0  0  0  0  0  0  0  0  0  0  0
    3.9859    1.9356    0.2275 C   0  0  0  0  0  0  0  0  0  0  0  0
    4.0586   -0.0680    1.6404 C   0  0  0  0  0  0  0  0  0  0  0  0
    5.0158   -1.2845   -0.7468 C   0  0  0  0  0  0  0  0  0  0  0  0
   -3.5034    1.5247    1.7091 C   0  0  0  0  0  0  0  0  0  0  0  0
    4.9563   -1.0499    1.7685 C   0  0  0  0  0  0  0  0  0  0  0  0
    5.5093   -1.7180    0.5763 C   0  0  0  0  0  0  0  0  0  0  0  0
   -3.7918   -1.2464   -0.2253 C   0  0  0  0  0  0  0  0  0  0  0  0
   -5.0408   -3.2291    0.0877 C   0  0  0  0  0  0  0  0  0  0  0  0
   -4.9331   -4.5796    0.7630 C   0  0  0  0  0  0  0  0  0  0  0  0
   -0.2328   -0.7215   -0.9289 H   0  0  0  0  0  0  0  0  0  0  0  0
    1.5155    1.7367   -1.3197 H   0  0  0  0  0  0  0  0  0  0  0  0
    1.7707   -0.8013    0.3700 H   0  0  0  0  0  0  0  0  0  0  0  0
   -0.5909   -0.3370    1.4972 H   0  0  0  0  0  0  0  0  0  0  0  0
   -0.8740    1.2931    2.1014 H   0  0  0  0  0  0  0  0  0  0  0  0
   -0.7721   -0.1900   -3.1635 H   0  0  0  0  0  0  0  0  0  0  0  0
   -0.6797    1.5532   -2.8852 H   0  0  0  0  0  0  0  0  0  0  0  0
    1.4517    0.4642    2.3768 H   0  0  0  0  0  0  0  0  0  0  0  0
   -2.9013    1.4888   -2.3866 H   0  0  0  0  0  0  0  0  0  0  0  0
   -2.8988   -0.2719   -2.3791 H   0  0  0  0  0  0  0  0  0  0  0  0
    1.7056    0.2538   -3.2444 H   0  0  0  0  0  0  0  0  0  0  0  0
    1.8283   -1.1638   -2.2080 H   0  0  0  0  0  0  0  0  0  0  0  0
   -1.3051    3.1955    0.6057 H   0  0  0  0  0  0  0  0  0  0  0  0
    0.1494    3.0494   -0.3647 H   0  0  0  0  0  0  0  0  0  0  0  0
   -1.4153    3.0178   -1.1405 H   0  0  0  0  0  0  0  0  0  0  0  0
    3.8510    1.1192   -2.4555 H   0  0  0  0  0  0  0  0  0  0  0  0
    4.0343   -0.5308   -3.0184 H   0  0  0  0  0  0  0  0  0  0  0  0
    3.8157    2.4868    1.1587 H   0  0  0  0  0  0  0  0  0  0  0  0
    5.0648    1.9962    0.0320 H   0  0  0  0  0  0  0  0  0  0  0  0
    3.4845    2.4864   -0.5740 H   0  0  0  0  0  0  0  0  0  0  0  0
    3.7072    0.4043    2.5551 H   0  0  0  0  0  0  0  0  0  0  0  0
    0.9430    2.6521    2.3251 H   0  0  0  0  0  0  0  0  0  0  0  0
    5.4068   -1.8116   -1.6107 H   0  0  0  0  0  0  0  0  0  0  0  0
   -2.9305    2.3934    2.0395 H   0  0  0  0  0  0  0  0  0  0  0  0
   -3.0934    0.6220    2.1666 H   0  0  0  0  0  0  0  0  0  0  0  0
    5.3070   -1.3701    2.7427 H   0  0  0  0  0  0  0  0  0  0  0  0
   -5.3082    0.8525    1.9480 H   0  0  0  0  0  0  0  0  0  0  0  0
   -5.8946   -2.6774    0.4967 H   0  0  0  0  0  0  0  0  0  0  0  0
   -5.1778   -3.3640   -0.9910 H   0  0  0  0  0  0  0  0  0  0  0  0
   -5.8381   -5.1716    0.6002 H   0  0  0  0  0  0  0  0  0  0  0  0
   -4.0724   -5.1359    0.3771 H   0  0  0  0  0  0  0  0  0  0  0  0
   -4.7775   -4.4604    1.8403 H   0  0  0  0  0  0  0  0  0  0  0  0
  1 12  1  0  0  0  0
  1 29  1  0  0  0  0
  2 15  1  0  0  0  0
  2 53  1  0  0  0  0
  3 22  2  0  0  0  0
  4 26  1  0  0  0  0
  4 58  1  0  0  0  0
  5 29  1  0  0  0  0
  5 30  1  0  0  0  0
  6 28  2  0  0  0  0
  7 29  2  0  0  0  0
  8  9  1  0  0  0  0
  8 12  1  0  0  0  0
  8 13  1  0  0  0  0
  8 19  1  0  0  0  0
  9 10  1  0  0  0  0
  9 14  1  0  0  0  0
  9 32  1  0  0  0  0
 10 11  1  0  0  0  0
 10 18  1  0  0  0  0
 10 33  1  0  0  0  0
 11 15  1  0  0  0  0
 11 16  1  0  0  0  0
 11 34  1  0  0  0  0
 12 17  1  0  0  0  0
 12 22  1  0  0  0  0
 13 15  1  0  0  0  0
 13 35  1  0  0  0  0
 13 36  1  0  0  0  0
 14 17  1  0  0  0  0
 14 37  1  0  0  0  0
 14 38  1  0  0  0  0
 15 39  1  0  0  0  0
 16 21  1  0  0  0  0
 16 23  1  0  0  0  0
 16 24  1  0  0  0  0
 17 40  1  0  0  0  0
 17 41  1  0  0  0  0
 18 20  1  0  0  0  0
 18 42  1  0  0  0  0
 18 43  1  0  0  0  0
 19 44  1  0  0  0  0
 19 45  1  0  0  0  0
 19 46  1  0  0  0  0
 20 21  1  0  0  0  0
 20 47  1  0  0  0  0
 20 48  1  0  0  0  0
 21 25  2  0  0  0  0
 22 26  1  0  0  0  0
 23 49  1  0  0  0  0
 23 50  1  0  0  0  0
 23 51  1  0  0  0  0
 24 27  2  0  0  0  0
 24 52  1  0  0  0  0
 25 28  1  0  0  0  0
 25 54  1  0  0  0  0
 26 55  1  0  0  0  0
 26 56  1  0  0  0  0
 27 28  1  0  0  0  0
 27 57  1  0  0  0  0
 30 31  1  0  0  0  0
 30 59  1  0  0  0  0
 30 60  1  0  0  0  0
 31 61  1  0  0  0  0
 31 62  1  0  0  0  0
 31 63  1  0  0  0  0
M  END
> <PUBCHEM_COMPOUND_CID>
128526

> <PUBCHEM_CONFORMER_RMSD>
1

> <PUBCHEM_CONFORMER_DIVERSEORDER>
1
3
4
2

> <PUBCHEM_MMFF94_PARTIAL_CHARGES>
25
1 -0.43
12 0.34
15 0.28
16 0.28
2 -0.68
20 0.14
21 -0.28
22 0.45
24 -0.29
25 -0.14
26 0.34
27 -0.14
28 0.54
29 0.87
3 -0.57
30 0.28
4 -0.68
5 -0.43
52 0.15
53 0.4
54 0.15
57 0.15
58 0.4
6 -0.57
7 -0.57

> <PUBCHEM_EFFECTIVE_ROTOR_COUNT>
7.4

> <PUBCHEM_PHARMACOPHORE_FEATURES>
10
1 2 acceptor
1 2 donor
1 3 acceptor
1 4 acceptor
1 4 donor
1 6 acceptor
5 8 9 12 14 17 rings
6 10 11 16 18 20 21 rings
6 16 21 24 25 27 28 rings
6 8 9 10 11 13 15 rings

> <PUBCHEM_HEAVY_ATOM_COUNT>
31

> <PUBCHEM_ATOM_DEF_STEREO_COUNT>
7

> <PUBCHEM_ATOM_UDEF_STEREO_COUNT>
0

> <PUBCHEM_BOND_DEF_STEREO_COUNT>
0

> <PUBCHEM_BOND_UDEF_STEREO_COUNT>
0

> <PUBCHEM_ISOTOPIC_ATOM_COUNT>
0

> <PUBCHEM_COMPONENT_COUNT>
1

> <PUBCHEM_CACTVS_TAUTO_COUNT>
9

> <PUBCHEM_CONFORMER_ID>
0001F60E00000001

> <PUBCHEM_MMFF94_ENERGY>
99.7624

> <PUBCHEM_FEATURE_SELFOVERLAP>
50.852

> <PUBCHEM_SHAPE_FINGERPRINT>
10319926 262 17988371377072562302
10622 236 18041553775588684807
11405975 8 18272935994490000272
11763715 3 18042422346571371253
11796584 16 18336262332659087646
12236239 1 17604159120563420724
12553582 1 15791450409560158980
12633046 712 18410563003041706781
12633257 1 18342743966215215304
13383661 66 15579532948136741147
13583140 156 18130213870413751004
13675066 3 17203607073414241780
13782708 43 18270392914759071319
13944108 23 8063634119188483575
13965767 371 12750703745288383507
14251751 18 18408317775024044634
14739800 52 10951755349535712622
14848178 5 18188764062889140319
14950920 106 18272088296762854602
15163728 17 9222965789025989319
15788980 27 18187366484957591428
15799311 1 18335997380047180658
17349148 13 17676496008029552056
17492 89 18336543906346043502
1813 80 18270962346008026780
20626108 58 18260829328022904486
20775438 99 16808417486060565426
21033648 29 16486980565832525481
22393880 68 13406796631539117240
23559900 14 18335972142682218861
25222932 49 18124308565718840814
3472631 163 10519720976810037827
392239 28 15195268825639039242
460360 51 16199884872869597456
463206 1 17822009817687850650
484985 159 18409730664956926923
5104073 3 18202845465519477128
563151 248 18336847320485331603
563151 74 15769232548539404551
57527293 21 18342748424423059773
6009941 240 18200868466187253736
7970288 3 18264764368844923450
9981440 41 16773239466697258121

> <PUBCHEM_SHAPE_MULTIPOLES>
596.88
12.98
3.27
2.11
2.98
3.69
0.44
10.7
-3.16
-4.99
-1.12
0.61
-0.63
-0.48

> <PUBCHEM_SHAPE_SELFOVERLAP>
1282.491

> <PUBCHEM_SHAPE_VOLUME>
324.1

> <PUBCHEM_COORDINATE_TYPE>
2
5
10

$$$$
