128530
  -OEChem-03292013323D

 46 47  0     1  0  0  0  0  0999 V2000
    2.0344    1.5012    0.2291 O   0  0  0  0  0  0  0  0  0  0  0  0
   -4.1156    0.3725    1.3972 O   0  0  0  0  0  0  0  0  0  0  0  0
    0.9126    3.1721    1.3732 O   0  0  0  0  0  0  0  0  0  0  0  0
   -3.4264   -1.6539    0.5152 O   0  0  0  0  0  0  0  0  0  0  0  0
    1.9720   -4.2159   -1.2869 O   0  5  0  0  0  0  0  0  0  0  0  0
    1.0160   -2.6994   -2.5614 O   0  0  0  0  0  0  0  0  0  0  0  0
    5.5541    1.3551    0.9294 O   0  0  0  0  0  0  0  0  0  0  0  0
    4.2553    0.0586   -0.4197 O   0  0  0  0  0  0  0  0  0  0  0  0
   -1.7545    1.7586   -1.9310 N   0  0  0  0  0  0  0  0  0  0  0  0
    1.3115   -3.1598   -1.4327 N   0  3  0  0  0  0  0  0  0  0  0  0
   -1.0598    0.6699    0.5908 C   0  0  1  0  0  0  0  0  0  0  0  0
   -0.2196    1.7307   -0.1294 C   0  0  0  0  0  0  0  0  0  0  0  0
   -2.3896    0.3826   -0.1136 C   0  0  0  0  0  0  0  0  0  0  0  0
   -0.2700   -0.5997    0.7313 C   0  0  0  0  0  0  0  0  0  0  0  0
   -0.5852    2.2108   -1.3400 C   0  0  0  0  0  0  0  0  0  0  0  0
   -2.6647    0.9040   -1.3304 C   0  0  0  0  0  0  0  0  0  0  0  0
    0.1459   -1.2803   -0.4067 C   0  0  0  0  0  0  0  0  0  0  0  0
    0.0380   -1.0799    1.9986 C   0  0  0  0  0  0  0  0  0  0  0  0
    0.9581    2.2398    0.5920 C   0  0  0  0  0  0  0  0  0  0  0  0
    0.1851    3.2211   -2.1465 C   0  0  0  0  0  0  0  0  0  0  0  0
   -3.9137    0.6448   -2.1288 C   0  0  0  0  0  0  0  0  0  0  0  0
   -3.3602   -0.4433    0.6230 C   0  0  0  0  0  0  0  0  0  0  0  0
    0.8808   -2.4586   -0.2756 C   0  0  0  0  0  0  0  0  0  0  0  0
    0.7728   -2.2583    2.1296 C   0  0  0  0  0  0  0  0  0  0  0  0
    1.1941   -2.9476    0.9925 C   0  0  0  0  0  0  0  0  0  0  0  0
    3.2668    1.8777    0.8522 C   0  0  0  0  0  0  0  0  0  0  0  0
   -5.1139   -0.2884    2.1817 C   0  0  0  0  0  0  0  0  0  0  0  0
    4.3757    0.9858    0.3670 C   0  0  0  0  0  0  0  0  0  0  0  0
   -1.3044    1.0789    1.5819 H   0  0  0  0  0  0  0  0  0  0  0  0
   -1.9938    2.1330   -2.8424 H   0  0  0  0  0  0  0  0  0  0  0  0
   -0.1028   -0.8899   -1.3900 H   0  0  0  0  0  0  0  0  0  0  0  0
   -0.2833   -0.5532    2.8927 H   0  0  0  0  0  0  0  0  0  0  0  0
   -0.4273    4.1126   -2.3193 H   0  0  0  0  0  0  0  0  0  0  0  0
    0.4606    2.7977   -3.1184 H   0  0  0  0  0  0  0  0  0  0  0  0
    1.1078    3.5449   -1.6566 H   0  0  0  0  0  0  0  0  0  0  0  0
   -3.6570    0.2091   -3.1005 H   0  0  0  0  0  0  0  0  0  0  0  0
   -4.6019   -0.0449   -1.6322 H   0  0  0  0  0  0  0  0  0  0  0  0
   -4.4528    1.5823   -2.3023 H   0  0  0  0  0  0  0  0  0  0  0  0
    1.0170   -2.6384    3.1172 H   0  0  0  0  0  0  0  0  0  0  0  0
    1.7651   -3.8618    1.1337 H   0  0  0  0  0  0  0  0  0  0  0  0
    3.1743    1.7612    1.9372 H   0  0  0  0  0  0  0  0  0  0  0  0
    3.5059    2.9119    0.5828 H   0  0  0  0  0  0  0  0  0  0  0  0
   -5.6508    0.4700    2.7577 H   0  0  0  0  0  0  0  0  0  0  0  0
   -4.6451   -0.9912    2.8772 H   0  0  0  0  0  0  0  0  0  0  0  0
   -5.8261   -0.8050    1.5310 H   0  0  0  0  0  0  0  0  0  0  0  0
    6.2965    0.7886    0.6290 H   0  0  0  0  0  0  0  0  0  0  0  0
  1 19  1  0  0  0  0
  1 26  1  0  0  0  0
  2 22  1  0  0  0  0
  2 27  1  0  0  0  0
  3 19  2  0  0  0  0
  4 22  2  0  0  0  0
  5 10  1  0  0  0  0
  6 10  2  0  0  0  0
  7 28  1  0  0  0  0
  7 46  1  0  0  0  0
  8 28  2  0  0  0  0
  9 15  1  0  0  0  0
  9 16  1  0  0  0  0
  9 30  1  0  0  0  0
 10 23  1  0  0  0  0
 11 12  1  0  0  0  0
 11 13  1  0  0  0  0
 11 14  1  0  0  0  0
 11 29  1  0  0  0  0
 12 15  2  0  0  0  0
 12 19  1  0  0  0  0
 13 16  2  0  0  0  0
 13 22  1  0  0  0  0
 14 17  2  0  0  0  0
 14 18  1  0  0  0  0
 15 20  1  0  0  0  0
 16 21  1  0  0  0  0
 17 23  1  0  0  0  0
 17 31  1  0  0  0  0
 18 24  2  0  0  0  0
 18 32  1  0  0  0  0
 20 33  1  0  0  0  0
 20 34  1  0  0  0  0
 20 35  1  0  0  0  0
 21 36  1  0  0  0  0
 21 37  1  0  0  0  0
 21 38  1  0  0  0  0
 23 25  2  0  0  0  0
 24 25  1  0  0  0  0
 24 39  1  0  0  0  0
 25 40  1  0  0  0  0
 26 28  1  0  0  0  0
 26 41  1  0  0  0  0
 26 42  1  0  0  0  0
 27 43  1  0  0  0  0
 27 44  1  0  0  0  0
 27 45  1  0  0  0  0
M  CHG  2   5  -1  10   1
M  END
> <PUBCHEM_COMPOUND_CID>
128530

> <PUBCHEM_CONFORMER_RMSD>
1

> <PUBCHEM_CONFORMER_DIVERSEORDER>
1
27
14
54
38
3
53
39
31
11
23
51
55
33
29
18
45
52
19
44
10
7
37
8
57
32
36
28
50
26
47
2
13
56
58
16
40
34
48
46
35
5
20
41
24
21
43
9
12
49
25
30
17
42
15
4
22
6

> <PUBCHEM_MMFF94_PARTIAL_CHARGES>
34
1 -0.43
10 0.91
11 0.42
12 -0.12
13 -0.12
14 -0.14
15 -0.04
16 -0.04
17 -0.15
18 -0.15
19 0.71
2 -0.43
20 0.14
21 0.14
22 0.71
23 0.13
24 -0.15
25 -0.15
26 0.34
27 0.28
28 0.66
3 -0.57
30 0.4
31 0.15
32 0.15
39 0.15
4 -0.57
40 0.15
46 0.5
5 -0.52
6 -0.52
7 -0.65
8 -0.57
9 -0.6

> <PUBCHEM_EFFECTIVE_ROTOR_COUNT>
8.4

> <PUBCHEM_PHARMACOPHORE_FEATURES>
12
1 3 acceptor
1 4 acceptor
1 5 acceptor
1 5 anion
1 6 acceptor
1 7 acceptor
1 8 acceptor
1 9 cation
1 9 donor
3 7 8 28 anion
6 14 17 18 23 24 25 rings
6 9 11 12 13 15 16 rings

> <PUBCHEM_HEAVY_ATOM_COUNT>
28

> <PUBCHEM_ATOM_DEF_STEREO_COUNT>
0

> <PUBCHEM_ATOM_UDEF_STEREO_COUNT>
1

> <PUBCHEM_BOND_DEF_STEREO_COUNT>
0

> <PUBCHEM_BOND_UDEF_STEREO_COUNT>
0

> <PUBCHEM_ISOTOPIC_ATOM_COUNT>
0

> <PUBCHEM_COMPONENT_COUNT>
1

> <PUBCHEM_CACTVS_TAUTO_COUNT>
3

> <PUBCHEM_CONFORMER_ID>
0001F61200000001

> <PUBCHEM_MMFF94_ENERGY>
73.1492

> <PUBCHEM_FEATURE_SELFOVERLAP>
61.035

> <PUBCHEM_SHAPE_FINGERPRINT>
11488393 25 18340198575464813922
11578080 2 17241882078204493519
12035758 1 18188500205910145216
12422481 6 18338509738604990314
13140716 1 17753906205287084273
16945 1 18341884208452244657
19930381 70 18201443549871665790
20905425 154 18116138987864932072
22182313 1 18114185181915328613
23419403 2 18120958125765018905
23559900 14 17464228570568694194
3383291 50 18342172221219070882
465052 167 17241903179626992177
5262128 65 17550373047858002582
59755656 215 18261668260037985339
81228 2 16900721031665784625

> <PUBCHEM_SHAPE_MULTIPOLES>
519.31
7.19
4.28
2.29
0.42
1.77
0.63
-1.71
-2.61
3
1.71
-1.02
0.64
2.22

> <PUBCHEM_SHAPE_SELFOVERLAP>
1105.01

> <PUBCHEM_SHAPE_VOLUME>
288.7

> <PUBCHEM_COORDINATE_TYPE>
2
5
10

$$$$
