128517
  -OEChem-03292013323D

 32 33  0     0  0  0  0  0  0999 V2000
    4.6501    1.7069    1.0947 O   0  0  0  0  0  0  0  0  0  0  0  0
    4.2461   -1.2748   -1.7670 O   0  0  0  0  0  0  0  0  0  0  0  0
   -0.4665   -0.9516    0.6180 N   0  0  0  0  0  0  0  0  0  0  0  0
   -2.1521   -2.3478    0.2801 N   0  0  0  0  0  0  0  0  0  0  0  0
   -1.5359    1.1612    0.0905 N   0  0  0  0  0  0  0  0  0  0  0  0
   -3.8682    0.8233   -0.5436 N   0  0  0  0  0  0  0  0  0  0  0  0
   -2.9123    2.9614   -0.4924 N   0  0  0  0  0  0  0  0  0  0  0  0
    3.2921   -0.0412    0.1022 C   0  0  0  0  0  0  0  0  0  0  0  0
    1.8354   -0.4399   -0.2368 C   0  0  0  0  0  0  0  0  0  0  0  0
    0.8759   -0.4939    0.9581 C   0  0  0  0  0  0  0  0  0  0  0  0
    3.3102    1.3272    0.8056 C   0  0  0  0  0  0  0  0  0  0  0  0
    4.2057   -0.0048   -1.1310 C   0  0  0  0  0  0  0  0  0  0  0  0
   -1.5091   -0.1720    0.2374 C   0  0  0  0  0  0  0  0  0  0  0  0
   -0.8875   -2.2455    0.6324 C   0  0  0  0  0  0  0  0  0  0  0  0
   -2.5530   -1.0594    0.0306 C   0  0  0  0  0  0  0  0  0  0  0  0
   -3.7685   -0.5172   -0.3749 C   0  0  0  0  0  0  0  0  0  0  0  0
   -2.7621    1.5682   -0.3039 C   0  0  0  0  0  0  0  0  0  0  0  0
    3.6975   -0.7983    0.7869 H   0  0  0  0  0  0  0  0  0  0  0  0
    1.8425   -1.4242   -0.7227 H   0  0  0  0  0  0  0  0  0  0  0  0
    1.4348    0.2585   -0.9837 H   0  0  0  0  0  0  0  0  0  0  0  0
    0.7573    0.4903    1.4227 H   0  0  0  0  0  0  0  0  0  0  0  0
    1.2611   -1.1748    1.7264 H   0  0  0  0  0  0  0  0  0  0  0  0
    2.8681    2.1033    0.1722 H   0  0  0  0  0  0  0  0  0  0  0  0
    2.7684    1.3076    1.7550 H   0  0  0  0  0  0  0  0  0  0  0  0
    5.2325    0.2556   -0.8560 H   0  0  0  0  0  0  0  0  0  0  0  0
    3.8444    0.7310   -1.8578 H   0  0  0  0  0  0  0  0  0  0  0  0
   -0.2425   -3.0705    0.9023 H   0  0  0  0  0  0  0  0  0  0  0  0
    5.0299    1.0219    1.6711 H   0  0  0  0  0  0  0  0  0  0  0  0
    4.8302   -1.1893   -2.5397 H   0  0  0  0  0  0  0  0  0  0  0  0
   -4.6571   -1.1036   -0.5688 H   0  0  0  0  0  0  0  0  0  0  0  0
   -3.8063    3.3290   -0.7874 H   0  0  0  0  0  0  0  0  0  0  0  0
   -2.1237    3.5721   -0.3298 H   0  0  0  0  0  0  0  0  0  0  0  0
  1 11  1  0  0  0  0
  1 28  1  0  0  0  0
  2 12  1  0  0  0  0
  2 29  1  0  0  0  0
  3 10  1  0  0  0  0
  3 13  1  0  0  0  0
  3 14  1  0  0  0  0
  4 14  2  0  0  0  0
  4 15  1  0  0  0  0
  5 13  2  0  0  0  0
  5 17  1  0  0  0  0
  6 16  1  0  0  0  0
  6 17  2  0  0  0  0
  7 17  1  0  0  0  0
  7 31  1  0  0  0  0
  7 32  1  0  0  0  0
  8  9  1  0  0  0  0
  8 11  1  0  0  0  0
  8 12  1  0  0  0  0
  8 18  1  0  0  0  0
  9 10  1  0  0  0  0
  9 19  1  0  0  0  0
  9 20  1  0  0  0  0
 10 21  1  0  0  0  0
 10 22  1  0  0  0  0
 11 23  1  0  0  0  0
 11 24  1  0  0  0  0
 12 25  1  0  0  0  0
 12 26  1  0  0  0  0
 13 15  1  0  0  0  0
 14 27  1  0  0  0  0
 15 16  2  0  0  0  0
 16 30  1  0  0  0  0
M  END
> <PUBCHEM_COMPOUND_CID>
128517

> <PUBCHEM_CONFORMER_RMSD>
0.6

> <PUBCHEM_CONFORMER_DIVERSEORDER>
7
18
74
71
77
69
80
23
57
85
59
62
16
45
86
75
84
60
58
89
14
52
65
79
70
87
50
27
88
53
54
46
37
61
33
66
83
26
20
25
49
47
72
41
31
40
1
32
81
21
17
11
19
22
29
43
82
76
4
12
39
10
63
5
15
30
64
13
6
2
36
51
44
73
38
48
78
3
24
42
55
28
35
56
34
9
8
68
67

> <PUBCHEM_MMFF94_PARTIAL_CHARGES>
21
1 -0.68
10 0.26
11 0.28
12 0.28
13 0.11
14 0.04
15 0.23
16 0.16
17 0.72
2 -0.68
27 0.15
28 0.4
29 0.4
3 0.05
30 0.15
31 0.4
32 0.4
4 -0.57
5 -0.57
6 -0.62
7 -0.9

> <PUBCHEM_EFFECTIVE_ROTOR_COUNT>
5

> <PUBCHEM_PHARMACOPHORE_FEATURES>
9
1 1 acceptor
1 1 donor
1 2 acceptor
1 2 donor
1 7 donor
3 3 4 14 cation
4 5 6 7 17 cation
5 3 4 13 14 15 rings
6 5 6 13 15 16 17 rings

> <PUBCHEM_HEAVY_ATOM_COUNT>
17

> <PUBCHEM_ATOM_DEF_STEREO_COUNT>
0

> <PUBCHEM_ATOM_UDEF_STEREO_COUNT>
0

> <PUBCHEM_BOND_DEF_STEREO_COUNT>
0

> <PUBCHEM_BOND_UDEF_STEREO_COUNT>
0

> <PUBCHEM_ISOTOPIC_ATOM_COUNT>
0

> <PUBCHEM_COMPONENT_COUNT>
1

> <PUBCHEM_CACTVS_TAUTO_COUNT>
3

> <PUBCHEM_CONFORMER_ID>
0001F60500000007

> <PUBCHEM_MMFF94_ENERGY>
33.3234

> <PUBCHEM_FEATURE_SELFOVERLAP>
45.805

> <PUBCHEM_SHAPE_FINGERPRINT>
10498660 4 18262227833683414541
10608611 8 18412823620655170720
10646746 165 18408600375281784120
11715629 250 18409722967641685704
12173636 292 18335695027387100351
12390115 104 18197227962335778185
12788726 201 16518799526472003938
14123260 362 17749118780845196998
1741750 31 18335978688338459035
18186145 218 18272655610492654376
200 152 16487260950024796862
20510252 161 18412260645069095953
20645477 56 18411140263878606920
20645477 70 17274831246676500558
20671657 1 18118394051622141218
21524375 3 18042399128109621499
22943178 12 18272938266912711106
23366157 5 17535745196781410427
23402539 116 18265036102207539399
23526113 38 17917706924649653242
23557571 272 18267021850256158914
23559900 14 18342175570933975658
2748010 2 17977086175147154483
2838139 119 15720487933778363215
4028521 119 18408599258152456821
474 4 17022902337463064050
5161694 15 18272098154071553454
5281201 14 18202289104230575084
6049 1 18271259312593605418
9709674 26 18342175617666886974

> <PUBCHEM_SHAPE_MULTIPOLES>
313.21
8.9
2.38
1.07
7.26
0.62
-0.21
2.79
-2.01
-1.87
0.11
1.32
-0.1
1.54

> <PUBCHEM_SHAPE_SELFOVERLAP>
654.845

> <PUBCHEM_SHAPE_VOLUME>
175.3

> <PUBCHEM_COORDINATE_TYPE>
2
5
10

$$$$
