128524
  -OEChem-03292013323D

 65 68  0     1  0  0  0  0  0999 V2000
    1.2732   -0.2958   -1.6704 O   0  0  0  0  0  0  0  0  0  0  0  0
   -0.3553    4.6994   -2.5920 O   0  0  0  0  0  0  0  0  0  0  0  0
    1.6096    1.4183    2.1754 O   0  0  0  0  0  0  0  0  0  0  0  0
    3.9634   -3.9176   -1.3190 O   0  0  0  0  0  0  0  0  0  0  0  0
   -2.2293   -0.1845   -1.3225 N   0  0  0  0  0  0  0  0  0  0  0  0
    1.9426    1.8643   -0.0767 N   0  0  0  0  0  0  0  0  0  0  0  0
   -4.0029   -1.5318   -1.2281 N   0  0  0  0  0  0  0  0  0  0  0  0
   -2.5191    1.0326    0.7596 N   0  0  0  0  0  0  0  0  0  0  0  0
    4.0475    3.0187    2.3212 N   0  0  0  0  0  0  0  0  0  0  0  0
   -4.5080    0.2796    1.9569 N   0  0  0  0  0  0  0  0  0  0  0  0
   -5.9367   -1.4466    1.1167 N   0  0  0  0  0  0  0  0  0  0  0  0
    0.1906    2.5508   -1.7005 C   0  0  1  0  0  0  0  0  0  0  0  0
    0.5706    1.7132   -0.4754 C   0  0  1  0  0  0  0  0  0  0  0  0
   -1.0065    0.4324   -1.8359 C   0  0  2  0  0  0  0  0  0  0  0  0
    0.2160    0.2818   -0.9021 C   0  0  1  0  0  0  0  0  0  0  0  0
   -1.1547    1.9423   -2.1085 C   0  0  0  0  0  0  0  0  0  0  0  0
    0.0863    4.0426   -1.4165 C   0  0  0  0  0  0  0  0  0  0  0  0
   -2.8708    0.1162   -0.1548 C   0  0  0  0  0  0  0  0  0  0  0  0
   -2.9473   -1.1792   -1.9318 C   0  0  0  0  0  0  0  0  0  0  0  0
    2.3580    1.7015    1.2410 C   0  0  0  0  0  0  0  0  0  0  0  0
   -3.9672   -0.7302   -0.1149 C   0  0  0  0  0  0  0  0  0  0  0  0
    3.8625    1.8848    1.4150 C   0  0  2  0  0  0  0  0  0  0  0  0
   -4.8023   -0.6259    0.9930 C   0  0  0  0  0  0  0  0  0  0  0  0
    4.4979    0.6239    2.0188 C   0  0  0  0  0  0  0  0  0  0  0  0
   -3.4010    1.0413    1.7828 C   0  0  0  0  0  0  0  0  0  0  0  0
    4.3550   -0.5883    1.1285 C   0  0  0  0  0  0  0  0  0  0  0  0
   -6.2596   -2.4204    0.0894 C   0  0  0  0  0  0  0  0  0  0  0  0
   -6.7986   -1.3450    2.2806 C   0  0  0  0  0  0  0  0  0  0  0  0
    3.2414   -1.4190    1.2537 C   0  0  0  0  0  0  0  0  0  0  0  0
    5.3371   -0.8765    0.1808 C   0  0  0  0  0  0  0  0  0  0  0  0
    3.1099   -2.5379    0.4314 C   0  0  0  0  0  0  0  0  0  0  0  0
    5.2057   -1.9954   -0.6416 C   0  0  0  0  0  0  0  0  0  0  0  0
    4.0922   -2.8261   -0.5163 C   0  0  0  0  0  0  0  0  0  0  0  0
    2.7999   -4.7234   -1.1379 C   0  0  0  0  0  0  0  0  0  0  0  0
    0.9081    2.3913   -2.5176 H   0  0  0  0  0  0  0  0  0  0  0  0
   -0.0677    2.0026    0.3687 H   0  0  0  0  0  0  0  0  0  0  0  0
   -0.8046   -0.0669   -2.7935 H   0  0  0  0  0  0  0  0  0  0  0  0
    0.0465   -0.3660   -0.0356 H   0  0  0  0  0  0  0  0  0  0  0  0
   -1.9754    2.3873   -1.5340 H   0  0  0  0  0  0  0  0  0  0  0  0
   -1.3719    2.1288   -3.1665 H   0  0  0  0  0  0  0  0  0  0  0  0
   -0.6274    4.2487   -0.6116 H   0  0  0  0  0  0  0  0  0  0  0  0
    1.0609    4.4522   -1.1323 H   0  0  0  0  0  0  0  0  0  0  0  0
    2.6333    2.0373   -0.8009 H   0  0  0  0  0  0  0  0  0  0  0  0
    1.0044   -1.2025   -1.8977 H   0  0  0  0  0  0  0  0  0  0  0  0
   -2.6563   -1.6075   -2.8813 H   0  0  0  0  0  0  0  0  0  0  0  0
   -0.4111    5.6481   -2.3862 H   0  0  0  0  0  0  0  0  0  0  0  0
    4.3383    2.1173    0.4554 H   0  0  0  0  0  0  0  0  0  0  0  0
    4.0550    0.3961    2.9985 H   0  0  0  0  0  0  0  0  0  0  0  0
    5.5650    0.7976    2.2141 H   0  0  0  0  0  0  0  0  0  0  0  0
    5.0428    3.1681    2.4825 H   0  0  0  0  0  0  0  0  0  0  0  0
    3.7015    3.8692    1.8782 H   0  0  0  0  0  0  0  0  0  0  0  0
   -3.1955    1.7549    2.5735 H   0  0  0  0  0  0  0  0  0  0  0  0
   -6.4545   -1.9358   -0.8733 H   0  0  0  0  0  0  0  0  0  0  0  0
   -5.4690   -3.1718   -0.0113 H   0  0  0  0  0  0  0  0  0  0  0  0
   -7.1724   -2.9741    0.3380 H   0  0  0  0  0  0  0  0  0  0  0  0
   -7.6445   -2.0386    2.2317 H   0  0  0  0  0  0  0  0  0  0  0  0
   -7.2113   -0.3339    2.3669 H   0  0  0  0  0  0  0  0  0  0  0  0
   -6.2395   -1.5756    3.1940 H   0  0  0  0  0  0  0  0  0  0  0  0
    2.4721   -1.2131    1.9928 H   0  0  0  0  0  0  0  0  0  0  0  0
    6.2078   -0.2355    0.0724 H   0  0  0  0  0  0  0  0  0  0  0  0
    2.2205   -3.1401    0.5821 H   0  0  0  0  0  0  0  0  0  0  0  0
    5.9735   -2.2145   -1.3785 H   0  0  0  0  0  0  0  0  0  0  0  0
    2.7736   -5.1736   -0.1397 H   0  0  0  0  0  0  0  0  0  0  0  0
    1.8851   -4.1657   -1.3660 H   0  0  0  0  0  0  0  0  0  0  0  0
    2.8609   -5.5458   -1.8581 H   0  0  0  0  0  0  0  0  0  0  0  0
  1 15  1  0  0  0  0
  1 44  1  0  0  0  0
  2 17  1  0  0  0  0
  2 46  1  0  0  0  0
  3 20  2  0  0  0  0
  4 33  1  0  0  0  0
  4 34  1  0  0  0  0
  5 14  1  0  0  0  0
  5 18  1  0  0  0  0
  5 19  1  0  0  0  0
  6 13  1  0  0  0  0
  6 20  1  0  0  0  0
  6 43  1  0  0  0  0
  7 19  2  0  0  0  0
  7 21  1  0  0  0  0
  8 18  1  0  0  0  0
  8 25  2  0  0  0  0
  9 22  1  0  0  0  0
  9 50  1  0  0  0  0
  9 51  1  0  0  0  0
 10 23  2  0  0  0  0
 10 25  1  0  0  0  0
 11 23  1  0  0  0  0
 11 27  1  0  0  0  0
 11 28  1  0  0  0  0
 12 13  1  0  0  0  0
 12 16  1  0  0  0  0
 12 17  1  0  0  0  0
 12 35  1  0  0  0  0
 13 15  1  0  0  0  0
 13 36  1  0  0  0  0
 14 15  1  0  0  0  0
 14 16  1  0  0  0  0
 14 37  1  0  0  0  0
 15 38  1  0  0  0  0
 16 39  1  0  0  0  0
 16 40  1  0  0  0  0
 17 41  1  0  0  0  0
 17 42  1  0  0  0  0
 18 21  2  0  0  0  0
 19 45  1  0  0  0  0
 20 22  1  0  0  0  0
 21 23  1  0  0  0  0
 22 24  1  0  0  0  0
 22 47  1  0  0  0  0
 24 26  1  0  0  0  0
 24 48  1  0  0  0  0
 24 49  1  0  0  0  0
 25 52  1  0  0  0  0
 26 29  2  0  0  0  0
 26 30  1  0  0  0  0
 27 53  1  0  0  0  0
 27 54  1  0  0  0  0
 27 55  1  0  0  0  0
 28 56  1  0  0  0  0
 28 57  1  0  0  0  0
 28 58  1  0  0  0  0
 29 31  1  0  0  0  0
 29 59  1  0  0  0  0
 30 32  2  0  0  0  0
 30 60  1  0  0  0  0
 31 33  2  0  0  0  0
 31 61  1  0  0  0  0
 32 33  1  0  0  0  0
 32 62  1  0  0  0  0
 34 63  1  0  0  0  0
 34 64  1  0  0  0  0
 34 65  1  0  0  0  0
M  END
> <PUBCHEM_COMPOUND_CID>
128524

> <PUBCHEM_CONFORMER_RMSD>
1

> <PUBCHEM_CONFORMER_DIVERSEORDER>
1
76
148
121
63
31
77
48
101
69
54
68
115
142
78
80
114
109
95
159
88
89
160
106
124
108
73
35
23
38
19
104
116
52
65
64
44
20
105
51
151
157
17
75
60
129
50
66
24
15
147
42
99
81
47
133
39
84
32
103
93
149
128
49
139
37
53
28
132
40
92
43
107
12
98
7
152
158
86
119
137
58
34
156
117
8
25
144
94
100
140
90
61
153
45
112
41
74
120
62
125
59
5
82
22
113
16
154
111
118
70
97
155
26
33
21
131
55
126
79
146
29
87
27
9
83
6
136
123
85
4
141
56
18
145
3
130
138
102
122
14
57
30
127
46
134
2
67
96
10
36
11
110
91
150
143
72
71
135
13

> <PUBCHEM_MMFF94_PARTIAL_CHARGES>
43
1 -0.68
10 -0.62
11 -0.84
13 0.3
14 0.26
15 0.28
17 0.28
18 0.11
19 0.04
2 -0.68
20 0.57
21 0.23
22 0.33
23 0.41
24 0.14
25 0.47
26 -0.14
27 0.37
28 0.37
29 -0.15
3 -0.57
30 -0.15
31 -0.15
32 -0.15
33 0.08
34 0.28
4 -0.36
43 0.37
44 0.4
45 0.15
46 0.4
5 0.05
50 0.36
51 0.36
52 0.15
59 0.15
6 -0.73
60 0.15
61 0.15
62 0.15
7 -0.57
8 -0.57
9 -0.99

> <PUBCHEM_EFFECTIVE_ROTOR_COUNT>
10

> <PUBCHEM_PHARMACOPHORE_FEATURES>
16
1 1 acceptor
1 1 donor
1 2 acceptor
1 2 donor
1 3 acceptor
1 4 acceptor
1 6 donor
1 9 cation
1 9 donor
3 10 11 23 cation
3 5 7 19 cation
3 8 10 25 cation
5 12 13 14 15 16 rings
5 5 7 18 19 21 rings
6 26 29 30 31 32 33 rings
6 8 10 18 21 23 25 rings

> <PUBCHEM_HEAVY_ATOM_COUNT>
34

> <PUBCHEM_ATOM_DEF_STEREO_COUNT>
4

> <PUBCHEM_ATOM_UDEF_STEREO_COUNT>
1

> <PUBCHEM_BOND_DEF_STEREO_COUNT>
0

> <PUBCHEM_BOND_UDEF_STEREO_COUNT>
0

> <PUBCHEM_ISOTOPIC_ATOM_COUNT>
0

> <PUBCHEM_COMPONENT_COUNT>
1

> <PUBCHEM_CACTVS_TAUTO_COUNT>
2

> <PUBCHEM_CONFORMER_ID>
0001F60C00000001

> <PUBCHEM_MMFF94_ENERGY>
96.5527

> <PUBCHEM_FEATURE_SELFOVERLAP>
81.448

> <PUBCHEM_SHAPE_FINGERPRINT>
10764073 3 17626678098105953205
10928967 22 18336818685379829002
11399939 17 17906736160810626519
12422481 6 18130507440250547053
12623949 98 18413112757858941938
12633257 1 17346880052841971361
13135754 10 18189617137941597477
13782708 43 18116145568388742026
14251764 30 18263650580286828610
14950920 106 17775002336804112731
15403338 16 17704347775600857945
15484559 13 13854680811775785931
1813 80 18260832600429710068
19301679 30 18259702320210074233
1979834 28 18338231678032242906
20578428 11 15720533133660497927
21365058 27 18126284375640437216
22440779 20 17902539011542401656
3117164 225 17988083262197725001
3633792 109 18129358489850320103
3737641 26 18199187287682360334
3886686 26 17768828476472752291
7918774 8 17894632552075265963
86090 222 18186525414144211299

> <PUBCHEM_SHAPE_MULTIPOLES>
641.36
13.68
4.87
2.57
11.7
0.36
-0.22
-12.19
-8.24
-4.79
3.01
0.71
1.47
3.17

> <PUBCHEM_SHAPE_SELFOVERLAP>
1372.403

> <PUBCHEM_SHAPE_VOLUME>
354.7

> <PUBCHEM_COORDINATE_TYPE>
2
5
10

$$$$
