128564
  -OEChem-03292013323D

 56 56  0     1  0  0  0  0  0999 V2000
   -1.2603    0.7605    1.9240 O   0  0  0  0  0  0  0  0  0  0  0  0
   -4.6252   -2.0062   -1.5008 O   0  0  0  0  0  0  0  0  0  0  0  0
   -1.2656    3.4505   -0.9801 O   0  0  0  0  0  0  0  0  0  0  0  0
   -6.6596   -1.3328    0.1527 O   0  0  0  0  0  0  0  0  0  0  0  0
    5.5145   -1.8946    0.3352 O   0  0  0  0  0  0  0  0  0  0  0  0
   -0.5175    0.9136   -0.2670 N   0  0  0  0  0  0  0  0  0  0  0  0
    0.0990    4.2513    0.7201 N   0  0  0  0  0  0  0  0  0  0  0  0
   -5.4606   -0.6081    0.1405 N   0  0  0  0  0  0  0  0  0  0  0  0
   -2.2265   -0.7393    0.3095 C   0  0  2  0  0  0  0  0  0  0  0  0
   -1.4593   -1.9537   -0.2517 C   0  0  0  0  0  0  0  0  0  0  0  0
   -0.4344   -2.5832    0.7158 C   0  0  0  0  0  0  0  0  0  0  0  0
   -3.2454   -0.2062   -0.7138 C   0  0  0  0  0  0  0  0  0  0  0  0
   -1.2912    0.3851    0.7522 C   0  0  0  0  0  0  0  0  0  0  0  0
    0.4260    1.9851   -0.0495 C   0  0  1  0  0  0  0  0  0  0  0  0
    0.3317   -3.7455    0.0829 C   0  0  0  0  0  0  0  0  0  0  0  0
   -1.1501   -3.0665    1.9804 C   0  0  0  0  0  0  0  0  0  0  0  0
    1.5901    1.9427   -1.0461 C   0  0  0  0  0  0  0  0  0  0  0  0
   -4.5062   -1.0473   -0.7410 C   0  0  0  0  0  0  0  0  0  0  0  0
   -0.3408    3.2957   -0.1854 C   0  0  0  0  0  0  0  0  0  0  0  0
    2.6370    0.9199   -0.6777 C   0  0  0  0  0  0  0  0  0  0  0  0
    3.7068    1.2800    0.1417 C   0  0  0  0  0  0  0  0  0  0  0  0
    2.5341   -0.3860   -1.1568 C   0  0  0  0  0  0  0  0  0  0  0  0
    4.6739    0.3343    0.4820 C   0  0  0  0  0  0  0  0  0  0  0  0
    3.5013   -1.3319   -0.8167 C   0  0  0  0  0  0  0  0  0  0  0  0
    4.5711   -0.9717    0.0027 C   0  0  0  0  0  0  0  0  0  0  0  0
   -0.4911    5.5654    0.8363 C   0  0  0  0  0  0  0  0  0  0  0  0
    5.3484   -3.2111   -0.1893 C   0  0  0  0  0  0  0  0  0  0  0  0
   -2.7837   -1.0504    1.2016 H   0  0  0  0  0  0  0  0  0  0  0  0
   -2.1779   -2.7276   -0.5502 H   0  0  0  0  0  0  0  0  0  0  0  0
   -0.9311   -1.6649   -1.1696 H   0  0  0  0  0  0  0  0  0  0  0  0
    0.3035   -1.8250    1.0046 H   0  0  0  0  0  0  0  0  0  0  0  0
   -3.5201    0.8301   -0.4776 H   0  0  0  0  0  0  0  0  0  0  0  0
   -2.8254   -0.1873   -1.7268 H   0  0  0  0  0  0  0  0  0  0  0  0
    0.8015    1.9008    0.9785 H   0  0  0  0  0  0  0  0  0  0  0  0
    0.8522   -3.4172   -0.8225 H   0  0  0  0  0  0  0  0  0  0  0  0
    1.0812   -4.1434    0.7750 H   0  0  0  0  0  0  0  0  0  0  0  0
   -0.3444   -4.5615   -0.1938 H   0  0  0  0  0  0  0  0  0  0  0  0
   -0.4566   -3.6116    2.6305 H   0  0  0  0  0  0  0  0  0  0  0  0
   -1.5410   -2.2321    2.5699 H   0  0  0  0  0  0  0  0  0  0  0  0
   -1.9800   -3.7394    1.7392 H   0  0  0  0  0  0  0  0  0  0  0  0
   -0.6610    0.5908   -1.2190 H   0  0  0  0  0  0  0  0  0  0  0  0
    2.0749    2.9270   -1.1012 H   0  0  0  0  0  0  0  0  0  0  0  0
    1.2257    1.7477   -2.0639 H   0  0  0  0  0  0  0  0  0  0  0  0
    3.7961    2.2937    0.5233 H   0  0  0  0  0  0  0  0  0  0  0  0
    1.7045   -0.6787   -1.7952 H   0  0  0  0  0  0  0  0  0  0  0  0
    0.8923    4.0426    1.3189 H   0  0  0  0  0  0  0  0  0  0  0  0
   -5.4317    0.2453    0.6865 H   0  0  0  0  0  0  0  0  0  0  0  0
    5.5046    0.6204    1.1213 H   0  0  0  0  0  0  0  0  0  0  0  0
    3.3601   -2.3276   -1.2229 H   0  0  0  0  0  0  0  0  0  0  0  0
    0.1823    6.2844    0.3631 H   0  0  0  0  0  0  0  0  0  0  0  0
   -0.5910    5.8041    1.8977 H   0  0  0  0  0  0  0  0  0  0  0  0
   -1.4696    5.6019    0.3517 H   0  0  0  0  0  0  0  0  0  0  0  0
   -6.4861   -1.9397    0.8922 H   0  0  0  0  0  0  0  0  0  0  0  0
    6.1872   -3.8129    0.1758 H   0  0  0  0  0  0  0  0  0  0  0  0
    5.4021   -3.2181   -1.2832 H   0  0  0  0  0  0  0  0  0  0  0  0
    4.4318   -3.6803    0.1842 H   0  0  0  0  0  0  0  0  0  0  0  0
  1 13  2  0  0  0  0
  2 18  2  0  0  0  0
  3 19  2  0  0  0  0
  4  8  1  0  0  0  0
  4 53  1  0  0  0  0
  5 25  1  0  0  0  0
  5 27  1  0  0  0  0
  6 13  1  0  0  0  0
  6 14  1  0  0  0  0
  6 41  1  0  0  0  0
  7 19  1  0  0  0  0
  7 26  1  0  0  0  0
  7 46  1  0  0  0  0
  8 18  1  0  0  0  0
  8 47  1  0  0  0  0
  9 10  1  0  0  0  0
  9 12  1  0  0  0  0
  9 13  1  0  0  0  0
  9 28  1  0  0  0  0
 10 11  1  0  0  0  0
 10 29  1  0  0  0  0
 10 30  1  0  0  0  0
 11 15  1  0  0  0  0
 11 16  1  0  0  0  0
 11 31  1  0  0  0  0
 12 18  1  0  0  0  0
 12 32  1  0  0  0  0
 12 33  1  0  0  0  0
 14 17  1  0  0  0  0
 14 19  1  0  0  0  0
 14 34  1  0  0  0  0
 15 35  1  0  0  0  0
 15 36  1  0  0  0  0
 15 37  1  0  0  0  0
 16 38  1  0  0  0  0
 16 39  1  0  0  0  0
 16 40  1  0  0  0  0
 17 20  1  0  0  0  0
 17 42  1  0  0  0  0
 17 43  1  0  0  0  0
 20 21  2  0  0  0  0
 20 22  1  0  0  0  0
 21 23  1  0  0  0  0
 21 44  1  0  0  0  0
 22 24  2  0  0  0  0
 22 45  1  0  0  0  0
 23 25  2  0  0  0  0
 23 48  1  0  0  0  0
 24 25  1  0  0  0  0
 24 49  1  0  0  0  0
 26 50  1  0  0  0  0
 26 51  1  0  0  0  0
 26 52  1  0  0  0  0
 27 54  1  0  0  0  0
 27 55  1  0  0  0  0
 27 56  1  0  0  0  0
M  END
> <PUBCHEM_COMPOUND_CID>
128564

> <PUBCHEM_CONFORMER_RMSD>
1.2

> <PUBCHEM_CONFORMER_DIVERSEORDER>
1
78
95
39
4
77
62
46
43
90
7
45
64
83
28
19
71
72
16
47
88
93
60
40
18
35
30
49
8
48
54
20
70
89
80
92
10
81
6
52
66
12
32
23
14
65
34
13
36
17
75
3
22
91
82
74
21
24
79
27
5
42
38
41
51
63
50
55
84
85
59
9
67
11
87
37
86
69
57
73
25
53
68
58
44
94
29
61
33
56
2
15
31
26
76

> <PUBCHEM_MMFF94_PARTIAL_CHARGES>
31
1 -0.57
12 0.06
13 0.57
14 0.36
17 0.14
18 0.57
19 0.57
2 -0.57
20 -0.14
21 -0.15
22 -0.15
23 -0.15
24 -0.15
25 0.08
26 0.3
27 0.28
3 -0.57
4 -0.44
41 0.37
44 0.15
45 0.15
46 0.37
47 0.37
48 0.15
49 0.15
5 -0.36
53 0.4
6 -0.73
7 -0.73
8 -0.39
9 0.06

> <PUBCHEM_EFFECTIVE_ROTOR_COUNT>
13

> <PUBCHEM_PHARMACOPHORE_FEATURES>
10
1 1 acceptor
1 2 acceptor
1 3 acceptor
1 5 acceptor
1 6 donor
1 7 donor
1 8 donor
3 11 15 16 hydrophobe
4 9 10 11 12 hydrophobe
6 20 21 22 23 24 25 rings

> <PUBCHEM_HEAVY_ATOM_COUNT>
27

> <PUBCHEM_ATOM_DEF_STEREO_COUNT>
2

> <PUBCHEM_ATOM_UDEF_STEREO_COUNT>
0

> <PUBCHEM_BOND_DEF_STEREO_COUNT>
0

> <PUBCHEM_BOND_UDEF_STEREO_COUNT>
0

> <PUBCHEM_ISOTOPIC_ATOM_COUNT>
0

> <PUBCHEM_COMPONENT_COUNT>
1

> <PUBCHEM_CACTVS_TAUTO_COUNT>
12

> <PUBCHEM_CONFORMER_ID>
0001F63400000001

> <PUBCHEM_MMFF94_ENERGY>
64.4197

> <PUBCHEM_FEATURE_SELFOVERLAP>
50.773

> <PUBCHEM_SHAPE_FINGERPRINT>
10693767 8 18198602502131303983
11646440 116 18408325496779027226
12166972 35 17967255290832216950
12553582 1 18266202658564962836
12788726 201 18337964410965739476
13004483 165 18343014493409803188
13140716 1 18336845155447286714
13533116 47 18343018908958131650
14068700 675 18409448051465190780
14725015 67 18340199683877580138
14866123 147 18122066398957247992
14955137 171 18409735088493426803
15420108 30 17402048894784765728
15439362 3 18049998089736409621
15927050 60 17546449977390048910
20832881 197 18410012152533209077
21478907 32 18338797818914555316
22113638 7 18270115863171291006
23419403 2 17631428181611617089
23558518 356 18049170973096316310
23559900 14 18053379095816474737
283562 15 18263926544682659832
3027735 51 18191866729983206794
463206 1 18337389434777302887
6004065 56 18197485428033399367
6138700 20 18335983081979934286
653340 110 18196363728878670930

> <PUBCHEM_SHAPE_MULTIPOLES>
511.36
10.58
5.87
1.24
1.99
6.82
-0.28
-9.78
1.68
0.14
-1.59
0.54
-0.23
-0.24

> <PUBCHEM_SHAPE_SELFOVERLAP>
1026.922

> <PUBCHEM_SHAPE_VOLUME>
300.5

> <PUBCHEM_COORDINATE_TYPE>
2
5
10

$$$$
