128639
  -OEChem-03292013323D

 52 55  0     1  0  0  0  0  0999 V2000
    4.2565    0.5355    0.9983 O   0  0  0  0  0  0  0  0  0  0  0  0
    4.6111   -2.0378   -0.8848 O   0  0  0  0  0  0  0  0  0  0  0  0
    6.1311   -0.0718   -2.0060 O   0  0  0  0  0  0  0  0  0  0  0  0
    6.4061    2.2050    1.7519 O   0  0  0  0  0  0  0  0  0  0  0  0
   -8.0032    0.8980   -0.2970 O   0  0  0  0  0  0  0  0  0  0  0  0
    2.0441    0.2602    0.1834 N   0  0  0  0  0  0  0  0  0  0  0  0
    0.5211    1.8651   -0.1045 N   0  0  0  0  0  0  0  0  0  0  0  0
    0.5799   -1.6662    0.4014 N   0  0  0  0  0  0  0  0  0  0  0  0
   -1.7672   -1.0230    0.2180 N   0  0  0  0  0  0  0  0  0  0  0  0
   -2.4552    1.2420   -0.1326 N   0  0  0  0  0  0  0  0  0  0  0  0
    4.0003   -0.7546   -1.0091 C   0  0  1  0  0  0  0  0  0  0  0  0
    3.3572   -0.3712    0.3248 C   0  0  1  0  0  0  0  0  0  0  0  0
    5.0405    0.3321   -1.2064 C   0  0  1  0  0  0  0  0  0  0  0  0
    5.4603    0.6397    0.2206 C   0  0  1  0  0  0  0  0  0  0  0  0
    6.0631    2.0228    0.3894 C   0  0  0  0  0  0  0  0  0  0  0  0
    0.8263   -0.3595    0.2243 C   0  0  0  0  0  0  0  0  0  0  0  0
    1.8069    1.5956   -0.0155 C   0  0  0  0  0  0  0  0  0  0  0  0
   -0.1034    0.6521    0.0436 C   0  0  0  0  0  0  0  0  0  0  0  0
   -1.4445    0.2813    0.0440 C   0  0  0  0  0  0  0  0  0  0  0  0
   -0.7500   -1.9027    0.3834 C   0  0  0  0  0  0  0  0  0  0  0  0
   -1.1552   -3.3275    0.5716 C   0  0  0  0  0  0  0  0  0  0  0  0
   -1.9020   -3.8918   -0.6508 C   0  0  0  0  0  0  0  0  0  0  0  0
   -1.9990   -3.5349    1.8428 C   0  0  0  0  0  0  0  0  0  0  0  0
   -3.8636    1.1551   -0.1745 C   0  0  0  0  0  0  0  0  0  0  0  0
   -4.6407    2.2308    0.2527 C   0  0  0  0  0  0  0  0  0  0  0  0
   -4.4755   -0.0071   -0.6424 C   0  0  0  0  0  0  0  0  0  0  0  0
   -6.0323    2.1443    0.2122 C   0  0  0  0  0  0  0  0  0  0  0  0
   -5.8671   -0.0937   -0.6830 C   0  0  0  0  0  0  0  0  0  0  0  0
   -6.6455    0.9821   -0.2558 C   0  0  0  0  0  0  0  0  0  0  0  0
    3.2989   -0.8119   -1.8478 H   0  0  0  0  0  0  0  0  0  0  0  0
    3.2209   -1.2361    0.9842 H   0  0  0  0  0  0  0  0  0  0  0  0
    4.5640    1.2068   -1.6660 H   0  0  0  0  0  0  0  0  0  0  0  0
    6.1633   -0.1120    0.6023 H   0  0  0  0  0  0  0  0  0  0  0  0
    5.3511    2.8087    0.1171 H   0  0  0  0  0  0  0  0  0  0  0  0
    6.9683    2.1420   -0.2127 H   0  0  0  0  0  0  0  0  0  0  0  0
    3.9012   -2.6821   -0.7209 H   0  0  0  0  0  0  0  0  0  0  0  0
    6.7616    0.6671   -2.0421 H   0  0  0  0  0  0  0  0  0  0  0  0
    2.6020    2.3247   -0.0921 H   0  0  0  0  0  0  0  0  0  0  0  0
    5.5945    2.0948    2.2763 H   0  0  0  0  0  0  0  0  0  0  0  0
   -0.2448   -3.9301    0.6932 H   0  0  0  0  0  0  0  0  0  0  0  0
   -2.1094    2.1978   -0.1204 H   0  0  0  0  0  0  0  0  0  0  0  0
   -2.8535   -3.3741   -0.8152 H   0  0  0  0  0  0  0  0  0  0  0  0
   -2.1159   -4.9574   -0.5156 H   0  0  0  0  0  0  0  0  0  0  0  0
   -1.2995   -3.7799   -1.5590 H   0  0  0  0  0  0  0  0  0  0  0  0
   -1.4647   -3.1693    2.7267 H   0  0  0  0  0  0  0  0  0  0  0  0
   -2.2164   -4.5976    1.9941 H   0  0  0  0  0  0  0  0  0  0  0  0
   -2.9530   -2.9992    1.7838 H   0  0  0  0  0  0  0  0  0  0  0  0
   -4.1750    3.1415    0.6205 H   0  0  0  0  0  0  0  0  0  0  0  0
   -3.9047   -0.8515   -1.0147 H   0  0  0  0  0  0  0  0  0  0  0  0
   -6.6333    2.9855    0.5464 H   0  0  0  0  0  0  0  0  0  0  0  0
   -6.3329   -1.0017   -1.0567 H   0  0  0  0  0  0  0  0  0  0  0  0
   -8.2545    0.0260   -0.6469 H   0  0  0  0  0  0  0  0  0  0  0  0
  1 12  1  0  0  0  0
  1 14  1  0  0  0  0
  2 11  1  0  0  0  0
  2 36  1  0  0  0  0
  3 13  1  0  0  0  0
  3 37  1  0  0  0  0
  4 15  1  0  0  0  0
  4 39  1  0  0  0  0
  5 29  1  0  0  0  0
  5 52  1  0  0  0  0
  6 12  1  0  0  0  0
  6 16  1  0  0  0  0
  6 17  1  0  0  0  0
  7 17  2  0  0  0  0
  7 18  1  0  0  0  0
  8 16  2  0  0  0  0
  8 20  1  0  0  0  0
  9 19  1  0  0  0  0
  9 20  2  0  0  0  0
 10 19  1  0  0  0  0
 10 24  1  0  0  0  0
 10 41  1  0  0  0  0
 11 12  1  0  0  0  0
 11 13  1  0  0  0  0
 11 30  1  0  0  0  0
 12 31  1  0  0  0  0
 13 14  1  0  0  0  0
 13 32  1  0  0  0  0
 14 15  1  0  0  0  0
 14 33  1  0  0  0  0
 15 34  1  0  0  0  0
 15 35  1  0  0  0  0
 16 18  1  0  0  0  0
 17 38  1  0  0  0  0
 18 19  2  0  0  0  0
 20 21  1  0  0  0  0
 21 22  1  0  0  0  0
 21 23  1  0  0  0  0
 21 40  1  0  0  0  0
 22 42  1  0  0  0  0
 22 43  1  0  0  0  0
 22 44  1  0  0  0  0
 23 45  1  0  0  0  0
 23 46  1  0  0  0  0
 23 47  1  0  0  0  0
 24 25  2  0  0  0  0
 24 26  1  0  0  0  0
 25 27  1  0  0  0  0
 25 48  1  0  0  0  0
 26 28  2  0  0  0  0
 26 49  1  0  0  0  0
 27 29  2  0  0  0  0
 27 50  1  0  0  0  0
 28 29  1  0  0  0  0
 28 51  1  0  0  0  0
M  END
> <PUBCHEM_COMPOUND_CID>
128639

> <PUBCHEM_CONFORMER_RMSD>
0.8

> <PUBCHEM_CONFORMER_DIVERSEORDER>
1
57
67
9
24
84
86
32
7
8
19
82
12
58
38
70
69
53
5
34
27
76
80
3
44
78
72
66
62
14
75
18
11
48
81
2
30
68
31
28
63
49
20
79
61
56
50
29
87
4
25
59
35
33
6
42
83
77
39
47
22
41
65
10
71
13
88
73
55
37
23
17
21
36
52
45
15
43
46
74
51
40
26
16
64
85
60
54

> <PUBCHEM_MMFF94_PARTIAL_CHARGES>
37
1 -0.56
10 -0.6
11 0.28
12 0.54
13 0.28
14 0.28
15 0.28
16 0.11
17 0.04
18 0.23
19 0.41
2 -0.68
20 0.48
21 0.14
24 0.1
25 -0.15
26 -0.15
27 -0.15
28 -0.15
29 0.08
3 -0.68
36 0.4
37 0.4
38 0.15
39 0.4
4 -0.68
41 0.4
48 0.15
49 0.15
5 -0.53
50 0.15
51 0.15
52 0.45
6 0.05
7 -0.57
8 -0.57
9 -0.62

> <PUBCHEM_EFFECTIVE_ROTOR_COUNT>
6

> <PUBCHEM_PHARMACOPHORE_FEATURES>
18
1 1 acceptor
1 10 cation
1 10 donor
1 2 acceptor
1 2 donor
1 3 acceptor
1 3 donor
1 4 acceptor
1 4 donor
1 5 donor
3 21 22 23 hydrophobe
3 6 7 17 cation
3 6 8 16 cation
3 8 9 20 cation
5 1 11 12 13 14 rings
5 6 7 16 17 18 rings
6 24 25 26 27 28 29 rings
6 8 9 16 18 19 20 rings

> <PUBCHEM_HEAVY_ATOM_COUNT>
29

> <PUBCHEM_ATOM_DEF_STEREO_COUNT>
4

> <PUBCHEM_ATOM_UDEF_STEREO_COUNT>
0

> <PUBCHEM_BOND_DEF_STEREO_COUNT>
0

> <PUBCHEM_BOND_UDEF_STEREO_COUNT>
0

> <PUBCHEM_ISOTOPIC_ATOM_COUNT>
0

> <PUBCHEM_COMPONENT_COUNT>
1

> <PUBCHEM_CACTVS_TAUTO_COUNT>
24

> <PUBCHEM_CONFORMER_ID>
0001F67F00000001

> <PUBCHEM_MMFF94_ENERGY>
76.1682

> <PUBCHEM_FEATURE_SELFOVERLAP>
91.968

> <PUBCHEM_SHAPE_FINGERPRINT>
10050765 1 18120374521546434400
10906281 52 18271259273459150493
11007060 377 18341617036033030625
11135609 187 18411983524936145417
11578080 2 16986575705720889403
11991303 11 17749114422013294651
12236239 1 17988641853302906353
12838862 33 18263624256991219661
12925494 130 18125430067511322016
13540713 4 18125446551568397048
14790565 3 18266462009964658633
15131766 46 14997717475432291598
15183329 4 17489310741854153013
15849732 13 17821736030775933285
15927050 60 18408601457451103947
17980427 23 17750511970332850596
18608769 82 18338518646910740467
18681886 176 18408599293145659209
19319366 153 17167856448557748610
21267235 1 18341898490030925965
21307412 95 18057628528512891958
21344244 181 17988371364520646055
21360443 126 18187366553988363135
21424621 283 18412546475079698425
21521721 280 18342461417976293513
22182313 1 18196399020177452031
22224240 67 18334292059736052537
23558518 356 17608094487469299984
23559900 14 18200305662321171472
23569943 247 17699019391792676503
23576562 1 17896898731355290381
24771293 8 18410848902220555532
3004659 81 18335704880622429894
3178227 256 18334587836975146713
335352 9 18409170974820035638
34797466 226 17275106128441068348
34934 24 18408598189111944450
4058900 60 17970071037511276897
4073 2 18338233881709096882
4258327 124 17969518158782021964
5486654 2 18408888417163387045
5758199 1 18411140208735427433
59755656 215 18272653403264547287
59755656 520 18408315593143592367
6669772 16 18341333297287464279

> <PUBCHEM_SHAPE_MULTIPOLES>
542.55
17.52
3.49
1.15
2.99
3.94
0.03
-12.75
-2.33
2.26
0.97
-1.46
0.36
1.5

> <PUBCHEM_SHAPE_SELFOVERLAP>
1176.057

> <PUBCHEM_SHAPE_VOLUME>
293.4

> <PUBCHEM_COORDINATE_TYPE>
2
5
10

$$$$
