128650
  -OEChem-03292013323D

 43 46  0     1  0  0  0  0  0999 V2000
    3.4340    0.0372   -0.9133 O   0  0  0  0  0  0  0  0  0  0  0  0
    3.9944    2.9461   -0.0446 O   0  0  0  0  0  0  0  0  0  0  0  0
   -4.5708   -1.0560   -1.2075 O   0  0  0  0  0  0  0  0  0  0  0  0
    5.8257   -1.3959   -0.7088 O   0  0  0  0  0  0  0  0  0  0  0  0
   -2.4375   -2.9428    0.4559 O   0  0  0  0  0  0  0  0  0  0  0  0
    1.2994   -0.4828   -0.0186 N   0  0  0  0  0  0  0  0  0  0  0  0
   -2.6741   -0.6180    0.1064 N   0  0  0  0  0  0  0  0  0  0  0  0
   -2.8506    1.7696   -0.3058 N   0  0  0  0  0  0  0  0  0  0  0  0
   -0.7387    0.7992   -0.2001 N   0  0  0  0  0  0  0  0  0  0  0  0
    0.4675   -2.5231    0.3526 N   0  0  0  0  0  0  0  0  0  0  0  0
    2.2894    0.5682   -0.2233 C   0  0  1  0  0  0  0  0  0  0  0  0
    2.8063    1.2004    1.0609 C   0  0  0  0  0  0  0  0  0  0  0  0
    4.1656    1.7006    0.6284 C   0  0  1  0  0  0  0  0  0  0  0  0
    4.6257    0.6410   -0.3673 C   0  0  1  0  0  0  0  0  0  0  0  0
   -4.3006    1.7639   -0.3133 C   0  0  1  0  0  0  0  0  0  0  0  0
   -4.1367   -0.7027    0.1034 C   0  0  1  0  0  0  0  0  0  0  0  0
   -4.7984    0.5998    0.5425 C   0  0  0  0  0  0  0  0  0  0  0  0
   -0.0577   -0.3476   -0.0130 C   0  0  0  0  0  0  0  0  0  0  0  0
   -2.0483    0.6545   -0.1396 C   0  0  0  0  0  0  0  0  0  0  0  0
    5.4545   -0.4568    0.2851 C   0  0  0  0  0  0  0  0  0  0  0  0
   -0.5375   -1.6100    0.2176 C   0  0  0  0  0  0  0  0  0  0  0  0
   -1.9551   -1.8296    0.2818 C   0  0  0  0  0  0  0  0  0  0  0  0
    1.5670   -1.8105    0.2057 C   0  0  0  0  0  0  0  0  0  0  0  0
   -4.8232    3.0951    0.2151 C   0  0  0  0  0  0  0  0  0  0  0  0
    1.8354    1.3166   -0.8836 H   0  0  0  0  0  0  0  0  0  0  0  0
    2.9176    0.4471    1.8498 H   0  0  0  0  0  0  0  0  0  0  0  0
    2.1356    1.9860    1.4222 H   0  0  0  0  0  0  0  0  0  0  0  0
    4.8568    1.8638    1.4594 H   0  0  0  0  0  0  0  0  0  0  0  0
    5.1750    1.0781   -1.2091 H   0  0  0  0  0  0  0  0  0  0  0  0
   -4.6427    1.6366   -1.3471 H   0  0  0  0  0  0  0  0  0  0  0  0
   -4.5638    0.7831    1.5992 H   0  0  0  0  0  0  0  0  0  0  0  0
   -5.8880    0.5193    0.4500 H   0  0  0  0  0  0  0  0  0  0  0  0
   -4.4537   -1.5089    0.7746 H   0  0  0  0  0  0  0  0  0  0  0  0
    4.8797   -0.9971    1.0435 H   0  0  0  0  0  0  0  0  0  0  0  0
    6.3612   -0.0567    0.7489 H   0  0  0  0  0  0  0  0  0  0  0  0
   -2.3950    2.6543   -0.5142 H   0  0  0  0  0  0  0  0  0  0  0  0
    2.5742   -2.2014    0.2566 H   0  0  0  0  0  0  0  0  0  0  0  0
   -4.4760    3.9247   -0.4106 H   0  0  0  0  0  0  0  0  0  0  0  0
   -5.9180    3.1102    0.2195 H   0  0  0  0  0  0  0  0  0  0  0  0
   -4.4738    3.2850    1.2362 H   0  0  0  0  0  0  0  0  0  0  0  0
    3.5018    2.7950   -0.8684 H   0  0  0  0  0  0  0  0  0  0  0  0
   -4.0496   -1.8298   -1.4797 H   0  0  0  0  0  0  0  0  0  0  0  0
    6.3702   -0.9304   -1.3663 H   0  0  0  0  0  0  0  0  0  0  0  0
  1 11  1  0  0  0  0
  1 14  1  0  0  0  0
  2 13  1  0  0  0  0
  2 41  1  0  0  0  0
  3 16  1  0  0  0  0
  3 42  1  0  0  0  0
  4 20  1  0  0  0  0
  4 43  1  0  0  0  0
  5 22  2  0  0  0  0
  6 11  1  0  0  0  0
  6 18  1  0  0  0  0
  6 23  1  0  0  0  0
  7 16  1  0  0  0  0
  7 19  1  0  0  0  0
  7 22  1  0  0  0  0
  8 15  1  0  0  0  0
  8 19  1  0  0  0  0
  8 36  1  0  0  0  0
  9 18  1  0  0  0  0
  9 19  2  0  0  0  0
 10 21  1  0  0  0  0
 10 23  2  0  0  0  0
 11 12  1  0  0  0  0
 11 25  1  0  0  0  0
 12 13  1  0  0  0  0
 12 26  1  0  0  0  0
 12 27  1  0  0  0  0
 13 14  1  0  0  0  0
 13 28  1  0  0  0  0
 14 20  1  0  0  0  0
 14 29  1  0  0  0  0
 15 17  1  0  0  0  0
 15 24  1  0  0  0  0
 15 30  1  0  0  0  0
 16 17  1  0  0  0  0
 16 33  1  0  0  0  0
 17 31  1  0  0  0  0
 17 32  1  0  0  0  0
 18 21  2  0  0  0  0
 20 34  1  0  0  0  0
 20 35  1  0  0  0  0
 21 22  1  0  0  0  0
 23 37  1  0  0  0  0
 24 38  1  0  0  0  0
 24 39  1  0  0  0  0
 24 40  1  0  0  0  0
M  END
> <PUBCHEM_COMPOUND_CID>
128650

> <PUBCHEM_CONFORMER_RMSD>
0.6

> <PUBCHEM_CONFORMER_DIVERSEORDER>
1
4
15
21
18
26
20
17
28
9
23
5
2
10
19
29
8
24
27
13
25
3
16
14
7
12
22
11
6

> <PUBCHEM_MMFF94_PARTIAL_CHARGES>
26
1 -0.56
10 -0.57
11 0.54
13 0.28
14 0.28
15 0.37
16 0.58
18 -0.03
19 0.56
2 -0.68
20 0.28
21 0.14
22 0.72
23 0.04
3 -0.68
36 0.4
37 0.15
4 -0.68
41 0.4
42 0.4
43 0.4
5 -0.57
6 0.05
7 -0.42
8 -0.82
9 -0.58

> <PUBCHEM_EFFECTIVE_ROTOR_COUNT>
3.8

> <PUBCHEM_PHARMACOPHORE_FEATURES>
14
1 1 acceptor
1 2 acceptor
1 2 donor
1 3 acceptor
1 3 donor
1 4 acceptor
1 4 donor
1 5 acceptor
1 8 donor
3 6 10 23 cation
5 1 11 12 13 14 rings
5 6 10 18 21 23 rings
6 7 8 15 16 17 19 rings
6 7 9 18 19 21 22 rings

> <PUBCHEM_HEAVY_ATOM_COUNT>
24

> <PUBCHEM_ATOM_DEF_STEREO_COUNT>
5

> <PUBCHEM_ATOM_UDEF_STEREO_COUNT>
0

> <PUBCHEM_BOND_DEF_STEREO_COUNT>
0

> <PUBCHEM_BOND_UDEF_STEREO_COUNT>
0

> <PUBCHEM_ISOTOPIC_ATOM_COUNT>
0

> <PUBCHEM_COMPONENT_COUNT>
1

> <PUBCHEM_CACTVS_TAUTO_COUNT>
3

> <PUBCHEM_CONFORMER_ID>
0001F68A00000001

> <PUBCHEM_MMFF94_ENERGY>
50.2902

> <PUBCHEM_FEATURE_SELFOVERLAP>
71.224

> <PUBCHEM_SHAPE_FINGERPRINT>
10319926 262 18267007523015302408
10411042 1 17688875654429643011
10646746 165 18410292544977603496
11405975 8 18409447012072458058
11595378 159 16443622376921354517
12107183 9 18190449468712582410
12236239 1 17313101986321639756
12390115 104 18269851847721863481
12403259 415 18342460378515352696
12403260 363 18338226163230885668
12788726 201 16883870415118295218
13140716 1 17902518413221680275
14251764 18 18261106371242224930
14251764 38 18339923839275920884
14790565 3 18410016494455339249
15042514 8 18118129293338901347
15196674 1 18411136969707496288
17844677 252 18337679710231264432
200 152 17346882273102913826
20510252 161 18196094558482214010
20645477 56 18335424543289527343
20645477 70 17274834553737930654
21033648 29 18341886420181301280
21065198 57 18339080492629863288
21236236 1 18412544336333281455
21279426 13 18341615859037664524
21709351 56 18411975845323714940
23227448 37 18339923830733082429
23402539 116 18342735204392020364
23558518 356 18043536220790758650
23559900 14 18341896316476416928
25147074 1 18265035960974888931
2838139 119 18340762663731962917
2916195 48 18130496531165711792
3004659 81 18261118427474407470
335352 9 18338235969036796702
350125 39 18263082119931875692
351380 180 18343581858842623868
3545911 37 18336829697838830661
4214541 1 18410575089174473448
474 4 17822016401803636437
495365 180 17417805197691249544
5104073 3 18188778215481101321
59124914 9 18337392621647934656
59755656 215 18338802191702829374
6138700 20 18267026064410750150
6328613 192 18187373172970842548
633830 44 18412537726157138668
7064713 232 18260552212285590325
7808743 9 18336826514999396456
9709674 26 18341900692346978630
9981440 41 18335134310922551835
9996256 80 18413108376929204371

> <PUBCHEM_SHAPE_MULTIPOLES>
439.66
12.33
2.98
0.8
5.03
0.38
-0.01
5.14
-0.87
-1.57
0.33
0.12
0.01
0.33

> <PUBCHEM_SHAPE_SELFOVERLAP>
955.957

> <PUBCHEM_SHAPE_VOLUME>
234.9

> <PUBCHEM_COORDINATE_TYPE>
2
5
10

$$$$
