128777
  -OEChem-03292013323D

 67 68  0     1  0  0  0  0  0999 V2000
    7.3010   -0.0289   -0.0887 F   0  0  0  0  0  0  0  0  0  0  0  0
    7.4333    1.4649    1.4911 F   0  0  0  0  0  0  0  0  0  0  0  0
    7.8744    2.0162   -0.5720 F   0  0  0  0  0  0  0  0  0  0  0  0
   -0.0804   -0.3546   -1.2383 O   0  0  0  0  0  0  0  0  0  0  0  0
    2.8686   -1.5618    0.4066 O   0  0  0  0  0  0  0  0  0  0  0  0
    5.1920    2.7621    0.2412 O   0  0  0  0  0  0  0  0  0  0  0  0
   -4.5706   -0.1204    0.0580 O   0  0  0  0  0  0  0  0  0  0  0  0
   -3.6612   -1.5495    1.6088 O   0  0  0  0  0  0  0  0  0  0  0  0
    0.3323   -0.9275    0.9657 N   0  0  0  0  0  0  0  0  0  0  0  0
    3.4051    0.6888    0.1501 N   0  0  0  0  0  0  0  0  0  0  0  0
   -2.6315   -1.1552   -0.4336 N   0  0  0  0  0  0  0  0  0  0  0  0
    1.3457    0.0892    1.2151 C   0  0  1  0  0  0  0  0  0  0  0  0
    1.4909    0.1274    2.7321 C   0  0  0  0  0  0  0  0  0  0  0  0
    1.1353   -1.2948    3.1585 C   0  0  0  0  0  0  0  0  0  0  0  0
    0.0430   -1.6912    2.1768 C   0  0  0  0  0  0  0  0  0  0  0  0
   -0.3537   -1.0163   -0.2356 C   0  0  0  0  0  0  0  0  0  0  0  0
   -1.4886   -2.0086   -0.2638 C   0  0  2  0  0  0  0  0  0  0  0  0
    2.6064   -0.3701    0.5466 C   0  0  0  0  0  0  0  0  0  0  0  0
   -1.3235   -3.0306   -1.3933 C   0  0  0  0  0  0  0  0  0  0  0  0
    4.6850    0.5144   -0.4975 C   0  0  1  0  0  0  0  0  0  0  0  0
    4.5958    0.4631   -2.0343 C   0  0  0  0  0  0  0  0  0  0  0  0
   -2.4998   -4.0129   -1.4178 C   0  0  0  0  0  0  0  0  0  0  0  0
   -0.0153   -3.8157   -1.2464 C   0  0  0  0  0  0  0  0  0  0  0  0
    5.6030    1.6282   -0.0063 C   0  0  0  0  0  0  0  0  0  0  0  0
    3.6787    1.5696   -2.5652 C   0  0  0  0  0  0  0  0  0  0  0  0
    4.1340   -0.8943   -2.5741 C   0  0  0  0  0  0  0  0  0  0  0  0
   -3.6251   -0.9944    0.5156 C   0  0  0  0  0  0  0  0  0  0  0  0
    7.0486    1.2719    0.2046 C   0  0  0  0  0  0  0  0  0  0  0  0
   -5.6635    0.1389    0.9465 C   0  0  0  0  0  0  0  0  0  0  0  0
   -6.6033    1.1112    0.2963 C   0  0  0  0  0  0  0  0  0  0  0  0
   -6.4257    2.4825    0.4807 C   0  0  0  0  0  0  0  0  0  0  0  0
   -7.6542    0.6441   -0.4930 C   0  0  0  0  0  0  0  0  0  0  0  0
   -7.2991    3.3865   -0.1238 C   0  0  0  0  0  0  0  0  0  0  0  0
   -8.5276    1.5483   -1.0977 C   0  0  0  0  0  0  0  0  0  0  0  0
   -8.3500    2.9194   -0.9130 C   0  0  0  0  0  0  0  0  0  0  0  0
    1.0160    1.0490    0.8025 H   0  0  0  0  0  0  0  0  0  0  0  0
    2.4873    0.4244    3.0732 H   0  0  0  0  0  0  0  0  0  0  0  0
    0.7595    0.8255    3.1572 H   0  0  0  0  0  0  0  0  0  0  0  0
    2.0066   -1.9496    3.0398 H   0  0  0  0  0  0  0  0  0  0  0  0
    0.8064   -1.3569    4.1995 H   0  0  0  0  0  0  0  0  0  0  0  0
    0.0533   -2.7661    1.9754 H   0  0  0  0  0  0  0  0  0  0  0  0
   -0.9437   -1.3914    2.5448 H   0  0  0  0  0  0  0  0  0  0  0  0
   -1.6085   -2.5542    0.6719 H   0  0  0  0  0  0  0  0  0  0  0  0
   -1.2996   -2.5134   -2.3617 H   0  0  0  0  0  0  0  0  0  0  0  0
    5.0933   -0.4335   -0.1282 H   0  0  0  0  0  0  0  0  0  0  0  0
    3.0815    1.6381    0.3144 H   0  0  0  0  0  0  0  0  0  0  0  0
    5.6009    0.6406   -2.4401 H   0  0  0  0  0  0  0  0  0  0  0  0
   -2.7104   -0.6169   -1.2919 H   0  0  0  0  0  0  0  0  0  0  0  0
   -2.3751   -4.7472   -2.2209 H   0  0  0  0  0  0  0  0  0  0  0  0
   -3.4469   -3.4929   -1.5945 H   0  0  0  0  0  0  0  0  0  0  0  0
   -2.5827   -4.5586   -0.4716 H   0  0  0  0  0  0  0  0  0  0  0  0
    0.0733   -4.5713   -2.0346 H   0  0  0  0  0  0  0  0  0  0  0  0
    0.8575   -3.1602   -1.3274 H   0  0  0  0  0  0  0  0  0  0  0  0
    0.0331   -4.3297   -0.2804 H   0  0  0  0  0  0  0  0  0  0  0  0
    2.6346    1.4158   -2.2722 H   0  0  0  0  0  0  0  0  0  0  0  0
    3.7080    1.5911   -3.6605 H   0  0  0  0  0  0  0  0  0  0  0  0
    3.9945    2.5568   -2.2139 H   0  0  0  0  0  0  0  0  0  0  0  0
    3.0999   -1.1117   -2.2892 H   0  0  0  0  0  0  0  0  0  0  0  0
    4.1877   -0.9115   -3.6679 H   0  0  0  0  0  0  0  0  0  0  0  0
    4.7715   -1.7001   -2.1959 H   0  0  0  0  0  0  0  0  0  0  0  0
   -5.2839    0.5522    1.8893 H   0  0  0  0  0  0  0  0  0  0  0  0
   -6.1862   -0.7985    1.1736 H   0  0  0  0  0  0  0  0  0  0  0  0
   -5.6093    2.8587    1.0914 H   0  0  0  0  0  0  0  0  0  0  0  0
   -7.8017   -0.4216   -0.6461 H   0  0  0  0  0  0  0  0  0  0  0  0
   -7.1606    4.4541    0.0193 H   0  0  0  0  0  0  0  0  0  0  0  0
   -9.3456    1.1848   -1.7127 H   0  0  0  0  0  0  0  0  0  0  0  0
   -9.0298    3.6233   -1.3841 H   0  0  0  0  0  0  0  0  0  0  0  0
  1 28  1  0  0  0  0
  2 28  1  0  0  0  0
  3 28  1  0  0  0  0
  4 16  2  0  0  0  0
  5 18  2  0  0  0  0
  6 24  2  0  0  0  0
  7 27  1  0  0  0  0
  7 29  1  0  0  0  0
  8 27  2  0  0  0  0
  9 12  1  0  0  0  0
  9 15  1  0  0  0  0
  9 16  1  0  0  0  0
 10 18  1  0  0  0  0
 10 20  1  0  0  0  0
 10 46  1  0  0  0  0
 11 17  1  0  0  0  0
 11 27  1  0  0  0  0
 11 48  1  0  0  0  0
 12 13  1  0  0  0  0
 12 18  1  0  0  0  0
 12 36  1  0  0  0  0
 13 14  1  0  0  0  0
 13 37  1  0  0  0  0
 13 38  1  0  0  0  0
 14 15  1  0  0  0  0
 14 39  1  0  0  0  0
 14 40  1  0  0  0  0
 15 41  1  0  0  0  0
 15 42  1  0  0  0  0
 16 17  1  0  0  0  0
 17 19  1  0  0  0  0
 17 43  1  0  0  0  0
 19 22  1  0  0  0  0
 19 23  1  0  0  0  0
 19 44  1  0  0  0  0
 20 21  1  0  0  0  0
 20 24  1  0  0  0  0
 20 45  1  0  0  0  0
 21 25  1  0  0  0  0
 21 26  1  0  0  0  0
 21 47  1  0  0  0  0
 22 49  1  0  0  0  0
 22 50  1  0  0  0  0
 22 51  1  0  0  0  0
 23 52  1  0  0  0  0
 23 53  1  0  0  0  0
 23 54  1  0  0  0  0
 24 28  1  0  0  0  0
 25 55  1  0  0  0  0
 25 56  1  0  0  0  0
 25 57  1  0  0  0  0
 26 58  1  0  0  0  0
 26 59  1  0  0  0  0
 26 60  1  0  0  0  0
 29 30  1  0  0  0  0
 29 61  1  0  0  0  0
 29 62  1  0  0  0  0
 30 31  2  0  0  0  0
 30 32  1  0  0  0  0
 31 33  1  0  0  0  0
 31 63  1  0  0  0  0
 32 34  2  0  0  0  0
 32 64  1  0  0  0  0
 33 35  2  0  0  0  0
 33 65  1  0  0  0  0
 34 35  1  0  0  0  0
 34 66  1  0  0  0  0
 35 67  1  0  0  0  0
M  END
> <PUBCHEM_COMPOUND_CID>
128777

> <PUBCHEM_CONFORMER_RMSD>
1.2

> <PUBCHEM_CONFORMER_DIVERSEORDER>
1
25
36
82
65
57
72
121
78
117
63
85
43
107
88
99
70
27
95
83
16
122
48
37
87
108
97
115
45
31
102
79
60
90
39
54
73
68
4
7
35
92
93
62
91
116
104
14
114
8
20
109
15
52
94
76
105
22
84
101
6
110
61
111
106
120
17
77
119
46
103
66
118
29
86
11
38
5
26
69
50
56
18
13
49
89
113
19
53
12
23
47
75
55
80
41
3
42
96
81
28
32
59
30
33
58
40
34
9
44
51
21
74
100
67
71
64
98
112
24
10
2

> <PUBCHEM_MMFF94_PARTIAL_CHARGES>
34
1 -0.34
10 -0.73
11 -0.73
12 0.36
15 0.3
16 0.57
17 0.36
18 0.57
2 -0.34
20 0.36
24 0.45
27 0.78
28 1.08
29 0.42
3 -0.34
30 -0.14
31 -0.15
32 -0.15
33 -0.15
34 -0.15
35 -0.15
4 -0.57
46 0.37
48 0.37
5 -0.57
6 -0.57
63 0.15
64 0.15
65 0.15
66 0.15
67 0.15
7 -0.43
8 -0.57
9 -0.66

> <PUBCHEM_EFFECTIVE_ROTOR_COUNT>
15

> <PUBCHEM_PHARMACOPHORE_FEATURES>
10
1 10 donor
1 11 donor
1 4 acceptor
1 5 acceptor
1 6 acceptor
1 8 acceptor
3 19 22 23 hydrophobe
3 21 25 26 hydrophobe
5 9 12 13 14 15 rings
6 30 31 32 33 34 35 rings

> <PUBCHEM_HEAVY_ATOM_COUNT>
35

> <PUBCHEM_ATOM_DEF_STEREO_COUNT>
2

> <PUBCHEM_ATOM_UDEF_STEREO_COUNT>
1

> <PUBCHEM_BOND_DEF_STEREO_COUNT>
0

> <PUBCHEM_BOND_UDEF_STEREO_COUNT>
0

> <PUBCHEM_ISOTOPIC_ATOM_COUNT>
0

> <PUBCHEM_COMPONENT_COUNT>
1

> <PUBCHEM_CACTVS_TAUTO_COUNT>
8

> <PUBCHEM_CONFORMER_ID>
0001F70900000001

> <PUBCHEM_MMFF94_ENERGY>
73.8416

> <PUBCHEM_FEATURE_SELFOVERLAP>
50.747

> <PUBCHEM_SHAPE_FINGERPRINT>
10006869 2 18042112185766195441
10675989 125 17844829004901814006
10835480 77 17417814006595398680
11497681 19 11311793747770984164
12166972 35 11455885871645276091
12218070 45 15213597757593680761
13540713 4 16556762325494192107
13782708 43 10735867336838378291
14150023 24 18410288095181313475
14251757 52 18335980891973491569
15183329 4 14836123247904012861
15781502 685 17560240211192134201
17134984 74 13901899007965525629
19053607 189 18126272053385014729
19315092 285 12031237135006562838
1979834 28 14201688511717075979
20715895 44 18272940435934272022
20721686 146 18260264106390934821
21756936 100 18114460175264598787
2260408 40 14851895695228721147
23559900 14 16486695900302055522
25025965 108 14259695399492868356
2747138 104 11097853020888528094
3178227 256 15140679185653154208
3918712 181 18269550555972277393
392239 28 16081369695474693203
4093350 32 18114179701247415922
44802255 64 18201726201495836327
6004065 56 14189568642056528570
6009941 240 17846222210782956510
636775 8 8502379957769856000

> <PUBCHEM_SHAPE_MULTIPOLES>
654.17
23.68
3.84
2.37
19.43
1.92
0.68
-29.49
-5.29
3.71
-1.65
-2.52
0.83
0.34

> <PUBCHEM_SHAPE_SELFOVERLAP>
1349.849

> <PUBCHEM_SHAPE_VOLUME>
376.9

> <PUBCHEM_COORDINATE_TYPE>
2
5
10

$$$$
