128753
  -OEChem-03292013323D

 41 42  0     0  0  0  0  0  0999 V2000
    2.9278    0.0463   -0.8273 O   0  0  0  0  0  0  0  0  0  0  0  0
   -2.9287    0.0377   -0.8267 O   0  0  0  0  0  0  0  0  0  0  0  0
    3.1021    0.3097    1.4528 O   0  0  0  0  0  0  0  0  0  0  0  0
   -3.1020    0.2983    1.4539 O   0  0  0  0  0  0  0  0  0  0  0  0
    0.0032   -2.2923   -2.7090 O   0  5  0  0  0  0  0  0  0  0  0  0
   -0.0006   -0.2023   -2.0239 O   0  0  0  0  0  0  0  0  0  0  0  0
   -0.0055    3.2234   -0.0361 N   0  0  0  0  0  0  0  0  0  0  0  0
    0.0021   -1.4338   -1.7975 N   0  3  0  0  0  0  0  0  0  0  0  0
   -0.0004    0.4595    0.3956 C   0  0  0  0  0  0  0  0  0  0  0  0
    1.2009    1.1536    0.2874 C   0  0  0  0  0  0  0  0  0  0  0  0
   -1.2043    1.1491    0.2877 C   0  0  0  0  0  0  0  0  0  0  0  0
    0.0023   -0.9744    0.6191 C   0  0  0  0  0  0  0  0  0  0  0  0
    1.1446    2.5214    0.0736 C   0  0  0  0  0  0  0  0  0  0  0  0
   -1.1530    2.5172    0.0743 C   0  0  0  0  0  0  0  0  0  0  0  0
    0.0029   -1.8773   -0.4442 C   0  0  0  0  0  0  0  0  0  0  0  0
    0.0037   -1.4439    1.9327 C   0  0  0  0  0  0  0  0  0  0  0  0
    2.3994    3.3235   -0.0513 C   0  0  0  0  0  0  0  0  0  0  0  0
   -2.4107    3.3145   -0.0504 C   0  0  0  0  0  0  0  0  0  0  0  0
    2.4891    0.4751    0.3934 C   0  0  0  0  0  0  0  0  0  0  0  0
   -2.4900    0.4658    0.3943 C   0  0  0  0  0  0  0  0  0  0  0  0
    0.0051   -3.2496   -0.1938 C   0  0  0  0  0  0  0  0  0  0  0  0
    0.0057   -2.8161    2.1829 C   0  0  0  0  0  0  0  0  0  0  0  0
    0.0063   -3.7189    1.1198 C   0  0  0  0  0  0  0  0  0  0  0  0
    4.1850   -0.6380   -0.8539 C   0  0  0  0  0  0  0  0  0  0  0  0
   -4.1848   -0.6486   -0.8532 C   0  0  0  0  0  0  0  0  0  0  0  0
    0.0031   -0.7554    2.7746 H   0  0  0  0  0  0  0  0  0  0  0  0
    2.1710    4.3835   -0.2077 H   0  0  0  0  0  0  0  0  0  0  0  0
    2.9999    3.2473    0.8607 H   0  0  0  0  0  0  0  0  0  0  0  0
    2.9917    2.9846   -0.9071 H   0  0  0  0  0  0  0  0  0  0  0  0
   -3.0016    2.9739   -0.9065 H   0  0  0  0  0  0  0  0  0  0  0  0
   -2.1864    4.3754   -0.2060 H   0  0  0  0  0  0  0  0  0  0  0  0
   -3.0112    3.2354    0.8615 H   0  0  0  0  0  0  0  0  0  0  0  0
    0.0058   -3.9873   -0.9921 H   0  0  0  0  0  0  0  0  0  0  0  0
    0.0067   -3.1816    3.2056 H   0  0  0  0  0  0  0  0  0  0  0  0
    0.0079   -4.7873    1.3154 H   0  0  0  0  0  0  0  0  0  0  0  0
    4.1308   -1.5481   -0.2493 H   0  0  0  0  0  0  0  0  0  0  0  0
    4.3995   -0.9151   -1.8893 H   0  0  0  0  0  0  0  0  0  0  0  0
    4.9804    0.0203   -0.4925 H   0  0  0  0  0  0  0  0  0  0  0  0
   -4.1288   -1.5594   -0.2497 H   0  0  0  0  0  0  0  0  0  0  0  0
   -4.3996   -0.9249   -1.8888 H   0  0  0  0  0  0  0  0  0  0  0  0
   -4.9811    0.0081   -0.4905 H   0  0  0  0  0  0  0  0  0  0  0  0
  1 19  1  0  0  0  0
  1 24  1  0  0  0  0
  2 20  1  0  0  0  0
  2 25  1  0  0  0  0
  3 19  2  0  0  0  0
  4 20  2  0  0  0  0
  5  8  1  0  0  0  0
  6  8  2  0  0  0  0
  7 13  2  0  0  0  0
  7 14  1  0  0  0  0
  8 15  1  0  0  0  0
  9 10  2  0  0  0  0
  9 11  1  0  0  0  0
  9 12  1  0  0  0  0
 10 13  1  0  0  0  0
 10 19  1  0  0  0  0
 11 14  2  0  0  0  0
 11 20  1  0  0  0  0
 12 15  1  0  0  0  0
 12 16  2  0  0  0  0
 13 17  1  0  0  0  0
 14 18  1  0  0  0  0
 15 21  2  0  0  0  0
 16 22  1  0  0  0  0
 16 26  1  0  0  0  0
 17 27  1  0  0  0  0
 17 28  1  0  0  0  0
 17 29  1  0  0  0  0
 18 30  1  0  0  0  0
 18 31  1  0  0  0  0
 18 32  1  0  0  0  0
 21 23  1  0  0  0  0
 21 33  1  0  0  0  0
 22 23  2  0  0  0  0
 22 34  1  0  0  0  0
 23 35  1  0  0  0  0
 24 36  1  0  0  0  0
 24 37  1  0  0  0  0
 24 38  1  0  0  0  0
 25 39  1  0  0  0  0
 25 40  1  0  0  0  0
 25 41  1  0  0  0  0
M  CHG  2   5  -1   8   1
M  END
> <PUBCHEM_COMPOUND_CID>
128753

> <PUBCHEM_CONFORMER_RMSD>
0.8

> <PUBCHEM_CONFORMER_DIVERSEORDER>
1
2
3
4

> <PUBCHEM_MMFF94_PARTIAL_CHARGES>
27
1 -0.43
10 0.09
11 0.09
13 0.17
14 0.17
15 0.13
16 -0.15
17 0.14
18 0.14
19 0.63
2 -0.43
20 0.63
21 -0.15
22 -0.15
23 -0.15
24 0.28
25 0.28
26 0.15
3 -0.57
33 0.15
34 0.15
35 0.15
4 -0.57
5 -0.52
6 -0.52
7 -0.62
8 0.91

> <PUBCHEM_EFFECTIVE_ROTOR_COUNT>
6

> <PUBCHEM_PHARMACOPHORE_FEATURES>
8
1 3 acceptor
1 4 acceptor
1 5 acceptor
1 5 anion
1 6 acceptor
1 7 acceptor
6 12 15 16 21 22 23 rings
6 7 9 10 11 13 14 rings

> <PUBCHEM_HEAVY_ATOM_COUNT>
25

> <PUBCHEM_ATOM_DEF_STEREO_COUNT>
0

> <PUBCHEM_ATOM_UDEF_STEREO_COUNT>
0

> <PUBCHEM_BOND_DEF_STEREO_COUNT>
0

> <PUBCHEM_BOND_UDEF_STEREO_COUNT>
0

> <PUBCHEM_ISOTOPIC_ATOM_COUNT>
0

> <PUBCHEM_COMPONENT_COUNT>
1

> <PUBCHEM_CACTVS_TAUTO_COUNT>
1

> <PUBCHEM_CONFORMER_ID>
0001F6F100000001

> <PUBCHEM_MMFF94_ENERGY>
99.6593

> <PUBCHEM_FEATURE_SELFOVERLAP>
40.679

> <PUBCHEM_SHAPE_FINGERPRINT>
10863032 1 15574713599086630825
1100329 8 18191286376896038683
12035758 1 18050322350670206938
13140716 1 18263646345158372681
14178342 30 18196358235020154273
14790565 3 18264228970410646384
16945 1 18409729564516351656
20028762 73 18198918096280896707
20602899 9 16412970393551390036
20691752 17 18339658809865675597
20739085 24 18118434875830121937
20905425 154 17691405209592743656
21421861 104 18191867830312447585
229495 10 16662298802941039642
2334 1 17976258267933294769
23419403 2 16976527234504962175
23557571 272 15390053524852803190
23566358 2 17904475560561076279
2748010 2 17907311192601672200
34934 24 17977941611762062312
81228 2 18054773238095186466

> <PUBCHEM_SHAPE_MULTIPOLES>
469.31
4.59
4.56
1.77
0.03
0.07
0.5
-0.04
-0.83
1.62
0.81
-1.66
-0.02
-0.02

> <PUBCHEM_SHAPE_SELFOVERLAP>
1018.77

> <PUBCHEM_SHAPE_VOLUME>
258.2

> <PUBCHEM_COORDINATE_TYPE>
2
5
10

$$$$
