128772
  -OEChem-03292013323D

 45 46  0     1  0  0  0  0  0999 V2000
   -5.2633    0.2513    0.1712 S   0  0  0  0  0  0  0  0  0  0  0  0
    4.7396   -1.8715   -0.6173 O   0  0  0  0  0  0  0  0  0  0  0  0
   -0.4614    2.4334   -0.6009 O   0  0  0  0  0  0  0  0  0  0  0  0
    0.3882   -1.4249   -0.0397 O   0  0  0  0  0  0  0  0  0  0  0  0
   -6.0310   -0.8170    0.7954 O   0  0  0  0  0  0  0  0  0  0  0  0
   -5.3304    1.6016    0.7124 O   0  0  0  0  0  0  0  0  0  0  0  0
    3.7790    0.0695    0.3130 N   0  0  0  0  0  0  0  0  0  0  0  0
    1.0170    1.0297    0.5073 N   0  0  0  0  0  0  0  0  0  0  0  0
   -5.6486    0.3077   -1.4925 N   0  0  0  0  0  0  0  0  0  0  0  0
    3.3298    1.3595   -0.1820 C   0  0  1  0  0  0  0  0  0  0  0  0
    3.0326    1.0645   -1.6476 C   0  0  0  0  0  0  0  0  0  0  0  0
    4.0432   -0.0163   -2.0102 C   0  0  0  0  0  0  0  0  0  0  0  0
    2.1243    1.9370    0.5438 C   0  0  0  0  0  0  0  0  0  0  0  0
    4.2328   -0.7634   -0.7116 C   0  0  0  0  0  0  0  0  0  0  0  0
    3.9252   -0.2204    1.7258 C   0  0  0  0  0  0  0  0  0  0  0  0
    5.2232    0.3349    2.2749 C   0  0  0  0  0  0  0  0  0  0  0  0
   -0.2078    1.3546   -0.0713 C   0  0  0  0  0  0  0  0  0  0  0  0
   -1.2646    0.3126   -0.0045 C   0  0  0  0  0  0  0  0  0  0  0  0
   -2.5816    0.7251    0.0443 C   0  0  0  0  0  0  0  0  0  0  0  0
   -0.9129   -1.0218    0.0081 C   0  0  0  0  0  0  0  0  0  0  0  0
   -3.5884   -0.2382    0.1082 C   0  0  0  0  0  0  0  0  0  0  0  0
   -1.9196   -1.9850    0.0721 C   0  0  0  0  0  0  0  0  0  0  0  0
   -3.2574   -1.5932    0.1220 C   0  0  0  0  0  0  0  0  0  0  0  0
    0.6320   -2.8297   -0.0210 C   0  0  0  0  0  0  0  0  0  0  0  0
    4.1788    2.0498   -0.1025 H   0  0  0  0  0  0  0  0  0  0  0  0
    2.0258    0.6601   -1.8014 H   0  0  0  0  0  0  0  0  0  0  0  0
    3.1297    1.9527   -2.2796 H   0  0  0  0  0  0  0  0  0  0  0  0
    3.6672   -0.6798   -2.7928 H   0  0  0  0  0  0  0  0  0  0  0  0
    5.0024    0.4160   -2.3114 H   0  0  0  0  0  0  0  0  0  0  0  0
    1.8455    2.8957    0.0930 H   0  0  0  0  0  0  0  0  0  0  0  0
    2.3509    2.1332    1.5966 H   0  0  0  0  0  0  0  0  0  0  0  0
    3.0671    0.1533    2.2885 H   0  0  0  0  0  0  0  0  0  0  0  0
    3.9381   -1.3101    1.8445 H   0  0  0  0  0  0  0  0  0  0  0  0
    1.1284    0.1392    0.9814 H   0  0  0  0  0  0  0  0  0  0  0  0
    5.3344    0.0712    3.3311 H   0  0  0  0  0  0  0  0  0  0  0  0
    5.2512    1.4263    2.1918 H   0  0  0  0  0  0  0  0  0  0  0  0
    6.0858   -0.0634    1.7304 H   0  0  0  0  0  0  0  0  0  0  0  0
   -2.8347    1.7812    0.0330 H   0  0  0  0  0  0  0  0  0  0  0  0
   -1.7397   -3.0543    0.0851 H   0  0  0  0  0  0  0  0  0  0  0  0
   -4.0262   -2.3597    0.1648 H   0  0  0  0  0  0  0  0  0  0  0  0
   -5.7908    1.2320   -1.9179 H   0  0  0  0  0  0  0  0  0  0  0  0
   -6.2717   -0.4205   -1.8625 H   0  0  0  0  0  0  0  0  0  0  0  0
    0.2150   -3.3243   -0.9048 H   0  0  0  0  0  0  0  0  0  0  0  0
    0.2921   -3.2866    0.9147 H   0  0  0  0  0  0  0  0  0  0  0  0
    1.7176   -2.9673   -0.0639 H   0  0  0  0  0  0  0  0  0  0  0  0
  1  5  2  0  0  0  0
  1  6  2  0  0  0  0
  1  9  1  0  0  0  0
  1 21  1  0  0  0  0
  2 14  2  0  0  0  0
  3 17  2  0  0  0  0
  4 20  1  0  0  0  0
  4 24  1  0  0  0  0
  7 10  1  0  0  0  0
  7 14  1  0  0  0  0
  7 15  1  0  0  0  0
  8 13  1  0  0  0  0
  8 17  1  0  0  0  0
  8 34  1  0  0  0  0
  9 41  1  0  0  0  0
  9 42  1  0  0  0  0
 10 11  1  0  0  0  0
 10 13  1  0  0  0  0
 10 25  1  0  0  0  0
 11 12  1  0  0  0  0
 11 26  1  0  0  0  0
 11 27  1  0  0  0  0
 12 14  1  0  0  0  0
 12 28  1  0  0  0  0
 12 29  1  0  0  0  0
 13 30  1  0  0  0  0
 13 31  1  0  0  0  0
 15 16  1  0  0  0  0
 15 32  1  0  0  0  0
 15 33  1  0  0  0  0
 16 35  1  0  0  0  0
 16 36  1  0  0  0  0
 16 37  1  0  0  0  0
 17 18  1  0  0  0  0
 18 19  1  0  0  0  0
 18 20  2  0  0  0  0
 19 21  2  0  0  0  0
 19 38  1  0  0  0  0
 20 22  1  0  0  0  0
 21 23  1  0  0  0  0
 22 23  2  0  0  0  0
 22 39  1  0  0  0  0
 23 40  1  0  0  0  0
 24 43  1  0  0  0  0
 24 44  1  0  0  0  0
 24 45  1  0  0  0  0
M  END
> <PUBCHEM_COMPOUND_CID>
128772

> <PUBCHEM_CONFORMER_RMSD>
0.8

> <PUBCHEM_CONFORMER_DIVERSEORDER>
2
128
18
155
163
101
178
85
36
93
87
67
148
22
192
68
151
46
204
53
3
78
54
143
175
140
200
74
82
159
71
118
202
70
190
166
17
137
129
21
84
8
64
9
59
126
81
153
152
197
139
122
138
34
63
150
32
147
56
194
156
176
25
47
90
180
160
113
26
91
164
61
135
168
55
37
184
39
100
134
111
186
44
41
60
102
127
145
117
27
108
1
49
193
23
114
181
141
103
89
104
16
199
57
198
95
99
12
94
31
201
165
162
20
69
182
11
97
35
14
38
40
115
173
51
58
203
195
144
52
73
15
43
5
4
105
30
149
161
124
179
170
171
112
177
188
48
33
83
187
119
19
185
120
62
125
157
6
154
66
183
174
142
50
86
169
10
106
130
24
42
75
191
28
133
79
45
96
80
7
29
136
189
196
72
146
88
121
65
13
107
77
98
109
167
92
110
158
116
76
132
123
131
172

> <PUBCHEM_MMFF94_PARTIAL_CHARGES>
28
1 1.45
10 0.3
12 0.06
13 0.3
14 0.57
15 0.3
17 0.54
18 0.09
19 -0.15
2 -0.57
20 0.08
21 -0.01
22 -0.15
23 -0.15
24 0.28
3 -0.57
34 0.37
38 0.15
39 0.15
4 -0.36
40 0.15
41 0.42
42 0.42
5 -0.65
6 -0.65
7 -0.66
8 -0.73
9 -0.98

> <PUBCHEM_EFFECTIVE_ROTOR_COUNT>
7.8

> <PUBCHEM_PHARMACOPHORE_FEATURES>
9
1 2 acceptor
1 3 acceptor
1 4 acceptor
1 5 acceptor
1 6 acceptor
1 8 donor
1 9 donor
5 7 10 11 12 14 rings
6 18 19 20 21 22 23 rings

> <PUBCHEM_HEAVY_ATOM_COUNT>
24

> <PUBCHEM_ATOM_DEF_STEREO_COUNT>
0

> <PUBCHEM_ATOM_UDEF_STEREO_COUNT>
1

> <PUBCHEM_BOND_DEF_STEREO_COUNT>
0

> <PUBCHEM_BOND_UDEF_STEREO_COUNT>
0

> <PUBCHEM_ISOTOPIC_ATOM_COUNT>
0

> <PUBCHEM_COMPONENT_COUNT>
1

> <PUBCHEM_CACTVS_TAUTO_COUNT>
4

> <PUBCHEM_CONFORMER_ID>
0001F70400000002

> <PUBCHEM_MMFF94_ENERGY>
43.903

> <PUBCHEM_FEATURE_SELFOVERLAP>
45.691

> <PUBCHEM_SHAPE_FINGERPRINT>
10062212 137 18334853974053976087
12236239 1 17603585240276524140
12592029 89 18334296452817807251
12616971 3 17458337563397398746
12670546 56 16415207758138164369
12778500 126 15647604545792636165
12788726 201 18334303045809345136
13140716 1 18337383971472764432
13533116 47 16845581889622516550
13544592 145 18272098222469335100
13583140 156 15481815947713470515
13862211 1 18409443709311328331
14790565 3 18338528421960887313
15183329 4 18409732855010095413
15196674 1 18338803410951256239
1601671 61 18409733945715296249
16752209 62 18337677421113987344
17349148 13 18130798871161909925
1813 80 17530965786822032532
20832881 197 18201728322871641488
21279426 13 18341055095159527405
21521239 73 18058998588983977183
21859007 373 17970038120170608741
2215653 11 18202289095223740549
23559900 14 18271253823683800292
3004659 81 18186242835972061436
335352 9 18411423881975563135
34797466 226 16271927129737540663
3680242 22 18262519191110718434
4072396 5 18335693932064925131
4340502 62 14836402536182967157
465052 167 17822014219849526131
495365 180 17060058185598081858
5104073 3 18263925604327630201
5281201 14 14201386180183613406
59755656 215 18409449151367357901
6138700 20 18338806606723780030
633830 44 18343301508941772765
8509985 295 18334857221033096406
8988823 20 16487252175411743208

> <PUBCHEM_SHAPE_MULTIPOLES>
453.47
12.83
2.26
1.46
8.43
0.64
0.07
-0.28
1.34
-0.13
-0.12
-2.39
-0.2
0.28

> <PUBCHEM_SHAPE_SELFOVERLAP>
936.356

> <PUBCHEM_SHAPE_VOLUME>
261.7

> <PUBCHEM_COORDINATE_TYPE>
2
5
10

$$$$
