128781
  -OEChem-03292013323D

 46 49  0     0  0  0  0  0  0999 V2000
   -6.4630   -0.3132   -0.0993 S   0  0  0  0  0  0  0  0  0  0  0  0
   -0.9737    2.9130    0.3523 F   0  0  0  0  0  0  0  0  0  0  0  0
    4.0373    2.4468    0.2420 O   0  0  0  0  0  0  0  0  0  0  0  0
   -6.7763    0.4890    1.2850 O   0  0  0  0  0  0  0  0  0  0  0  0
   -6.8022   -1.7074    0.1135 O   0  0  0  0  0  0  0  0  0  0  0  0
   -7.0642    0.4318   -1.1888 O   0  0  0  0  0  0  0  0  0  0  0  0
    6.3428    1.2848    0.6964 O   0  0  0  0  0  0  0  0  0  0  0  0
    6.7115   -0.4779   -0.7133 O   0  0  0  0  0  0  0  0  0  0  0  0
    2.6011   -1.3308   -0.2957 N   0  0  0  0  0  0  0  0  0  0  0  0
   -1.9899    0.3589   -0.0075 N   0  0  0  0  0  0  0  0  0  0  0  0
   -4.7604   -0.1973   -0.2496 N   0  0  0  0  0  0  0  0  0  0  0  0
    2.1615   -2.7286   -0.4964 C   0  0  0  0  0  0  0  0  0  0  0  0
    2.6590   -3.8213    0.3905 C   0  0  0  0  0  0  0  0  0  0  0  0
    1.2259   -3.3823    0.4658 C   0  0  0  0  0  0  0  0  0  0  0  0
    1.6658   -0.2693   -0.1323 C   0  0  0  0  0  0  0  0  0  0  0  0
    3.9549   -1.0572   -0.2677 C   0  0  0  0  0  0  0  0  0  0  0  0
    2.1354    1.0488    0.0557 C   0  0  0  0  0  0  0  0  0  0  0  0
   -2.7831    1.0384   -1.0418 C   0  0  0  0  0  0  0  0  0  0  0  0
   -2.5149   -0.9311    0.4548 C   0  0  0  0  0  0  0  0  0  0  0  0
   -0.6102    0.5929    0.0132 C   0  0  0  0  0  0  0  0  0  0  0  0
    0.2766   -0.4749   -0.1499 C   0  0  0  0  0  0  0  0  0  0  0  0
   -4.2405    1.1536   -0.6044 C   0  0  0  0  0  0  0  0  0  0  0  0
   -3.9777   -0.7938    0.8694 C   0  0  0  0  0  0  0  0  0  0  0  0
    4.5040    0.1517   -0.0960 C   0  0  0  0  0  0  0  0  0  0  0  0
    3.5979    1.3149    0.0818 C   0  0  0  0  0  0  0  0  0  0  0  0
   -0.1270    1.8853    0.1967 C   0  0  0  0  0  0  0  0  0  0  0  0
    1.2457    2.1179    0.2188 C   0  0  0  0  0  0  0  0  0  0  0  0
    5.9638    0.2574   -0.0930 C   0  0  0  0  0  0  0  0  0  0  0  0
    2.0343   -2.9655   -1.5480 H   0  0  0  0  0  0  0  0  0  0  0  0
    3.2982   -3.5739    1.2291 H   0  0  0  0  0  0  0  0  0  0  0  0
    2.8686   -4.7831   -0.0614 H   0  0  0  0  0  0  0  0  0  0  0  0
    0.4734   -4.0509    0.0656 H   0  0  0  0  0  0  0  0  0  0  0  0
    0.9294   -2.8692    1.3726 H   0  0  0  0  0  0  0  0  0  0  0  0
    4.5712   -1.9401   -0.4075 H   0  0  0  0  0  0  0  0  0  0  0  0
   -2.7168    0.4608   -1.9729 H   0  0  0  0  0  0  0  0  0  0  0  0
   -2.4094    2.0438   -1.2626 H   0  0  0  0  0  0  0  0  0  0  0  0
   -1.9500   -1.2974    1.3209 H   0  0  0  0  0  0  0  0  0  0  0  0
   -2.4307   -1.6737   -0.3488 H   0  0  0  0  0  0  0  0  0  0  0  0
   -0.1237   -1.4613   -0.3530 H   0  0  0  0  0  0  0  0  0  0  0  0
   -4.3282    1.8214    0.2606 H   0  0  0  0  0  0  0  0  0  0  0  0
   -4.8159    1.5796   -1.4321 H   0  0  0  0  0  0  0  0  0  0  0  0
   -4.3670   -1.7864    1.1175 H   0  0  0  0  0  0  0  0  0  0  0  0
   -4.0632   -0.1562    1.7575 H   0  0  0  0  0  0  0  0  0  0  0  0
    1.6027    3.1337    0.3633 H   0  0  0  0  0  0  0  0  0  0  0  0
   -6.5219    1.4414    1.2900 H   0  0  0  0  0  0  0  0  0  0  0  0
    7.3180    1.3880    0.7242 H   0  0  0  0  0  0  0  0  0  0  0  0
  1  4  1  0  0  0  0
  1  5  2  0  0  0  0
  1  6  2  0  0  0  0
  1 11  1  0  0  0  0
  2 26  1  0  0  0  0
  3 25  2  0  0  0  0
  4 45  1  0  0  0  0
  7 28  1  0  0  0  0
  7 46  1  0  0  0  0
  8 28  2  0  0  0  0
  9 12  1  0  0  0  0
  9 15  1  0  0  0  0
  9 16  1  0  0  0  0
 10 18  1  0  0  0  0
 10 19  1  0  0  0  0
 10 20  1  0  0  0  0
 11 22  1  0  0  0  0
 11 23  1  0  0  0  0
 12 13  1  0  0  0  0
 12 14  1  0  0  0  0
 12 29  1  0  0  0  0
 13 14  1  0  0  0  0
 13 30  1  0  0  0  0
 13 31  1  0  0  0  0
 14 32  1  0  0  0  0
 14 33  1  0  0  0  0
 15 17  1  0  0  0  0
 15 21  2  0  0  0  0
 16 24  2  0  0  0  0
 16 34  1  0  0  0  0
 17 25  1  0  0  0  0
 17 27  2  0  0  0  0
 18 22  1  0  0  0  0
 18 35  1  0  0  0  0
 18 36  1  0  0  0  0
 19 23  1  0  0  0  0
 19 37  1  0  0  0  0
 19 38  1  0  0  0  0
 20 21  1  0  0  0  0
 20 26  2  0  0  0  0
 21 39  1  0  0  0  0
 22 40  1  0  0  0  0
 22 41  1  0  0  0  0
 23 42  1  0  0  0  0
 23 43  1  0  0  0  0
 24 25  1  0  0  0  0
 24 28  1  0  0  0  0
 26 27  1  0  0  0  0
 27 44  1  0  0  0  0
M  END
> <PUBCHEM_COMPOUND_CID>
128781

> <PUBCHEM_CONFORMER_RMSD>
0.8

> <PUBCHEM_CONFORMER_DIVERSEORDER>
1
3
4
5
2
16
15
8
11
10
6
14
13
12
9
7

> <PUBCHEM_MMFF94_PARTIAL_CHARGES>
38
1 1.62
10 -0.84
11 -0.85
12 0.07
13 -0.2
14 -0.2
15 0.1
16 -0.05
17 0.09
18 0.37
19 0.37
2 -0.19
20 0.1
21 -0.15
22 0.36
23 0.36
24 0.03
25 0.47
26 0.19
27 -0.15
28 0.71
29 0.1
3 -0.57
30 0.1
31 0.1
32 0.1
33 0.1
34 0.15
39 0.15
4 -0.68
44 0.15
45 0.5
46 0.5
5 -0.65
6 -0.65
7 -0.65
8 -0.57
9 -0.37

> <PUBCHEM_EFFECTIVE_ROTOR_COUNT>
5.8

> <PUBCHEM_PHARMACOPHORE_FEATURES>
14
1 10 cation
1 24 anion
1 3 acceptor
1 4 acceptor
1 5 acceptor
1 6 acceptor
1 7 acceptor
1 8 acceptor
1 9 cation
3 7 8 28 anion
4 1 4 5 6 anion
6 10 11 18 19 22 23 rings
6 15 17 20 21 26 27 rings
6 9 15 16 17 24 25 rings

> <PUBCHEM_HEAVY_ATOM_COUNT>
28

> <PUBCHEM_ATOM_DEF_STEREO_COUNT>
0

> <PUBCHEM_ATOM_UDEF_STEREO_COUNT>
0

> <PUBCHEM_BOND_DEF_STEREO_COUNT>
0

> <PUBCHEM_BOND_UDEF_STEREO_COUNT>
0

> <PUBCHEM_ISOTOPIC_ATOM_COUNT>
0

> <PUBCHEM_COMPONENT_COUNT>
1

> <PUBCHEM_CACTVS_TAUTO_COUNT>
1

> <PUBCHEM_CONFORMER_ID>
0001F70D00000001

> <PUBCHEM_MMFF94_ENERGY>
86.8333

> <PUBCHEM_FEATURE_SELFOVERLAP>
71.528

> <PUBCHEM_SHAPE_FINGERPRINT>
10 15 18335694001649857848
10050765 1 18123189000619604148
10411042 1 17978792303767267494
10835480 77 18262791870717145269
10906281 52 18189637023724015392
1100329 8 18268147733594834410
11421498 54 16916795033087434386
11578080 2 17170950349935216302
11719270 70 18409161108974422274
11963148 33 18334286600110939987
12107183 9 17694511347522065921
12236239 1 17346882256250014325
12516196 113 18343582953943441249
12596602 18 17203608224612975667
12730499 353 18408325483952023914
12788726 201 17346039970413868211
12838862 33 18339907291003708480
13073987 5 18339365154730978505
13140716 1 18268709596747430738
13383665 225 17678473977634501940
13402501 40 18334297590978865579
13533116 47 18272087176351396667
14617045 38 18409733954057538503
14790565 3 18411143575763284608
15183329 4 18410008819823281713
15537594 2 18202556276802712287
16728300 4 17462253904622193778
17492 89 18123749747123265222
18608769 82 18188214307903421059
18681886 176 18335137631422777312
19591789 44 18267022954495426274
20028762 73 18273215331005826246
20511986 3 17846771902198553041
20645477 70 18271526407666602239
20771845 171 17676499320104082590
21033650 10 15793144644976843205
21197605 99 18267590293763674855
21267235 1 18342463629779260924
21279426 13 18117554038609541029
21285901 2 17822006472008047285
21344244 181 17703522021527325166
21521721 280 18342739663132699560
21623969 137 18408328799935834419
22224240 67 18341889732054182122
22956985 138 17681820823186109938
23516275 137 17488206866662132591
23557571 272 17385721361908097693
23559900 14 18335698382110051217
239999 70 18273220772523460670
25222932 49 18271520996419584703
255183 451 17913496740409815174
2871803 45 18411984620458579102
3004659 81 18186800296482881808
3178227 256 18411705421429634632
335352 9 18411704301461074142
33824 294 18410292489138111194
34934 24 18342172267339721334
350125 39 18410577310306016524
3545911 37 18407759239858815981
4073 2 18334299812173244555
4093350 32 17346607334934754111
4340502 62 18409166614890315750
46194498 28 17749111101349090733
463206 1 18340764965808131343
484989 97 18336837510347626802
5104073 3 18198056980458207368
5486654 2 18410862087943357126
59755656 215 18335140886211292270

> <PUBCHEM_SHAPE_MULTIPOLES>
522.64
16.52
3.15
0.84
16.62
2.37
-0.01
-0.24
-0.57
-3.07
0.43
0.65
-0.02
0.7

> <PUBCHEM_SHAPE_SELFOVERLAP>
1117.595

> <PUBCHEM_SHAPE_VOLUME>
293.3

> <PUBCHEM_COORDINATE_TYPE>
2
5
10

$$$$
