128749
  -OEChem-03292013323D

 33 34  0     1  0  0  0  0  0999 V2000
   -2.6178    0.9869   -1.7698 O   0  0  0  0  0  0  0  0  0  0  0  0
    3.3273   -2.4527    0.1194 O   0  0  0  0  0  0  0  0  0  0  0  0
   -3.4167    2.1124    0.0206 O   0  0  0  0  0  0  0  0  0  0  0  0
   -2.3069   -2.8300    0.9901 O   0  0  0  0  0  0  0  0  0  0  0  0
    1.3318    2.6477   -0.1302 N   0  0  0  0  0  0  0  0  0  0  0  0
   -1.7303   -1.0409   -0.3839 N   0  0  0  0  0  0  0  0  0  0  0  0
   -1.2238    0.5539    1.4239 C   0  0  0  0  0  0  0  0  0  0  0  0
   -0.0397    1.1606    0.7832 C   0  0  0  0  0  0  0  0  0  0  0  0
   -2.2767    0.0179    0.4274 C   0  0  1  0  0  0  0  0  0  0  0  0
    1.1598    0.4907    0.4127 C   0  0  0  0  0  0  0  0  0  0  0  0
    2.0034    1.4463   -0.1580 C   0  0  0  0  0  0  0  0  0  0  0  0
    0.0962    2.4852    0.4368 C   0  0  0  0  0  0  0  0  0  0  0  0
    1.6103   -0.8410    0.5083 C   0  0  0  0  0  0  0  0  0  0  0  0
    3.2800    1.1355   -0.6396 C   0  0  0  0  0  0  0  0  0  0  0  0
   -2.8252    1.1415   -0.4400 C   0  0  0  0  0  0  0  0  0  0  0  0
    2.8850   -1.1665    0.0307 C   0  0  0  0  0  0  0  0  0  0  0  0
    3.7053   -0.1919   -0.5341 C   0  0  0  0  0  0  0  0  0  0  0  0
   -1.7929   -2.3800   -0.0306 C   0  0  0  0  0  0  0  0  0  0  0  0
   -1.1690   -3.2757   -1.0669 C   0  0  0  0  0  0  0  0  0  0  0  0
   -0.9067   -0.2616    2.0867 H   0  0  0  0  0  0  0  0  0  0  0  0
   -1.6993    1.2991    2.0757 H   0  0  0  0  0  0  0  0  0  0  0  0
   -3.1263   -0.3933    0.9862 H   0  0  0  0  0  0  0  0  0  0  0  0
   -0.5726    3.3280    0.5424 H   0  0  0  0  0  0  0  0  0  0  0  0
    1.6986    3.5228   -0.4780 H   0  0  0  0  0  0  0  0  0  0  0  0
    0.9790   -1.6038    0.9548 H   0  0  0  0  0  0  0  0  0  0  0  0
   -1.2727   -0.7846   -1.2544 H   0  0  0  0  0  0  0  0  0  0  0  0
    3.9193    1.8935   -1.0795 H   0  0  0  0  0  0  0  0  0  0  0  0
    4.6933   -0.4605   -0.9009 H   0  0  0  0  0  0  0  0  0  0  0  0
   -0.9295   -4.2435   -0.6176 H   0  0  0  0  0  0  0  0  0  0  0  0
   -1.8741   -3.4223   -1.8894 H   0  0  0  0  0  0  0  0  0  0  0  0
   -0.2454   -2.8359   -1.4541 H   0  0  0  0  0  0  0  0  0  0  0  0
   -2.9888    1.7327   -2.2879 H   0  0  0  0  0  0  0  0  0  0  0  0
    2.6343   -2.9970    0.5310 H   0  0  0  0  0  0  0  0  0  0  0  0
  1 15  1  0  0  0  0
  1 32  1  0  0  0  0
  2 16  1  0  0  0  0
  2 33  1  0  0  0  0
  3 15  2  0  0  0  0
  4 18  2  0  0  0  0
  5 11  1  0  0  0  0
  5 12  1  0  0  0  0
  5 24  1  0  0  0  0
  6  9  1  0  0  0  0
  6 18  1  0  0  0  0
  6 26  1  0  0  0  0
  7  8  1  0  0  0  0
  7  9  1  0  0  0  0
  7 20  1  0  0  0  0
  7 21  1  0  0  0  0
  8 10  1  0  0  0  0
  8 12  2  0  0  0  0
  9 15  1  0  0  0  0
  9 22  1  0  0  0  0
 10 11  2  0  0  0  0
 10 13  1  0  0  0  0
 11 14  1  0  0  0  0
 12 23  1  0  0  0  0
 13 16  2  0  0  0  0
 13 25  1  0  0  0  0
 14 17  2  0  0  0  0
 14 27  1  0  0  0  0
 16 17  1  0  0  0  0
 17 28  1  0  0  0  0
 18 19  1  0  0  0  0
 19 29  1  0  0  0  0
 19 30  1  0  0  0  0
 19 31  1  0  0  0  0
M  END
> <PUBCHEM_COMPOUND_CID>
128749

> <PUBCHEM_CONFORMER_RMSD>
0.8

> <PUBCHEM_CONFORMER_DIVERSEORDER>
1
7
20
14
13
8
16
12
5
29
10
28
26
18
6
11
27
25
2
3
21
17
24
9
23
15
4
22
19

> <PUBCHEM_MMFF94_PARTIAL_CHARGES>
26
1 -0.65
11 -0.15
12 -0.3
13 -0.15
14 -0.15
15 0.66
16 0.08
17 -0.15
18 0.57
19 0.06
2 -0.53
23 0.15
24 0.27
25 0.15
26 0.37
27 0.15
28 0.15
3 -0.57
32 0.5
33 0.45
4 -0.57
5 0.03
6 -0.73
7 0.18
8 -0.18
9 0.36

> <PUBCHEM_EFFECTIVE_ROTOR_COUNT>
5

> <PUBCHEM_PHARMACOPHORE_FEATURES>
10
1 1 acceptor
1 2 donor
1 3 acceptor
1 4 acceptor
1 5 cation
1 5 donor
1 6 donor
3 1 3 15 anion
5 5 8 10 11 12 rings
6 10 11 13 14 16 17 rings

> <PUBCHEM_HEAVY_ATOM_COUNT>
19

> <PUBCHEM_ATOM_DEF_STEREO_COUNT>
1

> <PUBCHEM_ATOM_UDEF_STEREO_COUNT>
0

> <PUBCHEM_BOND_DEF_STEREO_COUNT>
0

> <PUBCHEM_BOND_UDEF_STEREO_COUNT>
0

> <PUBCHEM_ISOTOPIC_ATOM_COUNT>
0

> <PUBCHEM_COMPONENT_COUNT>
1

> <PUBCHEM_CACTVS_TAUTO_COUNT>
16

> <PUBCHEM_CONFORMER_ID>
0001F6ED00000001

> <PUBCHEM_MMFF94_ENERGY>
30.6828

> <PUBCHEM_FEATURE_SELFOVERLAP>
50.898

> <PUBCHEM_SHAPE_FINGERPRINT>
10967382 1 18339082575451677098
11578080 2 17344904355101065851
12553582 1 18269567048308142074
12592029 89 18123477081582843201
12788726 201 17844819074795209104
13140716 1 18411135818862165178
14178342 30 18268700774615898120
16752209 62 18050842217727657536
16945 1 18267860764732739441
18619055 16 18409730621363233864
20645476 183 18410015411922718023
21634736 98 18196384825736962286
22802520 49 18191017018264727721
2334 1 18340208599991997954
23559900 14 18341892970939636120
2748010 2 18270397321030896416
2871803 45 18050848020080755438
3084891 72 18197211447595421345
3084891 8 17688582763107463197
34934 24 18408602535645052928
45790113 53 18410863178706619465
58051976 100 18335993059383407717
589210 1 18267298922748745207
6443956 14 17258492774386805727
74978 22 18411980277719453425

> <PUBCHEM_SHAPE_MULTIPOLES>
357.57
5.68
3.54
1.08
1.85
1.87
0.1
0.61
1.08
-1.33
0.27
-0.57
0
0.02

> <PUBCHEM_SHAPE_SELFOVERLAP>
765.781

> <PUBCHEM_SHAPE_VOLUME>
198

> <PUBCHEM_COORDINATE_TYPE>
2
5
10

$$$$
