12876462
  -OEChem-03292013303D

 45 45  0     1  0  0  0  0  0999 V2000
   -0.9436   -5.1549    0.5854 S   0  0  0  0  0  0  0  0  0  0  0  0
   -3.2310    0.7262   -0.5990 O   0  0  0  0  0  0  0  0  0  0  0  0
    1.8699   -0.1152    0.8003 O   0  0  0  0  0  0  0  0  0  0  0  0
    0.9797    0.0572   -1.3239 O   0  0  0  0  0  0  0  0  0  0  0  0
    2.2277    2.7343    0.8106 O   0  0  0  0  0  0  0  0  0  0  0  0
    4.2706   -1.2463   -0.2974 O   0  0  0  0  0  0  0  0  0  0  0  0
   -1.8751    1.2319    1.1846 O   0  0  0  0  0  0  0  0  0  0  0  0
   -1.4440   -0.5799   -0.1999 N   0  0  0  0  0  0  0  0  0  0  0  0
    2.9771    0.5957    0.2875 N   0  0  0  0  0  0  0  0  0  0  0  0
   -0.2530   -1.0628    0.4495 C   0  0  1  0  0  0  0  0  0  0  0  0
   -4.0624    1.8469   -0.2771 C   0  0  0  0  0  0  0  0  0  0  0  0
   -0.0506   -2.5680    0.2617 C   0  0  0  0  0  0  0  0  0  0  0  0
    4.3299    2.3465   -0.3249 C   0  0  0  0  0  0  0  0  0  0  0  0
    5.0080    1.0250   -0.6929 C   0  0  0  0  0  0  0  0  0  0  0  0
    0.9080   -0.2969   -0.1537 C   0  0  0  0  0  0  0  0  0  0  0  0
   -1.2172   -3.3757    0.8288 C   0  0  0  0  0  0  0  0  0  0  0  0
   -3.2151    3.1166   -0.3460 C   0  0  0  0  0  0  0  0  0  0  0  0
   -5.1882    1.8957   -1.3077 C   0  0  0  0  0  0  0  0  0  0  0  0
   -4.6284    1.6452    1.1278 C   0  0  0  0  0  0  0  0  0  0  0  0
    3.0387    1.9520    0.3397 C   0  0  0  0  0  0  0  0  0  0  0  0
    4.0638   -0.0453   -0.2163 C   0  0  0  0  0  0  0  0  0  0  0  0
   -2.1562    0.5268    0.2210 C   0  0  0  0  0  0  0  0  0  0  0  0
   -1.4086   -5.2548   -1.1581 C   0  0  0  0  0  0  0  0  0  0  0  0
   -0.3258   -0.8133    1.5151 H   0  0  0  0  0  0  0  0  0  0  0  0
    0.8866   -2.8664    0.7499 H   0  0  0  0  0  0  0  0  0  0  0  0
    0.0748   -2.7771   -0.8081 H   0  0  0  0  0  0  0  0  0  0  0  0
   -1.7562   -1.0453   -1.0473 H   0  0  0  0  0  0  0  0  0  0  0  0
    4.9429    2.9268    0.3708 H   0  0  0  0  0  0  0  0  0  0  0  0
    4.1201    2.9468   -1.2150 H   0  0  0  0  0  0  0  0  0  0  0  0
    5.1503    0.9389   -1.7741 H   0  0  0  0  0  0  0  0  0  0  0  0
    5.9728    0.9200   -0.1881 H   0  0  0  0  0  0  0  0  0  0  0  0
   -2.1745   -3.0929    0.3802 H   0  0  0  0  0  0  0  0  0  0  0  0
   -1.2975   -3.1966    1.9063 H   0  0  0  0  0  0  0  0  0  0  0  0
   -3.8587    4.0034   -0.3891 H   0  0  0  0  0  0  0  0  0  0  0  0
   -2.5821    3.1182   -1.2410 H   0  0  0  0  0  0  0  0  0  0  0  0
   -2.5587    3.2731    0.5137 H   0  0  0  0  0  0  0  0  0  0  0  0
   -5.8714    2.7318   -1.1267 H   0  0  0  0  0  0  0  0  0  0  0  0
   -4.7826    1.9927   -2.3214 H   0  0  0  0  0  0  0  0  0  0  0  0
   -5.7676    0.9654   -1.2941 H   0  0  0  0  0  0  0  0  0  0  0  0
   -5.4670    2.3294    1.3040 H   0  0  0  0  0  0  0  0  0  0  0  0
   -3.9183    1.8352    1.9363 H   0  0  0  0  0  0  0  0  0  0  0  0
   -4.9979    0.6213    1.2578 H   0  0  0  0  0  0  0  0  0  0  0  0
   -2.4206   -4.8705   -1.3106 H   0  0  0  0  0  0  0  0  0  0  0  0
   -0.7046   -4.7031   -1.7851 H   0  0  0  0  0  0  0  0  0  0  0  0
   -1.3904   -6.3028   -1.4700 H   0  0  0  0  0  0  0  0  0  0  0  0
  1 16  1  0  0  0  0
  1 23  1  0  0  0  0
  2 11  1  0  0  0  0
  2 22  1  0  0  0  0
  3  9  1  0  0  0  0
  3 15  1  0  0  0  0
  4 15  2  0  0  0  0
  5 20  2  0  0  0  0
  6 21  2  0  0  0  0
  7 22  2  0  0  0  0
  8 10  1  0  0  0  0
  8 22  1  0  0  0  0
  8 27  1  0  0  0  0
  9 20  1  0  0  0  0
  9 21  1  0  0  0  0
 10 12  1  0  0  0  0
 10 15  1  0  0  0  0
 10 24  1  0  0  0  0
 11 17  1  0  0  0  0
 11 18  1  0  0  0  0
 11 19  1  0  0  0  0
 12 16  1  0  0  0  0
 12 25  1  0  0  0  0
 12 26  1  0  0  0  0
 13 14  1  0  0  0  0
 13 20  1  0  0  0  0
 13 28  1  0  0  0  0
 13 29  1  0  0  0  0
 14 21  1  0  0  0  0
 14 30  1  0  0  0  0
 14 31  1  0  0  0  0
 16 32  1  0  0  0  0
 16 33  1  0  0  0  0
 17 34  1  0  0  0  0
 17 35  1  0  0  0  0
 17 36  1  0  0  0  0
 18 37  1  0  0  0  0
 18 38  1  0  0  0  0
 18 39  1  0  0  0  0
 19 40  1  0  0  0  0
 19 41  1  0  0  0  0
 19 42  1  0  0  0  0
 23 43  1  0  0  0  0
 23 44  1  0  0  0  0
 23 45  1  0  0  0  0
M  END
> <PUBCHEM_COMPOUND_CID>
12876462

> <PUBCHEM_CONFORMER_RMSD>
1

> <PUBCHEM_CONFORMER_DIVERSEORDER>
1
62
29
66
19
13
97
72
94
63
77
79
76
84
17
10
55
48
61
100
85
67
86
51
39
38
73
99
11
15
93
69
30
95
12
87
41
20
32
91
82
70
16
49
24
25
75
8
54
80
71
34
27
83
96
33
103
50
59
18
4
28
56
42
89
43
74
98
60
22
44
57
36
35
52
21
101
6
47
37
53
68
90
23
78
45
64
26
65
5
88
31
81
40
58
9
7
3
2
46
102
92
14

> <PUBCHEM_MMFF94_PARTIAL_CHARGES>
20
1 -0.46
10 0.36
11 0.28
13 0.06
14 0.06
15 0.66
16 0.23
2 -0.43
20 0.57
21 0.57
22 0.78
23 0.23
27 0.37
3 -0.19
4 -0.57
5 -0.57
6 -0.57
7 -0.57
8 -0.73
9 -0.08

> <PUBCHEM_EFFECTIVE_ROTOR_COUNT>
10.6

> <PUBCHEM_PHARMACOPHORE_FEATURES>
8
1 23 hydrophobe
1 4 acceptor
1 5 acceptor
1 6 acceptor
1 7 acceptor
1 8 donor
4 11 17 18 19 hydrophobe
5 9 13 14 20 21 rings

> <PUBCHEM_HEAVY_ATOM_COUNT>
23

> <PUBCHEM_ATOM_DEF_STEREO_COUNT>
1

> <PUBCHEM_ATOM_UDEF_STEREO_COUNT>
0

> <PUBCHEM_BOND_DEF_STEREO_COUNT>
0

> <PUBCHEM_BOND_UDEF_STEREO_COUNT>
0

> <PUBCHEM_ISOTOPIC_ATOM_COUNT>
0

> <PUBCHEM_COMPONENT_COUNT>
1

> <PUBCHEM_CACTVS_TAUTO_COUNT>
6

> <PUBCHEM_CONFORMER_ID>
00C47AAE00000001

> <PUBCHEM_MMFF94_ENERGY>
49.6813

> <PUBCHEM_FEATURE_SELFOVERLAP>
40.597

> <PUBCHEM_SHAPE_FINGERPRINT>
11045515 52 17618785099235433587
12500047 106 18336829783737936204
12596602 18 15430048659529674148
12788726 201 18046896353789903211
13690498 29 17980507838263980438
138480 1 17472978402682512707
14178342 30 18119515790438539696
14466204 15 17976249150208517720
14508225 48 17619906597001316447
17539 30 18123746727808754951
21033648 29 18409161112752912313
21307412 95 17985573099544721638
21524375 3 18342455902863914069
2255824 54 18052251796209261755
23558518 356 18044374061752537738
23559900 14 18271811203391374130
283562 15 17829886886730449586
3057174 1 18339359656777616943
3091708 16 9266433834542663979
3187 122 17185845820235417465
474 4 18339359652376744881
59755656 520 18407755945476611982
633830 44 18342173315385263525
6443956 14 17615971010851021022
7164475 11 17903923605855554788
7399639 24 17408238527116719592
77188 2 17256249770339062323
7808743 9 18189620612965785324
84936 182 18194960738793204153
9981440 41 18335979771039704073

> <PUBCHEM_SHAPE_MULTIPOLES>
432
9.77
6.15
1.08
3.08
11.66
0.09
-11.21
1.8
-5.16
0.38
-0.68
0.1
0.32

> <PUBCHEM_SHAPE_SELFOVERLAP>
855.583

> <PUBCHEM_SHAPE_VOLUME>
260.2

> <PUBCHEM_COORDINATE_TYPE>
2
5
10

$$$$
