128708
  -OEChem-03292013323D

 42 43  0     1  0  0  0  0  0999 V2000
    0.8315   -0.6516    0.8591 O   0  0  0  0  0  0  0  0  0  0  0  0
    0.5289   -4.0672   -0.4275 O   0  0  0  0  0  0  0  0  0  0  0  0
    3.3771   -3.5781   -0.4907 O   0  0  0  0  0  0  0  0  0  0  0  0
    2.4713    0.9902    0.6154 O   0  0  0  0  0  0  0  0  0  0  0  0
    3.9243   -0.7445   -1.0839 O   0  0  0  0  0  0  0  0  0  0  0  0
   -1.8584   -1.0228    1.2867 O   0  0  0  0  0  0  0  0  0  0  0  0
   -3.0437   -1.8158   -0.5247 O   0  0  0  0  0  0  0  0  0  0  0  0
   -5.4512    1.6522   -0.1289 O   0  0  0  0  0  0  0  0  0  0  0  0
   -5.1305   -0.2446   -1.3412 O   0  0  0  0  0  0  0  0  0  0  0  0
    1.1702   -2.9590    0.1983 C   0  0  1  0  0  0  0  0  0  0  0  0
    2.3927   -2.5517   -0.6244 C   0  0  1  0  0  0  0  0  0  0  0  0
    0.1793   -1.7979    0.3098 C   0  0  1  0  0  0  0  0  0  0  0  0
    2.9718   -1.2242   -0.1352 C   0  0  2  0  0  0  0  0  0  0  0  0
    1.8799   -0.1662    0.0238 C   0  0  1  0  0  0  0  0  0  0  0  0
   -0.9931   -2.1417    1.2231 C   0  0  0  0  0  0  0  0  0  0  0  0
    1.9139    2.1967    0.2914 C   0  0  0  0  0  0  0  0  0  0  0  0
   -2.8570   -0.9760    0.3443 C   0  0  0  0  0  0  0  0  0  0  0  0
    0.5579    2.2720   -0.0111 C   0  0  0  0  0  0  0  0  0  0  0  0
    2.7075    3.3393    0.2666 C   0  0  0  0  0  0  0  0  0  0  0  0
   -3.6751    0.2759    0.5470 C   0  0  0  0  0  0  0  0  0  0  0  0
   -0.0102    3.5022   -0.3421 C   0  0  0  0  0  0  0  0  0  0  0  0
    2.1393    4.5695   -0.0643 C   0  0  0  0  0  0  0  0  0  0  0  0
    0.7804    4.6508   -0.3687 C   0  0  0  0  0  0  0  0  0  0  0  0
   -4.8068    0.4925   -0.4229 C   0  0  0  0  0  0  0  0  0  0  0  0
    1.4937   -3.2867    1.1939 H   0  0  0  0  0  0  0  0  0  0  0  0
    2.1472   -2.4957   -1.6921 H   0  0  0  0  0  0  0  0  0  0  0  0
   -0.2174   -1.5317   -0.6792 H   0  0  0  0  0  0  0  0  0  0  0  0
    3.5100   -1.3696    0.8089 H   0  0  0  0  0  0  0  0  0  0  0  0
    1.4889    0.0746   -0.9764 H   0  0  0  0  0  0  0  0  0  0  0  0
   -0.6367   -2.3183    2.2443 H   0  0  0  0  0  0  0  0  0  0  0  0
   -1.5222   -3.0469    0.9037 H   0  0  0  0  0  0  0  0  0  0  0  0
    0.2308   -3.7834   -1.3086 H   0  0  0  0  0  0  0  0  0  0  0  0
    2.9746   -4.4091   -0.7963 H   0  0  0  0  0  0  0  0  0  0  0  0
    3.4669   -0.6138   -1.9320 H   0  0  0  0  0  0  0  0  0  0  0  0
   -0.1087    1.4177    0.0148 H   0  0  0  0  0  0  0  0  0  0  0  0
    3.7663    3.2805    0.5026 H   0  0  0  0  0  0  0  0  0  0  0  0
   -4.1039    0.2313    1.5540 H   0  0  0  0  0  0  0  0  0  0  0  0
   -2.9962    1.1316    0.4601 H   0  0  0  0  0  0  0  0  0  0  0  0
   -1.0694    3.5669   -0.5741 H   0  0  0  0  0  0  0  0  0  0  0  0
    2.7548    5.4641   -0.0849 H   0  0  0  0  0  0  0  0  0  0  0  0
    0.3378    5.6089   -0.6250 H   0  0  0  0  0  0  0  0  0  0  0  0
   -6.1982    1.8206   -0.7420 H   0  0  0  0  0  0  0  0  0  0  0  0
  1 12  1  0  0  0  0
  1 14  1  0  0  0  0
  2 10  1  0  0  0  0
  2 32  1  0  0  0  0
  3 11  1  0  0  0  0
  3 33  1  0  0  0  0
  4 14  1  0  0  0  0
  4 16  1  0  0  0  0
  5 13  1  0  0  0  0
  5 34  1  0  0  0  0
  6 15  1  0  0  0  0
  6 17  1  0  0  0  0
  7 17  2  0  0  0  0
  8 24  1  0  0  0  0
  8 42  1  0  0  0  0
  9 24  2  0  0  0  0
 10 11  1  0  0  0  0
 10 12  1  0  0  0  0
 10 25  1  0  0  0  0
 11 13  1  0  0  0  0
 11 26  1  0  0  0  0
 12 15  1  0  0  0  0
 12 27  1  0  0  0  0
 13 14  1  0  0  0  0
 13 28  1  0  0  0  0
 14 29  1  0  0  0  0
 15 30  1  0  0  0  0
 15 31  1  0  0  0  0
 16 18  2  0  0  0  0
 16 19  1  0  0  0  0
 17 20  1  0  0  0  0
 18 21  1  0  0  0  0
 18 35  1  0  0  0  0
 19 22  2  0  0  0  0
 19 36  1  0  0  0  0
 20 24  1  0  0  0  0
 20 37  1  0  0  0  0
 20 38  1  0  0  0  0
 21 23  2  0  0  0  0
 21 39  1  0  0  0  0
 22 23  1  0  0  0  0
 22 40  1  0  0  0  0
 23 41  1  0  0  0  0
M  END
> <PUBCHEM_COMPOUND_CID>
128708

> <PUBCHEM_CONFORMER_RMSD>
0.8

> <PUBCHEM_CONFORMER_DIVERSEORDER>
2
123
109
276
352
127
309
193
277
268
255
71
200
351
59
199
413
395
280
278
63
190
400
242
51
285
261
195
10
173
140
208
154
49
380
408
363
248
212
203
121
334
131
329
381
26
401
326
388
11
156
222
35
113
223
116
8
117
143
169
335
262
146
286
241
27
271
405
218
367
284
132
251
166
101
310
48
355
69
362
29
114
22
412
179
148
369
159
98
226
14
34
332
41
61
399
253
409
105
354
269
43
237
7
147
415
102
135
21
210
257
224
267
171
288
95
44
65
318
17
107
406
94
91
243
133
232
270
327
348
359
119
56
13
129
391
196
260
28
216
304
90
368
12
373
231
228
180
39
167
410
191
5
18
305
194
287
219
319
152
50
376
197
68
338
142
294
138
55
128
340
225
385
177
311
37
375
283
23
324
353
290
163
402
38
313
45
252
394
205
103
33
328
279
16
185
120
9
58
417
227
220
301
230
77
130
387
411
211
111
320
263
149
221
141
383
124
110
296
356
308
134
403
379
74
80
175
312
112
404
361
258
265
372
188
366
86
344
264
291
87
407
336
100
54
298
4
374
382
25
1
342
42
317
79
30
104
32
96
297
370
201
337
357
386
282
299
72
144
392
157
174
292
360
82
184
160
192
293
161
108
325
53
302
126
92
321
316
217
323
364
168
281
254
213
414
343
3
306
339
371
238
47
40
206
272
118
64
275
331
256
215
358
259
204
83
389
202
183
235
249
266
81
122
393
136
99
384
165
97
378
62
115
347
139
150
240
76
303
70
66
350
182
20
365
396
397
207
93
307
57
234
349
52
31
187
322
341
236
15
330
172
333
186
78
145
346
88
151
158
84
300
377
189
314
289
273
60
178
6
416
239
250
245
85
155
209
295
89
315
247
390
345
67
198
181
398
274
214
106
162
36
176
244
125
73
75
46
153
233
24
246
229
170
19
164
137

> <PUBCHEM_MMFF94_PARTIAL_CHARGES>
33
1 -0.56
10 0.28
11 0.28
12 0.28
13 0.28
14 0.56
15 0.28
16 0.08
17 0.66
18 -0.15
19 -0.15
2 -0.68
20 0.12
21 -0.15
22 -0.15
23 -0.15
24 0.66
3 -0.68
32 0.4
33 0.4
34 0.4
35 0.15
36 0.15
39 0.15
4 -0.36
40 0.15
41 0.15
42 0.5
5 -0.68
6 -0.43
7 -0.57
8 -0.65
9 -0.57

> <PUBCHEM_EFFECTIVE_ROTOR_COUNT>
8.2

> <PUBCHEM_PHARMACOPHORE_FEATURES>
15
1 1 acceptor
1 2 acceptor
1 2 donor
1 20 anion
1 3 acceptor
1 3 donor
1 4 acceptor
1 5 acceptor
1 5 donor
1 7 acceptor
1 8 acceptor
1 9 acceptor
3 8 9 24 anion
6 1 10 11 12 13 14 rings
6 16 18 19 21 22 23 rings

> <PUBCHEM_HEAVY_ATOM_COUNT>
24

> <PUBCHEM_ATOM_DEF_STEREO_COUNT>
5

> <PUBCHEM_ATOM_UDEF_STEREO_COUNT>
0

> <PUBCHEM_BOND_DEF_STEREO_COUNT>
0

> <PUBCHEM_BOND_UDEF_STEREO_COUNT>
0

> <PUBCHEM_ISOTOPIC_ATOM_COUNT>
0

> <PUBCHEM_COMPONENT_COUNT>
1

> <PUBCHEM_CACTVS_TAUTO_COUNT>
1

> <PUBCHEM_CONFORMER_ID>
0001F6C400000002

> <PUBCHEM_MMFF94_ENERGY>
62.8469

> <PUBCHEM_FEATURE_SELFOVERLAP>
76.513

> <PUBCHEM_SHAPE_FINGERPRINT>
11221954 11 17972318679385208649
11370993 70 17977378666346155849
116883 192 18051136886965435102
12100795 323 17901097848109030373
12553582 1 18265913366399373664
12788726 201 17901958443712396482
12977781 61 16332724311669182238
13134695 92 18337675209000303214
13590594 115 18122632643472468785
138480 1 18410575041808637353
14251764 38 18192423289489430953
15081414 286 18339654346993598401
15210252 30 18041574541675764580
19930381 70 18337669849503148505
20567600 299 18412541037545593337
20621476 13 18409445916571434849
21860390 5 18413388734997731629
221357 26 18192144902868461013
23929065 36 17833818379998470874
3014063 31 18193274079376719557
474 4 18338508763773806121
5939293 188 18408879642212794666
5969126 39 18053098416152817726
6443956 14 18409450245729612453
7164475 11 17689719662457562854
7399639 24 17758693517284770827
9981440 41 17906163310867255193

> <PUBCHEM_SHAPE_MULTIPOLES>
441.08
7.85
6.56
0.94
12.16
1.96
-0.03
3.89
1.82
-6.46
0.97
0.36
-0.26
1.02

> <PUBCHEM_SHAPE_SELFOVERLAP>
920.003

> <PUBCHEM_SHAPE_VOLUME>
245.8

> <PUBCHEM_COORDINATE_TYPE>
2
5
10

$$$$
