128715
  -OEChem-03292013323D

 34 34  0     0  0  0  0  0  0999 V2000
   -2.4285   -0.3095    0.1982 O   0  0  0  0  0  0  0  0  0  0  0  0
    3.1631    0.3749   -0.0671 O   0  0  0  0  0  0  0  0  0  0  0  0
   -4.1939   -0.4316    1.6503 O   0  0  0  0  0  0  0  0  0  0  0  0
    5.0454    0.7181    1.2034 O   0  0  0  0  0  0  0  0  0  0  0  0
   -3.8571    2.8063   -1.5963 O   0  0  0  0  0  0  0  0  0  0  0  0
    0.5479   -1.2063    0.6557 N   0  0  0  0  0  0  0  0  0  0  0  0
   -4.1227    1.2448    0.0470 N   0  0  0  0  0  0  0  0  0  0  0  0
    4.3538    2.2615   -0.3847 N   0  0  0  0  0  0  0  0  0  0  0  0
   -3.3322    1.8146   -1.0784 N   0  0  0  0  0  0  0  0  0  0  0  0
   -0.5562   -1.7921    0.1500 C   0  0  0  0  0  0  0  0  0  0  0  0
    1.7142   -1.5079    0.0421 C   0  0  0  0  0  0  0  0  0  0  0  0
   -1.8535   -1.4607    0.8273 C   0  0  0  0  0  0  0  0  0  0  0  0
    2.9442   -0.8660    0.5919 C   0  0  0  0  0  0  0  0  0  0  0  0
   -0.5631   -2.6571   -0.9273 C   0  0  0  0  0  0  0  0  0  0  0  0
    1.8210   -2.3616   -1.0440 C   0  0  0  0  0  0  0  0  0  0  0  0
    0.6559   -2.9430   -1.5319 C   0  0  0  0  0  0  0  0  0  0  0  0
   -3.6271    0.1209    0.7092 C   0  0  0  0  0  0  0  0  0  0  0  0
    4.2642    1.0871    0.3326 C   0  0  0  0  0  0  0  0  0  0  0  0
   -5.3804    1.8721    0.4226 C   0  0  0  0  0  0  0  0  0  0  0  0
    5.4050    3.2355   -0.2006 C   0  0  0  0  0  0  0  0  0  0  0  0
   -2.5477   -2.3076    0.7667 H   0  0  0  0  0  0  0  0  0  0  0  0
   -1.6670   -1.2402    1.8855 H   0  0  0  0  0  0  0  0  0  0  0  0
    2.8133   -0.6897    1.6667 H   0  0  0  0  0  0  0  0  0  0  0  0
    3.8130   -1.5224    0.4586 H   0  0  0  0  0  0  0  0  0  0  0  0
   -1.4781   -3.1031   -1.3011 H   0  0  0  0  0  0  0  0  0  0  0  0
    2.7763   -2.5769   -1.5106 H   0  0  0  0  0  0  0  0  0  0  0  0
    0.6978   -3.6167   -2.3824 H   0  0  0  0  0  0  0  0  0  0  0  0
    3.6408    2.4528   -1.0818 H   0  0  0  0  0  0  0  0  0  0  0  0
   -6.0631    1.8465   -0.4320 H   0  0  0  0  0  0  0  0  0  0  0  0
   -5.8459    1.3464    1.2606 H   0  0  0  0  0  0  0  0  0  0  0  0
   -5.1899    2.9079    0.7189 H   0  0  0  0  0  0  0  0  0  0  0  0
    6.1086    2.9204    0.5734 H   0  0  0  0  0  0  0  0  0  0  0  0
    5.9288    3.3557   -1.1520 H   0  0  0  0  0  0  0  0  0  0  0  0
    4.9441    4.1854    0.0808 H   0  0  0  0  0  0  0  0  0  0  0  0
  1 12  1  0  0  0  0
  1 17  1  0  0  0  0
  2 13  1  0  0  0  0
  2 18  1  0  0  0  0
  3 17  2  0  0  0  0
  4 18  2  0  0  0  0
  5  9  2  0  0  0  0
  6 10  1  0  0  0  0
  6 11  2  0  0  0  0
  7  9  1  0  0  0  0
  7 17  1  0  0  0  0
  7 19  1  0  0  0  0
  8 18  1  0  0  0  0
  8 20  1  0  0  0  0
  8 28  1  0  0  0  0
 10 12  1  0  0  0  0
 10 14  2  0  0  0  0
 11 13  1  0  0  0  0
 11 15  1  0  0  0  0
 12 21  1  0  0  0  0
 12 22  1  0  0  0  0
 13 23  1  0  0  0  0
 13 24  1  0  0  0  0
 14 16  1  0  0  0  0
 14 25  1  0  0  0  0
 15 16  2  0  0  0  0
 15 26  1  0  0  0  0
 16 27  1  0  0  0  0
 19 29  1  0  0  0  0
 19 30  1  0  0  0  0
 19 31  1  0  0  0  0
 20 32  1  0  0  0  0
 20 33  1  0  0  0  0
 20 34  1  0  0  0  0
M  END
> <PUBCHEM_COMPOUND_CID>
128715

> <PUBCHEM_CONFORMER_RMSD>
1

> <PUBCHEM_CONFORMER_DIVERSEORDER>
1
34
126
215
89
168
161
194
117
177
40
50
27
205
26
119
65
47
167
59
211
2
206
78
135
144
98
133
35
207
87
127
138
210
60
8
152
189
159
66
79
112
61
201
97
187
21
165
157
5
193
178
124
12
212
221
85
197
75
176
129
11
76
150
216
110
131
145
155
174
171
162
172
158
151
218
164
77
149
139
134
130
181
132
222
88
15
186
191
28
52
58
84
219
36
200
166
62
53
128
163
113
118
54
214
140
51
71
169
185
95
30
17
122
43
125
203
10
29
160
64
199
105
154
143
90
56
33
137
82
49
45
32
106
220
38
4
109
74
192
136
153
57
217
195
108
182
100
170
37
213
188
196
86
121
123
204
46
198
14
96
142
23
183
208
115
63
16
55
18
73
68
92
72
3
103
24
175
41
104
116
111
107
184
70
44
209
141
22
93
81
179
146
180
19
99
20
202
94
69
190
39
6
156
91
102
148
83
13
147
7
67
173
25
48
101
42
114
80
31
9
120

> <PUBCHEM_MMFF94_PARTIAL_CHARGES>
24
1 -0.43
10 0.17
11 0.17
12 0.42
13 0.42
14 -0.15
15 -0.15
16 -0.15
17 0.78
18 0.78
19 0.3
2 -0.43
20 0.3
25 0.15
26 0.15
27 0.15
28 0.37
3 -0.57
4 -0.57
5 -0.16
6 -0.62
7 -0.18
8 -0.73
9 -0.02

> <PUBCHEM_EFFECTIVE_ROTOR_COUNT>
9

> <PUBCHEM_PHARMACOPHORE_FEATURES>
5
1 3 acceptor
1 4 acceptor
1 6 acceptor
1 8 donor
6 6 10 11 14 15 16 rings

> <PUBCHEM_HEAVY_ATOM_COUNT>
20

> <PUBCHEM_ATOM_DEF_STEREO_COUNT>
0

> <PUBCHEM_ATOM_UDEF_STEREO_COUNT>
0

> <PUBCHEM_BOND_DEF_STEREO_COUNT>
0

> <PUBCHEM_BOND_UDEF_STEREO_COUNT>
0

> <PUBCHEM_ISOTOPIC_ATOM_COUNT>
0

> <PUBCHEM_COMPONENT_COUNT>
1

> <PUBCHEM_CACTVS_TAUTO_COUNT>
2

> <PUBCHEM_CONFORMER_ID>
0001F6CB00000001

> <PUBCHEM_MMFF94_ENERGY>
35.0279

> <PUBCHEM_FEATURE_SELFOVERLAP>
25.373

> <PUBCHEM_SHAPE_FINGERPRINT>
10763959 59 18337112259647800774
12403259 118 18337101375926554874
12633257 1 15720235161967519400
12769317 202 18271800181650783176
12892183 10 17603587438856999931
13103583 49 12108069908059265039
13134695 92 17692818086050738375
14251764 38 18265051327798311289
14251764 75 18343313560552037785
14774955 27 18411980252260509197
14848178 5 9727363398441690572
14957384 54 18336254704854958410
15163728 17 18129678477133927222
15342168 16 18343303643640641399
17834072 32 18412545413805583312
193927 3 10881671400143466738
20645477 56 17843693394184581090
21388113 180 18336824199885436589
21475661 188 18189048711814404004
23559900 14 18124882261201005739
2838139 119 18335410249411720964
3057174 1 17704358757906750070
345986 75 12973892476718207919
6327066 14 18340204188855019052
633830 44 17345489089044702563
7062679 13 9295291629488758056
7808743 9 18267585891495153224
88748 71 9655581819996979096
9862522 239 18337103578870088196

> <PUBCHEM_SHAPE_MULTIPOLES>
362.32
11.79
3.96
1.27
1.18
0.7
-0.18
15.17
1.66
1.8
-1.98
-0.74
-0.11
1.08

> <PUBCHEM_SHAPE_SELFOVERLAP>
731.974

> <PUBCHEM_SHAPE_VOLUME>
210.5

> <PUBCHEM_COORDINATE_TYPE>
2
5
10

$$$$
