128757
  -OEChem-03292013323D

 36 38  0     1  0  0  0  0  0999 V2000
   -2.3027   -0.4445    0.9269 O   0  0  0  0  0  0  0  0  0  0  0  0
   -1.0341    2.2470   -1.0897 O   0  0  0  0  0  0  0  0  0  0  0  0
   -3.3142    2.3802    0.3829 O   0  0  0  0  0  0  0  0  0  0  0  0
   -4.3110   -2.2656    0.2113 O   0  0  0  0  0  0  0  0  0  0  0  0
    3.8233    0.1697   -1.7128 O   0  0  0  0  0  0  0  0  0  0  0  0
   -0.0306   -0.4623    0.2429 N   0  0  0  0  0  0  0  0  0  0  0  0
    1.1763   -2.2695   -0.2441 N   0  0  0  0  0  0  0  0  0  0  0  0
    1.6622    1.1204    0.7960 N   0  0  0  0  0  0  0  0  0  0  0  0
    4.1097    1.0488    0.5746 N   0  0  0  0  0  0  0  0  0  0  0  0
   -1.2159    0.3682    0.4434 C   0  0  1  0  0  0  0  0  0  0  0  0
   -1.7222    1.0420   -0.8229 C   0  0  1  0  0  0  0  0  0  0  0  0
   -3.1849    1.2555   -0.4869 C   0  0  1  0  0  0  0  0  0  0  0  0
   -3.5277   -0.0106    0.2921 C   0  0  1  0  0  0  0  0  0  0  0  0
   -4.0318   -1.1373   -0.5987 C   0  0  0  0  0  0  0  0  0  0  0  0
    1.2762   -0.1051    0.3984 C   0  0  0  0  0  0  0  0  0  0  0  0
    2.0063   -1.2298    0.0990 C   0  0  0  0  0  0  0  0  0  0  0  0
   -0.0400   -1.7746   -0.1486 C   0  0  0  0  0  0  0  0  0  0  0  0
    3.4852   -1.3567    0.1297 C   0  0  0  0  0  0  0  0  0  0  0  0
    4.1997   -0.0867   -0.3566 C   0  0  1  0  0  0  0  0  0  0  0  0
    2.9761    1.5109    0.9630 C   0  0  0  0  0  0  0  0  0  0  0  0
   -0.9775    1.0877    1.2337 H   0  0  0  0  0  0  0  0  0  0  0  0
   -1.6217    0.3777   -1.6897 H   0  0  0  0  0  0  0  0  0  0  0  0
   -3.8157    1.4388   -1.3605 H   0  0  0  0  0  0  0  0  0  0  0  0
   -4.2483    0.1797    1.0957 H   0  0  0  0  0  0  0  0  0  0  0  0
   -3.2881   -1.4382   -1.3432 H   0  0  0  0  0  0  0  0  0  0  0  0
   -4.9513   -0.8487   -1.1165 H   0  0  0  0  0  0  0  0  0  0  0  0
   -0.9513   -2.3196   -0.3542 H   0  0  0  0  0  0  0  0  0  0  0  0
   -1.4835    2.6795   -1.8356 H   0  0  0  0  0  0  0  0  0  0  0  0
   -2.8897    2.1756    1.2326 H   0  0  0  0  0  0  0  0  0  0  0  0
    3.8047   -1.6031    1.1490 H   0  0  0  0  0  0  0  0  0  0  0  0
    3.7684   -2.1945   -0.5196 H   0  0  0  0  0  0  0  0  0  0  0  0
    0.9596    1.8030    1.0682 H   0  0  0  0  0  0  0  0  0  0  0  0
    5.2663   -0.3378   -0.4016 H   0  0  0  0  0  0  0  0  0  0  0  0
   -3.4878   -2.5095    0.6682 H   0  0  0  0  0  0  0  0  0  0  0  0
    3.0100    2.4210    1.5856 H   0  0  0  0  0  0  0  0  0  0  0  0
    4.2183    1.0253   -1.9518 H   0  0  0  0  0  0  0  0  0  0  0  0
  1 10  1  0  0  0  0
  1 13  1  0  0  0  0
  2 11  1  0  0  0  0
  2 28  1  0  0  0  0
  3 12  1  0  0  0  0
  3 29  1  0  0  0  0
  4 14  1  0  0  0  0
  4 34  1  0  0  0  0
  5 19  1  0  0  0  0
  5 36  1  0  0  0  0
  6 10  1  0  0  0  0
  6 15  1  0  0  0  0
  6 17  1  0  0  0  0
  7 16  1  0  0  0  0
  7 17  2  0  0  0  0
  8 15  1  0  0  0  0
  8 20  1  0  0  0  0
  8 32  1  0  0  0  0
  9 19  1  0  0  0  0
  9 20  2  0  0  0  0
 10 11  1  0  0  0  0
 10 21  1  0  0  0  0
 11 12  1  0  0  0  0
 11 22  1  0  0  0  0
 12 13  1  0  0  0  0
 12 23  1  0  0  0  0
 13 14  1  0  0  0  0
 13 24  1  0  0  0  0
 14 25  1  0  0  0  0
 14 26  1  0  0  0  0
 15 16  2  0  0  0  0
 16 18  1  0  0  0  0
 17 27  1  0  0  0  0
 18 19  1  0  0  0  0
 18 30  1  0  0  0  0
 18 31  1  0  0  0  0
 19 33  1  0  0  0  0
 20 35  1  0  0  0  0
M  END
> <PUBCHEM_COMPOUND_CID>
128757

> <PUBCHEM_CONFORMER_RMSD>
0.6

> <PUBCHEM_CONFORMER_DIVERSEORDER>
1
31
17
39
27
38
13
14
29
32
35
9
4
22
12
11
10
3
5
15
7
37
23
20
34
6
18
25
19
21
16
28
2
26
33
30
8
36
24

> <PUBCHEM_MMFF94_PARTIAL_CHARGES>
27
1 -0.56
10 0.54
11 0.28
12 0.28
13 0.28
14 0.28
15 -0.07
16 0.05
17 0.04
18 0.18
19 0.53
2 -0.68
20 0.44
27 0.15
28 0.4
29 0.4
3 -0.68
32 0.4
34 0.4
35 0.06
36 0.4
4 -0.68
5 -0.68
6 0.05
7 -0.57
8 -0.53
9 -0.7

> <PUBCHEM_EFFECTIVE_ROTOR_COUNT>
3.6

> <PUBCHEM_PHARMACOPHORE_FEATURES>
15
1 1 acceptor
1 2 acceptor
1 2 donor
1 3 acceptor
1 3 donor
1 4 acceptor
1 4 donor
1 5 acceptor
1 5 donor
1 8 donor
3 6 7 17 cation
3 8 9 20 cation
5 1 10 11 12 13 rings
5 6 7 15 16 17 rings
7 8 9 15 16 18 19 20 rings

> <PUBCHEM_HEAVY_ATOM_COUNT>
20

> <PUBCHEM_ATOM_DEF_STEREO_COUNT>
4

> <PUBCHEM_ATOM_UDEF_STEREO_COUNT>
1

> <PUBCHEM_BOND_DEF_STEREO_COUNT>
0

> <PUBCHEM_BOND_UDEF_STEREO_COUNT>
0

> <PUBCHEM_ISOTOPIC_ATOM_COUNT>
0

> <PUBCHEM_COMPONENT_COUNT>
1

> <PUBCHEM_CACTVS_TAUTO_COUNT>
2

> <PUBCHEM_CONFORMER_ID>
0001F6F500000001

> <PUBCHEM_MMFF94_ENERGY>
44.5334

> <PUBCHEM_FEATURE_SELFOVERLAP>
76.18

> <PUBCHEM_SHAPE_FINGERPRINT>
10366900 7 18261115209346176946
10498660 4 18187639180773372565
10608611 8 18337947883557076865
11132069 177 18186516579628123389
11615757 297 17917713499980845578
12403259 226 18410004404248644208
12403259 415 18343579668288256776
12403260 363 18409157827450167818
12596599 1 17632307743483723412
12633257 1 18120646938204522489
12969540 114 17680126501500223885
13224815 77 18334007281122265821
14289901 80 17603586287916085730
15196674 1 18411979144232799944
15219456 202 18410007702387934297
15375462 6 18408317765822043903
17349148 13 17313386742247507487
17834072 14 8286201647573836198
18186145 218 18060706074142582112
19591789 44 18413106160715699078
19930381 70 18055062418344284753
200 152 17988633104406668343
20645477 56 18263927636184906797
21501502 16 18263359196698681555
21524375 3 18409165502657472170
221490 88 18341615880281067834
22854114 111 18410852136314091674
23402539 116 17894906317411593870
23557571 272 18409174298676108815
23559900 14 18123744258313426962
25 1 18340765927927823434
2748010 2 18199470046727224338
2871803 45 18338788001115234223
296302 2 13334735747355617918
3286 77 18411411800475100190
3323516 105 18202286909312246358
4990 188 17989494004662549438
5104073 3 18411696556511524306
5283173 99 17969202483597515781
633830 44 17846783983556557980
7097593 13 17537136074210133963
81228 2 17691946572967091730
9709674 26 18410858724451720947

> <PUBCHEM_SHAPE_MULTIPOLES>
362.32
8.51
2.29
0.99
0.01
0.07
0.21
0.23
0.5
-1.15
0.05
0.38
-0.26
0.51

> <PUBCHEM_SHAPE_SELFOVERLAP>
775.609

> <PUBCHEM_SHAPE_VOLUME>
197.9

> <PUBCHEM_COORDINATE_TYPE>
2
5
10

$$$$
