128766
  -OEChem-03292013323D

 60 60  0     1  0  0  0  0  0999 V2000
    5.0532    2.6361    0.5897 O   0  0  0  0  0  0  0  0  0  0  0  0
    0.7288    4.3081   -0.1686 O   0  0  0  0  0  0  0  0  0  0  0  0
    5.3069   -2.4979    0.2336 O   0  0  0  0  0  0  0  0  0  0  0  0
    0.5910   -4.1940    1.5350 O   0  0  0  0  0  0  0  0  0  0  0  0
   -8.2920    0.3092   -0.4642 O   0  0  0  0  0  0  0  0  0  0  0  0
   -7.1111   -0.3599    1.3563 O   0  0  0  0  0  0  0  0  0  0  0  0
    1.5663    2.0384   -0.3691 C   0  0  1  0  0  0  0  0  0  0  0  0
    2.9265    1.5595    0.1609 C   0  0  2  0  0  0  0  0  0  0  0  0
    3.8881    2.6938   -0.2179 C   0  0  1  0  0  0  0  0  0  0  0  0
    3.1029    3.9722    0.0659 C   0  0  0  0  0  0  0  0  0  0  0  0
    0.3850    1.4318    0.3677 C   0  0  0  0  0  0  0  0  0  0  0  0
    1.6780    3.5342   -0.1550 C   0  0  0  0  0  0  0  0  0  0  0  0
   -0.9185    1.6183   -0.4110 C   0  0  0  0  0  0  0  0  0  0  0  0
    3.3324    0.2376   -0.4080 C   0  0  0  0  0  0  0  0  0  0  0  0
   -2.1097    1.0386    0.3542 C   0  0  0  0  0  0  0  0  0  0  0  0
    3.5972   -0.8460    0.3362 C   0  0  0  0  0  0  0  0  0  0  0  0
   -3.4425    1.1915   -0.3851 C   0  0  0  0  0  0  0  0  0  0  0  0
    4.0015   -2.1737   -0.2410 C   0  0  2  0  0  0  0  0  0  0  0  0
    3.0264   -3.2772    0.1885 C   0  0  0  0  0  0  0  0  0  0  0  0
   -4.6685    0.6088    0.3237 C   0  0  0  0  0  0  0  0  0  0  0  0
    1.5939   -2.9994   -0.2955 C   0  0  0  0  0  0  0  0  0  0  0  0
    0.6189   -4.1130    0.1092 C   0  0  2  0  0  0  0  0  0  0  0  0
   -5.9586    0.7411   -0.4847 C   0  0  0  0  0  0  0  0  0  0  0  0
   -0.8129   -3.8658   -0.3813 C   0  0  0  0  0  0  0  0  0  0  0  0
   -0.9364   -3.7587   -1.8924 C   0  0  0  0  0  0  0  0  0  0  0  0
   -7.1467    0.1664    0.2528 C   0  0  0  0  0  0  0  0  0  0  0  0
    1.4957    1.8646   -1.4508 H   0  0  0  0  0  0  0  0  0  0  0  0
    2.8910    1.4879    1.2586 H   0  0  0  0  0  0  0  0  0  0  0  0
    4.1820    2.6411   -1.2737 H   0  0  0  0  0  0  0  0  0  0  0  0
    3.3768    4.7687   -0.6304 H   0  0  0  0  0  0  0  0  0  0  0  0
    3.2285    4.3149    1.0972 H   0  0  0  0  0  0  0  0  0  0  0  0
    0.5465    0.3576    0.5165 H   0  0  0  0  0  0  0  0  0  0  0  0
    0.2847    1.8805    1.3641 H   0  0  0  0  0  0  0  0  0  0  0  0
   -1.1072    2.6785   -0.6073 H   0  0  0  0  0  0  0  0  0  0  0  0
   -0.8374    1.1215   -1.3857 H   0  0  0  0  0  0  0  0  0  0  0  0
    3.4089    0.1660   -1.4907 H   0  0  0  0  0  0  0  0  0  0  0  0
   -2.1884    1.5294    1.3321 H   0  0  0  0  0  0  0  0  0  0  0  0
   -1.9319   -0.0266    0.5481 H   0  0  0  0  0  0  0  0  0  0  0  0
    5.5949    3.4144    0.3740 H   0  0  0  0  0  0  0  0  0  0  0  0
    3.5262   -0.7785    1.4196 H   0  0  0  0  0  0  0  0  0  0  0  0
   -3.6202    2.2579   -0.5737 H   0  0  0  0  0  0  0  0  0  0  0  0
   -3.3501    0.7153   -1.3697 H   0  0  0  0  0  0  0  0  0  0  0  0
    4.0558   -2.1324   -1.3347 H   0  0  0  0  0  0  0  0  0  0  0  0
    3.0472   -3.3877    1.2806 H   0  0  0  0  0  0  0  0  0  0  0  0
    3.3759   -4.2376   -0.2117 H   0  0  0  0  0  0  0  0  0  0  0  0
   -4.4845   -0.4508    0.5425 H   0  0  0  0  0  0  0  0  0  0  0  0
   -4.7900    1.1068    1.2940 H   0  0  0  0  0  0  0  0  0  0  0  0
    1.6122   -2.8861   -1.3846 H   0  0  0  0  0  0  0  0  0  0  0  0
    1.2364   -2.0565    0.1335 H   0  0  0  0  0  0  0  0  0  0  0  0
    0.9809   -5.0749   -0.2725 H   0  0  0  0  0  0  0  0  0  0  0  0
   -5.8562    0.2082   -1.4363 H   0  0  0  0  0  0  0  0  0  0  0  0
   -6.1605    1.7987   -0.6866 H   0  0  0  0  0  0  0  0  0  0  0  0
    5.2653   -2.5863    1.2014 H   0  0  0  0  0  0  0  0  0  0  0  0
   -1.4537   -4.6835   -0.0276 H   0  0  0  0  0  0  0  0  0  0  0  0
   -1.2146   -2.9572    0.0850 H   0  0  0  0  0  0  0  0  0  0  0  0
   -0.4605   -2.8503   -2.2726 H   0  0  0  0  0  0  0  0  0  0  0  0
   -0.4847   -4.6243   -2.3871 H   0  0  0  0  0  0  0  0  0  0  0  0
   -1.9923   -3.7181   -2.1790 H   0  0  0  0  0  0  0  0  0  0  0  0
    0.0053   -4.9321    1.7755 H   0  0  0  0  0  0  0  0  0  0  0  0
   -9.0681   -0.0590    0.0096 H   0  0  0  0  0  0  0  0  0  0  0  0
  1  9  1  0  0  0  0
  1 39  1  0  0  0  0
  2 12  2  0  0  0  0
  3 18  1  0  0  0  0
  3 53  1  0  0  0  0
  4 22  1  0  0  0  0
  4 59  1  0  0  0  0
  5 26  1  0  0  0  0
  5 60  1  0  0  0  0
  6 26  2  0  0  0  0
  7  8  1  0  0  0  0
  7 11  1  0  0  0  0
  7 12  1  0  0  0  0
  7 27  1  0  0  0  0
  8  9  1  0  0  0  0
  8 14  1  0  0  0  0
  8 28  1  0  0  0  0
  9 10  1  0  0  0  0
  9 29  1  0  0  0  0
 10 12  1  0  0  0  0
 10 30  1  0  0  0  0
 10 31  1  0  0  0  0
 11 13  1  0  0  0  0
 11 32  1  0  0  0  0
 11 33  1  0  0  0  0
 13 15  1  0  0  0  0
 13 34  1  0  0  0  0
 13 35  1  0  0  0  0
 14 16  2  3  0  0  0
 14 36  1  0  0  0  0
 15 17  1  0  0  0  0
 15 37  1  0  0  0  0
 15 38  1  0  0  0  0
 16 18  1  0  0  0  0
 16 40  1  0  0  0  0
 17 20  1  0  0  0  0
 17 41  1  0  0  0  0
 17 42  1  0  0  0  0
 18 19  1  0  0  0  0
 18 43  1  0  0  0  0
 19 21  1  0  0  0  0
 19 44  1  0  0  0  0
 19 45  1  0  0  0  0
 20 23  1  0  0  0  0
 20 46  1  0  0  0  0
 20 47  1  0  0  0  0
 21 22  1  0  0  0  0
 21 48  1  0  0  0  0
 21 49  1  0  0  0  0
 22 24  1  0  0  0  0
 22 50  1  0  0  0  0
 23 26  1  0  0  0  0
 23 51  1  0  0  0  0
 23 52  1  0  0  0  0
 24 25  1  0  0  0  0
 24 54  1  0  0  0  0
 24 55  1  0  0  0  0
 25 56  1  0  0  0  0
 25 57  1  0  0  0  0
 25 58  1  0  0  0  0
M  END
> <PUBCHEM_COMPOUND_CID>
128766

> <PUBCHEM_CONFORMER_RMSD>
1.2

> <PUBCHEM_CONFORMER_DIVERSEORDER>
1
62
78
117
69
101
100
91
143
64
93
51
41
68
121
84
80
109
22
141
73
13
31
114
50
142
16
94
106
24
82
65
110
25
155
30
140
28
146
128
152
19
88
134
153
56
90
105
156
6
35
37
103
120
129
55
95
60
116
145
5
85
32
138
96
124
108
133
63
81
98
67
137
111
72
2
39
126
118
47
52
14
29
130
71
147
104
43
123
38
46
33
54
76
97
125
48
74
21
151
10
15
20
83
59
154
79
132
150
92
36
119
107
87
70
34
112
139
148
45
49
144
26
61
18
40
11
122
99
89
42
127
66
44
131
57
86
27
58
53
149
12
9
4
23
115
8
102
157
17
136
75
113
7
3
77
135

> <PUBCHEM_MMFF94_PARTIAL_CHARGES>
23
1 -0.68
10 0.06
12 0.45
14 -0.29
16 -0.29
18 0.42
2 -0.57
22 0.28
23 0.06
26 0.66
3 -0.68
36 0.15
39 0.4
4 -0.68
40 0.15
5 -0.65
53 0.4
59 0.4
6 -0.57
60 0.5
7 0.06
8 0.14
9 0.28

> <PUBCHEM_EFFECTIVE_ROTOR_COUNT>
13.8

> <PUBCHEM_PHARMACOPHORE_FEATURES>
14
1 1 acceptor
1 1 donor
1 2 acceptor
1 25 hydrophobe
1 3 acceptor
1 3 donor
1 4 acceptor
1 4 donor
1 5 acceptor
1 6 acceptor
3 11 13 15 hydrophobe
3 17 20 23 hydrophobe
3 5 6 26 anion
5 7 8 9 10 12 rings

> <PUBCHEM_HEAVY_ATOM_COUNT>
26

> <PUBCHEM_ATOM_DEF_STEREO_COUNT>
4

> <PUBCHEM_ATOM_UDEF_STEREO_COUNT>
0

> <PUBCHEM_BOND_DEF_STEREO_COUNT>
0

> <PUBCHEM_BOND_UDEF_STEREO_COUNT>
1

> <PUBCHEM_ISOTOPIC_ATOM_COUNT>
0

> <PUBCHEM_COMPONENT_COUNT>
1

> <PUBCHEM_CACTVS_TAUTO_COUNT>
3

> <PUBCHEM_CONFORMER_ID>
0001F6FE00000001

> <PUBCHEM_MMFF94_ENERGY>
27.8334

> <PUBCHEM_FEATURE_SELFOVERLAP>
71.107

> <PUBCHEM_SHAPE_FINGERPRINT>
10316853 100 18408606946234003210
1100329 8 18411132537802608246
13383661 66 17342386177237740446
13533116 47 18343021095033415921
1361 2 18410292519060087489
13773456 30 18337390572922219336
13785724 45 17839474288805805023
14725015 67 18116145580629559178
15483637 11 18049442835915846803
15927050 60 18196935684904089726
19427546 62 18193276514370514468
20028762 73 18201719509741558431
20645477 70 18333729100338576600
21197605 99 18338805614940093715
22113638 7 18339917122189565654
3421961 26 18411135793134792808
3882209 13 16891698482435908355
46194498 28 17748548142795432156
5047190 2 18271511083893690687
5309563 4 18194120711619055991
653340 110 17404574962736330456

> <PUBCHEM_SHAPE_MULTIPOLES>
499.85
14.68
7.05
0.96
38.61
3.97
-0.07
-3.62
1.88
-8.63
-0.38
0.53
0.8
-0.31

> <PUBCHEM_SHAPE_SELFOVERLAP>
977.131

> <PUBCHEM_SHAPE_VOLUME>
300.8

> <PUBCHEM_COORDINATE_TYPE>
2
5
10

$$$$
