128799
  -OEChem-03292013323D

 51 53  0     1  0  0  0  0  0999 V2000
    3.7921   -0.4442   -0.7540 S   0  0  0  0  0  0  0  0  0  0  0  0
   -0.4750    1.6204    0.9448 O   0  0  0  0  0  0  0  0  0  0  0  0
    1.1269    1.9904    2.5486 O   0  0  0  0  0  0  0  0  0  0  0  0
    2.7634    3.0455   -1.7213 O   0  0  0  0  0  0  0  0  0  0  0  0
    4.8419    3.1641   -0.8237 O   0  0  0  0  0  0  0  0  0  0  0  0
    2.7490   -3.8048    0.5127 O   0  0  0  0  0  0  0  0  0  0  0  0
    1.6799    1.8253    0.3016 N   0  0  0  0  0  0  0  0  0  0  0  0
    1.9942   -2.4080   -1.1860 N   0  0  0  0  0  0  0  0  0  0  0  0
   -2.6015    0.6774    1.4888 C   0  0  0  0  0  0  0  0  0  0  0  0
   -3.1527    1.0572    0.1218 C   0  0  0  0  0  0  0  0  0  0  0  0
   -2.1285   -0.7481    1.2417 C   0  0  0  0  0  0  0  0  0  0  0  0
   -3.0227   -0.0235   -0.7795 C   0  0  0  0  0  0  0  0  0  0  0  0
   -2.3943   -1.1311   -0.0924 C   0  0  0  0  0  0  0  0  0  0  0  0
   -1.4773    1.5984    1.9455 C   0  0  0  0  0  0  0  0  0  0  0  0
   -3.7325    2.2533   -0.2689 C   0  0  0  0  0  0  0  0  0  0  0  0
   -1.5331   -1.6230    2.1358 C   0  0  0  0  0  0  0  0  0  0  0  0
   -3.4666    0.0913   -2.0868 C   0  0  0  0  0  0  0  0  0  0  0  0
   -2.0549   -2.3962   -0.5437 C   0  0  0  0  0  0  0  0  0  0  0  0
   -4.1794    2.3686   -1.5864 C   0  0  0  0  0  0  0  0  0  0  0  0
   -1.1911   -2.8977    1.6804 C   0  0  0  0  0  0  0  0  0  0  0  0
   -4.0470    1.2985   -2.4869 C   0  0  0  0  0  0  0  0  0  0  0  0
   -1.4486   -3.2802    0.3536 C   0  0  0  0  0  0  0  0  0  0  0  0
    0.8130    1.8279    1.3740 C   0  0  0  0  0  0  0  0  0  0  0  0
    3.1066    2.0181    0.4232 C   0  0  1  0  0  0  0  0  0  0  0  0
    3.8442    0.6989    0.6660 C   0  0  0  0  0  0  0  0  0  0  0  0
    3.6770    2.7914   -0.7541 C   0  0  0  0  0  0  0  0  0  0  0  0
    2.1581   -1.1619   -0.4719 C   0  0  0  0  0  0  0  0  0  0  0  0
    2.3089   -3.6317   -0.6206 C   0  0  0  0  0  0  0  0  0  0  0  0
    2.0501   -4.7763   -1.5622 C   0  0  0  0  0  0  0  0  0  0  0  0
   -3.4220    0.6611    2.2159 H   0  0  0  0  0  0  0  0  0  0  0  0
   -1.0877    1.2481    2.9089 H   0  0  0  0  0  0  0  0  0  0  0  0
   -1.8491    2.6206    2.0794 H   0  0  0  0  0  0  0  0  0  0  0  0
   -3.8407    3.0803    0.4241 H   0  0  0  0  0  0  0  0  0  0  0  0
   -1.3354   -1.3332    3.1618 H   0  0  0  0  0  0  0  0  0  0  0  0
   -3.3732   -0.7268   -2.7933 H   0  0  0  0  0  0  0  0  0  0  0  0
   -2.2477   -2.7068   -1.5651 H   0  0  0  0  0  0  0  0  0  0  0  0
   -4.6367    3.2961   -1.9207 H   0  0  0  0  0  0  0  0  0  0  0  0
   -0.7194   -3.6035    2.3590 H   0  0  0  0  0  0  0  0  0  0  0  0
   -4.4027    1.4115   -3.5078 H   0  0  0  0  0  0  0  0  0  0  0  0
   -1.1718   -4.2774    0.0214 H   0  0  0  0  0  0  0  0  0  0  0  0
    3.2613    2.6621    1.2987 H   0  0  0  0  0  0  0  0  0  0  0  0
    1.2861    1.6977   -0.6257 H   0  0  0  0  0  0  0  0  0  0  0  0
    4.9039    0.9107    0.8484 H   0  0  0  0  0  0  0  0  0  0  0  0
    3.4668    0.1909    1.5600 H   0  0  0  0  0  0  0  0  0  0  0  0
    1.9936   -1.3437    0.5943 H   0  0  0  0  0  0  0  0  0  0  0  0
    1.3812   -0.4953   -0.8504 H   0  0  0  0  0  0  0  0  0  0  0  0
    1.6571   -2.3700   -2.1435 H   0  0  0  0  0  0  0  0  0  0  0  0
    3.1502    3.5506   -2.4679 H   0  0  0  0  0  0  0  0  0  0  0  0
    2.2079   -5.7249   -1.0418 H   0  0  0  0  0  0  0  0  0  0  0  0
    2.7361   -4.7157   -2.4115 H   0  0  0  0  0  0  0  0  0  0  0  0
    1.0181   -4.7394   -1.9226 H   0  0  0  0  0  0  0  0  0  0  0  0
  1 25  1  0  0  0  0
  1 27  1  0  0  0  0
  2 14  1  0  0  0  0
  2 23  1  0  0  0  0
  3 23  2  0  0  0  0
  4 26  1  0  0  0  0
  4 48  1  0  0  0  0
  5 26  2  0  0  0  0
  6 28  2  0  0  0  0
  7 23  1  0  0  0  0
  7 24  1  0  0  0  0
  7 42  1  0  0  0  0
  8 27  1  0  0  0  0
  8 28  1  0  0  0  0
  8 47  1  0  0  0  0
  9 10  1  0  0  0  0
  9 11  1  0  0  0  0
  9 14  1  0  0  0  0
  9 30  1  0  0  0  0
 10 12  1  0  0  0  0
 10 15  2  0  0  0  0
 11 13  1  0  0  0  0
 11 16  2  0  0  0  0
 12 13  1  0  0  0  0
 12 17  2  0  0  0  0
 13 18  2  0  0  0  0
 14 31  1  0  0  0  0
 14 32  1  0  0  0  0
 15 19  1  0  0  0  0
 15 33  1  0  0  0  0
 16 20  1  0  0  0  0
 16 34  1  0  0  0  0
 17 21  1  0  0  0  0
 17 35  1  0  0  0  0
 18 22  1  0  0  0  0
 18 36  1  0  0  0  0
 19 21  2  0  0  0  0
 19 37  1  0  0  0  0
 20 22  2  0  0  0  0
 20 38  1  0  0  0  0
 21 39  1  0  0  0  0
 22 40  1  0  0  0  0
 24 25  1  0  0  0  0
 24 26  1  0  0  0  0
 24 41  1  0  0  0  0
 25 43  1  0  0  0  0
 25 44  1  0  0  0  0
 27 45  1  0  0  0  0
 27 46  1  0  0  0  0
 28 29  1  0  0  0  0
 29 49  1  0  0  0  0
 29 50  1  0  0  0  0
 29 51  1  0  0  0  0
M  END
> <PUBCHEM_COMPOUND_CID>
128799

> <PUBCHEM_CONFORMER_RMSD>
1

> <PUBCHEM_CONFORMER_DIVERSEORDER>
1
175
124
91
61
150
177
23
159
27
126
181
165
55
115
44
29
160
52
108
87
72
161
98
13
151
100
116
114
133
153
49
106
174
101
34
164
31
97
74
37
144
132
24
107
33
62
120
26
113
155
43
105
168
84
104
60
82
41
169
28
154
135
78
4
80
68
88
73
77
58
171
25
142
167
21
182
86
176
170
19
127
157
79
152
63
53
59
65
89
149
50
111
47
117
129
94
99
140
130
22
121
90
48
8
173
15
143
125
45
162
51
35
110
93
118
131
85
145
136
102
172
183
119
38
75
64
18
36
141
137
32
139
76
56
17
166
96
122
92
30
123
134
69
54
180
3
128
83
147
109
70
95
42
103
66
5
179
46
14
112
11
39
20
16
158
2
148
163
146
57
178
156
12
71
138
67
40
9
81
10
7
6

> <PUBCHEM_MMFF94_PARTIAL_CHARGES>
38
1 -0.46
10 -0.14
11 -0.14
14 0.28
15 -0.15
16 -0.15
17 -0.15
18 -0.15
19 -0.15
2 -0.43
20 -0.15
21 -0.15
22 -0.15
23 0.78
24 0.36
25 0.23
26 0.66
27 0.53
28 0.57
29 0.06
3 -0.57
33 0.15
34 0.15
35 0.15
36 0.15
37 0.15
38 0.15
39 0.15
4 -0.65
40 0.15
42 0.37
47 0.37
48 0.5
5 -0.57
6 -0.57
7 -0.73
8 -0.73
9 0.29

> <PUBCHEM_EFFECTIVE_ROTOR_COUNT>
11.2

> <PUBCHEM_PHARMACOPHORE_FEATURES>
10
1 3 acceptor
1 4 acceptor
1 5 acceptor
1 6 acceptor
1 7 donor
1 8 donor
3 4 5 26 anion
5 9 10 11 12 13 rings
6 10 12 15 17 19 21 rings
6 11 13 16 18 20 22 rings

> <PUBCHEM_HEAVY_ATOM_COUNT>
29

> <PUBCHEM_ATOM_DEF_STEREO_COUNT>
1

> <PUBCHEM_ATOM_UDEF_STEREO_COUNT>
0

> <PUBCHEM_BOND_DEF_STEREO_COUNT>
0

> <PUBCHEM_BOND_UDEF_STEREO_COUNT>
0

> <PUBCHEM_ISOTOPIC_ATOM_COUNT>
0

> <PUBCHEM_COMPONENT_COUNT>
1

> <PUBCHEM_CACTVS_TAUTO_COUNT>
4

> <PUBCHEM_CONFORMER_ID>
0001F71F00000001

> <PUBCHEM_MMFF94_ENERGY>
69.3873

> <PUBCHEM_FEATURE_SELFOVERLAP>
50.967

> <PUBCHEM_SHAPE_FINGERPRINT>
10675989 125 18194394490025935208
11513181 2 17199671766906742142
12553582 1 17981907254235516774
12788726 201 16988020300965395737
14114206 34 17326644413290841126
14251757 17 18335703776319722347
14289585 56 13576182299499664053
15475509 35 12890535451560324309
192875 21 17840862980170800383
19930381 70 18271252625272159307
21304303 94 17983542344322219415
21315764 21 18265328409134117873
21857420 4 15663320750331167749
22907989 373 17973997655210714933
23559900 14 18341889641817852818
25265897 201 17749403558609658189
35225 105 17765145464443367886
354706 35 18267287915053781300
9981440 41 18268135621222895466

> <PUBCHEM_SHAPE_MULTIPOLES>
561.35
8.36
5.53
2.25
1.76
4.24
-0.2
-5.19
4.48
5.82
1.24
-1.55
-0.39
1.36

> <PUBCHEM_SHAPE_SELFOVERLAP>
1182.502

> <PUBCHEM_SHAPE_VOLUME>
317.1

> <PUBCHEM_COORDINATE_TYPE>
2
5
10

$$$$
