128803
  -OEChem-03292013323D

 41 43  0     0  0  0  0  0  0999 V2000
    8.6756   -2.9217   -0.0076 Br  0  0  0  0  0  0  0  0  0  0  0  0
    3.7584    1.5462    2.6700 Cl  0  0  0  0  0  0  0  0  0  0  0  0
    4.7735    1.5495   -0.1599 O   0  0  0  0  0  0  0  0  0  0  0  0
   -3.9501   -0.7315   -2.1158 O   0  0  0  0  0  0  0  0  0  0  0  0
   -1.2599   -0.0623   -1.8941 O   0  0  0  0  0  0  0  0  0  0  0  0
   -6.6497    2.3538    0.0984 O   0  5  0  0  0  0  0  0  0  0  0  0
   -4.7845    1.7292   -0.8762 O   0  0  0  0  0  0  0  0  0  0  0  0
   -0.6058    0.2856    0.3349 N   0  0  0  0  0  0  0  0  0  0  0  0
   -2.7814   -0.2844   -0.1515 N   0  0  0  0  0  0  0  0  0  0  0  0
   -5.8142    1.4718   -0.2096 N   0  3  0  0  0  0  0  0  0  0  0  0
    5.1703   -0.7218    0.0486 N   0  0  0  0  0  0  0  0  0  0  0  0
    6.9756    0.8426   -0.2687 N   0  0  0  0  0  0  0  0  0  0  0  0
    0.7662    0.6087    0.2169 C   0  0  0  0  0  0  0  0  0  0  0  0
   -5.1433   -0.8861   -0.1050 C   0  0  0  0  0  0  0  0  0  0  0  0
   -6.0425    0.1322    0.2122 C   0  0  0  0  0  0  0  0  0  0  0  0
    1.4992    0.8849    1.3597 C   0  0  0  0  0  0  0  0  0  0  0  0
    1.3490    0.6422   -1.0396 C   0  0  0  0  0  0  0  0  0  0  0  0
    3.4534    1.2413   -0.0156 C   0  0  0  0  0  0  0  0  0  0  0  0
    2.8523    1.2035    1.2426 C   0  0  0  0  0  0  0  0  0  0  0  0
    2.7018    0.9608   -1.1566 C   0  0  0  0  0  0  0  0  0  0  0  0
   -3.9357   -0.6245   -0.8790 C   0  0  0  0  0  0  0  0  0  0  0  0
   -5.3896   -2.1916    0.3204 C   0  0  0  0  0  0  0  0  0  0  0  0
   -7.1880   -0.1553    0.9545 C   0  0  0  0  0  0  0  0  0  0  0  0
   -1.5057   -0.0210   -0.6914 C   0  0  0  0  0  0  0  0  0  0  0  0
   -6.5351   -2.4788    1.0628 C   0  0  0  0  0  0  0  0  0  0  0  0
   -7.4343   -1.4607    1.3799 C   0  0  0  0  0  0  0  0  0  0  0  0
    5.6831    0.5072   -0.1256 C   0  0  0  0  0  0  0  0  0  0  0  0
    6.0845   -1.7137    0.0790 C   0  0  0  0  0  0  0  0  0  0  0  0
    7.8344   -0.1972   -0.2285 C   0  0  0  0  0  0  0  0  0  0  0  0
    7.4425   -1.5089   -0.0554 C   0  0  0  0  0  0  0  0  0  0  0  0
    1.0258    0.8540    2.3382 H   0  0  0  0  0  0  0  0  0  0  0  0
    0.8366    0.4379   -1.9678 H   0  0  0  0  0  0  0  0  0  0  0  0
   -0.9737    0.2774    1.2828 H   0  0  0  0  0  0  0  0  0  0  0  0
    3.1634    0.9898   -2.1401 H   0  0  0  0  0  0  0  0  0  0  0  0
   -4.6970   -2.9941    0.0798 H   0  0  0  0  0  0  0  0  0  0  0  0
   -7.9131    0.6091    1.2223 H   0  0  0  0  0  0  0  0  0  0  0  0
   -2.8702   -0.2276    0.8598 H   0  0  0  0  0  0  0  0  0  0  0  0
   -6.7270   -3.4952    1.3940 H   0  0  0  0  0  0  0  0  0  0  0  0
   -8.3260   -1.6850    1.9580 H   0  0  0  0  0  0  0  0  0  0  0  0
    5.6685   -2.7064    0.2198 H   0  0  0  0  0  0  0  0  0  0  0  0
    8.8788    0.0752   -0.3445 H   0  0  0  0  0  0  0  0  0  0  0  0
  1 30  1  0  0  0  0
  2 19  1  0  0  0  0
  3 18  1  0  0  0  0
  3 27  1  0  0  0  0
  4 21  2  0  0  0  0
  5 24  2  0  0  0  0
  6 10  1  0  0  0  0
  7 10  2  0  0  0  0
  8 13  1  0  0  0  0
  8 24  1  0  0  0  0
  8 33  1  0  0  0  0
  9 21  1  0  0  0  0
  9 24  1  0  0  0  0
  9 37  1  0  0  0  0
 10 15  1  0  0  0  0
 11 27  1  0  0  0  0
 11 28  2  0  0  0  0
 12 27  2  0  0  0  0
 12 29  1  0  0  0  0
 13 16  2  0  0  0  0
 13 17  1  0  0  0  0
 14 15  1  0  0  0  0
 14 21  1  0  0  0  0
 14 22  2  0  0  0  0
 15 23  2  0  0  0  0
 16 19  1  0  0  0  0
 16 31  1  0  0  0  0
 17 20  2  0  0  0  0
 17 32  1  0  0  0  0
 18 19  2  0  0  0  0
 18 20  1  0  0  0  0
 20 34  1  0  0  0  0
 22 25  1  0  0  0  0
 22 35  1  0  0  0  0
 23 26  1  0  0  0  0
 23 36  1  0  0  0  0
 25 26  2  0  0  0  0
 25 38  1  0  0  0  0
 26 39  1  0  0  0  0
 28 30  1  0  0  0  0
 28 40  1  0  0  0  0
 29 30  2  0  0  0  0
 29 41  1  0  0  0  0
M  CHG  2   6  -1  10   1
M  END
> <PUBCHEM_COMPOUND_CID>
128803

> <PUBCHEM_CONFORMER_RMSD>
1

> <PUBCHEM_CONFORMER_DIVERSEORDER>
1
62
15
39
24
58
63
6
27
41
53
54
32
60
17
46
23
40
16
49
25
43
37
52
33
47
29
11
28
35
48
57
45
51
19
20
13
44
42
30
9
31
50
34
26
7
38
12
59
22
36
10
56
5
18
8
21
14
61
2
55
4
3

> <PUBCHEM_MMFF94_PARTIAL_CHARGES>
41
1 -0.11
10 0.91
11 -0.62
12 -0.62
13 0.12
14 0.09
15 0.13
16 -0.15
17 -0.15
18 0.08
19 0.18
2 -0.18
20 -0.15
21 0.54
22 -0.15
23 -0.15
24 0.69
25 -0.15
26 -0.15
27 0.7
28 0.16
29 0.16
3 -0.17
30 0.11
31 0.15
32 0.15
33 0.37
34 0.15
35 0.15
36 0.15
37 0.37
38 0.15
39 0.15
4 -0.57
40 0.15
41 0.15
5 -0.57
6 -0.52
7 -0.52
8 -0.55
9 -0.49

> <PUBCHEM_EFFECTIVE_ROTOR_COUNT>
8

> <PUBCHEM_PHARMACOPHORE_FEATURES>
13
1 1 hydrophobe
1 11 acceptor
1 4 acceptor
1 5 acceptor
1 6 acceptor
1 6 anion
1 7 acceptor
1 8 donor
1 9 donor
3 11 12 27 cation
6 11 12 27 28 29 30 rings
6 13 16 17 18 19 20 rings
6 14 15 22 23 25 26 rings

> <PUBCHEM_HEAVY_ATOM_COUNT>
30

> <PUBCHEM_ATOM_DEF_STEREO_COUNT>
0

> <PUBCHEM_ATOM_UDEF_STEREO_COUNT>
0

> <PUBCHEM_BOND_DEF_STEREO_COUNT>
0

> <PUBCHEM_BOND_UDEF_STEREO_COUNT>
0

> <PUBCHEM_ISOTOPIC_ATOM_COUNT>
0

> <PUBCHEM_COMPONENT_COUNT>
1

> <PUBCHEM_CACTVS_TAUTO_COUNT>
5

> <PUBCHEM_CONFORMER_ID>
0001F72300000001

> <PUBCHEM_MMFF94_ENERGY>
105.8503

> <PUBCHEM_FEATURE_SELFOVERLAP>
66.11

> <PUBCHEM_SHAPE_FINGERPRINT>
100830 39 18338518543504906185
10258705 36 18261403247129005018
10299344 5 18113057142582074402
10429389 143 9943806677190029786
10533779 1 15768393582934525443
11089746 13 12895072937703646713
12082328 90 18334012795939473285
12166972 35 18187368774027902621
125118 31 12247681586992694642
13668630 136 17749389290670388338
13685833 64 18334576850158496870
13885169 127 18334859402797484865
14040222 275 17023202508743521268
14118638 360 14562798946093776948
14344974 204 18119257405054343795
14400156 162 18410865343650283563
14767858 380 14201393893807837542
14856354 85 17895195541416732747
14933364 13 18408323306525060497
15131766 46 9078527293899788946
15183329 4 18113328704726793138
15352257 5 18187366544950334634
15419008 145 17489596619109104441
1577012 14 16128372748252618656
17134984 74 17894909608575680018
19301679 30 17631463268037656302
19841028 212 18263642858843245370
20105231 36 16805328790246413683
2026 5 18040992879304890818
20511986 3 12823024088578076669
21150785 3 12324238382125879603
21344244 181 17967254196369956658
21792938 703 16081383963794239403
22224240 67 13038900024348944492
23081809 10 17345747628611105893
23522609 53 15792578435206840388
3178227 256 17846501448213509610
34797466 226 17386007317026249756
4098825 35 18333733519954551320
45377200 153 17677060173580876755
4938544 92 17531237328605069733
5028188 123 17313107444755880471
6058803 2 16197027431386525388
9831232 110 18261678069807275558
999808 66 18187651336074203875

> <PUBCHEM_SHAPE_MULTIPOLES>
570.95
27.78
2.38
1.51
5.42
1.12
-0.37
14.88
-3.84
1
-0.55
-0.47
-0.39
1.77

> <PUBCHEM_SHAPE_SELFOVERLAP>
1221.574

> <PUBCHEM_SHAPE_VOLUME>
323

> <PUBCHEM_COORDINATE_TYPE>
2
5
10

$$$$
