128804
  -OEChem-03292013323D

 35 36  0     1  0  0  0  0  0999 V2000
    1.0379    0.6431   -0.1610 O   0  0  0  0  0  0  0  0  0  0  0  0
    4.7787   -1.1128    0.0643 O   0  0  0  0  0  0  0  0  0  0  0  0
    3.6426    1.0513   -1.2603 O   0  0  0  0  0  0  0  0  0  0  0  0
    0.0317   -1.4403   -0.4705 O   0  0  0  0  0  0  0  0  0  0  0  0
    2.3951   -2.6977    0.4790 O   0  0  0  0  0  0  0  0  0  0  0  0
    0.5274    3.2755    0.4303 O   0  0  0  0  0  0  0  0  0  0  0  0
   -5.1634    0.3489    0.1607 N   0  3  0  0  0  0  0  0  0  0  0  0
   -6.1896    0.7018    0.2853 N   0  0  0  0  0  0  0  0  0  0  0  0
    3.5406   -0.5775    0.5236 C   0  0  1  0  0  0  0  0  0  0  0  0
    3.4331    0.9001    0.1452 C   0  0  2  0  0  0  0  0  0  0  0  0
    2.3901   -1.3836   -0.0785 C   0  0  2  0  0  0  0  0  0  0  0  0
    2.0385    1.4263    0.5017 C   0  0  1  0  0  0  0  0  0  0  0  0
    1.0446   -0.7269    0.2381 C   0  0  1  0  0  0  0  0  0  0  0  0
    1.8388    2.8757    0.0745 C   0  0  0  0  0  0  0  0  0  0  0  0
   -1.2526   -0.9966   -0.3138 C   0  0  0  0  0  0  0  0  0  0  0  0
   -1.8276   -0.9771    0.9533 C   0  0  0  0  0  0  0  0  0  0  0  0
   -1.9754   -0.5692   -1.4235 C   0  0  0  0  0  0  0  0  0  0  0  0
   -3.1380   -0.5261    1.1122 C   0  0  0  0  0  0  0  0  0  0  0  0
   -3.2857   -0.1181   -1.2644 C   0  0  0  0  0  0  0  0  0  0  0  0
   -3.8670   -0.0966    0.0035 C   0  0  0  0  0  0  0  0  0  0  0  0
    3.5348   -0.6789    1.6162 H   0  0  0  0  0  0  0  0  0  0  0  0
    4.2171    1.4771    0.6470 H   0  0  0  0  0  0  0  0  0  0  0  0
    2.5280   -1.5002   -1.1602 H   0  0  0  0  0  0  0  0  0  0  0  0
    1.8627    1.3503    1.5828 H   0  0  0  0  0  0  0  0  0  0  0  0
    0.8521   -0.8000    1.3166 H   0  0  0  0  0  0  0  0  0  0  0  0
    1.9348    3.0016   -1.0086 H   0  0  0  0  0  0  0  0  0  0  0  0
    2.5535    3.5382    0.5714 H   0  0  0  0  0  0  0  0  0  0  0  0
    4.7976   -2.0542    0.3080 H   0  0  0  0  0  0  0  0  0  0  0  0
    2.8763    0.6756   -1.7256 H   0  0  0  0  0  0  0  0  0  0  0  0
    1.6394   -3.1777    0.0989 H   0  0  0  0  0  0  0  0  0  0  0  0
   -0.0943    2.6707   -0.0098 H   0  0  0  0  0  0  0  0  0  0  0  0
   -1.2823   -1.3247    1.8258 H   0  0  0  0  0  0  0  0  0  0  0  0
   -1.5265   -0.5838   -2.4126 H   0  0  0  0  0  0  0  0  0  0  0  0
   -3.5853   -0.5162    2.1026 H   0  0  0  0  0  0  0  0  0  0  0  0
   -3.8471    0.2150   -2.1331 H   0  0  0  0  0  0  0  0  0  0  0  0
  1 12  1  0  0  0  0
  1 13  1  0  0  0  0
  2  9  1  0  0  0  0
  2 28  1  0  0  0  0
  3 10  1  0  0  0  0
  3 29  1  0  0  0  0
  4 13  1  0  0  0  0
  4 15  1  0  0  0  0
  5 11  1  0  0  0  0
  5 30  1  0  0  0  0
  6 14  1  0  0  0  0
  6 31  1  0  0  0  0
  7  8  3  0  0  0  0
  7 20  1  0  0  0  0
  9 10  1  0  0  0  0
  9 11  1  0  0  0  0
  9 21  1  0  0  0  0
 10 12  1  0  0  0  0
 10 22  1  0  0  0  0
 11 13  1  0  0  0  0
 11 23  1  0  0  0  0
 12 14  1  0  0  0  0
 12 24  1  0  0  0  0
 13 25  1  0  0  0  0
 14 26  1  0  0  0  0
 14 27  1  0  0  0  0
 15 16  2  0  0  0  0
 15 17  1  0  0  0  0
 16 18  1  0  0  0  0
 16 32  1  0  0  0  0
 17 19  2  0  0  0  0
 17 33  1  0  0  0  0
 18 20  2  0  0  0  0
 18 34  1  0  0  0  0
 19 20  1  0  0  0  0
 19 35  1  0  0  0  0
M  CHG  1   7   1
M  END
> <PUBCHEM_COMPOUND_CID>
128804

> <PUBCHEM_CONFORMER_RMSD>
0.6

> <PUBCHEM_CONFORMER_DIVERSEORDER>
1
14
4
41
7
43
6
46
34
11
8
16
19
25
47
40
3
15
42
38
20
12
23
27
37
17
28
35
30
18
26
24
31
2
22
13
5
45
36
10
21
33
29
39
9
44
32

> <PUBCHEM_MMFF94_PARTIAL_CHARGES>
28
1 -0.56
10 0.28
11 0.28
12 0.28
13 0.56
14 0.28
15 0.08
16 -0.15
17 -0.15
18 -0.15
19 -0.15
2 -0.68
20 0.14
28 0.4
29 0.4
3 -0.68
30 0.4
31 0.4
32 0.15
33 0.15
34 0.15
35 0.15
4 -0.36
5 -0.68
6 -0.68
7 1.35
8 -0.49
9 0.28

> <PUBCHEM_EFFECTIVE_ROTOR_COUNT>
4.2

> <PUBCHEM_PHARMACOPHORE_FEATURES>
12
1 1 acceptor
1 2 acceptor
1 2 donor
1 3 acceptor
1 3 donor
1 4 acceptor
1 5 acceptor
1 5 donor
1 6 acceptor
1 6 donor
6 1 9 10 11 12 13 rings
6 15 16 17 18 19 20 rings

> <PUBCHEM_HEAVY_ATOM_COUNT>
20

> <PUBCHEM_ATOM_DEF_STEREO_COUNT>
5

> <PUBCHEM_ATOM_UDEF_STEREO_COUNT>
0

> <PUBCHEM_BOND_DEF_STEREO_COUNT>
0

> <PUBCHEM_BOND_UDEF_STEREO_COUNT>
0

> <PUBCHEM_ISOTOPIC_ATOM_COUNT>
0

> <PUBCHEM_COMPONENT_COUNT>
1

> <PUBCHEM_CACTVS_TAUTO_COUNT>
1

> <PUBCHEM_CONFORMER_ID>
0001F72400000001

> <PUBCHEM_MMFF94_ENERGY>
59.7566

> <PUBCHEM_FEATURE_SELFOVERLAP>
60.966

> <PUBCHEM_SHAPE_FINGERPRINT>
10354089 29 18413389830509940043
10366900 7 17895190038941179779
104564 63 18270404867383796680
10688039 33 18041561338957183693
11045977 3 18186525427919889515
11471102 20 18410009957509508586
12236239 1 17703785912248152127
12507557 5 18413106190795839963
12633257 1 18113606911217587363
13134695 92 18410847759721376540
13140716 1 18194112143486432808
13583140 156 18336554910374282443
14866123 147 16462189576334820291
15238133 3 18336274439839624717
15295992 7 18334579091999426961
1813 80 17771075890914520510
18186145 218 18199754815701049762
18335252 114 18269825438326780165
18785283 64 18115874177108609429
192875 21 18130792260848597737
20645476 183 17846212306699265655
21033648 29 17604131689224311037
21041028 32 18193831548703613510
212847 35 18335141998528557740
21639500 275 18267571575957634078
221357 26 18335977576316742021
22289505 5 18336540521674483197
22854114 111 18339639039751267254
23175994 123 18336268955065913894
23559900 14 17603309258246785743
25 1 18335137648106416994
2838139 119 18270390582992879629
3060560 45 17918281956520307526
351380 180 18410291407075196193
474 4 18340481291501826697
5104073 3 18261949764372897819
602551 16 16153716474108525251
74978 22 18198902702647790678
7832392 63 18199180857651542422
8272917 22 18341615867364511135
9971528 1 18131347510342037368
9981440 41 17192890386944626216

> <PUBCHEM_SHAPE_MULTIPOLES>
366.41
9.75
2.44
1.04
9.24
1.62
0.2
0.71
-0.42
-2.62
-0.33
0.52
-0.09
-0.26

> <PUBCHEM_SHAPE_SELFOVERLAP>
770.189

> <PUBCHEM_SHAPE_VOLUME>
203.3

> <PUBCHEM_COORDINATE_TYPE>
2
5
10

$$$$
