128879
  -OEChem-03292013323D

 29 30  0     1  0  0  0  0  0999 V2000
   -3.4917    0.0071    1.2348 O   0  0  0  0  0  0  0  0  0  0  0  0
   -1.6371   -2.2065   -1.0146 O   0  0  0  0  0  0  0  0  0  0  0  0
   -0.1221   -3.1488    0.3840 O   0  0  0  0  0  0  0  0  0  0  0  0
    4.7621    1.1042   -0.2508 O   0  0  0  0  0  0  0  0  0  0  0  0
   -1.4952    0.1572    0.0119 N   0  0  0  0  0  0  0  0  0  0  0  0
   -2.8882    2.8405   -0.2526 N   0  0  0  0  0  0  0  0  0  0  0  0
   -1.4070    1.0876   -1.0833 C   0  0  0  0  0  0  0  0  0  0  0  0
   -2.8626    1.4738   -0.7586 C   0  0  1  0  0  0  0  0  0  0  0  0
   -0.5043   -0.7561    0.5452 C   0  0  2  0  0  0  0  0  0  0  0  0
   -2.7629    0.4300    0.3666 C   0  0  0  0  0  0  0  0  0  0  0  0
    0.8876   -0.2646    0.3349 C   0  0  0  0  0  0  0  0  0  0  0  0
   -0.7289   -2.1599   -0.0099 C   0  0  0  0  0  0  0  0  0  0  0  0
    1.4712    0.5960    1.2643 C   0  0  0  0  0  0  0  0  0  0  0  0
    1.6059   -0.6656   -0.7916 C   0  0  0  0  0  0  0  0  0  0  0  0
    2.7732    1.0559    1.0674 C   0  0  0  0  0  0  0  0  0  0  0  0
    2.9081   -0.2058   -0.9886 C   0  0  0  0  0  0  0  0  0  0  0  0
    3.4918    0.6550   -0.0591 C   0  0  0  0  0  0  0  0  0  0  0  0
   -1.2711    0.5980   -2.0526 H   0  0  0  0  0  0  0  0  0  0  0  0
   -0.6427    1.8599   -0.9524 H   0  0  0  0  0  0  0  0  0  0  0  0
   -3.6053    1.2414   -1.5258 H   0  0  0  0  0  0  0  0  0  0  0  0
   -0.7215   -0.8480    1.6181 H   0  0  0  0  0  0  0  0  0  0  0  0
   -2.7614    3.5460   -0.9773 H   0  0  0  0  0  0  0  0  0  0  0  0
   -2.1878    3.0428    0.4602 H   0  0  0  0  0  0  0  0  0  0  0  0
    0.9210    0.9172    2.1449 H   0  0  0  0  0  0  0  0  0  0  0  0
    1.1740   -1.3199   -1.5434 H   0  0  0  0  0  0  0  0  0  0  0  0
    3.2162    1.7267    1.7987 H   0  0  0  0  0  0  0  0  0  0  0  0
    3.4614   -0.5181   -1.8701 H   0  0  0  0  0  0  0  0  0  0  0  0
   -1.7477   -3.1154   -1.3668 H   0  0  0  0  0  0  0  0  0  0  0  0
    5.0046    1.6887    0.4879 H   0  0  0  0  0  0  0  0  0  0  0  0
  1 10  2  0  0  0  0
  2 12  1  0  0  0  0
  2 28  1  0  0  0  0
  3 12  2  0  0  0  0
  4 17  1  0  0  0  0
  4 29  1  0  0  0  0
  5  7  1  0  0  0  0
  5  9  1  0  0  0  0
  5 10  1  0  0  0  0
  6  8  1  0  0  0  0
  6 22  1  0  0  0  0
  6 23  1  0  0  0  0
  7  8  1  0  0  0  0
  7 18  1  0  0  0  0
  7 19  1  0  0  0  0
  8 10  1  0  0  0  0
  8 20  1  0  0  0  0
  9 11  1  0  0  0  0
  9 12  1  0  0  0  0
  9 21  1  0  0  0  0
 11 13  2  0  0  0  0
 11 14  1  0  0  0  0
 13 15  1  0  0  0  0
 13 24  1  0  0  0  0
 14 16  2  0  0  0  0
 14 25  1  0  0  0  0
 15 17  2  0  0  0  0
 15 26  1  0  0  0  0
 16 17  1  0  0  0  0
 16 27  1  0  0  0  0
M  END
> <PUBCHEM_COMPOUND_CID>
128879

> <PUBCHEM_CONFORMER_RMSD>
0.6

> <PUBCHEM_CONFORMER_DIVERSEORDER>
1
17
12
18
8
14
13
2
7
11
10
6
15
4
16
9
3
5

> <PUBCHEM_MMFF94_PARTIAL_CHARGES>
25
1 -0.57
10 0.58
11 -0.14
12 0.66
13 -0.15
14 -0.15
15 -0.15
16 -0.15
17 0.08
2 -0.65
22 0.36
23 0.36
24 0.15
25 0.15
26 0.15
27 0.15
28 0.5
29 0.45
3 -0.57
4 -0.53
5 -0.59
6 -0.93
7 0.22
8 0.26
9 0.5

> <PUBCHEM_EFFECTIVE_ROTOR_COUNT>
3.6

> <PUBCHEM_PHARMACOPHORE_FEATURES>
9
1 1 acceptor
1 2 acceptor
1 3 acceptor
1 4 donor
1 6 cation
1 6 donor
3 2 3 12 anion
4 5 7 8 10 rings
6 11 13 14 15 16 17 rings

> <PUBCHEM_HEAVY_ATOM_COUNT>
17

> <PUBCHEM_ATOM_DEF_STEREO_COUNT>
2

> <PUBCHEM_ATOM_UDEF_STEREO_COUNT>
0

> <PUBCHEM_BOND_DEF_STEREO_COUNT>
0

> <PUBCHEM_BOND_UDEF_STEREO_COUNT>
0

> <PUBCHEM_ISOTOPIC_ATOM_COUNT>
0

> <PUBCHEM_COMPONENT_COUNT>
1

> <PUBCHEM_CACTVS_TAUTO_COUNT>
2

> <PUBCHEM_CONFORMER_ID>
0001F76F00000001

> <PUBCHEM_MMFF94_ENERGY>
40.8704

> <PUBCHEM_FEATURE_SELFOVERLAP>
45.73

> <PUBCHEM_SHAPE_FINGERPRINT>
1 1 18120649137106828703
10498660 4 18262795151603109117
10608611 8 18200307852965222480
11725454 13 16912796173731993096
12138202 97 18343579672567295710
12173636 292 18410007758201462316
12500047 106 18411695513477990158
12532896 13 18409728456441539663
12730499 353 18195249919495170617
13294875 104 18055049009513765602
13464514 151 17764032363159226293
13764800 53 18189058612078596313
14648413 74 17759519967908013673
15309172 13 18409170995740834577
15490181 7 18340761555556579755
15775835 57 18335698329963593818
16945 1 18335412529928455234
17134986 127 18265325110440693493
17357779 13 17769639121337720039
18186145 218 18130514028545541828
200 152 15123796184640100888
20510252 161 18411986857883670681
20645477 56 18410859905962892032
21486144 27 17917713543062497728
21501502 16 18341603854615154254
21524375 3 18261944138097445643
22112679 90 17901684974395995623
23402539 116 18337943592826518286
23419403 2 17267278679424892895
23557571 272 18198070381410421468
25 1 17988648454150285896
2748010 2 18263085409776539463
305870 269 18263074427355428242
6333449 129 18270679882381313718
633830 44 17986962855554222605
6442390 28 18338812130267584779
69090 78 18342739641146146799
7364860 26 17834106455563922287
81228 2 17979628258388311147

> <PUBCHEM_SHAPE_MULTIPOLES>
316.41
6.26
2.46
1.15
3.27
1.26
-0.06
-3.95
0.18
-1.73
0.22
0.04
-0.09
0.48

> <PUBCHEM_SHAPE_SELFOVERLAP>
675.799

> <PUBCHEM_SHAPE_VOLUME>
174.5

> <PUBCHEM_COORDINATE_TYPE>
2
5
10

$$$$
