128886
  -OEChem-03292013323D

 57 59  0     0  0  0  0  0  0999 V2000
   -2.2341   -3.2359    0.7716 S   0  0  0  0  0  0  0  0  0  0  0  0
   -2.3966   -0.3208    1.8308 O   0  0  0  0  0  0  0  0  0  0  0  0
   -2.2436   -3.1778    2.2205 O   0  0  0  0  0  0  0  0  0  0  0  0
   -2.7532   -4.3993    0.0788 O   0  0  0  0  0  0  0  0  0  0  0  0
    5.5045    0.3804   -0.2023 O   0  0  0  0  0  0  0  0  0  0  0  0
   -3.6422    0.4101    0.0258 N   0  0  0  0  0  0  0  0  0  0  0  0
   -2.9745   -1.8289    0.1435 N   0  0  0  0  0  0  0  0  0  0  0  0
    3.3802   -0.0096   -1.1324 N   0  0  0  0  0  0  0  0  0  0  0  0
    3.7742    1.7555    0.2765 N   0  0  0  0  0  0  0  0  0  0  0  0
    2.4674    2.0870    0.1223 N   0  0  0  0  0  0  0  0  0  0  0  0
   -3.7647    1.7897    0.4416 C   0  0  0  0  0  0  0  0  0  0  0  0
   -5.0954    2.3898   -0.0250 C   0  0  0  0  0  0  0  0  0  0  0  0
   -2.5765    2.6216   -0.0527 C   0  0  0  0  0  0  0  0  0  0  0  0
   -5.1318    2.6286   -1.5346 C   0  0  0  0  0  0  0  0  0  0  0  0
   -2.6172    2.8602   -1.5621 C   0  0  0  0  0  0  0  0  0  0  0  0
   -3.9461    3.4678   -2.0006 C   0  0  0  0  0  0  0  0  0  0  0  0
   -2.9613   -0.5389    0.7630 C   0  0  0  0  0  0  0  0  0  0  0  0
   -0.5685   -3.0154    0.2230 C   0  0  0  0  0  0  0  0  0  0  0  0
    2.0613   -2.6689   -0.6410 C   0  0  0  0  0  0  0  0  0  0  0  0
    3.4670   -2.4824   -1.1032 C   0  0  0  0  0  0  0  0  0  0  0  0
   -0.1685   -3.5207   -1.0140 C   0  0  0  0  0  0  0  0  0  0  0  0
    0.3464   -2.3367    1.0282 C   0  0  0  0  0  0  0  0  0  0  0  0
    1.1464   -3.3474   -1.4460 C   0  0  0  0  0  0  0  0  0  0  0  0
    1.6613   -2.1635    0.5960 C   0  0  0  0  0  0  0  0  0  0  0  0
    3.6828   -1.1926   -1.9044 C   0  0  0  0  0  0  0  0  0  0  0  0
    4.3234    0.6431   -0.3692 C   0  0  0  0  0  0  0  0  0  0  0  0
    4.4308    2.6304    1.1149 C   0  0  0  0  0  0  0  0  0  0  0  0
    2.3188    3.1775    0.8763 C   0  0  0  0  0  0  0  0  0  0  0  0
    3.5065    3.5629    1.5167 C   0  0  0  0  0  0  0  0  0  0  0  0
    1.0033    3.8343    0.9579 C   0  0  0  0  0  0  0  0  0  0  0  0
   -3.7534    1.8002    1.5388 H   0  0  0  0  0  0  0  0  0  0  0  0
   -5.2535    3.3476    0.4869 H   0  0  0  0  0  0  0  0  0  0  0  0
   -5.9286    1.7359    0.2595 H   0  0  0  0  0  0  0  0  0  0  0  0
   -2.5843    3.5932    0.4577 H   0  0  0  0  0  0  0  0  0  0  0  0
   -1.6307    2.1331    0.2101 H   0  0  0  0  0  0  0  0  0  0  0  0
   -6.0657    3.1377   -1.7998 H   0  0  0  0  0  0  0  0  0  0  0  0
   -5.1356    1.6706   -2.0674 H   0  0  0  0  0  0  0  0  0  0  0  0
   -1.7960    3.5268   -1.8493 H   0  0  0  0  0  0  0  0  0  0  0  0
   -2.4552    1.9130   -2.0908 H   0  0  0  0  0  0  0  0  0  0  0  0
   -4.0349    4.4819   -1.5917 H   0  0  0  0  0  0  0  0  0  0  0  0
   -3.9668    3.5616   -3.0922 H   0  0  0  0  0  0  0  0  0  0  0  0
   -4.0313    0.1303   -0.8691 H   0  0  0  0  0  0  0  0  0  0  0  0
   -3.5049   -1.9333   -0.7307 H   0  0  0  0  0  0  0  0  0  0  0  0
    4.1408   -2.4952   -0.2361 H   0  0  0  0  0  0  0  0  0  0  0  0
    3.7682   -3.3391   -1.7197 H   0  0  0  0  0  0  0  0  0  0  0  0
   -0.8659   -4.0456   -1.6607 H   0  0  0  0  0  0  0  0  0  0  0  0
    0.0556   -1.9323    1.9934 H   0  0  0  0  0  0  0  0  0  0  0  0
    1.4448   -3.7422   -2.4136 H   0  0  0  0  0  0  0  0  0  0  0  0
    2.3634   -1.6335    1.2343 H   0  0  0  0  0  0  0  0  0  0  0  0
    3.0376   -1.1733   -2.7895 H   0  0  0  0  0  0  0  0  0  0  0  0
    4.7242   -1.1404   -2.2407 H   0  0  0  0  0  0  0  0  0  0  0  0
    2.4262    0.3393   -1.1630 H   0  0  0  0  0  0  0  0  0  0  0  0
    5.4804    2.5150    1.3486 H   0  0  0  0  0  0  0  0  0  0  0  0
    3.6773    4.3986    2.1796 H   0  0  0  0  0  0  0  0  0  0  0  0
    1.0873    4.8409    1.3802 H   0  0  0  0  0  0  0  0  0  0  0  0
    0.3266    3.2564    1.5955 H   0  0  0  0  0  0  0  0  0  0  0  0
    0.5472    3.9271   -0.0334 H   0  0  0  0  0  0  0  0  0  0  0  0
  1  3  2  0  0  0  0
  1  4  2  0  0  0  0
  1  7  1  0  0  0  0
  1 18  1  0  0  0  0
  2 17  2  0  0  0  0
  5 26  2  0  0  0  0
  6 11  1  0  0  0  0
  6 17  1  0  0  0  0
  6 42  1  0  0  0  0
  7 17  1  0  0  0  0
  7 43  1  0  0  0  0
  8 25  1  0  0  0  0
  8 26  1  0  0  0  0
  8 52  1  0  0  0  0
  9 10  1  0  0  0  0
  9 26  1  0  0  0  0
  9 27  1  0  0  0  0
 10 28  2  0  0  0  0
 11 12  1  0  0  0  0
 11 13  1  0  0  0  0
 11 31  1  0  0  0  0
 12 14  1  0  0  0  0
 12 32  1  0  0  0  0
 12 33  1  0  0  0  0
 13 15  1  0  0  0  0
 13 34  1  0  0  0  0
 13 35  1  0  0  0  0
 14 16  1  0  0  0  0
 14 36  1  0  0  0  0
 14 37  1  0  0  0  0
 15 16  1  0  0  0  0
 15 38  1  0  0  0  0
 15 39  1  0  0  0  0
 16 40  1  0  0  0  0
 16 41  1  0  0  0  0
 18 21  2  0  0  0  0
 18 22  1  0  0  0  0
 19 20  1  0  0  0  0
 19 23  2  0  0  0  0
 19 24  1  0  0  0  0
 20 25  1  0  0  0  0
 20 44  1  0  0  0  0
 20 45  1  0  0  0  0
 21 23  1  0  0  0  0
 21 46  1  0  0  0  0
 22 24  2  0  0  0  0
 22 47  1  0  0  0  0
 23 48  1  0  0  0  0
 24 49  1  0  0  0  0
 25 50  1  0  0  0  0
 25 51  1  0  0  0  0
 27 29  2  0  0  0  0
 27 53  1  0  0  0  0
 28 29  1  0  0  0  0
 28 30  1  0  0  0  0
 29 54  1  0  0  0  0
 30 55  1  0  0  0  0
 30 56  1  0  0  0  0
 30 57  1  0  0  0  0
M  END
> <PUBCHEM_COMPOUND_CID>
128886

> <PUBCHEM_CONFORMER_RMSD>
1.2

> <PUBCHEM_CONFORMER_DIVERSEORDER>
2
41
102
37
74
59
133
138
134
55
81
58
145
106
135
25
105
141
110
31
137
123
155
142
39
152
62
109
111
166
51
114
13
98
118
140
64
70
108
54
45
147
119
104
107
47
44
90
16
88
87
96
126
151
38
66
48
157
113
127
79
53
139
43
128
163
27
92
52
122
30
65
73
23
80
121
89
76
18
148
94
159
68
131
112
22
61
83
150
40
33
156
85
97
10
26
130
91
132
69
153
63
24
165
124
11
71
143
146
125
14
99
56
50
60
164
72
115
17
78
82
162
49
136
149
167
120
67
160
116
84
20
129
117
95
86
12
46
57
100
36
19
28
8
42
29
103
75
101
21
32
6
9
34
35
3
161
154
158
144
4
15
7
77
1
93
5

> <PUBCHEM_MMFF94_PARTIAL_CHARGES>
34
1 1.45
10 -0.71
11 0.3
17 0.87
18 -0.01
19 -0.14
2 -0.57
20 0.14
21 -0.15
22 -0.15
23 -0.15
24 -0.15
25 0.3
26 0.64
27 -0.3
28 0.11
29 -0.15
3 -0.65
30 0.18
4 -0.65
42 0.37
43 0.42
46 0.15
47 0.15
48 0.15
49 0.15
5 -0.57
52 0.37
53 0.15
54 0.15
6 -0.73
7 -0.79
8 -0.73
9 0.56

> <PUBCHEM_EFFECTIVE_ROTOR_COUNT>
11.2

> <PUBCHEM_PHARMACOPHORE_FEATURES>
11
1 10 acceptor
1 2 acceptor
1 3 acceptor
1 4 acceptor
1 5 acceptor
1 6 donor
1 7 donor
1 8 donor
5 9 10 27 28 29 rings
6 11 12 13 14 15 16 rings
6 18 19 21 22 23 24 rings

> <PUBCHEM_HEAVY_ATOM_COUNT>
30

> <PUBCHEM_ATOM_DEF_STEREO_COUNT>
0

> <PUBCHEM_ATOM_UDEF_STEREO_COUNT>
0

> <PUBCHEM_BOND_DEF_STEREO_COUNT>
0

> <PUBCHEM_BOND_UDEF_STEREO_COUNT>
0

> <PUBCHEM_ISOTOPIC_ATOM_COUNT>
0

> <PUBCHEM_COMPONENT_COUNT>
1

> <PUBCHEM_CACTVS_TAUTO_COUNT>
6

> <PUBCHEM_CONFORMER_ID>
0001F77600000002

> <PUBCHEM_MMFF94_ENERGY>
24.1011

> <PUBCHEM_FEATURE_SELFOVERLAP>
55.886

> <PUBCHEM_SHAPE_FINGERPRINT>
10842077 115 18200580518705825872
12100795 323 18124315175378278820
12522641 24 18052534375726459617
12769317 202 17973726866012500919
133061 13 18197202862035268904
13402501 40 18335989653300671588
13561361 72 18265052616335648217
14428016 6 18267572521436489229
14725015 67 17977937209499224994
15351339 4 17979067185246297857
16067689 391 17125679045620978134
16067690 210 17613699832355646922
20398071 114 18410012126267448621
20764821 26 17618513073281466592
21857420 4 16677779660261558909
25019877 29 16193142951089444374
3298306 158 18410286982721116325
4371632 12 18270101475431840425
437795 96 18411697707805644216
4742675 86 17411035650121927828
50677037 204 15891094045981116008
508706 21 18335703883409074604
54131252 526 14969495395380779688
550186 83 16081942416521262860
6422251 121 18051972520351090245
86090 222 18337673014388228365
9982175 69 18266157569909048021

> <PUBCHEM_SHAPE_MULTIPOLES>
572.85
10.58
7.3
1.76
2.79
1.41
-0.2
-9.73
-3
0.06
1.16
0.41
-0.06
4.78

> <PUBCHEM_SHAPE_SELFOVERLAP>
1184.561

> <PUBCHEM_SHAPE_VOLUME>
327.5

> <PUBCHEM_COORDINATE_TYPE>
2
5
10

$$$$
