128848
  -OEChem-03292013323D

 53 56  0     1  0  0  0  0  0999 V2000
   -9.7585    2.4263    0.1797 Cl  0  0  0  0  0  0  0  0  0  0  0  0
    3.9211    0.7351   -0.1097 O   0  0  0  0  0  0  0  0  0  0  0  0
    3.2324   -1.4914   -0.2149 O   0  0  0  0  0  0  0  0  0  0  0  0
    7.8828   -0.3435   -0.2252 O   0  0  0  0  0  0  0  0  0  0  0  0
    5.8292   -2.3112    0.5391 O   0  0  0  0  0  0  0  0  0  0  0  0
    7.1219    2.2960    0.7245 O   0  0  0  0  0  0  0  0  0  0  0  0
    5.0806    4.0177    0.3447 O   0  0  0  0  0  0  0  0  0  0  0  0
    3.4424    3.0993   -0.9471 O   0  0  0  0  0  0  0  0  0  0  0  0
    1.5067   -0.2931    0.7288 O   0  0  0  0  0  0  0  0  0  0  0  0
   -4.3412   -1.4056    0.5663 O   0  0  0  0  0  0  0  0  0  0  0  0
   -3.3093    0.2272   -0.6198 N   0  0  0  0  0  0  0  0  0  0  0  0
    6.6383   -0.0418    0.4077 C   0  0  2  0  0  0  0  0  0  0  0  0
    5.5753   -1.0385   -0.0552 C   0  0  2  0  0  0  0  0  0  0  0  0
    6.2562    1.3923    0.0399 C   0  0  1  0  0  0  0  0  0  0  0  0
    4.1748   -0.5866    0.3595 C   0  0  1  0  0  0  0  0  0  0  0  0
    4.8183    1.6892    0.4467 C   0  0  1  0  0  0  0  0  0  0  0  0
    4.3521    2.9824   -0.1397 C   0  0  0  0  0  0  0  0  0  0  0  0
    1.0374   -2.2884   -0.6002 C   0  0  1  0  0  0  0  0  0  0  0  0
    1.9153   -1.2271    0.0509 C   0  0  0  0  0  0  0  0  0  0  0  0
   -0.4305   -2.0943   -0.2565 C   0  0  0  0  0  0  0  0  0  0  0  0
    1.2773   -2.3371   -2.1117 C   0  0  0  0  0  0  0  0  0  0  0  0
   -1.0609   -0.9324   -0.6852 C   0  0  0  0  0  0  0  0  0  0  0  0
   -1.0770   -3.0845    0.4694 C   0  0  0  0  0  0  0  0  0  0  0  0
   -2.4149   -0.7813   -0.3534 C   0  0  0  0  0  0  0  0  0  0  0  0
   -3.0429   -1.7824    0.3727 C   0  0  0  0  0  0  0  0  0  0  0  0
   -2.4275   -2.9494    0.8087 C   0  0  0  0  0  0  0  0  0  0  0  0
   -4.4193   -0.1958   -0.0557 C   0  0  0  0  0  0  0  0  0  0  0  0
   -5.7082    0.4367    0.0007 C   0  0  0  0  0  0  0  0  0  0  0  0
   -6.7701   -0.1889    0.6595 C   0  0  0  0  0  0  0  0  0  0  0  0
   -5.9072    1.6817   -0.6025 C   0  0  0  0  0  0  0  0  0  0  0  0
   -8.0212    0.4254    0.7146 C   0  0  0  0  0  0  0  0  0  0  0  0
   -7.1582    2.2961   -0.5474 C   0  0  0  0  0  0  0  0  0  0  0  0
   -8.2152    1.6679    0.1111 C   0  0  0  0  0  0  0  0  0  0  0  0
    6.8078   -0.1418    1.4870 H   0  0  0  0  0  0  0  0  0  0  0  0
    5.6262   -1.1753   -1.1426 H   0  0  0  0  0  0  0  0  0  0  0  0
    6.4039    1.5533   -1.0352 H   0  0  0  0  0  0  0  0  0  0  0  0
    4.0662   -0.6301    1.4520 H   0  0  0  0  0  0  0  0  0  0  0  0
    4.6786    1.7372    1.5338 H   0  0  0  0  0  0  0  0  0  0  0  0
    8.5323    0.3117    0.0827 H   0  0  0  0  0  0  0  0  0  0  0  0
    6.7310   -2.5742    0.2874 H   0  0  0  0  0  0  0  0  0  0  0  0
    7.0007    2.1639    1.6803 H   0  0  0  0  0  0  0  0  0  0  0  0
    1.3669   -3.2472   -0.1765 H   0  0  0  0  0  0  0  0  0  0  0  0
    2.3075   -2.6335   -2.3376 H   0  0  0  0  0  0  0  0  0  0  0  0
    0.6108   -3.0613   -2.5929 H   0  0  0  0  0  0  0  0  0  0  0  0
    1.1138   -1.3610   -2.5818 H   0  0  0  0  0  0  0  0  0  0  0  0
   -0.5462   -0.1645   -1.2520 H   0  0  0  0  0  0  0  0  0  0  0  0
   -0.5501   -3.9808    0.7874 H   0  0  0  0  0  0  0  0  0  0  0  0
    4.7908    4.8767   -0.0301 H   0  0  0  0  0  0  0  0  0  0  0  0
   -2.9563   -3.7064    1.3740 H   0  0  0  0  0  0  0  0  0  0  0  0
   -6.6597   -1.1568    1.1422 H   0  0  0  0  0  0  0  0  0  0  0  0
   -5.0983    2.1907   -1.1215 H   0  0  0  0  0  0  0  0  0  0  0  0
   -8.8360   -0.0753    1.2313 H   0  0  0  0  0  0  0  0  0  0  0  0
   -7.2950    3.2644   -1.0220 H   0  0  0  0  0  0  0  0  0  0  0  0
  1 33  1  0  0  0  0
  2 15  1  0  0  0  0
  2 16  1  0  0  0  0
  3 15  1  0  0  0  0
  3 19  1  0  0  0  0
  4 12  1  0  0  0  0
  4 39  1  0  0  0  0
  5 13  1  0  0  0  0
  5 40  1  0  0  0  0
  6 14  1  0  0  0  0
  6 41  1  0  0  0  0
  7 17  1  0  0  0  0
  7 48  1  0  0  0  0
  8 17  2  0  0  0  0
  9 19  2  0  0  0  0
 10 25  1  0  0  0  0
 10 27  1  0  0  0  0
 11 24  1  0  0  0  0
 11 27  2  0  0  0  0
 12 13  1  0  0  0  0
 12 14  1  0  0  0  0
 12 34  1  0  0  0  0
 13 15  1  0  0  0  0
 13 35  1  0  0  0  0
 14 16  1  0  0  0  0
 14 36  1  0  0  0  0
 15 37  1  0  0  0  0
 16 17  1  0  0  0  0
 16 38  1  0  0  0  0
 18 19  1  0  0  0  0
 18 20  1  0  0  0  0
 18 21  1  0  0  0  0
 18 42  1  0  0  0  0
 20 22  2  0  0  0  0
 20 23  1  0  0  0  0
 21 43  1  0  0  0  0
 21 44  1  0  0  0  0
 21 45  1  0  0  0  0
 22 24  1  0  0  0  0
 22 46  1  0  0  0  0
 23 26  2  0  0  0  0
 23 47  1  0  0  0  0
 24 25  2  0  0  0  0
 25 26  1  0  0  0  0
 26 49  1  0  0  0  0
 27 28  1  0  0  0  0
 28 29  2  0  0  0  0
 28 30  1  0  0  0  0
 29 31  1  0  0  0  0
 29 50  1  0  0  0  0
 30 32  2  0  0  0  0
 30 51  1  0  0  0  0
 31 33  2  0  0  0  0
 31 52  1  0  0  0  0
 32 33  1  0  0  0  0
 32 53  1  0  0  0  0
M  END
> <PUBCHEM_COMPOUND_CID>
128848

> <PUBCHEM_CONFORMER_RMSD>
1

> <PUBCHEM_CONFORMER_DIVERSEORDER>
1
42
159
148
182
145
20
170
86
109
107
4
23
15
161
51
24
158
117
173
174
136
45
131
7
178
2
175
43
79
30
47
177
6
115
165
150
87
139
65
32
163
138
118
103
116
59
12
18
22
157
14
127
8
33
134
26
64
21
162
185
81
85
146
72
121
171
172
40
68
53
76
176
11
39
164
94
184
91
48
38
69
50
83
34
90
63
133
143
56
125
49
67
181
27
132
142
46
58
78
186
122
62
105
151
166
135
104
129
140
147
183
13
113
25
144
128
31
93
130
35
123
155
44
37
126
97
61
95
17
120
5
88
82
36
153
70
102
29
101
108
106
52
124
98
10
75
66
156
84
137
55
92
160
16
179
119
60
100
77
57
3
54
41
111
80
9
96
114
169
74
112
154
19
180
167
99
110
73
141
168
28
149
71
89
152

> <PUBCHEM_MMFF94_PARTIAL_CHARGES>
43
1 -0.18
10 -0.28
11 -0.57
12 0.28
13 0.28
14 0.28
15 0.56
16 0.34
17 0.66
18 0.2
19 0.66
2 -0.56
20 -0.14
22 -0.15
23 -0.15
24 0.23
25 0.14
26 -0.15
27 0.43
28 0.05
29 -0.15
3 -0.43
30 -0.15
31 -0.15
32 -0.15
33 0.18
39 0.4
4 -0.68
40 0.4
41 0.4
46 0.15
47 0.15
48 0.5
49 0.15
5 -0.68
50 0.15
51 0.15
52 0.15
53 0.15
6 -0.68
7 -0.65
8 -0.57
9 -0.57

> <PUBCHEM_EFFECTIVE_ROTOR_COUNT>
7.2

> <PUBCHEM_PHARMACOPHORE_FEATURES>
16
1 2 acceptor
1 21 hydrophobe
1 4 acceptor
1 4 donor
1 5 acceptor
1 5 donor
1 6 acceptor
1 6 donor
1 7 acceptor
1 8 acceptor
1 9 acceptor
3 7 8 17 anion
5 10 11 24 25 27 rings
6 2 12 13 14 15 16 rings
6 20 22 23 24 25 26 rings
6 28 29 30 31 32 33 rings

> <PUBCHEM_HEAVY_ATOM_COUNT>
33

> <PUBCHEM_ATOM_DEF_STEREO_COUNT>
5

> <PUBCHEM_ATOM_UDEF_STEREO_COUNT>
1

> <PUBCHEM_BOND_DEF_STEREO_COUNT>
0

> <PUBCHEM_BOND_UDEF_STEREO_COUNT>
0

> <PUBCHEM_ISOTOPIC_ATOM_COUNT>
0

> <PUBCHEM_COMPONENT_COUNT>
1

> <PUBCHEM_CACTVS_TAUTO_COUNT>
1

> <PUBCHEM_CONFORMER_ID>
0001F75000000001

> <PUBCHEM_MMFF94_ENERGY>
74.8169

> <PUBCHEM_FEATURE_SELFOVERLAP>
81.409

> <PUBCHEM_SHAPE_FINGERPRINT>
10 15 18186523177299042939
10050765 1 18410292506450836659
10190108 129 17023178306739925048
10625338 131 18265044748314719617
10673678 19 18272092716321222455
11409948 8 18261405456133417753
11456790 92 18261949666031508258
11621639 307 17480572081431182772
11963148 33 9583227319218385997
12925494 130 18337951310856583168
13248334 5 18051695435021353615
13673619 4 10809347736992610375
13685833 64 8430308044089416735
13782708 43 8142087550836684131
14117953 113 18341899575924487684
14400156 260 18260826026211860632
14556957 393 16845021126050094777
14565420 104 18187644674738222763
14617042 71 18341899533893050241
15183329 4 15698001834009883883
15419008 145 18116140091972909328
1577012 14 18342450465330101782
15840311 113 18408606946006688924
16087824 20 18411419497647942492
16758388 162 18187636952154753714
16989713 51 17202188803127633319
17134984 74 10807937055152635180
17686467 74 18187648038440854979
19053607 189 17977940512905095336
19302320 297 18334859419803683437
19611394 137 17970078927672285459
20105231 36 12252179637943903128
20691028 202 18411134783685304257
20715895 44 18413108368476036546
21033648 29 18199736094318642522
21585482 111 18338797940113214528
21585482 57 18339632435151837279
22122407 14 18340496637441081200
22149856 69 10953732279662863614
24771293 8 18335140887144722565
2838139 119 18410849967318970071
2851757 15 18410577297299626395
34797466 226 18058733478106957535
3711267 37 17988372456259958337
3918712 181 18264765472925798897
4073 2 17968661643988313882
4144715 1 18044102473796122786
504843 32 17775002448663784391
5104073 3 18041273383048806090
5109719 28 18411428301855931555
58902169 19 17846768603167772231

> <PUBCHEM_SHAPE_MULTIPOLES>
623.19
26.82
3.95
0.95
24.45
1.62
0.28
23.72
-3.73
-2.82
0.08
0
-0.35
1.05

> <PUBCHEM_SHAPE_SELFOVERLAP>
1355.515

> <PUBCHEM_SHAPE_VOLUME>
339.7

> <PUBCHEM_COORDINATE_TYPE>
2
5
10

$$$$
