128815
  -OEChem-03292013323D

 44 47  0     1  0  0  0  0  0999 V2000
   -4.9160    1.2429    1.2186 O   0  0  0  0  0  0  0  0  0  0  0  0
   -2.3045   -2.7531    1.3353 O   0  0  0  0  0  0  0  0  0  0  0  0
   -0.1053    2.7124    0.6332 O   0  0  0  0  0  0  0  0  0  0  0  0
   -0.0245   -2.7726    0.0358 O   0  0  0  0  0  0  0  0  0  0  0  0
   -3.5093    1.1547   -1.7118 O   0  0  0  0  0  0  0  0  0  0  0  0
   -5.6775   -0.1505   -2.6142 O   0  0  0  0  0  0  0  0  0  0  0  0
    2.3875    2.6941    0.2744 O   0  0  0  0  0  0  0  0  0  0  0  0
    2.4575   -2.6205   -0.2679 O   0  0  0  0  0  0  0  0  0  0  0  0
   -3.8126    0.5972    0.5883 C   0  0  2  0  0  0  0  0  0  0  0  0
   -3.6919   -0.8113    1.1559 C   0  0  0  0  0  0  0  0  0  0  0  0
   -2.5352    1.3992    0.8459 C   0  0  0  0  0  0  0  0  0  0  0  0
   -2.5159   -1.5803    0.5503 C   0  0  1  0  0  0  0  0  0  0  0  0
   -1.2607    0.6337    0.5822 C   0  0  0  0  0  0  0  0  0  0  0  0
   -1.2418   -0.7687    0.4743 C   0  0  0  0  0  0  0  0  0  0  0  0
   -0.0575    1.3534    0.4861 C   0  0  0  0  0  0  0  0  0  0  0  0
   -0.0199   -1.4171    0.2201 C   0  0  0  0  0  0  0  0  0  0  0  0
   -4.1894    0.5748   -0.8666 C   0  0  0  0  0  0  0  0  0  0  0  0
    1.1542    0.6944    0.2528 C   0  0  0  0  0  0  0  0  0  0  0  0
    1.1725   -0.6908    0.1151 C   0  0  0  0  0  0  0  0  0  0  0  0
   -5.4427   -0.1961   -1.2228 C   0  0  0  0  0  0  0  0  0  0  0  0
    2.4037    1.4759    0.1497 C   0  0  0  0  0  0  0  0  0  0  0  0
    2.4415   -1.4022   -0.1431 C   0  0  0  0  0  0  0  0  0  0  0  0
    3.6737    0.7663   -0.1060 C   0  0  0  0  0  0  0  0  0  0  0  0
    3.6918   -0.6227   -0.2479 C   0  0  0  0  0  0  0  0  0  0  0  0
    4.8652    1.4943   -0.2070 C   0  0  0  0  0  0  0  0  0  0  0  0
    4.9017   -1.2841   -0.4907 C   0  0  0  0  0  0  0  0  0  0  0  0
    6.0687    0.8314   -0.4493 C   0  0  0  0  0  0  0  0  0  0  0  0
    6.0868   -0.5548   -0.5907 C   0  0  0  0  0  0  0  0  0  0  0  0
   -4.6180   -1.3910    1.0652 H   0  0  0  0  0  0  0  0  0  0  0  0
   -3.5538   -0.7392    2.2459 H   0  0  0  0  0  0  0  0  0  0  0  0
   -2.5201    1.7142    1.8989 H   0  0  0  0  0  0  0  0  0  0  0  0
   -2.5560    2.3265    0.2587 H   0  0  0  0  0  0  0  0  0  0  0  0
   -2.7744   -1.8985   -0.4676 H   0  0  0  0  0  0  0  0  0  0  0  0
   -4.9125    2.1784    0.9523 H   0  0  0  0  0  0  0  0  0  0  0  0
   -3.1272   -3.2713    1.3154 H   0  0  0  0  0  0  0  0  0  0  0  0
   -6.3052    0.2477   -0.7199 H   0  0  0  0  0  0  0  0  0  0  0  0
   -5.3512   -1.2466   -0.9425 H   0  0  0  0  0  0  0  0  0  0  0  0
    0.7804    3.0774    0.7757 H   0  0  0  0  0  0  0  0  0  0  0  0
   -0.9256   -3.1292    0.0271 H   0  0  0  0  0  0  0  0  0  0  0  0
    4.8775    2.5756   -0.1006 H   0  0  0  0  0  0  0  0  0  0  0  0
    4.9424   -2.3640   -0.6048 H   0  0  0  0  0  0  0  0  0  0  0  0
   -4.9472   -0.6219   -3.0503 H   0  0  0  0  0  0  0  0  0  0  0  0
    6.9928    1.3967   -0.5276 H   0  0  0  0  0  0  0  0  0  0  0  0
    7.0252   -1.0684   -0.7791 H   0  0  0  0  0  0  0  0  0  0  0  0
  1  9  1  0  0  0  0
  1 34  1  0  0  0  0
  2 12  1  0  0  0  0
  2 35  1  0  0  0  0
  3 15  1  0  0  0  0
  3 38  1  0  0  0  0
  4 16  1  0  0  0  0
  4 39  1  0  0  0  0
  5 17  2  0  0  0  0
  6 20  1  0  0  0  0
  6 42  1  0  0  0  0
  7 21  2  0  0  0  0
  8 22  2  0  0  0  0
  9 10  1  0  0  0  0
  9 11  1  0  0  0  0
  9 17  1  0  0  0  0
 10 12  1  0  0  0  0
 10 29  1  0  0  0  0
 10 30  1  0  0  0  0
 11 13  1  0  0  0  0
 11 31  1  0  0  0  0
 11 32  1  0  0  0  0
 12 14  1  0  0  0  0
 12 33  1  0  0  0  0
 13 14  2  0  0  0  0
 13 15  1  0  0  0  0
 14 16  1  0  0  0  0
 15 18  2  0  0  0  0
 16 19  2  0  0  0  0
 17 20  1  0  0  0  0
 18 19  1  0  0  0  0
 18 21  1  0  0  0  0
 19 22  1  0  0  0  0
 20 36  1  0  0  0  0
 20 37  1  0  0  0  0
 21 23  1  0  0  0  0
 22 24  1  0  0  0  0
 23 24  1  0  0  0  0
 23 25  2  0  0  0  0
 24 26  2  0  0  0  0
 25 27  1  0  0  0  0
 25 40  1  0  0  0  0
 26 28  1  0  0  0  0
 26 41  1  0  0  0  0
 27 28  2  0  0  0  0
 27 43  1  0  0  0  0
 28 44  1  0  0  0  0
M  END
> <PUBCHEM_COMPOUND_CID>
128815

> <PUBCHEM_CONFORMER_RMSD>
0.6

> <PUBCHEM_CONFORMER_DIVERSEORDER>
2
1
4
7
5
3
6

> <PUBCHEM_MMFF94_PARTIAL_CHARGES>
36
1 -0.68
11 0.14
12 0.42
13 -0.14
14 -0.14
15 0.08
16 0.08
17 0.45
18 0.09
19 0.09
2 -0.68
20 0.34
21 0.4
22 0.4
23 0.09
24 0.09
25 -0.15
26 -0.15
27 -0.15
28 -0.15
3 -0.53
34 0.4
35 0.4
38 0.45
39 0.45
4 -0.53
40 0.15
41 0.15
42 0.4
43 0.15
44 0.15
5 -0.57
6 -0.68
7 -0.57
8 -0.57
9 0.34

> <PUBCHEM_EFFECTIVE_ROTOR_COUNT>
2.8

> <PUBCHEM_PHARMACOPHORE_FEATURES>
15
1 1 acceptor
1 1 donor
1 2 acceptor
1 2 donor
1 3 donor
1 4 donor
1 5 acceptor
1 6 acceptor
1 6 donor
1 7 acceptor
1 8 acceptor
6 13 14 15 16 18 19 rings
6 18 19 21 22 23 24 rings
6 23 24 25 26 27 28 rings
6 9 10 11 12 13 14 rings

> <PUBCHEM_HEAVY_ATOM_COUNT>
28

> <PUBCHEM_ATOM_DEF_STEREO_COUNT>
2

> <PUBCHEM_ATOM_UDEF_STEREO_COUNT>
0

> <PUBCHEM_BOND_DEF_STEREO_COUNT>
0

> <PUBCHEM_BOND_UDEF_STEREO_COUNT>
0

> <PUBCHEM_ISOTOPIC_ATOM_COUNT>
0

> <PUBCHEM_COMPONENT_COUNT>
1

> <PUBCHEM_CACTVS_TAUTO_COUNT>
81

> <PUBCHEM_CONFORMER_ID>
0001F72F00000002

> <PUBCHEM_MMFF94_ENERGY>
83.0234

> <PUBCHEM_FEATURE_SELFOVERLAP>
76.206

> <PUBCHEM_SHAPE_FINGERPRINT>
10366900 7 18273492381638240152
105312 117 17603577513788770535
10693767 8 18059281093925014670
10906281 52 18198926754285163872
10967382 1 18339652148376596266
11513181 2 17772477797961275710
11578080 2 17024021549947662398
12011746 2 18410858754969445236
12236239 1 17561365071537841097
12596602 18 14979953670973741578
12788726 201 17487629528066382384
12838862 33 18339348748346421112
12969540 114 18336255790954313198
13140716 1 18339933713505428880
13402501 40 18408890645734241098
13583140 156 16877948243321357105
13862211 1 18342174432614661314
14294032 229 16127540255849684673
14790565 3 18196105347403839920
15099037 51 18411422817113680728
15183329 4 18408322172938186684
15196674 1 18339652221638927594
15788980 27 17418098706449041424
15880784 105 16630522951210241024
1601671 61 18408890637793204880
17349148 13 18272369745922275600
1813 80 13254799023545637154
18608769 82 18261116322644961995
19591789 44 18268157637436309682
200 152 17846781797254524784
20028762 73 17917425398482001614
20775438 99 16765590421885262887
21033648 144 18409728508081478148
21033648 29 18040988536322411381
21267235 1 18339940288794585650
21279426 13 18338525131894262198
21521239 73 18130492124486743423
21709351 56 18335142054732274566
21857420 4 12775666670738776372
21859007 373 17969197028710124268
221357 26 18411971452083977909
22182313 1 18267042663567786146
22393880 68 18334846260392828879
23402539 116 18060140920560045728
23559900 14 18411702127696328640
23569914 2 15578059563526165756
24771293 8 18131626812424811480
3004659 81 18261119561139479870
335352 9 18411708668915280286
34934 24 18410859849822550682
350125 39 18265345073696741563
3545911 37 18335991921111663826
3680242 22 18335426704054048098
4015057 19 18342737468024837081
484989 97 18266739280532812159
5104073 3 18410863191797334842
5283173 99 18187360982999133380
59755656 215 18338807724037593950
9709674 26 18199200498769368390
9849439 229 15071685771829641237

> <PUBCHEM_SHAPE_MULTIPOLES>
529.27
12.85
2.53
1.23
3.39
0.49
0.6
-1.23
4.89
0.72
-0.55
-2.43
-0.01
0.45

> <PUBCHEM_SHAPE_SELFOVERLAP>
1195.727

> <PUBCHEM_SHAPE_VOLUME>
272.7

> <PUBCHEM_COORDINATE_TYPE>
2
5
10

$$$$
