128860
  -OEChem-03292013323D

 60 62  0     1  0  0  0  0  0999 V2000
   -3.5853   -1.7608   -1.1026 O   0  0  0  0  0  0  0  0  0  0  0  0
   -7.4281   -1.5509   -1.2317 O   0  0  0  0  0  0  0  0  0  0  0  0
   -6.4046    0.4824   -1.3513 O   0  0  0  0  0  0  0  0  0  0  0  0
    0.2624   -0.5783    1.5078 O   0  0  0  0  0  0  0  0  0  0  0  0
    2.5876   -1.5961   -1.6459 O   0  0  0  0  0  0  0  0  0  0  0  0
    3.1010    4.5580    0.6325 O   0  5  0  0  0  0  0  0  0  0  0  0
    4.0569    3.1731   -0.7772 O   0  0  0  0  0  0  0  0  0  0  0  0
   -4.5753   -0.3883    0.4762 N   0  0  0  0  0  0  0  0  0  0  0  0
   -1.2276   -1.2478   -0.1476 N   0  0  0  0  0  0  0  0  0  0  0  0
    2.1111   -2.3689    0.4894 N   0  0  0  0  0  0  0  0  0  0  0  0
    3.0460    3.5861   -0.1593 N   0  3  0  0  0  0  0  0  0  0  0  0
    3.8041   -0.1388    1.6470 N   0  0  0  0  0  0  0  0  0  0  0  0
   -5.8825   -1.0317    0.4599 C   0  0  1  0  0  0  0  0  0  0  0  0
   -6.5861   -0.5111    1.7079 C   0  0  0  0  0  0  0  0  0  0  0  0
   -5.9676    0.8695    1.9141 C   0  0  0  0  0  0  0  0  0  0  0  0
   -4.5237    0.6745    1.4769 C   0  0  0  0  0  0  0  0  0  0  0  0
   -3.5036   -0.8606   -0.2653 C   0  0  0  0  0  0  0  0  0  0  0  0
   -2.1815   -0.1870    0.0024 C   0  0  2  0  0  0  0  0  0  0  0  0
   -6.5760   -0.5918   -0.7944 C   0  0  0  0  0  0  0  0  0  0  0  0
   -1.9673    0.9592   -0.9773 C   0  0  0  0  0  0  0  0  0  0  0  0
   -0.6443    1.6520   -0.7613 C   0  0  0  0  0  0  0  0  0  0  0  0
   -0.0718   -1.3615    0.6224 C   0  0  0  0  0  0  0  0  0  0  0  0
   -0.5586    2.7342    0.1148 C   0  0  0  0  0  0  0  0  0  0  0  0
    0.4930    1.2105   -1.4377 C   0  0  0  0  0  0  0  0  0  0  0  0
    0.7141   -2.6090    0.2794 C   0  0  0  0  0  0  0  0  0  0  0  0
    0.6641    3.3748    0.3145 C   0  0  0  0  0  0  0  0  0  0  0  0
    1.7159    1.8511   -1.2379 C   0  0  0  0  0  0  0  0  0  0  0  0
    1.8014    2.9334   -0.3619 C   0  0  0  0  0  0  0  0  0  0  0  0
    2.9499   -1.8737   -0.5057 C   0  0  0  0  0  0  0  0  0  0  0  0
    4.3792   -1.7048   -0.1370 C   0  0  0  0  0  0  0  0  0  0  0  0
    4.7650   -0.8621    0.9054 C   0  0  0  0  0  0  0  0  0  0  0  0
    5.3436   -2.4098   -0.8571 C   0  0  0  0  0  0  0  0  0  0  0  0
    6.1152   -0.7245    1.2277 C   0  0  0  0  0  0  0  0  0  0  0  0
    6.6938   -2.2720   -0.5348 C   0  0  0  0  0  0  0  0  0  0  0  0
    7.0795   -1.4294    0.5075 C   0  0  0  0  0  0  0  0  0  0  0  0
   -5.7566   -2.1197    0.4558 H   0  0  0  0  0  0  0  0  0  0  0  0
   -7.6753   -0.4666    1.6133 H   0  0  0  0  0  0  0  0  0  0  0  0
   -6.3404   -1.1491    2.5655 H   0  0  0  0  0  0  0  0  0  0  0  0
   -6.4624    1.6011    1.2645 H   0  0  0  0  0  0  0  0  0  0  0  0
   -6.0503    1.2232    2.9455 H   0  0  0  0  0  0  0  0  0  0  0  0
   -3.9131    0.3226    2.3156 H   0  0  0  0  0  0  0  0  0  0  0  0
   -4.0831    1.5861    1.0658 H   0  0  0  0  0  0  0  0  0  0  0  0
   -2.1107    0.1705    1.0330 H   0  0  0  0  0  0  0  0  0  0  0  0
   -2.7786    1.6939   -0.8998 H   0  0  0  0  0  0  0  0  0  0  0  0
   -2.0144    0.5939   -2.0129 H   0  0  0  0  0  0  0  0  0  0  0  0
   -1.3953   -1.9414   -0.8717 H   0  0  0  0  0  0  0  0  0  0  0  0
   -7.8935   -1.2812   -2.0520 H   0  0  0  0  0  0  0  0  0  0  0  0
   -1.4378    3.0848    0.6489 H   0  0  0  0  0  0  0  0  0  0  0  0
    0.4386    0.3718   -2.1264 H   0  0  0  0  0  0  0  0  0  0  0  0
    0.3978   -3.4179    0.9444 H   0  0  0  0  0  0  0  0  0  0  0  0
    0.5460   -2.9097   -0.7594 H   0  0  0  0  0  0  0  0  0  0  0  0
    0.6934    4.2138    1.0050 H   0  0  0  0  0  0  0  0  0  0  0  0
    2.5810    1.4803   -1.7817 H   0  0  0  0  0  0  0  0  0  0  0  0
    2.4976   -2.5739    1.4065 H   0  0  0  0  0  0  0  0  0  0  0  0
    5.0568   -3.0714   -1.6705 H   0  0  0  0  0  0  0  0  0  0  0  0
    6.4298   -0.0711    2.0375 H   0  0  0  0  0  0  0  0  0  0  0  0
    7.4447   -2.8213   -1.0951 H   0  0  0  0  0  0  0  0  0  0  0  0
    8.1308   -1.3223    0.7584 H   0  0  0  0  0  0  0  0  0  0  0  0
    2.8216   -0.1995    1.4171 H   0  0  0  0  0  0  0  0  0  0  0  0
    4.1039    0.4742    2.3938 H   0  0  0  0  0  0  0  0  0  0  0  0
  1 17  2  0  0  0  0
  2 19  1  0  0  0  0
  2 47  1  0  0  0  0
  3 19  2  0  0  0  0
  4 22  2  0  0  0  0
  5 29  2  0  0  0  0
  6 11  1  0  0  0  0
  7 11  2  0  0  0  0
  8 13  1  0  0  0  0
  8 16  1  0  0  0  0
  8 17  1  0  0  0  0
  9 18  1  0  0  0  0
  9 22  1  0  0  0  0
  9 46  1  0  0  0  0
 10 25  1  0  0  0  0
 10 29  1  0  0  0  0
 10 54  1  0  0  0  0
 11 28  1  0  0  0  0
 12 31  1  0  0  0  0
 12 59  1  0  0  0  0
 12 60  1  0  0  0  0
 13 14  1  0  0  0  0
 13 19  1  0  0  0  0
 13 36  1  0  0  0  0
 14 15  1  0  0  0  0
 14 37  1  0  0  0  0
 14 38  1  0  0  0  0
 15 16  1  0  0  0  0
 15 39  1  0  0  0  0
 15 40  1  0  0  0  0
 16 41  1  0  0  0  0
 16 42  1  0  0  0  0
 17 18  1  0  0  0  0
 18 20  1  0  0  0  0
 18 43  1  0  0  0  0
 20 21  1  0  0  0  0
 20 44  1  0  0  0  0
 20 45  1  0  0  0  0
 21 23  2  0  0  0  0
 21 24  1  0  0  0  0
 22 25  1  0  0  0  0
 23 26  1  0  0  0  0
 23 48  1  0  0  0  0
 24 27  2  0  0  0  0
 24 49  1  0  0  0  0
 25 50  1  0  0  0  0
 25 51  1  0  0  0  0
 26 28  2  0  0  0  0
 26 52  1  0  0  0  0
 27 28  1  0  0  0  0
 27 53  1  0  0  0  0
 29 30  1  0  0  0  0
 30 31  1  0  0  0  0
 30 32  2  0  0  0  0
 31 33  2  0  0  0  0
 32 34  1  0  0  0  0
 32 55  1  0  0  0  0
 33 35  1  0  0  0  0
 33 56  1  0  0  0  0
 34 35  2  0  0  0  0
 34 57  1  0  0  0  0
 35 58  1  0  0  0  0
M  CHG  2   6  -1  11   1
M  END
> <PUBCHEM_COMPOUND_CID>
128860

> <PUBCHEM_CONFORMER_RMSD>
1.2

> <PUBCHEM_CONFORMER_DIVERSEORDER>
1
15
13
43
58
63
14
50
49
23
60
25
37
33
61
29
68
4
6
40
45
67
54
52
56
41
62
8
59
10
18
30
26
9
55
32
53
31
34
51
35
5
7
22
39
47
66
48
28
12
11
17
38
64
44
42
46
2
65
21
36
24
57
20
3
27
19
16

> <PUBCHEM_MMFF94_PARTIAL_CHARGES>
46
1 -0.57
10 -0.73
11 0.91
12 -0.9
13 0.36
16 0.3
17 0.57
18 0.36
19 0.66
2 -0.65
20 0.14
21 -0.14
22 0.57
23 -0.15
24 -0.15
25 0.36
26 -0.15
27 -0.15
28 0.13
29 0.54
3 -0.57
30 0.09
31 0.1
32 -0.15
33 -0.15
34 -0.15
35 -0.15
4 -0.57
46 0.37
47 0.5
48 0.15
49 0.15
5 -0.57
52 0.15
53 0.15
54 0.37
55 0.15
56 0.15
57 0.15
58 0.15
59 0.4
6 -0.52
60 0.4
7 -0.52
8 -0.66
9 -0.73

> <PUBCHEM_EFFECTIVE_ROTOR_COUNT>
13

> <PUBCHEM_PHARMACOPHORE_FEATURES>
16
1 1 acceptor
1 10 donor
1 12 cation
1 12 donor
1 2 acceptor
1 3 acceptor
1 4 acceptor
1 5 acceptor
1 6 acceptor
1 6 anion
1 7 acceptor
1 9 donor
3 2 3 19 anion
5 8 13 14 15 16 rings
6 21 23 24 26 27 28 rings
6 30 31 32 33 34 35 rings

> <PUBCHEM_HEAVY_ATOM_COUNT>
35

> <PUBCHEM_ATOM_DEF_STEREO_COUNT>
2

> <PUBCHEM_ATOM_UDEF_STEREO_COUNT>
0

> <PUBCHEM_BOND_DEF_STEREO_COUNT>
0

> <PUBCHEM_BOND_UDEF_STEREO_COUNT>
0

> <PUBCHEM_ISOTOPIC_ATOM_COUNT>
0

> <PUBCHEM_COMPONENT_COUNT>
1

> <PUBCHEM_CACTVS_TAUTO_COUNT>
6

> <PUBCHEM_CONFORMER_ID>
0001F75C00000001

> <PUBCHEM_MMFF94_ENERGY>
105.6126

> <PUBCHEM_FEATURE_SELFOVERLAP>
81.339

> <PUBCHEM_SHAPE_FINGERPRINT>
1100329 8 18336266837747718546
11646440 116 18335990783183025578
12107183 9 18270694047911755441
12166972 35 18272936011616869002
12717326 120 15793716662492723259
13533116 47 18410858806124612840
14068700 675 18343304739089592488
14725015 67 18260816082692040184
14849402 71 18336840787128196084
14955137 171 18410299107271024275
15021287 119 18343021082327550119
15131766 46 16126938994513254202
15400415 2 17545884188396017788
15840311 113 17704073967256789497
15849732 13 18131625678110060807
15927050 60 17979077407789844238
16112460 7 18410301336680856256
20642791 268 18058463014935477769
20721686 56 18334017223992720297
21421861 104 18339934782667994156
22223350 30 17678192682925292634
24771293 8 18272652342191334192
25019877 29 17274819121583443670
3633792 109 18338785772728483631
4149490 64 18337676442827139499
469060 322 17533232877025142260
5104073 3 18266479748902076915
513532 50 17988092204984410020
6004065 56 18411699902333751678
9555976 147 17275114942193832587

> <PUBCHEM_SHAPE_MULTIPOLES>
654.29
18.13
4.11
1.51
11.07
5.12
-0.22
-11.69
-2.4
-5.75
0.36
1.15
-0.05
-0.46

> <PUBCHEM_SHAPE_SELFOVERLAP>
1396.516

> <PUBCHEM_SHAPE_VOLUME>
360.5

> <PUBCHEM_COORDINATE_TYPE>
2
5
10

$$$$
