128887
  -OEChem-03292013323D

 33 34  0     1  0  0  0  0  0999 V2000
    3.0560    2.8547    0.5357 O   0  0  0  0  0  0  0  0  0  0  0  0
   -0.7233   -1.3719   -0.8970 O   0  0  0  0  0  0  0  0  0  0  0  0
    2.9964   -2.4455   -0.8465 O   0  0  0  0  0  0  0  0  0  0  0  0
    2.2532   -1.7247    1.1843 O   0  0  0  0  0  0  0  0  0  0  0  0
   -2.4940    0.6562   -2.3280 O   0  0  0  0  0  0  0  0  0  0  0  0
    0.7833    0.1874   -0.0878 N   0  0  0  0  0  0  0  0  0  0  0  0
   -2.8239    0.1234   -0.3422 N   0  0  0  0  0  0  0  0  0  0  0  0
   -3.1249    0.9520   -1.3084 N   0  0  0  0  0  0  0  0  0  0  0  0
    1.9534   -0.3416   -0.7757 C   0  0  1  0  0  0  0  0  0  0  0  0
   -1.5949    0.4043    0.4096 C   0  0  1  0  0  0  0  0  0  0  0  0
    2.9784    0.7810   -0.7075 C   0  0  0  0  0  0  0  0  0  0  0  0
    1.1113    1.3976    0.6613 C   0  0  0  0  0  0  0  0  0  0  0  0
    2.6290    1.5078    0.5913 C   0  0  2  0  0  0  0  0  0  0  0  0
   -1.8417   -0.1237    1.8233 C   0  0  0  0  0  0  0  0  0  0  0  0
   -0.4847   -0.3465   -0.2567 C   0  0  0  0  0  0  0  0  0  0  0  0
   -3.1768   -0.8463    1.7375 C   0  0  0  0  0  0  0  0  0  0  0  0
   -3.8967   -0.1095    0.6237 C   0  0  0  0  0  0  0  0  0  0  0  0
    2.4000   -1.5547   -0.0169 C   0  0  0  0  0  0  0  0  0  0  0  0
    1.6835   -0.6199   -1.7999 H   0  0  0  0  0  0  0  0  0  0  0  0
   -1.4037    1.4817    0.4523 H   0  0  0  0  0  0  0  0  0  0  0  0
    4.0160    0.4313   -0.7124 H   0  0  0  0  0  0  0  0  0  0  0  0
    2.8589    1.4599   -1.5614 H   0  0  0  0  0  0  0  0  0  0  0  0
    0.7497    1.3194    1.6910 H   0  0  0  0  0  0  0  0  0  0  0  0
    0.6255    2.2558    0.1840 H   0  0  0  0  0  0  0  0  0  0  0  0
    3.0925    1.0154    1.4537 H   0  0  0  0  0  0  0  0  0  0  0  0
   -1.9332    0.7192    2.5194 H   0  0  0  0  0  0  0  0  0  0  0  0
   -1.0554   -0.7874    2.1978 H   0  0  0  0  0  0  0  0  0  0  0  0
   -3.0184   -1.8968    1.4633 H   0  0  0  0  0  0  0  0  0  0  0  0
   -3.7252   -0.8175    2.6835 H   0  0  0  0  0  0  0  0  0  0  0  0
   -4.7104   -0.7131    0.2072 H   0  0  0  0  0  0  0  0  0  0  0  0
   -4.3143    0.8317    1.0062 H   0  0  0  0  0  0  0  0  0  0  0  0
    4.0202    2.8504    0.4098 H   0  0  0  0  0  0  0  0  0  0  0  0
    3.2976   -3.2470   -0.3678 H   0  0  0  0  0  0  0  0  0  0  0  0
  1 13  1  0  0  0  0
  1 32  1  0  0  0  0
  2 15  2  0  0  0  0
  3 18  1  0  0  0  0
  3 33  1  0  0  0  0
  4 18  2  0  0  0  0
  5  8  2  0  0  0  0
  6  9  1  0  0  0  0
  6 12  1  0  0  0  0
  6 15  1  0  0  0  0
  7  8  1  0  0  0  0
  7 10  1  0  0  0  0
  7 17  1  0  0  0  0
  9 11  1  0  0  0  0
  9 18  1  0  0  0  0
  9 19  1  0  0  0  0
 10 14  1  0  0  0  0
 10 15  1  0  0  0  0
 10 20  1  0  0  0  0
 11 13  1  0  0  0  0
 11 21  1  0  0  0  0
 11 22  1  0  0  0  0
 12 13  1  0  0  0  0
 12 23  1  0  0  0  0
 12 24  1  0  0  0  0
 13 25  1  0  0  0  0
 14 16  1  0  0  0  0
 14 26  1  0  0  0  0
 14 27  1  0  0  0  0
 16 17  1  0  0  0  0
 16 28  1  0  0  0  0
 16 29  1  0  0  0  0
 17 30  1  0  0  0  0
 17 31  1  0  0  0  0
M  END
> <PUBCHEM_COMPOUND_CID>
128887

> <PUBCHEM_CONFORMER_RMSD>
0.8

> <PUBCHEM_CONFORMER_DIVERSEORDER>
1
20
7
5
11
18
19
21
9
16
25
15
6
14
8
24
17
13
23
3
22
12
10
4
2

> <PUBCHEM_MMFF94_PARTIAL_CHARGES>
17
1 -0.68
10 0.33
12 0.3
13 0.28
15 0.57
17 0.27
18 0.66
2 -0.57
3 -0.65
32 0.4
33 0.5
4 -0.57
5 -0.16
6 -0.66
7 -0.36
8 -0.01
9 0.36

> <PUBCHEM_EFFECTIVE_ROTOR_COUNT>
6

> <PUBCHEM_PHARMACOPHORE_FEATURES>
8
1 1 acceptor
1 1 donor
1 2 acceptor
1 3 acceptor
1 4 acceptor
3 3 4 18 anion
5 6 9 11 12 13 rings
5 7 10 14 16 17 rings

> <PUBCHEM_HEAVY_ATOM_COUNT>
18

> <PUBCHEM_ATOM_DEF_STEREO_COUNT>
3

> <PUBCHEM_ATOM_UDEF_STEREO_COUNT>
0

> <PUBCHEM_BOND_DEF_STEREO_COUNT>
0

> <PUBCHEM_BOND_UDEF_STEREO_COUNT>
0

> <PUBCHEM_ISOTOPIC_ATOM_COUNT>
0

> <PUBCHEM_COMPONENT_COUNT>
1

> <PUBCHEM_CACTVS_TAUTO_COUNT>
1

> <PUBCHEM_CONFORMER_ID>
0001F77700000001

> <PUBCHEM_MMFF94_ENERGY>
41.6894

> <PUBCHEM_FEATURE_SELFOVERLAP>
40.653

> <PUBCHEM_SHAPE_FINGERPRINT>
10366900 7 18041568056153594017
107287 299 18261967335321247888
10980938 120 18343025527228155472
12553582 1 18057052298425716814
12707595 3 18265337213933171214
12932764 1 18408609179505896023
13134695 92 18268420249122007868
13296908 3 18113904840256160955
14144814 61 17989212533537687795
14289901 80 17676499379446991209
15219456 202 18187083944876158841
15669948 3 15913331320833322341
16945 1 18272092703721157152
1813 80 17486513511549180990
18219364 16 18194959866682948769
19049666 15 17968653817998373569
19784866 34 17986956456274783832
20279233 1 17967817171338229003
20361792 2 18057889047932188158
204376 136 18124880311691496176
20559304 39 18059584550802249778
20645477 70 18412824664216328567
20715346 28 18186521011944325277
21524375 3 17908418401037689440
21639500 275 18272081716751650460
21730867 7 18334586766863359082
22112679 90 16773795883314475329
2255824 54 18131081441291776254
22802520 49 18187641341220959093
22854114 111 18340492256690580736
22943178 12 18113621179220198443
23402539 116 17241036739058451659
23526113 38 18044645408879944034
23557571 272 17603589651086806469
23559900 14 17458346320814590167
23598291 2 17346887736317132381
25 1 18270690899552845488
2748010 2 18114181921354688415
31174 14 18339375135717951329
3286 77 18338811034945448611
474 4 17986394605817120624
495365 180 18042385989878398883
6049 1 18040725740025978525
633830 44 17701835486237636328
7364860 26 18272656744759730510
74978 22 18273215291738885262
7615 1 17274816943886817241
77492 1 17131835360994530521
81228 2 16877951546599554645
88987 49 16370718214874883317

> <PUBCHEM_SHAPE_MULTIPOLES>
326.14
6.49
2.02
1.59
2.18
0.02
-0.28
-0.41
0.31
-2.82
0.17
1.41
-0.05
1.07

> <PUBCHEM_SHAPE_SELFOVERLAP>
682.534

> <PUBCHEM_SHAPE_VOLUME>
186.1

> <PUBCHEM_COORDINATE_TYPE>
2
5
10

$$$$
