128809
  -OEChem-03292013323D

 48 51  0     1  0  0  0  0  0999 V2000
    2.3124   -0.7548    1.9281 O   0  0  0  0  0  0  0  0  0  0  0  0
    2.9812    1.7219   -0.9655 O   0  0  0  0  0  0  0  0  0  0  0  0
   -1.4417   -3.2823   -0.1657 O   0  0  0  0  0  0  0  0  0  0  0  0
   -1.3924    2.0643    0.0041 O   0  0  0  0  0  0  0  0  0  0  0  0
   -3.8387    0.8328   -0.3934 O   0  0  0  0  0  0  0  0  0  0  0  0
    2.1795    3.7324   -0.1813 O   0  0  0  0  0  0  0  0  0  0  0  0
   -6.5828    1.2105   -0.1939 O   0  0  0  0  0  0  0  0  0  0  0  0
    4.0177   -2.2918    0.1243 N   0  0  0  0  0  0  0  0  0  0  0  0
    1.0478   -1.8169    0.1944 N   0  0  2  0  0  0  0  0  0  0  0  0
    4.4383    3.3479   -0.3734 N   0  0  0  0  0  0  0  0  0  0  0  0
    3.2433   -1.1058   -0.2478 C   0  0  2  0  0  0  0  0  0  0  0  0
    2.0164   -0.7444    0.5327 C   0  0  2  0  0  0  0  0  0  0  0  0
    3.0104   -2.4219   -0.9144 C   0  0  2  0  0  0  0  0  0  0  0  0
    1.6361   -2.9130   -0.5692 C   0  0  0  0  0  0  0  0  0  0  0  0
    1.2317    0.5647    0.1779 C   0  0  2  0  0  0  0  0  0  0  0  0
   -0.2114   -1.2847    0.0378 C   0  0  0  0  0  0  0  0  0  0  0  0
   -0.1876    0.0467    0.0613 C   0  0  0  0  0  0  0  0  0  0  0  0
    1.6578    1.2448   -1.1213 C   0  0  0  0  0  0  0  0  0  0  0  0
   -1.4436   -2.0564   -0.1497 C   0  0  0  0  0  0  0  0  0  0  0  0
   -1.4102    0.8401   -0.0568 C   0  0  0  0  0  0  0  0  0  0  0  0
    3.1066    0.3624    2.2960 C   0  0  0  0  0  0  0  0  0  0  0  0
   -2.7104   -1.2628   -0.3110 C   0  0  0  0  0  0  0  0  0  0  0  0
   -2.6842    0.0865   -0.2576 C   0  0  0  0  0  0  0  0  0  0  0  0
   -3.9601   -2.0687   -0.5162 C   0  0  0  0  0  0  0  0  0  0  0  0
    3.1150    2.9979   -0.4806 C   0  0  0  0  0  0  0  0  0  0  0  0
   -4.4418    1.0549    0.8658 C   0  0  0  0  0  0  0  0  0  0  0  0
   -5.6894    1.8957    0.6754 C   0  0  0  0  0  0  0  0  0  0  0  0
    3.8278   -0.3423   -0.7213 H   0  0  0  0  0  0  0  0  0  0  0  0
    3.3410   -2.5852   -1.9272 H   0  0  0  0  0  0  0  0  0  0  0  0
    3.6807   -2.6723    1.0078 H   0  0  0  0  0  0  0  0  0  0  0  0
    1.6717   -3.8273    0.0316 H   0  0  0  0  0  0  0  0  0  0  0  0
    1.0691   -3.1092   -1.4857 H   0  0  0  0  0  0  0  0  0  0  0  0
    1.2421    1.2998    0.9859 H   0  0  0  0  0  0  0  0  0  0  0  0
    1.6564    0.5354   -1.9576 H   0  0  0  0  0  0  0  0  0  0  0  0
    0.9732    2.0516   -1.4103 H   0  0  0  0  0  0  0  0  0  0  0  0
    2.4812    1.2070    2.5966 H   0  0  0  0  0  0  0  0  0  0  0  0
    3.8268    0.6665    1.5314 H   0  0  0  0  0  0  0  0  0  0  0  0
    3.6785    0.0739    3.1839 H   0  0  0  0  0  0  0  0  0  0  0  0
   -4.8382   -1.4495   -0.7218 H   0  0  0  0  0  0  0  0  0  0  0  0
   -4.1748   -2.6682    0.3745 H   0  0  0  0  0  0  0  0  0  0  0  0
   -3.8401   -2.7454   -1.3691 H   0  0  0  0  0  0  0  0  0  0  0  0
   -4.7239    0.0970    1.3206 H   0  0  0  0  0  0  0  0  0  0  0  0
   -3.7541    1.5797    1.5401 H   0  0  0  0  0  0  0  0  0  0  0  0
    4.7175    4.2606   -0.0300 H   0  0  0  0  0  0  0  0  0  0  0  0
    5.1775    2.7033   -0.6327 H   0  0  0  0  0  0  0  0  0  0  0  0
   -6.1954    2.0714    1.6287 H   0  0  0  0  0  0  0  0  0  0  0  0
   -5.4501    2.8598    0.2160 H   0  0  0  0  0  0  0  0  0  0  0  0
   -6.1108    1.0476   -1.0286 H   0  0  0  0  0  0  0  0  0  0  0  0
  1 12  1  0  0  0  0
  1 21  1  0  0  0  0
  2 18  1  0  0  0  0
  2 25  1  0  0  0  0
  3 19  2  0  0  0  0
  4 20  2  0  0  0  0
  5 23  1  0  0  0  0
  5 26  1  0  0  0  0
  6 25  2  0  0  0  0
  7 27  1  0  0  0  0
  7 48  1  0  0  0  0
  8 11  1  0  0  0  0
  8 13  1  0  0  0  0
  8 30  1  0  0  0  0
  9 12  1  0  0  0  0
  9 14  1  0  0  0  0
  9 16  1  0  0  0  0
 10 25  1  0  0  0  0
 10 44  1  0  0  0  0
 10 45  1  0  0  0  0
 11 12  1  0  0  0  0
 11 13  1  0  0  0  0
 11 28  1  0  0  0  0
 12 15  1  0  0  0  0
 13 14  1  0  0  0  0
 13 29  1  0  0  0  0
 14 31  1  0  0  0  0
 14 32  1  0  0  0  0
 15 17  1  0  0  0  0
 15 18  1  0  0  0  0
 15 33  1  0  0  0  0
 16 17  2  0  0  0  0
 16 19  1  0  0  0  0
 17 20  1  0  0  0  0
 18 34  1  0  0  0  0
 18 35  1  0  0  0  0
 19 22  1  0  0  0  0
 20 23  1  0  0  0  0
 21 36  1  0  0  0  0
 21 37  1  0  0  0  0
 21 38  1  0  0  0  0
 22 23  2  0  0  0  0
 22 24  1  0  0  0  0
 24 39  1  0  0  0  0
 24 40  1  0  0  0  0
 24 41  1  0  0  0  0
 26 27  1  0  0  0  0
 26 42  1  0  0  0  0
 26 43  1  0  0  0  0
 27 46  1  0  0  0  0
 27 47  1  0  0  0  0
M  END
> <PUBCHEM_COMPOUND_CID>
128809

> <PUBCHEM_CONFORMER_RMSD>
0.8

> <PUBCHEM_CONFORMER_DIVERSEORDER>
1
23
86
13
28
32
21
65
78
89
30
54
35
85
77
29
44
19
42
71
34
73
8
12
48
59
24
33
27
87
22
26
39
58
61
43
18
60
75
66
45
90
76
36
57
83
74
52
5
11
55
53
4
68
70
20
31
14
88
63
37
82
72
10
17
50
56
15
62
46
7
38
69
67
2
80
51
47
9
25
84
6
40
81
49
79
64
16
41
3

> <PUBCHEM_MMFF94_PARTIAL_CHARGES>
33
1 -0.56
10 -0.8
11 -0.04
12 0.74
13 -0.04
14 0.46
15 0.14
16 0.11
17 -0.12
18 0.28
19 0.54
2 -0.43
20 0.54
21 0.28
22 -0.12
23 0.09
24 0.14
25 0.78
26 0.28
27 0.28
28 0.1
29 0.1
3 -0.57
30 0.36
4 -0.57
44 0.37
45 0.37
48 0.4
5 -0.36
6 -0.57
7 -0.68
8 -0.68
9 -0.84

> <PUBCHEM_EFFECTIVE_ROTOR_COUNT>
7.6

> <PUBCHEM_PHARMACOPHORE_FEATURES>
14
1 1 acceptor
1 10 donor
1 3 acceptor
1 4 acceptor
1 5 acceptor
1 6 acceptor
1 7 acceptor
1 7 donor
1 8 cation
1 8 donor
1 9 cation
5 9 12 15 16 17 rings
6 16 17 19 20 22 23 rings
6 8 9 11 12 13 14 rings

> <PUBCHEM_HEAVY_ATOM_COUNT>
27

> <PUBCHEM_ATOM_DEF_STEREO_COUNT>
1

> <PUBCHEM_ATOM_UDEF_STEREO_COUNT>
3

> <PUBCHEM_BOND_DEF_STEREO_COUNT>
0

> <PUBCHEM_BOND_UDEF_STEREO_COUNT>
0

> <PUBCHEM_ISOTOPIC_ATOM_COUNT>
0

> <PUBCHEM_COMPONENT_COUNT>
1

> <PUBCHEM_CACTVS_TAUTO_COUNT>
18

> <PUBCHEM_CONFORMER_ID>
0001F72900000001

> <PUBCHEM_MMFF94_ENERGY>
96.8656

> <PUBCHEM_FEATURE_SELFOVERLAP>
71.227

> <PUBCHEM_SHAPE_FINGERPRINT>
10382601 240 17822003263815624308
10411042 1 17761215410296040559
1100329 8 18410015399085574515
11578080 2 17417511619001327235
12422481 6 18115564042527393344
12633257 1 18334284345331119731
12788726 201 17417545618052340569
13140716 1 18335143089914572107
13583140 156 17023445457642020337
13965767 371 18187075204544385004
14790565 3 17905897220358669613
14955137 171 17762369948901543738
15196674 1 18410576197729801015
15238133 3 17345765062226239041
15475509 8 17626412041855457694
16945 1 18335127653390802902
17980427 23 18196907020656028090
19591789 44 16968862749396169903
20691752 17 17240758514517376751
21033648 29 17841690934217662633
21524375 3 17827354694419290700
22149856 69 18201727246085051331
23366157 5 18113617923983206262
23558518 356 18339350968080252263
23559900 14 18343861095993894614
25147074 1 18337658828311085935
2748010 2 17833254338204964486
283562 15 17689999359169567763
335352 9 18339082575204225383
3411729 13 18186804712073453840
34797466 226 15267048269279276209
350125 39 18337959965453347165
394222 165 17970902491455890424
4409770 3 17322370620462834198
474 4 18410575076368641121
495365 180 17059474267187742403
5104073 3 18260270776311141001
59755656 215 18409176506506246292
633830 44 18335135393433618711
7364860 26 18410295822148634740
9981440 41 18049441740809424016
9999458 23 18261117314080709247

> <PUBCHEM_SHAPE_MULTIPOLES>
499.62
9.74
4.04
1.14
13.29
1.13
-0.62
5.09
-0.54
-3.23
0.96
-1.02
0.13
-0.93

> <PUBCHEM_SHAPE_SELFOVERLAP>
1082.542

> <PUBCHEM_SHAPE_VOLUME>
274.7

> <PUBCHEM_COORDINATE_TYPE>
2
5
10

$$$$
