128871
  -OEChem-03292013323D

 33 33  0     1  0  0  0  0  0999 V2000
    0.1212   -0.6292    1.6735 O   0  0  0  0  0  0  0  0  0  0  0  0
   -3.7527    2.2332    0.7615 O   0  0  0  0  0  0  0  0  0  0  0  0
   -3.4303    1.6446   -1.4066 O   0  0  0  0  0  0  0  0  0  0  0  0
    4.7239   -1.5131   -0.4027 O   0  0  0  0  0  0  0  0  0  0  0  0
   -3.8865   -1.7699    0.6118 O   0  0  0  0  0  0  0  0  0  0  0  0
   -2.1734   -0.6487   -0.4969 N   0  0  0  0  0  0  0  0  0  0  0  0
    2.1534   -1.9568    0.6112 N   0  0  0  0  0  0  0  0  0  0  0  0
   -2.1384    0.5309    0.3325 C   0  0  1  0  0  0  0  0  0  0  0  0
   -0.7558    1.1850    0.3443 C   0  0  0  0  0  0  0  0  0  0  0  0
    0.3403    0.2534    0.8470 C   0  0  0  0  0  0  0  0  0  0  0  0
    1.7248    0.4227    0.3143 C   0  0  0  0  0  0  0  0  0  0  0  0
    2.5660   -0.6628    0.2162 C   0  0  0  0  0  0  0  0  0  0  0  0
   -3.1691    1.4963   -0.2198 C   0  0  0  0  0  0  0  0  0  0  0  0
    2.1051    1.6922   -0.0644 C   0  0  0  0  0  0  0  0  0  0  0  0
    3.8533   -0.4707   -0.2857 C   0  0  0  0  0  0  0  0  0  0  0  0
   -3.0488   -1.7017   -0.2839 C   0  0  0  0  0  0  0  0  0  0  0  0
    3.3922    1.8844   -0.5663 C   0  0  0  0  0  0  0  0  0  0  0  0
    4.2662    0.8030   -0.6771 C   0  0  0  0  0  0  0  0  0  0  0  0
   -2.8913   -2.7928   -1.3087 C   0  0  0  0  0  0  0  0  0  0  0  0
   -2.4394    0.2380    1.3455 H   0  0  0  0  0  0  0  0  0  0  0  0
   -0.7671    2.0743    0.9853 H   0  0  0  0  0  0  0  0  0  0  0  0
   -0.5165    1.5071   -0.6769 H   0  0  0  0  0  0  0  0  0  0  0  0
   -1.5728   -0.6715   -1.3165 H   0  0  0  0  0  0  0  0  0  0  0  0
    1.4562    2.5567    0.0298 H   0  0  0  0  0  0  0  0  0  0  0  0
    3.7160    2.8768   -0.8663 H   0  0  0  0  0  0  0  0  0  0  0  0
    5.2678    0.9600   -1.0679 H   0  0  0  0  0  0  0  0  0  0  0  0
    2.7121   -2.7730    0.4114 H   0  0  0  0  0  0  0  0  0  0  0  0
    1.2134   -2.1027    0.9538 H   0  0  0  0  0  0  0  0  0  0  0  0
   -3.4029   -3.6963   -0.9656 H   0  0  0  0  0  0  0  0  0  0  0  0
   -3.3292   -2.4673   -2.2562 H   0  0  0  0  0  0  0  0  0  0  0  0
   -1.8330   -3.0264   -1.4574 H   0  0  0  0  0  0  0  0  0  0  0  0
   -4.4030    2.8727    0.4003 H   0  0  0  0  0  0  0  0  0  0  0  0
    4.3937   -2.2786    0.0918 H   0  0  0  0  0  0  0  0  0  0  0  0
  1 10  2  0  0  0  0
  2 13  1  0  0  0  0
  2 32  1  0  0  0  0
  3 13  2  0  0  0  0
  4 15  1  0  0  0  0
  4 33  1  0  0  0  0
  5 16  2  0  0  0  0
  6  8  1  0  0  0  0
  6 16  1  0  0  0  0
  6 23  1  0  0  0  0
  7 12  1  0  0  0  0
  7 27  1  0  0  0  0
  7 28  1  0  0  0  0
  8  9  1  0  0  0  0
  8 13  1  0  0  0  0
  8 20  1  0  0  0  0
  9 10  1  0  0  0  0
  9 21  1  0  0  0  0
  9 22  1  0  0  0  0
 10 11  1  0  0  0  0
 11 12  2  0  0  0  0
 11 14  1  0  0  0  0
 12 15  1  0  0  0  0
 14 17  2  0  0  0  0
 14 24  1  0  0  0  0
 15 18  2  0  0  0  0
 16 19  1  0  0  0  0
 17 18  1  0  0  0  0
 17 25  1  0  0  0  0
 18 26  1  0  0  0  0
 19 29  1  0  0  0  0
 19 30  1  0  0  0  0
 19 31  1  0  0  0  0
M  END
> <PUBCHEM_COMPOUND_CID>
128871

> <PUBCHEM_CONFORMER_RMSD>
0.8

> <PUBCHEM_CONFORMER_DIVERSEORDER>
1
123
31
134
16
120
121
70
144
122
127
84
105
110
94
64
102
156
74
69
67
103
115
44
50
153
147
39
151
118
4
145
131
95
96
57
136
98
75
142
113
66
139
133
32
63
45
116
155
86
152
149
60
11
83
114
73
54
97
104
143
13
138
33
112
41
140
56
130
78
109
48
9
59
93
146
91
125
90
137
128
99
106
119
124
150
117
42
2
26
58
132
148
77
23
76
14
101
100
5
92
129
68
46
36
28
89
126
87
38
12
108
154
27
81
17
111
88
141
79
24
37
18
25
6
55
34
135
107
71
65
35
85
29
21
80
51
30
19
15
53
82
10
49
43
20
62
40
22
47
52
3
8
7
72
61

> <PUBCHEM_MMFF94_PARTIAL_CHARGES>
27
1 -0.57
10 0.42
11 0.09
12 0.1
13 0.66
14 -0.15
15 0.08
16 0.57
17 -0.15
18 -0.15
19 0.06
2 -0.65
23 0.37
24 0.15
25 0.15
26 0.15
27 0.4
28 0.4
3 -0.57
32 0.5
33 0.45
4 -0.53
5 -0.57
6 -0.73
7 -0.9
8 0.36
9 0.06

> <PUBCHEM_EFFECTIVE_ROTOR_COUNT>
6

> <PUBCHEM_PHARMACOPHORE_FEATURES>
10
1 1 acceptor
1 2 acceptor
1 3 acceptor
1 4 donor
1 5 acceptor
1 6 donor
1 7 cation
1 7 donor
3 2 3 13 anion
6 11 12 14 15 17 18 rings

> <PUBCHEM_HEAVY_ATOM_COUNT>
19

> <PUBCHEM_ATOM_DEF_STEREO_COUNT>
0

> <PUBCHEM_ATOM_UDEF_STEREO_COUNT>
1

> <PUBCHEM_BOND_DEF_STEREO_COUNT>
0

> <PUBCHEM_BOND_UDEF_STEREO_COUNT>
0

> <PUBCHEM_ISOTOPIC_ATOM_COUNT>
0

> <PUBCHEM_COMPONENT_COUNT>
1

> <PUBCHEM_CACTVS_TAUTO_COUNT>
42

> <PUBCHEM_CONFORMER_ID>
0001F76700000001

> <PUBCHEM_MMFF94_ENERGY>
58.191

> <PUBCHEM_FEATURE_SELFOVERLAP>
50.809

> <PUBCHEM_SHAPE_FINGERPRINT>
10062212 137 18335695023097446842
10498660 4 17458892799842835981
10616163 171 18341896298632377455
10756046 5 18409726270360799126
11405975 8 18411981338839951056
121448 382 16951120810895505731
12553582 1 18125148588270668219
12707595 3 16917065594198518960
12714826 92 17703511094560122191
13167823 11 18410015446388042102
13296908 3 18059850701082551120
14115302 16 18130504132883064752
14251751 93 18412824698402201479
14576447 43 18269838778114938518
15196674 1 18409732863631438028
16752209 62 18201703068907215039
17492 89 18410858776207697278
18186145 218 18040714749384223936
18915474 69 18198904893086581414
19422 9 18411703209516046220
20645476 183 18339637820476375423
20645477 70 18340211787047310854
20871999 31 18411415137733222093
21618674 54 18408881854120860844
21634736 98 18336262422562977504
21709351 56 18259985981382901452
221490 88 18337678606704062362
22393880 68 18412269445689103068
22907989 373 18271232920193768709
23402539 116 17749104483432006852
23402655 69 18335707113673218324
23559900 14 18202278070881338170
25 1 17968663718161754624
2871803 45 18336258067471745519
3082319 5 18408039628140163884
4214541 1 18410576175679990533
5104073 3 18410011039989091080
5281201 14 18334582364674939556
53777708 50 18340210785929949836
58051976 100 18408604743026088871
58051976 378 18121216743184204212
59027123 10 18334296470134650780
6049 1 17845361305873432145
633830 44 17458349632651074312
77779 3 18410298020718254916
7832392 63 18335417932997787788
93112 12 18409726235927486948
9709674 26 18335145344698465018

> <PUBCHEM_SHAPE_MULTIPOLES>
351.7
9
2.64
1.08
1.91
0.62
-0.01
0.89
2.12
-2.11
0.51
-0.46
0.11
-0.69

> <PUBCHEM_SHAPE_SELFOVERLAP>
732.425

> <PUBCHEM_SHAPE_VOLUME>
197.9

> <PUBCHEM_COORDINATE_TYPE>
2
5
10

$$$$
