128822
  -OEChem-03292013323D

 53 57  0     1  0  0  0  0  0999 V2000
    2.7415   -1.7708   -0.8707 O   0  0  0  0  0  0  0  0  0  0  0  0
    2.7165   -3.8908    2.0276 O   0  0  0  0  0  0  0  0  0  0  0  0
    4.4890   -3.6458   -2.0369 O   0  0  0  0  0  0  0  0  0  0  0  0
    1.9295    0.2848   -0.0196 N   0  0  0  0  0  0  0  0  0  0  0  0
    1.5170    2.4793    0.0849 N   0  0  0  0  0  0  0  0  0  0  0  0
    4.3594    0.3249   -0.0082 N   0  0  0  0  0  0  0  0  0  0  0  0
    5.2134    2.6083    0.1056 N   0  0  0  0  0  0  0  0  0  0  0  0
    3.7721    4.5164    0.1917 N   0  0  0  0  0  0  0  0  0  0  0  0
   -8.7168   -0.6003   -0.1046 N   0  0  0  0  0  0  0  0  0  0  0  0
    1.6990   -1.1531   -0.0902 C   0  0  2  0  0  0  0  0  0  0  0  0
    1.6780   -1.8490    1.2626 C   0  0  0  0  0  0  0  0  0  0  0  0
    2.1777   -3.2286    0.9026 C   0  0  1  0  0  0  0  0  0  0  0  0
    3.2355   -2.9076   -0.1419 C   0  0  1  0  0  0  0  0  0  0  0  0
    3.5010   -4.0515   -1.1038 C   0  0  0  0  0  0  0  0  0  0  0  0
    0.9815    1.2779    0.0248 C   0  0  0  0  0  0  0  0  0  0  0  0
    3.1501    0.9051    0.0151 C   0  0  0  0  0  0  0  0  0  0  0  0
    2.8718    2.2611    0.0797 C   0  0  0  0  0  0  0  0  0  0  0  0
   -0.4382    1.0040    0.0056 C   0  0  0  0  0  0  0  0  0  0  0  0
    3.9613    3.1252    0.1257 C   0  0  0  0  0  0  0  0  0  0  0  0
   -1.1147    0.9307   -1.2100 C   0  0  0  0  0  0  0  0  0  0  0  0
   -1.1246    0.8143    1.2030 C   0  0  0  0  0  0  0  0  0  0  0  0
    5.3328    1.2601    0.0410 C   0  0  0  0  0  0  0  0  0  0  0  0
   -2.4842    0.6663   -1.2284 C   0  0  0  0  0  0  0  0  0  0  0  0
   -2.4941    0.5500    1.1847 C   0  0  0  0  0  0  0  0  0  0  0  0
   -3.1739    0.4759   -0.0310 C   0  0  0  0  0  0  0  0  0  0  0  0
   -4.5944    0.2011   -0.0499 C   0  0  0  0  0  0  0  0  0  0  0  0
   -5.3898    0.7110   -1.0758 C   0  0  0  0  0  0  0  0  0  0  0  0
   -5.1678   -0.5744    0.9576 C   0  0  0  0  0  0  0  0  0  0  0  0
   -6.7591    0.4454   -1.0942 C   0  0  0  0  0  0  0  0  0  0  0  0
   -6.5369   -0.8400    0.9393 C   0  0  0  0  0  0  0  0  0  0  0  0
   -7.3327   -0.3301   -0.0865 C   0  0  0  0  0  0  0  0  0  0  0  0
    0.7663   -1.3270   -0.6368 H   0  0  0  0  0  0  0  0  0  0  0  0
    0.6836   -1.8603    1.7194 H   0  0  0  0  0  0  0  0  0  0  0  0
    2.3527   -1.3695    1.9835 H   0  0  0  0  0  0  0  0  0  0  0  0
    1.3590   -3.8267    0.4849 H   0  0  0  0  0  0  0  0  0  0  0  0
    4.1779   -2.6046    0.3321 H   0  0  0  0  0  0  0  0  0  0  0  0
    2.6012   -4.3023   -1.6744 H   0  0  0  0  0  0  0  0  0  0  0  0
    3.8515   -4.9486   -0.5848 H   0  0  0  0  0  0  0  0  0  0  0  0
    3.0887   -4.7350    1.7209 H   0  0  0  0  0  0  0  0  0  0  0  0
    5.3020   -3.4518   -1.5398 H   0  0  0  0  0  0  0  0  0  0  0  0
   -0.5886    1.0700   -2.1515 H   0  0  0  0  0  0  0  0  0  0  0  0
   -0.6087    0.8751    2.1584 H   0  0  0  0  0  0  0  0  0  0  0  0
    6.3491    0.8811    0.0266 H   0  0  0  0  0  0  0  0  0  0  0  0
   -2.9646    0.5875   -2.1997 H   0  0  0  0  0  0  0  0  0  0  0  0
   -2.9941    0.4391    2.1429 H   0  0  0  0  0  0  0  0  0  0  0  0
    2.8388    4.9048    0.2075 H   0  0  0  0  0  0  0  0  0  0  0  0
    4.5798    5.1234    0.2248 H   0  0  0  0  0  0  0  0  0  0  0  0
   -4.9933    1.3447   -1.8643 H   0  0  0  0  0  0  0  0  0  0  0  0
   -4.5836   -1.0182    1.7591 H   0  0  0  0  0  0  0  0  0  0  0  0
   -7.3702    0.8535   -1.8953 H   0  0  0  0  0  0  0  0  0  0  0  0
   -6.9713   -1.4514    1.7262 H   0  0  0  0  0  0  0  0  0  0  0  0
   -9.1329   -1.1609    0.6271 H   0  0  0  0  0  0  0  0  0  0  0  0
   -9.2952   -0.2295   -0.8468 H   0  0  0  0  0  0  0  0  0  0  0  0
  1 10  1  0  0  0  0
  1 13  1  0  0  0  0
  2 12  1  0  0  0  0
  2 39  1  0  0  0  0
  3 14  1  0  0  0  0
  3 40  1  0  0  0  0
  4 10  1  0  0  0  0
  4 15  1  0  0  0  0
  4 16  1  0  0  0  0
  5 15  2  0  0  0  0
  5 17  1  0  0  0  0
  6 16  2  0  0  0  0
  6 22  1  0  0  0  0
  7 19  1  0  0  0  0
  7 22  2  0  0  0  0
  8 19  1  0  0  0  0
  8 46  1  0  0  0  0
  8 47  1  0  0  0  0
  9 31  1  0  0  0  0
  9 52  1  0  0  0  0
  9 53  1  0  0  0  0
 10 11  1  0  0  0  0
 10 32  1  0  0  0  0
 11 12  1  0  0  0  0
 11 33  1  0  0  0  0
 11 34  1  0  0  0  0
 12 13  1  0  0  0  0
 12 35  1  0  0  0  0
 13 14  1  0  0  0  0
 13 36  1  0  0  0  0
 14 37  1  0  0  0  0
 14 38  1  0  0  0  0
 15 18  1  0  0  0  0
 16 17  1  0  0  0  0
 17 19  2  0  0  0  0
 18 20  2  0  0  0  0
 18 21  1  0  0  0  0
 20 23  1  0  0  0  0
 20 41  1  0  0  0  0
 21 24  2  0  0  0  0
 21 42  1  0  0  0  0
 22 43  1  0  0  0  0
 23 25  2  0  0  0  0
 23 44  1  0  0  0  0
 24 25  1  0  0  0  0
 24 45  1  0  0  0  0
 25 26  1  0  0  0  0
 26 27  2  0  0  0  0
 26 28  1  0  0  0  0
 27 29  1  0  0  0  0
 27 48  1  0  0  0  0
 28 30  2  0  0  0  0
 28 49  1  0  0  0  0
 29 31  2  0  0  0  0
 29 50  1  0  0  0  0
 30 31  1  0  0  0  0
 30 51  1  0  0  0  0
M  END
> <PUBCHEM_COMPOUND_CID>
128822

> <PUBCHEM_CONFORMER_RMSD>
0.8

> <PUBCHEM_CONFORMER_DIVERSEORDER>
1
5
7
3
2
4
8
6

> <PUBCHEM_MMFF94_PARTIAL_CHARGES>
43
1 -0.56
10 0.54
12 0.28
13 0.28
14 0.28
15 0.13
16 0.11
17 0.23
18 0.05
19 0.41
2 -0.68
20 -0.15
21 -0.15
22 0.47
23 -0.15
24 -0.15
27 -0.15
28 -0.15
29 -0.15
3 -0.68
30 -0.15
31 0.1
39 0.4
4 0.05
40 0.4
41 0.15
42 0.15
43 0.15
44 0.15
45 0.15
46 0.4
47 0.4
48 0.15
49 0.15
5 -0.57
50 0.15
51 0.15
52 0.4
53 0.4
6 -0.57
7 -0.62
8 -0.9
9 -0.9

> <PUBCHEM_EFFECTIVE_ROTOR_COUNT>
5

> <PUBCHEM_PHARMACOPHORE_FEATURES>
17
1 1 acceptor
1 2 acceptor
1 2 donor
1 3 acceptor
1 3 donor
1 8 cation
1 8 donor
1 9 cation
1 9 donor
3 4 5 15 cation
3 4 6 16 cation
3 6 7 22 cation
5 1 10 11 12 13 rings
5 4 5 15 16 17 rings
6 18 20 21 23 24 25 rings
6 26 27 28 29 30 31 rings
6 6 7 16 17 19 22 rings

> <PUBCHEM_HEAVY_ATOM_COUNT>
31

> <PUBCHEM_ATOM_DEF_STEREO_COUNT>
3

> <PUBCHEM_ATOM_UDEF_STEREO_COUNT>
0

> <PUBCHEM_BOND_DEF_STEREO_COUNT>
0

> <PUBCHEM_BOND_UDEF_STEREO_COUNT>
0

> <PUBCHEM_ISOTOPIC_ATOM_COUNT>
0

> <PUBCHEM_COMPONENT_COUNT>
1

> <PUBCHEM_CACTVS_TAUTO_COUNT>
9

> <PUBCHEM_CONFORMER_ID>
0001F73600000001

> <PUBCHEM_MMFF94_ENERGY>
102.9537

> <PUBCHEM_FEATURE_SELFOVERLAP>
86.882

> <PUBCHEM_SHAPE_FINGERPRINT>
10050765 1 18338233740044553193
10319688 140 18341334396762012662
10411042 1 18123753050628349134
10835480 77 18334003983458366461
11135926 11 18340755039837653485
11181472 205 18343306925814047745
11421498 54 17846788390330323488
11475781 23 16733806624865678895
11719270 70 18409442622426114024
12236239 1 17632864143802539537
12730499 353 18334294296591223921
12788726 201 17110451788675439272
13009979 54 17344353250683484794
13073987 5 18411139113703499977
131258 43 17631181780044181534
13383665 225 17750250144109573741
13533116 47 18344144787542683537
13540713 5 17916042173814561777
1361 4 18341609378650355767
13692114 37 18126836316991636762
13955234 65 18411412921277130424
14118638 360 18341894078862311521
14675020 138 18269257106225378112
14910302 57 17386001742259082119
15328684 2 17131285576013171595
15439362 3 17695621140669975041
15483637 11 18122063375633678555
15927050 60 18267864063484530807
16990366 60 18190739722466452082
16991971 28 18266742368846685802
17492 89 18198908011190341193
18681886 176 15912766223402054241
19315958 150 18336552698929893811
19319366 153 18130783520732574740
19427546 62 18191869148372086960
20771845 140 17418085504273845038
20771845 171 17749115491812800110
20775438 99 18334848459543594835
21033650 10 15720236050994374613
21049683 118 17981301694043512808
21133410 32 16158829074567146218
21197605 99 18120381105457278859
21344244 246 18342184324304574830
21344244 78 18058997394186373552
21703447 108 18337666425807942305
22224240 67 18337949120771675152
22956985 138 17825653471143480018
23516275 137 17845117163138327263
23559900 14 18336824187358606987
239999 70 18410293588454618594
25222932 49 18057883739811839143
255183 451 18057896740482723798
27425 322 17985550202383164836
3178227 256 18336539495799960624
3633792 109 18409727340825962273
4073 2 18261677094944111883
4340502 62 18335419110071592797
4403749 210 17834394897009638808
57359948 33 17095235892003445791
57527295 17 17680436546055528882
59755656 215 18259984885528073432
6025842 7 18410854377806972196
621550 34 18187356657914422901
6669772 16 18187078477557456115
6695519 79 17839477917858018163
70251023 43 18268997475251594538
7399639 24 18115013203711944293
7970288 3 17981045210959919935

> <PUBCHEM_SHAPE_MULTIPOLES>
590.47
17.07
4.52
1.29
35.93
2.44
-0.04
0.48
-1.76
-12.22
-0.04
0.04
1.03
1.47

> <PUBCHEM_SHAPE_SELFOVERLAP>
1316.971

> <PUBCHEM_SHAPE_VOLUME>
311.6

> <PUBCHEM_COORDINATE_TYPE>
2
5
10

$$$$
