128922
  -OEChem-03292013323D

 23 24  0     0  0  0  0  0  0999 V2000
    5.6071   -0.7710   -0.5197 Cl  0  0  0  0  0  0  0  0  0  0  0  0
    1.6852    2.1444    0.1892 O   0  0  0  0  0  0  0  0  0  0  0  0
   -3.2235   -1.9985   -0.0076 O   0  0  0  0  0  0  0  0  0  0  0  0
   -0.2221    0.9578    0.0720 N   0  0  0  0  0  0  0  0  0  0  0  0
    1.6954   -0.2142    0.3804 N   0  0  0  0  0  0  0  0  0  0  0  0
   -0.9905    2.0511   -0.1011 N   0  0  0  0  0  0  0  0  0  0  0  0
   -0.2724   -1.3781    0.2526 N   0  0  0  0  0  0  0  0  0  0  0  0
    0.9736   -1.3922    0.3922 N   0  0  0  0  0  0  0  0  0  0  0  0
   -4.6391   -0.2223   -0.3241 N   0  0  0  0  0  0  0  0  0  0  0  0
   -0.9229   -0.2098    0.0875 C   0  0  0  0  0  0  0  0  0  0  0  0
    3.1271   -0.3821    0.5519 C   0  0  0  0  0  0  0  0  0  0  0  0
    1.1463    1.0493    0.2174 C   0  0  0  0  0  0  0  0  0  0  0  0
   -2.2417    0.1409   -0.0865 C   0  0  0  0  0  0  0  0  0  0  0  0
   -2.2229    1.5441   -0.1968 C   0  0  0  0  0  0  0  0  0  0  0  0
    3.8559   -0.5625   -0.7691 C   0  0  0  0  0  0  0  0  0  0  0  0
   -3.3556   -0.7567   -0.1385 C   0  0  0  0  0  0  0  0  0  0  0  0
    3.5174    0.5046    1.0665 H   0  0  0  0  0  0  0  0  0  0  0  0
    3.2996   -1.2406    1.2128 H   0  0  0  0  0  0  0  0  0  0  0  0
   -3.0468    2.2280   -0.3430 H   0  0  0  0  0  0  0  0  0  0  0  0
    3.7135    0.3063   -1.4195 H   0  0  0  0  0  0  0  0  0  0  0  0
    3.4893   -1.4451   -1.3026 H   0  0  0  0  0  0  0  0  0  0  0  0
   -4.8114    0.7719   -0.4290 H   0  0  0  0  0  0  0  0  0  0  0  0
   -5.4505   -0.8305   -0.3594 H   0  0  0  0  0  0  0  0  0  0  0  0
  1 15  1  0  0  0  0
  2 12  2  0  0  0  0
  3 16  2  0  0  0  0
  4  6  1  0  0  0  0
  4 10  1  0  0  0  0
  4 12  1  0  0  0  0
  5  8  1  0  0  0  0
  5 11  1  0  0  0  0
  5 12  1  0  0  0  0
  6 14  2  0  0  0  0
  7  8  2  0  0  0  0
  7 10  1  0  0  0  0
  9 16  1  0  0  0  0
  9 22  1  0  0  0  0
  9 23  1  0  0  0  0
 10 13  2  0  0  0  0
 11 15  1  0  0  0  0
 11 17  1  0  0  0  0
 11 18  1  0  0  0  0
 13 14  1  0  0  0  0
 13 16  1  0  0  0  0
 14 19  1  0  0  0  0
 15 20  1  0  0  0  0
 15 21  1  0  0  0  0
M  END
> <PUBCHEM_COMPOUND_CID>
128922

> <PUBCHEM_CONFORMER_RMSD>
0.6

> <PUBCHEM_CONFORMER_DIVERSEORDER>
2
16
19
10
17
20
12
3
18
8
15
11
14
9
13
5
6
1
4
7

> <PUBCHEM_MMFF94_PARTIAL_CHARGES>
19
1 -0.29
10 -0.03
11 0.3
12 0.64
13 -0.09
14 0.14
15 0.29
16 0.72
19 0.15
2 -0.57
22 0.37
23 0.37
3 -0.57
4 0.56
5 -0.3
6 -0.71
7 -0.13
8 -0.06
9 -0.8

> <PUBCHEM_EFFECTIVE_ROTOR_COUNT>
3

> <PUBCHEM_PHARMACOPHORE_FEATURES>
6
1 2 acceptor
1 3 acceptor
1 6 acceptor
1 9 donor
5 4 6 10 13 14 rings
6 4 5 7 8 10 12 rings

> <PUBCHEM_HEAVY_ATOM_COUNT>
16

> <PUBCHEM_ATOM_DEF_STEREO_COUNT>
0

> <PUBCHEM_ATOM_UDEF_STEREO_COUNT>
0

> <PUBCHEM_BOND_DEF_STEREO_COUNT>
0

> <PUBCHEM_BOND_UDEF_STEREO_COUNT>
0

> <PUBCHEM_ISOTOPIC_ATOM_COUNT>
0

> <PUBCHEM_COMPONENT_COUNT>
1

> <PUBCHEM_CACTVS_TAUTO_COUNT>
2

> <PUBCHEM_CONFORMER_ID>
0001F79A00000002

> <PUBCHEM_MMFF94_ENERGY>
30.8966

> <PUBCHEM_FEATURE_SELFOVERLAP>
30.6

> <PUBCHEM_SHAPE_FINGERPRINT>
11132069 177 18341040913077185203
11206711 2 18334288734640146349
11543360 7 15719395074326816874
11680986 33 18119814857089650248
12032990 46 18411139177204576971
13288520 33 18341615897381289718
13862211 1 18410568483567916066
14115302 16 17967541211236929766
14911166 2 18335420170849491070
14993402 34 17531250556339021006
15196674 1 18338234971981956409
15536298 74 18342453802630369520
16945 1 18337380548652945489
17804303 29 18413107264289698385
1813 80 14764081055951182696
18186145 218 18040986393243837839
19141452 34 17847061112221784759
200 152 17918269857475867887
20300324 65 18409736136380647892
20645477 70 18341042034248363287
20871999 31 18336833009274225948
21029758 11 18413389847711044728
21267235 1 18410579513555427171
21501502 16 18118961391074070555
221490 88 18264212589372918954
23402539 116 18338233770140252094
23532345 42 18340194250869908304
23557571 272 18129951070329214340
23559900 14 18339640139948911680
2748010 2 18120088639663824091
3286 77 17346596421517365345
335352 9 18411136927216590741
7364860 26 18199466743860918112
8809292 202 18187928425815322579

> <PUBCHEM_SHAPE_MULTIPOLES>
289.52
8.51
1.86
0.69
6.6
0.53
-0.03
-3.39
-1.94
-0.81
0.05
0.33
-0.04
0.2

> <PUBCHEM_SHAPE_SELFOVERLAP>
609.549

> <PUBCHEM_SHAPE_VOLUME>
165

> <PUBCHEM_COORDINATE_TYPE>
2
5
10

$$$$
