128954
  -OEChem-03292013323D

 52 55  0     1  0  0  0  0  0999 V2000
    2.6525   -2.1390    1.2431 S   0  0  0  0  0  0  0  0  0  0  0  0
   -1.8282   -1.2478   -1.0358 S   0  0  0  0  0  0  0  0  0  0  0  0
    5.4972   -1.2466   -1.4750 O   0  0  0  0  0  0  0  0  0  0  0  0
    3.0298   -3.5245    1.4601 O   0  0  0  0  0  0  0  0  0  0  0  0
    2.9331   -1.1479    2.2656 O   0  0  0  0  0  0  0  0  0  0  0  0
    4.0912    1.5776   -0.9765 O   0  0  0  0  0  0  0  0  0  0  0  0
    0.4845    1.5515   -1.8584 O   0  0  0  0  0  0  0  0  0  0  0  0
   -6.1724   -2.3303    0.9021 O   0  0  0  0  0  0  0  0  0  0  0  0
   -7.2029    0.0386    0.4756 O   0  0  0  0  0  0  0  0  0  0  0  0
    2.6643   -0.2125   -0.4019 N   0  0  0  0  0  0  0  0  0  0  0  0
    0.9960    2.4369    0.2169 N   0  0  0  0  0  0  0  0  0  0  0  0
   -4.0193    0.3651   -1.0693 N   0  0  0  0  0  0  0  0  0  0  0  0
   -4.1314   -1.7673    0.0309 N   0  0  0  0  0  0  0  0  0  0  0  0
   -5.2916    0.7034   -0.6400 N   0  0  0  0  0  0  0  0  0  0  0  0
    3.2363   -1.5454   -0.3121 C   0  0  1  0  0  0  0  0  0  0  0  0
    4.6143   -0.8647   -0.4099 C   0  0  2  0  0  0  0  0  0  0  0  0
    3.8157    0.4357   -0.6907 C   0  0  0  0  0  0  0  0  0  0  0  0
    1.3439    0.0791   -0.2653 C   0  0  0  0  0  0  0  0  0  0  0  0
    0.8955   -2.0995    0.9438 C   0  0  0  0  0  0  0  0  0  0  0  0
    0.4752   -0.7861    0.3071 C   0  0  0  0  0  0  0  0  0  0  0  0
    0.9048    1.4168   -0.7096 C   0  0  0  0  0  0  0  0  0  0  0  0
   -1.0136   -0.5614    0.4157 C   0  0  0  0  0  0  0  0  0  0  0  0
    0.5881    3.7978   -0.1045 C   0  0  0  0  0  0  0  0  0  0  0  0
    1.4806    2.3532    1.5939 C   0  0  0  0  0  0  0  0  0  0  0  0
    0.5101    4.5013    1.2411 C   0  0  0  0  0  0  0  0  0  0  0  0
    1.5936    3.8015    2.0498 C   0  0  0  0  0  0  0  0  0  0  0  0
    6.1932   -2.4377   -1.1553 C   0  0  0  0  0  0  0  0  0  0  0  0
   -3.5120   -0.8487   -0.6426 C   0  0  0  0  0  0  0  0  0  0  0  0
   -3.3198    1.3885   -1.8243 C   0  0  0  0  0  0  0  0  0  0  0  0
   -5.4387   -1.5116    0.3567 C   0  0  0  0  0  0  0  0  0  0  0  0
   -6.0698   -0.1756    0.0684 C   0  0  0  0  0  0  0  0  0  0  0  0
    2.9692   -2.1898   -1.1570 H   0  0  0  0  0  0  0  0  0  0  0  0
    5.1565   -0.7854    0.5425 H   0  0  0  0  0  0  0  0  0  0  0  0
    0.4221   -2.2437    1.9204 H   0  0  0  0  0  0  0  0  0  0  0  0
    0.6457   -2.9429    0.2931 H   0  0  0  0  0  0  0  0  0  0  0  0
   -1.2487    0.5050    0.4894 H   0  0  0  0  0  0  0  0  0  0  0  0
   -1.4155   -1.0223    1.3247 H   0  0  0  0  0  0  0  0  0  0  0  0
   -0.3615    3.8035   -0.6479 H   0  0  0  0  0  0  0  0  0  0  0  0
    1.3639    4.2349   -0.7428 H   0  0  0  0  0  0  0  0  0  0  0  0
    2.4340    1.8220    1.6487 H   0  0  0  0  0  0  0  0  0  0  0  0
    0.7327    1.8071    2.1791 H   0  0  0  0  0  0  0  0  0  0  0  0
   -0.4690    4.3240    1.7023 H   0  0  0  0  0  0  0  0  0  0  0  0
    0.6635    5.5809    1.1625 H   0  0  0  0  0  0  0  0  0  0  0  0
    2.5768    4.2041    1.7775 H   0  0  0  0  0  0  0  0  0  0  0  0
    1.4639    3.9145    3.1296 H   0  0  0  0  0  0  0  0  0  0  0  0
    5.4934   -3.2607   -0.9808 H   0  0  0  0  0  0  0  0  0  0  0  0
    6.8252   -2.2891   -0.2743 H   0  0  0  0  0  0  0  0  0  0  0  0
    6.8341   -2.7012   -2.0010 H   0  0  0  0  0  0  0  0  0  0  0  0
   -5.6148    1.6344   -0.8796 H   0  0  0  0  0  0  0  0  0  0  0  0
   -2.8169    0.9591   -2.6968 H   0  0  0  0  0  0  0  0  0  0  0  0
   -2.5759    1.8864   -1.1942 H   0  0  0  0  0  0  0  0  0  0  0  0
   -4.0027    2.1570   -2.2042 H   0  0  0  0  0  0  0  0  0  0  0  0
  1  4  2  0  0  0  0
  1  5  2  0  0  0  0
  1 15  1  0  0  0  0
  1 19  1  0  0  0  0
  2 22  1  0  0  0  0
  2 28  1  0  0  0  0
  3 16  1  0  0  0  0
  3 27  1  0  0  0  0
  6 17  2  0  0  0  0
  7 21  2  0  0  0  0
  8 30  2  0  0  0  0
  9 31  2  0  0  0  0
 10 15  1  0  0  0  0
 10 17  1  0  0  0  0
 10 18  1  0  0  0  0
 11 21  1  0  0  0  0
 11 23  1  0  0  0  0
 11 24  1  0  0  0  0
 12 14  1  0  0  0  0
 12 28  1  0  0  0  0
 12 29  1  0  0  0  0
 13 28  2  0  0  0  0
 13 30  1  0  0  0  0
 14 31  1  0  0  0  0
 14 49  1  0  0  0  0
 15 16  1  0  0  0  0
 15 32  1  0  0  0  0
 16 17  1  0  0  0  0
 16 33  1  0  0  0  0
 18 20  2  0  0  0  0
 18 21  1  0  0  0  0
 19 20  1  0  0  0  0
 19 34  1  0  0  0  0
 19 35  1  0  0  0  0
 20 22  1  0  0  0  0
 22 36  1  0  0  0  0
 22 37  1  0  0  0  0
 23 25  1  0  0  0  0
 23 38  1  0  0  0  0
 23 39  1  0  0  0  0
 24 26  1  0  0  0  0
 24 40  1  0  0  0  0
 24 41  1  0  0  0  0
 25 26  1  0  0  0  0
 25 42  1  0  0  0  0
 25 43  1  0  0  0  0
 26 44  1  0  0  0  0
 26 45  1  0  0  0  0
 27 46  1  0  0  0  0
 27 47  1  0  0  0  0
 27 48  1  0  0  0  0
 29 50  1  0  0  0  0
 29 51  1  0  0  0  0
 29 52  1  0  0  0  0
 30 31  1  0  0  0  0
M  END
> <PUBCHEM_COMPOUND_CID>
128954

> <PUBCHEM_CONFORMER_RMSD>
1

> <PUBCHEM_CONFORMER_DIVERSEORDER>
1
37
24
41
17
20
33
36
21
14
40
38
18
13
5
6
45
30
23
12
7
49
35
19
44
34
22
29
16
42
27
47
26
28
25
48
15
4
32
11
43
31
9
8
3
10
2
39
46

> <PUBCHEM_MMFF94_PARTIAL_CHARGES>
30
1 1.1
10 -0.39
11 -0.66
12 -0.44
13 -0.66
14 -0.41
15 0.32
16 0.31
17 0.58
18 0.12
19 0.24
2 -0.37
20 -0.28
21 0.62
22 0.37
23 0.3
24 0.3
27 0.28
28 0.64
29 0.37
3 -0.54
30 0.78
31 0.63
4 -0.65
49 0.37
5 -0.65
6 -0.57
7 -0.57
8 -0.57
9 -0.57

> <PUBCHEM_EFFECTIVE_ROTOR_COUNT>
7.4

> <PUBCHEM_PHARMACOPHORE_FEATURES>
13
1 13 donor
1 14 donor
1 3 acceptor
1 4 acceptor
1 5 acceptor
1 6 acceptor
1 7 acceptor
1 8 acceptor
1 9 acceptor
4 10 15 16 17 rings
5 11 23 24 25 26 rings
6 1 10 15 18 19 20 rings
6 12 13 14 28 30 31 rings

> <PUBCHEM_HEAVY_ATOM_COUNT>
31

> <PUBCHEM_ATOM_DEF_STEREO_COUNT>
2

> <PUBCHEM_ATOM_UDEF_STEREO_COUNT>
0

> <PUBCHEM_BOND_DEF_STEREO_COUNT>
0

> <PUBCHEM_BOND_UDEF_STEREO_COUNT>
0

> <PUBCHEM_ISOTOPIC_ATOM_COUNT>
0

> <PUBCHEM_COMPONENT_COUNT>
1

> <PUBCHEM_CACTVS_TAUTO_COUNT>
2

> <PUBCHEM_CONFORMER_ID>
0001F7BA00000001

> <PUBCHEM_MMFF94_ENERGY>
76.5554

> <PUBCHEM_FEATURE_SELFOVERLAP>
66.253

> <PUBCHEM_SHAPE_FINGERPRINT>
12166972 35 18187655699391432588
12293681 160 18265914604168041644
12788726 201 18196367010065185038
13540713 5 17755590335390265898
13590594 115 18271536329226010305
14341114 176 18186243918525547983
14955137 171 18343025488499791823
15081414 286 18271521000561570496
15629462 23 18195544604947259067
17909252 39 18339922594078231554
17980427 26 17981866838482316692
18681886 176 18273213131418230323
20832881 197 18412830200318208168
221357 26 18335138696131159151
23559900 14 17967811700198896127
25147074 1 17754458950762603090
283562 15 18265624195601086050
345986 75 18263916640461747234
376196 1 16624047046782654568
5776283 40 17900275396210921260
5895379 119 16701203927042557057
6086070 43 18342446029515134469

> <PUBCHEM_SHAPE_MULTIPOLES>
579.67
13.37
4.47
1.68
17.91
5.26
-0.27
-10.3
2.12
-3.5
-2.31
-1
0.33
1.13

> <PUBCHEM_SHAPE_SELFOVERLAP>
1211.832

> <PUBCHEM_SHAPE_VOLUME>
331

> <PUBCHEM_COORDINATE_TYPE>
2
5
10

$$$$
