128980
  -OEChem-03292013323D

 46 49  0     1  0  0  0  0  0999 V2000
    2.2771    0.4433   -0.5531 O   0  0  0  0  0  0  0  0  0  0  0  0
    3.0521   -2.6451    1.2707 O   0  0  0  0  0  0  0  0  0  0  0  0
    5.6531   -1.4443    0.8412 O   0  0  0  0  0  0  0  0  0  0  0  0
    5.4727    1.4350    0.9545 O   0  0  0  0  0  0  0  0  0  0  0  0
    1.4759   -2.6178   -1.1207 O   0  0  0  0  0  0  0  0  0  0  0  0
    4.1583    3.3996   -0.4458 O   0  0  0  0  0  0  0  0  0  0  0  0
    2.7202    2.5060   -1.9720 O   0  0  0  0  0  0  0  0  0  0  0  0
    1.0024   -1.5177   -0.4392 N   0  0  3  0  0  0  0  0  0  0  0  0
    3.2891   -1.5581    0.3769 C   0  0  2  0  0  0  0  0  0  0  0  0
    4.4285   -0.7165    0.9528 C   0  0  2  0  0  0  0  0  0  0  0  0
    2.0147   -0.7242    0.2236 C   0  0  1  0  0  0  0  0  0  0  0  0
    4.5848    0.6069    0.2048 C   0  0  1  0  0  0  0  0  0  0  0  0
    3.2359    1.3021    0.0549 C   0  0  1  0  0  0  0  0  0  0  0  0
   -0.3767   -1.2163   -0.3857 C   0  0  0  0  0  0  0  0  0  0  0  0
   -2.1720    0.1592    0.3626 C   0  0  0  0  0  0  0  0  0  0  0  0
   -3.0977   -0.6674   -0.3130 C   0  0  0  0  0  0  0  0  0  0  0  0
   -2.8885    1.2938    1.0648 C   0  0  0  0  0  0  0  0  0  0  0  0
   -0.8135   -0.1031    0.3345 C   0  0  0  0  0  0  0  0  0  0  0  0
    3.3197    2.4408   -0.9091 C   0  0  0  0  0  0  0  0  0  0  0  0
   -4.4287   -0.1411   -0.1000 C   0  0  0  0  0  0  0  0  0  0  0  0
   -4.3335    1.0139    0.7083 C   0  0  0  0  0  0  0  0  0  0  0  0
   -1.2925   -2.0422   -1.0600 C   0  0  0  0  0  0  0  0  0  0  0  0
   -2.6640   -1.7718   -1.0273 C   0  0  0  0  0  0  0  0  0  0  0  0
   -5.6612   -0.5868   -0.5478 C   0  0  0  0  0  0  0  0  0  0  0  0
   -5.4568    1.7330    1.0772 C   0  0  0  0  0  0  0  0  0  0  0  0
   -6.8003    0.1353   -0.1786 C   0  0  0  0  0  0  0  0  0  0  0  0
   -6.6990    1.2835    0.6257 C   0  0  0  0  0  0  0  0  0  0  0  0
    3.6367   -1.9748   -0.5766 H   0  0  0  0  0  0  0  0  0  0  0  0
    4.2714   -0.5437    2.0251 H   0  0  0  0  0  0  0  0  0  0  0  0
    1.6765   -0.4383    1.2281 H   0  0  0  0  0  0  0  0  0  0  0  0
    5.0511    0.4313   -0.7723 H   0  0  0  0  0  0  0  0  0  0  0  0
    2.8399    1.6845    1.0037 H   0  0  0  0  0  0  0  0  0  0  0  0
   -2.5704    2.2602    0.6632 H   0  0  0  0  0  0  0  0  0  0  0  0
   -2.7381    1.2362    2.1467 H   0  0  0  0  0  0  0  0  0  0  0  0
   -0.1477    0.5707    0.8601 H   0  0  0  0  0  0  0  0  0  0  0  0
    2.7439   -2.2788    2.1171 H   0  0  0  0  0  0  0  0  0  0  0  0
    6.3595   -0.8820    1.2028 H   0  0  0  0  0  0  0  0  0  0  0  0
    5.0582    1.6206    1.8144 H   0  0  0  0  0  0  0  0  0  0  0  0
   -0.9563   -2.9097   -1.6231 H   0  0  0  0  0  0  0  0  0  0  0  0
   -3.3590   -2.4182   -1.5529 H   0  0  0  0  0  0  0  0  0  0  0  0
    1.3458   -3.3315   -0.4724 H   0  0  0  0  0  0  0  0  0  0  0  0
   -5.7553   -1.4710   -1.1693 H   0  0  0  0  0  0  0  0  0  0  0  0
   -5.3803    2.6190    1.6974 H   0  0  0  0  0  0  0  0  0  0  0  0
   -7.7787   -0.1948   -0.5178 H   0  0  0  0  0  0  0  0  0  0  0  0
   -7.5999    1.8269    0.8985 H   0  0  0  0  0  0  0  0  0  0  0  0
    4.2284    4.1562   -1.0662 H   0  0  0  0  0  0  0  0  0  0  0  0
  1 11  1  0  0  0  0
  1 13  1  0  0  0  0
  2  9  1  0  0  0  0
  2 36  1  0  0  0  0
  3 10  1  0  0  0  0
  3 37  1  0  0  0  0
  4 12  1  0  0  0  0
  4 38  1  0  0  0  0
  5  8  1  0  0  0  0
  5 41  1  0  0  0  0
  6 19  1  0  0  0  0
  6 46  1  0  0  0  0
  7 19  2  0  0  0  0
  8 11  1  0  0  0  0
  8 14  1  0  0  0  0
  9 10  1  0  0  0  0
  9 11  1  0  0  0  0
  9 28  1  0  0  0  0
 10 12  1  0  0  0  0
 10 29  1  0  0  0  0
 11 30  1  0  0  0  0
 12 13  1  0  0  0  0
 12 31  1  0  0  0  0
 13 19  1  0  0  0  0
 13 32  1  0  0  0  0
 14 18  2  0  0  0  0
 14 22  1  0  0  0  0
 15 16  2  0  0  0  0
 15 17  1  0  0  0  0
 15 18  1  0  0  0  0
 16 20  1  0  0  0  0
 16 23  1  0  0  0  0
 17 21  1  0  0  0  0
 17 33  1  0  0  0  0
 17 34  1  0  0  0  0
 18 35  1  0  0  0  0
 20 21  1  0  0  0  0
 20 24  2  0  0  0  0
 21 25  2  0  0  0  0
 22 23  2  0  0  0  0
 22 39  1  0  0  0  0
 23 40  1  0  0  0  0
 24 26  1  0  0  0  0
 24 42  1  0  0  0  0
 25 27  1  0  0  0  0
 25 43  1  0  0  0  0
 26 27  2  0  0  0  0
 26 44  1  0  0  0  0
 27 45  1  0  0  0  0
M  END
> <PUBCHEM_COMPOUND_CID>
128980

> <PUBCHEM_CONFORMER_RMSD>
0.8

> <PUBCHEM_CONFORMER_DIVERSEORDER>
1
26
5
27
34
2
44
40
7
12
53
52
43
39
51
19
46
4
22
28
45
10
11
42
14
29
37
30
41
3
35
23
25
21
50
6
48
54
49
24
18
36
8
20
32
47
31
9
17
33
13
38
15
16

> <PUBCHEM_MMFF94_PARTIAL_CHARGES>
37
1 -0.56
10 0.28
11 0.65
12 0.28
13 0.34
14 0.1
15 -0.14
17 0.29
18 -0.15
19 0.66
2 -0.68
21 -0.14
22 -0.15
23 -0.15
24 -0.15
25 -0.15
26 -0.15
27 -0.15
3 -0.68
35 0.15
36 0.4
37 0.4
38 0.4
39 0.15
4 -0.68
40 0.15
41 0.4
42 0.15
43 0.15
44 0.15
45 0.15
46 0.5
5 -0.38
6 -0.65
7 -0.57
8 -0.49
9 0.28

> <PUBCHEM_EFFECTIVE_ROTOR_COUNT>
4.4

> <PUBCHEM_PHARMACOPHORE_FEATURES>
15
1 1 acceptor
1 2 acceptor
1 2 donor
1 3 acceptor
1 3 donor
1 4 acceptor
1 4 donor
1 5 anion
1 6 acceptor
1 7 acceptor
3 6 7 19 anion
5 15 16 17 20 21 rings
6 1 9 10 11 12 13 rings
6 14 15 16 18 22 23 rings
6 20 21 24 25 26 27 rings

> <PUBCHEM_HEAVY_ATOM_COUNT>
27

> <PUBCHEM_ATOM_DEF_STEREO_COUNT>
5

> <PUBCHEM_ATOM_UDEF_STEREO_COUNT>
0

> <PUBCHEM_BOND_DEF_STEREO_COUNT>
0

> <PUBCHEM_BOND_UDEF_STEREO_COUNT>
0

> <PUBCHEM_ISOTOPIC_ATOM_COUNT>
0

> <PUBCHEM_COMPONENT_COUNT>
1

> <PUBCHEM_CACTVS_TAUTO_COUNT>
1

> <PUBCHEM_CONFORMER_ID>
0001F7D400000001

> <PUBCHEM_MMFF94_ENERGY>
90.6142

> <PUBCHEM_FEATURE_SELFOVERLAP>
76.373

> <PUBCHEM_SHAPE_FINGERPRINT>
10670039 82 17774458091470266496
10688039 33 17458340797756017892
10763959 59 18187644639782112597
10906281 52 17917446298404266771
10937287 8 17466522517382160924
11045977 3 17603594036042570795
11724838 91 18412258454493544607
12107183 9 18339917122268829962
12107698 1 18113614538958497168
12166972 35 18271244920026334464
12236239 1 18341608218095964843
12422481 6 18040152899227651077
12596602 18 18186802496154770131
12616971 3 18410006646121391663
12633257 1 17386276701411312432
12788726 201 17632589235978466361
13167372 99 18412262801026913097
13533116 47 17822570478350025795
13583140 156 17604419688061106535
13782708 43 16009021744457417210
13785724 45 17907860604887514786
14251764 75 18118132604257741148
14528608 73 18271812345515207869
14739800 52 17986661783100943096
14767858 380 17988067981626959935
14790565 3 18272939315116833561
15142526 21 18188490314547526274
15348495 7 17531256084215151849
15475509 8 18340218419162573022
17810953 82 18411421721918502588
18681886 176 18131066035360396410
19377110 9 18201731639345848299
20157964 124 18334857216822466603
20511986 3 18270384058124569481
20715895 44 18052537669427870353
21033648 144 18115579482232618134
21033648 29 16515671260954984221
21033650 10 16342884077896499521
21298829 104 18340485668369647320
21859007 373 17460021891416743045
22149856 69 17631750296533960851
23559900 14 17631181792233050407
23569917 315 18201441363671139703
245318 6 18190194540443892789
25147074 1 18342444985041619959
3004659 81 18272373040283543210
3472631 163 17989207096278279388
34797466 226 15267054878996223705
3680242 22 18413112736120387737
38570 142 18044115633802537516
397830 11 17313962930012744209
4073 2 18187087290387274867
4409770 3 16104748216195641734
474 4 18261392286413448242
5104073 3 18187644759972579747
513532 50 17918005957848497500
57724786 102 17822579420751361380
6058803 2 18121485020101623422
67856867 119 18411135844452347665
7970288 3 9365977028874033988
86090 222 15937258772243672778

> <PUBCHEM_SHAPE_MULTIPOLES>
509.58
15.65
2.85
1.18
10.17
0.67
0.17
6.12
-3.16
-3.31
0.7
-0.57
0.17
-2.59

> <PUBCHEM_SHAPE_SELFOVERLAP>
1124.652

> <PUBCHEM_SHAPE_VOLUME>
273.9

> <PUBCHEM_COORDINATE_TYPE>
2
5
10

$$$$
