128909
  -OEChem-03292013323D

 31 33  0     1  0  0  0  0  0999 V2000
    2.3207    0.0178    0.8850 O   0  0  0  0  0  0  0  0  0  0  0  0
    2.6411   -1.6348   -1.6249 O   0  0  0  0  0  0  0  0  0  0  0  0
    4.8357    0.9416    1.7218 O   0  0  0  0  0  0  0  0  0  0  0  0
   -3.8451    0.5063   -0.0007 O   0  0  0  0  0  0  0  0  0  0  0  0
   -4.1814   -1.7237    0.3779 O   0  0  0  0  0  0  0  0  0  0  0  0
    0.0717   -0.2481    0.1624 N   0  0  0  0  0  0  0  0  0  0  0  0
   -1.2337   -2.0440    0.4579 N   0  0  0  0  0  0  0  0  0  0  0  0
   -1.6307    1.4447   -0.1420 N   0  0  0  0  0  0  0  0  0  0  0  0
   -3.5922    2.7291   -0.3792 N   0  0  0  0  0  0  0  0  0  0  0  0
    1.2921    0.5531    0.0360 C   0  0  2  0  0  0  0  0  0  0  0  0
    3.0458   -0.2982   -1.3453 C   0  0  1  0  0  0  0  0  0  0  0  0
    1.8418    0.6167   -1.3865 C   0  0  0  0  0  0  0  0  0  0  0  0
    3.5058   -0.2146    0.1016 C   0  0  1  0  0  0  0  0  0  0  0  0
    4.4723    0.9368    0.3508 C   0  0  0  0  0  0  0  0  0  0  0  0
   -1.2190    0.1867    0.0770 C   0  0  0  0  0  0  0  0  0  0  0  0
    0.0082   -1.6035    0.3939 C   0  0  0  0  0  0  0  0  0  0  0  0
   -1.9871   -0.9253    0.2604 C   0  0  0  0  0  0  0  0  0  0  0  0
   -3.4088   -0.7863    0.2243 C   0  0  0  0  0  0  0  0  0  0  0  0
   -2.9369    1.5458   -0.1705 C   0  0  0  0  0  0  0  0  0  0  0  0
    1.0435    1.5549    0.4045 H   0  0  0  0  0  0  0  0  0  0  0  0
    3.8148   -0.0233   -2.0731 H   0  0  0  0  0  0  0  0  0  0  0  0
    2.1727    1.6421   -1.5906 H   0  0  0  0  0  0  0  0  0  0  0  0
    1.1055    0.3392   -2.1475 H   0  0  0  0  0  0  0  0  0  0  0  0
    3.9418   -1.1548    0.4573 H   0  0  0  0  0  0  0  0  0  0  0  0
    4.0115    1.9061    0.1370 H   0  0  0  0  0  0  0  0  0  0  0  0
    5.3797    0.8379   -0.2527 H   0  0  0  0  0  0  0  0  0  0  0  0
    0.8920   -2.2161    0.5084 H   0  0  0  0  0  0  0  0  0  0  0  0
    3.4297   -2.1993   -1.5538 H   0  0  0  0  0  0  0  0  0  0  0  0
    5.2815    0.0985    1.9115 H   0  0  0  0  0  0  0  0  0  0  0  0
   -4.6052    2.7743   -0.3954 H   0  0  0  0  0  0  0  0  0  0  0  0
   -3.0832    3.5944   -0.5226 H   0  0  0  0  0  0  0  0  0  0  0  0
  1 10  1  0  0  0  0
  1 13  1  0  0  0  0
  2 11  1  0  0  0  0
  2 28  1  0  0  0  0
  3 14  1  0  0  0  0
  3 29  1  0  0  0  0
  4 18  1  0  0  0  0
  4 19  1  0  0  0  0
  5 18  2  0  0  0  0
  6 10  1  0  0  0  0
  6 15  1  0  0  0  0
  6 16  1  0  0  0  0
  7 16  2  0  0  0  0
  7 17  1  0  0  0  0
  8 15  1  0  0  0  0
  8 19  2  0  0  0  0
  9 19  1  0  0  0  0
  9 30  1  0  0  0  0
  9 31  1  0  0  0  0
 10 12  1  0  0  0  0
 10 20  1  0  0  0  0
 11 12  1  0  0  0  0
 11 13  1  0  0  0  0
 11 21  1  0  0  0  0
 12 22  1  0  0  0  0
 12 23  1  0  0  0  0
 13 14  1  0  0  0  0
 13 24  1  0  0  0  0
 14 25  1  0  0  0  0
 14 26  1  0  0  0  0
 15 17  2  0  0  0  0
 16 27  1  0  0  0  0
 17 18  1  0  0  0  0
M  END
> <PUBCHEM_COMPOUND_CID>
128909

> <PUBCHEM_CONFORMER_RMSD>
0.6

> <PUBCHEM_CONFORMER_DIVERSEORDER>
1
9
15
13
4
5
6
10
14
3
11
8
16
2
7
12

> <PUBCHEM_MMFF94_PARTIAL_CHARGES>
23
1 -0.56
10 0.54
11 0.28
13 0.28
14 0.28
15 -0.03
16 0.04
17 0.14
18 0.81
19 0.65
2 -0.68
27 0.15
28 0.4
29 0.4
3 -0.68
30 0.4
31 0.4
4 -0.3
5 -0.57
6 0.05
7 -0.57
8 -0.58
9 -0.85

> <PUBCHEM_EFFECTIVE_ROTOR_COUNT>
3

> <PUBCHEM_PHARMACOPHORE_FEATURES>
12
1 1 acceptor
1 2 acceptor
1 2 donor
1 3 acceptor
1 3 donor
1 5 acceptor
1 9 donor
3 6 7 16 cation
3 8 9 19 cation
5 1 10 11 12 13 rings
5 6 7 15 16 17 rings
6 4 8 15 17 18 19 rings

> <PUBCHEM_HEAVY_ATOM_COUNT>
19

> <PUBCHEM_ATOM_DEF_STEREO_COUNT>
3

> <PUBCHEM_ATOM_UDEF_STEREO_COUNT>
0

> <PUBCHEM_BOND_DEF_STEREO_COUNT>
0

> <PUBCHEM_BOND_UDEF_STEREO_COUNT>
0

> <PUBCHEM_ISOTOPIC_ATOM_COUNT>
0

> <PUBCHEM_COMPONENT_COUNT>
1

> <PUBCHEM_CACTVS_TAUTO_COUNT>
3

> <PUBCHEM_CONFORMER_ID>
0001F78D00000001

> <PUBCHEM_MMFF94_ENERGY>
44.6197

> <PUBCHEM_FEATURE_SELFOVERLAP>
61.039

> <PUBCHEM_SHAPE_FINGERPRINT>
10319926 262 18338781370033415458
10498660 4 18335139735339613069
10608611 8 18413672404724030260
10646746 165 18410856534176122828
10922523 26 18342748389952272631
11132069 177 18334017164121829189
12173636 292 18336546010980037909
12236239 1 17313099774044321240
12403259 415 18272940405589958228
12507560 40 18342173371789361730
12788726 201 17100051941664304306
12916748 109 18334863813886965121
13140716 1 17974014143627237147
13581323 91 18334574680857055958
13965767 371 17607237654326525876
14178342 30 18186516614135567954
14739800 52 18045218500006129516
15042514 8 18190184675315762587
15219456 202 18131354094189370054
15375358 24 18272930540113311432
15536298 74 18337390435710190162
16752209 62 18333732429338767835
16945 1 18261683657126788083
1741750 31 18267305327125615641
18186145 218 18201170844679992876
19026448 4 18130792235062702964
19049666 15 18129390314893058482
200 152 15140952993627717595
20279233 1 18201726167040684310
20510252 161 18413675712070362209
20645477 56 18412549803489253601
20645477 70 17131558236872477926
20671657 1 17903074426465431731
21065201 7 18335707113472563286
22943178 12 18272939288708583478
23402539 116 18337662131088397175
23557571 272 18341059579126502676
23559900 14 18342181004056977886
296302 2 16988847210917978186
3268164 11 18410848880728842797
43471831 8 18186800249412575227
495365 180 17774147999479474590
5104073 3 18410576141283284322
573450 72 18040707069840150816
69090 78 18131350842704364071
77492 1 17240489117025469828
9709674 26 18340215162591412414
9862522 239 17387679527703466701

> <PUBCHEM_SHAPE_MULTIPOLES>
341.74
8.63
1.98
1.12
2.45
0.31
-0.16
1.99
1.41
-2.19
-0.09
1.59
-0.03
1.06

> <PUBCHEM_SHAPE_SELFOVERLAP>
746.273

> <PUBCHEM_SHAPE_VOLUME>
184.2

> <PUBCHEM_COORDINATE_TYPE>
2
5
10

$$$$
