128924
  -OEChem-03292013323D

 32 34  0     1  0  0  0  0  0999 V2000
    3.8897   -2.8847   -0.4860 S   0  0  0  0  0  0  0  0  0  0  0  0
    2.0085   -0.4948   -0.9206 O   0  0  0  0  0  0  0  0  0  0  0  0
    1.1674    2.3242    1.1448 O   0  0  0  0  0  0  0  0  0  0  0  0
    3.3705    2.1908   -0.4407 O   0  0  0  0  0  0  0  0  0  0  0  0
   -0.2126   -0.2467   -0.1236 N   0  0  0  0  0  0  0  0  0  0  0  0
   -1.6193   -1.8868    0.4327 N   0  0  0  0  0  0  0  0  0  0  0  0
   -1.8066    1.5280   -0.5837 N   0  0  0  0  0  0  0  0  0  0  0  0
   -4.1019    0.7686   -0.2504 N   0  0  0  0  0  0  0  0  0  0  0  0
   -4.6298   -1.4597    0.4450 N   0  0  0  0  0  0  0  0  0  0  0  0
    1.6951    1.0472    0.8493 C   0  0  1  0  0  0  0  0  0  0  0  0
    1.0504    0.4391   -0.3869 C   0  0  1  0  0  0  0  0  0  0  0  0
    3.1541    1.0879    0.4395 C   0  0  1  0  0  0  0  0  0  0  0  0
    3.3064   -0.2085   -0.3499 C   0  0  1  0  0  0  0  0  0  0  0  0
    3.7190   -1.3878    0.5198 C   0  0  0  0  0  0  0  0  0  0  0  0
   -1.4700    0.2802   -0.2242 C   0  0  0  0  0  0  0  0  0  0  0  0
   -0.3562   -1.5510    0.2736 C   0  0  0  0  0  0  0  0  0  0  0  0
   -2.3264   -0.7517    0.1250 C   0  0  0  0  0  0  0  0  0  0  0  0
   -3.6892   -0.4724    0.1037 C   0  0  0  0  0  0  0  0  0  0  0  0
   -3.1489    1.6782   -0.5674 C   0  0  0  0  0  0  0  0  0  0  0  0
    1.5631    0.4019    1.7255 H   0  0  0  0  0  0  0  0  0  0  0  0
    0.8483    1.1885   -1.1621 H   0  0  0  0  0  0  0  0  0  0  0  0
    3.8397    1.1943    1.2850 H   0  0  0  0  0  0  0  0  0  0  0  0
    4.0108   -0.0799   -1.1807 H   0  0  0  0  0  0  0  0  0  0  0  0
    2.9692   -1.5972    1.2892 H   0  0  0  0  0  0  0  0  0  0  0  0
    4.6748   -1.1891    1.0143 H   0  0  0  0  0  0  0  0  0  0  0  0
    1.3359    2.9031    0.3820 H   0  0  0  0  0  0  0  0  0  0  0  0
    4.3034    2.1653   -0.7138 H   0  0  0  0  0  0  0  0  0  0  0  0
    0.4871   -2.2078    0.4373 H   0  0  0  0  0  0  0  0  0  0  0  0
    4.2391   -3.7033    0.5171 H   0  0  0  0  0  0  0  0  0  0  0  0
   -3.5150    2.6607   -0.8457 H   0  0  0  0  0  0  0  0  0  0  0  0
   -4.3244   -2.3866    0.7093 H   0  0  0  0  0  0  0  0  0  0  0  0
   -5.6145   -1.2323    0.4217 H   0  0  0  0  0  0  0  0  0  0  0  0
  1 14  1  0  0  0  0
  1 29  1  0  0  0  0
  2 11  1  0  0  0  0
  2 13  1  0  0  0  0
  3 10  1  0  0  0  0
  3 26  1  0  0  0  0
  4 12  1  0  0  0  0
  4 27  1  0  0  0  0
  5 11  1  0  0  0  0
  5 15  1  0  0  0  0
  5 16  1  0  0  0  0
  6 16  2  0  0  0  0
  6 17  1  0  0  0  0
  7 15  2  0  0  0  0
  7 19  1  0  0  0  0
  8 18  1  0  0  0  0
  8 19  2  0  0  0  0
  9 18  1  0  0  0  0
  9 31  1  0  0  0  0
  9 32  1  0  0  0  0
 10 11  1  0  0  0  0
 10 12  1  0  0  0  0
 10 20  1  0  0  0  0
 11 21  1  0  0  0  0
 12 13  1  0  0  0  0
 12 22  1  0  0  0  0
 13 14  1  0  0  0  0
 13 23  1  0  0  0  0
 14 24  1  0  0  0  0
 14 25  1  0  0  0  0
 15 17  1  0  0  0  0
 16 28  1  0  0  0  0
 17 18  2  0  0  0  0
 19 30  1  0  0  0  0
M  END
> <PUBCHEM_COMPOUND_CID>
128924

> <PUBCHEM_CONFORMER_RMSD>
0.6

> <PUBCHEM_CONFORMER_DIVERSEORDER>
3
6
20
1
18
17
15
4
5
8
2
12
24
23
10
21
22
9
13
14
19
11
25
16
7
26

> <PUBCHEM_MMFF94_PARTIAL_CHARGES>
26
1 -0.41
10 0.28
11 0.54
12 0.28
13 0.28
14 0.23
15 0.11
16 0.04
17 0.23
18 0.41
19 0.47
2 -0.56
26 0.4
27 0.4
28 0.15
29 0.18
3 -0.68
30 0.15
31 0.4
32 0.4
4 -0.68
5 0.05
6 -0.57
7 -0.57
8 -0.62
9 -0.9

> <PUBCHEM_EFFECTIVE_ROTOR_COUNT>
3

> <PUBCHEM_PHARMACOPHORE_FEATURES>
13
1 2 acceptor
1 3 acceptor
1 3 donor
1 4 acceptor
1 4 donor
1 9 cation
1 9 donor
3 5 6 16 cation
3 5 7 15 cation
3 7 8 19 cation
5 2 10 11 12 13 rings
5 5 6 15 16 17 rings
6 7 8 15 17 18 19 rings

> <PUBCHEM_HEAVY_ATOM_COUNT>
19

> <PUBCHEM_ATOM_DEF_STEREO_COUNT>
4

> <PUBCHEM_ATOM_UDEF_STEREO_COUNT>
0

> <PUBCHEM_BOND_DEF_STEREO_COUNT>
0

> <PUBCHEM_BOND_UDEF_STEREO_COUNT>
0

> <PUBCHEM_ISOTOPIC_ATOM_COUNT>
0

> <PUBCHEM_COMPONENT_COUNT>
1

> <PUBCHEM_CACTVS_TAUTO_COUNT>
3

> <PUBCHEM_CONFORMER_ID>
0001F79C00000003

> <PUBCHEM_MMFF94_ENERGY>
45.7189

> <PUBCHEM_FEATURE_SELFOVERLAP>
66.589

> <PUBCHEM_SHAPE_FINGERPRINT>
10608611 8 18410570721003043749
1100329 8 16394085813303664762
11405975 8 18340771442597376817
11578080 2 14188459114623002130
12403259 226 18410852153330501989
12403259 415 18260827068896759885
12507560 14 18059573547033052118
13134695 92 17702648974554888344
13675066 3 18271232838199018882
14866123 147 16973932018039549786
15196674 1 18408603665047352237
15219456 202 18413386557386112349
15442244 35 18339361851521300120
15536298 74 18409444769693724226
16945 1 18194393622430958927
17492 89 18410011052468563775
17804303 29 18335424517219355086
18186145 218 18341900653644488061
19049666 15 18411697686209183208
19591789 44 18408603639225359715
200 152 17703781505880322727
20510252 161 18410012161033719857
20645477 70 18411419509978774646
21501502 16 18340762753704450646
221490 88 18409173203280437898
23402539 116 18338227284771543487
23419403 2 17340368607976267848
23559900 14 18411133611375139884
3004659 81 17970074332116086278
3286 77 18412823577504940319
335352 9 18193838141705344581
350125 39 18263367988802652421
474 4 16082787056547932020
5104073 3 18409449180788382481
633830 44 18260540113457201463
69090 78 18271803570770532071
7364860 26 18411701006783379238
77779 3 18408041809957209021
9709674 26 18408045130014921290

> <PUBCHEM_SHAPE_MULTIPOLES>
352.35
8.38
2.57
0.85
2.2
0.23
0.04
2.47
-0.34
-1.84
0.12
-0.26
-0.14
0.91

> <PUBCHEM_SHAPE_SELFOVERLAP>
754.424

> <PUBCHEM_SHAPE_VOLUME>
198.7

> <PUBCHEM_COORDINATE_TYPE>
2
5
10

$$$$
