128920
  -OEChem-03292013323D

 81 85  0     1  0  0  0  0  0999 V2000
   -3.1361    1.0603   -0.1885 O   0  0  0  0  0  0  0  0  0  0  0  0
    6.9128    1.1083   -1.6886 O   0  0  0  0  0  0  0  0  0  0  0  0
   -4.3596   -0.7803    0.5623 O   0  0  0  0  0  0  0  0  0  0  0  0
   -5.3903    1.9184   -1.6886 O   0  0  0  0  0  0  0  0  0  0  0  0
   -7.1509   -0.2477   -2.4463 O   0  0  0  0  0  0  0  0  0  0  0  0
   -5.7125   -2.3758   -1.3828 O   0  0  0  0  0  0  0  0  0  0  0  0
    3.0231   -1.7196   -1.1497 N   0  0  0  0  0  0  0  0  0  0  0  0
    3.4736   -1.0500    0.0957 C   0  0  1  0  0  0  0  0  0  0  0  0
    4.5206    0.0790   -0.1963 C   0  0  1  0  0  0  0  0  0  0  0  0
    2.2601   -0.4730    0.8656 C   0  0  1  0  0  0  0  0  0  0  0  0
    1.5842    0.6868    0.0498 C   0  0  1  0  0  0  0  0  0  0  0  0
    0.3735    1.3264    0.8362 C   0  0  2  0  0  0  0  0  0  0  0  0
    5.6777   -0.7550   -0.8109 C   0  0  2  0  0  0  0  0  0  0  0  0
    3.8813    1.1276   -1.1201 C   0  0  0  0  0  0  0  0  0  0  0  0
   -0.6203    0.1722    1.1862 C   0  0  1  0  0  0  0  0  0  0  0  0
    2.6064    1.7266   -0.4926 C   0  0  0  0  0  0  0  0  0  0  0  0
    4.3482   -2.0889    0.8126 C   0  0  0  0  0  0  0  0  0  0  0  0
    1.2283   -1.5385    1.2803 C   0  0  0  0  0  0  0  0  0  0  0  0
    5.7066   -2.0310    0.0728 C   0  0  0  0  0  0  0  0  0  0  0  0
    0.0380   -0.9320    2.0225 C   0  0  0  0  0  0  0  0  0  0  0  0
   -0.3842    2.3437   -0.0638 C   0  0  0  0  0  0  0  0  0  0  0  0
    5.0404    0.8146    1.0782 C   0  0  0  0  0  0  0  0  0  0  0  0
   -1.9175    0.6748    1.8435 C   0  0  0  0  0  0  0  0  0  0  0  0
    0.8662    2.0706    2.1049 C   0  0  0  0  0  0  0  0  0  0  0  0
    7.0393   -0.0798   -0.9149 C   0  0  1  0  0  0  0  0  0  0  0  0
   -1.6955    2.8495    0.5508 C   0  0  0  0  0  0  0  0  0  0  0  0
   -2.6256    1.7143    0.9734 C   0  0  1  0  0  0  0  0  0  0  0  0
    8.0729   -0.9898   -1.5585 C   0  0  0  0  0  0  0  0  0  0  0  0
   -4.4471    0.5449    0.0405 C   0  0  2  0  0  0  0  0  0  0  0  0
   -5.1973    0.5604   -1.2933 C   0  0  1  0  0  0  0  0  0  0  0  0
   -6.5581   -0.1219   -1.1566 C   0  0  2  0  0  0  0  0  0  0  0  0
   -5.6409   -1.3727    0.8097 C   0  0  1  0  0  0  0  0  0  0  0  0
   -6.4197   -1.4980   -0.5044 C   0  0  2  0  0  0  0  0  0  0  0  0
   -5.3975   -2.7243    1.4707 C   0  0  0  0  0  0  0  0  0  0  0  0
    2.6385   -0.0619    1.8067 H   0  0  0  0  0  0  0  0  0  0  0  0
    1.1448    0.2234   -0.8463 H   0  0  0  0  0  0  0  0  0  0  0  0
    5.3987   -1.0323   -1.8368 H   0  0  0  0  0  0  0  0  0  0  0  0
    3.6424    0.7066   -2.1030 H   0  0  0  0  0  0  0  0  0  0  0  0
    4.5783    1.9498   -1.3184 H   0  0  0  0  0  0  0  0  0  0  0  0
   -0.9203   -0.3005    0.2380 H   0  0  0  0  0  0  0  0  0  0  0  0
    2.9060    2.4136    0.3043 H   0  0  0  0  0  0  0  0  0  0  0  0
    2.1234    2.3483   -1.2559 H   0  0  0  0  0  0  0  0  0  0  0  0
    3.9284   -3.1015    0.7925 H   0  0  0  0  0  0  0  0  0  0  0  0
    4.4836   -1.8309    1.8695 H   0  0  0  0  0  0  0  0  0  0  0  0
    1.7027   -2.2883    1.9240 H   0  0  0  0  0  0  0  0  0  0  0  0
    0.8561   -2.0715    0.3970 H   0  0  0  0  0  0  0  0  0  0  0  0
    6.5197   -2.0129    0.8072 H   0  0  0  0  0  0  0  0  0  0  0  0
    5.8469   -2.9207   -0.5515 H   0  0  0  0  0  0  0  0  0  0  0  0
   -0.6891   -1.7279    2.2253 H   0  0  0  0  0  0  0  0  0  0  0  0
    0.3568   -0.5484    2.9981 H   0  0  0  0  0  0  0  0  0  0  0  0
   -0.6080    1.8784   -1.0328 H   0  0  0  0  0  0  0  0  0  0  0  0
    0.2480    3.2138   -0.2776 H   0  0  0  0  0  0  0  0  0  0  0  0
    4.2420    1.2708    1.6682 H   0  0  0  0  0  0  0  0  0  0  0  0
    5.5915    0.1530    1.7535 H   0  0  0  0  0  0  0  0  0  0  0  0
    5.7176    1.6325    0.8059 H   0  0  0  0  0  0  0  0  0  0  0  0
   -2.5698   -0.1800    2.0446 H   0  0  0  0  0  0  0  0  0  0  0  0
   -1.6955    1.1133    2.8232 H   0  0  0  0  0  0  0  0  0  0  0  0
    3.7738   -2.2036   -1.6334 H   0  0  0  0  0  0  0  0  0  0  0  0
    2.6183   -1.0575   -1.8053 H   0  0  0  0  0  0  0  0  0  0  0  0
    1.4704    2.9455    1.8439 H   0  0  0  0  0  0  0  0  0  0  0  0
    0.0410    2.4432    2.7178 H   0  0  0  0  0  0  0  0  0  0  0  0
    1.4740    1.4399    2.7576 H   0  0  0  0  0  0  0  0  0  0  0  0
    7.4112    0.2084    0.0741 H   0  0  0  0  0  0  0  0  0  0  0  0
   -1.4773    3.4889    1.4134 H   0  0  0  0  0  0  0  0  0  0  0  0
   -2.2013    3.4797   -0.1911 H   0  0  0  0  0  0  0  0  0  0  0  0
   -3.4393    2.1739    1.5483 H   0  0  0  0  0  0  0  0  0  0  0  0
    9.0274   -0.4634   -1.6697 H   0  0  0  0  0  0  0  0  0  0  0  0
    8.2520   -1.8938   -0.9696 H   0  0  0  0  0  0  0  0  0  0  0  0
    7.7628   -1.2836   -2.5675 H   0  0  0  0  0  0  0  0  0  0  0  0
    7.7871    1.5326   -1.7224 H   0  0  0  0  0  0  0  0  0  0  0  0
   -4.9940    1.1803    0.7504 H   0  0  0  0  0  0  0  0  0  0  0  0
   -4.6070    0.0784   -2.0823 H   0  0  0  0  0  0  0  0  0  0  0  0
   -7.2301    0.5040   -0.5562 H   0  0  0  0  0  0  0  0  0  0  0  0
   -6.1914   -0.7363    1.5144 H   0  0  0  0  0  0  0  0  0  0  0  0
   -7.4073   -1.9409   -0.3341 H   0  0  0  0  0  0  0  0  0  0  0  0
   -4.5123    2.3338   -1.7398 H   0  0  0  0  0  0  0  0  0  0  0  0
   -6.3391   -3.2454    1.6679 H   0  0  0  0  0  0  0  0  0  0  0  0
   -4.7595   -3.3654    0.8530 H   0  0  0  0  0  0  0  0  0  0  0  0
   -4.8697   -2.5888    2.4212 H   0  0  0  0  0  0  0  0  0  0  0  0
   -7.2023    0.6437   -2.8316 H   0  0  0  0  0  0  0  0  0  0  0  0
   -6.2037   -2.4037   -2.2215 H   0  0  0  0  0  0  0  0  0  0  0  0
  1 27  1  0  0  0  0
  1 29  1  0  0  0  0
  2 25  1  0  0  0  0
  2 70  1  0  0  0  0
  3 29  1  0  0  0  0
  3 32  1  0  0  0  0
  4 30  1  0  0  0  0
  4 76  1  0  0  0  0
  5 31  1  0  0  0  0
  5 80  1  0  0  0  0
  6 33  1  0  0  0  0
  6 81  1  0  0  0  0
  7  8  1  0  0  0  0
  7 58  1  0  0  0  0
  7 59  1  0  0  0  0
  8  9  1  0  0  0  0
  8 10  1  0  0  0  0
  8 17  1  0  0  0  0
  9 13  1  0  0  0  0
  9 14  1  0  0  0  0
  9 22  1  0  0  0  0
 10 11  1  0  0  0  0
 10 18  1  0  0  0  0
 10 35  1  0  0  0  0
 11 12  1  0  0  0  0
 11 16  1  0  0  0  0
 11 36  1  0  0  0  0
 12 15  1  0  0  0  0
 12 21  1  0  0  0  0
 12 24  1  0  0  0  0
 13 19  1  0  0  0  0
 13 25  1  0  0  0  0
 13 37  1  0  0  0  0
 14 16  1  0  0  0  0
 14 38  1  0  0  0  0
 14 39  1  0  0  0  0
 15 20  1  0  0  0  0
 15 23  1  0  0  0  0
 15 40  1  0  0  0  0
 16 41  1  0  0  0  0
 16 42  1  0  0  0  0
 17 19  1  0  0  0  0
 17 43  1  0  0  0  0
 17 44  1  0  0  0  0
 18 20  1  0  0  0  0
 18 45  1  0  0  0  0
 18 46  1  0  0  0  0
 19 47  1  0  0  0  0
 19 48  1  0  0  0  0
 20 49  1  0  0  0  0
 20 50  1  0  0  0  0
 21 26  1  0  0  0  0
 21 51  1  0  0  0  0
 21 52  1  0  0  0  0
 22 53  1  0  0  0  0
 22 54  1  0  0  0  0
 22 55  1  0  0  0  0
 23 27  1  0  0  0  0
 23 56  1  0  0  0  0
 23 57  1  0  0  0  0
 24 60  1  0  0  0  0
 24 61  1  0  0  0  0
 24 62  1  0  0  0  0
 25 28  1  0  0  0  0
 25 63  1  0  0  0  0
 26 27  1  0  0  0  0
 26 64  1  0  0  0  0
 26 65  1  0  0  0  0
 27 66  1  0  0  0  0
 28 67  1  0  0  0  0
 28 68  1  0  0  0  0
 28 69  1  0  0  0  0
 29 30  1  0  0  0  0
 29 71  1  0  0  0  0
 30 31  1  0  0  0  0
 30 72  1  0  0  0  0
 31 33  1  0  0  0  0
 31 73  1  0  0  0  0
 32 33  1  0  0  0  0
 32 34  1  0  0  0  0
 32 74  1  0  0  0  0
 33 75  1  0  0  0  0
 34 77  1  0  0  0  0
 34 78  1  0  0  0  0
 34 79  1  0  0  0  0
M  END
> <PUBCHEM_COMPOUND_CID>
128920

> <PUBCHEM_CONFORMER_RMSD>
1

> <PUBCHEM_CONFORMER_DIVERSEORDER>
5
64
24
46
44
99
29
25
65
13
94
95
8
83
45
55
48
35
20
16
27
43
57
30
1
102
75
100
3
41
33
2
47
59
52
101
86
72
67
60
88
36
6
28
92
61
76
98
39
11
9
70
56
26
42
79
19
84
73
10
12
22
62
23
81
68
7
82
97
69
18
14
17
31
71
77
66
50
89
63
58
53
96
32
4
21
40
93
74
80
85
51
38
90
34
15
49
87
91
78
37
54

> <PUBCHEM_MMFF94_PARTIAL_CHARGES>
21
1 -0.56
2 -0.68
25 0.28
27 0.28
29 0.56
3 -0.56
30 0.28
31 0.28
32 0.28
33 0.28
4 -0.68
5 -0.68
58 0.36
59 0.36
6 -0.68
7 -0.99
70 0.4
76 0.4
8 0.27
80 0.4
81 0.4

> <PUBCHEM_EFFECTIVE_ROTOR_COUNT>
6.4

> <PUBCHEM_PHARMACOPHORE_FEATURES>
17
1 1 acceptor
1 2 acceptor
1 2 donor
1 3 acceptor
1 4 acceptor
1 4 donor
1 5 acceptor
1 5 donor
1 6 acceptor
1 6 donor
1 7 cation
1 7 donor
5 8 9 13 17 19 rings
6 10 11 12 15 18 20 rings
6 12 15 21 23 26 27 rings
6 3 29 30 31 32 33 rings
6 8 9 10 11 14 16 rings

> <PUBCHEM_HEAVY_ATOM_COUNT>
34

> <PUBCHEM_ATOM_DEF_STEREO_COUNT>
9

> <PUBCHEM_ATOM_UDEF_STEREO_COUNT>
5

> <PUBCHEM_BOND_DEF_STEREO_COUNT>
0

> <PUBCHEM_BOND_UDEF_STEREO_COUNT>
0

> <PUBCHEM_ISOTOPIC_ATOM_COUNT>
0

> <PUBCHEM_COMPONENT_COUNT>
1

> <PUBCHEM_CACTVS_TAUTO_COUNT>
1

> <PUBCHEM_CONFORMER_ID>
0001F79800000005

> <PUBCHEM_MMFF94_ENERGY>
121.6008

> <PUBCHEM_FEATURE_SELFOVERLAP>
86.422

> <PUBCHEM_SHAPE_FINGERPRINT>
10076449 9 17632584851375538216
105312 117 14851612072451728625
10533779 1 12541512845565306551
10554248 39 15791732971601484410
11181472 205 14129058072648383062
11204353 107 18194684993514109738
117089 54 17979354484990290151
12124843 1 18187350022991927639
12166972 35 18342746221653541344
12373685 5 16950276317915738826
12633257 1 14333117629220944877
12988421 55 11242246317451878461
13673619 4 17060616694080845273
13690498 29 18261105319033701479
13782708 43 17275102787093220294
13811026 1 18408602595975178616
14068700 675 17346596383321875217
14767858 380 18335143094077430146
14856354 85 14548735136192654581
14931854 50 18114469985428597882
15064986 266 18187087257219188057
15082195 135 18187657933486634740
15183329 4 17822007605842580473
15510800 12 17561368409160090615
16994733 274 15719385131788575053
20028762 73 18342173315876536102
20775438 99 17908965948958974787
21033648 29 13840275749141550080
21033650 10 17313099714574837493
21130935 74 8502362292954872380
21223535 225 14996273704816549743
21403212 168 9871752369360739577
21774942 28 14779536860294649462
22393880 68 18040988553918446945
23522609 53 17985580868101810432
23559900 14 18334856155781578177
23576562 1 16951705759882582654
2838139 119 13984659269879196151
3004659 81 18334290976623585153
3178227 256 12175619565106656918
329604 57 18410577288192344027
3633792 109 17894915118258798876
392239 28 13326853318457831197
4098825 35 17967536766125334293
4330586 98 18262523722364687815
4353968 344 18189619342150669070
439807 62 18334298695434385075
484989 97 18263373636452889426
4938544 92 15410625727317629499
54039377 194 18271251607565155967
58083652 198 12822716195046590618
6086070 43 14635160074419475236
6669772 16 18055905752326213304
999808 66 15626226788632461996

> <PUBCHEM_SHAPE_MULTIPOLES>
659.51
20.44
2.67
1.9
1.45
0.03
0.09
-9.62
13.14
1.57
-0.49
1.19
0.01
0.34

> <PUBCHEM_SHAPE_SELFOVERLAP>
1390.111

> <PUBCHEM_SHAPE_VOLUME>
367.5

> <PUBCHEM_COORDINATE_TYPE>
2
5
10

$$$$
