129042
  -OEChem-03292013323D

 26 25  0     1  0  0  0  0  0999 V2000
   -0.4084   -0.5497    0.4996 O   0  0  0  0  0  0  0  0  0  0  0  0
    4.0695    0.0374    0.7976 O   0  0  0  0  0  0  0  0  0  0  0  0
   -2.3478    1.7373    0.6733 O   0  0  0  0  0  0  0  0  0  0  0  0
    1.0535   -2.3480   -0.0194 O   0  5  0  0  0  0  0  0  0  0  0  0
   -3.3205    1.1198   -1.2853 O   0  0  0  0  0  0  0  0  0  0  0  0
   -3.9758   -1.3057   -0.0809 N   0  0  0  0  0  0  0  0  0  0  0  0
    1.4260    1.2565    0.3074 N   0  3  0  0  0  0  0  0  0  0  0  0
    1.1484    2.2695    0.4883 N   0  0  0  0  0  0  0  0  0  0  0  0
   -2.8181   -0.5653    0.4175 C   0  0  1  0  0  0  0  0  0  0  0  0
   -1.5326   -1.2768    0.0048 C   0  0  0  0  0  0  0  0  0  0  0  0
    3.2603   -0.3733   -0.3042 C   0  0  1  0  0  0  0  0  0  0  0  0
    1.8099   -0.1446    0.0581 C   0  0  0  0  0  0  0  0  0  0  0  0
    0.8546   -1.1074    0.1689 C   0  0  0  0  0  0  0  0  0  0  0  0
    3.6567    0.4248   -1.5408 C   0  0  0  0  0  0  0  0  0  0  0  0
   -2.8757    0.8255   -0.1848 C   0  0  0  0  0  0  0  0  0  0  0  0
   -2.8874   -0.4826    1.5079 H   0  0  0  0  0  0  0  0  0  0  0  0
   -1.5419   -2.2905    0.4260 H   0  0  0  0  0  0  0  0  0  0  0  0
   -1.4652   -1.3406   -1.0898 H   0  0  0  0  0  0  0  0  0  0  0  0
    3.4812   -1.4300   -0.4827 H   0  0  0  0  0  0  0  0  0  0  0  0
    3.0451    0.1524   -2.4069 H   0  0  0  0  0  0  0  0  0  0  0  0
    3.5710    1.5046   -1.3752 H   0  0  0  0  0  0  0  0  0  0  0  0
    4.7078    0.2365   -1.7867 H   0  0  0  0  0  0  0  0  0  0  0  0
   -3.9434   -1.3682   -1.0977 H   0  0  0  0  0  0  0  0  0  0  0  0
   -4.8341   -0.8089    0.1542 H   0  0  0  0  0  0  0  0  0  0  0  0
    3.9244    0.9885    0.9410 H   0  0  0  0  0  0  0  0  0  0  0  0
   -2.3706    2.6449    0.3017 H   0  0  0  0  0  0  0  0  0  0  0  0
  1 10  1  0  0  0  0
  1 13  1  0  0  0  0
  2 11  1  0  0  0  0
  2 25  1  0  0  0  0
  3 15  1  0  0  0  0
  3 26  1  0  0  0  0
  4 13  1  0  0  0  0
  5 15  2  0  0  0  0
  6  9  1  0  0  0  0
  6 23  1  0  0  0  0
  6 24  1  0  0  0  0
  7  8  3  0  0  0  0
  7 12  1  0  0  0  0
  9 10  1  0  0  0  0
  9 15  1  0  0  0  0
  9 16  1  0  0  0  0
 10 17  1  0  0  0  0
 10 18  1  0  0  0  0
 11 12  1  0  0  0  0
 11 14  1  0  0  0  0
 11 19  1  0  0  0  0
 12 13  2  3  0  0  0
 14 20  1  0  0  0  0
 14 21  1  0  0  0  0
 14 22  1  0  0  0  0
M  CHG  2   4  -1   7   1
M  END
> <PUBCHEM_COMPOUND_CID>
129042

> <PUBCHEM_CONFORMER_RMSD>
0.6

> <PUBCHEM_CONFORMER_DIVERSEORDER>
1
59
47
97
57
72
96
90
86
51
99
52
39
75
43
33
19
102
88
5
28
68
8
85
12
54
40
95
9
101
63
42
60
18
29
6
78
67
36
91
83
77
10
31
50
34
79
89
25
16
26
46
82
22
32
81
55
23
94
80
98
92
35
69
20
11
76
84
38
64
93
24
49
73
15
13
44
45
70
62
21
74
87
30
100
2
56
3
27
71
48
58
65
14
53
66
7
61
41
17
37
4

> <PUBCHEM_MMFF94_PARTIAL_CHARGES>
18
1 -0.36
10 0.28
11 0.42
12 -0.01
13 -0.07
15 0.66
2 -0.68
23 0.36
24 0.36
25 0.4
26 0.5
3 -0.65
4 -0.85
5 -0.57
6 -0.99
7 1.36
8 -0.49
9 0.33

> <PUBCHEM_EFFECTIVE_ROTOR_COUNT>
5

> <PUBCHEM_PHARMACOPHORE_FEATURES>
8
1 1 acceptor
1 2 acceptor
1 2 donor
1 3 acceptor
1 5 acceptor
1 6 cation
1 6 donor
3 3 5 15 anion

> <PUBCHEM_HEAVY_ATOM_COUNT>
15

> <PUBCHEM_ATOM_DEF_STEREO_COUNT>
2

> <PUBCHEM_ATOM_UDEF_STEREO_COUNT>
0

> <PUBCHEM_BOND_DEF_STEREO_COUNT>
0

> <PUBCHEM_BOND_UDEF_STEREO_COUNT>
1

> <PUBCHEM_ISOTOPIC_ATOM_COUNT>
0

> <PUBCHEM_COMPONENT_COUNT>
1

> <PUBCHEM_CACTVS_TAUTO_COUNT>
1

> <PUBCHEM_CONFORMER_ID>
0001F81200000001

> <PUBCHEM_MMFF94_ENERGY>
29.7206

> <PUBCHEM_FEATURE_SELFOVERLAP>
40.656

> <PUBCHEM_SHAPE_FINGERPRINT>
11132069 177 18335135358799209908
124424 183 18186795864139617810
13705890 14 15697998527027425790
14144814 61 18341331110858251875
14957384 54 15503479449385595069
15775835 57 18187085001548954941
17802600 8 18336540607673782755
18186145 218 17988651808709830106
18522853 276 18341893008671214761
200 152 18130777984925710751
20112054 60 18342737407715602208
20233049 118 18334290972766474204
21524375 3 18261110794030495818
22926399 65 18334299751473899044
23402539 116 18271796938955794734
23402655 69 18341041914105291037
23559900 14 18343312462057670478
2748010 2 18124594433887562169

> <PUBCHEM_SHAPE_MULTIPOLES>
264.4
7.23
1.95
0.96
0.04
0.21
0.29
0.47
1.35
0.53
-0.19
-0.39
0.26
0.12

> <PUBCHEM_SHAPE_SELFOVERLAP>
515.933

> <PUBCHEM_SHAPE_VOLUME>
156

> <PUBCHEM_COORDINATE_TYPE>
2
5
10

$$$$
