129089
  -OEChem-03292013323D

 59 61  0     1  0  0  0  0  0999 V2000
    2.7969    1.3121    0.1132 O   0  0  0  0  0  0  0  0  0  0  0  0
   -2.3074   -1.5901   -1.2663 O   0  0  0  0  0  0  0  0  0  0  0  0
   -3.8921    0.7214   -1.9128 O   0  0  0  0  0  0  0  0  0  0  0  0
   -1.4352    1.6812   -2.2025 O   0  0  0  0  0  0  0  0  0  0  0  0
    5.0304    0.9645    0.2432 O   0  0  0  0  0  0  0  0  0  0  0  0
    5.9234   -1.4348    0.7191 O   0  0  0  0  0  0  0  0  0  0  0  0
   -5.0065   -0.8186    1.1592 N   0  0  0  0  0  0  0  0  0  0  0  0
   -0.8743    1.3150    0.0190 N   0  0  0  0  0  0  0  0  0  0  0  0
   -4.3304   -1.4609    0.0227 C   0  0  2  0  0  0  0  0  0  0  0  0
   -4.2085   -2.9106    0.4676 C   0  0  0  0  0  0  0  0  0  0  0  0
   -2.9866   -0.8176   -0.2799 C   0  0  2  0  0  0  0  0  0  0  0  0
    0.4674    1.8489   -0.0405 C   0  0  2  0  0  0  0  0  0  0  0  0
   -5.4791   -3.1587    1.2668 C   0  0  0  0  0  0  0  0  0  0  0  0
    1.4740    0.7499    0.2689 C   0  0  1  0  0  0  0  0  0  0  0  0
   -6.0413   -1.7757    1.5654 C   0  0  0  0  0  0  0  0  0  0  0  0
    0.6394    3.0347    0.9255 C   0  0  0  0  0  0  0  0  0  0  0  0
   -3.0711    0.6394   -0.7564 C   0  0  1  0  0  0  0  0  0  0  0  0
   -0.3759    4.1828    0.7422 C   0  0  0  0  0  0  0  0  0  0  0  0
    1.3037   -0.4378   -0.6669 C   0  0  0  0  0  0  0  0  0  0  0  0
   -1.7202    1.2759   -1.0773 C   0  0  0  0  0  0  0  0  0  0  0  0
    2.3955   -1.4184   -0.3626 C   0  0  0  0  0  0  0  0  0  0  0  0
   -0.3112    4.8035   -0.6540 C   0  0  0  0  0  0  0  0  0  0  0  0
   -0.1271    5.2639    1.7979 C   0  0  0  0  0  0  0  0  0  0  0  0
    3.6493   -0.9447    0.0428 C   0  0  0  0  0  0  0  0  0  0  0  0
    3.8967    0.5127    0.1511 C   0  0  0  0  0  0  0  0  0  0  0  0
    2.1952   -2.7946   -0.5162 C   0  0  0  0  0  0  0  0  0  0  0  0
    4.6891   -1.8418    0.3089 C   0  0  0  0  0  0  0  0  0  0  0  0
    3.2312   -3.6887   -0.2459 C   0  0  0  0  0  0  0  0  0  0  0  0
    4.4747   -3.2131    0.1681 C   0  0  0  0  0  0  0  0  0  0  0  0
   -4.9787   -1.4260   -0.8637 H   0  0  0  0  0  0  0  0  0  0  0  0
   -4.1207   -3.6013   -0.3773 H   0  0  0  0  0  0  0  0  0  0  0  0
   -3.3353   -3.0593    1.1153 H   0  0  0  0  0  0  0  0  0  0  0  0
   -2.3584   -0.8661    0.6176 H   0  0  0  0  0  0  0  0  0  0  0  0
    0.6665    2.2158   -1.0548 H   0  0  0  0  0  0  0  0  0  0  0  0
   -5.2536   -3.7115    2.1849 H   0  0  0  0  0  0  0  0  0  0  0  0
   -6.1972   -3.7473    0.6855 H   0  0  0  0  0  0  0  0  0  0  0  0
    1.3690    0.4316    1.3160 H   0  0  0  0  0  0  0  0  0  0  0  0
   -6.2890   -1.6566    2.6242 H   0  0  0  0  0  0  0  0  0  0  0  0
   -6.9553   -1.6085    0.9834 H   0  0  0  0  0  0  0  0  0  0  0  0
   -5.4262    0.0667    0.8808 H   0  0  0  0  0  0  0  0  0  0  0  0
    1.6535    3.4436    0.8286 H   0  0  0  0  0  0  0  0  0  0  0  0
    0.5522    2.6652    1.9566 H   0  0  0  0  0  0  0  0  0  0  0  0
   -3.5402    1.2547    0.0209 H   0  0  0  0  0  0  0  0  0  0  0  0
   -1.3903    3.7967    0.9004 H   0  0  0  0  0  0  0  0  0  0  0  0
    0.3291   -0.9147   -0.5239 H   0  0  0  0  0  0  0  0  0  0  0  0
    1.3975   -0.1346   -1.7167 H   0  0  0  0  0  0  0  0  0  0  0  0
   -1.2061    0.9765    0.9172 H   0  0  0  0  0  0  0  0  0  0  0  0
   -2.8317   -1.5507   -2.0845 H   0  0  0  0  0  0  0  0  0  0  0  0
    0.7003    5.1557   -0.8834 H   0  0  0  0  0  0  0  0  0  0  0  0
   -0.9900    5.6602   -0.7282 H   0  0  0  0  0  0  0  0  0  0  0  0
   -0.6064    4.0930   -1.4291 H   0  0  0  0  0  0  0  0  0  0  0  0
    0.8700    5.7043    1.6899 H   0  0  0  0  0  0  0  0  0  0  0  0
   -0.2070    4.8475    2.8076 H   0  0  0  0  0  0  0  0  0  0  0  0
   -0.8643    6.0694    1.7115 H   0  0  0  0  0  0  0  0  0  0  0  0
   -4.0427    1.6640   -2.0994 H   0  0  0  0  0  0  0  0  0  0  0  0
    1.2324   -3.1780   -0.8440 H   0  0  0  0  0  0  0  0  0  0  0  0
    3.0695   -4.7566   -0.3605 H   0  0  0  0  0  0  0  0  0  0  0  0
    5.2748   -3.9187    0.3763 H   0  0  0  0  0  0  0  0  0  0  0  0
    5.9205   -0.4838    0.9088 H   0  0  0  0  0  0  0  0  0  0  0  0
  1 14  1  0  0  0  0
  1 25  1  0  0  0  0
  2 11  1  0  0  0  0
  2 48  1  0  0  0  0
  3 17  1  0  0  0  0
  3 55  1  0  0  0  0
  4 20  2  0  0  0  0
  5 25  2  0  0  0  0
  6 27  1  0  0  0  0
  6 59  1  0  0  0  0
  7  9  1  0  0  0  0
  7 15  1  0  0  0  0
  7 40  1  0  0  0  0
  8 12  1  0  0  0  0
  8 20  1  0  0  0  0
  8 47  1  0  0  0  0
  9 10  1  0  0  0  0
  9 11  1  0  0  0  0
  9 30  1  0  0  0  0
 10 13  1  0  0  0  0
 10 31  1  0  0  0  0
 10 32  1  0  0  0  0
 11 17  1  0  0  0  0
 11 33  1  0  0  0  0
 12 14  1  0  0  0  0
 12 16  1  0  0  0  0
 12 34  1  0  0  0  0
 13 15  1  0  0  0  0
 13 35  1  0  0  0  0
 13 36  1  0  0  0  0
 14 19  1  0  0  0  0
 14 37  1  0  0  0  0
 15 38  1  0  0  0  0
 15 39  1  0  0  0  0
 16 18  1  0  0  0  0
 16 41  1  0  0  0  0
 16 42  1  0  0  0  0
 17 20  1  0  0  0  0
 17 43  1  0  0  0  0
 18 22  1  0  0  0  0
 18 23  1  0  0  0  0
 18 44  1  0  0  0  0
 19 21  1  0  0  0  0
 19 45  1  0  0  0  0
 19 46  1  0  0  0  0
 21 24  2  0  0  0  0
 21 26  1  0  0  0  0
 22 49  1  0  0  0  0
 22 50  1  0  0  0  0
 22 51  1  0  0  0  0
 23 52  1  0  0  0  0
 23 53  1  0  0  0  0
 23 54  1  0  0  0  0
 24 25  1  0  0  0  0
 24 27  1  0  0  0  0
 26 28  2  0  0  0  0
 26 56  1  0  0  0  0
 27 29  2  0  0  0  0
 28 29  1  0  0  0  0
 28 57  1  0  0  0  0
 29 58  1  0  0  0  0
M  END
> <PUBCHEM_COMPOUND_CID>
129089

> <PUBCHEM_CONFORMER_RMSD>
1.4

> <PUBCHEM_CONFORMER_DIVERSEORDER>
1
37
162
22
113
11
21
146
127
86
141
90
136
95
98
123
176
75
96
135
62
164
187
179
145
104
3
193
16
114
92
64
67
27
48
121
115
134
40
87
35
111
94
160
55
24
63
93
101
50
13
167
17
66
43
186
152
142
65
97
108
157
57
69
180
70
168
20
163
38
82
12
188
14
72
137
165
158
30
191
155
196
151
31
52
194
61
78
58
36
139
76
171
156
107
68
83
60
42
109
183
51
147
28
192
172
140
18
138
33
124
159
116
185
144
45
26
195
81
102
85
181
173
128
103
105
7
32
150
44
53
112
88
46
133
166
143
106
41
2
10
189
39
79
84
25
153
154
15
56
54
129
99
169
174
175
149
80
59
4
131
170
190
197
118
178
73
91
119
125
182
6
8
161
126
130
100
117
184
77
122
47
148
19
34
89
177
29
71
110
132
23
9
120
5
49
74

> <PUBCHEM_MMFF94_PARTIAL_CHARGES>
31
1 -0.43
11 0.28
12 0.3
14 0.28
15 0.27
17 0.34
19 0.14
2 -0.68
20 0.57
21 -0.14
24 0.09
25 0.63
26 -0.15
27 0.08
28 -0.15
29 -0.15
3 -0.68
4 -0.57
40 0.36
47 0.37
48 0.4
5 -0.57
55 0.4
56 0.15
57 0.15
58 0.15
59 0.45
6 -0.53
7 -0.9
8 -0.73
9 0.27

> <PUBCHEM_EFFECTIVE_ROTOR_COUNT>
9.6

> <PUBCHEM_PHARMACOPHORE_FEATURES>
14
1 2 acceptor
1 2 donor
1 3 acceptor
1 3 donor
1 4 acceptor
1 5 acceptor
1 6 donor
1 7 cation
1 7 donor
1 8 donor
3 18 22 23 hydrophobe
5 7 9 10 13 15 rings
6 1 14 19 21 24 25 rings
6 21 24 26 27 28 29 rings

> <PUBCHEM_HEAVY_ATOM_COUNT>
29

> <PUBCHEM_ATOM_DEF_STEREO_COUNT>
0

> <PUBCHEM_ATOM_UDEF_STEREO_COUNT>
5

> <PUBCHEM_BOND_DEF_STEREO_COUNT>
0

> <PUBCHEM_BOND_UDEF_STEREO_COUNT>
0

> <PUBCHEM_ISOTOPIC_ATOM_COUNT>
0

> <PUBCHEM_COMPONENT_COUNT>
1

> <PUBCHEM_CACTVS_TAUTO_COUNT>
26

> <PUBCHEM_CONFORMER_ID>
0001F84100000001

> <PUBCHEM_MMFF94_ENERGY>
60.6642

> <PUBCHEM_FEATURE_SELFOVERLAP>
71.088

> <PUBCHEM_SHAPE_FINGERPRINT>
1100329 8 16538199914721834911
11070050 100 17195729313209313937
11135609 12 18260548913560406203
11796584 16 17896024473502912298
11828532 37 16880769728204671003
12342043 65 17896324787150662963
12788726 201 17837750258779313509
13140716 1 18341051796207704438
13402501 40 18261395593565263771
13955234 65 17980767361298818145
14363568 33 18267582601144340776
14866123 147 17692250734055583139
15927050 60 17333375000779472692
17492 89 18265332816229687914
20775530 9 18335415764107862263
21049683 271 18118412962553315892
21796203 349 18194708044091722426
221490 88 18337387137465450814
229767 44 17982753882758309241
23558518 356 17837768933280902796
23559900 14 18264193752147343284
23845131 108 16901575936843957785
2838139 119 10231765457132313443
314194 84 18340762753746739799
3421961 26 18266743656929744529
3737641 26 18413113852928000422
4015057 19 18268688616138333821
463206 1 18337391659612703002
5104073 3 18411412878538460810
5309563 4 18413105078130401551
54583773 228 18187937149965351110
5912855 24 18269005206319678888
613672 6 18267003016819349370
79837 15 17478335236044204153
86090 222 17532378749996511603

> <PUBCHEM_SHAPE_MULTIPOLES>
551.63
11.97
6.4
1.37
4.55
7.46
0.22
-15.6
-3.95
-0.07
-2.18
1.65
0.71
1.83

> <PUBCHEM_SHAPE_SELFOVERLAP>
1155.82

> <PUBCHEM_SHAPE_VOLUME>
311

> <PUBCHEM_COORDINATE_TYPE>
2
5
10

$$$$
