129051
  -OEChem-03292013323D

 43 47  0     0  0  0  0  0  0999 V2000
   -0.6724    2.5333    0.0123 O   0  0  0  0  0  0  0  0  0  0  0  0
    0.3849   -2.3989    0.1616 O   0  0  0  0  0  0  0  0  0  0  0  0
   -3.5730    2.5997    0.0409 O   0  0  0  0  0  0  0  0  0  0  0  0
   -4.9388    0.6160    0.1211 O   0  0  0  0  0  0  0  0  0  0  0  0
   -3.8805   -2.0193    0.1979 O   0  0  0  0  0  0  0  0  0  0  0  0
    3.5750    2.1396   -0.0208 O   0  0  0  0  0  0  0  0  0  0  0  0
    3.1357   -2.6012    0.1368 O   0  0  0  0  0  0  0  0  0  0  0  0
    4.7118   -0.3343    0.0456 O   0  0  0  0  0  0  0  0  0  0  0  0
   -1.6510   -3.4245    0.2157 O   0  0  0  0  0  0  0  0  0  0  0  0
    1.3685    3.5471   -0.0413 O   0  0  0  0  0  0  0  0  0  0  0  0
   -0.8609    0.1116    0.0940 C   0  0  0  0  0  0  0  0  0  0  0  0
    0.5704    0.0200    0.0815 C   0  0  0  0  0  0  0  0  0  0  0  0
   -1.6581   -1.0439    0.1404 C   0  0  0  0  0  0  0  0  0  0  0  0
   -1.4582    1.3684    0.0591 C   0  0  0  0  0  0  0  0  0  0  0  0
    1.3636    1.1657    0.0355 C   0  0  0  0  0  0  0  0  0  0  0  0
    1.1777   -1.2297    0.1155 C   0  0  0  0  0  0  0  0  0  0  0  0
   -2.8308    1.4623    0.0707 C   0  0  0  0  0  0  0  0  0  0  0  0
   -3.0562   -0.9411    0.1521 C   0  0  0  0  0  0  0  0  0  0  0  0
   -3.6077    0.3279    0.1164 C   0  0  0  0  0  0  0  0  0  0  0  0
    2.7582    1.0476    0.0240 C   0  0  0  0  0  0  0  0  0  0  0  0
    2.5620   -1.3680    0.1047 C   0  0  0  0  0  0  0  0  0  0  0  0
   -1.0134   -2.3806    0.1763 C   0  0  0  0  0  0  0  0  0  0  0  0
    0.7261    2.5062   -0.0011 C   0  0  0  0  0  0  0  0  0  0  0  0
    3.3520   -0.2194    0.0586 C   0  0  0  0  0  0  0  0  0  0  0  0
   -4.9087    2.0572    0.0728 C   0  0  0  0  0  0  0  0  0  0  0  0
   -4.2903   -2.5807   -1.0498 C   0  0  0  0  0  0  0  0  0  0  0  0
    3.9477    2.6150   -1.3117 C   0  0  0  0  0  0  0  0  0  0  0  0
    3.3959   -3.2297   -1.1177 C   0  0  0  0  0  0  0  0  0  0  0  0
    5.3708   -0.3465    1.3091 C   0  0  0  0  0  0  0  0  0  0  0  0
   -5.4440    2.3893   -0.8243 H   0  0  0  0  0  0  0  0  0  0  0  0
   -5.4258    2.4487    0.9564 H   0  0  0  0  0  0  0  0  0  0  0  0
   -3.4384   -2.7321   -1.7205 H   0  0  0  0  0  0  0  0  0  0  0  0
   -5.0260   -1.9265   -1.5281 H   0  0  0  0  0  0  0  0  0  0  0  0
   -4.7587   -3.5487   -0.8522 H   0  0  0  0  0  0  0  0  0  0  0  0
    3.0829    2.6925   -1.9787 H   0  0  0  0  0  0  0  0  0  0  0  0
    4.6951    1.9487   -1.7535 H   0  0  0  0  0  0  0  0  0  0  0  0
    4.3911    3.6078   -1.1966 H   0  0  0  0  0  0  0  0  0  0  0  0
    3.8506   -4.2050   -0.9239 H   0  0  0  0  0  0  0  0  0  0  0  0
    4.0932   -2.6300   -1.7110 H   0  0  0  0  0  0  0  0  0  0  0  0
    2.4648   -3.3816   -1.6727 H   0  0  0  0  0  0  0  0  0  0  0  0
    6.4460   -0.4389    1.1335 H   0  0  0  0  0  0  0  0  0  0  0  0
    5.0402   -1.2009    1.9081 H   0  0  0  0  0  0  0  0  0  0  0  0
    5.1845    0.5859    1.8512 H   0  0  0  0  0  0  0  0  0  0  0  0
  1 14  1  0  0  0  0
  1 23  1  0  0  0  0
  2 16  1  0  0  0  0
  2 22  1  0  0  0  0
  3 17  1  0  0  0  0
  3 25  1  0  0  0  0
  4 19  1  0  0  0  0
  4 25  1  0  0  0  0
  5 18  1  0  0  0  0
  5 26  1  0  0  0  0
  6 20  1  0  0  0  0
  6 27  1  0  0  0  0
  7 21  1  0  0  0  0
  7 28  1  0  0  0  0
  8 24  1  0  0  0  0
  8 29  1  0  0  0  0
  9 22  2  0  0  0  0
 10 23  2  0  0  0  0
 11 12  1  0  0  0  0
 11 13  2  0  0  0  0
 11 14  1  0  0  0  0
 12 15  2  0  0  0  0
 12 16  1  0  0  0  0
 13 18  1  0  0  0  0
 13 22  1  0  0  0  0
 14 17  2  0  0  0  0
 15 20  1  0  0  0  0
 15 23  1  0  0  0  0
 16 21  2  0  0  0  0
 17 19  1  0  0  0  0
 18 19  2  0  0  0  0
 20 24  2  0  0  0  0
 21 24  1  0  0  0  0
 25 30  1  0  0  0  0
 25 31  1  0  0  0  0
 26 32  1  0  0  0  0
 26 33  1  0  0  0  0
 26 34  1  0  0  0  0
 27 35  1  0  0  0  0
 27 36  1  0  0  0  0
 27 37  1  0  0  0  0
 28 38  1  0  0  0  0
 28 39  1  0  0  0  0
 28 40  1  0  0  0  0
 29 41  1  0  0  0  0
 29 42  1  0  0  0  0
 29 43  1  0  0  0  0
M  END
> <PUBCHEM_COMPOUND_CID>
129051

> <PUBCHEM_CONFORMER_RMSD>
0.8

> <PUBCHEM_CONFORMER_DIVERSEORDER>
2
1

> <PUBCHEM_MMFF94_PARTIAL_CHARGES>
27
1 -0.23
10 -0.57
13 0.09
14 0.08
15 0.09
16 0.08
17 0.08
18 0.08
19 0.08
2 -0.23
20 0.08
21 0.08
22 0.63
23 0.63
24 0.08
25 0.56
26 0.28
27 0.28
28 0.28
29 0.28
3 -0.36
4 -0.36
5 -0.36
6 -0.36
7 -0.36
8 -0.36
9 -0.57

> <PUBCHEM_EFFECTIVE_ROTOR_COUNT>
4.6

> <PUBCHEM_PHARMACOPHORE_FEATURES>
13
1 10 acceptor
1 3 acceptor
1 4 acceptor
1 5 acceptor
1 6 acceptor
1 7 acceptor
1 8 acceptor
1 9 acceptor
5 3 4 17 19 25 rings
6 1 11 12 14 15 23 rings
6 11 13 14 17 18 19 rings
6 12 15 16 20 21 24 rings
6 2 11 12 13 16 22 rings

> <PUBCHEM_HEAVY_ATOM_COUNT>
29

> <PUBCHEM_ATOM_DEF_STEREO_COUNT>
0

> <PUBCHEM_ATOM_UDEF_STEREO_COUNT>
0

> <PUBCHEM_BOND_DEF_STEREO_COUNT>
0

> <PUBCHEM_BOND_UDEF_STEREO_COUNT>
0

> <PUBCHEM_ISOTOPIC_ATOM_COUNT>
0

> <PUBCHEM_COMPONENT_COUNT>
1

> <PUBCHEM_CACTVS_TAUTO_COUNT>
1

> <PUBCHEM_CONFORMER_ID>
0001F81B00000002

> <PUBCHEM_MMFF94_ENERGY>
149.404

> <PUBCHEM_FEATURE_SELFOVERLAP>
66.296

> <PUBCHEM_SHAPE_FINGERPRINT>
10074138 170 15752009089052421280
10411042 1 17329433259656731682
10616163 171 18193843870943719222
10675989 125 16532553935667509589
10906281 52 18334588945002634880
10967382 1 18410293571037002392
1100329 8 18337954463573523011
11513181 2 18273220819414913903
11578080 2 14348374422381933268
12403260 363 18337944713934457355
12633257 1 18334851693336437312
12838862 33 18265594533734305873
13140716 1 18337668598997843691
13583140 156 17417797474569982787
13642711 20 17544178395125999301
138480 1 18193840331864364970
14178342 30 18195230338243182008
14790565 3 18123478176552382641
15196674 1 18410012177675408216
16728300 4 16883265292896578762
16945 1 18266461099193896747
17492 89 18412263956363105287
1813 80 17313674741506290620
19591789 44 18194121811431422561
20691752 17 17458339749498601720
20715895 44 18119522142284272253
20739085 24 18048345278408617425
21267235 1 18409738343455858859
21421861 104 17896873258468740530
221490 88 18409176514515496467
22393880 68 18341342192280375988
23227448 37 18412542077212255999
2334 1 18410293605444168075
23402539 116 18341322340651123262
23558518 356 18042412502606152235
23559900 14 18270962328537727790
335352 9 18409729530262277348
338550 245 18334861614547334996
34934 24 18337947887783355546
350125 39 18338521941034352009
3680242 22 18190180083483208488
5104073 3 18337391637994961865
5309563 4 17326906573583642555
59755656 215 18340489946620758806
9709674 26 18410862074483994250

> <PUBCHEM_SHAPE_MULTIPOLES>
538.11
9.69
4.2
0.81
0.5
0.47
-0.1
-0.29
0.06
-0.12
-0.8
-0.59
0.12
-0.6

> <PUBCHEM_SHAPE_SELFOVERLAP>
1226.928

> <PUBCHEM_SHAPE_VOLUME>
279.7

> <PUBCHEM_COORDINATE_TYPE>
2
5
10

$$$$
