129010919
  -OEChem-03292013293D

 58 62  0     1  0  0  0  0  0999 V2000
   -3.7785    1.4931    0.8802 O   0  0  0  0  0  0  0  0  0  0  0  0
   -2.0571   -0.4271    1.6229 O   0  0  0  0  0  0  0  0  0  0  0  0
   -0.4690    2.9224   -0.5791 O   0  0  0  0  0  0  0  0  0  0  0  0
   -1.5237   -2.8581    0.1049 O   0  0  0  0  0  0  0  0  0  0  0  0
    2.6591   -2.4117   -0.7776 O   0  0  0  0  0  0  0  0  0  0  0  0
    4.4765   -1.3797    0.9498 O   0  0  0  0  0  0  0  0  0  0  0  0
   -1.6880    0.8869   -0.4036 C   0  0  1  0  0  0  0  0  0  0  0  0
    1.3953   -0.4347    0.0494 C   0  0  1  0  0  0  0  0  0  0  0  0
   -2.0343   -0.5109    0.1897 C   0  0  2  0  0  0  0  0  0  0  0  0
   -2.9767    1.6761   -0.2879 C   0  0  1  0  0  0  0  0  0  0  0  0
    0.8552    0.9069   -0.5860 C   0  0  1  0  0  0  0  0  0  0  0  0
   -3.5362   -0.7251   -0.2905 C   0  0  0  0  0  0  0  0  0  0  0  0
   -4.0988    0.6965   -0.2705 C   0  0  1  0  0  0  0  0  0  0  0  0
   -0.3988    1.6192    0.0483 C   0  0  1  0  0  0  0  0  0  0  0  0
   -0.9864   -1.5693   -0.2170 C   0  0  1  0  0  0  0  0  0  0  0  0
    0.3362   -1.4394    0.5569 C   0  0  0  0  0  0  0  0  0  0  0  0
    2.3209   -1.0562   -1.0434 C   0  0  1  0  0  0  0  0  0  0  0  0
    3.5675   -0.1588   -0.9341 C   0  0  2  0  0  0  0  0  0  0  0  0
    2.4213   -0.1651    1.2158 C   0  0  0  0  0  0  0  0  0  0  0  0
    3.8295   -0.1496    0.5865 C   0  0  1  0  0  0  0  0  0  0  0  0
    2.0257    1.8946   -0.8586 C   0  0  0  0  0  0  0  0  0  0  0  0
    3.2353    1.2199   -1.5170 C   0  0  0  0  0  0  0  0  0  0  0  0
   -3.6290   -1.2685   -1.7304 C   0  0  0  0  0  0  0  0  0  0  0  0
   -4.3896   -1.6124    0.6297 C   0  0  0  0  0  0  0  0  0  0  0  0
   -0.2799    1.8833    1.5481 C   0  0  0  0  0  0  0  0  0  0  0  0
    4.7235    0.9676    1.1135 C   0  0  0  0  0  0  0  0  0  0  0  0
   -1.5889    0.7569   -1.4923 H   0  0  0  0  0  0  0  0  0  0  0  0
   -3.0638    2.5743   -0.8776 H   0  0  0  0  0  0  0  0  0  0  0  0
    0.5270    0.6385   -1.6029 H   0  0  0  0  0  0  0  0  0  0  0  0
   -5.0179    0.8824   -0.8013 H   0  0  0  0  0  0  0  0  0  0  0  0
   -0.8086   -1.5586   -1.2977 H   0  0  0  0  0  0  0  0  0  0  0  0
    0.1171   -1.2220    1.6088 H   0  0  0  0  0  0  0  0  0  0  0  0
    0.7912   -2.4363    0.6268 H   0  0  0  0  0  0  0  0  0  0  0  0
    1.8686   -1.0307   -2.0410 H   0  0  0  0  0  0  0  0  0  0  0  0
    4.4140   -0.6061   -1.4683 H   0  0  0  0  0  0  0  0  0  0  0  0
    2.1981    0.7772    1.7230 H   0  0  0  0  0  0  0  0  0  0  0  0
    2.3586   -0.9517    1.9784 H   0  0  0  0  0  0  0  0  0  0  0  0
    2.3245    2.3842    0.0732 H   0  0  0  0  0  0  0  0  0  0  0  0
    1.7064    2.7020   -1.5281 H   0  0  0  0  0  0  0  0  0  0  0  0
    3.0230    1.0990   -2.5875 H   0  0  0  0  0  0  0  0  0  0  0  0
    4.1044    1.8847   -1.4564 H   0  0  0  0  0  0  0  0  0  0  0  0
   -3.9939   -2.6298    0.6947 H   0  0  0  0  0  0  0  0  0  0  0  0
   -3.2591   -2.2961   -1.7992 H   0  0  0  0  0  0  0  0  0  0  0  0
   -3.0634   -0.6562   -2.4398 H   0  0  0  0  0  0  0  0  0  0  0  0
   -4.6690   -1.2719   -2.0783 H   0  0  0  0  0  0  0  0  0  0  0  0
   -5.4183   -1.6809    0.2557 H   0  0  0  0  0  0  0  0  0  0  0  0
   -4.4585   -1.2058    1.6444 H   0  0  0  0  0  0  0  0  0  0  0  0
   -1.1771    2.3882    1.9235 H   0  0  0  0  0  0  0  0  0  0  0  0
    0.5509    2.5677    1.7547 H   0  0  0  0  0  0  0  0  0  0  0  0
   -0.1252    0.9813    2.1403 H   0  0  0  0  0  0  0  0  0  0  0  0
   -2.1748   -1.3267    1.9729 H   0  0  0  0  0  0  0  0  0  0  0  0
   -0.5828    2.7933   -1.5365 H   0  0  0  0  0  0  0  0  0  0  0  0
    5.7050    0.9322    0.6272 H   0  0  0  0  0  0  0  0  0  0  0  0
    4.9053    0.8449    2.1877 H   0  0  0  0  0  0  0  0  0  0  0  0
    4.3033    1.9642    0.9633 H   0  0  0  0  0  0  0  0  0  0  0  0
   -0.9198   -3.5273   -0.2599 H   0  0  0  0  0  0  0  0  0  0  0  0
    3.2997   -2.6903   -1.4540 H   0  0  0  0  0  0  0  0  0  0  0  0
    4.5701   -1.3988    1.9176 H   0  0  0  0  0  0  0  0  0  0  0  0
  1 10  1  0  0  0  0
  1 13  1  0  0  0  0
  2  9  1  0  0  0  0
  2 51  1  0  0  0  0
  3 14  1  0  0  0  0
  3 52  1  0  0  0  0
  4 15  1  0  0  0  0
  4 56  1  0  0  0  0
  5 17  1  0  0  0  0
  5 57  1  0  0  0  0
  6 20  1  0  0  0  0
  6 58  1  0  0  0  0
  7  9  1  0  0  0  0
  7 10  1  0  0  0  0
  7 14  1  0  0  0  0
  7 27  1  0  0  0  0
  8 11  1  0  0  0  0
  8 16  1  0  0  0  0
  8 17  1  0  0  0  0
  8 19  1  0  0  0  0
  9 12  1  0  0  0  0
  9 15  1  0  0  0  0
 10 13  1  0  0  0  0
 10 28  1  0  0  0  0
 11 14  1  0  0  0  0
 11 21  1  0  0  0  0
 11 29  1  0  0  0  0
 12 13  1  0  0  0  0
 12 23  1  0  0  0  0
 12 24  1  0  0  0  0
 13 30  1  0  0  0  0
 14 25  1  0  0  0  0
 15 16  1  0  0  0  0
 15 31  1  0  0  0  0
 16 32  1  0  0  0  0
 16 33  1  0  0  0  0
 17 18  1  0  0  0  0
 17 34  1  0  0  0  0
 18 20  1  0  0  0  0
 18 22  1  0  0  0  0
 18 35  1  0  0  0  0
 19 20  1  0  0  0  0
 19 36  1  0  0  0  0
 19 37  1  0  0  0  0
 20 26  1  0  0  0  0
 21 22  1  0  0  0  0
 21 38  1  0  0  0  0
 21 39  1  0  0  0  0
 22 40  1  0  0  0  0
 22 41  1  0  0  0  0
 23 43  1  0  0  0  0
 23 44  1  0  0  0  0
 23 45  1  0  0  0  0
 24 42  1  0  0  0  0
 24 46  1  0  0  0  0
 24 47  1  0  0  0  0
 25 48  1  0  0  0  0
 25 49  1  0  0  0  0
 25 50  1  0  0  0  0
 26 53  1  0  0  0  0
 26 54  1  0  0  0  0
 26 55  1  0  0  0  0
M  END
> <PUBCHEM_COMPOUND_CID>
129010919

> <PUBCHEM_CONFORMER_RMSD>
0.6

> <PUBCHEM_CONFORMER_DIVERSEORDER>
1
2

> <PUBCHEM_MMFF94_PARTIAL_CHARGES>
22
1 -0.3
10 -0.05
12 0.09
13 -0.05
14 0.28
15 0.28
17 0.28
2 -0.68
20 0.28
28 0.1
3 -0.68
30 0.1
4 -0.68
5 -0.68
51 0.4
52 0.4
56 0.4
57 0.4
58 0.4
6 -0.68
7 0.09
9 0.28

> <PUBCHEM_EFFECTIVE_ROTOR_COUNT>
2

> <PUBCHEM_PHARMACOPHORE_FEATURES>
15
1 1 acceptor
1 2 acceptor
1 2 donor
1 3 acceptor
1 3 donor
1 4 acceptor
1 4 donor
1 5 acceptor
1 5 donor
1 6 acceptor
1 6 donor
3 12 23 24 hydrophobe
6 1 7 9 10 12 13 rings
7 7 8 9 11 14 15 16 rings
8 8 11 17 18 19 20 21 22 rings

> <PUBCHEM_HEAVY_ATOM_COUNT>
26

> <PUBCHEM_ATOM_DEF_STEREO_COUNT>
11

> <PUBCHEM_ATOM_UDEF_STEREO_COUNT>
0

> <PUBCHEM_BOND_DEF_STEREO_COUNT>
0

> <PUBCHEM_BOND_UDEF_STEREO_COUNT>
0

> <PUBCHEM_ISOTOPIC_ATOM_COUNT>
0

> <PUBCHEM_COMPONENT_COUNT>
1

> <PUBCHEM_CACTVS_TAUTO_COUNT>
1

> <PUBCHEM_CONFORMER_ID>
07B08CE700000001

> <PUBCHEM_MMFF94_ENERGY>
137.408

> <PUBCHEM_FEATURE_SELFOVERLAP>
76.157

> <PUBCHEM_SHAPE_FINGERPRINT>
10062212 137 18409725158323036895
10366900 7 17775280560891266544
10498660 4 18337106770247092813
10646746 165 18413103940264482216
10759866 29 17968106373335573692
10863032 1 18059294258104621535
10967382 1 18408891749556647541
11132069 177 18340487772723650661
11552529 35 15194989626630758999
11578080 2 17917132958216628225
12236239 1 17749105604465729426
12403814 3 17385722478784191165
12553582 1 18339933721873856157
12596599 1 17417821655188308381
12788726 201 18265907868900120768
128620 24 18273215313324426479
13134695 92 14923939051270546182
13140716 1 18408888421279207769
13224815 77 18413112761900571744
13583140 156 15554434198181708111
14081887 123 18130216082422213256
14223421 5 18270114596356014948
14787075 74 18058156401193774656
14790565 3 18124605176282219361
15196674 1 18408041809883252028
15375358 24 18343015588621039344
15788980 27 17023181604462431468
16752209 62 18335419045393836780
16945 1 18338243759516686196
17349148 13 18411412929951415174
17492 89 18335986389141909482
17980427 23 18335975467688467820
18186145 218 16370729227123654760
18681886 176 18338804519955054884
192875 21 18186516592618448876
19862831 5 18334021570478479228
200 152 18410572894261413038
20028762 73 18128259085455243207
20510252 161 18343301427158104449
20600515 1 18409448102772903836
20691752 17 17895764993085457447
20715895 44 17971742277716185365
21267235 1 18335431182987564278
2334 1 18410294722531290941
23402539 116 18339913853513445686
23557571 272 18201722877238101922
23559900 14 18270967839075500110
2748010 2 17183063544836926013
296302 2 17775281698862161064
335352 9 18191587458335139071
34934 24 18338227155663925045
350125 39 18410016568092119609
3680242 22 18188494566781394585
392239 28 17774713264414922992
394222 165 17606127431788701148
4409770 3 15591308159050470906
474 4 16807025457284798868
5104073 3 18411417289380008330
9709674 26 18412549807747453694
9981440 41 17104536935662217872

> <PUBCHEM_SHAPE_MULTIPOLES>
499.85
8.49
2.53
1.37
0.68
0.05
0.01
-1.22
0.4
-0.61
-0.16
0.38
0.09
-0.3

> <PUBCHEM_SHAPE_SELFOVERLAP>
1088.547

> <PUBCHEM_SHAPE_VOLUME>
268.8

> <PUBCHEM_COORDINATE_TYPE>
2
5
10

$$$$
