129069
  -OEChem-03292013323D

 59 61  0     1  0  0  0  0  0999 V2000
    0.8576    0.2611    0.9301 S   0  0  0  0  0  0  0  0  0  0  0  0
    0.0126   -3.2847   -1.5448 O   0  0  0  0  0  0  0  0  0  0  0  0
   -3.0407   -2.0476    1.0013 O   0  0  0  0  0  0  0  0  0  0  0  0
    4.0398   -1.4539    1.3830 O   0  0  0  0  0  0  0  0  0  0  0  0
   -0.4499   -1.8892    0.3016 N   0  0  0  0  0  0  0  0  0  0  0  0
    2.6453   -1.8471   -0.4299 N   0  0  0  0  0  0  0  0  0  0  0  0
   -3.5972   -0.8904   -0.9404 N   0  0  0  0  0  0  0  0  0  0  0  0
   -6.6262    2.1062    0.0142 N   0  0  0  0  0  0  0  0  0  0  0  0
    0.6693   -1.5417    1.1823 C   0  0  1  0  0  0  0  0  0  0  0  0
   -1.3397   -0.8396   -0.1521 C   0  0  2  0  0  0  0  0  0  0  0  0
   -0.9691    0.4470    0.6166 C   0  0  0  0  0  0  0  0  0  0  0  0
    1.5486   -2.4560    0.3183 C   0  0  1  0  0  0  0  0  0  0  0  0
    0.2745   -2.7125   -0.5111 C   0  0  0  0  0  0  0  0  0  0  0  0
   -1.6679    0.6014    1.9742 C   0  0  0  0  0  0  0  0  0  0  0  0
   -1.2026    1.6941   -0.2380 C   0  0  0  0  0  0  0  0  0  0  0  0
   -2.7385   -1.3270    0.0538 C   0  0  0  0  0  0  0  0  0  0  0  0
    3.8174   -1.3902    0.1766 C   0  0  0  0  0  0  0  0  0  0  0  0
   -4.9983   -1.2414   -0.9850 C   0  0  0  0  0  0  0  0  0  0  0  0
    4.7886   -0.8013   -0.8277 C   0  0  0  0  0  0  0  0  0  0  0  0
   -5.8765   -0.2424   -0.2340 C   0  0  0  0  0  0  0  0  0  0  0  0
   -5.7781    1.1971   -0.7473 C   0  0  0  0  0  0  0  0  0  0  0  0
    5.1167    0.6443   -0.5629 C   0  0  0  0  0  0  0  0  0  0  0  0
    4.3419    1.6520   -1.1376 C   0  0  0  0  0  0  0  0  0  0  0  0
    6.1950    0.9761    0.2574 C   0  0  0  0  0  0  0  0  0  0  0  0
   -6.8766    3.3339   -0.7430 C   0  0  0  0  0  0  0  0  0  0  0  0
   -6.0138    2.4227    1.3059 C   0  0  0  0  0  0  0  0  0  0  0  0
    4.6455    2.9911   -0.8923 C   0  0  0  0  0  0  0  0  0  0  0  0
    6.4986    2.3153    0.5028 C   0  0  0  0  0  0  0  0  0  0  0  0
    5.7238    3.3227   -0.0721 C   0  0  0  0  0  0  0  0  0  0  0  0
    0.5125   -1.8639    2.2157 H   0  0  0  0  0  0  0  0  0  0  0  0
   -1.1521   -0.7126   -1.2275 H   0  0  0  0  0  0  0  0  0  0  0  0
    1.8817   -3.3627    0.8388 H   0  0  0  0  0  0  0  0  0  0  0  0
   -1.2888    1.4724    2.5223 H   0  0  0  0  0  0  0  0  0  0  0  0
   -2.7456    0.7555    1.8449 H   0  0  0  0  0  0  0  0  0  0  0  0
   -1.5364   -0.2779    2.6144 H   0  0  0  0  0  0  0  0  0  0  0  0
   -0.8663    2.6030    0.2744 H   0  0  0  0  0  0  0  0  0  0  0  0
   -0.6762    1.6364   -1.1978 H   0  0  0  0  0  0  0  0  0  0  0  0
   -2.2683    1.8204   -0.4574 H   0  0  0  0  0  0  0  0  0  0  0  0
    2.5588   -1.7453   -1.4382 H   0  0  0  0  0  0  0  0  0  0  0  0
   -3.2434   -0.2853   -1.6756 H   0  0  0  0  0  0  0  0  0  0  0  0
   -5.1297   -2.2424   -0.5599 H   0  0  0  0  0  0  0  0  0  0  0  0
   -5.2876   -1.2815   -2.0404 H   0  0  0  0  0  0  0  0  0  0  0  0
    4.4160   -0.9065   -1.8537 H   0  0  0  0  0  0  0  0  0  0  0  0
    5.7032   -1.4069   -0.7900 H   0  0  0  0  0  0  0  0  0  0  0  0
   -6.9188   -0.5799   -0.2967 H   0  0  0  0  0  0  0  0  0  0  0  0
   -5.5957   -0.2864    0.8245 H   0  0  0  0  0  0  0  0  0  0  0  0
   -4.7378    1.5446   -0.7558 H   0  0  0  0  0  0  0  0  0  0  0  0
   -6.1035    1.1781   -1.7962 H   0  0  0  0  0  0  0  0  0  0  0  0
    3.4976    1.4057   -1.7762 H   0  0  0  0  0  0  0  0  0  0  0  0
    6.8051    0.2004    0.7125 H   0  0  0  0  0  0  0  0  0  0  0  0
   -7.5354    4.0056   -0.1812 H   0  0  0  0  0  0  0  0  0  0  0  0
   -5.9502    3.8723   -0.9742 H   0  0  0  0  0  0  0  0  0  0  0  0
   -7.3912    3.1097   -1.6840 H   0  0  0  0  0  0  0  0  0  0  0  0
   -5.0255    2.8842    1.1953 H   0  0  0  0  0  0  0  0  0  0  0  0
   -6.6496    3.1173    1.8674 H   0  0  0  0  0  0  0  0  0  0  0  0
   -5.9129    1.5347    1.9369 H   0  0  0  0  0  0  0  0  0  0  0  0
    4.0417    3.7755   -1.3390 H   0  0  0  0  0  0  0  0  0  0  0  0
    7.3378    2.5738    1.1420 H   0  0  0  0  0  0  0  0  0  0  0  0
    5.9598    4.3654    0.1193 H   0  0  0  0  0  0  0  0  0  0  0  0
  1  9  1  0  0  0  0
  1 11  1  0  0  0  0
  2 13  2  0  0  0  0
  3 16  2  0  0  0  0
  4 17  2  0  0  0  0
  5  9  1  0  0  0  0
  5 10  1  0  0  0  0
  5 13  1  0  0  0  0
  6 12  1  0  0  0  0
  6 17  1  0  0  0  0
  6 39  1  0  0  0  0
  7 16  1  0  0  0  0
  7 18  1  0  0  0  0
  7 40  1  0  0  0  0
  8 21  1  0  0  0  0
  8 25  1  0  0  0  0
  8 26  1  0  0  0  0
  9 12  1  0  0  0  0
  9 30  1  0  0  0  0
 10 11  1  0  0  0  0
 10 16  1  0  0  0  0
 10 31  1  0  0  0  0
 11 14  1  0  0  0  0
 11 15  1  0  0  0  0
 12 13  1  0  0  0  0
 12 32  1  0  0  0  0
 14 33  1  0  0  0  0
 14 34  1  0  0  0  0
 14 35  1  0  0  0  0
 15 36  1  0  0  0  0
 15 37  1  0  0  0  0
 15 38  1  0  0  0  0
 17 19  1  0  0  0  0
 18 20  1  0  0  0  0
 18 41  1  0  0  0  0
 18 42  1  0  0  0  0
 19 22  1  0  0  0  0
 19 43  1  0  0  0  0
 19 44  1  0  0  0  0
 20 21  1  0  0  0  0
 20 45  1  0  0  0  0
 20 46  1  0  0  0  0
 21 47  1  0  0  0  0
 21 48  1  0  0  0  0
 22 23  2  0  0  0  0
 22 24  1  0  0  0  0
 23 27  1  0  0  0  0
 23 49  1  0  0  0  0
 24 28  2  0  0  0  0
 24 50  1  0  0  0  0
 25 51  1  0  0  0  0
 25 52  1  0  0  0  0
 25 53  1  0  0  0  0
 26 54  1  0  0  0  0
 26 55  1  0  0  0  0
 26 56  1  0  0  0  0
 27 29  2  0  0  0  0
 27 57  1  0  0  0  0
 28 29  1  0  0  0  0
 28 58  1  0  0  0  0
 29 59  1  0  0  0  0
M  END
> <PUBCHEM_COMPOUND_CID>
129069

> <PUBCHEM_CONFORMER_RMSD>
1.4

> <PUBCHEM_CONFORMER_DIVERSEORDER>
1
14
27
29
9
41
24
23
21
8
13
15
40
42
4
38
17
32
25
11
28
12
35
39
6
18
19
30
26
31
37
16
5
22
33
20
34
2
10
3
36
7

> <PUBCHEM_MMFF94_PARTIAL_CHARGES>
33
1 -0.45
10 0.36
11 0.23
12 0.28
13 0.58
16 0.57
17 0.57
18 0.3
19 0.2
2 -0.57
21 0.27
22 -0.14
23 -0.15
24 -0.15
25 0.27
26 0.27
27 -0.15
28 -0.15
29 -0.15
3 -0.57
39 0.37
4 -0.57
40 0.37
49 0.15
5 -0.59
50 0.15
57 0.15
58 0.15
59 0.15
6 -0.65
7 -0.73
8 -0.81
9 0.44

> <PUBCHEM_EFFECTIVE_ROTOR_COUNT>
10.8

> <PUBCHEM_PHARMACOPHORE_FEATURES>
10
1 2 acceptor
1 3 acceptor
1 4 acceptor
1 6 donor
1 7 donor
1 8 cation
3 11 14 15 hydrophobe
4 5 9 12 13 rings
6 22 23 24 27 28 29 rings
7 1 5 9 10 11 12 13 rings

> <PUBCHEM_HEAVY_ATOM_COUNT>
29

> <PUBCHEM_ATOM_DEF_STEREO_COUNT>
3

> <PUBCHEM_ATOM_UDEF_STEREO_COUNT>
0

> <PUBCHEM_BOND_DEF_STEREO_COUNT>
0

> <PUBCHEM_BOND_UDEF_STEREO_COUNT>
0

> <PUBCHEM_ISOTOPIC_ATOM_COUNT>
0

> <PUBCHEM_COMPONENT_COUNT>
1

> <PUBCHEM_CACTVS_TAUTO_COUNT>
4

> <PUBCHEM_CONFORMER_ID>
0001F82D00000001

> <PUBCHEM_MMFF94_ENERGY>
70.7375

> <PUBCHEM_FEATURE_SELFOVERLAP>
54.479

> <PUBCHEM_SHAPE_FINGERPRINT>
10673678 19 18412266099519189191
10692045 39 14201663239849678088
10906281 52 18271533005279843627
11007060 377 18259707805325962219
11135609 187 18342455984605813344
11456790 92 17968090881520737536
12422481 6 17603594023448027245
13690498 29 17630878508034916095
13782708 43 11167942454900528865
13911852 28 9511466610509402039
14251764 30 8790615792434415956
14790565 3 18411420575235762685
14931854 50 17987812916283521008
15082195 135 18129946663355301234
15183329 4 18408600379260675765
15475509 35 8502360127420443366
15840311 113 18335705975796951285
16994733 274 18259982665251833193
1813 80 13398640454811938826
20715895 44 18409729591040490324
21033648 29 17168153359968829706
21298829 104 18335984255038827836
23559900 14 17556858345712603424
2748736 6 18410005567773597748
2838139 119 18409445929313639478
5104073 3 17676203589154938291
56633871 153 11170177792300013968
6036956 94 17687192302064357556
6328613 192 18341612582257666649

> <PUBCHEM_SHAPE_MULTIPOLES>
563.12
18.1
4.07
1.3
7.36
1.16
-0.26
19.33
2.53
-0.3
0.69
0.4
-0.05
-0.7

> <PUBCHEM_SHAPE_SELFOVERLAP>
1153.669

> <PUBCHEM_SHAPE_VOLUME>
328.5

> <PUBCHEM_COORDINATE_TYPE>
2
5
10

$$$$
