129161
  -OEChem-03292013323D

 33 35  0     1  0  0  0  0  0999 V2000
   -1.9431   -0.6762   -0.2963 O   0  0  0  0  0  0  0  0  0  0  0  0
   -3.7115   -1.8249   -1.2226 O   0  0  0  0  0  0  0  0  0  0  0  0
    1.3133    2.3667    0.3359 O   0  0  0  0  0  0  0  0  0  0  0  0
    0.6170    0.1697    0.8003 N   0  0  0  0  0  0  0  0  0  0  0  0
    2.0576   -1.7252    0.3346 N   0  0  0  0  0  0  0  0  0  0  0  0
    3.8498    1.1413   -0.6459 N   0  0  0  0  0  0  0  0  0  0  0  0
   -0.0258   -2.1156    1.2468 N   0  0  0  0  0  0  0  0  0  0  0  0
    4.2282   -1.0541   -0.6371 N   0  0  0  0  0  0  0  0  0  0  0  0
   -1.7323    0.6586    0.2139 C   0  0  2  0  0  0  0  0  0  0  0  0
   -0.6818    0.5955    1.3193 C   0  0  0  0  0  0  0  0  0  0  0  0
   -3.0907    1.0982    0.7473 C   0  0  0  0  0  0  0  0  0  0  0  0
   -1.2385    1.5424   -0.9376 C   0  0  0  0  0  0  0  0  0  0  0  0
   -3.9975    0.3009   -0.1137 C   0  0  0  0  0  0  0  0  0  0  0  0
   -3.2544   -0.8643   -0.6308 C   0  0  0  0  0  0  0  0  0  0  0  0
    1.5182    1.1568    0.3421 C   0  0  0  0  0  0  0  0  0  0  0  0
    0.9203   -1.2293    0.7786 C   0  0  0  0  0  0  0  0  0  0  0  0
    2.7285    0.5621   -0.1255 C   0  0  0  0  0  0  0  0  0  0  0  0
   -5.2655    0.5546   -0.4401 C   0  0  0  0  0  0  0  0  0  0  0  0
    2.9841   -0.7848   -0.1304 C   0  0  0  0  0  0  0  0  0  0  0  0
    4.7239    0.1277   -0.9388 C   0  0  0  0  0  0  0  0  0  0  0  0
   -0.9950   -0.0503    2.1447 H   0  0  0  0  0  0  0  0  0  0  0  0
   -0.5638    1.5956    1.7566 H   0  0  0  0  0  0  0  0  0  0  0  0
   -3.2472    2.1785    0.6736 H   0  0  0  0  0  0  0  0  0  0  0  0
   -3.2330    0.7923    1.7904 H   0  0  0  0  0  0  0  0  0  0  0  0
   -2.0177    1.6407   -1.7040 H   0  0  0  0  0  0  0  0  0  0  0  0
   -0.9983    2.5554   -0.6021 H   0  0  0  0  0  0  0  0  0  0  0  0
   -0.3892    1.1029   -1.4696 H   0  0  0  0  0  0  0  0  0  0  0  0
   -5.7717    1.4316   -0.0510 H   0  0  0  0  0  0  0  0  0  0  0  0
   -5.8279   -0.0991   -1.0981 H   0  0  0  0  0  0  0  0  0  0  0  0
    4.0082    2.1300   -0.7894 H   0  0  0  0  0  0  0  0  0  0  0  0
    0.1753   -3.1103    1.2518 H   0  0  0  0  0  0  0  0  0  0  0  0
   -0.9685   -1.8574    1.5076 H   0  0  0  0  0  0  0  0  0  0  0  0
    5.6979    0.3183   -1.3666 H   0  0  0  0  0  0  0  0  0  0  0  0
  1  9  1  0  0  0  0
  1 14  1  0  0  0  0
  2 14  2  0  0  0  0
  3 15  2  0  0  0  0
  4 10  1  0  0  0  0
  4 15  1  0  0  0  0
  4 16  1  0  0  0  0
  5 16  2  0  0  0  0
  5 19  1  0  0  0  0
  6 17  1  0  0  0  0
  6 20  1  0  0  0  0
  6 30  1  0  0  0  0
  7 16  1  0  0  0  0
  7 31  1  0  0  0  0
  7 32  1  0  0  0  0
  8 19  1  0  0  0  0
  8 20  2  0  0  0  0
  9 10  1  0  0  0  0
  9 11  1  0  0  0  0
  9 12  1  0  0  0  0
 10 21  1  0  0  0  0
 10 22  1  0  0  0  0
 11 13  1  0  0  0  0
 11 23  1  0  0  0  0
 11 24  1  0  0  0  0
 12 25  1  0  0  0  0
 12 26  1  0  0  0  0
 12 27  1  0  0  0  0
 13 14  1  0  0  0  0
 13 18  2  0  0  0  0
 15 17  1  0  0  0  0
 17 19  2  0  0  0  0
 18 28  1  0  0  0  0
 18 29  1  0  0  0  0
 20 33  1  0  0  0  0
M  END
> <PUBCHEM_COMPOUND_CID>
129161

> <PUBCHEM_CONFORMER_RMSD>
0.6

> <PUBCHEM_CONFORMER_DIVERSEORDER>
1
9
3
12
2
10
6
13
14
8
11
5
7
4

> <PUBCHEM_MMFF94_PARTIAL_CHARGES>
25
1 -0.43
10 0.3
11 0.14
13 -0.12
14 0.71
15 0.71
16 0.56
17 -0.24
18 -0.3
19 0.35
2 -0.57
20 0.04
28 0.15
29 0.15
3 -0.57
30 0.27
31 0.4
32 0.4
33 0.15
4 -0.42
5 -0.57
6 0.03
7 -0.85
8 -0.57
9 0.28

> <PUBCHEM_EFFECTIVE_ROTOR_COUNT>
2.6

> <PUBCHEM_PHARMACOPHORE_FEATURES>
8
1 2 acceptor
1 3 acceptor
1 6 donor
1 7 donor
3 6 8 20 cation
5 1 9 11 13 14 rings
5 6 8 17 19 20 rings
6 4 5 15 16 17 19 rings

> <PUBCHEM_HEAVY_ATOM_COUNT>
20

> <PUBCHEM_ATOM_DEF_STEREO_COUNT>
0

> <PUBCHEM_ATOM_UDEF_STEREO_COUNT>
1

> <PUBCHEM_BOND_DEF_STEREO_COUNT>
0

> <PUBCHEM_BOND_UDEF_STEREO_COUNT>
0

> <PUBCHEM_ISOTOPIC_ATOM_COUNT>
0

> <PUBCHEM_COMPONENT_COUNT>
1

> <PUBCHEM_CACTVS_TAUTO_COUNT>
8

> <PUBCHEM_CONFORMER_ID>
0001F88900000001

> <PUBCHEM_MMFF94_ENERGY>
49.6277

> <PUBCHEM_FEATURE_SELFOVERLAP>
40.722

> <PUBCHEM_SHAPE_FINGERPRINT>
10498660 4 17967802847706829517
10616163 171 18202564003507257175
10646746 165 13118001093499375102
11471102 20 18335704927328934904
11796584 16 16056884619495960711
12236239 1 18272374144237941801
12553582 1 18339350899365186377
12596599 1 17987815058564255910
12670546 177 18412268337249898118
12730499 353 17894920607216122579
12892183 10 8286206049783380943
14115302 16 17418372514988146005
14576447 43 18342736329979562750
14911166 2 18335709342739775600
15196674 1 18412262869403244998
15536298 74 18201714097834501049
15775835 57 18335706022228934895
16752209 62 17702934826361587153
16945 1 18334288786084659017
17349148 13 18261668178518256410
17357779 13 17682400600383455851
18186145 218 18335974350553527449
19422 9 18131353037580046253
19862831 5 18413387635581022801
200 152 18202566167853710656
21267235 1 18343311357438854143
21634736 98 18198898291573900927
21637258 2 16486689165402470676
221490 88 18268995469190592114
22182313 1 17903087959975894984
231179 274 16153705436121630116
23175994 123 14979960267816557811
23227448 37 14563679753844822046
23379529 103 17702109268706524070
23402539 116 18114179739843637428
23402655 69 18409450254240250189
23559900 14 17917703647373646768
25 1 18187366514922006106
2748010 2 17830464130239527768
2838139 119 16660934391258628508
2871803 45 18334856082666432916
296302 2 15285357314791550153
3060560 45 18333726918600178518
3323516 105 18411697716115718056
465052 167 16987996232437406967
474 4 17822299001903744124
4990 188 18273219677179783542
633830 44 18040156218672367517
9709674 26 18197775716082534595
9981440 41 17407946052391706448

> <PUBCHEM_SHAPE_MULTIPOLES>
369.08
9.09
1.89
1.08
1.3
0.22
0.07
0.19
-3.5
-0.2
0.11
0.17
0.13
-0.55

> <PUBCHEM_SHAPE_SELFOVERLAP>
811.505

> <PUBCHEM_SHAPE_VOLUME>
197.4

> <PUBCHEM_COORDINATE_TYPE>
2
5
10

$$$$
