129127
  -OEChem-03292013323D

 35 36  0     1  0  0  0  0  0999 V2000
    2.0967   -0.5527   -0.9941 O   0  0  0  0  0  0  0  0  0  0  0  0
    4.5797    1.0422   -0.2266 O   0  0  0  0  0  0  0  0  0  0  0  0
    2.5880    2.3205    1.1091 O   0  0  0  0  0  0  0  0  0  0  0  0
    2.5021   -3.2342   -0.2812 O   0  0  0  0  0  0  0  0  0  0  0  0
   -4.0835    0.0760    0.0499 O   0  0  0  0  0  0  0  0  0  0  0  0
    0.2451    0.8225   -0.4369 N   0  0  0  0  0  0  0  0  0  0  0  0
   -0.4818   -0.2604   -0.1233 N   0  0  0  0  0  0  0  0  0  0  0  0
   -1.8075    1.5707   -0.4727 N   0  0  0  0  0  0  0  0  0  0  0  0
   -2.7500   -1.8301    0.4160 N   0  0  0  0  0  0  0  0  0  0  0  0
    3.7192    0.2235    0.5654 C   0  0  1  0  0  0  0  0  0  0  0  0
    2.4116    0.9513    0.8080 C   0  0  2  0  0  0  0  0  0  0  0  0
    3.2750   -0.9740   -0.2685 C   0  0  1  0  0  0  0  0  0  0  0  0
    1.7019    0.7498   -0.5222 C   0  0  1  0  0  0  0  0  0  0  0  0
    2.9095   -2.1846    0.5790 C   0  0  0  0  0  0  0  0  0  0  0  0
   -0.5498    1.9065   -0.6432 C   0  0  0  0  0  0  0  0  0  0  0  0
   -1.7167    0.2450   -0.1585 C   0  0  0  0  0  0  0  0  0  0  0  0
   -2.8661   -0.5625    0.1176 C   0  0  0  0  0  0  0  0  0  0  0  0
   -5.3045   -0.6336    0.3075 C   0  0  0  0  0  0  0  0  0  0  0  0
   -6.4690    0.3243    0.1745 C   0  0  0  0  0  0  0  0  0  0  0  0
    4.2524   -0.0307    1.4859 H   0  0  0  0  0  0  0  0  0  0  0  0
    1.8588    0.4796    1.6287 H   0  0  0  0  0  0  0  0  0  0  0  0
    4.0204   -1.2574   -1.0202 H   0  0  0  0  0  0  0  0  0  0  0  0
    2.0061    1.4902   -1.2726 H   0  0  0  0  0  0  0  0  0  0  0  0
    2.0795   -1.9737    1.2607 H   0  0  0  0  0  0  0  0  0  0  0  0
    3.7670   -2.5305    1.1633 H   0  0  0  0  0  0  0  0  0  0  0  0
    5.3869    0.5291   -0.4023 H   0  0  0  0  0  0  0  0  0  0  0  0
    3.1250    2.7172    0.4022 H   0  0  0  0  0  0  0  0  0  0  0  0
   -0.1733    2.8850   -0.9056 H   0  0  0  0  0  0  0  0  0  0  0  0
    1.7423   -2.9130   -0.7963 H   0  0  0  0  0  0  0  0  0  0  0  0
   -5.4123   -1.4459   -0.4191 H   0  0  0  0  0  0  0  0  0  0  0  0
   -5.2809   -1.0413    1.3236 H   0  0  0  0  0  0  0  0  0  0  0  0
   -3.6596   -2.2626    0.5842 H   0  0  0  0  0  0  0  0  0  0  0  0
   -7.4180   -0.1846    0.3649 H   0  0  0  0  0  0  0  0  0  0  0  0
   -6.3659    1.1562    0.8792 H   0  0  0  0  0  0  0  0  0  0  0  0
   -6.4965    0.7603   -0.8295 H   0  0  0  0  0  0  0  0  0  0  0  0
  1 12  1  0  0  0  0
  1 13  1  0  0  0  0
  2 10  1  0  0  0  0
  2 26  1  0  0  0  0
  3 11  1  0  0  0  0
  3 27  1  0  0  0  0
  4 14  1  0  0  0  0
  4 29  1  0  0  0  0
  5 17  1  0  0  0  0
  5 18  1  0  0  0  0
  6  7  1  0  0  0  0
  6 13  1  0  0  0  0
  6 15  1  0  0  0  0
  7 16  2  0  0  0  0
  8 15  2  0  0  0  0
  8 16  1  0  0  0  0
  9 17  2  0  0  0  0
  9 32  1  0  0  0  0
 10 11  1  0  0  0  0
 10 12  1  0  0  0  0
 10 20  1  0  0  0  0
 11 13  1  0  0  0  0
 11 21  1  0  0  0  0
 12 14  1  0  0  0  0
 12 22  1  0  0  0  0
 13 23  1  0  0  0  0
 14 24  1  0  0  0  0
 14 25  1  0  0  0  0
 15 28  1  0  0  0  0
 16 17  1  0  0  0  0
 18 19  1  0  0  0  0
 18 30  1  0  0  0  0
 18 31  1  0  0  0  0
 19 33  1  0  0  0  0
 19 34  1  0  0  0  0
 19 35  1  0  0  0  0
M  END
> <PUBCHEM_COMPOUND_CID>
129127

> <PUBCHEM_CONFORMER_RMSD>
0.8

> <PUBCHEM_CONFORMER_DIVERSEORDER>
5
91
38
72
17
23
93
57
95
45
94
7
6
35
51
34
101
42
86
75
79
65
74
39
29
85
2
21
19
62
99
63
32
80
52
13
41
81
9
58
76
18
96
98
3
44
68
37
43
69
90
12
4
20
14
15
78
88
40
64
67
11
71
82
54
1
10
25
49
84
30
77
47
89
46
26
70
53
60
83
22
8
27
55
66
73
28
24
36
33
31
87
56
61
16
59
92
97
50
48
100
102

> <PUBCHEM_MMFF94_PARTIAL_CHARGES>
23
1 -0.56
10 0.28
11 0.28
12 0.28
13 0.54
14 0.28
15 0.04
16 0.43
17 0.69
18 0.28
2 -0.68
26 0.4
27 0.4
28 0.15
29 0.4
3 -0.68
32 0.4
4 -0.68
5 -0.43
6 0.31
7 -0.71
8 -0.57
9 -0.85

> <PUBCHEM_EFFECTIVE_ROTOR_COUNT>
6

> <PUBCHEM_PHARMACOPHORE_FEATURES>
12
1 1 acceptor
1 2 acceptor
1 2 donor
1 3 acceptor
1 3 donor
1 4 acceptor
1 4 donor
1 9 donor
3 6 8 15 cation
3 7 8 16 cation
5 1 10 11 12 13 rings
5 6 7 8 15 16 rings

> <PUBCHEM_HEAVY_ATOM_COUNT>
19

> <PUBCHEM_ATOM_DEF_STEREO_COUNT>
4

> <PUBCHEM_ATOM_UDEF_STEREO_COUNT>
0

> <PUBCHEM_BOND_DEF_STEREO_COUNT>
0

> <PUBCHEM_BOND_UDEF_STEREO_COUNT>
0

> <PUBCHEM_ISOTOPIC_ATOM_COUNT>
0

> <PUBCHEM_COMPONENT_COUNT>
1

> <PUBCHEM_CACTVS_TAUTO_COUNT>
1

> <PUBCHEM_CONFORMER_ID>
0001F86700000005

> <PUBCHEM_MMFF94_ENERGY>
36.7724

> <PUBCHEM_FEATURE_SELFOVERLAP>
63.662

> <PUBCHEM_SHAPE_FINGERPRINT>
10366900 7 18412548742574218480
11287383 113 9223226356581983197
114674 6 18334577889077171226
12107183 9 17695920929776040889
12251169 10 18131068259604712500
12670546 56 17917997157365393257
13533116 47 18271807891665770483
13675066 3 18260267486524531625
14252887 29 18333453153116144665
14386348 63 18187086169664066955
14617045 38 18408893931432065559
15635459 17 18336550430101082170
15885798 251 18187083953751280957
17859628 70 18270685247054611542
1813 80 17022908934674989447
19141452 34 18411136974519506351
20645477 70 18410291376330203022
21267235 1 18336552616576844462
21279426 13 18190456048845274093
22224240 67 18270671091258401352
23557571 272 17385716976530360012
23559900 14 18334859449831135156
2871803 45 18261394421123093982
31174 14 18343295959865228824
33824 294 18410291419664848306
34934 24 18410009974584116743
5104073 3 18267016172209290721
5374978 207 18410570686801411705
81228 2 17968100772361349885
8988823 20 18202275914449227997
9709674 26 18334579014231534090
9999458 23 18341049731046314884

> <PUBCHEM_SHAPE_MULTIPOLES>
341.74
10.86
2.32
0.83
15.49
1.14
0.05
1.46
1.57
-2.27
0.1
-0.43
-0.15
0.63

> <PUBCHEM_SHAPE_SELFOVERLAP>
707.424

> <PUBCHEM_SHAPE_VOLUME>
196.2

> <PUBCHEM_COORDINATE_TYPE>
2
5
10

$$$$
