129146
  -OEChem-03292013323D

 26 26  0     0  0  0  0  0  0999 V2000
   -1.0685   -0.1417    0.3539 O   0  0  0  0  0  0  0  0  0  0  0  0
   -2.5862    1.8092    1.6105 O   0  0  0  0  0  0  0  0  0  0  0  0
   -4.3028   -0.8209   -1.1997 O   0  0  0  0  0  0  0  0  0  0  0  0
    3.1238    1.9108   -0.8862 O   0  5  0  0  0  0  0  0  0  0  0  0
    0.9680    1.9807   -0.4775 O   0  0  0  0  0  0  0  0  0  0  0  0
    1.0777   -0.8601   -0.1251 N   0  0  0  0  0  0  0  0  0  0  0  0
    3.1604   -0.5213    0.5304 N   0  0  0  0  0  0  0  0  0  0  0  0
    2.0646    1.3506   -0.4810 N   0  3  0  0  0  0  0  0  0  0  0  0
   -2.3806    0.1647   -0.1238 C   0  0  0  0  0  0  0  0  0  0  0  0
   -0.2374   -0.6062   -0.6968 C   0  0  0  0  0  0  0  0  0  0  0  0
   -3.2083    0.6543    1.0572 C   0  0  0  0  0  0  0  0  0  0  0  0
   -2.9817   -1.0919   -0.7431 C   0  0  0  0  0  0  0  0  0  0  0  0
    2.1064    0.0250   -0.0340 C   0  0  0  0  0  0  0  0  0  0  0  0
    1.4849   -2.0428    0.4076 C   0  0  0  0  0  0  0  0  0  0  0  0
    2.7799   -1.8104    0.8077 C   0  0  0  0  0  0  0  0  0  0  0  0
   -2.3112    0.9736   -0.8624 H   0  0  0  0  0  0  0  0  0  0  0  0
   -0.1575    0.0994   -1.5287 H   0  0  0  0  0  0  0  0  0  0  0  0
   -0.5544   -1.5800   -1.0803 H   0  0  0  0  0  0  0  0  0  0  0  0
   -3.2646   -0.1004    1.8487 H   0  0  0  0  0  0  0  0  0  0  0  0
   -4.2239    0.9282    0.7579 H   0  0  0  0  0  0  0  0  0  0  0  0
   -3.0114   -1.9172   -0.0230 H   0  0  0  0  0  0  0  0  0  0  0  0
   -2.4376   -1.4315   -1.6265 H   0  0  0  0  0  0  0  0  0  0  0  0
    0.8515   -2.9174    0.4601 H   0  0  0  0  0  0  0  0  0  0  0  0
    3.4570   -2.5056    1.2822 H   0  0  0  0  0  0  0  0  0  0  0  0
   -1.6814    1.5592    1.8648 H   0  0  0  0  0  0  0  0  0  0  0  0
   -4.6532   -1.6494   -1.5690 H   0  0  0  0  0  0  0  0  0  0  0  0
  1  9  1  0  0  0  0
  1 10  1  0  0  0  0
  2 11  1  0  0  0  0
  2 25  1  0  0  0  0
  3 12  1  0  0  0  0
  3 26  1  0  0  0  0
  4  8  1  0  0  0  0
  5  8  2  0  0  0  0
  6 10  1  0  0  0  0
  6 13  1  0  0  0  0
  6 14  1  0  0  0  0
  7 13  2  0  0  0  0
  7 15  1  0  0  0  0
  8 13  1  0  0  0  0
  9 11  1  0  0  0  0
  9 12  1  0  0  0  0
  9 16  1  0  0  0  0
 10 17  1  0  0  0  0
 10 18  1  0  0  0  0
 11 19  1  0  0  0  0
 11 20  1  0  0  0  0
 12 21  1  0  0  0  0
 12 22  1  0  0  0  0
 14 15  2  0  0  0  0
 14 23  1  0  0  0  0
 15 24  1  0  0  0  0
M  CHG  2   4  -1   8   1
M  END
> <PUBCHEM_COMPOUND_CID>
129146

> <PUBCHEM_CONFORMER_RMSD>
0.6

> <PUBCHEM_CONFORMER_DIVERSEORDER>
1
99
78
111
123
45
76
28
97
20
61
108
86
87
72
100
11
71
5
80
89
47
126
18
116
93
103
94
107
84
13
110
81
119
92
46
16
112
91
101
51
96
98
95
53
114
88
12
48
115
34
90
41
106
30
104
55
105
7
15
121
27
82
113
66
120
85
10
118
77
54
122
124
17
117
42
67
63
22
38
23
35
52
65
9
33
25
69
125
83
32
109
2
31
62
36
60
56
21
102
8
57
70
14
49
6
75
64
68
40
3
4
29
44
19
74
39
59
24
37
79
50
26
73
58
43

> <PUBCHEM_MMFF94_PARTIAL_CHARGES>
19
1 -0.56
10 0.54
11 0.28
12 0.28
13 0.27
14 -0.3
15 0.08
2 -0.68
23 0.15
24 0.15
25 0.4
26 0.4
3 -0.68
4 -0.52
5 -0.52
6 0.05
7 -0.57
8 0.96
9 0.28

> <PUBCHEM_EFFECTIVE_ROTOR_COUNT>
6

> <PUBCHEM_PHARMACOPHORE_FEATURES>
9
1 1 acceptor
1 2 acceptor
1 2 donor
1 3 acceptor
1 3 donor
1 4 acceptor
1 5 acceptor
4 6 7 8 13 cation
5 6 7 13 14 15 rings

> <PUBCHEM_HEAVY_ATOM_COUNT>
15

> <PUBCHEM_ATOM_DEF_STEREO_COUNT>
0

> <PUBCHEM_ATOM_UDEF_STEREO_COUNT>
0

> <PUBCHEM_BOND_DEF_STEREO_COUNT>
0

> <PUBCHEM_BOND_UDEF_STEREO_COUNT>
0

> <PUBCHEM_ISOTOPIC_ATOM_COUNT>
0

> <PUBCHEM_COMPONENT_COUNT>
1

> <PUBCHEM_CACTVS_TAUTO_COUNT>
1

> <PUBCHEM_CONFORMER_ID>
0001F87A00000001

> <PUBCHEM_MMFF94_ENERGY>
33.6559

> <PUBCHEM_FEATURE_SELFOVERLAP>
45.759

> <PUBCHEM_SHAPE_FINGERPRINT>
10980938 120 18334574659503467492
11086676 242 18118980087272535840
12162725 195 18413670197311248251
12251169 10 18339929199431496907
12696612 119 18337680702189121324
12932764 1 18187374185839065799
13296908 3 16153714214929417963
13538477 17 18058435685457719735
14144814 61 18409446955847856643
14251717 144 18334285496224372470
15501101 241 17894631435452347438
15775835 57 18270975616707690225
16945 1 18187083919117144906
200 152 18341880905912485967
20279233 1 16660361484990804291
20559304 39 18273208711901592242
20645477 70 18114452418659169895
20715346 28 16660370294010841795
21524375 3 18194122043591882332
21639500 275 18261662787611385951
22096605 113 18115299098409721815
2255824 54 18334576828425515722
23557571 272 15841831157641786291
23598291 2 18341900645096738751
2748010 2 17759508985792922822
312423 11 18342186552717263871
3248919 1 18201718431794190767
6992083 37 18053666880337006811
7615 1 18342736291324616657
77492 1 18272370867008998803
88987 49 17274825710099606697

> <PUBCHEM_SHAPE_MULTIPOLES>
264.4
6.6
2.09
1.11
3.72
0.51
-0.19
-0.34
0.05
-1.33
-0.03
0.79
0.21
-1.88

> <PUBCHEM_SHAPE_SELFOVERLAP>
535.199

> <PUBCHEM_SHAPE_VOLUME>
154.7

> <PUBCHEM_COORDINATE_TYPE>
2
5
10

$$$$
