129163
  -OEChem-03292013323D

 55 59  0     1  0  0  0  0  0999 V2000
   -4.6992    1.5570    0.2327 O   0  0  0  0  0  0  0  0  0  0  0  0
   -7.2634   -1.6734    0.0188 O   0  0  0  0  0  0  0  0  0  0  0  0
   -6.4776   -0.2915   -2.3944 O   0  0  0  0  0  0  0  0  0  0  0  0
   -2.0726    2.1012    1.0127 O   0  0  0  0  0  0  0  0  0  0  0  0
    0.4651    2.3156    0.6830 O   0  0  0  0  0  0  0  0  0  0  0  0
    0.9487   -2.9607    0.0015 O   0  0  0  0  0  0  0  0  0  0  0  0
    3.4596   -2.7523   -0.3339 O   0  0  0  0  0  0  0  0  0  0  0  0
    5.3428    2.9873    0.0751 O   0  0  0  0  0  0  0  0  0  0  0  0
   -4.3861    0.4982    1.1536 C   0  0  1  0  0  0  0  0  0  0  0  0
   -6.0327   -0.9674   -0.1251 C   0  0  2  0  0  0  0  0  0  0  0  0
   -5.5756   -0.4673    1.2433 C   0  0  0  0  0  0  0  0  0  0  0  0
   -6.2476    0.2057   -1.0788 C   0  0  1  0  0  0  0  0  0  0  0  0
   -5.0197    1.1190   -1.0914 C   0  0  1  0  0  0  0  0  0  0  0  0
   -3.0002   -0.0708    0.8923 C   0  0  0  0  0  0  0  0  0  0  0  0
   -5.2578    2.3679   -1.9355 C   0  0  0  0  0  0  0  0  0  0  0  0
   -1.8824    0.7619    0.8313 C   0  0  0  0  0  0  0  0  0  0  0  0
   -0.6160    0.2162    0.5894 C   0  0  0  0  0  0  0  0  0  0  0  0
   -2.8583   -1.4453    0.7130 C   0  0  0  0  0  0  0  0  0  0  0  0
   -0.4739   -1.1611    0.4091 C   0  0  0  0  0  0  0  0  0  0  0  0
   -1.5981   -1.9931    0.4714 C   0  0  0  0  0  0  0  0  0  0  0  0
    1.8926    0.5156    0.2697 C   0  0  0  0  0  0  0  0  0  0  0  0
    0.5621    1.1047    0.5270 C   0  0  0  0  0  0  0  0  0  0  0  0
    2.0343   -0.8589    0.0886 C   0  0  0  0  0  0  0  0  0  0  0  0
    0.8565   -1.7490    0.1527 C   0  0  0  0  0  0  0  0  0  0  0  0
    3.3011   -1.4050   -0.1545 C   0  0  0  0  0  0  0  0  0  0  0  0
    3.0171    1.3483    0.2086 C   0  0  0  0  0  0  0  0  0  0  0  0
    4.4370   -0.5809   -0.2188 C   0  0  0  0  0  0  0  0  0  0  0  0
    4.2934    0.8135   -0.0346 C   0  0  0  0  0  0  0  0  0  0  0  0
    5.7141   -1.1131   -0.4620 C   0  0  0  0  0  0  0  0  0  0  0  0
    5.4308    1.6353   -0.0985 C   0  0  0  0  0  0  0  0  0  0  0  0
    6.8331   -0.2823   -0.5226 C   0  0  0  0  0  0  0  0  0  0  0  0
    6.6916    1.0898   -0.3409 C   0  0  0  0  0  0  0  0  0  0  0  0
    8.1813   -0.8648   -0.7829 C   0  0  0  0  0  0  0  0  0  0  0  0
   -4.3217    0.9705    2.1440 H   0  0  0  0  0  0  0  0  0  0  0  0
   -5.3239   -1.6721   -0.5697 H   0  0  0  0  0  0  0  0  0  0  0  0
   -5.3855   -1.3031    1.9268 H   0  0  0  0  0  0  0  0  0  0  0  0
   -6.4212    0.0749    1.6914 H   0  0  0  0  0  0  0  0  0  0  0  0
   -7.1402    0.7677   -0.7759 H   0  0  0  0  0  0  0  0  0  0  0  0
   -4.1586    0.5938   -1.5238 H   0  0  0  0  0  0  0  0  0  0  0  0
   -5.4684    2.1172   -2.9793 H   0  0  0  0  0  0  0  0  0  0  0  0
   -6.0936    2.9548   -1.5388 H   0  0  0  0  0  0  0  0  0  0  0  0
   -4.3767    3.0185   -1.9067 H   0  0  0  0  0  0  0  0  0  0  0  0
   -3.6861   -2.1406    0.7786 H   0  0  0  0  0  0  0  0  0  0  0  0
   -7.1052   -2.4143    0.6285 H   0  0  0  0  0  0  0  0  0  0  0  0
   -7.2441   -0.8883   -2.3499 H   0  0  0  0  0  0  0  0  0  0  0  0
   -1.5144   -3.0688    0.3410 H   0  0  0  0  0  0  0  0  0  0  0  0
    2.8758    2.4178    0.3361 H   0  0  0  0  0  0  0  0  0  0  0  0
   -3.0141    2.3298    1.0428 H   0  0  0  0  0  0  0  0  0  0  0  0
    5.8676   -2.1765   -0.6285 H   0  0  0  0  0  0  0  0  0  0  0  0
    7.5598    1.7430   -0.3884 H   0  0  0  0  0  0  0  0  0  0  0  0
    4.2573   -3.0472    0.1354 H   0  0  0  0  0  0  0  0  0  0  0  0
    8.2971   -1.8258   -0.2701 H   0  0  0  0  0  0  0  0  0  0  0  0
    8.3234   -1.0177   -1.8573 H   0  0  0  0  0  0  0  0  0  0  0  0
    8.9786   -0.2087   -0.4173 H   0  0  0  0  0  0  0  0  0  0  0  0
    4.6115    3.2004    0.6756 H   0  0  0  0  0  0  0  0  0  0  0  0
  1  9  1  0  0  0  0
  1 13  1  0  0  0  0
  2 10  1  0  0  0  0
  2 44  1  0  0  0  0
  3 12  1  0  0  0  0
  3 45  1  0  0  0  0
  4 16  1  0  0  0  0
  4 48  1  0  0  0  0
  5 22  2  0  0  0  0
  6 24  2  0  0  0  0
  7 25  1  0  0  0  0
  7 51  1  0  0  0  0
  8 30  1  0  0  0  0
  8 55  1  0  0  0  0
  9 11  1  0  0  0  0
  9 14  1  0  0  0  0
  9 34  1  0  0  0  0
 10 11  1  0  0  0  0
 10 12  1  0  0  0  0
 10 35  1  0  0  0  0
 11 36  1  0  0  0  0
 11 37  1  0  0  0  0
 12 13  1  0  0  0  0
 12 38  1  0  0  0  0
 13 15  1  0  0  0  0
 13 39  1  0  0  0  0
 14 16  2  0  0  0  0
 14 18  1  0  0  0  0
 15 40  1  0  0  0  0
 15 41  1  0  0  0  0
 15 42  1  0  0  0  0
 16 17  1  0  0  0  0
 17 19  2  0  0  0  0
 17 22  1  0  0  0  0
 18 20  2  0  0  0  0
 18 43  1  0  0  0  0
 19 20  1  0  0  0  0
 19 24  1  0  0  0  0
 20 46  1  0  0  0  0
 21 22  1  0  0  0  0
 21 23  2  0  0  0  0
 21 26  1  0  0  0  0
 23 24  1  0  0  0  0
 23 25  1  0  0  0  0
 25 27  2  0  0  0  0
 26 28  2  0  0  0  0
 26 47  1  0  0  0  0
 27 28  1  0  0  0  0
 27 29  1  0  0  0  0
 28 30  1  0  0  0  0
 29 31  2  0  0  0  0
 29 49  1  0  0  0  0
 30 32  2  0  0  0  0
 31 32  1  0  0  0  0
 31 33  1  0  0  0  0
 32 50  1  0  0  0  0
 33 52  1  0  0  0  0
 33 53  1  0  0  0  0
 33 54  1  0  0  0  0
M  END
> <PUBCHEM_COMPOUND_CID>
129163

> <PUBCHEM_CONFORMER_RMSD>
0.8

> <PUBCHEM_CONFORMER_DIVERSEORDER>
2
3
7
1
6
5
4

> <PUBCHEM_MMFF94_PARTIAL_CHARGES>
39
1 -0.56
10 0.28
12 0.28
13 0.28
14 -0.14
16 0.08
17 0.09
18 -0.15
19 0.09
2 -0.68
20 -0.15
21 0.09
22 0.4
23 0.09
24 0.4
25 0.08
26 -0.15
29 -0.15
3 -0.68
30 0.08
31 -0.14
32 -0.15
33 0.14
4 -0.53
43 0.15
44 0.4
45 0.4
46 0.15
47 0.15
48 0.45
49 0.15
5 -0.57
50 0.15
51 0.45
55 0.45
6 -0.57
7 -0.53
8 -0.53
9 0.42

> <PUBCHEM_EFFECTIVE_ROTOR_COUNT>
2.2

> <PUBCHEM_PHARMACOPHORE_FEATURES>
15
1 1 acceptor
1 2 acceptor
1 2 donor
1 3 acceptor
1 3 donor
1 4 donor
1 5 acceptor
1 6 acceptor
1 7 donor
1 8 donor
6 1 9 10 11 12 13 rings
6 14 16 17 18 19 20 rings
6 17 19 21 22 23 24 rings
6 21 23 25 26 27 28 rings
6 27 28 29 30 31 32 rings

> <PUBCHEM_HEAVY_ATOM_COUNT>
33

> <PUBCHEM_ATOM_DEF_STEREO_COUNT>
4

> <PUBCHEM_ATOM_UDEF_STEREO_COUNT>
0

> <PUBCHEM_BOND_DEF_STEREO_COUNT>
0

> <PUBCHEM_BOND_UDEF_STEREO_COUNT>
0

> <PUBCHEM_ISOTOPIC_ATOM_COUNT>
0

> <PUBCHEM_COMPONENT_COUNT>
1

> <PUBCHEM_CACTVS_TAUTO_COUNT>
346

> <PUBCHEM_CONFORMER_ID>
0001F88B00000002

> <PUBCHEM_MMFF94_ENERGY>
115.238

> <PUBCHEM_FEATURE_SELFOVERLAP>
76.198

> <PUBCHEM_SHAPE_FINGERPRINT>
10763959 59 17967817154538759268
11135926 11 18342461409218014563
11434127 23 18040431080365215935
11578080 2 17314501526789408055
11719270 70 18412261719228183770
12166972 35 18409171038643606297
12236239 1 17632583738003062848
12516196 113 17775005687194874488
12838862 33 18339912793452985224
13782708 43 14045737110441885532
13811026 1 18337954592712724850
14068700 675 17203891868242664505
14767858 380 18201998837186556725
14856354 85 15913329113621117517
15131766 46 16735817816401176652
15183329 4 18410572877065745642
15196674 1 18340495564390340298
15348495 7 10591750005125462165
15461852 350 15213304162224768379
18608769 82 18263930002722807131
18681886 176 18413386557686715272
19611394 137 17897463893538557603
2026 5 16843624678144144014
21033648 144 18335706014340931979
21033648 29 17386013806652988995
21267235 1 18342186573854347658
21792961 116 18261398819554688082
21859007 373 18041827451252692404
22393880 68 18261945255548552403
23522609 53 17416715563618668129
23559900 14 18271241750119398384
23569917 315 18342749515725236886
23569943 247 17054737438943425494
23576562 1 17969224610493363517
24771750 20 18049171264891160436
249057 3 18411987979719071150
255183 451 17842853118773678102
27425 322 17241615108102760096
2838139 119 18412547595712500544
3004659 81 18334297574405489048
335352 9 18412553120216693814
350125 39 18410864239964649960
3633792 109 18411699855252394873
4015057 19 18272370918638810617
4073 2 17969513765705464738
484989 97 18340210807320481594
54039377 194 17774999151004093847
59755656 215 18409172087074127222
999808 66 11239998966385288685

> <PUBCHEM_SHAPE_MULTIPOLES>
632.17
20.32
2.59
1.2
4.16
0.13
-0.45
1.48
-7.41
0.74
-0.13
-2.33
0.35
1.4

> <PUBCHEM_SHAPE_SELFOVERLAP>
1426.778

> <PUBCHEM_SHAPE_VOLUME>
330.3

> <PUBCHEM_COORDINATE_TYPE>
2
5
10

$$$$
