129147
  -OEChem-03292013323D

 31 31  0     0  0  0  0  0  0999 V2000
    1.4523    1.5639    1.1266 S   0  0  0  0  0  0  0  0  0  0  0  0
   -1.2963   -0.0507   -0.8372 S   0  0  0  0  0  0  0  0  0  0  0  0
   -3.0914    1.6822   -0.1614 N   0  0  0  0  0  0  0  0  0  0  0  0
    4.6525   -0.5405    1.0340 N   0  0  0  0  0  0  0  0  0  0  0  0
    3.1033   -1.0542   -0.7392 N   0  0  0  0  0  0  0  0  0  0  0  0
   -3.8944   -0.4867   -0.7146 N   0  0  0  0  0  0  0  0  0  0  0  0
   -5.1868   -2.2148    0.3766 N   0  0  0  0  0  0  0  0  0  0  0  0
   -3.5972   -1.0537    1.5286 N   0  0  0  0  0  0  0  0  0  0  0  0
    3.1559   -3.4971   -0.2051 N   0  0  0  0  0  0  0  0  0  0  0  0
    3.1362    2.0957    0.6921 C   0  0  0  0  0  0  0  0  0  0  0  0
    3.7490    1.2355   -0.4088 C   0  0  0  0  0  0  0  0  0  0  0  0
    0.6613    1.8788   -0.4673 C   0  0  0  0  0  0  0  0  0  0  0  0
   -0.7974    1.5246   -0.4298 C   0  0  0  0  0  0  0  0  0  0  0  0
    3.8238   -0.2405   -0.0251 C   0  0  0  0  0  0  0  0  0  0  0  0
   -1.8619    2.3083   -0.0988 C   0  0  0  0  0  0  0  0  0  0  0  0
   -2.9148    0.4359   -0.5400 C   0  0  0  0  0  0  0  0  0  0  0  0
   -4.2287   -1.2239    0.3185 C   0  0  0  0  0  0  0  0  0  0  0  0
    3.1347   -2.3628   -0.4491 C   0  0  0  0  0  0  0  0  0  0  0  0
    3.1128    3.1463    0.3844 H   0  0  0  0  0  0  0  0  0  0  0  0
    3.7405    2.0422    1.6035 H   0  0  0  0  0  0  0  0  0  0  0  0
    4.7791    1.5753   -0.5790 H   0  0  0  0  0  0  0  0  0  0  0  0
    3.2380    1.3547   -1.3685 H   0  0  0  0  0  0  0  0  0  0  0  0
    1.1419    1.3032   -1.2626 H   0  0  0  0  0  0  0  0  0  0  0  0
    0.7687    2.9410   -0.7146 H   0  0  0  0  0  0  0  0  0  0  0  0
   -1.8159    3.3473    0.1987 H   0  0  0  0  0  0  0  0  0  0  0  0
    4.7708   -1.4913    1.3662 H   0  0  0  0  0  0  0  0  0  0  0  0
    5.1866    0.1774    1.5124 H   0  0  0  0  0  0  0  0  0  0  0  0
   -5.7383   -2.4575   -0.4392 H   0  0  0  0  0  0  0  0  0  0  0  0
   -5.3665   -2.7287    1.2321 H   0  0  0  0  0  0  0  0  0  0  0  0
   -3.8545   -1.6234    2.3279 H   0  0  0  0  0  0  0  0  0  0  0  0
   -2.8625   -0.3735    1.6862 H   0  0  0  0  0  0  0  0  0  0  0  0
  1 10  1  0  0  0  0
  1 12  1  0  0  0  0
  2 13  1  0  0  0  0
  2 16  1  0  0  0  0
  3 15  1  0  0  0  0
  3 16  2  0  0  0  0
  4 14  1  0  0  0  0
  4 26  1  0  0  0  0
  4 27  1  0  0  0  0
  5 14  2  0  0  0  0
  5 18  1  0  0  0  0
  6 16  1  0  0  0  0
  6 17  2  0  0  0  0
  7 17  1  0  0  0  0
  7 28  1  0  0  0  0
  7 29  1  0  0  0  0
  8 17  1  0  0  0  0
  8 30  1  0  0  0  0
  8 31  1  0  0  0  0
  9 18  3  0  0  0  0
 10 11  1  0  0  0  0
 10 19  1  0  0  0  0
 10 20  1  0  0  0  0
 11 14  1  0  0  0  0
 11 21  1  0  0  0  0
 11 22  1  0  0  0  0
 12 13  1  0  0  0  0
 12 23  1  0  0  0  0
 12 24  1  0  0  0  0
 13 15  2  0  0  0  0
 15 25  1  0  0  0  0
M  END
> <PUBCHEM_COMPOUND_CID>
129147

> <PUBCHEM_CONFORMER_RMSD>
0.8

> <PUBCHEM_CONFORMER_DIVERSEORDER>
14
30
175
86
34
188
195
93
160
13
68
107
172
49
162
186
157
142
5
70
69
94
111
212
61
42
102
28
66
64
193
114
128
98
184
108
126
204
130
211
127
222
97
144
164
112
6
154
203
74
92
16
44
58
71
10
100
87
4
174
119
80
214
166
1
89
225
33
36
197
7
62
96
168
65
22
190
32
124
47
136
52
75
110
67
18
88
205
216
3
91
11
82
147
159
85
72
138
95
2
173
99
120
83
123
76
15
169
79
45
84
135
224
115
78
133
12
31
118
221
137
25
17
39
50
165
179
106
163
8
151
170
21
132
103
19
149
77
145
73
146
20
210
35
152
43
9
223
150
201
121
189
153
141
24
177
213
23
41
140
148
38
220
181
27
171
215
158
129
176
180
46
60
226
57
54
209
105
194
227
161
104
219
122
109
218
53
143
182
206
63
81
134
198
26
217
202
55
29
116
90
196
178
187
56
207
139
155
183
156
191
101
40
199
131
208
113
167
37
125
59
192
185
117
51
48
200

> <PUBCHEM_MMFF94_PARTIAL_CHARGES>
25
1 -0.46
10 0.23
11 0.06
12 0.41
13 -0.14
14 0.44
15 0.08
16 0.5
17 0.55
18 0.66
2 -0.08
25 0.15
26 0.4
27 0.4
28 0.4
29 0.4
3 -0.57
30 0.4
31 0.4
4 -0.85
5 -0.56
6 -0.58
7 -0.85
8 -0.85
9 -0.56

> <PUBCHEM_EFFECTIVE_ROTOR_COUNT>
6

> <PUBCHEM_PHARMACOPHORE_FEATURES>
9
1 4 donor
1 7 donor
1 8 donor
1 9 acceptor
3 4 5 14 cation
3 5 9 18 cation
4 1 10 11 12 hydrophobe
4 6 7 8 17 cation
5 2 3 13 15 16 rings

> <PUBCHEM_HEAVY_ATOM_COUNT>
18

> <PUBCHEM_ATOM_DEF_STEREO_COUNT>
0

> <PUBCHEM_ATOM_UDEF_STEREO_COUNT>
0

> <PUBCHEM_BOND_DEF_STEREO_COUNT>
0

> <PUBCHEM_BOND_UDEF_STEREO_COUNT>
0

> <PUBCHEM_ISOTOPIC_ATOM_COUNT>
0

> <PUBCHEM_COMPONENT_COUNT>
1

> <PUBCHEM_CACTVS_TAUTO_COUNT>
6

> <PUBCHEM_CONFORMER_ID>
0001F87B0000000E

> <PUBCHEM_MMFF94_ENERGY>
43.5368

> <PUBCHEM_FEATURE_SELFOVERLAP>
45.976

> <PUBCHEM_SHAPE_FINGERPRINT>
108634 29 17895483625810380266
12596602 18 16629963351215350618
12616999 72 18333736844892345404
13255334 9 18338801109043964478
13533116 47 18130227159654611443
14251705 54 18269834208137957678
14251731 5 18268996397267700406
14252887 29 18264204879949106545
14617045 38 18339933730458548398
15342816 4 17458333161203814752
15375462 189 17989201560160198508
15537594 2 18059576935761846470
15635459 17 18335704978720934090
1768 124 18124603243736827251
17834074 16 18412260627530510756
1813 80 17676210212474277077
19107657 162 18335134327864919977
192875 21 11386627634095491348
193927 3 17968383458792683449
20403669 9 18260830436071998643
20645477 70 18335696178565033380
20765182 33 18126876840408449833
21315759 227 18335128753208281862
221490 88 18339644434815779534
23503958 8 18411983529205070449
23557571 272 17821998788111659925
23559900 14 18337104558312626716
3117164 225 18127991732177339097
5104073 3 18342170059990379832
5352402 22 18343025522811803793
6433294 58 18411419505578539534
88748 71 18265339399992364602
9709674 26 18336828598089520766
9795274 37 18118401739909214474

> <PUBCHEM_SHAPE_MULTIPOLES>
343.26
10.42
3.25
1.04
3.52
1.84
0.24
6.14
1.55
-1.69
0.03
0.12
-0.01
1.21

> <PUBCHEM_SHAPE_SELFOVERLAP>
669.207

> <PUBCHEM_SHAPE_VOLUME>
207.4

> <PUBCHEM_COORDINATE_TYPE>
2
5
10

$$$$
