129126
  -OEChem-03292013323D

 32 33  0     1  0  0  0  0  0999 V2000
    1.5808   -0.5499   -1.0342 O   0  0  0  0  0  0  0  0  0  0  0  0
    4.2380    0.6892   -0.1965 O   0  0  0  0  0  0  0  0  0  0  0  0
    2.4140    2.1315    1.2099 O   0  0  0  0  0  0  0  0  0  0  0  0
    1.6543   -3.2935   -0.4596 O   0  0  0  0  0  0  0  0  0  0  0  0
   -3.2653   -1.3646    0.3270 O   0  0  0  0  0  0  0  0  0  0  0  0
   -0.0904    1.0109   -0.4009 N   0  0  0  0  0  0  0  0  0  0  0  0
   -0.9449    0.0102   -0.1398 N   0  0  0  0  0  0  0  0  0  0  0  0
   -2.0363    2.0048   -0.3909 N   0  0  0  0  0  0  0  0  0  0  0  0
   -4.4853    0.6353    0.0882 N   0  0  0  0  0  0  0  0  0  0  0  0
    3.2822   -0.0575    0.5564 C   0  0  1  0  0  0  0  0  0  0  0  0
    2.0726    0.8111    0.8405 C   0  0  2  0  0  0  0  0  0  0  0  0
    2.6971   -1.1481   -0.3355 C   0  0  1  0  0  0  0  0  0  0  0  0
    1.3468    0.7654   -0.4954 C   0  0  1  0  0  0  0  0  0  0  0  0
    2.1846   -2.3465    0.4510 C   0  0  0  0  0  0  0  0  0  0  0  0
   -0.7466    2.1928   -0.5491 C   0  0  0  0  0  0  0  0  0  0  0  0
   -2.1087    0.6636   -0.1447 C   0  0  0  0  0  0  0  0  0  0  0  0
   -3.3488   -0.0106    0.0946 C   0  0  0  0  0  0  0  0  0  0  0  0
   -4.4441   -2.1441    0.5791 C   0  0  0  0  0  0  0  0  0  0  0  0
    3.7782   -0.4213    1.4607 H   0  0  0  0  0  0  0  0  0  0  0  0
    1.4644    0.3694    1.6384 H   0  0  0  0  0  0  0  0  0  0  0  0
    3.4041   -1.4818   -1.1034 H   0  0  0  0  0  0  0  0  0  0  0  0
    1.7408    1.5003   -1.2085 H   0  0  0  0  0  0  0  0  0  0  0  0
    1.3850   -2.0707    1.1458 H   0  0  0  0  0  0  0  0  0  0  0  0
    2.9921   -2.8236    1.0138 H   0  0  0  0  0  0  0  0  0  0  0  0
    4.9770    0.0911   -0.4010 H   0  0  0  0  0  0  0  0  0  0  0  0
    2.9972    2.4951    0.5220 H   0  0  0  0  0  0  0  0  0  0  0  0
   -0.2530    3.1302   -0.7630 H   0  0  0  0  0  0  0  0  0  0  0  0
    0.9403   -2.8563   -0.9547 H   0  0  0  0  0  0  0  0  0  0  0  0
   -5.2722    0.0113    0.2745 H   0  0  0  0  0  0  0  0  0  0  0  0
   -5.1136   -2.1063   -0.2849 H   0  0  0  0  0  0  0  0  0  0  0  0
   -4.9439   -1.7908    1.4854 H   0  0  0  0  0  0  0  0  0  0  0  0
   -4.1338   -3.1810    0.7342 H   0  0  0  0  0  0  0  0  0  0  0  0
  1 12  1  0  0  0  0
  1 13  1  0  0  0  0
  2 10  1  0  0  0  0
  2 25  1  0  0  0  0
  3 11  1  0  0  0  0
  3 26  1  0  0  0  0
  4 14  1  0  0  0  0
  4 28  1  0  0  0  0
  5 17  1  0  0  0  0
  5 18  1  0  0  0  0
  6  7  1  0  0  0  0
  6 13  1  0  0  0  0
  6 15  1  0  0  0  0
  7 16  2  0  0  0  0
  8 15  2  0  0  0  0
  8 16  1  0  0  0  0
  9 17  2  0  0  0  0
  9 29  1  0  0  0  0
 10 11  1  0  0  0  0
 10 12  1  0  0  0  0
 10 19  1  0  0  0  0
 11 13  1  0  0  0  0
 11 20  1  0  0  0  0
 12 14  1  0  0  0  0
 12 21  1  0  0  0  0
 13 22  1  0  0  0  0
 14 23  1  0  0  0  0
 14 24  1  0  0  0  0
 15 27  1  0  0  0  0
 16 17  1  0  0  0  0
 18 30  1  0  0  0  0
 18 31  1  0  0  0  0
 18 32  1  0  0  0  0
M  END
> <PUBCHEM_COMPOUND_CID>
129126

> <PUBCHEM_CONFORMER_RMSD>
0.6

> <PUBCHEM_CONFORMER_DIVERSEORDER>
5
91
144
123
53
15
34
2
25
137
60
129
79
23
66
93
43
22
122
21
63
113
95
1
83
12
86
41
104
141
88
27
84
114
38
78
4
59
89
85
90
30
35
102
37
94
69
7
134
31
54
140
106
28
42
64
139
107
11
146
24
75
120
18
57
103
128
67
72
130
142
16
99
105
68
101
10
44
14
52
40
115
145
20
117
46
47
45
97
9
126
138
49
39
77
87
8
76
143
80
74
50
121
17
131
56
26
70
136
58
33
65
6
19
92
48
29
124
119
73
110
96
3
71
100
32
81
13
132
133
62
112
55
111
135
51
109
98
116
127
118
82
61
108
125
36

> <PUBCHEM_MMFF94_PARTIAL_CHARGES>
23
1 -0.56
10 0.28
11 0.28
12 0.28
13 0.54
14 0.28
15 0.04
16 0.43
17 0.69
18 0.28
2 -0.68
25 0.4
26 0.4
27 0.15
28 0.4
29 0.4
3 -0.68
4 -0.68
5 -0.43
6 0.31
7 -0.71
8 -0.57
9 -0.85

> <PUBCHEM_EFFECTIVE_ROTOR_COUNT>
5

> <PUBCHEM_PHARMACOPHORE_FEATURES>
12
1 1 acceptor
1 2 acceptor
1 2 donor
1 3 acceptor
1 3 donor
1 4 acceptor
1 4 donor
1 9 donor
3 6 8 15 cation
3 7 8 16 cation
5 1 10 11 12 13 rings
5 6 7 8 15 16 rings

> <PUBCHEM_HEAVY_ATOM_COUNT>
18

> <PUBCHEM_ATOM_DEF_STEREO_COUNT>
4

> <PUBCHEM_ATOM_UDEF_STEREO_COUNT>
0

> <PUBCHEM_BOND_DEF_STEREO_COUNT>
0

> <PUBCHEM_BOND_UDEF_STEREO_COUNT>
0

> <PUBCHEM_ISOTOPIC_ATOM_COUNT>
0

> <PUBCHEM_COMPONENT_COUNT>
1

> <PUBCHEM_CACTVS_TAUTO_COUNT>
1

> <PUBCHEM_CONFORMER_ID>
0001F86600000005

> <PUBCHEM_MMFF94_ENERGY>
39.0732

> <PUBCHEM_FEATURE_SELFOVERLAP>
63.662

> <PUBCHEM_SHAPE_FINGERPRINT>
10366900 7 18342451556283293945
10616163 171 18408889546486747087
10618630 7 18333453118798513189
12500047 106 18190170183795120037
12506688 2 18268994185190594858
12553582 1 18189352297768252383
13533116 47 18200872869187965459
14178342 30 18263357014813201104
14223421 5 18410851032022160885
14251705 54 18408889520738178699
14252887 29 18335989748148284625
15375462 6 18410852123107605420
15422964 175 18335421283499196031
16945 1 18270942593099621268
17834074 16 18411419479728951899
1813 80 17168156624196579493
19049666 15 18196082236147558600
19107657 46 18408604773049006183
20281475 54 18335990800389099437
20442098 301 18342731906020901015
20645477 70 18131062689274645335
21501925 9 18264204897650844637
21673915 165 18127124410449575303
221490 88 18339084778997246870
23402539 116 17967807267180645356
23557571 272 17458621160193676572
23559900 14 18335978666937741780
2871803 45 18335417954477691254
31174 14 18201431471848902360
33824 294 18411696603830166050
474229 33 18336826493972335502
5104073 3 18412542085253467544
5902787 121 17830727665307102674
7364860 26 18269552754509508766
81228 2 18041284253653353029
9709674 26 18266457611918186687

> <PUBCHEM_SHAPE_MULTIPOLES>
321.16
7.77
2.81
0.86
5.55
1.58
0.08
2.36
1.26
-0.16
0
-0.39
-0.1
0.94

> <PUBCHEM_SHAPE_SELFOVERLAP>
669.718

> <PUBCHEM_SHAPE_VOLUME>
183.3

> <PUBCHEM_COORDINATE_TYPE>
2
5
10

$$$$
