129114
  -OEChem-03292013323D

 46 49  0     1  0  0  0  0  0999 V2000
   -0.3497   -0.8171   -1.9888 O   0  0  0  0  0  0  0  0  0  0  0  0
    0.2268    1.8036    0.5325 O   0  0  0  0  0  0  0  0  0  0  0  0
    4.8476    0.0741   -0.7568 O   0  0  0  0  0  0  0  0  0  0  0  0
   -5.9742    0.0847    0.3447 O   0  0  0  0  0  0  0  0  0  0  0  0
    0.8581    3.5861   -0.6112 O   0  5  0  0  0  0  0  0  0  0  0  0
    1.2200    3.5554    1.5888 O   0  0  0  0  0  0  0  0  0  0  0  0
    0.8223    3.0931    0.5170 N   0  3  0  0  0  0  0  0  0  0  0  0
    1.8042   -1.4335   -0.0808 C   0  0  2  0  0  0  0  0  0  0  0  0
    2.5624   -0.0968    0.0671 C   0  0  2  0  0  0  0  0  0  0  0  0
    0.3339   -1.2876    0.3249 C   0  0  1  0  0  0  0  0  0  0  0  0
   -0.3611   -0.2761   -0.6524 C   0  0  1  0  0  0  0  0  0  0  0  0
    1.9411    0.9147   -0.8994 C   0  0  0  0  0  0  0  0  0  0  0  0
    0.4141    1.0795   -0.6825 C   0  0  2  0  0  0  0  0  0  0  0  0
    2.7062   -2.4486    0.6119 C   0  0  0  0  0  0  0  0  0  0  0  0
   -0.4127   -2.6241    0.3076 C   0  0  0  0  0  0  0  0  0  0  0  0
    3.9494   -0.6090   -0.2837 C   0  0  0  0  0  0  0  0  0  0  0  0
    4.0970   -2.0820    0.0673 C   0  0  0  0  0  0  0  0  0  0  0  0
   -1.8568   -0.1709   -0.3552 C   0  0  0  0  0  0  0  0  0  0  0  0
    2.6797    0.4580    1.5015 C   0  0  0  0  0  0  0  0  0  0  0  0
   -1.8255   -2.4313    0.8508 C   0  0  0  0  0  0  0  0  0  0  0  0
   -2.5354   -1.2111    0.3171 C   0  0  0  0  0  0  0  0  0  0  0  0
   -2.6099    0.9279   -0.8109 C   0  0  0  0  0  0  0  0  0  0  0  0
   -3.9176   -1.1054    0.5546 C   0  0  0  0  0  0  0  0  0  0  0  0
   -3.9832    1.0154   -0.5754 C   0  0  0  0  0  0  0  0  0  0  0  0
   -4.6368    0.0007    0.1110 C   0  0  0  0  0  0  0  0  0  0  0  0
    1.8129   -1.7273   -1.1443 H   0  0  0  0  0  0  0  0  0  0  0  0
    0.2767   -0.8994    1.3498 H   0  0  0  0  0  0  0  0  0  0  0  0
    2.0973    0.5583   -1.9276 H   0  0  0  0  0  0  0  0  0  0  0  0
    2.5069    1.8498   -0.8454 H   0  0  0  0  0  0  0  0  0  0  0  0
    0.0282    1.6567   -1.5334 H   0  0  0  0  0  0  0  0  0  0  0  0
    2.4494   -3.4824    0.3609 H   0  0  0  0  0  0  0  0  0  0  0  0
    2.6678   -2.3495    1.7020 H   0  0  0  0  0  0  0  0  0  0  0  0
    0.0988   -3.3655    0.9321 H   0  0  0  0  0  0  0  0  0  0  0  0
   -0.4473   -3.0439   -0.7045 H   0  0  0  0  0  0  0  0  0  0  0  0
    4.3225   -2.6417   -0.8449 H   0  0  0  0  0  0  0  0  0  0  0  0
    4.8752   -2.2305    0.8189 H   0  0  0  0  0  0  0  0  0  0  0  0
    3.2944   -0.1814    2.1457 H   0  0  0  0  0  0  0  0  0  0  0  0
    3.1768    1.4350    1.4916 H   0  0  0  0  0  0  0  0  0  0  0  0
    1.7179    0.5721    2.0043 H   0  0  0  0  0  0  0  0  0  0  0  0
   -1.7768   -2.3381    1.9435 H   0  0  0  0  0  0  0  0  0  0  0  0
   -2.4116   -3.3306    0.6251 H   0  0  0  0  0  0  0  0  0  0  0  0
   -1.0630   -1.4691   -2.0915 H   0  0  0  0  0  0  0  0  0  0  0  0
   -2.1417    1.7354   -1.3662 H   0  0  0  0  0  0  0  0  0  0  0  0
   -4.4293   -1.9016    1.0918 H   0  0  0  0  0  0  0  0  0  0  0  0
   -4.5351    1.8794   -0.9358 H   0  0  0  0  0  0  0  0  0  0  0  0
   -6.2601   -0.7069    0.8321 H   0  0  0  0  0  0  0  0  0  0  0  0
  1 11  1  0  0  0  0
  1 42  1  0  0  0  0
  2  7  1  0  0  0  0
  2 13  1  0  0  0  0
  3 16  2  0  0  0  0
  4 25  1  0  0  0  0
  4 46  1  0  0  0  0
  5  7  1  0  0  0  0
  6  7  2  0  0  0  0
  8  9  1  0  0  0  0
  8 10  1  0  0  0  0
  8 14  1  0  0  0  0
  8 26  1  0  0  0  0
  9 12  1  0  0  0  0
  9 16  1  0  0  0  0
  9 19  1  0  0  0  0
 10 11  1  0  0  0  0
 10 15  1  0  0  0  0
 10 27  1  0  0  0  0
 11 13  1  0  0  0  0
 11 18  1  0  0  0  0
 12 13  1  0  0  0  0
 12 28  1  0  0  0  0
 12 29  1  0  0  0  0
 13 30  1  0  0  0  0
 14 17  1  0  0  0  0
 14 31  1  0  0  0  0
 14 32  1  0  0  0  0
 15 20  1  0  0  0  0
 15 33  1  0  0  0  0
 15 34  1  0  0  0  0
 16 17  1  0  0  0  0
 17 35  1  0  0  0  0
 17 36  1  0  0  0  0
 18 21  2  0  0  0  0
 18 22  1  0  0  0  0
 19 37  1  0  0  0  0
 19 38  1  0  0  0  0
 19 39  1  0  0  0  0
 20 21  1  0  0  0  0
 20 40  1  0  0  0  0
 20 41  1  0  0  0  0
 21 23  1  0  0  0  0
 22 24  2  0  0  0  0
 22 43  1  0  0  0  0
 23 25  2  0  0  0  0
 23 44  1  0  0  0  0
 24 25  1  0  0  0  0
 24 45  1  0  0  0  0
M  CHG  2   5  -1   7   1
M  END
> <PUBCHEM_COMPOUND_CID>
129114

> <PUBCHEM_CONFORMER_RMSD>
0.6

> <PUBCHEM_CONFORMER_DIVERSEORDER>
1
5
2
3
4

> <PUBCHEM_MMFF94_PARTIAL_CHARGES>
24
1 -0.68
11 0.42
13 0.28
16 0.45
17 0.06
18 -0.14
2 -0.27
20 0.14
21 -0.14
22 -0.15
23 -0.15
24 -0.15
25 0.08
3 -0.57
4 -0.53
42 0.4
43 0.15
44 0.15
45 0.15
46 0.45
5 -0.52
6 -0.52
7 1.03
9 0.06

> <PUBCHEM_EFFECTIVE_ROTOR_COUNT>
3.2

> <PUBCHEM_PHARMACOPHORE_FEATURES>
10
1 1 acceptor
1 1 donor
1 3 acceptor
1 4 donor
1 5 acceptor
1 6 acceptor
5 8 9 14 16 17 rings
6 10 11 15 18 20 21 rings
6 18 21 22 23 24 25 rings
6 8 9 10 11 12 13 rings

> <PUBCHEM_HEAVY_ATOM_COUNT>
25

> <PUBCHEM_ATOM_DEF_STEREO_COUNT>
4

> <PUBCHEM_ATOM_UDEF_STEREO_COUNT>
1

> <PUBCHEM_BOND_DEF_STEREO_COUNT>
0

> <PUBCHEM_BOND_UDEF_STEREO_COUNT>
0

> <PUBCHEM_ISOTOPIC_ATOM_COUNT>
0

> <PUBCHEM_COMPONENT_COUNT>
1

> <PUBCHEM_CACTVS_TAUTO_COUNT>
18

> <PUBCHEM_CONFORMER_ID>
0001F85A00000001

> <PUBCHEM_MMFF94_ENERGY>
95.4231

> <PUBCHEM_FEATURE_SELFOVERLAP>
50.913

> <PUBCHEM_SHAPE_FINGERPRINT>
10366900 7 18113335340915567243
104564 63 18055635014751424136
10863032 1 18335701611434996706
10967382 1 18335420140668844326
1100329 8 18336829787626968570
11112241 14 16913956300465806888
11578080 2 17487045915093917027
12011746 2 18408043996206598999
12035758 1 18409158939466935385
12403259 226 18335416885684598493
12403259 415 18186792600655673469
12507560 14 18340769256279993295
12553582 1 18338504283980686526
12633257 1 18261664965344590283
12788726 201 18196374723889466536
12954195 1 17981905051286520574
13132413 78 18408887300086625493
13134695 92 18343577430378167261
13140716 1 18121211240940883481
14022347 108 18336267856029169834
14178342 30 17686615058110426449
14223421 5 18047753990202266019
14787075 74 18261111863635361183
14790565 3 18335711489754523053
14866123 147 17113818492689560203
14955137 171 18202010931635237919
15196674 1 18260548875048385151
15238133 3 18339658737015086589
15295992 7 18339089297555465633
1601671 61 18408324384492903278
16945 1 18264481965374119622
17349148 13 17847061082367685031
17804303 29 18261116304858223167
18785283 64 18117841220638120633
19591789 44 18191020114831166155
20510252 161 18192710051375613156
20600515 1 18337402538748559276
20642791 178 17753621431807567524
20905425 154 17908983201568237990
21029758 11 18410855434590525071
21033648 29 17822838850051149773
21267235 1 18261963929502534986
21279426 13 18119246164775588319
21285901 2 17916034460253271054
23175994 123 18342462512718284367
23184049 59 18060132133030383055
23558518 356 17831008396737467363
23559900 14 18189333631755942589
3004659 81 17968380040157354430
335352 9 18334579031606569503
34934 24 18411697721012377398
350125 39 18333455339935110141
5104073 3 18187928331035658315
7364860 26 18267024053732591556
7832392 63 18340482373876257250
81228 2 18054802680244005136
8509985 295 18407758119188732865
9709674 26 18263363762486716259
9981440 41 17477188896651581889

> <PUBCHEM_SHAPE_MULTIPOLES>
474.29
8.33
3.28
1.14
5.47
2.28
0
-1.91
-0.15
-1.51
-1.04
-0.3
0.36
0.56

> <PUBCHEM_SHAPE_SELFOVERLAP>
1040.519

> <PUBCHEM_SHAPE_VOLUME>
254

> <PUBCHEM_COORDINATE_TYPE>
2
5
10

$$$$
