129111
  -OEChem-03292013323D

 33 34  0     1  0  0  0  0  0999 V2000
   -2.1543    0.1335   -1.4138 O   0  0  0  0  0  0  0  0  0  0  0  0
   -3.8562   -0.7251    1.6272 O   0  0  0  0  0  0  0  0  0  0  0  0
   -2.3614   -2.5242    0.1846 O   0  0  0  0  0  0  0  0  0  0  0  0
   -4.9829    1.6598    0.3079 O   0  0  0  0  0  0  0  0  0  0  0  0
    3.1526    2.5551    0.4075 O   0  5  0  0  0  0  0  0  0  0  0  0
    1.0178    2.3066   -0.0396 O   0  0  0  0  0  0  0  0  0  0  0  0
    0.0196    0.1100   -0.4767 N   0  0  0  0  0  0  0  0  0  0  0  0
    1.4579   -1.7671   -0.4016 N   0  0  0  0  0  0  0  0  0  0  0  0
    2.1654    1.8329    0.1332 N   0  3  0  0  0  0  0  0  0  0  0  0
    3.8020   -1.4933    0.0862 N   0  0  0  0  0  0  0  0  0  0  0  0
    4.7004    0.6567    0.4977 N   0  0  0  0  0  0  0  0  0  0  0  0
   -2.8117   -0.2233    0.8215 C   0  0  1  0  0  0  0  0  0  0  0  0
   -1.7635   -1.2628    0.4772 C   0  0  2  0  0  0  0  0  0  0  0  0
   -3.3026    0.2011   -0.5518 C   0  0  1  0  0  0  0  0  0  0  0  0
   -1.1441   -0.6858   -0.7911 C   0  0  1  0  0  0  0  0  0  0  0  0
   -3.8779    1.6064   -0.5770 C   0  0  0  0  0  0  0  0  0  0  0  0
    1.2875   -0.4190   -0.2876 C   0  0  0  0  0  0  0  0  0  0  0  0
    2.3542    0.4279    0.0135 C   0  0  0  0  0  0  0  0  0  0  0  0
    3.5874   -0.1653    0.1894 C   0  0  0  0  0  0  0  0  0  0  0  0
    2.7096   -2.2243   -0.2069 C   0  0  0  0  0  0  0  0  0  0  0  0
   -2.3386    0.6218    1.3373 H   0  0  0  0  0  0  0  0  0  0  0  0
   -1.0510   -1.4275    1.2916 H   0  0  0  0  0  0  0  0  0  0  0  0
   -4.0573   -0.5056   -0.9206 H   0  0  0  0  0  0  0  0  0  0  0  0
   -0.8935   -1.4660   -1.5190 H   0  0  0  0  0  0  0  0  0  0  0  0
   -4.2085    1.8676   -1.5878 H   0  0  0  0  0  0  0  0  0  0  0  0
   -3.1304    2.3468   -0.2717 H   0  0  0  0  0  0  0  0  0  0  0  0
   -0.1857    0.9954   -0.0293 H   0  0  0  0  0  0  0  0  0  0  0  0
   -3.4566   -1.0563    2.4495 H   0  0  0  0  0  0  0  0  0  0  0  0
   -2.8485   -2.8041    0.9783 H   0  0  0  0  0  0  0  0  0  0  0  0
   -5.3346    2.5656    0.2720 H   0  0  0  0  0  0  0  0  0  0  0  0
    2.8528   -3.2941   -0.2958 H   0  0  0  0  0  0  0  0  0  0  0  0
    4.5541    1.4633    1.0915 H   0  0  0  0  0  0  0  0  0  0  0  0
    5.5885    0.1782    0.5943 H   0  0  0  0  0  0  0  0  0  0  0  0
  1 14  1  0  0  0  0
  1 15  1  0  0  0  0
  2 12  1  0  0  0  0
  2 28  1  0  0  0  0
  3 13  1  0  0  0  0
  3 29  1  0  0  0  0
  4 16  1  0  0  0  0
  4 30  1  0  0  0  0
  5  9  1  0  0  0  0
  6  9  2  0  0  0  0
  7 15  1  0  0  0  0
  7 17  1  0  0  0  0
  7 27  1  0  0  0  0
  8 17  2  0  0  0  0
  8 20  1  0  0  0  0
  9 18  1  0  0  0  0
 10 19  1  0  0  0  0
 10 20  2  0  0  0  0
 11 19  1  0  0  0  0
 11 32  1  0  0  0  0
 11 33  1  0  0  0  0
 12 13  1  0  0  0  0
 12 14  1  0  0  0  0
 12 21  1  0  0  0  0
 13 15  1  0  0  0  0
 13 22  1  0  0  0  0
 14 16  1  0  0  0  0
 14 23  1  0  0  0  0
 15 24  1  0  0  0  0
 16 25  1  0  0  0  0
 16 26  1  0  0  0  0
 17 18  1  0  0  0  0
 18 19  2  0  0  0  0
 20 31  1  0  0  0  0
M  CHG  2   5  -1   9   1
M  END
> <PUBCHEM_COMPOUND_CID>
129111

> <PUBCHEM_CONFORMER_RMSD>
0.8

> <PUBCHEM_CONFORMER_DIVERSEORDER>
4
17
29
2
27
15
16
26
21
22
3
23
6
20
10
25
19
12
28
9
18
8
24
11
13
14
1
7
5

> <PUBCHEM_MMFF94_PARTIAL_CHARGES>
27
1 -0.56
10 -0.62
11 -0.9
12 0.28
13 0.28
14 0.28
15 0.65
16 0.28
17 0.41
18 0.13
19 0.41
2 -0.68
20 0.47
27 0.4
28 0.4
29 0.4
3 -0.68
30 0.4
31 0.15
32 0.4
33 0.4
4 -0.68
5 -0.52
6 -0.52
7 -0.87
8 -0.62
9 0.91

> <PUBCHEM_EFFECTIVE_ROTOR_COUNT>
5

> <PUBCHEM_PHARMACOPHORE_FEATURES>
17
1 1 acceptor
1 11 cation
1 11 donor
1 2 acceptor
1 2 donor
1 3 acceptor
1 3 donor
1 4 acceptor
1 4 donor
1 5 acceptor
1 5 anion
1 6 acceptor
1 7 donor
3 7 8 17 cation
3 8 10 20 cation
5 1 12 13 14 15 rings
6 8 10 17 18 19 20 rings

> <PUBCHEM_HEAVY_ATOM_COUNT>
20

> <PUBCHEM_ATOM_DEF_STEREO_COUNT>
4

> <PUBCHEM_ATOM_UDEF_STEREO_COUNT>
0

> <PUBCHEM_BOND_DEF_STEREO_COUNT>
0

> <PUBCHEM_BOND_UDEF_STEREO_COUNT>
0

> <PUBCHEM_ISOTOPIC_ATOM_COUNT>
0

> <PUBCHEM_COMPONENT_COUNT>
1

> <PUBCHEM_CACTVS_TAUTO_COUNT>
13

> <PUBCHEM_CONFORMER_ID>
0001F85700000004

> <PUBCHEM_MMFF94_ENERGY>
84.6888

> <PUBCHEM_FEATURE_SELFOVERLAP>
86.501

> <PUBCHEM_SHAPE_FINGERPRINT>
10366900 7 18044103568516715899
10498660 4 13686304538934868355
10608611 8 18408882962143237101
11089746 13 17275091826489642424
11471102 20 18412538787093110430
12236239 1 17418087715427245126
12251169 10 18411142467112771291
12500047 106 18335135397337975055
12507560 40 18335426772493643987
12633257 1 18188193352066328680
13140716 1 18337664304368021122
13675066 3 18187370917347815363
14790565 3 18121221145985443564
15219456 202 18335138700046421894
15295992 7 18337960000219053161
15375358 24 18410005507738897142
15653759 3 17967253104524485875
1601671 61 18409730677746616940
18186145 218 18201728400518493822
19049666 15 18042960982666897767
200 152 18059564841477208847
20645477 56 18333449833465081877
20645477 70 18200025140858738790
20681677 76 18408882975413377703
21033648 29 17677599896482873645
21065198 57 18408324388767057451
21065199 12 18334862757203769155
21421861 104 17751348487874658882
23175994 123 18267590091598908310
23558518 356 18043811098587368131
23559900 14 18341891849357436530
3268164 11 13901902272578260345
34934 24 18412537700513993510
351380 180 18339358570472429517
5104073 3 18335699438059973083
602551 16 16588316006865545906
74978 22 18411698789979101751
81228 2 17766567841795118786
9709674 26 18411700993392647087

> <PUBCHEM_SHAPE_MULTIPOLES>
351.47
8.88
2.45
0.93
1.75
0.35
-0.06
2.23
-1.48
-0.93
-0.14
0.84
-0.1
0.79

> <PUBCHEM_SHAPE_SELFOVERLAP>
743.973

> <PUBCHEM_SHAPE_VOLUME>
193.5

> <PUBCHEM_COORDINATE_TYPE>
2
5
10

$$$$
