129130
  -OEChem-03292013323D

 49 50  0     1  0  0  0  0  0999 V2000
    0.2489    0.4422    2.1299 O   0  0  0  0  0  0  0  0  0  0  0  0
   -1.2493    2.9749   -0.9464 O   0  0  0  0  0  0  0  0  0  0  0  0
   -0.8709   -4.4460    0.4856 O   0  0  0  0  0  0  0  0  0  0  0  0
    0.2437    4.5733   -0.3749 O   0  0  0  0  0  0  0  0  0  0  0  0
    0.5512   -4.7640   -1.7872 O   0  0  0  0  0  0  0  0  0  0  0  0
    0.2312    0.9779   -0.1290 N   0  0  0  0  0  0  0  0  0  0  0  0
    0.7330   -3.6431   -0.9664 N   0  0  0  0  0  0  0  0  0  0  0  0
   -0.7085   -1.1488    0.5665 C   0  0  2  0  0  0  0  0  0  0  0  0
   -2.1079   -1.2444    1.2116 C   0  0  0  0  0  0  0  0  0  0  0  0
    0.2013   -2.3272    0.9679 C   0  0  0  0  0  0  0  0  0  0  0  0
    0.8782    2.2658   -0.0229 C   0  0  1  0  0  0  0  0  0  0  0  0
   -0.0319    0.1663    0.9656 C   0  0  0  0  0  0  0  0  0  0  0  0
    2.1669    2.3075   -0.8543 C   0  0  0  0  0  0  0  0  0  0  0  0
   -3.1489   -0.3827    0.5414 C   0  0  0  0  0  0  0  0  0  0  0  0
    3.1619    1.2454   -0.4524 C   0  0  0  0  0  0  0  0  0  0  0  0
   -0.0482   -3.5930    0.1629 C   0  0  0  0  0  0  0  0  0  0  0  0
   -0.0558    3.3865   -0.4553 C   0  0  0  0  0  0  0  0  0  0  0  0
   -3.3509    0.9288    0.9718 C   0  0  0  0  0  0  0  0  0  0  0  0
   -3.9094   -0.8969   -0.5089 C   0  0  0  0  0  0  0  0  0  0  0  0
    4.1118    1.5167    0.5324 C   0  0  0  0  0  0  0  0  0  0  0  0
    3.1310   -0.0073   -1.0652 C   0  0  0  0  0  0  0  0  0  0  0  0
   -4.3134    1.7258    0.3521 C   0  0  0  0  0  0  0  0  0  0  0  0
   -4.8717   -0.0998   -1.1286 C   0  0  0  0  0  0  0  0  0  0  0  0
   -5.0737    1.2116   -0.6981 C   0  0  0  0  0  0  0  0  0  0  0  0
    5.0311    0.5357    0.9041 C   0  0  0  0  0  0  0  0  0  0  0  0
    4.0502   -0.9884   -0.6935 C   0  0  0  0  0  0  0  0  0  0  0  0
    5.0002   -0.7168    0.2912 C   0  0  0  0  0  0  0  0  0  0  0  0
   -0.8280   -1.1769   -0.5248 H   0  0  0  0  0  0  0  0  0  0  0  0
   -2.0582   -0.9861    2.2779 H   0  0  0  0  0  0  0  0  0  0  0  0
   -2.4600   -2.2836    1.1848 H   0  0  0  0  0  0  0  0  0  0  0  0
    0.0708   -2.5718    2.0296 H   0  0  0  0  0  0  0  0  0  0  0  0
    1.2567   -2.0470    0.8544 H   0  0  0  0  0  0  0  0  0  0  0  0
    1.1095    2.4502    1.0332 H   0  0  0  0  0  0  0  0  0  0  0  0
   -0.0759    0.6866   -1.0522 H   0  0  0  0  0  0  0  0  0  0  0  0
    2.6391    3.2955   -0.7716 H   0  0  0  0  0  0  0  0  0  0  0  0
    1.9310    2.1926   -1.9215 H   0  0  0  0  0  0  0  0  0  0  0  0
   -2.7664    1.3421    1.7893 H   0  0  0  0  0  0  0  0  0  0  0  0
   -3.7593   -1.9161   -0.8551 H   0  0  0  0  0  0  0  0  0  0  0  0
    4.1440    2.4881    1.0187 H   0  0  0  0  0  0  0  0  0  0  0  0
    2.3973   -0.2326   -1.8346 H   0  0  0  0  0  0  0  0  0  0  0  0
   -4.4698    2.7471    0.6866 H   0  0  0  0  0  0  0  0  0  0  0  0
   -5.4632   -0.4997   -1.9470 H   0  0  0  0  0  0  0  0  0  0  0  0
   -5.8225    1.8325   -1.1811 H   0  0  0  0  0  0  0  0  0  0  0  0
    1.4905   -3.0140   -1.2066 H   0  0  0  0  0  0  0  0  0  0  0  0
    5.7702    0.7467    1.6714 H   0  0  0  0  0  0  0  0  0  0  0  0
    4.0254   -1.9641   -1.1699 H   0  0  0  0  0  0  0  0  0  0  0  0
    5.7154   -1.4810    0.5811 H   0  0  0  0  0  0  0  0  0  0  0  0
   -1.8172    3.7291   -1.2124 H   0  0  0  0  0  0  0  0  0  0  0  0
   -0.0758   -4.4019   -2.4361 H   0  0  0  0  0  0  0  0  0  0  0  0
  1 12  2  0  0  0  0
  2 17  1  0  0  0  0
  2 48  1  0  0  0  0
  3 16  2  0  0  0  0
  4 17  2  0  0  0  0
  5  7  1  0  0  0  0
  5 49  1  0  0  0  0
  6 11  1  0  0  0  0
  6 12  1  0  0  0  0
  6 34  1  0  0  0  0
  7 16  1  0  0  0  0
  7 44  1  0  0  0  0
  8  9  1  0  0  0  0
  8 10  1  0  0  0  0
  8 12  1  0  0  0  0
  8 28  1  0  0  0  0
  9 14  1  0  0  0  0
  9 29  1  0  0  0  0
  9 30  1  0  0  0  0
 10 16  1  0  0  0  0
 10 31  1  0  0  0  0
 10 32  1  0  0  0  0
 11 13  1  0  0  0  0
 11 17  1  0  0  0  0
 11 33  1  0  0  0  0
 13 15  1  0  0  0  0
 13 35  1  0  0  0  0
 13 36  1  0  0  0  0
 14 18  2  0  0  0  0
 14 19  1  0  0  0  0
 15 20  2  0  0  0  0
 15 21  1  0  0  0  0
 18 22  1  0  0  0  0
 18 37  1  0  0  0  0
 19 23  2  0  0  0  0
 19 38  1  0  0  0  0
 20 25  1  0  0  0  0
 20 39  1  0  0  0  0
 21 26  2  0  0  0  0
 21 40  1  0  0  0  0
 22 24  2  0  0  0  0
 22 41  1  0  0  0  0
 23 24  1  0  0  0  0
 23 42  1  0  0  0  0
 24 43  1  0  0  0  0
 25 27  2  0  0  0  0
 25 45  1  0  0  0  0
 26 27  1  0  0  0  0
 26 46  1  0  0  0  0
 27 47  1  0  0  0  0
M  END
> <PUBCHEM_COMPOUND_CID>
129130

> <PUBCHEM_CONFORMER_RMSD>
1

> <PUBCHEM_CONFORMER_DIVERSEORDER>
1
192
67
219
50
182
10
236
168
106
35
98
151
262
73
211
4
91
74
112
119
103
238
228
45
81
230
87
88
122
139
193
75
246
20
101
209
115
187
125
21
79
183
97
264
254
152
225
22
250
234
170
89
239
53
196
215
165
127
194
265
171
117
55
184
177
203
48
135
99
190
28
133
118
5
18
77
137
240
253
212
32
180
172
93
8
44
143
201
266
179
270
136
34
257
131
249
145
267
263
24
2
124
138
126
260
90
222
49
150
185
130
242
56
197
132
120
237
109
107
86
51
162
129
195
85
233
159
176
214
76
173
140
175
218
114
189
248
200
229
241
259
157
213
70
252
7
66
167
43
206
82
174
65
220
147
111
245
63
15
227
199
14
149
258
102
92
256
69
146
268
188
141
231
19
57
244
261
191
52
128
64
202
116
100
105
96
68
186
198
247
95
269
16
61
232
205
181
251
164
27
78
31
210
30
38
142
59
71
83
223
123
26
84
155
9
80
144
204
160
46
12
224
42
6
255
58
36
163
94
121
156
41
29
37
169
110
158
62
25
108
208
40
17
221
113
226
161
134
13
104
154
3
23
243
153
54
148
207
166
39
178
60
11
72
33
216
235
47
217

> <PUBCHEM_MMFF94_PARTIAL_CHARGES>
41
1 -0.57
10 0.06
11 0.36
12 0.57
13 0.14
14 -0.14
15 -0.14
16 0.57
17 0.66
18 -0.15
19 -0.15
2 -0.65
20 -0.15
21 -0.15
22 -0.15
23 -0.15
24 -0.15
25 -0.15
26 -0.15
27 -0.15
3 -0.57
34 0.37
37 0.15
38 0.15
39 0.15
4 -0.57
40 0.15
41 0.15
42 0.15
43 0.15
44 0.37
45 0.15
46 0.15
47 0.15
48 0.5
49 0.4
5 -0.44
6 -0.73
7 -0.39
8 0.06
9 0.14

> <PUBCHEM_EFFECTIVE_ROTOR_COUNT>
11

> <PUBCHEM_PHARMACOPHORE_FEATURES>
9
1 1 acceptor
1 2 acceptor
1 3 acceptor
1 4 acceptor
1 6 donor
1 7 donor
3 2 4 17 anion
6 14 18 19 22 23 24 rings
6 15 20 21 25 26 27 rings

> <PUBCHEM_HEAVY_ATOM_COUNT>
27

> <PUBCHEM_ATOM_DEF_STEREO_COUNT>
2

> <PUBCHEM_ATOM_UDEF_STEREO_COUNT>
0

> <PUBCHEM_BOND_DEF_STEREO_COUNT>
0

> <PUBCHEM_BOND_UDEF_STEREO_COUNT>
0

> <PUBCHEM_ISOTOPIC_ATOM_COUNT>
0

> <PUBCHEM_COMPONENT_COUNT>
1

> <PUBCHEM_CACTVS_TAUTO_COUNT>
6

> <PUBCHEM_CONFORMER_ID>
0001F86A00000001

> <PUBCHEM_MMFF94_ENERGY>
63.4763

> <PUBCHEM_FEATURE_SELFOVERLAP>
45.733

> <PUBCHEM_SHAPE_FINGERPRINT>
11370993 70 18413392059387093446
12788726 201 18333737892806654904
13004483 165 18187912990167038936
13690498 29 17400672774662900236
14251751 93 18338515360823103815
14787075 74 11239993464584884296
17093844 170 18409449150903146968
19591789 44 18408039615281824193
20028762 73 18341888567548423885
20197701 30 18412538825336781546
20775438 99 16833154385025697015
21857420 4 16475101700163009495
22113638 7 18337109085197509580
23559900 14 18337398227239976348
23566358 2 17901383390298093741
238918 7 18267579114131932998
266924 87 18120376458307445436
3027735 51 18196097646606001400
3084891 72 18408324375929719377
3084891 8 18265051327734559457
340366 18 18262804110761625486
38695281 34 18411979140059658599
4017518 198 18060140938790299550
5171179 24 17838054797857127918
532947 4 18340211769435503047
59755656 215 18116431436251300373
6138700 20 18337111155662247258

> <PUBCHEM_SHAPE_MULTIPOLES>
516.34
9.39
5.28
1.32
0.19
3.51
0.08
-2.73
-0.75
-0.17
-1.8
0.09
0.49
0.42

> <PUBCHEM_SHAPE_SELFOVERLAP>
1076.828

> <PUBCHEM_SHAPE_VOLUME>
290.2

> <PUBCHEM_COORDINATE_TYPE>
2
5
10

$$$$
