129176
  -OEChem-03292013323D

 45 46  0     1  0  0  0  0  0999 V2000
   -0.9565    3.5344   -0.6274 S   0  0  0  0  0  0  0  0  0  0  0  0
   -1.7220    2.2483   -2.0356 S   0  0  0  0  0  0  0  0  0  0  0  0
   -0.4610    2.1380    2.0811 O   0  0  0  0  0  0  0  0  0  0  0  0
    1.7437    0.7987    2.5744 O   0  0  0  0  0  0  0  0  0  0  0  0
    3.7809    0.3064   -2.0513 O   0  0  0  0  0  0  0  0  0  0  0  0
    3.4249    0.6706    0.2209 N   0  0  0  0  0  0  0  0  0  0  0  0
   -3.3769    1.8281    0.0255 N   0  0  0  0  0  0  0  0  0  0  0  0
    2.1471    0.0141    0.3305 C   0  0  1  0  0  0  0  0  0  0  0  0
    2.3135   -1.4583    0.7137 C   0  0  0  0  0  0  0  0  0  0  0  0
    1.3805    0.7894    1.3969 C   0  0  0  0  0  0  0  0  0  0  0  0
    0.1310    1.5352    0.9392 C   0  0  2  0  0  0  0  0  0  0  0  0
    1.1113   -2.2966    0.3552 C   0  0  0  0  0  0  0  0  0  0  0  0
    0.5121    2.6196   -0.0635 C   0  0  0  0  0  0  0  0  0  0  0  0
    1.0375   -2.9119   -0.8946 C   0  0  0  0  0  0  0  0  0  0  0  0
    0.0735   -2.4560    1.2734 C   0  0  0  0  0  0  0  0  0  0  0  0
    4.1354    0.7607   -0.9666 C   0  0  0  0  0  0  0  0  0  0  0  0
   -0.0742   -3.6866   -1.2258 C   0  0  0  0  0  0  0  0  0  0  0  0
   -1.0381   -3.2308    0.9421 C   0  0  0  0  0  0  0  0  0  0  0  0
   -1.1119   -3.8460   -0.3075 C   0  0  0  0  0  0  0  0  0  0  0  0
    5.4255    1.5195   -0.8067 C   0  0  0  0  0  0  0  0  0  0  0  0
   -2.8179    1.2387   -1.0551 C   0  0  0  0  0  0  0  0  0  0  0  0
   -3.0471   -0.0762   -1.4270 C   0  0  0  0  0  0  0  0  0  0  0  0
   -3.9055   -0.8349   -0.6393 C   0  0  0  0  0  0  0  0  0  0  0  0
   -4.2056    1.0594    0.7672 C   0  0  0  0  0  0  0  0  0  0  0  0
   -4.5000   -0.2638    0.4805 C   0  0  0  0  0  0  0  0  0  0  0  0
    1.6318    0.0910   -0.6331 H   0  0  0  0  0  0  0  0  0  0  0  0
    2.5326   -1.5715    1.7837 H   0  0  0  0  0  0  0  0  0  0  0  0
    3.1882   -1.8830    0.2016 H   0  0  0  0  0  0  0  0  0  0  0  0
   -0.5625    0.7929    0.5383 H   0  0  0  0  0  0  0  0  0  0  0  0
    3.8334    1.0693    1.0622 H   0  0  0  0  0  0  0  0  0  0  0  0
    1.1690    3.3543    0.4170 H   0  0  0  0  0  0  0  0  0  0  0  0
    1.0548    2.2345   -0.9315 H   0  0  0  0  0  0  0  0  0  0  0  0
    1.8381   -2.7926   -1.6198 H   0  0  0  0  0  0  0  0  0  0  0  0
    0.1182   -1.9815    2.2500 H   0  0  0  0  0  0  0  0  0  0  0  0
   -0.1327   -4.1644   -2.1994 H   0  0  0  0  0  0  0  0  0  0  0  0
   -1.8470   -3.3535    1.6563 H   0  0  0  0  0  0  0  0  0  0  0  0
    0.1453    2.8224    2.4123 H   0  0  0  0  0  0  0  0  0  0  0  0
   -1.9783   -4.4477   -0.5660 H   0  0  0  0  0  0  0  0  0  0  0  0
    5.9974    1.1187    0.0351 H   0  0  0  0  0  0  0  0  0  0  0  0
    6.0253    1.4229   -1.7159 H   0  0  0  0  0  0  0  0  0  0  0  0
    5.2080    2.5764   -0.6299 H   0  0  0  0  0  0  0  0  0  0  0  0
   -2.5796   -0.5201   -2.3001 H   0  0  0  0  0  0  0  0  0  0  0  0
   -4.1097   -1.8700   -0.8965 H   0  0  0  0  0  0  0  0  0  0  0  0
   -4.6422    1.5513    1.6301 H   0  0  0  0  0  0  0  0  0  0  0  0
   -5.1715   -0.8369    1.1095 H   0  0  0  0  0  0  0  0  0  0  0  0
  1  2  1  0  0  0  0
  1 13  1  0  0  0  0
  2 21  1  0  0  0  0
  3 11  1  0  0  0  0
  3 37  1  0  0  0  0
  4 10  2  0  0  0  0
  5 16  2  0  0  0  0
  6  8  1  0  0  0  0
  6 16  1  0  0  0  0
  6 30  1  0  0  0  0
  7 21  1  0  0  0  0
  7 24  2  0  0  0  0
  8  9  1  0  0  0  0
  8 10  1  0  0  0  0
  8 26  1  0  0  0  0
  9 12  1  0  0  0  0
  9 27  1  0  0  0  0
  9 28  1  0  0  0  0
 10 11  1  0  0  0  0
 11 13  1  0  0  0  0
 11 29  1  0  0  0  0
 12 14  2  0  0  0  0
 12 15  1  0  0  0  0
 13 31  1  0  0  0  0
 13 32  1  0  0  0  0
 14 17  1  0  0  0  0
 14 33  1  0  0  0  0
 15 18  2  0  0  0  0
 15 34  1  0  0  0  0
 16 20  1  0  0  0  0
 17 19  2  0  0  0  0
 17 35  1  0  0  0  0
 18 19  1  0  0  0  0
 18 36  1  0  0  0  0
 19 38  1  0  0  0  0
 20 39  1  0  0  0  0
 20 40  1  0  0  0  0
 20 41  1  0  0  0  0
 21 22  2  0  0  0  0
 22 23  1  0  0  0  0
 22 42  1  0  0  0  0
 23 25  2  0  0  0  0
 23 43  1  0  0  0  0
 24 25  1  0  0  0  0
 24 44  1  0  0  0  0
 25 45  1  0  0  0  0
M  END
> <PUBCHEM_COMPOUND_CID>
129176

> <PUBCHEM_CONFORMER_RMSD>
1

> <PUBCHEM_CONFORMER_DIVERSEORDER>
1
480
430
209
452
457
118
344
313
290
4
464
336
244
68
407
42
221
142
49
465
284
406
22
354
145
316
394
140
403
97
253
396
259
18
302
454
364
236
188
271
138
224
280
292
311
196
246
56
88
471
210
299
103
205
424
120
356
265
393
388
74
340
122
63
148
474
136
94
376
37
309
252
43
391
57
179
2
26
405
478
181
40
264
387
458
111
481
326
272
101
79
177
273
353
483
212
301
283
389
305
180
113
131
163
350
375
448
468
117
319
323
15
128
24
223
440
262
476
25
441
461
366
402
208
130
333
85
119
338
207
5
87
104
278
286
358
459
266
415
114
282
250
395
288
369
235
8
341
61
237
322
472
409
133
331
400
123
351
260
178
445
183
383
368
164
27
80
380
48
479
255
382
408
190
416
335
434
355
222
436
455
243
456
404
12
171
296
398
172
442
168
182
270
320
45
462
92
330
201
257
426
304
334
429
55
438
374
435
433
156
281
192
16
248
423
348
108
258
211
357
325
99
28
167
165
44
421
93
446
308
83
191
412
467
241
240
352
261
121
227
153
100
89
377
198
76
365
62
71
51
401
174
328
420
204
11
390
30
297
381
64
361
347
385
126
370
447
102
116
274
158
470
135
289
107
199
324
298
52
155
294
175
460
477
437
419
359
231
371
482
245
185
229
363
31
218
315
317
112
469
60
337
90
110
321
466
6
169
339
373
345
19
23
7
386
84
384
106
312
226
187
170
65
53
332
159
3
73
432
238
379
269
247
17
162
427
275
215
129
300
197
13
239
285
216
230
362
70
203
251
69
41
397
46
242
213
414
20
307
202
276
77
161
194
81
451
306
157
378
399
36
342
295
59
318
66
428
225
35
86
141
206
54
144
217
425
449
475
249
453
109
268
214
75
32
38
98
287
95
233
346
47
91
152
193
234
450
9
439
186
151
484
314
50
220
82
139
29
431
232
154
411
277
228
310
291
132
444
410
127
78
417
349
67
463
33
21
473
72
149
195
125
443
34
10
422
254
327
303
58
39
115
173
96
219
418
256
367
267
392
293
343
360
146
160
263
184
137
189
329
279
134
413
200
150
372
124
166
176
14
105
147
143

> <PUBCHEM_MMFF94_PARTIAL_CHARGES>
36
1 -0.23
10 0.45
11 0.34
12 -0.14
13 0.23
14 -0.15
15 -0.15
16 0.57
17 -0.15
18 -0.15
19 -0.15
2 -0.1
20 0.06
21 0.41
22 -0.15
23 -0.15
24 0.16
25 -0.15
3 -0.68
30 0.37
33 0.15
34 0.15
35 0.15
36 0.15
37 0.4
38 0.15
4 -0.57
42 0.15
43 0.15
44 0.15
45 0.15
5 -0.57
6 -0.73
7 -0.62
8 0.36
9 0.14

> <PUBCHEM_EFFECTIVE_ROTOR_COUNT>
10

> <PUBCHEM_PHARMACOPHORE_FEATURES>
8
1 3 acceptor
1 3 donor
1 4 acceptor
1 5 acceptor
1 6 donor
1 7 acceptor
6 12 14 15 17 18 19 rings
6 7 21 22 23 24 25 rings

> <PUBCHEM_HEAVY_ATOM_COUNT>
25

> <PUBCHEM_ATOM_DEF_STEREO_COUNT>
1

> <PUBCHEM_ATOM_UDEF_STEREO_COUNT>
1

> <PUBCHEM_BOND_DEF_STEREO_COUNT>
0

> <PUBCHEM_BOND_UDEF_STEREO_COUNT>
0

> <PUBCHEM_ISOTOPIC_ATOM_COUNT>
0

> <PUBCHEM_COMPONENT_COUNT>
1

> <PUBCHEM_CACTVS_TAUTO_COUNT>
10

> <PUBCHEM_CONFORMER_ID>
0001F89800000001

> <PUBCHEM_MMFF94_ENERGY>
42.5177

> <PUBCHEM_FEATURE_SELFOVERLAP>
40.607

> <PUBCHEM_SHAPE_FINGERPRINT>
10064457 181 18270680990894228961
12156800 1 17685540723707956567
12553582 1 18336817659072107645
12596599 1 17273956069437533839
13122387 1 18266443468806937707
13965767 371 11748592265007239957
14114211 80 18270697427771182131
14251757 17 18200041775472472678
14713325 29 18117287062783603514
14930077 153 17681021748741147676
17492 54 18261945345199722271
238 59 17905002012214661095
3052486 1 18046047518349519778
345986 75 11958901338735794420
3493558 16 14277713370755366380
35225 105 17974541861779371791
6287921 2 18044952176802620647

> <PUBCHEM_SHAPE_MULTIPOLES>
494.62
7.61
4.95
1.88
2.05
3.39
-0.25
-3.87
2.03
-0.9
0.89
0.4
-0.52
-0.02

> <PUBCHEM_SHAPE_SELFOVERLAP>
998.668

> <PUBCHEM_SHAPE_VOLUME>
290

> <PUBCHEM_COORDINATE_TYPE>
2
5
10

$$$$
