129205
  -OEChem-03292013323D

 44 44  0     1  0  0  0  0  0999 V2000
    3.0743    3.2470    1.3720 O   0  0  0  0  0  0  0  0  0  0  0  0
    2.5637    3.0871   -0.8334 O   0  0  0  0  0  0  0  0  0  0  0  0
    0.2113    0.4884    1.0279 O   0  0  0  0  0  0  0  0  0  0  0  0
   -2.2991    1.3599   -1.4132 O   0  0  0  0  0  0  0  0  0  0  0  0
   -7.5135   -1.2124    1.0827 O   0  0  0  0  0  0  0  0  0  0  0  0
    2.0285    0.4164   -0.4204 N   0  0  0  0  0  0  0  0  0  0  0  0
    7.8214   -3.0881   -0.0668 N   0  0  0  0  0  0  0  0  0  0  0  0
   -1.4280   -0.6849   -0.7475 N   0  0  0  0  0  0  0  0  0  0  0  0
    4.4268    0.6277    0.1291 C   0  0  0  0  0  0  0  0  0  0  0  0
    4.7123   -0.8642    0.3425 C   0  0  0  0  0  0  0  0  0  0  0  0
    2.9911    1.0537    0.4407 C   0  0  1  0  0  0  0  0  0  0  0  0
    6.1719   -1.2454    0.0736 C   0  0  0  0  0  0  0  0  0  0  0  0
    6.4363   -2.7447    0.2313 C   0  0  0  0  0  0  0  0  0  0  0  0
    2.8321    2.5473    0.2321 C   0  0  0  0  0  0  0  0  0  0  0  0
    0.7078    0.1841   -0.0538 C   0  0  0  0  0  0  0  0  0  0  0  0
   -0.0821   -0.4492   -1.1793 C   0  0  0  0  0  0  0  0  0  0  0  0
   -2.4454    0.2531   -0.9012 C   0  0  0  0  0  0  0  0  0  0  0  0
   -3.7808   -0.1334   -0.3774 C   0  0  0  0  0  0  0  0  0  0  0  0
   -4.6797    0.8506    0.0346 C   0  0  0  0  0  0  0  0  0  0  0  0
   -4.1361   -1.4799   -0.2980 C   0  0  0  0  0  0  0  0  0  0  0  0
   -5.9338    0.4880    0.5259 C   0  0  0  0  0  0  0  0  0  0  0  0
   -5.3901   -1.8425    0.1933 C   0  0  0  0  0  0  0  0  0  0  0  0
   -6.2889   -0.8586    0.6052 C   0  0  0  0  0  0  0  0  0  0  0  0
    5.1143    1.2113    0.7552 H   0  0  0  0  0  0  0  0  0  0  0  0
    4.6705    0.8876   -0.9099 H   0  0  0  0  0  0  0  0  0  0  0  0
    4.4541   -1.1362    1.3733 H   0  0  0  0  0  0  0  0  0  0  0  0
    4.0634   -1.4561   -0.3142 H   0  0  0  0  0  0  0  0  0  0  0  0
    2.7328    0.8152    1.4792 H   0  0  0  0  0  0  0  0  0  0  0  0
    6.8218   -0.6837    0.7567 H   0  0  0  0  0  0  0  0  0  0  0  0
    6.4393   -0.9359   -0.9449 H   0  0  0  0  0  0  0  0  0  0  0  0
    2.3167    0.1889   -1.3681 H   0  0  0  0  0  0  0  0  0  0  0  0
    6.2001   -3.0567    1.2548 H   0  0  0  0  0  0  0  0  0  0  0  0
    5.7818   -3.3081   -0.4427 H   0  0  0  0  0  0  0  0  0  0  0  0
   -0.0739    0.2134   -2.0505 H   0  0  0  0  0  0  0  0  0  0  0  0
    0.3649   -1.4121   -1.4438 H   0  0  0  0  0  0  0  0  0  0  0  0
    8.4424   -2.5897    0.5693 H   0  0  0  0  0  0  0  0  0  0  0  0
    7.9691   -4.0812    0.1082 H   0  0  0  0  0  0  0  0  0  0  0  0
   -1.5994   -1.5493   -0.2451 H   0  0  0  0  0  0  0  0  0  0  0  0
    2.9935    4.2144    1.2307 H   0  0  0  0  0  0  0  0  0  0  0  0
   -4.4198    1.9047   -0.0153 H   0  0  0  0  0  0  0  0  0  0  0  0
   -3.4783   -2.2749   -0.6364 H   0  0  0  0  0  0  0  0  0  0  0  0
   -6.6248    1.2640    0.8442 H   0  0  0  0  0  0  0  0  0  0  0  0
   -5.6644   -2.8926    0.2465 H   0  0  0  0  0  0  0  0  0  0  0  0
   -8.0039   -0.4066    1.3201 H   0  0  0  0  0  0  0  0  0  0  0  0
  1 14  1  0  0  0  0
  1 39  1  0  0  0  0
  2 14  2  0  0  0  0
  3 15  2  0  0  0  0
  4 17  2  0  0  0  0
  5 23  1  0  0  0  0
  5 44  1  0  0  0  0
  6 11  1  0  0  0  0
  6 15  1  0  0  0  0
  6 31  1  0  0  0  0
  7 13  1  0  0  0  0
  7 36  1  0  0  0  0
  7 37  1  0  0  0  0
  8 16  1  0  0  0  0
  8 17  1  0  0  0  0
  8 38  1  0  0  0  0
  9 10  1  0  0  0  0
  9 11  1  0  0  0  0
  9 24  1  0  0  0  0
  9 25  1  0  0  0  0
 10 12  1  0  0  0  0
 10 26  1  0  0  0  0
 10 27  1  0  0  0  0
 11 14  1  0  0  0  0
 11 28  1  0  0  0  0
 12 13  1  0  0  0  0
 12 29  1  0  0  0  0
 12 30  1  0  0  0  0
 13 32  1  0  0  0  0
 13 33  1  0  0  0  0
 15 16  1  0  0  0  0
 16 34  1  0  0  0  0
 16 35  1  0  0  0  0
 17 18  1  0  0  0  0
 18 19  2  0  0  0  0
 18 20  1  0  0  0  0
 19 21  1  0  0  0  0
 19 40  1  0  0  0  0
 20 22  2  0  0  0  0
 20 41  1  0  0  0  0
 21 23  2  0  0  0  0
 21 42  1  0  0  0  0
 22 23  1  0  0  0  0
 22 43  1  0  0  0  0
M  END
> <PUBCHEM_COMPOUND_CID>
129205

> <PUBCHEM_CONFORMER_RMSD>
1

> <PUBCHEM_CONFORMER_DIVERSEORDER>
1
111
44
20
38
62
87
71
33
101
34
99
42
28
9
67
51
65
80
69
24
104
63
13
85
7
10
46
11
103
92
109
19
86
56
30
76
50
37
93
75
89
36
91
14
55
26
88
2
61
95
70
15
53
5
58
98
74
41
21
73
3
6
31
25
4
97
8
106
90
54
39
64
60
81
47
59
40
107
35
94
83
22
110
66
112
49
43
57
12
96
45
27
32
105
68
100
18
79
84
17
108
52
77
29
16
82
23
102
48
72
78

> <PUBCHEM_MMFF94_PARTIAL_CHARGES>
30
1 -0.65
11 0.36
13 0.27
14 0.66
15 0.57
16 0.36
17 0.54
18 0.09
19 -0.15
2 -0.57
20 -0.15
21 -0.15
22 -0.15
23 0.08
3 -0.57
31 0.37
36 0.36
37 0.36
38 0.37
39 0.5
4 -0.57
40 0.15
41 0.15
42 0.15
43 0.15
44 0.45
5 -0.53
6 -0.73
7 -0.99
8 -0.73

> <PUBCHEM_EFFECTIVE_ROTOR_COUNT>
11

> <PUBCHEM_PHARMACOPHORE_FEATURES>
11
1 1 acceptor
1 2 acceptor
1 3 acceptor
1 4 acceptor
1 5 donor
1 6 donor
1 7 cation
1 7 donor
1 8 donor
3 1 2 14 anion
6 18 19 20 21 22 23 rings

> <PUBCHEM_HEAVY_ATOM_COUNT>
23

> <PUBCHEM_ATOM_DEF_STEREO_COUNT>
1

> <PUBCHEM_ATOM_UDEF_STEREO_COUNT>
0

> <PUBCHEM_BOND_DEF_STEREO_COUNT>
0

> <PUBCHEM_BOND_UDEF_STEREO_COUNT>
0

> <PUBCHEM_ISOTOPIC_ATOM_COUNT>
0

> <PUBCHEM_COMPONENT_COUNT>
1

> <PUBCHEM_CACTVS_TAUTO_COUNT>
10

> <PUBCHEM_CONFORMER_ID>
0001F8B500000001

> <PUBCHEM_MMFF94_ENERGY>
39.0718

> <PUBCHEM_FEATURE_SELFOVERLAP>
55.881

> <PUBCHEM_SHAPE_FINGERPRINT>
10366900 7 15936404550778136185
11405975 8 18270677687705656006
11638347 137 18335707170103983339
12107183 9 18201999928098246158
12616971 3 17846776351557818573
13073987 5 18342454842403059720
13533116 47 18410574032744361728
13673619 4 18113616759999551078
13685833 64 18409446956565320274
13782708 43 18259981586972305563
14251764 30 18187642454229256014
14341114 176 18408884057281107564
14420673 8 18408886209212898511
17844677 252 18410298025424873705
18222031 100 15574987407873785541
20511986 3 11167942429067889105
21049683 271 18333736810843752668
21130935 74 18267306611553095419
21150785 3 12612757921214321299
21267235 1 18340488872936963406
21315759 40 17846777442896288351
21365058 113 17749114378936736332
21682296 61 18410012117540688839
2297311 6 17531247227538867839
23522609 53 18117871873946696588
23559900 14 18260545675207753960
300161 21 11240003356121400917
465052 167 18413108351644528702
5104073 3 17488456550063278139
5283384 27 10231744583902893866
8863177 126 18261393386083766962

> <PUBCHEM_SHAPE_MULTIPOLES>
429.04
20.18
2.98
1.01
1.52
0.86
-0.06
-16.5
4.86
6.37
0.37
-0.49
0.3
0.76

> <PUBCHEM_SHAPE_SELFOVERLAP>
868.78

> <PUBCHEM_SHAPE_VOLUME>
247.7

> <PUBCHEM_COORDINATE_TYPE>
2
5
10

$$$$
