129262
  -OEChem-03292013323D

 37 38  0     0  0  0  0  0  0999 V2000
   -1.6789    3.5126    0.2857 Cl  0  0  0  0  0  0  0  0  0  0  0  0
    3.7368    0.4048   -0.1095 S   0  0  0  0  0  0  0  0  0  0  0  0
   -0.5686   -2.1708    1.1557 S   0  0  0  0  0  0  0  0  0  0  0  0
    4.4722    0.8895   -1.2705 O   0  0  0  0  0  0  0  0  0  0  0  0
    4.3691    0.4447    1.2025 O   0  0  0  0  0  0  0  0  0  0  0  0
   -2.8256   -1.0207    0.4004 O   0  0  0  0  0  0  0  0  0  0  0  0
   -5.7797    0.5908   -0.8812 O   0  0  0  0  0  0  0  0  0  0  0  0
   -5.2493   -0.0750    1.2313 O   0  0  0  0  0  0  0  0  0  0  0  0
    3.2218   -1.1953   -0.4182 N   0  0  0  0  0  0  0  0  0  0  0  0
    2.9612   -2.1098    0.7027 C   0  0  0  0  0  0  0  0  0  0  0  0
    1.8837   -3.1233    0.3250 C   0  0  0  0  0  0  0  0  0  0  0  0
    0.5786   -2.4677   -0.0593 C   0  0  0  0  0  0  0  0  0  0  0  0
    2.2256    1.2720    0.0009 C   0  0  0  0  0  0  0  0  0  0  0  0
    0.1876   -2.0692   -1.2975 C   0  0  0  0  0  0  0  0  0  0  0  0
    1.5841    1.4014    1.2326 C   0  0  0  0  0  0  0  0  0  0  0  0
    1.6597    1.8355   -1.1428 C   0  0  0  0  0  0  0  0  0  0  0  0
   -1.6412   -1.4831    0.0116 C   0  0  0  0  0  0  0  0  0  0  0  0
   -1.1141   -1.4909   -1.2610 C   0  0  0  0  0  0  0  0  0  0  0  0
    0.3766    2.0942    1.3206 C   0  0  0  0  0  0  0  0  0  0  0  0
    0.4523    2.5284   -1.0547 C   0  0  0  0  0  0  0  0  0  0  0  0
   -0.1893    2.6577    0.1770 C   0  0  0  0  0  0  0  0  0  0  0  0
   -3.6949   -0.4502   -0.5979 C   0  0  0  0  0  0  0  0  0  0  0  0
   -4.9676    0.0243    0.0467 C   0  0  0  0  0  0  0  0  0  0  0  0
    3.8898   -2.6363    0.9470 H   0  0  0  0  0  0  0  0  0  0  0  0
    2.6436   -1.5501    1.5886 H   0  0  0  0  0  0  0  0  0  0  0  0
    2.2329   -3.7280   -0.5226 H   0  0  0  0  0  0  0  0  0  0  0  0
    1.7327   -3.8223    1.1571 H   0  0  0  0  0  0  0  0  0  0  0  0
    3.4776   -1.6294   -1.3136 H   0  0  0  0  0  0  0  0  0  0  0  0
    0.7845   -2.1760   -2.1940 H   0  0  0  0  0  0  0  0  0  0  0  0
    2.0021    0.9657    2.1356 H   0  0  0  0  0  0  0  0  0  0  0  0
    2.1387    1.7402   -2.1132 H   0  0  0  0  0  0  0  0  0  0  0  0
   -1.6153   -1.1064   -2.1399 H   0  0  0  0  0  0  0  0  0  0  0  0
   -0.1136    2.1850    2.2865 H   0  0  0  0  0  0  0  0  0  0  0  0
    0.0217    2.9603   -1.9545 H   0  0  0  0  0  0  0  0  0  0  0  0
   -3.9503   -1.2141   -1.3406 H   0  0  0  0  0  0  0  0  0  0  0  0
   -3.2031    0.4137   -1.0589 H   0  0  0  0  0  0  0  0  0  0  0  0
   -6.6191    0.9105   -0.4868 H   0  0  0  0  0  0  0  0  0  0  0  0
  1 21  1  0  0  0  0
  2  4  2  0  0  0  0
  2  5  2  0  0  0  0
  2  9  1  0  0  0  0
  2 13  1  0  0  0  0
  3 12  1  0  0  0  0
  3 17  1  0  0  0  0
  6 17  1  0  0  0  0
  6 22  1  0  0  0  0
  7 23  1  0  0  0  0
  7 37  1  0  0  0  0
  8 23  2  0  0  0  0
  9 10  1  0  0  0  0
  9 28  1  0  0  0  0
 10 11  1  0  0  0  0
 10 24  1  0  0  0  0
 10 25  1  0  0  0  0
 11 12  1  0  0  0  0
 11 26  1  0  0  0  0
 11 27  1  0  0  0  0
 12 14  2  0  0  0  0
 13 15  2  0  0  0  0
 13 16  1  0  0  0  0
 14 18  1  0  0  0  0
 14 29  1  0  0  0  0
 15 19  1  0  0  0  0
 15 30  1  0  0  0  0
 16 20  2  0  0  0  0
 16 31  1  0  0  0  0
 17 18  2  0  0  0  0
 18 32  1  0  0  0  0
 19 21  2  0  0  0  0
 19 33  1  0  0  0  0
 20 21  1  0  0  0  0
 20 34  1  0  0  0  0
 22 23  1  0  0  0  0
 22 35  1  0  0  0  0
 22 36  1  0  0  0  0
M  END
> <PUBCHEM_COMPOUND_CID>
129262

> <PUBCHEM_CONFORMER_RMSD>
0.8

> <PUBCHEM_CONFORMER_DIVERSEORDER>
1
27
80
300
216
261
35
213
158
66
209
119
24
162
218
210
30
234
277
302
103
311
295
31
82
161
93
2
180
121
179
136
260
58
170
176
190
53
75
50
235
18
194
189
104
55
258
227
95
46
42
141
199
307
79
159
240
271
57
252
283
78
127
29
34
39
146
195
313
174
9
318
266
191
319
175
90
296
17
120
219
48
245
47
84
169
111
102
15
185
171
152
45
70
172
150
286
215
291
23
293
105
67
123
97
72
284
96
165
54
14
255
253
305
134
274
206
109
130
43
37
151
73
59
166
13
156
163
200
122
256
289
204
221
287
188
83
16
4
282
164
183
99
251
33
85
232
107
317
321
292
101
44
220
87
222
63
153
147
238
98
129
208
236
133
178
230
126
38
268
217
11
177
65
108
77
100
6
203
113
272
241
278
229
310
298
5
315
312
21
243
81
116
276
205
148
64
322
228
135
149
10
145
69
132
138
207
225
143
8
224
40
7
154
237
92
273
36
118
28
201
187
19
94
196
173
314
304
211
62
157
117
297
76
279
244
269
192
114
155
309
3
267
259
110
246
254
137
112
239
128
74
168
22
308
26
265
233
306
51
181
124
294
61
264
247
290
25
144
160
193
285
198
89
186
52
184
125
131
303
281
280
223
41
56
49
320
214
231
182
60
257
202
142
106
250
301
263
115
242
91
140
71
249
167
275
88
262
288
139
32
248
299
226
86
270
212
20
316
197
12
68

> <PUBCHEM_MMFF94_PARTIAL_CHARGES>
31
1 -0.18
10 0.36
11 0.18
12 -0.14
13 -0.01
14 -0.15
15 -0.15
16 -0.15
17 0.1
18 -0.15
19 -0.15
2 1.45
20 -0.15
21 0.18
22 0.34
23 0.66
28 0.42
29 0.15
3 -0.08
30 0.15
31 0.15
32 0.15
33 0.15
34 0.15
37 0.5
4 -0.65
5 -0.65
6 -0.34
7 -0.65
8 -0.57
9 -0.91

> <PUBCHEM_EFFECTIVE_ROTOR_COUNT>
8

> <PUBCHEM_PHARMACOPHORE_FEATURES>
9
1 4 acceptor
1 5 acceptor
1 6 acceptor
1 7 acceptor
1 8 acceptor
1 9 donor
3 7 8 23 anion
5 3 12 14 17 18 rings
6 13 15 16 19 20 21 rings

> <PUBCHEM_HEAVY_ATOM_COUNT>
23

> <PUBCHEM_ATOM_DEF_STEREO_COUNT>
0

> <PUBCHEM_ATOM_UDEF_STEREO_COUNT>
0

> <PUBCHEM_BOND_DEF_STEREO_COUNT>
0

> <PUBCHEM_BOND_UDEF_STEREO_COUNT>
0

> <PUBCHEM_ISOTOPIC_ATOM_COUNT>
0

> <PUBCHEM_COMPONENT_COUNT>
1

> <PUBCHEM_CACTVS_TAUTO_COUNT>
1

> <PUBCHEM_CONFORMER_ID>
0001F8EE00000001

> <PUBCHEM_MMFF94_ENERGY>
23.5773

> <PUBCHEM_FEATURE_SELFOVERLAP>
45.753

> <PUBCHEM_SHAPE_FINGERPRINT>
104564 63 18340773658905899020
10688039 33 18041559135612138837
11513181 2 17843685461253353151
12422481 6 18194943168071142082
12633257 1 17677319636343370107
12788726 201 18411991260431143528
128993 33 17177994212043278262
13140716 1 18193549202307484376
14464042 87 18202286862384201961
14790565 3 18192156112290758420
15210252 30 18114750429439260164
15238133 3 18187362181801066630
1601671 61 18411135852831253242
17093844 170 18409441510029876448
20905425 154 18197783210847926125
21041028 32 18266451014727048631
238 59 17117470520914425422
3014063 31 18339638941178145941
3052486 1 18191600665359957564
338550 245 18192161399701487069
474 4 18408884074920094471
7832392 63 18199742716662613334
8509985 295 18407758157600858455

> <PUBCHEM_SHAPE_MULTIPOLES>
448.57
8.43
4.09
1.32
9.31
0.85
0.01
0.21
0.05
-0.88
-0.24
-0.19
0.1
-0.35

> <PUBCHEM_SHAPE_SELFOVERLAP>
903.915

> <PUBCHEM_SHAPE_VOLUME>
263.3

> <PUBCHEM_COORDINATE_TYPE>
2
5
10

$$$$
