129282
  -OEChem-03292013323D

 37 37  0     0  0  0  0  0  0999 V2000
    1.1801   -1.7738    0.1807 O   0  0  0  0  0  0  0  0  0  0  0  0
    3.6053   -0.3794   -0.0033 O   0  0  0  0  0  0  0  0  0  0  0  0
    0.1003   -3.5106   -0.8761 O   0  0  0  0  0  0  0  0  0  0  0  0
   -0.9826    2.4426   -0.7568 O   0  0  0  0  0  0  0  0  0  0  0  0
   -5.2059    1.0219   -0.9123 O   0  0  0  0  0  0  0  0  0  0  0  0
   -2.7711    2.7883    0.6027 O   0  0  0  0  0  0  0  0  0  0  0  0
   -5.1024    1.0856    1.3574 O   0  0  0  0  0  0  0  0  0  0  0  0
    5.3034    0.3027    1.3930 O   0  0  0  0  0  0  0  0  0  0  0  0
   -1.1276   -1.5890   -0.1793 C   0  0  0  0  0  0  0  0  0  0  0  0
   -2.1611    0.5594   -0.0171 C   0  0  0  0  0  0  0  0  0  0  0  0
   -3.4038   -0.0587    0.1207 C   0  0  0  0  0  0  0  0  0  0  0  0
   -1.0103   -0.2143   -0.1686 C   0  0  0  0  0  0  0  0  0  0  0  0
   -2.3452   -2.2242   -0.0449 C   0  0  0  0  0  0  0  0  0  0  0  0
   -3.4959   -1.4504    0.1069 C   0  0  0  0  0  0  0  0  0  0  0  0
    2.4192   -2.4656    0.0842 C   0  0  0  0  0  0  0  0  0  0  0  0
    0.0972   -2.4126   -0.3413 C   0  0  0  0  0  0  0  0  0  0  0  0
    3.5096   -1.6171    0.7097 C   0  0  0  0  0  0  0  0  0  0  0  0
   -2.0318    2.0110   -0.0066 C   0  0  0  0  0  0  0  0  0  0  0  0
   -4.6243    0.7215    0.2800 C   0  0  0  0  0  0  0  0  0  0  0  0
    4.5492    0.4905    0.4489 C   0  0  0  0  0  0  0  0  0  0  0  0
    4.5301    1.7248   -0.3847 C   0  0  0  0  0  0  0  0  0  0  0  0
    3.5634    1.8546   -1.5217 C   0  0  0  0  0  0  0  0  0  0  0  0
    5.4040    2.6926   -0.0713 C   0  0  0  0  0  0  0  0  0  0  0  0
   -0.0394    0.2610   -0.2772 H   0  0  0  0  0  0  0  0  0  0  0  0
   -2.4291   -3.3069   -0.0510 H   0  0  0  0  0  0  0  0  0  0  0  0
   -4.4586   -1.9438    0.2142 H   0  0  0  0  0  0  0  0  0  0  0  0
    2.3495   -3.4264    0.6058 H   0  0  0  0  0  0  0  0  0  0  0  0
    2.6458   -2.6359   -0.9748 H   0  0  0  0  0  0  0  0  0  0  0  0
    3.2575   -1.3996    1.7541 H   0  0  0  0  0  0  0  0  0  0  0  0
    4.4685   -2.1446    0.6611 H   0  0  0  0  0  0  0  0  0  0  0  0
    3.7297    1.0633   -2.2602 H   0  0  0  0  0  0  0  0  0  0  0  0
    2.5321    1.7861   -1.1597 H   0  0  0  0  0  0  0  0  0  0  0  0
    3.6669    2.8144   -2.0393 H   0  0  0  0  0  0  0  0  0  0  0  0
   -0.9016    3.4201   -0.7435 H   0  0  0  0  0  0  0  0  0  0  0  0
   -6.0258    1.5478   -0.7964 H   0  0  0  0  0  0  0  0  0  0  0  0
    5.4393    3.6161   -0.6411 H   0  0  0  0  0  0  0  0  0  0  0  0
    6.1062    2.6041    0.7509 H   0  0  0  0  0  0  0  0  0  0  0  0
  1 15  1  0  0  0  0
  1 16  1  0  0  0  0
  2 17  1  0  0  0  0
  2 20  1  0  0  0  0
  3 16  2  0  0  0  0
  4 18  1  0  0  0  0
  4 34  1  0  0  0  0
  5 19  1  0  0  0  0
  5 35  1  0  0  0  0
  6 18  2  0  0  0  0
  7 19  2  0  0  0  0
  8 20  2  0  0  0  0
  9 12  2  0  0  0  0
  9 13  1  0  0  0  0
  9 16  1  0  0  0  0
 10 11  2  0  0  0  0
 10 12  1  0  0  0  0
 10 18  1  0  0  0  0
 11 14  1  0  0  0  0
 11 19  1  0  0  0  0
 12 24  1  0  0  0  0
 13 14  2  0  0  0  0
 13 25  1  0  0  0  0
 14 26  1  0  0  0  0
 15 17  1  0  0  0  0
 15 27  1  0  0  0  0
 15 28  1  0  0  0  0
 17 29  1  0  0  0  0
 17 30  1  0  0  0  0
 20 21  1  0  0  0  0
 21 22  1  0  0  0  0
 21 23  2  0  0  0  0
 22 31  1  0  0  0  0
 22 32  1  0  0  0  0
 22 33  1  0  0  0  0
 23 36  1  0  0  0  0
 23 37  1  0  0  0  0
M  END
> <PUBCHEM_COMPOUND_CID>
129282

> <PUBCHEM_CONFORMER_RMSD>
1

> <PUBCHEM_CONFORMER_DIVERSEORDER>
1
32
8
4
19
15
7
21
34
26
3
9
23
6
10
24
18
11
25
20
27
31
12
28
33
2
29
16
14
17
22
5
13
30

> <PUBCHEM_MMFF94_PARTIAL_CHARGES>
30
1 -0.43
10 0.09
11 0.09
12 -0.15
13 -0.15
14 -0.15
15 0.28
16 0.63
17 0.28
18 0.63
19 0.63
2 -0.43
20 0.71
21 -0.12
22 0.14
23 -0.3
24 0.15
25 0.15
26 0.15
3 -0.57
34 0.5
35 0.5
36 0.15
37 0.15
4 -0.65
5 -0.65
6 -0.57
7 -0.57
8 -0.57
9 0.09

> <PUBCHEM_EFFECTIVE_ROTOR_COUNT>
9

> <PUBCHEM_PHARMACOPHORE_FEATURES>
9
1 3 acceptor
1 4 acceptor
1 5 acceptor
1 6 acceptor
1 7 acceptor
1 8 acceptor
3 4 6 18 anion
3 5 7 19 anion
6 9 10 11 12 13 14 rings

> <PUBCHEM_HEAVY_ATOM_COUNT>
23

> <PUBCHEM_ATOM_DEF_STEREO_COUNT>
0

> <PUBCHEM_ATOM_UDEF_STEREO_COUNT>
0

> <PUBCHEM_BOND_DEF_STEREO_COUNT>
0

> <PUBCHEM_BOND_UDEF_STEREO_COUNT>
0

> <PUBCHEM_ISOTOPIC_ATOM_COUNT>
0

> <PUBCHEM_COMPONENT_COUNT>
1

> <PUBCHEM_CACTVS_TAUTO_COUNT>
1

> <PUBCHEM_CONFORMER_ID>
0001F90200000001

> <PUBCHEM_MMFF94_ENERGY>
66.2311

> <PUBCHEM_FEATURE_SELFOVERLAP>
45.791

> <PUBCHEM_SHAPE_FINGERPRINT>
10498660 4 18411141367880439182
10670039 82 18336273444171824196
10871710 139 18269833292867182463
11578080 2 14403810622197233569
12422481 6 17748822995037748973
12633257 1 15647614596538159502
12788726 201 17469904623780890582
12925494 130 18051973619583344737
12978246 48 18408881841558167256
14117953 113 18335134242118497164
14251764 38 18337674105420229984
14767858 380 18199450195604790583
14790565 3 18124884465167665937
14840074 17 18041006175715984884
15196674 1 18409729599298232358
15342168 16 18411418410203324926
17810953 82 18409732833434960628
20715895 44 18190732047121692149
21623110 236 18411420588194660657
23227448 37 18411134744787927639
23559900 14 18269281166426818150
245318 6 17896617248115751036
34797466 226 15123211265813033267
350125 39 18338238168081527726
474 4 18187083949282188450
474144 1 17532389740685803684
5104073 3 18333734615055492891
7064713 232 18411415129228047184
7808743 9 18268708493120300690
9981440 41 18261956374802729154

> <PUBCHEM_SHAPE_MULTIPOLES>
426.37
12.06
3.73
0.97
6.97
0.79
0.01
-8.03
-1.97
0.88
0.55
0.36
-0.23
-1.04

> <PUBCHEM_SHAPE_SELFOVERLAP>
894.677

> <PUBCHEM_SHAPE_VOLUME>
239.4

> <PUBCHEM_COORDINATE_TYPE>
2
5
10

$$$$
