129202
  -OEChem-03292013323D

 31 30  0     0  0  0  0  0  0999 V2000
   -1.5058    0.2143    0.3366 N   0  0  0  0  0  0  0  0  0  0  0  0
    1.5671   -0.0400   -0.0190 N   0  0  0  0  0  0  0  0  0  0  0  0
   -2.7534   -0.1667   -0.1412 N   0  0  0  0  0  0  0  0  0  0  0  0
    2.8164    0.2576    0.5133 N   0  0  0  0  0  0  0  0  0  0  0  0
   -4.9021    0.7847   -0.6140 N   0  0  0  0  0  0  0  0  0  0  0  0
   -3.2172    2.0944    0.2037 N   0  0  0  0  0  0  0  0  0  0  0  0
    4.9583    0.9745   -0.0740 N   0  0  0  0  0  0  0  0  0  0  0  0
    3.4248    0.7467   -1.7530 N   0  0  0  0  0  0  0  0  0  0  0  0
   -0.8867   -2.2023   -0.0057 C   0  0  0  0  0  0  0  0  0  0  0  0
   -0.6598   -0.7643    0.3914 C   0  0  0  0  0  0  0  0  0  0  0  0
    0.7154   -0.4157    0.8801 C   0  0  0  0  0  0  0  0  0  0  0  0
   -0.5920   -2.4053   -1.4807 C   0  0  0  0  0  0  0  0  0  0  0  0
    0.9604   -0.5467    2.3548 C   0  0  0  0  0  0  0  0  0  0  0  0
   -3.5937    0.8331   -0.1895 C   0  0  0  0  0  0  0  0  0  0  0  0
    3.6683    0.6357   -0.4028 C   0  0  0  0  0  0  0  0  0  0  0  0
   -0.2320   -2.8441    0.5944 H   0  0  0  0  0  0  0  0  0  0  0  0
   -1.9157   -2.4976    0.2217 H   0  0  0  0  0  0  0  0  0  0  0  0
    0.4492   -2.1604   -1.7140 H   0  0  0  0  0  0  0  0  0  0  0  0
   -0.7675   -3.4477   -1.7635 H   0  0  0  0  0  0  0  0  0  0  0  0
   -1.2298   -1.7695   -2.1033 H   0  0  0  0  0  0  0  0  0  0  0  0
    1.2722    0.4183    2.7637 H   0  0  0  0  0  0  0  0  0  0  0  0
    1.7434   -1.2891    2.5318 H   0  0  0  0  0  0  0  0  0  0  0  0
    0.0508   -0.8673    2.8699 H   0  0  0  0  0  0  0  0  0  0  0  0
   -5.4885    1.6121   -0.6186 H   0  0  0  0  0  0  0  0  0  0  0  0
   -5.3172   -0.0837   -0.9337 H   0  0  0  0  0  0  0  0  0  0  0  0
   -2.2795    2.2819    0.5415 H   0  0  0  0  0  0  0  0  0  0  0  0
   -3.8642    2.8746    0.1696 H   0  0  0  0  0  0  0  0  0  0  0  0
    5.2806    0.9400    0.8870 H   0  0  0  0  0  0  0  0  0  0  0  0
    5.6248    1.2695   -0.7791 H   0  0  0  0  0  0  0  0  0  0  0  0
    4.1465    1.0485   -2.3983 H   0  0  0  0  0  0  0  0  0  0  0  0
    2.5136    0.5273   -2.1407 H   0  0  0  0  0  0  0  0  0  0  0  0
  1  3  1  0  0  0  0
  1 10  2  3  0  0  0
  2  4  1  0  0  0  0
  2 11  2  3  0  0  0
  3 14  2  0  0  0  0
  4 15  2  0  0  0  0
  5 14  1  0  0  0  0
  5 24  1  0  0  0  0
  5 25  1  0  0  0  0
  6 14  1  0  0  0  0
  6 26  1  0  0  0  0
  6 27  1  0  0  0  0
  7 15  1  0  0  0  0
  7 28  1  0  0  0  0
  7 29  1  0  0  0  0
  8 15  1  0  0  0  0
  8 30  1  0  0  0  0
  8 31  1  0  0  0  0
  9 10  1  0  0  0  0
  9 12  1  0  0  0  0
  9 16  1  0  0  0  0
  9 17  1  0  0  0  0
 10 11  1  0  0  0  0
 11 13  1  0  0  0  0
 12 18  1  0  0  0  0
 12 19  1  0  0  0  0
 12 20  1  0  0  0  0
 13 21  1  0  0  0  0
 13 22  1  0  0  0  0
 13 23  1  0  0  0  0
M  END
> <PUBCHEM_COMPOUND_CID>
129202

> <PUBCHEM_CONFORMER_RMSD>
0.6

> <PUBCHEM_CONFORMER_DIVERSEORDER>
1
6
10
7
12
8
9
2
5
11
3
4

> <PUBCHEM_MMFF94_PARTIAL_CHARGES>
22
1 -0.45
10 0.39
11 0.39
13 0.06
14 0.55
15 0.55
2 -0.45
24 0.4
25 0.4
26 0.4
27 0.4
28 0.4
29 0.4
3 -0.45
30 0.4
31 0.4
4 -0.45
5 -0.85
6 -0.85
7 -0.85
8 -0.85
9 0.06

> <PUBCHEM_EFFECTIVE_ROTOR_COUNT>
4

> <PUBCHEM_PHARMACOPHORE_FEATURES>
9
1 1 acceptor
1 12 hydrophobe
1 2 acceptor
1 5 donor
1 6 donor
1 7 donor
1 8 donor
4 3 5 6 14 cation
4 4 7 8 15 cation

> <PUBCHEM_HEAVY_ATOM_COUNT>
15

> <PUBCHEM_ATOM_DEF_STEREO_COUNT>
0

> <PUBCHEM_ATOM_UDEF_STEREO_COUNT>
0

> <PUBCHEM_BOND_DEF_STEREO_COUNT>
0

> <PUBCHEM_BOND_UDEF_STEREO_COUNT>
2

> <PUBCHEM_ISOTOPIC_ATOM_COUNT>
0

> <PUBCHEM_COMPONENT_COUNT>
1

> <PUBCHEM_CACTVS_TAUTO_COUNT>
8

> <PUBCHEM_CONFORMER_ID>
0001F8B200000001

> <PUBCHEM_MMFF94_ENERGY>
42.1332

> <PUBCHEM_FEATURE_SELFOVERLAP>
45.781

> <PUBCHEM_SHAPE_FINGERPRINT>
10726558 24 18202287970116531303
11769659 78 11743838045105022746
12138202 97 17988645237177966718
12186901 62 18340212997964805279
122479 349 17676778659727185576
12251169 10 13695593260231221913
12500047 106 18201718500808936670
15342168 16 16081381803256481038
15534591 1 18113899407048854138
15775835 57 18113616785231381689
18186145 218 17203320118143495507
18380122 1 13840251564159880002
187816 3 17346883351086717490
19868273 293 18342174505165070066
200 152 13758362167611673636
20279233 1 17203337749353471430
20645476 183 18409163346151307883
20645477 56 18342460395536894760
20645477 70 16415213252002800972
20671657 53 13614521861284191785
20711985 327 11674889878973039355
20871999 31 18058724848404544135
21256008 61 14117795830088168928
21524375 3 18261110751164608241
22218785 32 18202284688566358079
22713019 99 16200430277781329207
23402539 116 18272643567262132972
23419403 2 17621934916713318427
23526113 38 16988848271822626406
23557571 272 17842545521082309384
23559900 14 17561366214879798346
298252 57 18410013242906445266
351380 3 11815896760135280980
4175511 318 18271814569917766694
474 4 17313107466504983976
4990 188 16845564314732249269
81228 2 17411310502417615563
81539 233 18263639581054587247
88987 49 18128513029189627538

> <PUBCHEM_SHAPE_MULTIPOLES>
268.84
8.09
1.93
1.47
1.21
1.04
-0.49
-5.99
2.78
-1.41
0.62
1
0.36
-0.41

> <PUBCHEM_SHAPE_SELFOVERLAP>
519.235

> <PUBCHEM_SHAPE_VOLUME>
160.7

> <PUBCHEM_COORDINATE_TYPE>
2
5
10

$$$$
