129206
  -OEChem-03292013323D

 32 33  0     1  0  0  0  0  0999 V2000
   -6.6352   -0.4710    0.1900 Cl  0  0  0  0  0  0  0  0  0  0  0  0
   -5.0267    1.5906   -1.0869 Cl  0  0  0  0  0  0  0  0  0  0  0  0
   -4.9025    1.2042    1.8016 Cl  0  0  0  0  0  0  0  0  0  0  0  0
    3.4705   -2.5746    0.2283 O   0  0  0  0  0  0  0  0  0  0  0  0
    4.8037    1.9178   -0.0702 O   0  0  0  0  0  0  0  0  0  0  0  0
   -4.1116   -1.3888   -1.1721 O   0  0  0  0  0  0  0  0  0  0  0  0
    2.5266    1.4409   -0.1099 N   0  0  0  0  0  0  0  0  0  0  0  0
    0.6801   -1.5312    0.0534 N   0  0  0  0  0  0  0  0  0  0  0  0
    4.1667   -0.3312    0.0803 N   0  0  0  0  0  0  0  0  0  0  0  0
    0.2000    0.6384   -0.1274 N   0  0  0  0  0  0  0  0  0  0  0  0
   -1.5884   -0.9847   -0.0644 N   0  0  0  0  0  0  0  0  0  0  0  0
   -2.5822   -0.0183    0.0670 N   0  0  0  0  0  0  0  0  0  0  0  0
    1.8773   -0.8745    0.0434 C   0  0  0  0  0  0  0  0  0  0  0  0
    1.5549    0.4504   -0.0678 C   0  0  0  0  0  0  0  0  0  0  0  0
   -0.2996   -0.5779   -0.0517 C   0  0  0  0  0  0  0  0  0  0  0  0
    3.2094   -1.3794    0.1271 C   0  0  0  0  0  0  0  0  0  0  0  0
    3.8952    1.0799   -0.0366 C   0  0  0  0  0  0  0  0  0  0  0  0
    2.1336    2.8394   -0.2295 C   0  0  0  0  0  0  0  0  0  0  0  0
   -3.9005   -0.6683    0.0463 C   0  0  1  0  0  0  0  0  0  0  0  0
    5.5698   -0.7230    0.1585 C   0  0  0  0  0  0  0  0  0  0  0  0
   -5.0410    0.3612    0.2206 C   0  0  0  0  0  0  0  0  0  0  0  0
    0.5390   -2.5301    0.1247 H   0  0  0  0  0  0  0  0  0  0  0  0
   -1.8403   -1.9595    0.0755 H   0  0  0  0  0  0  0  0  0  0  0  0
    3.0036    3.5007   -0.2493 H   0  0  0  0  0  0  0  0  0  0  0  0
    1.5062    3.1070    0.6264 H   0  0  0  0  0  0  0  0  0  0  0  0
    1.5684    2.9718   -1.1571 H   0  0  0  0  0  0  0  0  0  0  0  0
   -3.9576   -1.4008    0.8633 H   0  0  0  0  0  0  0  0  0  0  0  0
    5.7036   -1.8036    0.2455 H   0  0  0  0  0  0  0  0  0  0  0  0
    6.0217   -0.2319    1.0263 H   0  0  0  0  0  0  0  0  0  0  0  0
    6.0825   -0.3667   -0.7407 H   0  0  0  0  0  0  0  0  0  0  0  0
   -2.4657    0.4542    0.9639 H   0  0  0  0  0  0  0  0  0  0  0  0
   -3.3178   -1.9264   -1.3280 H   0  0  0  0  0  0  0  0  0  0  0  0
  1 21  1  0  0  0  0
  2 21  1  0  0  0  0
  3 21  1  0  0  0  0
  4 16  2  0  0  0  0
  5 17  2  0  0  0  0
  6 19  1  0  0  0  0
  6 32  1  0  0  0  0
  7 14  1  0  0  0  0
  7 17  1  0  0  0  0
  7 18  1  0  0  0  0
  8 13  1  0  0  0  0
  8 15  1  0  0  0  0
  8 22  1  0  0  0  0
  9 16  1  0  0  0  0
  9 17  1  0  0  0  0
  9 20  1  0  0  0  0
 10 14  1  0  0  0  0
 10 15  2  0  0  0  0
 11 12  1  0  0  0  0
 11 15  1  0  0  0  0
 11 23  1  0  0  0  0
 12 19  1  0  0  0  0
 12 31  1  0  0  0  0
 13 14  2  0  0  0  0
 13 16  1  0  0  0  0
 18 24  1  0  0  0  0
 18 25  1  0  0  0  0
 18 26  1  0  0  0  0
 19 21  1  0  0  0  0
 19 27  1  0  0  0  0
 20 28  1  0  0  0  0
 20 29  1  0  0  0  0
 20 30  1  0  0  0  0
M  END
> <PUBCHEM_COMPOUND_CID>
129206

> <PUBCHEM_CONFORMER_RMSD>
0.6

> <PUBCHEM_CONFORMER_DIVERSEORDER>
1
15
21
27
12
13
16
10
18
19
6
14
25
11
3
23
2
5
4
24
9
17
8
20
22
26
7
28

> <PUBCHEM_MMFF94_PARTIAL_CHARGES>
25
1 -0.29
10 -0.57
11 -0.5
12 -0.62
13 -0.24
14 0.29
15 0.27
16 0.71
17 0.69
18 0.3
19 0.55
2 -0.29
20 0.3
21 0.87
22 0.27
23 0.4
3 -0.29
31 0.36
32 0.4
4 -0.57
5 -0.57
6 -0.68
7 -0.42
8 0.03
9 -0.42

> <PUBCHEM_EFFECTIVE_ROTOR_COUNT>
4

> <PUBCHEM_PHARMACOPHORE_FEATURES>
10
1 11 donor
1 12 donor
1 4 acceptor
1 5 acceptor
1 6 acceptor
1 6 donor
1 8 donor
4 8 10 11 15 cation
5 8 10 13 14 15 rings
6 7 9 13 14 16 17 rings

> <PUBCHEM_HEAVY_ATOM_COUNT>
21

> <PUBCHEM_ATOM_DEF_STEREO_COUNT>
0

> <PUBCHEM_ATOM_UDEF_STEREO_COUNT>
1

> <PUBCHEM_BOND_DEF_STEREO_COUNT>
0

> <PUBCHEM_BOND_UDEF_STEREO_COUNT>
0

> <PUBCHEM_ISOTOPIC_ATOM_COUNT>
0

> <PUBCHEM_COMPONENT_COUNT>
1

> <PUBCHEM_CACTVS_TAUTO_COUNT>
5

> <PUBCHEM_CONFORMER_ID>
0001F8B600000001

> <PUBCHEM_MMFF94_ENERGY>
35.176

> <PUBCHEM_FEATURE_SELFOVERLAP>
52.401

> <PUBCHEM_SHAPE_FINGERPRINT>
10354089 29 18410858767258326050
10411042 1 18121217572636015202
10595046 47 18343300409778343175
10688039 33 17822290158651004252
10912923 1 18202282494360374123
11089746 13 17489861644434949664
11471102 20 18409164454853711350
12107183 9 17838061399226617363
12236239 1 18131071545702969843
13167372 99 18270967839165437273
13167823 11 18271804657370994655
13675066 3 17894918416824908095
13785724 45 17693946193507642487
14341114 176 18408327687634107189
15081414 286 18408891737004743660
15196674 1 18410009957192952109
15788980 27 18187082849822970175
17834072 33 18342174488164542551
17844677 252 18334299734489228165
19433438 28 17894914023295020789
20281389 69 18334574655082308721
20612939 158 18408887351494500444
20645477 70 18412827953945285246
21033648 29 17531234076755520637
21267235 1 18410860924097007446
21709351 56 18412256251159290183
22289505 5 18409442553706845052
23402539 116 16988841666284030161
23402655 69 18272932743051732767
23557571 272 14117527519265556715
23559900 14 18413666907366468594
29717793 49 17632582634607898494
300161 21 18272363183412843487
335352 9 18409731773010743862
34797466 226 15769779099547937393
3545911 37 18410294731094838683
4073 2 17968101970920781635
4214541 1 18410855465145893615
42630746 31 18411982464306122046
474 4 18335986470903809633
5104073 3 18409729598897384595
542803 24 17775569740944081027
543358 83 18412266138232072738
54446538 1 18343303669737635769
7495541 125 13045950126464148783
8272917 22 18413393120449926022
90127 26 17895197662840355153

> <PUBCHEM_SHAPE_MULTIPOLES>
390.29
14.9
2.23
0.9
12.23
0.74
-0.18
0.85
-0.93
-2.1
0.16
1.48
0.23
-0.57

> <PUBCHEM_SHAPE_SELFOVERLAP>
790.998

> <PUBCHEM_SHAPE_VOLUME>
229.1

> <PUBCHEM_COORDINATE_TYPE>
2
5
10

$$$$
