129258
  -OEChem-03292013323D

 34 37  0     0  0  0  0  0  0999 V2000
    2.1982   -3.0525   -0.0001 O   0  0  0  0  0  0  0  0  0  0  0  0
   -0.5288   -2.8142    0.0000 O   0  0  0  0  0  0  0  0  0  0  0  0
   -1.7158    2.4624   -0.0005 O   0  0  0  0  0  0  0  0  0  0  0  0
   -4.2324    1.9490    0.0010 O   0  0  0  0  0  0  0  0  0  0  0  0
    1.0600    1.4779    0.0004 N   0  0  0  0  0  0  0  0  0  0  0  0
    1.2183    3.9873   -0.0008 N   0  0  0  0  0  0  0  0  0  0  0  0
    0.2369   -0.5861    0.0006 C   0  0  0  0  0  0  0  0  0  0  0  0
    1.6599   -0.6757    0.0004 C   0  0  0  0  0  0  0  0  0  0  0  0
   -0.0993    0.7509    0.0006 C   0  0  0  0  0  0  0  0  0  0  0  0
    2.1484    0.6344    0.0002 C   0  0  0  0  0  0  0  0  0  0  0  0
   -0.7813   -1.6167    0.0005 C   0  0  0  0  0  0  0  0  0  0  0  0
   -2.1975   -1.1414    0.0002 C   0  0  0  0  0  0  0  0  0  0  0  0
   -2.5150    0.2326    0.0004 C   0  0  0  0  0  0  0  0  0  0  0  0
   -1.4412    1.2688    0.0007 C   0  0  0  0  0  0  0  0  0  0  0  0
    2.5874   -1.7386    0.0003 C   0  0  0  0  0  0  0  0  0  0  0  0
    3.5160    0.9324   -0.0003 C   0  0  0  0  0  0  0  0  0  0  0  0
    4.4132   -0.1387   -0.0002 C   0  0  0  0  0  0  0  0  0  0  0  0
    3.9580   -1.4549    0.0002 C   0  0  0  0  0  0  0  0  0  0  0  0
   -3.8540    0.6393   -0.0001 C   0  0  0  0  0  0  0  0  0  0  0  0
   -3.2268   -2.0898   -0.0006 C   0  0  0  0  0  0  0  0  0  0  0  0
   -4.8713   -0.3154   -0.0008 C   0  0  0  0  0  0  0  0  0  0  0  0
    5.8811    0.1341   -0.0008 C   0  0  0  0  0  0  0  0  0  0  0  0
   -4.5592   -1.6742   -0.0011 C   0  0  0  0  0  0  0  0  0  0  0  0
    1.1452    2.8290   -0.0003 C   0  0  0  0  0  0  0  0  0  0  0  0
    3.8694    1.9589    0.0013 H   0  0  0  0  0  0  0  0  0  0  0  0
    4.6778   -2.2710    0.0021 H   0  0  0  0  0  0  0  0  0  0  0  0
   -3.0145   -3.1556   -0.0008 H   0  0  0  0  0  0  0  0  0  0  0  0
   -5.9167   -0.0172   -0.0010 H   0  0  0  0  0  0  0  0  0  0  0  0
   -5.3560   -2.4126   -0.0015 H   0  0  0  0  0  0  0  0  0  0  0  0
    6.1055    1.1050   -0.4556 H   0  0  0  0  0  0  0  0  0  0  0  0
    6.2633    0.1325    1.0248 H   0  0  0  0  0  0  0  0  0  0  0  0
    6.4213   -0.6225   -0.5800 H   0  0  0  0  0  0  0  0  0  0  0  0
    2.9887   -3.6191   -0.0005 H   0  0  0  0  0  0  0  0  0  0  0  0
   -5.2030    2.0087    0.0005 H   0  0  0  0  0  0  0  0  0  0  0  0
  1 15  1  0  0  0  0
  1 33  1  0  0  0  0
  2 11  2  0  0  0  0
  3 14  2  0  0  0  0
  4 19  1  0  0  0  0
  4 34  1  0  0  0  0
  5  9  1  0  0  0  0
  5 10  1  0  0  0  0
  5 24  1  0  0  0  0
  6 24  3  0  0  0  0
  7  8  1  0  0  0  0
  7  9  2  0  0  0  0
  7 11  1  0  0  0  0
  8 10  2  0  0  0  0
  8 15  1  0  0  0  0
  9 14  1  0  0  0  0
 10 16  1  0  0  0  0
 11 12  1  0  0  0  0
 12 13  2  0  0  0  0
 12 20  1  0  0  0  0
 13 14  1  0  0  0  0
 13 19  1  0  0  0  0
 15 18  2  0  0  0  0
 16 17  2  0  0  0  0
 16 25  1  0  0  0  0
 17 18  1  0  0  0  0
 17 22  1  0  0  0  0
 18 26  1  0  0  0  0
 19 21  2  0  0  0  0
 20 23  2  0  0  0  0
 20 27  1  0  0  0  0
 21 23  1  0  0  0  0
 21 28  1  0  0  0  0
 22 30  1  0  0  0  0
 22 31  1  0  0  0  0
 22 32  1  0  0  0  0
 23 29  1  0  0  0  0
M  END
> <PUBCHEM_COMPOUND_CID>
129258

> <PUBCHEM_CONFORMER_RMSD>
0.6

> <PUBCHEM_CONFORMER_DIVERSEORDER>
1

> <PUBCHEM_MMFF94_PARTIAL_CHARGES>
30
1 -0.53
10 -0.15
11 0.57
12 0.09
13 0.09
14 0.57
15 0.08
16 -0.15
17 -0.14
18 -0.15
19 0.08
2 -0.57
20 -0.15
21 -0.15
22 0.14
23 -0.15
24 0.46
25 0.15
26 0.15
27 0.15
28 0.15
29 0.15
3 -0.57
33 0.45
34 0.45
4 -0.53
5 0.4
6 -0.56
7 -0.09
9 -0.24

> <PUBCHEM_EFFECTIVE_ROTOR_COUNT>
0

> <PUBCHEM_PHARMACOPHORE_FEATURES>
11
1 1 donor
1 2 acceptor
1 3 acceptor
1 4 donor
1 5 cation
1 6 acceptor
3 5 6 24 cation
5 5 7 8 9 10 rings
6 12 13 19 20 21 23 rings
6 7 9 11 12 13 14 rings
6 8 10 15 16 17 18 rings

> <PUBCHEM_HEAVY_ATOM_COUNT>
24

> <PUBCHEM_ATOM_DEF_STEREO_COUNT>
0

> <PUBCHEM_ATOM_UDEF_STEREO_COUNT>
0

> <PUBCHEM_BOND_DEF_STEREO_COUNT>
0

> <PUBCHEM_BOND_UDEF_STEREO_COUNT>
0

> <PUBCHEM_ISOTOPIC_ATOM_COUNT>
0

> <PUBCHEM_COMPONENT_COUNT>
1

> <PUBCHEM_CACTVS_TAUTO_COUNT>
72

> <PUBCHEM_CONFORMER_ID>
0001F8EA00000001

> <PUBCHEM_MMFF94_ENERGY>
58.3679

> <PUBCHEM_FEATURE_SELFOVERLAP>
57.943

> <PUBCHEM_SHAPE_FINGERPRINT>
10411042 1 18266741281560395022
10616163 171 18411983559243350631
10675989 125 16821351677104556989
10906281 52 18264508285424040522
10967382 1 18410855434379496006
1100329 8 18266458896203007362
11578080 2 16842747520086444154
12011746 2 18411135839988562494
12107183 9 17761208813009405563
12403259 226 18409162247040541853
12553582 1 18338785788911378806
12838862 33 18338215137817760684
13140716 1 18049722120321495538
138480 1 18338516455570428197
13862211 1 18410569608817569106
14787075 74 18187368744347389256
14790565 3 18337679727733270324
14866123 147 17332530068557818643
15042514 8 18193835934197772570
15196674 1 18410575050382864582
15230672 131 13290805366888581003
15442244 35 18411419505598949985
15927050 60 17620757619349023884
1601671 61 18411982451331218034
16087824 20 18266179440346924077
16945 1 18338799034416296896
17492 89 18050003591061865059
1813 80 17313107436345131542
18681886 176 18340203102881855778
19591789 44 18338516335448169166
200 152 18131349717528173931
20028762 73 18057884830618150383
20642791 178 18188223090351957548
21029758 11 18412542102386116456
21033648 29 17631998810791815114
21267235 1 18410582815631014219
21279426 13 18266178335764258751
21421861 104 17897720960247929178
221490 88 18263931114564734051
2334 1 18338797814756348142
23366157 5 17898003775127964828
23402539 116 18341888589271166966
23559900 14 18340197596117052073
2748010 2 18339638915381806124
3004659 81 18187367593734471550
335352 9 18410573998083891197
34934 24 18338231574842407186
350125 39 18410015476832738241
3886686 26 17038069860472779330
4214541 1 18410573972535704513
5104073 3 18410855434474695834
59755656 215 18411424978041965390
7364860 26 18267584796009753064
9709674 26 18337676433240042683
9981440 41 17256242069304614632

> <PUBCHEM_SHAPE_MULTIPOLES>
460.47
9.61
3.37
0.59
1.27
1.55
0
-1.85
0
0.21
0
0.01
-0.01
0

> <PUBCHEM_SHAPE_SELFOVERLAP>
1057.859

> <PUBCHEM_SHAPE_VOLUME>
236.5

> <PUBCHEM_COORDINATE_TYPE>
2
5
10

$$$$
