129280
  -OEChem-03292013323D

 73 75  0     1  0  0  0  0  0999 V2000
    0.5933   -0.2473    1.2043 O   0  0  0  0  0  0  0  0  0  0  0  0
    0.5706    1.5567   -0.2747 O   0  0  0  0  0  0  0  0  0  0  0  0
    1.5625    1.4568    3.2393 O   0  0  0  0  0  0  0  0  0  0  0  0
    3.0535    3.7519    2.1518 O   0  0  0  0  0  0  0  0  0  0  0  0
    1.4671    5.0816    0.1113 O   0  0  0  0  0  0  0  0  0  0  0  0
   -0.8599   -3.4953   -2.0169 O   0  0  0  0  0  0  0  0  0  0  0  0
    0.3721    4.4388   -2.2699 O   0  0  0  0  0  0  0  0  0  0  0  0
    0.6388    2.2240   -2.7385 O   0  0  0  0  0  0  0  0  0  0  0  0
    2.2048   -2.6435    0.3342 C   0  0  2  0  0  0  0  0  0  0  0  0
    1.3430   -2.1029   -0.8410 C   0  0  1  0  0  0  0  0  0  0  0  0
    3.6984   -2.5411   -0.0023 C   0  0  0  0  0  0  0  0  0  0  0  0
    4.1044   -1.0938   -0.2873 C   0  0  0  0  0  0  0  0  0  0  0  0
   -0.1042   -1.8772   -0.4170 C   0  0  0  0  0  0  0  0  0  0  0  0
    1.9256   -0.8567   -1.4761 C   0  0  0  0  0  0  0  0  0  0  0  0
    3.1562   -0.3827   -1.2156 C   0  0  0  0  0  0  0  0  0  0  0  0
    1.8484   -4.0639    0.6673 C   0  0  0  0  0  0  0  0  0  0  0  0
    1.7170    1.7617    1.8535 C   0  0  1  0  0  0  0  0  0  0  0  0
    0.5249    1.1740    1.0975 C   0  0  2  0  0  0  0  0  0  0  0  0
    1.7938    3.2781    1.6735 C   0  0  2  0  0  0  0  0  0  0  0  0
    1.6683    3.6722    0.2015 C   0  0  1  0  0  0  0  0  0  0  0  0
   -0.4010   -0.9566    0.5879 C   0  0  0  0  0  0  0  0  0  0  0  0
    0.4840    2.9665   -0.4474 C   0  0  1  0  0  0  0  0  0  0  0  0
   -1.1311   -2.5917   -1.0339 C   0  0  0  0  0  0  0  0  0  0  0  0
   -1.7248   -0.7506    0.9762 C   0  0  0  0  0  0  0  0  0  0  0  0
    3.6656    0.8839   -1.8377 C   0  0  0  0  0  0  0  0  0  0  0  0
   -2.7517   -1.4651    0.3594 C   0  0  0  0  0  0  0  0  0  0  0  0
    1.3469   -4.3110    2.0592 C   0  0  0  0  0  0  0  0  0  0  0  0
   -2.4549   -2.3856   -0.6457 C   0  0  0  0  0  0  0  0  0  0  0  0
   -4.1673   -1.2438    0.7734 C   0  0  0  0  0  0  0  0  0  0  0  0
    1.9722   -5.0548   -0.2281 C   0  0  0  0  0  0  0  0  0  0  0  0
    0.5096    3.1333   -1.9323 C   0  0  0  0  0  0  0  0  0  0  0  0
   -4.8949   -0.1389   -0.0143 C   0  0  0  0  0  0  0  0  0  0  0  0
   -6.3231    0.1036    0.4839 C   0  0  0  0  0  0  0  0  0  0  0  0
   -7.0019    1.2238   -0.3052 C   0  0  0  0  0  0  0  0  0  0  0  0
   -8.4062    1.4958    0.2098 C   0  0  0  0  0  0  0  0  0  0  0  0
    2.0636   -2.0406    1.2379 H   0  0  0  0  0  0  0  0  0  0  0  0
    1.3655   -2.8353   -1.6577 H   0  0  0  0  0  0  0  0  0  0  0  0
    3.9432   -3.1498   -0.8830 H   0  0  0  0  0  0  0  0  0  0  0  0
    4.3087   -2.9279    0.8239 H   0  0  0  0  0  0  0  0  0  0  0  0
    4.1600   -0.5349    0.6546 H   0  0  0  0  0  0  0  0  0  0  0  0
    5.1133   -1.0993   -0.7172 H   0  0  0  0  0  0  0  0  0  0  0  0
    1.2954   -0.3351   -2.1923 H   0  0  0  0  0  0  0  0  0  0  0  0
    2.6508    1.2895    1.5292 H   0  0  0  0  0  0  0  0  0  0  0  0
   -0.4083    1.5308    1.5525 H   0  0  0  0  0  0  0  0  0  0  0  0
    1.0302    3.7809    2.2785 H   0  0  0  0  0  0  0  0  0  0  0  0
    2.5999    3.4502   -0.3302 H   0  0  0  0  0  0  0  0  0  0  0  0
   -0.4859    3.3246   -0.0806 H   0  0  0  0  0  0  0  0  0  0  0  0
   -1.9636   -0.0487    1.7709 H   0  0  0  0  0  0  0  0  0  0  0  0
    3.8770    1.6265   -1.0634 H   0  0  0  0  0  0  0  0  0  0  0  0
    2.9599    1.3167   -2.5493 H   0  0  0  0  0  0  0  0  0  0  0  0
    4.5933    0.6865   -2.3852 H   0  0  0  0  0  0  0  0  0  0  0  0
    2.1037   -4.0171    2.7938 H   0  0  0  0  0  0  0  0  0  0  0  0
    0.4361   -3.7333    2.2464 H   0  0  0  0  0  0  0  0  0  0  0  0
    1.1107   -5.3666    2.2302 H   0  0  0  0  0  0  0  0  0  0  0  0
   -3.2569   -2.9402   -1.1271 H   0  0  0  0  0  0  0  0  0  0  0  0
   -4.1965   -1.0028    1.8445 H   0  0  0  0  0  0  0  0  0  0  0  0
   -4.7273   -2.1836    0.6775 H   0  0  0  0  0  0  0  0  0  0  0  0
    2.3380   -4.8857   -1.2347 H   0  0  0  0  0  0  0  0  0  0  0  0
    1.7092   -6.0759    0.0291 H   0  0  0  0  0  0  0  0  0  0  0  0
    0.7360    1.8658    3.5479 H   0  0  0  0  0  0  0  0  0  0  0  0
    3.7551    3.3062    1.6471 H   0  0  0  0  0  0  0  0  0  0  0  0
   -4.9183   -0.4064   -1.0784 H   0  0  0  0  0  0  0  0  0  0  0  0
   -4.3223    0.7946    0.0603 H   0  0  0  0  0  0  0  0  0  0  0  0
    0.6388    5.2981    0.5725 H   0  0  0  0  0  0  0  0  0  0  0  0
   -1.6932   -3.8926   -2.3228 H   0  0  0  0  0  0  0  0  0  0  0  0
   -6.2981    0.3661    1.5485 H   0  0  0  0  0  0  0  0  0  0  0  0
   -6.9060   -0.8206    0.3916 H   0  0  0  0  0  0  0  0  0  0  0  0
   -6.4095    2.1433   -0.2321 H   0  0  0  0  0  0  0  0  0  0  0  0
   -7.0523    0.9536   -1.3664 H   0  0  0  0  0  0  0  0  0  0  0  0
    0.3886    4.5696   -3.2419 H   0  0  0  0  0  0  0  0  0  0  0  0
   -8.3863    1.8021    1.2607 H   0  0  0  0  0  0  0  0  0  0  0  0
   -8.8734    2.2986   -0.3691 H   0  0  0  0  0  0  0  0  0  0  0  0
   -9.0351    0.6040    0.1233 H   0  0  0  0  0  0  0  0  0  0  0  0
  1 18  1  0  0  0  0
  1 21  1  0  0  0  0
  2 18  1  0  0  0  0
  2 22  1  0  0  0  0
  3 17  1  0  0  0  0
  3 60  1  0  0  0  0
  4 19  1  0  0  0  0
  4 61  1  0  0  0  0
  5 20  1  0  0  0  0
  5 64  1  0  0  0  0
  6 23  1  0  0  0  0
  6 65  1  0  0  0  0
  7 31  1  0  0  0  0
  7 70  1  0  0  0  0
  8 31  2  0  0  0  0
  9 10  1  0  0  0  0
  9 11  1  0  0  0  0
  9 16  1  0  0  0  0
  9 36  1  0  0  0  0
 10 13  1  0  0  0  0
 10 14  1  0  0  0  0
 10 37  1  0  0  0  0
 11 12  1  0  0  0  0
 11 38  1  0  0  0  0
 11 39  1  0  0  0  0
 12 15  1  0  0  0  0
 12 40  1  0  0  0  0
 12 41  1  0  0  0  0
 13 21  1  0  0  0  0
 13 23  2  0  0  0  0
 14 15  2  0  0  0  0
 14 42  1  0  0  0  0
 15 25  1  0  0  0  0
 16 27  1  0  0  0  0
 16 30  2  0  0  0  0
 17 18  1  0  0  0  0
 17 19  1  0  0  0  0
 17 43  1  0  0  0  0
 18 44  1  0  0  0  0
 19 20  1  0  0  0  0
 19 45  1  0  0  0  0
 20 22  1  0  0  0  0
 20 46  1  0  0  0  0
 21 24  2  0  0  0  0
 22 31  1  0  0  0  0
 22 47  1  0  0  0  0
 23 28  1  0  0  0  0
 24 26  1  0  0  0  0
 24 48  1  0  0  0  0
 25 49  1  0  0  0  0
 25 50  1  0  0  0  0
 25 51  1  0  0  0  0
 26 28  2  0  0  0  0
 26 29  1  0  0  0  0
 27 52  1  0  0  0  0
 27 53  1  0  0  0  0
 27 54  1  0  0  0  0
 28 55  1  0  0  0  0
 29 32  1  0  0  0  0
 29 56  1  0  0  0  0
 29 57  1  0  0  0  0
 30 58  1  0  0  0  0
 30 59  1  0  0  0  0
 32 33  1  0  0  0  0
 32 62  1  0  0  0  0
 32 63  1  0  0  0  0
 33 34  1  0  0  0  0
 33 66  1  0  0  0  0
 33 67  1  0  0  0  0
 34 35  1  0  0  0  0
 34 68  1  0  0  0  0
 34 69  1  0  0  0  0
 35 71  1  0  0  0  0
 35 72  1  0  0  0  0
 35 73  1  0  0  0  0
M  END
> <PUBCHEM_COMPOUND_CID>
129280

> <PUBCHEM_CONFORMER_RMSD>
1.2

> <PUBCHEM_CONFORMER_DIVERSEORDER>
2
32
51
35
24
56
13
50
33
12
49
34
55
4
53
30
43
10
14
19
22
40
31
8
54
41
11
52
42
37
45
27
29
15
20
36
48
17
1
18
38
23
9
25
26
28
46
44
6
7
16
47
39
3
5
21

> <PUBCHEM_MMFF94_PARTIAL_CHARGES>
40
1 -0.36
10 0.28
12 0.14
13 -0.14
14 -0.29
15 -0.28
16 -0.28
17 0.28
18 0.56
19 0.28
2 -0.56
20 0.28
21 0.08
22 0.34
23 0.08
24 -0.15
25 0.14
26 -0.14
27 0.14
28 -0.15
29 0.14
3 -0.68
30 -0.3
31 0.66
4 -0.68
42 0.15
48 0.15
5 -0.68
55 0.15
58 0.15
59 0.15
6 -0.53
60 0.4
61 0.4
64 0.4
65 0.45
7 -0.65
70 0.5
8 -0.57
9 0.14

> <PUBCHEM_EFFECTIVE_ROTOR_COUNT>
11

> <PUBCHEM_PHARMACOPHORE_FEATURES>
17
1 1 acceptor
1 2 acceptor
1 3 acceptor
1 3 donor
1 35 hydrophobe
1 4 acceptor
1 4 donor
1 5 acceptor
1 5 donor
1 6 donor
1 7 acceptor
1 8 acceptor
3 7 8 31 anion
4 29 32 33 34 hydrophobe
6 13 21 23 24 26 28 rings
6 2 17 18 19 20 22 rings
6 9 10 11 12 14 15 rings

> <PUBCHEM_HEAVY_ATOM_COUNT>
35

> <PUBCHEM_ATOM_DEF_STEREO_COUNT>
7

> <PUBCHEM_ATOM_UDEF_STEREO_COUNT>
0

> <PUBCHEM_BOND_DEF_STEREO_COUNT>
0

> <PUBCHEM_BOND_UDEF_STEREO_COUNT>
0

> <PUBCHEM_ISOTOPIC_ATOM_COUNT>
0

> <PUBCHEM_COMPONENT_COUNT>
1

> <PUBCHEM_CACTVS_TAUTO_COUNT>
9

> <PUBCHEM_CONFORMER_ID>
0001F90000000002

> <PUBCHEM_MMFF94_ENERGY>
79.6432

> <PUBCHEM_FEATURE_SELFOVERLAP>
86.406

> <PUBCHEM_SHAPE_FINGERPRINT>
10439779 11 18269839718834095433
10675989 125 18342745143015532505
11578080 2 18198901598667395325
12156800 1 17389069327886721100
12160290 23 16967765978279133059
12422481 6 18124572414202639992
12786520 15 16953070279476773357
12788726 201 17903075529893011506
13583140 156 18334590053157763611
13692115 27 17614844011486090786
13751561 76 17899663840475906141
15082195 135 18335693988812552383
15439362 3 18123472941039814464
20691752 17 18047739683819502262
21133410 230 18194668295013059736
22121540 332 18341038636608141421
23558518 356 17764304337874480758
23559900 14 18408042910323697787
3493558 16 17679871396688637967
376196 1 17342928558022302424
57527306 92 18340774741396790598

> <PUBCHEM_SHAPE_MULTIPOLES>
673.33
10.19
7.03
2.18
33.51
2.94
-0.28
-0.49
-0.05
-6.92
-0.22
-1.75
1.63
0.39

> <PUBCHEM_SHAPE_SELFOVERLAP>
1406.743

> <PUBCHEM_SHAPE_VOLUME>
378

> <PUBCHEM_COORDINATE_TYPE>
2
5
10

$$$$
