129235
  -OEChem-03292013323D

 34 35  0     1  0  0  0  0  0999 V2000
    3.4005    1.9344   -0.1197 S   0  0  0  0  0  0  0  0  0  0  0  0
    0.5292   -1.0903    1.0661 O   0  0  0  0  0  0  0  0  0  0  0  0
    1.2678   -3.9554    0.3287 O   0  0  0  0  0  0  0  0  0  0  0  0
   -0.9829   -3.5046   -1.1260 O   0  0  0  0  0  0  0  0  0  0  0  0
    2.7058    0.5744    0.4710 O   0  0  0  0  0  0  0  0  0  0  0  0
    4.6834    1.5815   -0.6997 O   0  0  0  0  0  0  0  0  0  0  0  0
    2.4031    2.6166   -0.9242 O   0  0  0  0  0  0  0  0  0  0  0  0
   -2.1003    3.1741   -0.4838 O   0  0  0  0  0  0  0  0  0  0  0  0
   -1.7278   -0.8084    0.3902 N   0  0  0  0  0  0  0  0  0  0  0  0
   -1.4917    0.4780    0.0920 N   0  0  0  0  0  0  0  0  0  0  0  0
   -3.7296    0.0647    0.3231 N   0  0  0  0  0  0  0  0  0  0  0  0
    3.6896    2.8927    1.2724 N   0  0  0  0  0  0  0  0  0  0  0  0
   -4.3282    2.7630   -0.2323 N   0  0  0  0  0  0  0  0  0  0  0  0
    1.2505   -2.7670   -0.4622 C   0  0  1  0  0  0  0  0  0  0  0  0
   -0.1837   -2.3920   -0.7795 C   0  0  2  0  0  0  0  0  0  0  0  0
    1.7097   -1.5955    0.4002 C   0  0  1  0  0  0  0  0  0  0  0  0
   -0.6283   -1.7603    0.5309 C   0  0  1  0  0  0  0  0  0  0  0  0
    2.3232   -0.4644   -0.4132 C   0  0  0  0  0  0  0  0  0  0  0  0
   -3.0599   -1.0461    0.5261 C   0  0  0  0  0  0  0  0  0  0  0  0
   -2.7348    0.9632    0.0632 C   0  0  0  0  0  0  0  0  0  0  0  0
   -2.9960    2.3414   -0.2233 C   0  0  0  0  0  0  0  0  0  0  0  0
    1.8594   -2.9482   -1.3524 H   0  0  0  0  0  0  0  0  0  0  0  0
   -0.2162   -1.6672   -1.6012 H   0  0  0  0  0  0  0  0  0  0  0  0
    2.4049   -1.9061    1.1884 H   0  0  0  0  0  0  0  0  0  0  0  0
   -0.9573   -2.5083    1.2630 H   0  0  0  0  0  0  0  0  0  0  0  0
    1.5988   -0.0587   -1.1277 H   0  0  0  0  0  0  0  0  0  0  0  0
    3.2035   -0.8198   -0.9591 H   0  0  0  0  0  0  0  0  0  0  0  0
    2.1958   -4.1407    0.5530 H   0  0  0  0  0  0  0  0  0  0  0  0
   -0.9045   -4.1641   -0.4158 H   0  0  0  0  0  0  0  0  0  0  0  0
   -3.4749   -2.0151    0.7645 H   0  0  0  0  0  0  0  0  0  0  0  0
    2.8615    3.2606    1.7580 H   0  0  0  0  0  0  0  0  0  0  0  0
    4.4075    2.5521    1.9247 H   0  0  0  0  0  0  0  0  0  0  0  0
   -5.0957    2.1279   -0.0373 H   0  0  0  0  0  0  0  0  0  0  0  0
   -4.5684    3.7272   -0.4372 H   0  0  0  0  0  0  0  0  0  0  0  0
  1  5  1  0  0  0  0
  1  6  2  0  0  0  0
  1  7  2  0  0  0  0
  1 12  1  0  0  0  0
  2 16  1  0  0  0  0
  2 17  1  0  0  0  0
  3 14  1  0  0  0  0
  3 28  1  0  0  0  0
  4 15  1  0  0  0  0
  4 29  1  0  0  0  0
  5 18  1  0  0  0  0
  8 21  2  0  0  0  0
  9 10  1  0  0  0  0
  9 17  1  0  0  0  0
  9 19  1  0  0  0  0
 10 20  2  0  0  0  0
 11 19  2  0  0  0  0
 11 20  1  0  0  0  0
 12 31  1  0  0  0  0
 12 32  1  0  0  0  0
 13 21  1  0  0  0  0
 13 33  1  0  0  0  0
 13 34  1  0  0  0  0
 14 15  1  0  0  0  0
 14 16  1  0  0  0  0
 14 22  1  0  0  0  0
 15 17  1  0  0  0  0
 15 23  1  0  0  0  0
 16 18  1  0  0  0  0
 16 24  1  0  0  0  0
 17 25  1  0  0  0  0
 18 26  1  0  0  0  0
 18 27  1  0  0  0  0
 19 30  1  0  0  0  0
 20 21  1  0  0  0  0
M  END
> <PUBCHEM_COMPOUND_CID>
129235

> <PUBCHEM_CONFORMER_RMSD>
0.8

> <PUBCHEM_CONFORMER_DIVERSEORDER>
13
124
20
110
77
135
14
62
100
120
126
48
114
103
66
99
118
98
36
101
81
5
106
115
67
3
69
111
97
91
7
42
122
51
116
92
123
107
39
75
25
74
70
28
130
46
102
24
133
131
32
11
80
85
64
134
58
119
50
78
71
117
83
61
79
43
44
73
27
29
108
129
65
47
125
19
112
33
132
23
31
105
93
9
35
96
12
57
113
60
88
22
72
41
127
59
38
10
109
84
40
8
45
55
90
94
52
68
121
1
56
53
95
76
18
87
37
4
128
15
26
17
104
2
86
16
6
89
54
30
49
82
21
34
63

> <PUBCHEM_MMFF94_PARTIAL_CHARGES>
28
1 1.62
10 -0.71
11 -0.57
12 -0.98
13 -0.8
14 0.28
15 0.28
16 0.28
17 0.54
18 0.28
19 0.04
2 -0.56
20 0.43
21 0.72
28 0.4
29 0.4
3 -0.68
30 0.15
31 0.42
32 0.42
33 0.37
34 0.37
4 -0.68
5 -0.46
6 -0.65
7 -0.65
8 -0.57
9 0.31

> <PUBCHEM_EFFECTIVE_ROTOR_COUNT>
6

> <PUBCHEM_PHARMACOPHORE_FEATURES>
14
1 12 donor
1 13 donor
1 2 acceptor
1 3 acceptor
1 3 donor
1 4 acceptor
1 4 donor
1 6 acceptor
1 7 acceptor
1 8 acceptor
3 10 11 20 cation
3 9 11 19 cation
5 2 14 15 16 17 rings
5 9 10 11 19 20 rings

> <PUBCHEM_HEAVY_ATOM_COUNT>
21

> <PUBCHEM_ATOM_DEF_STEREO_COUNT>
4

> <PUBCHEM_ATOM_UDEF_STEREO_COUNT>
0

> <PUBCHEM_BOND_DEF_STEREO_COUNT>
0

> <PUBCHEM_BOND_UDEF_STEREO_COUNT>
0

> <PUBCHEM_ISOTOPIC_ATOM_COUNT>
0

> <PUBCHEM_COMPONENT_COUNT>
1

> <PUBCHEM_CACTVS_TAUTO_COUNT>
2

> <PUBCHEM_CONFORMER_ID>
0001F8D30000000D

> <PUBCHEM_MMFF94_ENERGY>
34.0704

> <PUBCHEM_FEATURE_SELFOVERLAP>
73.829

> <PUBCHEM_SHAPE_FINGERPRINT>
10498660 4 18338510966823107583
10608611 8 18192715544828877251
10871710 139 17833837444429122732
11221954 11 18262244326267803153
11370993 70 18410849984198515800
116883 192 16611669285963656630
11833330 49 17475787032216401978
12173636 292 18267862981104623902
13134695 92 17759799247756276158
138480 1 17833832668604934812
14026960 21 18408893940269816155
14123255 52 18411980286525399468
14250199 8 17980196384125113229
14466204 15 18264765472687805242
14508225 48 17334488805742067790
14648413 74 18121784932839854467
17134986 127 18340488876562056758
17980427 23 17906697389950662451
20567600 299 18053653681776542032
20621476 13 17903910059255150269
21524375 3 18340493351991871170
21860390 5 17622718726637464693
23557571 272 17553774254240619984
23559900 14 18051967031339921251
238 59 17539934348698795685
3524813 1 18341897458310529224
474 4 18266173925201993593
5939293 188 17976816489238499202
7364860 26 18195247706742585157
7808743 9 17977388557951451976
81228 2 17477479176232075714
9862522 239 18263065730273727924
9981440 41 18335416898026454994

> <PUBCHEM_SHAPE_MULTIPOLES>
370.03
7.19
4.95
0.92
0.43
0.94
-0.03
-8.2
-0.02
0.9
0.75
0.36
0.04
0.42

> <PUBCHEM_SHAPE_SELFOVERLAP>
761.31

> <PUBCHEM_SHAPE_VOLUME>
215.2

> <PUBCHEM_COORDINATE_TYPE>
2
5
10

$$$$
