129213
  -OEChem-03292013323D

 49 49  0     1  0  0  0  0  0999 V2000
    2.1414   -4.2361   -0.5143 O   0  0  0  0  0  0  0  0  0  0  0  0
    1.5251    0.5430    3.8930 O   0  0  0  0  0  0  0  0  0  0  0  0
    3.2716   -2.4826    0.3858 O   0  0  0  0  0  0  0  0  0  0  0  0
    2.6882    0.8439    1.9645 O   0  0  0  0  0  0  0  0  0  0  0  0
   -4.4715    2.4531    1.7780 O   0  0  0  0  0  0  0  0  0  0  0  0
   -4.1266   -2.6472   -1.7327 O   0  0  0  0  0  0  0  0  0  0  0  0
   -3.5440    2.4115   -0.2957 O   0  0  0  0  0  0  0  0  0  0  0  0
   -2.9570   -0.8252   -2.4216 O   0  0  0  0  0  0  0  0  0  0  0  0
    1.0759   -0.9810    0.6914 N   0  0  0  0  0  0  0  0  0  0  0  0
   -2.5246   -0.0945    0.1932 N   0  0  0  0  0  0  0  0  0  0  0  0
   -0.0435   -0.1052    0.3233 C   0  0  2  0  0  0  0  0  0  0  0  0
   -1.3467   -0.9087    0.4789 C   0  0  0  0  0  0  0  0  0  0  0  0
    0.1444    0.4186   -1.1167 C   0  0  0  0  0  0  0  0  0  0  0  0
    0.8810   -2.3141    0.1276 C   0  0  0  0  0  0  0  0  0  0  0  0
    1.2075   -1.0496    2.1442 C   0  0  0  0  0  0  0  0  0  0  0  0
    1.4263    1.1920   -1.3218 C   0  0  0  0  0  0  0  0  0  0  0  0
   -2.8337    0.7771    1.3273 C   0  0  0  0  0  0  0  0  0  0  0  0
   -3.6725   -0.9451   -0.1229 C   0  0  0  0  0  0  0  0  0  0  0  0
    2.5876    0.5261   -1.7142 C   0  0  0  0  0  0  0  0  0  0  0  0
    1.4487    2.5719   -1.1182 C   0  0  0  0  0  0  0  0  0  0  0  0
    2.2171   -2.9978    0.0362 C   0  0  0  0  0  0  0  0  0  0  0  0
    1.8787    0.2069    2.6263 C   0  0  0  0  0  0  0  0  0  0  0  0
   -3.6433    1.9431    0.8313 C   0  0  0  0  0  0  0  0  0  0  0  0
   -3.5257   -1.4467   -1.5329 C   0  0  0  0  0  0  0  0  0  0  0  0
    3.7709    1.2403   -1.9031 C   0  0  0  0  0  0  0  0  0  0  0  0
    2.6319    3.2858   -1.3072 C   0  0  0  0  0  0  0  0  0  0  0  0
    3.7929    2.6202   -1.6996 C   0  0  0  0  0  0  0  0  0  0  0  0
   -0.0492    0.7763    0.9749 H   0  0  0  0  0  0  0  0  0  0  0  0
   -1.3623   -1.7349   -0.2382 H   0  0  0  0  0  0  0  0  0  0  0  0
   -1.4537   -1.3615    1.4724 H   0  0  0  0  0  0  0  0  0  0  0  0
   -0.6925    1.0802   -1.3780 H   0  0  0  0  0  0  0  0  0  0  0  0
    0.0937   -0.3908   -1.8558 H   0  0  0  0  0  0  0  0  0  0  0  0
    0.2229   -2.9516    0.7310 H   0  0  0  0  0  0  0  0  0  0  0  0
    0.5340   -2.2869   -0.9114 H   0  0  0  0  0  0  0  0  0  0  0  0
    0.2541   -1.1803    2.6657 H   0  0  0  0  0  0  0  0  0  0  0  0
    1.8616   -1.8694    2.4639 H   0  0  0  0  0  0  0  0  0  0  0  0
   -1.9438    1.2148    1.7903 H   0  0  0  0  0  0  0  0  0  0  0  0
   -3.3834    0.2378    2.1085 H   0  0  0  0  0  0  0  0  0  0  0  0
   -4.6170   -0.3884   -0.1018 H   0  0  0  0  0  0  0  0  0  0  0  0
   -3.7579   -1.7863    0.5755 H   0  0  0  0  0  0  0  0  0  0  0  0
    2.5841   -0.5462   -1.8877 H   0  0  0  0  0  0  0  0  0  0  0  0
    0.5512    3.1013   -0.8093 H   0  0  0  0  0  0  0  0  0  0  0  0
    4.6745    0.7222   -2.2108 H   0  0  0  0  0  0  0  0  0  0  0  0
    2.6494    4.3599   -1.1479 H   0  0  0  0  0  0  0  0  0  0  0  0
    4.7142    3.1760   -1.8469 H   0  0  0  0  0  0  0  0  0  0  0  0
    3.0233   -4.6602   -0.5835 H   0  0  0  0  0  0  0  0  0  0  0  0
    1.9848    1.3542    4.1979 H   0  0  0  0  0  0  0  0  0  0  0  0
   -4.9786    3.2236    1.4438 H   0  0  0  0  0  0  0  0  0  0  0  0
   -4.0367   -2.9512   -2.6611 H   0  0  0  0  0  0  0  0  0  0  0  0
  1 21  1  0  0  0  0
  1 46  1  0  0  0  0
  2 22  1  0  0  0  0
  2 47  1  0  0  0  0
  3 21  2  0  0  0  0
  4 22  2  0  0  0  0
  5 23  1  0  0  0  0
  5 48  1  0  0  0  0
  6 24  1  0  0  0  0
  6 49  1  0  0  0  0
  7 23  2  0  0  0  0
  8 24  2  0  0  0  0
  9 11  1  0  0  0  0
  9 14  1  0  0  0  0
  9 15  1  0  0  0  0
 10 12  1  0  0  0  0
 10 17  1  0  0  0  0
 10 18  1  0  0  0  0
 11 12  1  0  0  0  0
 11 13  1  0  0  0  0
 11 28  1  0  0  0  0
 12 29  1  0  0  0  0
 12 30  1  0  0  0  0
 13 16  1  0  0  0  0
 13 31  1  0  0  0  0
 13 32  1  0  0  0  0
 14 21  1  0  0  0  0
 14 33  1  0  0  0  0
 14 34  1  0  0  0  0
 15 22  1  0  0  0  0
 15 35  1  0  0  0  0
 15 36  1  0  0  0  0
 16 19  2  0  0  0  0
 16 20  1  0  0  0  0
 17 23  1  0  0  0  0
 17 37  1  0  0  0  0
 17 38  1  0  0  0  0
 18 24  1  0  0  0  0
 18 39  1  0  0  0  0
 18 40  1  0  0  0  0
 19 25  1  0  0  0  0
 19 41  1  0  0  0  0
 20 26  2  0  0  0  0
 20 42  1  0  0  0  0
 25 27  2  0  0  0  0
 25 43  1  0  0  0  0
 26 27  1  0  0  0  0
 26 44  1  0  0  0  0
 27 45  1  0  0  0  0
M  END
> <PUBCHEM_COMPOUND_CID>
129213

> <PUBCHEM_CONFORMER_RMSD>
1

> <PUBCHEM_CONFORMER_DIVERSEORDER>
1
9
6
11
7
10
4
8
5
3
2

> <PUBCHEM_MMFF94_PARTIAL_CHARGES>
36
1 -0.65
10 -0.81
11 0.27
12 0.27
13 0.14
14 0.33
15 0.33
16 -0.14
17 0.33
18 0.33
19 -0.15
2 -0.65
20 -0.15
21 0.66
22 0.66
23 0.66
24 0.66
25 -0.15
26 -0.15
27 -0.15
3 -0.57
4 -0.57
41 0.15
42 0.15
43 0.15
44 0.15
45 0.15
46 0.5
47 0.5
48 0.5
49 0.5
5 -0.65
6 -0.65
7 -0.57
8 -0.57
9 -0.81

> <PUBCHEM_EFFECTIVE_ROTOR_COUNT>
13

> <PUBCHEM_PHARMACOPHORE_FEATURES>
15
1 1 acceptor
1 10 cation
1 2 acceptor
1 3 acceptor
1 4 acceptor
1 5 acceptor
1 6 acceptor
1 7 acceptor
1 8 acceptor
1 9 cation
3 1 3 21 anion
3 2 4 22 anion
3 5 7 23 anion
3 6 8 24 anion
6 16 19 20 25 26 27 rings

> <PUBCHEM_HEAVY_ATOM_COUNT>
27

> <PUBCHEM_ATOM_DEF_STEREO_COUNT>
0

> <PUBCHEM_ATOM_UDEF_STEREO_COUNT>
1

> <PUBCHEM_BOND_DEF_STEREO_COUNT>
0

> <PUBCHEM_BOND_UDEF_STEREO_COUNT>
0

> <PUBCHEM_ISOTOPIC_ATOM_COUNT>
0

> <PUBCHEM_COMPONENT_COUNT>
1

> <PUBCHEM_CACTVS_TAUTO_COUNT>
1

> <PUBCHEM_CONFORMER_ID>
0001F8BD00000001

> <PUBCHEM_MMFF94_ENERGY>
63.6571

> <PUBCHEM_FEATURE_SELFOVERLAP>
76.361

> <PUBCHEM_SHAPE_FINGERPRINT>
11578080 2 18057019364146842944
12160290 23 16596495488850403868
12788726 201 17109606809615625326
133893 2 17603855715467527845
13583140 156 17344880032432443867
14863182 85 18053923307028446303
17980427 23 18044346448912075784
1813 80 18044655287288991834
20600515 1 17172607360981413784
21524375 3 17461166731559394764
23352939 185 17834979485562041918
23557571 272 17631719595611512225
266924 1 18341335569688348551
298252 57 17971768919629664010
5845 1 11057520284423688926
59755656 215 17533801521910188443
633830 44 18043271182411719484
7615 1 18335691754859377861
81228 2 16814293993252755324

> <PUBCHEM_SHAPE_MULTIPOLES>
498.73
7.67
4.05
2.82
5.82
1.43
2.2
-3.54
-2.47
-2.62
-1.17
-0.21
0.11
-3.23

> <PUBCHEM_SHAPE_SELFOVERLAP>
1019.67

> <PUBCHEM_SHAPE_VOLUME>
286.7

> <PUBCHEM_COORDINATE_TYPE>
2
5
10

$$$$
