129346
  -OEChem-03292013323D

 38 39  0     1  0  0  0  0  0999 V2000
   -0.7772   -0.4361   -0.7088 O   0  0  0  0  0  0  0  0  0  0  0  0
    0.6664    1.2545   -1.4164 O   0  0  0  0  0  0  0  0  0  0  0  0
   -3.6120    2.2924    0.4710 O   0  0  0  0  0  0  0  0  0  0  0  0
   -0.8121    3.1262    0.0987 O   0  0  0  0  0  0  0  0  0  0  0  0
   -3.7042   -0.4302    1.4846 O   0  0  0  0  0  0  0  0  0  0  0  0
   -2.9033   -2.8709    0.6617 O   0  0  0  0  0  0  0  0  0  0  0  0
   -1.7026   -2.7483   -1.2720 O   0  0  0  0  0  0  0  0  0  0  0  0
    1.6841    0.2981   -1.4603 N   0  0  2  0  0  0  0  0  0  0  0  0
   -2.4669    1.4557    0.6408 C   0  0  1  0  0  0  0  0  0  0  0  0
   -2.8970    0.0094    0.3936 C   0  0  1  0  0  0  0  0  0  0  0  0
   -1.3709    1.8862   -0.3346 C   0  0  2  0  0  0  0  0  0  0  0  0
   -1.6825   -0.9041    0.2845 C   0  0  1  0  0  0  0  0  0  0  0  0
   -0.2481    0.8505   -0.3980 C   0  0  1  0  0  0  0  0  0  0  0  0
   -2.0734   -2.2567   -0.2165 C   0  0  0  0  0  0  0  0  0  0  0  0
    2.4945    0.0291   -0.3479 C   0  0  0  0  0  0  0  0  0  0  0  0
    2.0687   -0.0863   -2.8085 C   0  0  0  0  0  0  0  0  0  0  0  0
    2.8310   -1.2892   -0.0228 C   0  0  0  0  0  0  0  0  0  0  0  0
    2.9741    1.0764    0.4457 C   0  0  0  0  0  0  0  0  0  0  0  0
    3.6378   -1.5571    1.0832 C   0  0  0  0  0  0  0  0  0  0  0  0
    3.7808    0.8086    1.5516 C   0  0  0  0  0  0  0  0  0  0  0  0
    4.1126   -0.5081    1.8703 C   0  0  0  0  0  0  0  0  0  0  0  0
   -2.1309    1.5973    1.6756 H   0  0  0  0  0  0  0  0  0  0  0  0
   -3.5156   -0.0459   -0.5106 H   0  0  0  0  0  0  0  0  0  0  0  0
   -1.7922    2.0545   -1.3335 H   0  0  0  0  0  0  0  0  0  0  0  0
   -1.1521   -1.0330    1.2362 H   0  0  0  0  0  0  0  0  0  0  0  0
    0.2523    0.8271    0.5787 H   0  0  0  0  0  0  0  0  0  0  0  0
   -4.2907    1.9874    1.0974 H   0  0  0  0  0  0  0  0  0  0  0  0
   -1.5406    3.7676    0.1586 H   0  0  0  0  0  0  0  0  0  0  0  0
   -3.1670   -0.3863    2.2940 H   0  0  0  0  0  0  0  0  0  0  0  0
    2.3462   -1.1438   -2.8596 H   0  0  0  0  0  0  0  0  0  0  0  0
    2.9176    0.5163   -3.1470 H   0  0  0  0  0  0  0  0  0  0  0  0
    1.2393    0.0688   -3.5068 H   0  0  0  0  0  0  0  0  0  0  0  0
   -3.1732   -3.7610    0.3499 H   0  0  0  0  0  0  0  0  0  0  0  0
    2.4625   -2.1199   -0.6195 H   0  0  0  0  0  0  0  0  0  0  0  0
    2.7293    2.1091    0.2092 H   0  0  0  0  0  0  0  0  0  0  0  0
    3.8944   -2.5826    1.3328 H   0  0  0  0  0  0  0  0  0  0  0  0
    4.1514    1.6253    2.1641 H   0  0  0  0  0  0  0  0  0  0  0  0
    4.7404   -0.7167    2.7316 H   0  0  0  0  0  0  0  0  0  0  0  0
  1 12  1  0  0  0  0
  1 13  1  0  0  0  0
  2  8  1  0  0  0  0
  2 13  1  0  0  0  0
  3  9  1  0  0  0  0
  3 27  1  0  0  0  0
  4 11  1  0  0  0  0
  4 28  1  0  0  0  0
  5 10  1  0  0  0  0
  5 29  1  0  0  0  0
  6 14  1  0  0  0  0
  6 33  1  0  0  0  0
  7 14  2  0  0  0  0
  8 15  1  0  0  0  0
  8 16  1  0  0  0  0
  9 10  1  0  0  0  0
  9 11  1  0  0  0  0
  9 22  1  0  0  0  0
 10 12  1  0  0  0  0
 10 23  1  0  0  0  0
 11 13  1  0  0  0  0
 11 24  1  0  0  0  0
 12 14  1  0  0  0  0
 12 25  1  0  0  0  0
 13 26  1  0  0  0  0
 15 17  2  0  0  0  0
 15 18  1  0  0  0  0
 16 30  1  0  0  0  0
 16 31  1  0  0  0  0
 16 32  1  0  0  0  0
 17 19  1  0  0  0  0
 17 34  1  0  0  0  0
 18 20  2  0  0  0  0
 18 35  1  0  0  0  0
 19 21  2  0  0  0  0
 19 36  1  0  0  0  0
 20 21  1  0  0  0  0
 20 37  1  0  0  0  0
 21 38  1  0  0  0  0
M  END
> <PUBCHEM_COMPOUND_CID>
129346

> <PUBCHEM_CONFORMER_RMSD>
0.8

> <PUBCHEM_CONFORMER_DIVERSEORDER>
1
12
17
14
10
5
16
6
2
11
9
3
8
13
4
15
7

> <PUBCHEM_MMFF94_PARTIAL_CHARGES>
30
1 -0.56
10 0.28
11 0.28
12 0.34
13 0.56
14 0.66
15 0.1
16 0.37
17 -0.15
18 -0.15
19 -0.15
2 -0.26
20 -0.15
21 -0.15
27 0.4
28 0.4
29 0.4
3 -0.68
33 0.5
34 0.15
35 0.15
36 0.15
37 0.15
38 0.15
4 -0.68
5 -0.68
6 -0.65
7 -0.57
8 -0.49
9 0.28

> <PUBCHEM_EFFECTIVE_ROTOR_COUNT>
5.2

> <PUBCHEM_PHARMACOPHORE_FEATURES>
12
1 1 acceptor
1 3 acceptor
1 3 donor
1 4 acceptor
1 4 donor
1 5 acceptor
1 5 donor
1 6 acceptor
1 7 acceptor
3 6 7 14 anion
6 1 9 10 11 12 13 rings
6 15 17 18 19 20 21 rings

> <PUBCHEM_HEAVY_ATOM_COUNT>
21

> <PUBCHEM_ATOM_DEF_STEREO_COUNT>
4

> <PUBCHEM_ATOM_UDEF_STEREO_COUNT>
1

> <PUBCHEM_BOND_DEF_STEREO_COUNT>
0

> <PUBCHEM_BOND_UDEF_STEREO_COUNT>
0

> <PUBCHEM_ISOTOPIC_ATOM_COUNT>
0

> <PUBCHEM_COMPONENT_COUNT>
1

> <PUBCHEM_CACTVS_TAUTO_COUNT>
1

> <PUBCHEM_CONFORMER_ID>
0001F94200000001

> <PUBCHEM_MMFF94_ENERGY>
66.8639

> <PUBCHEM_FEATURE_SELFOVERLAP>
60.983

> <PUBCHEM_SHAPE_FINGERPRINT>
10366900 7 18059840754318212160
10764073 3 10814664708831100789
11370993 70 18125428726979273968
11552529 35 17774432905924421954
11578080 2 17678155278118539085
11582403 64 17338967786501009037
11725454 13 17415256361459373553
12251169 10 18338507556919845792
12403259 327 18199457780142365024
12553582 1 18122638411566593935
12633257 1 18131347518583826018
12670545 47 17917993871441241180
12824470 246 17822847727057531763
13004483 165 17912896634145481735
13083527 12 17411604097575244823
13583140 156 17702358780910449378
14022347 108 18121535489781666677
14081887 123 18272080634599292272
14178342 30 18408601470108320826
14787075 74 17615403001916553804
15375462 189 18042698375439248772
16752209 62 18335998479895918613
16945 1 18339098059067320133
17780758 139 18118099430451787706
17804303 29 18267310828830892358
1813 80 16878226351507703574
18219364 16 16056585612684306562
18981168 100 15482390953993467772
20361792 2 16298382423284255932
20442098 301 18408037403695283858
20600515 1 18412544288630419876
21421861 104 18047203122118442657
21475661 188 16412408268532740761
21486144 27 16916798352679974199
21650355 55 18410845581814534273
21756936 100 17843099654196249072
22112679 90 18040443191423696596
23184049 29 18337952401867758572
23419403 2 17469555996715998940
23532345 11 18411130346836309978
23557571 272 18130516300446130428
23559900 14 18200047144176493964
23598288 3 17749392512001459637
23598291 2 17241628155232275924
23728640 28 18336542725177393979
2748010 2 18051161132498393709
4072396 5 18262530204292822113
469060 322 15480951723005145039
474 4 14764333943176840568
5262128 65 8790307993724655674
58807428 26 18193848033315655737
7097593 13 18336816508094186384
7615 1 17967819400246888260
81228 2 18270977816094494479
90316 7 18410295821916668969

> <PUBCHEM_SHAPE_MULTIPOLES>
386.1
7.27
2.81
1.79
2.48
0.44
0.94
0.99
-4.1
-2.86
-0.08
1.59
0.13
-0.37

> <PUBCHEM_SHAPE_SELFOVERLAP>
808.558

> <PUBCHEM_SHAPE_VOLUME>
215.1

> <PUBCHEM_COORDINATE_TYPE>
2
5
10

$$$$
