129317940
  -OEChem-03292013293D

 53 57  0     1  0  0  0  0  0999 V2000
    1.5453    3.7051   -1.1876 S   0  0  1  0  0  0  0  0  0  0  0  0
    1.9960    5.0793   -0.9296 O   0  0  0  0  0  0  0  0  0  0  0  0
    3.7160   -4.0894   -0.5952 O   0  0  0  0  0  0  0  0  0  0  0  0
    2.1797    2.7710   -2.2638 N   0  0  0  0  0  0  0  0  0  0  0  0
   -0.3808    1.3608    0.5328 N   0  0  0  0  0  0  0  0  0  0  0  0
    1.9659   -2.0003    0.0906 N   0  0  0  0  0  0  0  0  0  0  0  0
   -0.1684   -1.0356    0.3914 N   0  0  0  0  0  0  0  0  0  0  0  0
   -4.9810   -1.3817   -1.1780 N   0  0  0  0  0  0  0  0  0  0  0  0
   -5.1203   -0.3191    0.9794 N   0  0  0  0  0  0  0  0  0  0  0  0
    1.5524    2.8186    0.3727 C   0  0  0  0  0  0  0  0  0  0  0  0
    2.7452    3.1348    1.2167 C   0  0  0  0  0  0  0  0  0  0  0  0
    1.4055    3.7208    1.5559 C   0  0  0  0  0  0  0  0  0  0  0  0
    0.9564    1.4514    0.3777 C   0  0  0  0  0  0  0  0  0  0  0  0
   -0.1865    3.8360   -1.6150 C   0  0  0  0  0  0  0  0  0  0  0  0
    1.7863    0.3593    0.2259 C   0  0  0  0  0  0  0  0  0  0  0  0
    1.1623   -0.8715    0.2407 C   0  0  0  0  0  0  0  0  0  0  0  0
   -0.8695    0.1059    0.5301 C   0  0  0  0  0  0  0  0  0  0  0  0
    3.2500   -2.1396    0.8039 C   0  0  2  0  0  0  0  0  0  0  0  0
    1.4496   -3.2228   -0.5409 C   0  0  0  0  0  0  0  0  0  0  0  0
    4.2481   -2.8524   -0.1194 C   0  0  0  0  0  0  0  0  0  0  0  0
   -2.2933   -0.0302    0.6934 C   0  0  0  0  0  0  0  0  0  0  0  0
    2.5457   -3.8669   -1.3817 C   0  0  0  0  0  0  0  0  0  0  0  0
    3.0674   -2.9086    2.1157 C   0  0  0  0  0  0  0  0  0  0  0  0
   -3.0592   -0.6501   -0.3071 C   0  0  0  0  0  0  0  0  0  0  0  0
   -2.9576    0.4372    1.8259 C   0  0  0  0  0  0  0  0  0  0  0  0
   -4.4306   -0.7523   -0.0928 C   0  0  0  0  0  0  0  0  0  0  0  0
   -2.7950   -1.2436   -1.5697 C   0  0  0  0  0  0  0  0  0  0  0  0
   -4.3333    0.2691    1.9100 C   0  0  0  0  0  0  0  0  0  0  0  0
   -3.9960   -1.6849   -2.0821 C   0  0  0  0  0  0  0  0  0  0  0  0
    0.9082    3.3393    2.4419 H   0  0  0  0  0  0  0  0  0  0  0  0
    1.2698    4.7874    1.4308 H   0  0  0  0  0  0  0  0  0  0  0  0
    3.5114    3.8032    0.8427 H   0  0  0  0  0  0  0  0  0  0  0  0
    3.1361    2.3830    1.8941 H   0  0  0  0  0  0  0  0  0  0  0  0
   -0.2708    4.4730   -2.4985 H   0  0  0  0  0  0  0  0  0  0  0  0
   -0.5883    2.8445   -1.8288 H   0  0  0  0  0  0  0  0  0  0  0  0
   -0.7172    4.2950   -0.7784 H   0  0  0  0  0  0  0  0  0  0  0  0
    2.8492    0.4871    0.0640 H   0  0  0  0  0  0  0  0  0  0  0  0
    1.9101    3.0061   -3.2234 H   0  0  0  0  0  0  0  0  0  0  0  0
    3.6890   -1.1702    1.0610 H   0  0  0  0  0  0  0  0  0  0  0  0
    0.5954   -3.0043   -1.1928 H   0  0  0  0  0  0  0  0  0  0  0  0
    1.1057   -3.9131    0.2375 H   0  0  0  0  0  0  0  0  0  0  0  0
    4.5076   -2.2199   -0.9776 H   0  0  0  0  0  0  0  0  0  0  0  0
    5.1778   -3.0718    0.4162 H   0  0  0  0  0  0  0  0  0  0  0  0
    2.2051   -4.8358   -1.7603 H   0  0  0  0  0  0  0  0  0  0  0  0
    2.8027   -3.2441   -2.2471 H   0  0  0  0  0  0  0  0  0  0  0  0
    2.7104   -3.9305    1.9526 H   0  0  0  0  0  0  0  0  0  0  0  0
    2.3409   -2.4033    2.7612 H   0  0  0  0  0  0  0  0  0  0  0  0
    4.0157   -2.9704    2.6603 H   0  0  0  0  0  0  0  0  0  0  0  0
   -2.4221    0.9236    2.6358 H   0  0  0  0  0  0  0  0  0  0  0  0
   -1.8366   -1.3417   -2.0610 H   0  0  0  0  0  0  0  0  0  0  0  0
   -4.8675    0.6271    2.7862 H   0  0  0  0  0  0  0  0  0  0  0  0
   -5.9630   -1.5900   -1.2937 H   0  0  0  0  0  0  0  0  0  0  0  0
   -4.2366   -2.1865   -3.0087 H   0  0  0  0  0  0  0  0  0  0  0  0
  1  2  2  0  0  0  0
  1  4  2  0  0  0  0
  1 10  1  0  0  0  0
  1 14  1  0  0  0  0
  3 20  1  0  0  0  0
  3 22  1  0  0  0  0
  4 38  1  0  0  0  0
  5 13  1  0  0  0  0
  5 17  2  0  0  0  0
  6 16  1  0  0  0  0
  6 18  1  0  0  0  0
  6 19  1  0  0  0  0
  7 16  2  0  0  0  0
  7 17  1  0  0  0  0
  8 26  1  0  0  0  0
  8 29  1  0  0  0  0
  8 52  1  0  0  0  0
  9 26  2  0  0  0  0
  9 28  1  0  0  0  0
 10 11  1  0  0  0  0
 10 12  1  0  0  0  0
 10 13  1  0  0  0  0
 11 12  1  0  0  0  0
 11 32  1  0  0  0  0
 11 33  1  0  0  0  0
 12 30  1  0  0  0  0
 12 31  1  0  0  0  0
 13 15  2  0  0  0  0
 14 34  1  0  0  0  0
 14 35  1  0  0  0  0
 14 36  1  0  0  0  0
 15 16  1  0  0  0  0
 15 37  1  0  0  0  0
 17 21  1  0  0  0  0
 18 20  1  0  0  0  0
 18 23  1  0  0  0  0
 18 39  1  0  0  0  0
 19 22  1  0  0  0  0
 19 40  1  0  0  0  0
 19 41  1  0  0  0  0
 20 42  1  0  0  0  0
 20 43  1  0  0  0  0
 21 24  2  0  0  0  0
 21 25  1  0  0  0  0
 22 44  1  0  0  0  0
 22 45  1  0  0  0  0
 23 46  1  0  0  0  0
 23 47  1  0  0  0  0
 23 48  1  0  0  0  0
 24 26  1  0  0  0  0
 24 27  1  0  0  0  0
 25 28  2  0  0  0  0
 25 49  1  0  0  0  0
 27 29  2  0  0  0  0
 27 50  1  0  0  0  0
 28 51  1  0  0  0  0
 29 53  1  0  0  0  0
M  END
> <PUBCHEM_COMPOUND_CID>
129317940

> <PUBCHEM_CONFORMER_RMSD>
1

> <PUBCHEM_CONFORMER_DIVERSEORDER>
1
147
127
120
153
156
124
177
38
178
81
130
113
52
174
142
65
182
92
107
161
151
73
157
44
91
183
136
122
119
89
169
137
106
128
75
34
138
123
64
176
126
100
74
173
59
135
170
152
125
77
150
33
42
160
49
111
117
140
154
129
20
83
133
134
141
158
180
78
165
159
63
88
94
115
171
149
121
99
166
163
181
112
16
66
96
139
70
168
69
144
26
103
17
148
45
30
109
56
55
118
179
80
93
46
143
131
102
43
162
98
104
37
25
58
39
31
50
108
105
82
60
155
79
90
51
95
53
61
87
145
76
24
172
11
84
48
67
110
101
97
21
114
85
15
12
116
86
41
13
28
32
14
164
23
19
175
132
57
62
146
27
47
54
68
8
10
40
72
4
29
3
35
18
71
2
167
22
6
36
5
7
9

> <PUBCHEM_MMFF94_PARTIAL_CHARGES>
37
1 1.11
10 0.05
11 -0.2
12 -0.2
13 0.28
14 0.11
15 -0.15
16 0.41
17 0.62
18 0.37
19 0.37
2 -0.65
20 0.28
22 0.28
25 -0.15
26 0.11
27 -0.15
28 0.16
29 -0.3
3 -0.56
30 0.1
31 0.1
32 0.1
33 0.1
37 0.15
38 0.4
4 -0.99
49 0.15
5 -0.62
50 0.15
51 0.15
52 0.27
53 0.15
6 -0.84
7 -0.62
8 0.03
9 -0.57

> <PUBCHEM_EFFECTIVE_ROTOR_COUNT>
5.8

> <PUBCHEM_PHARMACOPHORE_FEATURES>
10
1 2 acceptor
1 3 acceptor
1 8 donor
3 5 7 17 cation
3 6 7 16 cation
3 8 9 26 cation
5 8 24 26 27 29 rings
6 3 6 18 19 20 22 rings
6 5 7 13 15 16 17 rings
6 9 21 24 25 26 28 rings

> <PUBCHEM_HEAVY_ATOM_COUNT>
29

> <PUBCHEM_ATOM_DEF_STEREO_COUNT>
1

> <PUBCHEM_ATOM_UDEF_STEREO_COUNT>
1

> <PUBCHEM_BOND_DEF_STEREO_COUNT>
0

> <PUBCHEM_BOND_UDEF_STEREO_COUNT>
0

> <PUBCHEM_ISOTOPIC_ATOM_COUNT>
0

> <PUBCHEM_COMPONENT_COUNT>
1

> <PUBCHEM_CACTVS_TAUTO_COUNT>
9

> <PUBCHEM_CONFORMER_ID>
07B53C3400000001

> <PUBCHEM_MMFF94_ENERGY>
82.5553

> <PUBCHEM_FEATURE_SELFOVERLAP>
51

> <PUBCHEM_SHAPE_FINGERPRINT>
11045515 52 18265052423062041710
11069576 57 17915152815142281687
11477941 20 17977406953591501598
12160290 23 17327171053368559154
12553582 1 18268429036040377442
12788726 201 17540530223691802259
13004483 165 17908700627201283947
13009979 54 17846501413669382859
133893 2 18337392737727803755
13540713 5 17988927812504808755
13681431 1 18408609136682635314
13690498 29 17623025495125844870
13899415 180 18262790757634773995
14114206 34 17753623346761659522
14251757 5 17689152305682397908
14674994 50 17837485259302593981
15775530 1 18048005551085980632
15842332 3 17917439760978719859
17818456 19 17631179589283677033
1813 80 18338519616713610099
19311894 1 16531754114083744165
19319366 153 17624961021973750239
20101258 96 18191027798379549993
20642791 105 17113790442215432266
20739085 24 18341607105799740130
21049683 271 18263381268756999420
21641784 216 17973752202536218590
21796203 349 18052294788494467434
2255824 54 18340490074678304874
22907989 373 17475529278464932102
23366157 5 18335418014786432243
23569917 315 17979348995794550474
24893989 43 16174729107414520388
26353 1 18262798437152019524
27425 322 17623029180244324365
3057174 1 17976264856687251796
3380486 145 18125997165916723721
4017518 198 17983008145207158324
4409770 3 17473826121715183293
46194498 28 18189031223356720775
474 4 18120372318238689737
5081480 168 17968094184223955149
513202 73 17547026134300327563
5223283 242 17899663853656175391
59025328 239 17981566521341530623
6677587 24 16605400322055131933
70251023 43 18409158892971556227
9981440 41 17838322335411204099

> <PUBCHEM_SHAPE_MULTIPOLES>
559.03
8.37
6.51
1.97
9.81
4.07
0.15
-7.01
-0.5
-10.38
2.35
0.69
0.45
-1.27

> <PUBCHEM_SHAPE_SELFOVERLAP>
1210.491

> <PUBCHEM_SHAPE_VOLUME>
311.2

> <PUBCHEM_COORDINATE_TYPE>
2
5
10

$$$$
