129316867
  -OEChem-03292013293D

 51 55  0     1  0  0  0  0  0999 V2000
    2.3752   -0.9726   -1.9136 O   0  0  0  0  0  0  0  0  0  0  0  0
    1.2024    2.8905   -0.2237 O   0  0  0  0  0  0  0  0  0  0  0  0
    0.8980   -2.8205   -2.0050 O   0  0  0  0  0  0  0  0  0  0  0  0
    1.1416   -3.3421    0.5872 O   0  0  0  0  0  0  0  0  0  0  0  0
   -1.1845   -2.0488    1.3741 O   0  0  0  0  0  0  0  0  0  0  0  0
    2.8777    3.7106    1.0789 O   0  0  0  0  0  0  0  0  0  0  0  0
   -3.3134   -0.8642    2.4039 O   0  0  0  0  0  0  0  0  0  0  0  0
    1.1346    0.5241   -0.5995 C   0  0  1  0  0  0  0  0  0  0  0  0
    0.2402   -0.6213   -1.1055 C   0  0  2  0  0  0  0  0  0  0  0  0
   -1.2356   -0.6263   -0.6168 C   0  0  2  0  0  0  0  0  0  0  0  0
    1.2964   -1.7111   -1.2146 C   0  0  2  0  0  0  0  0  0  0  0  0
    0.3164    1.7773   -0.3285 C   0  0  2  0  0  0  0  0  0  0  0  0
    2.0726    0.2709    0.6442 C   0  0  2  0  0  0  0  0  0  0  0  0
   -1.8572    0.7486   -1.1835 C   0  0  2  0  0  0  0  0  0  0  0  0
    2.1084    0.4627   -1.7901 C   0  0  0  0  0  0  0  0  0  0  0  0
   -0.8337    1.9383   -1.3055 C   0  0  0  0  0  0  0  0  0  0  0  0
    1.8762   -2.2075    0.1320 C   0  0  1  0  0  0  0  0  0  0  0  0
   -1.4225   -0.7246    0.9162 C   0  0  1  0  0  0  0  0  0  0  0  0
    1.8897   -1.1232    1.2049 C   0  0  0  0  0  0  0  0  0  0  0  0
    2.0653    1.4888    1.5928 C   0  0  0  0  0  0  0  0  0  0  0  0
   -1.9886   -1.8077   -1.2872 C   0  0  0  0  0  0  0  0  0  0  0  0
   -3.1457    1.1733   -0.5000 C   0  0  0  0  0  0  0  0  0  0  0  0
    2.1096    2.7954    0.8016 C   0  0  0  0  0  0  0  0  0  0  0  0
   -2.8142   -0.3591    1.3985 C   0  0  0  0  0  0  0  0  0  0  0  0
   -3.5782    0.6666    0.6620 C   0  0  0  0  0  0  0  0  0  0  0  0
    1.7716   -1.3888    2.5163 C   0  0  0  0  0  0  0  0  0  0  0  0
   -4.0022    2.1707   -1.2391 C   0  0  0  0  0  0  0  0  0  0  0  0
    0.0377   -0.4240   -2.1778 H   0  0  0  0  0  0  0  0  0  0  0  0
   -0.1935    1.7246    0.6394 H   0  0  0  0  0  0  0  0  0  0  0  0
    3.1200    0.2537    0.3008 H   0  0  0  0  0  0  0  0  0  0  0  0
   -2.1496    0.5379   -2.2246 H   0  0  0  0  0  0  0  0  0  0  0  0
    1.6726    0.8126   -2.7332 H   0  0  0  0  0  0  0  0  0  0  0  0
    3.0546    0.9955   -1.6520 H   0  0  0  0  0  0  0  0  0  0  0  0
   -0.4421    1.9818   -2.3301 H   0  0  0  0  0  0  0  0  0  0  0  0
   -1.3096    2.9122   -1.1475 H   0  0  0  0  0  0  0  0  0  0  0  0
    2.9089   -2.5419   -0.0260 H   0  0  0  0  0  0  0  0  0  0  0  0
   -0.7387   -0.0693    1.4559 H   0  0  0  0  0  0  0  0  0  0  0  0
    2.9546    1.4546    2.2346 H   0  0  0  0  0  0  0  0  0  0  0  0
    1.1955    1.5080    2.2584 H   0  0  0  0  0  0  0  0  0  0  0  0
   -1.5781   -2.7771   -0.9883 H   0  0  0  0  0  0  0  0  0  0  0  0
   -1.9236   -1.7518   -2.3798 H   0  0  0  0  0  0  0  0  0  0  0  0
   -3.0529   -1.8080   -1.0288 H   0  0  0  0  0  0  0  0  0  0  0  0
    0.2961   -2.5047   -2.6986 H   0  0  0  0  0  0  0  0  0  0  0  0
   -4.5234    0.9730    1.0986 H   0  0  0  0  0  0  0  0  0  0  0  0
    1.6586   -2.4035    2.8825 H   0  0  0  0  0  0  0  0  0  0  0  0
    1.7926   -0.6063    3.2659 H   0  0  0  0  0  0  0  0  0  0  0  0
    0.1952   -3.1342    0.5213 H   0  0  0  0  0  0  0  0  0  0  0  0
   -1.1826   -2.0303    2.3465 H   0  0  0  0  0  0  0  0  0  0  0  0
   -3.5108    3.1456   -1.2992 H   0  0  0  0  0  0  0  0  0  0  0  0
   -4.9710    2.3241   -0.7510 H   0  0  0  0  0  0  0  0  0  0  0  0
   -4.2038    1.8183   -2.2560 H   0  0  0  0  0  0  0  0  0  0  0  0
  1 11  1  0  0  0  0
  1 15  1  0  0  0  0
  2 12  1  0  0  0  0
  2 23  1  0  0  0  0
  3 11  1  0  0  0  0
  3 43  1  0  0  0  0
  4 17  1  0  0  0  0
  4 47  1  0  0  0  0
  5 18  1  0  0  0  0
  5 48  1  0  0  0  0
  6 23  2  0  0  0  0
  7 24  2  0  0  0  0
  8  9  1  0  0  0  0
  8 12  1  0  0  0  0
  8 13  1  0  0  0  0
  8 15  1  0  0  0  0
  9 10  1  0  0  0  0
  9 11  1  0  0  0  0
  9 28  1  0  0  0  0
 10 14  1  0  0  0  0
 10 18  1  0  0  0  0
 10 21  1  0  0  0  0
 11 17  1  0  0  0  0
 12 16  1  0  0  0  0
 12 29  1  0  0  0  0
 13 19  1  0  0  0  0
 13 20  1  0  0  0  0
 13 30  1  0  0  0  0
 14 16  1  0  0  0  0
 14 22  1  0  0  0  0
 14 31  1  0  0  0  0
 15 32  1  0  0  0  0
 15 33  1  0  0  0  0
 16 34  1  0  0  0  0
 16 35  1  0  0  0  0
 17 19  1  0  0  0  0
 17 36  1  0  0  0  0
 18 24  1  0  0  0  0
 18 37  1  0  0  0  0
 19 26  2  0  0  0  0
 20 23  1  0  0  0  0
 20 38  1  0  0  0  0
 20 39  1  0  0  0  0
 21 40  1  0  0  0  0
 21 41  1  0  0  0  0
 21 42  1  0  0  0  0
 22 25  2  0  0  0  0
 22 27  1  0  0  0  0
 24 25  1  0  0  0  0
 25 44  1  0  0  0  0
 26 45  1  0  0  0  0
 26 46  1  0  0  0  0
 27 49  1  0  0  0  0
 27 50  1  0  0  0  0
 27 51  1  0  0  0  0
M  END
> <PUBCHEM_COMPOUND_CID>
129316867

> <PUBCHEM_CONFORMER_RMSD>
0.6

> <PUBCHEM_CONFORMER_DIVERSEORDER>
1
2

> <PUBCHEM_MMFF94_PARTIAL_CHARGES>
28
1 -0.56
11 0.56
12 0.28
13 0.14
14 0.14
15 0.28
17 0.42
18 0.34
19 -0.28
2 -0.43
20 0.06
22 -0.28
23 0.66
24 0.49
25 -0.14
26 -0.3
27 0.14
3 -0.68
4 -0.68
43 0.4
44 0.15
45 0.15
46 0.15
47 0.4
48 0.4
5 -0.68
6 -0.57
7 -0.57

> <PUBCHEM_EFFECTIVE_ROTOR_COUNT>
1.4

> <PUBCHEM_PHARMACOPHORE_FEATURES>
13
1 1 acceptor
1 3 acceptor
1 3 donor
1 4 acceptor
1 4 donor
1 5 acceptor
1 5 donor
1 6 acceptor
1 7 acceptor
6 10 14 18 22 24 25 rings
6 2 8 12 13 20 23 rings
6 8 9 10 12 14 16 rings
8 1 8 9 11 13 15 17 19 rings

> <PUBCHEM_HEAVY_ATOM_COUNT>
27

> <PUBCHEM_ATOM_DEF_STEREO_COUNT>
7

> <PUBCHEM_ATOM_UDEF_STEREO_COUNT>
2

> <PUBCHEM_BOND_DEF_STEREO_COUNT>
0

> <PUBCHEM_BOND_UDEF_STEREO_COUNT>
0

> <PUBCHEM_ISOTOPIC_ATOM_COUNT>
0

> <PUBCHEM_COMPONENT_COUNT>
1

> <PUBCHEM_CACTVS_TAUTO_COUNT>
13

> <PUBCHEM_CONFORMER_ID>
07B5380300000001

> <PUBCHEM_MMFF94_ENERGY>
133.4425

> <PUBCHEM_FEATURE_SELFOVERLAP>
66.196

> <PUBCHEM_SHAPE_FINGERPRINT>
10165383 225 17695105405211896757
104564 63 17260479062968022199
10863032 1 18055602188073534314
10948715 1 18197482120676609024
11640471 11 17417229035674938841
12156800 1 15748580657245951677
12633257 1 17680673056835365656
12788726 201 17402905422811301500
128993 33 18198357340559170177
13134695 92 18051398579084975031
13140716 1 18340201998326648477
14142880 1 16973365245248477201
14178342 30 17823416183380410409
14223421 5 18261118512539757955
14713325 29 17120863592576093260
14817 1 17029676656229770626
16945 1 18199734869619888861
1813 80 16555130422736713700
18981168 100 17631741581058275475
20600515 1 17828207588618618518
20691752 17 17975430318582080239
21524375 3 17911517919683773616
21731228 192 18124592243597081752
21756936 100 17610054947305550580
23419403 2 17329205523979949178
23559900 14 17751930112071829559
238 59 18342167848229460397
2748010 2 18266465475871476197
350125 39 17915471707477974342
35225 105 16978956184650625344
484985 159 14395352907234977503
495365 180 18342444933797502149
81228 2 17259909520413939764

> <PUBCHEM_SHAPE_MULTIPOLES>
514.56
5.02
3.54
2.18
4.64
1.36
-0.39
1.49
-0.89
-2.32
-0.32
-0.3
-0.84
1.31

> <PUBCHEM_SHAPE_SELFOVERLAP>
1139.444

> <PUBCHEM_SHAPE_VOLUME>
271.3

> <PUBCHEM_COORDINATE_TYPE>
2
5
10

$$$$
