129338
  -OEChem-03292013323D

 48 50  0     1  0  0  0  0  0999 V2000
    0.0989   -2.5835   -0.5675 O   0  0  0  0  0  0  0  0  0  0  0  0
   -1.3121   -0.1509    0.5653 O   0  0  0  0  0  0  0  0  0  0  0  0
   -2.4070   -3.5484    1.0372 O   0  0  0  0  0  0  0  0  0  0  0  0
   -0.7015   -2.3365   -3.2238 O   0  0  0  0  0  0  0  0  0  0  0  0
   -3.5202   -0.0410    1.2252 O   0  0  0  0  0  0  0  0  0  0  0  0
    4.6577    1.9073    0.4687 O   0  0  0  0  0  0  0  0  0  0  0  0
    1.2826   -1.1973    0.9635 N   0  0  0  0  0  0  0  0  0  0  0  0
    2.9994   -0.1765    1.9671 N   0  0  0  0  0  0  0  0  0  0  0  0
    1.3932   -0.1326   -1.2183 N   0  0  0  0  0  0  0  0  0  0  0  0
    3.2217    1.4797   -1.3327 N   0  0  0  0  0  0  0  0  0  0  0  0
   -1.2255   -1.4777    1.0691 C   0  0  1  0  0  0  0  0  0  0  0  0
   -2.1348   -2.3825    0.2626 C   0  0  1  0  0  0  0  0  0  0  0  0
    0.1428   -2.0888    0.7822 C   0  0  1  0  0  0  0  0  0  0  0  0
   -1.2803   -2.7680   -0.9467 C   0  0  1  0  0  0  0  0  0  0  0  0
   -1.5471   -1.9049   -2.1720 C   0  0  0  0  0  0  0  0  0  0  0  0
    1.8115   -0.3351    0.0401 C   0  0  0  0  0  0  0  0  0  0  0  0
    2.0344   -1.0615    2.1051 C   0  0  0  0  0  0  0  0  0  0  0  0
   -2.5278    0.4553    0.7100 C   0  0  0  0  0  0  0  0  0  0  0  0
    2.8719    0.2854    0.6811 C   0  0  0  0  0  0  0  0  0  0  0  0
   -2.4511    1.8490    0.1296 C   0  0  0  0  0  0  0  0  0  0  0  0
   -3.7850    2.5866    0.2333 C   0  0  0  0  0  0  0  0  0  0  0  0
    3.5890    1.2242   -0.0538 C   0  0  0  0  0  0  0  0  0  0  0  0
   -3.6799    4.0065   -0.3215 C   0  0  0  0  0  0  0  0  0  0  0  0
    2.1622    0.7956   -1.8282 C   0  0  0  0  0  0  0  0  0  0  0  0
   -4.9951    4.7567   -0.1848 C   0  0  0  0  0  0  0  0  0  0  0  0
    5.3020    2.8390   -0.3907 C   0  0  0  0  0  0  0  0  0  0  0  0
   -1.4235   -1.4714    2.1475 H   0  0  0  0  0  0  0  0  0  0  0  0
   -3.0966   -1.9777   -0.0581 H   0  0  0  0  0  0  0  0  0  0  0  0
    0.3158   -2.9614    1.4249 H   0  0  0  0  0  0  0  0  0  0  0  0
   -1.3959   -3.8267   -1.2065 H   0  0  0  0  0  0  0  0  0  0  0  0
   -1.3355   -0.8474   -1.9912 H   0  0  0  0  0  0  0  0  0  0  0  0
   -2.5850   -2.0023   -2.5034 H   0  0  0  0  0  0  0  0  0  0  0  0
   -2.9277   -3.2686    1.8094 H   0  0  0  0  0  0  0  0  0  0  0  0
    1.8283   -1.6322    3.0004 H   0  0  0  0  0  0  0  0  0  0  0  0
   -1.6779    2.4015    0.6753 H   0  0  0  0  0  0  0  0  0  0  0  0
   -2.1559    1.7663   -0.9225 H   0  0  0  0  0  0  0  0  0  0  0  0
    0.2172   -2.2426   -2.9183 H   0  0  0  0  0  0  0  0  0  0  0  0
   -4.5586    2.0310   -0.3114 H   0  0  0  0  0  0  0  0  0  0  0  0
   -4.1043    2.6241    1.2825 H   0  0  0  0  0  0  0  0  0  0  0  0
   -2.8963    4.5579    0.2112 H   0  0  0  0  0  0  0  0  0  0  0  0
   -3.3915    3.9724   -1.3785 H   0  0  0  0  0  0  0  0  0  0  0  0
    1.8959    1.0252   -2.8543 H   0  0  0  0  0  0  0  0  0  0  0  0
   -5.7954    4.2478   -0.7315 H   0  0  0  0  0  0  0  0  0  0  0  0
   -5.2934    4.8377    0.8653 H   0  0  0  0  0  0  0  0  0  0  0  0
   -4.8978    5.7690   -0.5892 H   0  0  0  0  0  0  0  0  0  0  0  0
    4.6128    3.6349   -0.6925 H   0  0  0  0  0  0  0  0  0  0  0  0
    5.7226    2.3365   -1.2681 H   0  0  0  0  0  0  0  0  0  0  0  0
    6.1259    3.2972    0.1643 H   0  0  0  0  0  0  0  0  0  0  0  0
  1 13  1  0  0  0  0
  1 14  1  0  0  0  0
  2 11  1  0  0  0  0
  2 18  1  0  0  0  0
  3 12  1  0  0  0  0
  3 33  1  0  0  0  0
  4 15  1  0  0  0  0
  4 37  1  0  0  0  0
  5 18  2  0  0  0  0
  6 22  1  0  0  0  0
  6 26  1  0  0  0  0
  7 13  1  0  0  0  0
  7 16  1  0  0  0  0
  7 17  1  0  0  0  0
  8 17  2  0  0  0  0
  8 19  1  0  0  0  0
  9 16  1  0  0  0  0
  9 24  2  0  0  0  0
 10 22  2  0  0  0  0
 10 24  1  0  0  0  0
 11 12  1  0  0  0  0
 11 13  1  0  0  0  0
 11 27  1  0  0  0  0
 12 14  1  0  0  0  0
 12 28  1  0  0  0  0
 13 29  1  0  0  0  0
 14 15  1  0  0  0  0
 14 30  1  0  0  0  0
 15 31  1  0  0  0  0
 15 32  1  0  0  0  0
 16 19  2  0  0  0  0
 17 34  1  0  0  0  0
 18 20  1  0  0  0  0
 19 22  1  0  0  0  0
 20 21  1  0  0  0  0
 20 35  1  0  0  0  0
 20 36  1  0  0  0  0
 21 23  1  0  0  0  0
 21 38  1  0  0  0  0
 21 39  1  0  0  0  0
 23 25  1  0  0  0  0
 23 40  1  0  0  0  0
 23 41  1  0  0  0  0
 24 42  1  0  0  0  0
 25 43  1  0  0  0  0
 25 44  1  0  0  0  0
 25 45  1  0  0  0  0
 26 46  1  0  0  0  0
 26 47  1  0  0  0  0
 26 48  1  0  0  0  0
M  END
> <PUBCHEM_COMPOUND_CID>
129338

> <PUBCHEM_CONFORMER_RMSD>
1

> <PUBCHEM_CONFORMER_DIVERSEORDER>
1
11
36
72
25
54
63
21
58
26
59
30
66
5
28
67
62
19
69
68
45
53
70
20
43
27
60
33
31
23
17
13
47
57
61
35
29
24
52
9
10
48
7
22
41
42
55
56
40
65
15
71
32
18
50
49
6
3
44
12
39
8
46
2
16
51
34
4
37
14
38
64

> <PUBCHEM_MMFF94_PARTIAL_CHARGES>
27
1 -0.56
10 -0.62
11 0.28
12 0.28
13 0.54
14 0.28
15 0.28
16 0.11
17 0.04
18 0.66
19 0.23
2 -0.43
20 0.06
22 0.39
24 0.47
26 0.28
3 -0.68
33 0.4
34 0.15
37 0.4
4 -0.68
42 0.15
5 -0.57
6 -0.36
7 0.05
8 -0.57
9 -0.57

> <PUBCHEM_EFFECTIVE_ROTOR_COUNT>
9

> <PUBCHEM_PHARMACOPHORE_FEATURES>
12
1 1 acceptor
1 25 hydrophobe
1 3 acceptor
1 3 donor
1 4 acceptor
1 4 donor
1 5 acceptor
3 7 8 17 cation
3 9 10 24 cation
5 1 11 12 13 14 rings
5 7 8 16 17 19 rings
6 9 10 16 19 22 24 rings

> <PUBCHEM_HEAVY_ATOM_COUNT>
26

> <PUBCHEM_ATOM_DEF_STEREO_COUNT>
4

> <PUBCHEM_ATOM_UDEF_STEREO_COUNT>
0

> <PUBCHEM_BOND_DEF_STEREO_COUNT>
0

> <PUBCHEM_BOND_UDEF_STEREO_COUNT>
0

> <PUBCHEM_ISOTOPIC_ATOM_COUNT>
0

> <PUBCHEM_COMPONENT_COUNT>
1

> <PUBCHEM_CACTVS_TAUTO_COUNT>
1

> <PUBCHEM_CONFORMER_ID>
0001F93A00000001

> <PUBCHEM_MMFF94_ENERGY>
53.1797

> <PUBCHEM_FEATURE_SELFOVERLAP>
61.033

> <PUBCHEM_SHAPE_FINGERPRINT>
10165383 225 16986341466762987619
11477941 20 17551797340824178116
11640471 11 18259703423594299560
12173636 292 18335985375555546626
12633257 1 15285652009514613584
12788726 201 18267570464072742511
13583140 156 17345742127612451202
13761468 95 18056509272736060192
13965767 371 17823135631605669660
14004458 79 17484763282031766751
14142880 1 18114457984830809861
14251764 75 18338807697582838961
14294032 229 18343301470809338953
15961568 22 17260181624126120848
16988056 13 17256526323151363877
17859628 37 17752210487436373621
17980427 23 17832959695227640235
20715895 44 17611457533305772249
21304303 282 17698680875481193543
21860390 5 17402604148388979365
2306618 200 17098323487620180086
23559900 14 17687751537207560585
23598288 3 18410283739883710195
238 59 17771355166867020245
26353 1 16980930894865369959
474 4 17976256829763095121
7808743 9 18409733997123646128

> <PUBCHEM_SHAPE_MULTIPOLES>
479.93
8.49
5.15
1.97
0.01
2.47
1.1
14.25
-0.87
5.95
0.98
-0.65
-1.55
-0.68

> <PUBCHEM_SHAPE_SELFOVERLAP>
1014.42

> <PUBCHEM_SHAPE_VOLUME>
266.2

> <PUBCHEM_COORDINATE_TYPE>
2
5
10

$$$$
