129317018
  -OEChem-03292013293D

 62 66  0     1  0  0  0  0  0999 V2000
    0.7050   -1.8282   -1.9258 O   0  0  0  0  0  0  0  0  0  0  0  0
    2.0529    2.8633   -0.9542 O   0  0  0  0  0  0  0  0  0  0  0  0
   -0.8367    3.0794   -0.2932 O   0  0  0  0  0  0  0  0  0  0  0  0
   -3.2871    2.5345    0.5884 O   0  0  0  0  0  0  0  0  0  0  0  0
   -5.0234   -1.7513    2.0107 O   0  0  0  0  0  0  0  0  0  0  0  0
    6.7960   -1.0029   -0.0773 O   0  0  0  0  0  0  0  0  0  0  0  0
   -0.0568    0.8090   -0.5056 C   0  0  1  0  0  0  0  0  0  0  0  0
    1.1497    1.0279    0.5252 C   0  0  1  0  0  0  0  0  0  0  0  0
   -0.6649   -0.6209   -0.2550 C   0  0  1  0  0  0  0  0  0  0  0  0
   -2.1364   -0.8261   -0.8072 C   0  0  1  0  0  0  0  0  0  0  0  0
    2.1602   -0.1047    0.3754 C   0  0  0  0  0  0  0  0  0  0  0  0
    0.3919   -1.7273   -0.5441 C   0  0  2  0  0  0  0  0  0  0  0  0
    2.0666    2.2923    0.3440 C   0  0  1  0  0  0  0  0  0  0  0  0
    1.6825   -1.5256    0.2718 C   0  0  0  0  0  0  0  0  0  0  0  0
   -1.1201    1.8786   -0.2530 C   0  0  0  0  0  0  0  0  0  0  0  0
   -3.0344    0.2638   -0.1444 C   0  0  0  0  0  0  0  0  0  0  0  0
    0.4164    0.9936   -1.9764 C   0  0  0  0  0  0  0  0  0  0  0  0
    3.4994    1.8244    0.6312 C   0  0  0  0  0  0  0  0  0  0  0  0
    0.6838    1.0372    2.0119 C   0  0  0  0  0  0  0  0  0  0  0  0
    3.4284    0.3408    0.4219 C   0  0  0  0  0  0  0  0  0  0  0  0
   -2.5287    1.5019    0.0761 C   0  0  0  0  0  0  0  0  0  0  0  0
   -4.4839   -0.1588    0.2353 C   0  0  0  0  0  0  0  0  0  0  0  0
   -2.2908   -0.7280   -2.3369 C   0  0  0  0  0  0  0  0  0  0  0  0
   -2.5747   -2.2373   -0.4340 C   0  0  0  0  0  0  0  0  0  0  0  0
   -4.3893   -1.4991    0.9866 C   0  0  0  0  0  0  0  0  0  0  0  0
    4.6601   -0.4509    0.3525 C   0  0  0  0  0  0  0  0  0  0  0  0
   -3.5571   -2.5670    0.4049 C   0  0  0  0  0  0  0  0  0  0  0  0
   -5.2632    0.8087    1.1616 C   0  0  0  0  0  0  0  0  0  0  0  0
   -5.3648   -0.3546   -1.0156 C   0  0  0  0  0  0  0  0  0  0  0  0
    4.8726   -1.7810    0.7869 C   0  0  0  0  0  0  0  0  0  0  0  0
    5.8600   -0.0218   -0.1655 C   0  0  0  0  0  0  0  0  0  0  0  0
    6.1871   -2.0700    0.5035 C   0  0  0  0  0  0  0  0  0  0  0  0
   -0.8217   -0.7073    0.8300 H   0  0  0  0  0  0  0  0  0  0  0  0
   -0.0022   -2.7051   -0.2498 H   0  0  0  0  0  0  0  0  0  0  0  0
    1.7774    3.0947    1.0331 H   0  0  0  0  0  0  0  0  0  0  0  0
    2.4526   -2.1661   -0.1659 H   0  0  0  0  0  0  0  0  0  0  0  0
    1.4975   -1.8804    1.2937 H   0  0  0  0  0  0  0  0  0  0  0  0
    1.4553    0.6804   -2.1222 H   0  0  0  0  0  0  0  0  0  0  0  0
    0.3272    2.0307   -2.3177 H   0  0  0  0  0  0  0  0  0  0  0  0
   -0.1619    0.4238   -2.6981 H   0  0  0  0  0  0  0  0  0  0  0  0
    3.7756    2.0313    1.6716 H   0  0  0  0  0  0  0  0  0  0  0  0
    4.2238    2.3063   -0.0331 H   0  0  0  0  0  0  0  0  0  0  0  0
   -0.0551    1.8249    2.1918 H   0  0  0  0  0  0  0  0  0  0  0  0
    1.5227    1.2328    2.6923 H   0  0  0  0  0  0  0  0  0  0  0  0
    0.2523    0.0880    2.3402 H   0  0  0  0  0  0  0  0  0  0  0  0
   -1.5326   -1.3132   -2.8652 H   0  0  0  0  0  0  0  0  0  0  0  0
   -2.2504    0.3067   -2.6930 H   0  0  0  0  0  0  0  0  0  0  0  0
   -3.2520   -1.1217   -2.6834 H   0  0  0  0  0  0  0  0  0  0  0  0
   -2.0289   -3.0619   -0.8884 H   0  0  0  0  0  0  0  0  0  0  0  0
    1.3202   -2.5724   -2.0393 H   0  0  0  0  0  0  0  0  0  0  0  0
    2.6283    3.6470   -0.9404 H   0  0  0  0  0  0  0  0  0  0  0  0
   -3.7761   -3.5969    0.6582 H   0  0  0  0  0  0  0  0  0  0  0  0
   -6.2183    0.3730    1.4828 H   0  0  0  0  0  0  0  0  0  0  0  0
   -5.5201    1.7443    0.6531 H   0  0  0  0  0  0  0  0  0  0  0  0
   -6.4158   -0.5024   -0.7373 H   0  0  0  0  0  0  0  0  0  0  0  0
   -4.7021    1.0337    2.0762 H   0  0  0  0  0  0  0  0  0  0  0  0
   -5.0917   -1.2388   -1.5976 H   0  0  0  0  0  0  0  0  0  0  0  0
   -5.3165    0.5198   -1.6744 H   0  0  0  0  0  0  0  0  0  0  0  0
   -2.7202    3.3222    0.6517 H   0  0  0  0  0  0  0  0  0  0  0  0
    4.1808   -2.4544    1.2719 H   0  0  0  0  0  0  0  0  0  0  0  0
    6.2009    0.9001   -0.6148 H   0  0  0  0  0  0  0  0  0  0  0  0
    6.8099   -2.9401    0.6510 H   0  0  0  0  0  0  0  0  0  0  0  0
  1 12  1  0  0  0  0
  1 50  1  0  0  0  0
  2 13  1  0  0  0  0
  2 51  1  0  0  0  0
  3 15  2  0  0  0  0
  4 21  1  0  0  0  0
  4 59  1  0  0  0  0
  5 25  2  0  0  0  0
  6 31  1  0  0  0  0
  6 32  1  0  0  0  0
  7  8  1  0  0  0  0
  7  9  1  0  0  0  0
  7 15  1  0  0  0  0
  7 17  1  0  0  0  0
  8 11  1  0  0  0  0
  8 13  1  0  0  0  0
  8 19  1  0  0  0  0
  9 10  1  0  0  0  0
  9 12  1  0  0  0  0
  9 33  1  0  0  0  0
 10 16  1  0  0  0  0
 10 23  1  0  0  0  0
 10 24  1  0  0  0  0
 11 14  1  0  0  0  0
 11 20  2  0  0  0  0
 12 14  1  0  0  0  0
 12 34  1  0  0  0  0
 13 18  1  0  0  0  0
 13 35  1  0  0  0  0
 14 36  1  0  0  0  0
 14 37  1  0  0  0  0
 15 21  1  0  0  0  0
 16 21  2  0  0  0  0
 16 22  1  0  0  0  0
 17 38  1  0  0  0  0
 17 39  1  0  0  0  0
 17 40  1  0  0  0  0
 18 20  1  0  0  0  0
 18 41  1  0  0  0  0
 18 42  1  0  0  0  0
 19 43  1  0  0  0  0
 19 44  1  0  0  0  0
 19 45  1  0  0  0  0
 20 26  1  0  0  0  0
 22 25  1  0  0  0  0
 22 28  1  0  0  0  0
 22 29  1  0  0  0  0
 23 46  1  0  0  0  0
 23 47  1  0  0  0  0
 23 48  1  0  0  0  0
 24 27  2  0  0  0  0
 24 49  1  0  0  0  0
 25 27  1  0  0  0  0
 26 30  1  0  0  0  0
 26 31  2  0  0  0  0
 27 52  1  0  0  0  0
 28 53  1  0  0  0  0
 28 54  1  0  0  0  0
 28 56  1  0  0  0  0
 29 55  1  0  0  0  0
 29 57  1  0  0  0  0
 29 58  1  0  0  0  0
 30 32  2  0  0  0  0
 30 60  1  0  0  0  0
 31 61  1  0  0  0  0
 32 62  1  0  0  0  0
M  END
> <PUBCHEM_COMPOUND_CID>
129317018

> <PUBCHEM_CONFORMER_RMSD>
0.8

> <PUBCHEM_CONFORMER_DIVERSEORDER>
1
4
5
2
3

> <PUBCHEM_MMFF94_PARTIAL_CHARGES>
34
1 -0.68
10 0.28
11 -0.28
12 0.28
13 0.28
14 0.14
15 0.49
16 -0.28
18 0.14
2 -0.68
20 -0.09
21 0.09
22 0.2
24 -0.29
25 0.49
26 -0.05
27 -0.14
3 -0.57
30 -0.15
31 -0.01
32 -0.01
4 -0.53
49 0.15
5 -0.57
50 0.4
51 0.4
52 0.15
59 0.45
6 -0.28
60 0.15
61 0.15
62 0.15
7 0.06
8 0.14

> <PUBCHEM_EFFECTIVE_ROTOR_COUNT>
2

> <PUBCHEM_PHARMACOPHORE_FEATURES>
14
1 1 acceptor
1 1 donor
1 2 acceptor
1 2 donor
1 3 acceptor
1 4 donor
1 5 acceptor
1 6 acceptor
3 22 28 29 hydrophobe
5 6 26 30 31 32 rings
5 8 11 13 18 20 rings
6 10 16 22 24 25 27 rings
6 7 8 9 11 12 14 rings
6 7 9 10 15 16 21 rings

> <PUBCHEM_HEAVY_ATOM_COUNT>
32

> <PUBCHEM_ATOM_DEF_STEREO_COUNT>
5

> <PUBCHEM_ATOM_UDEF_STEREO_COUNT>
1

> <PUBCHEM_BOND_DEF_STEREO_COUNT>
0

> <PUBCHEM_BOND_UDEF_STEREO_COUNT>
0

> <PUBCHEM_ISOTOPIC_ATOM_COUNT>
0

> <PUBCHEM_COMPONENT_COUNT>
1

> <PUBCHEM_CACTVS_TAUTO_COUNT>
2

> <PUBCHEM_CONFORMER_ID>
07B5389A00000001

> <PUBCHEM_MMFF94_ENERGY>
125.5441

> <PUBCHEM_FEATURE_SELFOVERLAP>
71.15

> <PUBCHEM_SHAPE_FINGERPRINT>
10622 236 17627769131542387831
11135609 12 18114475517272401729
11456790 92 17988376935894478563
11578080 2 16880461576546955919
117089 54 17971767806780695259
12011746 2 18340475699786716757
12107698 1 18410292519081394323
12236239 1 18060698399078267616
12422481 6 18202567258917951966
12553582 1 18263906809492609490
12633257 1 17131837620105084969
12788726 201 17560817545271202256
13009979 54 18261402156090363820
13140716 1 18342175604645068913
13224815 77 18059016223860945239
13782708 43 18060414716351626126
14341114 176 18408887368842992896
14420673 8 18339082575615707562
14856354 85 18336555983372515830
14955137 171 18334861648907398044
15064986 96 18130519530953296007
15131766 46 14043731679666295722
15209289 33 18333447651331818194
15238133 3 16415491457908077609
15484559 13 14385447038013582470
16110190 28 18342737455413702224
17492 89 18119531191806693363
1813 80 17458338667552199228
18393751 57 16332125644323946705
19438510 23 15265675945512680137
19591789 44 18411695517530390322
20028762 73 18060128873340837718
21236236 1 18341891849024756912
21267235 1 18411420609110139427
21682296 61 18059297548345554334
22182313 1 17845379838794295670
22950370 63 18334295370865693866
23522609 53 18194993840264981496
23559900 14 18335692888298370449
23566358 27 18189619513205886996
23569917 315 17988923409847840135
335352 9 18410852153599566693
350125 39 18413388735230196904
3633792 109 18337939127036424757
3737641 26 18114741513113871586
392239 28 18336841848370052275
4058900 60 17253132147820705645
465052 167 18410017654106837762
5104073 3 18341321220434630752
5265222 85 18131073779597745092
6086070 43 17274524474279548177
7226269 152 16773799181970619970
999808 66 18187656781755021666

> <PUBCHEM_SHAPE_MULTIPOLES>
623.33
12.51
2.91
1.5
9.22
0.78
-0.3
-6.02
3.3
-0.04
0.1
-1.14
-0.18
-0.05

> <PUBCHEM_SHAPE_SELFOVERLAP>
1379.022

> <PUBCHEM_SHAPE_VOLUME>
327.5

> <PUBCHEM_COORDINATE_TYPE>
2
5
10

$$$$
