129389
  -OEChem-03292013323D

 38 40  0     0  0  0  0  0  0999 V2000
    0.0846    3.2459    0.0556 O   0  0  0  0  0  0  0  0  0  0  0  0
   -0.6756   -2.6924    0.5073 O   0  0  0  0  0  0  0  0  0  0  0  0
   -2.2899    2.3423   -0.2695 O   0  0  0  0  0  0  0  0  0  0  0  0
   -4.7168    1.6005   -0.6239 O   0  0  0  0  0  0  0  0  0  0  0  0
    7.9496   -0.8664   -0.8925 O   0  0  0  0  0  0  0  0  0  0  0  0
    4.3972   -0.1692   -0.2415 N   0  0  0  0  0  0  0  0  0  0  0  0
   -0.0776   -0.4239    0.3860 C   0  0  0  0  0  0  0  0  0  0  0  0
   -0.4997    0.8917    0.1835 C   0  0  0  0  0  0  0  0  0  0  0  0
    2.1921    0.3548    0.7036 C   0  0  0  0  0  0  0  0  0  0  0  0
   -2.8873    0.0738   -0.1530 C   0  0  0  0  0  0  0  0  0  0  0  0
   -2.4652   -1.2417    0.0498 C   0  0  0  0  0  0  0  0  0  0  0  0
    1.2715   -0.6921    0.6467 C   0  0  0  0  0  0  0  0  0  0  0  0
   -1.0450   -1.5386    0.3274 C   0  0  0  0  0  0  0  0  0  0  0  0
   -1.9200    1.1887   -0.0936 C   0  0  0  0  0  0  0  0  0  0  0  0
    3.6293    0.0686    0.9818 C   0  0  0  0  0  0  0  0  0  0  0  0
    0.4274    1.9393    0.2419 C   0  0  0  0  0  0  0  0  0  0  0  0
    1.7710    1.6676    0.5017 C   0  0  0  0  0  0  0  0  0  0  0  0
   -4.2361    0.3417   -0.4155 C   0  0  0  0  0  0  0  0  0  0  0  0
   -3.3919   -2.2894   -0.0102 C   0  0  0  0  0  0  0  0  0  0  0  0
    5.7923   -0.4338    0.0712 C   0  0  0  0  0  0  0  0  0  0  0  0
   -5.1562   -0.7053   -0.4745 C   0  0  0  0  0  0  0  0  0  0  0  0
   -4.7351   -2.0182   -0.2724 C   0  0  0  0  0  0  0  0  0  0  0  0
    6.5813   -0.6439   -1.2099 C   0  0  0  0  0  0  0  0  0  0  0  0
    1.6126   -1.7126    0.8043 H   0  0  0  0  0  0  0  0  0  0  0  0
    4.0601    0.9124    1.5369 H   0  0  0  0  0  0  0  0  0  0  0  0
    3.7021   -0.7999    1.6501 H   0  0  0  0  0  0  0  0  0  0  0  0
    2.4948    2.4785    0.5461 H   0  0  0  0  0  0  0  0  0  0  0  0
   -3.0887   -3.3215    0.1439 H   0  0  0  0  0  0  0  0  0  0  0  0
    4.0047   -0.9668   -0.7418 H   0  0  0  0  0  0  0  0  0  0  0  0
    5.8911   -1.3207    0.7096 H   0  0  0  0  0  0  0  0  0  0  0  0
    6.2338    0.4036    0.6259 H   0  0  0  0  0  0  0  0  0  0  0  0
   -6.2050   -0.5054   -0.6781 H   0  0  0  0  0  0  0  0  0  0  0  0
   -5.4534   -2.8316   -0.3189 H   0  0  0  0  0  0  0  0  0  0  0  0
    6.5273    0.2382   -1.8565 H   0  0  0  0  0  0  0  0  0  0  0  0
    6.2138   -1.5065   -1.7759 H   0  0  0  0  0  0  0  0  0  0  0  0
    0.8747    3.8068    0.1380 H   0  0  0  0  0  0  0  0  0  0  0  0
   -4.0054    2.2552   -0.5638 H   0  0  0  0  0  0  0  0  0  0  0  0
    7.9960   -1.6642   -0.3386 H   0  0  0  0  0  0  0  0  0  0  0  0
  1 16  1  0  0  0  0
  1 36  1  0  0  0  0
  2 13  2  0  0  0  0
  3 14  2  0  0  0  0
  4 18  1  0  0  0  0
  4 37  1  0  0  0  0
  5 23  1  0  0  0  0
  5 38  1  0  0  0  0
  6 15  1  0  0  0  0
  6 20  1  0  0  0  0
  6 29  1  0  0  0  0
  7  8  2  0  0  0  0
  7 12  1  0  0  0  0
  7 13  1  0  0  0  0
  8 14  1  0  0  0  0
  8 16  1  0  0  0  0
  9 12  2  0  0  0  0
  9 15  1  0  0  0  0
  9 17  1  0  0  0  0
 10 11  2  0  0  0  0
 10 14  1  0  0  0  0
 10 18  1  0  0  0  0
 11 13  1  0  0  0  0
 11 19  1  0  0  0  0
 12 24  1  0  0  0  0
 15 25  1  0  0  0  0
 15 26  1  0  0  0  0
 16 17  2  0  0  0  0
 17 27  1  0  0  0  0
 18 21  2  0  0  0  0
 19 22  2  0  0  0  0
 19 28  1  0  0  0  0
 20 23  1  0  0  0  0
 20 30  1  0  0  0  0
 20 31  1  0  0  0  0
 21 22  1  0  0  0  0
 21 32  1  0  0  0  0
 22 33  1  0  0  0  0
 23 34  1  0  0  0  0
 23 35  1  0  0  0  0
M  END
> <PUBCHEM_COMPOUND_CID>
129389

> <PUBCHEM_CONFORMER_RMSD>
0.6

> <PUBCHEM_CONFORMER_DIVERSEORDER>
1
19
8
5
4
11
21
16
7
20
12
3
22
17
10
9
6
18
13
15
14
2

> <PUBCHEM_MMFF94_PARTIAL_CHARGES>
32
1 -0.53
10 0.09
11 0.09
12 -0.15
13 0.4
14 0.4
15 0.41
16 0.08
17 -0.15
18 0.08
19 -0.15
2 -0.57
20 0.27
21 -0.15
22 -0.15
23 0.28
24 0.15
27 0.15
28 0.15
29 0.36
3 -0.57
32 0.15
33 0.15
36 0.45
37 0.45
38 0.4
4 -0.53
5 -0.68
6 -0.9
7 0.09
8 0.09
9 -0.14

> <PUBCHEM_EFFECTIVE_ROTOR_COUNT>
4

> <PUBCHEM_PHARMACOPHORE_FEATURES>
11
1 1 donor
1 2 acceptor
1 3 acceptor
1 4 donor
1 5 acceptor
1 5 donor
1 6 cation
1 6 donor
6 10 11 18 19 21 22 rings
6 7 8 10 11 13 14 rings
6 7 8 9 12 16 17 rings

> <PUBCHEM_HEAVY_ATOM_COUNT>
23

> <PUBCHEM_ATOM_DEF_STEREO_COUNT>
0

> <PUBCHEM_ATOM_UDEF_STEREO_COUNT>
0

> <PUBCHEM_BOND_DEF_STEREO_COUNT>
0

> <PUBCHEM_BOND_UDEF_STEREO_COUNT>
0

> <PUBCHEM_ISOTOPIC_ATOM_COUNT>
0

> <PUBCHEM_COMPONENT_COUNT>
1

> <PUBCHEM_CACTVS_TAUTO_COUNT>
24

> <PUBCHEM_CONFORMER_ID>
0001F96D00000001

> <PUBCHEM_MMFF94_ENERGY>
61.0039

> <PUBCHEM_FEATURE_SELFOVERLAP>
55.864

> <PUBCHEM_SHAPE_FINGERPRINT>
10411042 1 18266178525486695787
10693767 8 17553461980270448855
10967382 1 18337096875154028753
11315181 36 18059861666814293122
11458722 379 18335697256443517363
11524674 6 16559030497712472158
11578080 2 17025415718255336079
12011746 2 18409721868277861519
12236239 1 17603301532017007498
12788726 201 18336262324079631608
12954195 1 18343023242200221376
13140716 1 16535670596397593953
13288520 33 18341895198988399999
13402501 40 18273500065915390550
13544592 145 18272647982857642018
13862211 1 18337379517618402891
14251757 5 18261397784161770562
14790565 3 17189828848219852513
15183329 4 18335421245171784642
15196674 1 18337382859487873025
15536298 74 18268138950049364105
16087824 20 18265613192217400013
16945 1 17543342113743899345
17804303 29 18410568526533069089
19591789 44 18264199395813718835
20871999 31 18334858312054938400
21267235 1 18337111263289481427
21279426 13 18410847780727065420
221490 88 18118401980542713025
2297311 6 18411984667386701642
23175994 123 17418371411150065536
23198884 109 17240204331177820926
2334 1 17977652123056209585
23402539 116 18412819192206206926
23557571 272 18272375235302079284
23559900 14 18342169020845534160
2838139 119 15430038760256915014
3004659 81 18260829319907703772
335352 9 18410569575085383701
350125 39 18335416924582202465
437815 12 17917996079339086192
5104073 3 18338226184975040825
59755656 215 18411979131000251782
6138700 20 18412545396963831086
7237137 82 18114177502208160380
9709674 26 18048873293271522163

> <PUBCHEM_SHAPE_MULTIPOLES>
439
13.6
2.6
0.85
24.07
0.84
-0.04
-6.28
-5.52
-2.14
0.03
0.77
-0.09
0.83

> <PUBCHEM_SHAPE_SELFOVERLAP>
968.713

> <PUBCHEM_SHAPE_VOLUME>
234.3

> <PUBCHEM_COORDINATE_TYPE>
2
5
10

$$$$
