129316864
  -OEChem-03292013293D

 59 61  0     1  0  0  0  0  0999 V2000
   -0.9337   -0.5380   -0.8246 O   0  0  0  0  0  0  0  0  0  0  0  0
    1.9072    2.0545    0.8783 O   0  0  0  0  0  0  0  0  0  0  0  0
   -0.2389   -2.2167    0.4999 O   0  0  0  0  0  0  0  0  0  0  0  0
    2.1360    3.3941   -0.9897 O   0  0  0  0  0  0  0  0  0  0  0  0
    5.6452   -1.6790   -0.2533 O   0  0  0  0  0  0  0  0  0  0  0  0
    4.0457   -3.2841   -0.7274 O   0  0  0  0  0  0  0  0  0  0  0  0
   -6.1940   -2.5548   -0.3832 O   0  0  0  0  0  0  0  0  0  0  0  0
   -4.7598   -1.9083    1.2500 O   0  0  0  0  0  0  0  0  0  0  0  0
    1.1402    1.1128    0.1091 C   0  0  1  0  0  0  0  0  0  0  0  0
    0.5974    0.0056    1.0281 C   0  0  2  0  0  0  0  0  0  0  0  0
   -0.2029    1.7867   -0.2668 C   0  0  2  0  0  0  0  0  0  0  0  0
   -0.4195    0.7469    1.9347 C   0  0  0  0  0  0  0  0  0  0  0  0
   -0.8106    1.9974    1.1459 C   0  0  0  0  0  0  0  0  0  0  0  0
   -1.0943    0.8728   -1.1491 C   0  0  1  0  0  0  0  0  0  0  0  0
    2.0412    0.6301   -1.0335 C   0  0  0  0  0  0  0  0  0  0  0  0
    1.6675   -0.6815    1.9001 C   0  0  0  0  0  0  0  0  0  0  0  0
   -0.2096   -1.0210    0.2198 C   0  0  0  0  0  0  0  0  0  0  0  0
    3.4307    0.1490   -0.5958 C   0  0  0  0  0  0  0  0  0  0  0  0
   -0.7832    1.0323   -2.6468 C   0  0  0  0  0  0  0  0  0  0  0  0
    2.7002   -1.5141    1.1929 C   0  0  0  0  0  0  0  0  0  0  0  0
   -2.5644    1.1798   -1.0161 C   0  0  0  0  0  0  0  0  0  0  0  0
    3.4449   -1.1596    0.1352 C   0  0  0  0  0  0  0  0  0  0  0  0
    2.3370    3.1465    0.1915 C   0  0  0  0  0  0  0  0  0  0  0  0
   -3.4755    0.2912   -0.5901 C   0  0  0  0  0  0  0  0  0  0  0  0
    4.3905   -2.1837   -0.3374 C   0  0  0  0  0  0  0  0  0  0  0  0
    3.1174    4.0332    1.1138 C   0  0  0  0  0  0  0  0  0  0  0  0
   -4.8858    0.6049   -0.4716 C   0  0  0  0  0  0  0  0  0  0  0  0
   -5.8628   -0.2241   -0.0544 C   0  0  0  0  0  0  0  0  0  0  0  0
    6.6859   -2.5640   -0.6807 C   0  0  0  0  0  0  0  0  0  0  0  0
   -7.3216    0.1175    0.0781 C   0  0  0  0  0  0  0  0  0  0  0  0
   -5.5304   -1.6264    0.3429 C   0  0  0  0  0  0  0  0  0  0  0  0
   -0.1160    2.7718   -0.7342 H   0  0  0  0  0  0  0  0  0  0  0  0
    0.0175    1.0439    2.8953 H   0  0  0  0  0  0  0  0  0  0  0  0
   -1.3020    0.1342    2.1527 H   0  0  0  0  0  0  0  0  0  0  0  0
   -1.8879    2.1768    1.1696 H   0  0  0  0  0  0  0  0  0  0  0  0
   -0.3584    2.8799    1.6172 H   0  0  0  0  0  0  0  0  0  0  0  0
    2.1746    1.3800   -1.8166 H   0  0  0  0  0  0  0  0  0  0  0  0
    1.5714   -0.2131   -1.5529 H   0  0  0  0  0  0  0  0  0  0  0  0
    1.1549   -1.3473    2.6092 H   0  0  0  0  0  0  0  0  0  0  0  0
    2.1914    0.0524    2.5262 H   0  0  0  0  0  0  0  0  0  0  0  0
    3.9582    0.9024   -0.0009 H   0  0  0  0  0  0  0  0  0  0  0  0
    4.0229    0.0420   -1.5152 H   0  0  0  0  0  0  0  0  0  0  0  0
    0.2115    0.6748   -2.9150 H   0  0  0  0  0  0  0  0  0  0  0  0
   -0.8667    2.0766   -2.9689 H   0  0  0  0  0  0  0  0  0  0  0  0
   -1.4729    0.4342   -3.2569 H   0  0  0  0  0  0  0  0  0  0  0  0
    2.8508   -2.5005    1.6314 H   0  0  0  0  0  0  0  0  0  0  0  0
   -2.8789    2.1885   -1.2793 H   0  0  0  0  0  0  0  0  0  0  0  0
   -3.1787   -0.7172   -0.3286 H   0  0  0  0  0  0  0  0  0  0  0  0
    2.4791    4.3658    1.9362 H   0  0  0  0  0  0  0  0  0  0  0  0
    3.4638    4.9129    0.5639 H   0  0  0  0  0  0  0  0  0  0  0  0
    3.9892    3.4955    1.4951 H   0  0  0  0  0  0  0  0  0  0  0  0
   -5.1695    1.6195   -0.7474 H   0  0  0  0  0  0  0  0  0  0  0  0
    7.6415   -2.0460   -0.5647 H   0  0  0  0  0  0  0  0  0  0  0  0
    6.5528   -2.8236   -1.7354 H   0  0  0  0  0  0  0  0  0  0  0  0
    6.6966   -3.4645   -0.0591 H   0  0  0  0  0  0  0  0  0  0  0  0
   -7.9225   -0.4673   -0.6256 H   0  0  0  0  0  0  0  0  0  0  0  0
   -7.5018    1.1776   -0.1288 H   0  0  0  0  0  0  0  0  0  0  0  0
   -7.6724   -0.0876    1.0948 H   0  0  0  0  0  0  0  0  0  0  0  0
   -5.9736   -3.4682   -0.1014 H   0  0  0  0  0  0  0  0  0  0  0  0
  1 14  1  0  0  0  0
  1 17  1  0  0  0  0
  2  9  1  0  0  0  0
  2 23  1  0  0  0  0
  3 17  2  0  0  0  0
  4 23  2  0  0  0  0
  5 25  1  0  0  0  0
  5 29  1  0  0  0  0
  6 25  2  0  0  0  0
  7 31  1  0  0  0  0
  7 59  1  0  0  0  0
  8 31  2  0  0  0  0
  9 10  1  0  0  0  0
  9 11  1  0  0  0  0
  9 15  1  0  0  0  0
 10 12  1  0  0  0  0
 10 16  1  0  0  0  0
 10 17  1  0  0  0  0
 11 13  1  0  0  0  0
 11 14  1  0  0  0  0
 11 32  1  0  0  0  0
 12 13  1  0  0  0  0
 12 33  1  0  0  0  0
 12 34  1  0  0  0  0
 13 35  1  0  0  0  0
 13 36  1  0  0  0  0
 14 19  1  0  0  0  0
 14 21  1  0  0  0  0
 15 18  1  0  0  0  0
 15 37  1  0  0  0  0
 15 38  1  0  0  0  0
 16 20  1  0  0  0  0
 16 39  1  0  0  0  0
 16 40  1  0  0  0  0
 18 22  1  0  0  0  0
 18 41  1  0  0  0  0
 18 42  1  0  0  0  0
 19 43  1  0  0  0  0
 19 44  1  0  0  0  0
 19 45  1  0  0  0  0
 20 22  2  0  0  0  0
 20 46  1  0  0  0  0
 21 24  2  0  0  0  0
 21 47  1  0  0  0  0
 22 25  1  0  0  0  0
 23 26  1  0  0  0  0
 24 27  1  0  0  0  0
 24 48  1  0  0  0  0
 26 49  1  0  0  0  0
 26 50  1  0  0  0  0
 26 51  1  0  0  0  0
 27 28  2  0  0  0  0
 27 52  1  0  0  0  0
 28 30  1  0  0  0  0
 28 31  1  0  0  0  0
 29 53  1  0  0  0  0
 29 54  1  0  0  0  0
 29 55  1  0  0  0  0
 30 56  1  0  0  0  0
 30 57  1  0  0  0  0
 30 58  1  0  0  0  0
M  END
> <PUBCHEM_COMPOUND_CID>
129316864

> <PUBCHEM_CONFORMER_RMSD>
1

> <PUBCHEM_CONFORMER_DIVERSEORDER>
1
3
24
53
14
33
46
22
5
17
52
18
15
28
49
42
9
51
44
20
19
11
37
45
4
25
29
50
40
16
35
27
31
36
34
6
30
2
47
43
10
21
39
23
32
13
41
26
7
8
12
38
48

> <PUBCHEM_MMFF94_PARTIAL_CHARGES>
31
1 -0.43
10 0.06
14 0.42
16 0.14
17 0.66
18 0.14
2 -0.43
20 -0.29
21 -0.29
22 -0.12
23 0.66
24 -0.15
25 0.71
26 0.06
27 -0.15
28 -0.12
29 0.28
3 -0.57
30 0.14
31 0.71
4 -0.57
46 0.15
47 0.15
48 0.15
5 -0.43
52 0.15
59 0.5
6 -0.57
7 -0.65
8 -0.57
9 0.28

> <PUBCHEM_EFFECTIVE_ROTOR_COUNT>
8.4

> <PUBCHEM_PHARMACOPHORE_FEATURES>
9
1 3 acceptor
1 30 hydrophobe
1 4 acceptor
1 6 acceptor
1 7 acceptor
1 8 acceptor
3 7 8 31 anion
7 9 10 15 16 18 20 22 rings
8 1 9 10 11 12 13 14 17 rings

> <PUBCHEM_HEAVY_ATOM_COUNT>
31

> <PUBCHEM_ATOM_DEF_STEREO_COUNT>
1

> <PUBCHEM_ATOM_UDEF_STEREO_COUNT>
3

> <PUBCHEM_BOND_DEF_STEREO_COUNT>
2

> <PUBCHEM_BOND_UDEF_STEREO_COUNT>
0

> <PUBCHEM_ISOTOPIC_ATOM_COUNT>
0

> <PUBCHEM_COMPONENT_COUNT>
1

> <PUBCHEM_CACTVS_TAUTO_COUNT>
1

> <PUBCHEM_CONFORMER_ID>
07B5380000000001

> <PUBCHEM_MMFF94_ENERGY>
107.9912

> <PUBCHEM_FEATURE_SELFOVERLAP>
45.749

> <PUBCHEM_SHAPE_FINGERPRINT>
10076449 9 18335148544871210742
10169797 241 17968383462623720387
10369192 42 17974839876818304372
11513181 2 18053384576596191079
11961588 58 13840280181642712180
12422481 6 17897987260683105417
13673619 4 18260551082677192109
13690498 29 18040995082237010741
13782708 43 18186235121593976419
14068700 675 18342740671959104976
14251764 30 18339077095058232831
14341114 176 18408604790919926385
14466204 15 10015565221287269779
14790565 3 17399239037154727485
14955137 171 18271803493233961858
15238133 3 17489594433646269369
15927050 60 18054224612106026486
1813 80 17988086573949845620
20775438 99 18119517980118343866
21049683 271 18408609163080797516
22182313 1 17678148621161465797
22393880 68 18040707044534505517
23419403 2 17896629291077415752
23559900 14 18113899377474453053
2838139 119 14273748300251268318
4340502 62 18266453394308015073
437815 12 18411986831903032499
465052 167 18272654545346273695
484989 97 18041013863528258938
59755656 215 18266464389677519788
6669772 16 18268710700691630492
70251023 43 18410014299426494353
7495541 125 18408322185374786847
7970288 3 18195525896286423686

> <PUBCHEM_SHAPE_MULTIPOLES>
591.01
13.38
3.73
1.57
14.88
1.71
0.11
-11.82
1.37
-4.92
-0.32
-0.15
0.43
1.42

> <PUBCHEM_SHAPE_SELFOVERLAP>
1261.092

> <PUBCHEM_SHAPE_VOLUME>
322.8

> <PUBCHEM_COORDINATE_TYPE>
2
5
10

$$$$
