129362
  -OEChem-03292013323D

 47 50  0     1  0  0  0  0  0999 V2000
   -4.5613   -0.2285    0.7541 O   0  0  0  0  0  0  0  0  0  0  0  0
   -4.9637    1.5927   -1.5376 O   0  0  0  0  0  0  0  0  0  0  0  0
    1.6549   -0.7278    0.0077 O   0  0  0  0  0  0  0  0  0  0  0  0
   -3.1561   -0.0677    3.0452 O   0  0  0  0  0  0  0  0  0  0  0  0
    3.5551    2.9058   -0.1235 O   0  0  0  0  0  0  0  0  0  0  0  0
    5.8592    1.6957   -0.2165 O   0  0  0  0  0  0  0  0  0  0  0  0
    5.7753   -3.0492   -0.3368 O   0  0  0  0  0  0  0  0  0  0  0  0
   -5.2841   -0.5762   -0.4435 C   0  0  0  0  0  0  0  0  0  0  0  0
   -4.7570    0.1844   -1.6792 C   0  0  2  0  0  0  0  0  0  0  0  0
   -3.2614   -0.0391   -1.8820 C   0  0  0  0  0  0  0  0  0  0  0  0
   -2.5273    0.0359   -0.5733 C   0  0  0  0  0  0  0  0  0  0  0  0
   -3.2063   -0.0675    0.6452 C   0  0  0  0  0  0  0  0  0  0  0  0
   -5.2087   -2.1017   -0.6354 C   0  0  0  0  0  0  0  0  0  0  0  0
   -6.7490   -0.2052   -0.1584 C   0  0  0  0  0  0  0  0  0  0  0  0
   -0.4334    0.2590    0.6369 C   0  0  0  0  0  0  0  0  0  0  0  0
    1.0713    0.4284    0.6283 C   0  0  2  0  0  0  0  0  0  0  0  0
   -1.1335    0.1867   -0.5675 C   0  0  0  0  0  0  0  0  0  0  0  0
   -2.5038    0.0155    1.8509 C   0  0  0  0  0  0  0  0  0  0  0  0
    1.4774    1.7065   -0.1030 C   0  0  0  0  0  0  0  0  0  0  0  0
   -1.1192    0.1773    1.8461 C   0  0  0  0  0  0  0  0  0  0  0  0
    2.9793    1.8248   -0.0895 C   0  0  0  0  0  0  0  0  0  0  0  0
    3.7282    0.5513   -0.1059 C   0  0  0  0  0  0  0  0  0  0  0  0
    3.0213   -0.6545   -0.0789 C   0  0  0  0  0  0  0  0  0  0  0  0
    5.1227    0.5500   -0.1912 C   0  0  0  0  0  0  0  0  0  0  0  0
    3.7101   -1.8647   -0.1714 C   0  0  0  0  0  0  0  0  0  0  0  0
    5.1026   -1.8681   -0.2579 C   0  0  0  0  0  0  0  0  0  0  0  0
    5.8072   -0.6639   -0.2628 C   0  0  0  0  0  0  0  0  0  0  0  0
   -5.3039   -0.1249   -2.5779 H   0  0  0  0  0  0  0  0  0  0  0  0
   -2.8567    0.7124   -2.5708 H   0  0  0  0  0  0  0  0  0  0  0  0
   -3.0849   -1.0288   -2.3191 H   0  0  0  0  0  0  0  0  0  0  0  0
   -5.6071   -2.6221    0.2435 H   0  0  0  0  0  0  0  0  0  0  0  0
   -5.7785   -2.4217   -1.5139 H   0  0  0  0  0  0  0  0  0  0  0  0
   -4.1780   -2.4529   -0.7477 H   0  0  0  0  0  0  0  0  0  0  0  0
   -6.8478    0.8575    0.0898 H   0  0  0  0  0  0  0  0  0  0  0  0
   -7.3935   -0.4245   -1.0159 H   0  0  0  0  0  0  0  0  0  0  0  0
   -7.1297   -0.7546    0.7108 H   0  0  0  0  0  0  0  0  0  0  0  0
    1.4319    0.4665    1.6670 H   0  0  0  0  0  0  0  0  0  0  0  0
   -0.6033    0.2396   -1.5156 H   0  0  0  0  0  0  0  0  0  0  0  0
    1.0482    2.5833    0.3948 H   0  0  0  0  0  0  0  0  0  0  0  0
    1.1693    1.7094   -1.1545 H   0  0  0  0  0  0  0  0  0  0  0  0
   -0.5763    0.2367    2.7862 H   0  0  0  0  0  0  0  0  0  0  0  0
   -4.6846    2.0165   -2.3671 H   0  0  0  0  0  0  0  0  0  0  0  0
   -2.5093    0.0079    3.7676 H   0  0  0  0  0  0  0  0  0  0  0  0
    3.1651   -2.8054   -0.1656 H   0  0  0  0  0  0  0  0  0  0  0  0
    6.8927   -0.6753   -0.3302 H   0  0  0  0  0  0  0  0  0  0  0  0
    6.8038    1.4733   -0.2801 H   0  0  0  0  0  0  0  0  0  0  0  0
    6.7291   -2.8666   -0.3899 H   0  0  0  0  0  0  0  0  0  0  0  0
  1  8  1  0  0  0  0
  1 12  1  0  0  0  0
  2  9  1  0  0  0  0
  2 42  1  0  0  0  0
  3 16  1  0  0  0  0
  3 23  1  0  0  0  0
  4 18  1  0  0  0  0
  4 43  1  0  0  0  0
  5 21  2  0  0  0  0
  6 24  1  0  0  0  0
  6 46  1  0  0  0  0
  7 26  1  0  0  0  0
  7 47  1  0  0  0  0
  8  9  1  0  0  0  0
  8 13  1  0  0  0  0
  8 14  1  0  0  0  0
  9 10  1  0  0  0  0
  9 28  1  0  0  0  0
 10 11  1  0  0  0  0
 10 29  1  0  0  0  0
 10 30  1  0  0  0  0
 11 12  2  0  0  0  0
 11 17  1  0  0  0  0
 12 18  1  0  0  0  0
 13 31  1  0  0  0  0
 13 32  1  0  0  0  0
 13 33  1  0  0  0  0
 14 34  1  0  0  0  0
 14 35  1  0  0  0  0
 14 36  1  0  0  0  0
 15 16  1  0  0  0  0
 15 17  2  0  0  0  0
 15 20  1  0  0  0  0
 16 19  1  0  0  0  0
 16 37  1  0  0  0  0
 17 38  1  0  0  0  0
 18 20  2  0  0  0  0
 19 21  1  0  0  0  0
 19 39  1  0  0  0  0
 19 40  1  0  0  0  0
 20 41  1  0  0  0  0
 21 22  1  0  0  0  0
 22 23  1  0  0  0  0
 22 24  2  0  0  0  0
 23 25  2  0  0  0  0
 24 27  1  0  0  0  0
 25 26  1  0  0  0  0
 25 44  1  0  0  0  0
 26 27  2  0  0  0  0
 27 45  1  0  0  0  0
M  END
> <PUBCHEM_COMPOUND_CID>
129362

> <PUBCHEM_CONFORMER_RMSD>
0.6

> <PUBCHEM_CONFORMER_DIVERSEORDER>
1
11
7
21
13
12
24
2
18
6
9
5
19
16
10
17
23
4
14
20
22
3
15
8

> <PUBCHEM_MMFF94_PARTIAL_CHARGES>
33
1 -0.36
10 0.14
11 -0.14
12 0.08
15 -0.14
16 0.42
17 -0.15
18 0.08
19 0.06
2 -0.68
20 -0.15
21 0.42
22 0.09
23 0.08
24 0.08
25 -0.15
26 0.08
27 -0.15
3 -0.36
38 0.15
4 -0.53
41 0.15
42 0.4
43 0.45
44 0.15
45 0.15
46 0.45
47 0.45
5 -0.57
6 -0.53
7 -0.53
8 0.28
9 0.28

> <PUBCHEM_EFFECTIVE_ROTOR_COUNT>
2.4

> <PUBCHEM_PHARMACOPHORE_FEATURES>
13
1 1 acceptor
1 2 acceptor
1 2 donor
1 3 acceptor
1 4 donor
1 5 acceptor
1 6 donor
1 7 donor
3 8 13 14 hydrophobe
6 1 8 9 10 11 12 rings
6 11 12 15 17 18 20 rings
6 22 23 24 25 26 27 rings
6 3 16 19 21 22 23 rings

> <PUBCHEM_HEAVY_ATOM_COUNT>
27

> <PUBCHEM_ATOM_DEF_STEREO_COUNT>
2

> <PUBCHEM_ATOM_UDEF_STEREO_COUNT>
0

> <PUBCHEM_BOND_DEF_STEREO_COUNT>
0

> <PUBCHEM_BOND_UDEF_STEREO_COUNT>
0

> <PUBCHEM_ISOTOPIC_ATOM_COUNT>
0

> <PUBCHEM_COMPONENT_COUNT>
1

> <PUBCHEM_CACTVS_TAUTO_COUNT>
189

> <PUBCHEM_CONFORMER_ID>
0001F95200000001

> <PUBCHEM_MMFF94_ENERGY>
85.3055

> <PUBCHEM_FEATURE_SELFOVERLAP>
66.032

> <PUBCHEM_SHAPE_FINGERPRINT>
10595046 47 18271809072349324945
10670039 82 15502650451677270679
10673678 19 17242193434155289652
11059845 2 15765296146482902730
117089 54 17541100201226031131
12166972 35 18131911567954364488
12236239 1 17775008989697521232
12390115 104 16806158849249502997
12403259 415 17531254971444192488
12553582 1 15984824887123526965
12596602 18 17561366192761533226
12616971 3 18060150824933757897
12788726 201 16845302648071166979
13533116 47 18202562887010367090
13782708 43 17895199925808436691
14251752 14 17917427589015269321
14294032 229 16557369063103199609
14386348 63 17749113300630470544
14573314 32 17676486133504138820
15183329 4 18187922833408888389
17349148 13 17561367287629936246
17844677 252 18409167697274841589
17857418 61 17775566433407975346
1813 80 18129115437460894604
18222031 100 18341612565193692706
19377110 9 17275386516985797026
19784866 240 18202003200688914583
200 152 18273495671577978785
20028762 73 18059294267265340726
20281389 69 12757150190362330959
20511986 3 17774994674645448200
20645477 70 18407758136479430214
21033648 29 17894627097530395736
21033650 10 16950843587810103141
22061861 79 18335138678587435902
221357 26 18260824886621006221
2215653 11 17967534570969407762
22393880 68 17967529094949864091
23198884 109 18260266326899153401
23402539 116 15841549678628837173
23522609 53 17630632156694194545
23536379 177 18412824686044469269
23557571 272 17240765107234335941
23559900 14 16660653985100870302
23569914 152 17252836404983249679
23569943 247 17751352881347336323
25147074 1 17774735198401667696
3004659 81 17489310801973334148
34797466 226 17095533906725035710
3882209 13 16959826430717642626
4015057 19 18409452522025246089
4073 2 18114465668327219138
4098825 35 18410572864982878765
439807 62 18129377276101180103
46194498 28 17895192250944361468
5104073 3 16845855702050868570
5283173 99 17968370152551802269
531348 171 18335978654443087103

> <PUBCHEM_SHAPE_MULTIPOLES>
514.56
16.33
2.06
1.58
0.34
0.37
-0.83
4.66
3.99
3.69
0.42
-2.81
-0.21
-0.02

> <PUBCHEM_SHAPE_SELFOVERLAP>
1141.665

> <PUBCHEM_SHAPE_VOLUME>
273.5

> <PUBCHEM_COORDINATE_TYPE>
2
5
10

$$$$
