129320410
  -OEChem-03292013293D

 39 38  0     1  0  0  0  0  0999 V2000
    1.4951    3.6227   -0.4276 S   0  0  1  0  0  0  0  0  0  0  0  0
   -0.5215   -0.5881   -1.5673 O   0  0  0  0  0  0  0  0  0  0  0  0
    1.4982   -0.7675    1.8538 O   0  0  0  0  0  0  0  0  0  0  0  0
   -6.1577   -0.8133    1.1647 O   0  5  0  0  0  0  0  0  0  0  0  0
   -4.3980   -2.2599    1.0458 O   0  0  0  0  0  0  0  0  0  0  0  0
    0.0137    3.7632   -0.5806 O   0  0  0  0  0  0  0  0  0  0  0  0
    4.6952   -2.3761   -1.5699 O   0  5  0  0  0  0  0  0  0  0  0  0
    6.1555   -2.0829    0.1660 O   0  0  0  0  0  0  0  0  0  0  0  0
   -0.1421    0.7647    0.2840 N   0  0  0  0  0  0  0  0  0  0  0  0
   -5.2561    0.6467   -0.9788 N   0  3  0  0  0  0  0  0  0  0  0  0
    3.0649   -0.7172    0.1402 N   0  0  0  0  0  0  0  0  0  0  0  0
    2.1812    4.7299    0.6055 N   0  0  0  0  0  0  0  0  0  0  0  0
   -3.2768   -0.7822   -1.1031 C   0  0  0  0  0  0  0  0  0  0  0  0
    1.2862    0.9170    0.1237 C   0  0  1  0  0  0  0  0  0  0  0  0
   -4.7709   -0.7516   -0.7560 C   0  0  1  0  0  0  0  0  0  0  0  0
   -2.3900    0.0352   -0.1593 C   0  0  0  0  0  0  0  0  0  0  0  0
   -0.9300    0.0196   -0.5816 C   0  0  0  0  0  0  0  0  0  0  0  0
    1.7944    2.2304    0.7088 C   0  0  0  0  0  0  0  0  0  0  0  0
    1.9467   -0.2637    0.8261 C   0  0  0  0  0  0  0  0  0  0  0  0
   -5.1486   -1.3403    0.6144 C   0  0  0  0  0  0  0  0  0  0  0  0
    3.8463   -1.8566    0.5637 C   0  0  0  0  0  0  0  0  0  0  0  0
    5.0141   -2.1298   -0.3726 C   0  0  0  0  0  0  0  0  0  0  0  0
   -2.9279   -1.8233   -1.1025 H   0  0  0  0  0  0  0  0  0  0  0  0
   -3.1369   -0.4260   -2.1327 H   0  0  0  0  0  0  0  0  0  0  0  0
    1.5104    0.8584   -0.9490 H   0  0  0  0  0  0  0  0  0  0  0  0
   -5.3064   -1.3507   -1.5028 H   0  0  0  0  0  0  0  0  0  0  0  0
   -2.7108    1.0826   -0.1390 H   0  0  0  0  0  0  0  0  0  0  0  0
   -2.4521   -0.3561    0.8621 H   0  0  0  0  0  0  0  0  0  0  0  0
   -0.5746    1.1733    1.1078 H   0  0  0  0  0  0  0  0  0  0  0  0
    1.3160    2.4475    1.6713 H   0  0  0  0  0  0  0  0  0  0  0  0
    2.8773    2.1758    0.8721 H   0  0  0  0  0  0  0  0  0  0  0  0
   -6.2820    0.6915   -0.9155 H   0  0  0  0  0  0  0  0  0  0  0  0
   -4.9943    1.0004   -1.9088 H   0  0  0  0  0  0  0  0  0  0  0  0
   -4.8832    1.2997   -0.2774 H   0  0  0  0  0  0  0  0  0  0  0  0
    3.3597   -0.2272   -0.6995 H   0  0  0  0  0  0  0  0  0  0  0  0
    3.1871   -2.7312    0.5950 H   0  0  0  0  0  0  0  0  0  0  0  0
    4.1927   -1.6671    1.5857 H   0  0  0  0  0  0  0  0  0  0  0  0
    1.9710    5.7129    0.4417 H   0  0  0  0  0  0  0  0  0  0  0  0
    3.1862    4.6686    0.7612 H   0  0  0  0  0  0  0  0  0  0  0  0
  1  6  2  0  0  0  0
  1 12  1  0  0  0  0
  1 18  1  0  0  0  0
  2 17  2  0  0  0  0
  3 19  2  0  0  0  0
  4 20  1  0  0  0  0
  5 20  2  0  0  0  0
  7 22  1  0  0  0  0
  8 22  2  0  0  0  0
  9 14  1  0  0  0  0
  9 17  1  0  0  0  0
  9 29  1  0  0  0  0
 10 15  1  0  0  0  0
 10 32  1  0  0  0  0
 10 33  1  0  0  0  0
 10 34  1  0  0  0  0
 11 19  1  0  0  0  0
 11 21  1  0  0  0  0
 11 35  1  0  0  0  0
 12 38  1  0  0  0  0
 12 39  1  0  0  0  0
 13 15  1  0  0  0  0
 13 16  1  0  0  0  0
 13 23  1  0  0  0  0
 13 24  1  0  0  0  0
 14 18  1  0  0  0  0
 14 19  1  0  0  0  0
 14 25  1  0  0  0  0
 15 20  1  0  0  0  0
 15 26  1  0  0  0  0
 16 17  1  0  0  0  0
 16 27  1  0  0  0  0
 16 28  1  0  0  0  0
 18 30  1  0  0  0  0
 18 31  1  0  0  0  0
 21 22  1  0  0  0  0
 21 36  1  0  0  0  0
 21 37  1  0  0  0  0
M  CHG  3   4  -1   7  -1  10   1
M  END
> <PUBCHEM_COMPOUND_CID>
129320410

> <PUBCHEM_CONFORMER_RMSD>
1.2

> <PUBCHEM_CONFORMER_DIVERSEORDER>
1
39
108
105
77
110
8
68
23
11
4
58
83
44
72
17
94
109
45
50
95
19
33
90
3
79
7
89
16
97
35
53
37
92
96
41
101
73
26
69
65
42
63
6
25
107
78
81
34
82
13
100
74
60
27
46
102
57
93
54
30
20
64
24
88
10
31
67
85
80
47
52
61
55
70
51
14
15
36
66
71
2
56
86
76
62
99
106
104
59
5
32
87
28
43
91
38
84
98
75
103
9
12
29
48
21
18
49
40
22

> <PUBCHEM_MMFF94_PARTIAL_CHARGES>
28
1 0.37
10 -0.85
11 -0.73
12 -0.78
14 0.36
15 0.4
16 0.06
17 0.57
18 0.19
19 0.57
2 -0.57
20 0.91
21 0.19
22 0.91
29 0.37
3 -0.57
32 0.45
33 0.45
34 0.45
35 0.37
38 0.36
39 0.36
4 -0.9
5 -0.9
6 -0.5
7 -0.9
8 -0.9
9 -0.73

> <PUBCHEM_EFFECTIVE_ROTOR_COUNT>
12

> <PUBCHEM_PHARMACOPHORE_FEATURES>
13
1 10 cation
1 10 donor
1 11 donor
1 12 donor
1 2 acceptor
1 3 acceptor
1 4 acceptor
1 5 acceptor
1 7 acceptor
1 8 acceptor
1 9 donor
3 4 5 20 anion
3 7 8 22 anion

> <PUBCHEM_HEAVY_ATOM_COUNT>
22

> <PUBCHEM_ATOM_DEF_STEREO_COUNT>
2

> <PUBCHEM_ATOM_UDEF_STEREO_COUNT>
1

> <PUBCHEM_BOND_DEF_STEREO_COUNT>
0

> <PUBCHEM_BOND_UDEF_STEREO_COUNT>
0

> <PUBCHEM_ISOTOPIC_ATOM_COUNT>
0

> <PUBCHEM_COMPONENT_COUNT>
1

> <PUBCHEM_CACTVS_TAUTO_COUNT>
4

> <PUBCHEM_CONFORMER_ID>
07B545DA00000001

> <PUBCHEM_MMFF94_ENERGY>
32.5963

> <PUBCHEM_FEATURE_SELFOVERLAP>
66.084

> <PUBCHEM_SHAPE_FINGERPRINT>
11809386 21 17905607697446916838
12107183 9 18342185419394154267
12596602 18 14548725206070628030
12788726 201 17900534584432598728
12841375 25 18340480085053833774
13009979 54 18059868224459779849
13673619 4 18040438785040393383
13955234 65 18267866270975888664
14251757 5 18044648698867149781
14251764 30 18335703810432274786
15806764 133 18260813900474367613
15842332 3 17486477476488263279
17492 89 18267017444184488351
1813 80 18200883889699643806
20693207 138 17894624894386090319
21049683 271 18262245516480497332
212916 134 8790588292059584350
22849341 161 18342466928071466697
23559900 14 18336537296470308033
23566358 27 18193554690758983911
3421961 26 18411134774979188672
621550 5 18040994020720959157
8863177 126 18115033021139486531
9841814 1 18188188975558139736

> <PUBCHEM_SHAPE_MULTIPOLES>
395.59
12.81
4.34
1.27
8.75
6.67
0.01
-13.01
-0.27
-6.35
0.03
0.31
-0.45
1.51

> <PUBCHEM_SHAPE_SELFOVERLAP>
761.83

> <PUBCHEM_SHAPE_VOLUME>
239.6

> <PUBCHEM_COORDINATE_TYPE>
2
5
10

$$$$
