129317578
  -OEChem-03292013293D

 55 58  0     1  0  0  0  0  0999 V2000
    2.7584    0.0597   -0.8693 O   0  0  0  0  0  0  0  0  0  0  0  0
    1.2805    2.1380    0.5205 O   0  0  0  0  0  0  0  0  0  0  0  0
   -0.0113    1.0419   -1.0879 O   0  0  0  0  0  0  0  0  0  0  0  0
    2.7305    1.4770   -1.2188 O   0  0  0  0  0  0  0  0  0  0  0  0
   -1.7741   -0.4691   -0.6465 O   0  0  0  0  0  0  0  0  0  0  0  0
   -3.0639    1.2162   -1.5492 O   0  0  0  0  0  0  0  0  0  0  0  0
   -7.4816    0.5933    1.0140 O   0  0  0  0  0  0  0  0  0  0  0  0
   -6.0445   -0.9407    1.8764 O   0  0  0  0  0  0  0  0  0  0  0  0
    1.7269   -0.2433    0.0921 C   0  0  2  0  0  0  0  0  0  0  0  0
    2.4423   -0.4758    1.4557 C   0  0  1  0  0  0  0  0  0  0  0  0
    1.0244   -1.5523   -0.3636 C   0  0  2  0  0  0  0  0  0  0  0  0
    3.4088   -1.6999    1.4543 C   0  0  1  0  0  0  0  0  0  0  0  0
    0.6750    0.8901    0.1613 C   0  0  1  0  0  0  0  0  0  0  0  0
    2.0195   -2.7215   -0.4400 C   0  0  0  0  0  0  0  0  0  0  0  0
    0.2665   -1.3102   -1.6929 C   0  0  2  0  0  0  0  0  0  0  0  0
    3.1102    0.7834    2.0482 C   0  0  0  0  0  0  0  0  0  0  0  0
    2.7025   -2.9493    0.9068 C   0  0  0  0  0  0  0  0  0  0  0  0
    2.6023    2.2375   -0.0138 C   0  0  2  0  0  0  0  0  0  0  0  0
    3.6378    1.8190    1.0476 C   0  0  0  0  0  0  0  0  0  0  0  0
   -0.7041   -0.1257   -1.5232 C   0  0  2  0  0  0  0  0  0  0  0  0
    4.7567   -1.4942    0.7538 C   0  0  0  0  0  0  0  0  0  0  0  0
   -0.4844   -2.5513   -2.1848 C   0  0  0  0  0  0  0  0  0  0  0  0
    2.8190    3.6965   -0.4113 C   0  0  0  0  0  0  0  0  0  0  0  0
   -2.9075    0.2900   -0.7659 C   0  0  0  0  0  0  0  0  0  0  0  0
   -3.9364   -0.2011    0.2297 C   0  0  0  0  0  0  0  0  0  0  0  0
   -5.2715    0.5251    0.1178 C   0  0  0  0  0  0  0  0  0  0  0  0
   -6.2818   -0.0337    1.0891 C   0  0  0  0  0  0  0  0  0  0  0  0
    1.6519   -0.7472    2.1737 H   0  0  0  0  0  0  0  0  0  0  0  0
    0.2776   -1.8176    0.3999 H   0  0  0  0  0  0  0  0  0  0  0  0
    3.6523   -1.9140    2.5051 H   0  0  0  0  0  0  0  0  0  0  0  0
   -0.0712    0.6791    0.9361 H   0  0  0  0  0  0  0  0  0  0  0  0
    2.7667   -2.5447   -1.2221 H   0  0  0  0  0  0  0  0  0  0  0  0
    1.4994   -3.6478   -0.7071 H   0  0  0  0  0  0  0  0  0  0  0  0
    1.0021   -1.0343   -2.4606 H   0  0  0  0  0  0  0  0  0  0  0  0
    3.9132    0.5061    2.7420 H   0  0  0  0  0  0  0  0  0  0  0  0
    2.3645    1.2875    2.6795 H   0  0  0  0  0  0  0  0  0  0  0  0
    1.9427   -3.2677    1.6329 H   0  0  0  0  0  0  0  0  0  0  0  0
    3.4101   -3.7829    0.8227 H   0  0  0  0  0  0  0  0  0  0  0  0
    3.9305    2.6940    1.6427 H   0  0  0  0  0  0  0  0  0  0  0  0
    4.5511    1.4569    0.5626 H   0  0  0  0  0  0  0  0  0  0  0  0
   -1.1119    0.1028   -2.5165 H   0  0  0  0  0  0  0  0  0  0  0  0
    4.6578   -1.3173   -0.3192 H   0  0  0  0  0  0  0  0  0  0  0  0
    5.3818   -2.3868    0.8736 H   0  0  0  0  0  0  0  0  0  0  0  0
    5.3143   -0.6621    1.1915 H   0  0  0  0  0  0  0  0  0  0  0  0
   -1.1259   -2.9709   -1.4029 H   0  0  0  0  0  0  0  0  0  0  0  0
    0.2109   -3.3311   -2.5100 H   0  0  0  0  0  0  0  0  0  0  0  0
   -1.1152   -2.3068   -3.0464 H   0  0  0  0  0  0  0  0  0  0  0  0
    2.0930    3.9958   -1.1766 H   0  0  0  0  0  0  0  0  0  0  0  0
    3.8174    3.8496   -0.8349 H   0  0  0  0  0  0  0  0  0  0  0  0
    2.6816    4.3700    0.4415 H   0  0  0  0  0  0  0  0  0  0  0  0
   -4.0853   -1.2737    0.0562 H   0  0  0  0  0  0  0  0  0  0  0  0
   -3.5232   -0.0676    1.2365 H   0  0  0  0  0  0  0  0  0  0  0  0
   -5.6729    0.4182   -0.8962 H   0  0  0  0  0  0  0  0  0  0  0  0
   -5.1371    1.5913    0.3308 H   0  0  0  0  0  0  0  0  0  0  0  0
   -8.1265    0.2284    1.6568 H   0  0  0  0  0  0  0  0  0  0  0  0
  1  4  1  0  0  0  0
  1  9  1  0  0  0  0
  2 13  1  0  0  0  0
  2 18  1  0  0  0  0
  3 13  1  0  0  0  0
  3 20  1  0  0  0  0
  4 18  1  0  0  0  0
  5 20  1  0  0  0  0
  5 24  1  0  0  0  0
  6 24  2  0  0  0  0
  7 27  1  0  0  0  0
  7 55  1  0  0  0  0
  8 27  2  0  0  0  0
  9 10  1  0  0  0  0
  9 11  1  0  0  0  0
  9 13  1  0  0  0  0
 10 12  1  0  0  0  0
 10 16  1  0  0  0  0
 10 28  1  0  0  0  0
 11 14  1  0  0  0  0
 11 15  1  0  0  0  0
 11 29  1  0  0  0  0
 12 17  1  0  0  0  0
 12 21  1  0  0  0  0
 12 30  1  0  0  0  0
 13 31  1  0  0  0  0
 14 17  1  0  0  0  0
 14 32  1  0  0  0  0
 14 33  1  0  0  0  0
 15 20  1  0  0  0  0
 15 22  1  0  0  0  0
 15 34  1  0  0  0  0
 16 19  1  0  0  0  0
 16 35  1  0  0  0  0
 16 36  1  0  0  0  0
 17 37  1  0  0  0  0
 17 38  1  0  0  0  0
 18 19  1  0  0  0  0
 18 23  1  0  0  0  0
 19 39  1  0  0  0  0
 19 40  1  0  0  0  0
 20 41  1  0  0  0  0
 21 42  1  0  0  0  0
 21 43  1  0  0  0  0
 21 44  1  0  0  0  0
 22 45  1  0  0  0  0
 22 46  1  0  0  0  0
 22 47  1  0  0  0  0
 23 48  1  0  0  0  0
 23 49  1  0  0  0  0
 23 50  1  0  0  0  0
 24 25  1  0  0  0  0
 25 26  1  0  0  0  0
 25 51  1  0  0  0  0
 25 52  1  0  0  0  0
 26 27  1  0  0  0  0
 26 53  1  0  0  0  0
 26 54  1  0  0  0  0
M  END
> <PUBCHEM_COMPOUND_CID>
129317578

> <PUBCHEM_CONFORMER_RMSD>
0.8

> <PUBCHEM_CONFORMER_DIVERSEORDER>
1
155
175
196
150
122
74
19
55
138
83
181
188
66
47
87
182
170
144
195
180
26
145
157
194
123
29
35
191
80
186
119
146
140
40
89
152
84
64
68
104
160
54
184
162
57
11
147
161
178
85
111
34
153
176
7
32
163
133
82
52
56
179
27
65
142
88
95
132
114
43
112
49
128
48
183
91
143
141
9
14
21
168
167
137
117
193
159
156
124
78
94
151
22
62
174
24
126
96
149
127
2
36
99
46
60
51
158
44
136
100
20
185
16
23
109
121
41
93
113
37
86
10
190
38
39
129
164
172
92
135
58
130
30
45
31
125
81
192
154
73
69
33
3
118
107
131
139
166
79
42
105
108
90
171
106
53
134
177
165
72
71
13
75
197
116
115
25
173
59
70
187
76
67
97
77
169
102
101
15
18
98
110
61
12
63
103
189
28
4
148
17
120
6
5
50
8

> <PUBCHEM_MMFF94_PARTIAL_CHARGES>
17
1 -0.28
13 0.56
18 0.56
2 -0.56
20 0.56
24 0.66
25 0.06
26 0.06
27 0.66
3 -0.56
4 -0.28
5 -0.43
55 0.5
6 -0.57
7 -0.65
8 -0.57
9 0.28

> <PUBCHEM_EFFECTIVE_ROTOR_COUNT>
7.2

> <PUBCHEM_PHARMACOPHORE_FEATURES>
9
1 2 acceptor
1 3 acceptor
1 6 acceptor
1 7 acceptor
1 8 acceptor
3 7 8 27 anion
6 3 9 11 13 15 20 rings
6 9 10 11 12 14 17 rings
9 1 2 4 9 10 13 16 18 19 rings

> <PUBCHEM_HEAVY_ATOM_COUNT>
27

> <PUBCHEM_ATOM_DEF_STEREO_COUNT>
5

> <PUBCHEM_ATOM_UDEF_STEREO_COUNT>
3

> <PUBCHEM_BOND_DEF_STEREO_COUNT>
0

> <PUBCHEM_BOND_UDEF_STEREO_COUNT>
0

> <PUBCHEM_ISOTOPIC_ATOM_COUNT>
0

> <PUBCHEM_COMPONENT_COUNT>
1

> <PUBCHEM_CACTVS_TAUTO_COUNT>
1

> <PUBCHEM_CONFORMER_ID>
07B53ACA00000001

> <PUBCHEM_MMFF94_ENERGY>
83.234

> <PUBCHEM_FEATURE_SELFOVERLAP>
45.829

> <PUBCHEM_SHAPE_FINGERPRINT>
10674148 151 17775571970850279000
11545043 162 17386283182680563741
11796584 16 16662601057001176707
12035758 1 18263341673923269530
12553582 1 18122875704747402494
12633257 1 18411698786185417811
12644460 14 18410012143315448972
12661589 4 15503810557679260889
13140716 1 18270100431670157646
13533116 47 18261117348935982211
13540713 5 18056180595815058902
13583140 156 18042387068131643847
13965767 371 17916849305574829672
14068700 675 8429502076254450228
14341114 176 18408601440043231601
14955137 171 18341048537061204526
15183329 4 12540691514911050983
15210252 30 15410896300981553835
15238133 3 17346601859373197595
15475509 35 17313097510570456139
16945 1 17769051763422544278
18785283 64 18333731346880376276
19377110 9 17917423281458535711
20465049 17 18339096972456483812
20691752 17 18115845534641463390
20739085 24 18057326085120355686
21033648 29 17628601238204828424
21421861 104 18412824676927150560
23558518 356 17406540884867849125
23559900 14 17386002828500368047
25147074 1 18058995307180596095
2748010 2 17622413097212911478
3178227 256 18410294701119907626
3380486 145 17760599843166826204
3411729 13 18338242660005396253
3472631 163 14764045879746912107
38570 142 18194416699765715548
4340502 62 17531248400286647744
44802255 64 12316603511591691066
465052 167 18334016060019919267
5104073 3 18341610464822998283
513532 50 13254799018754745193
7495541 125 18113338578735280855
960060 61 10665231445367972555
9999458 23 18337398226817444668

> <PUBCHEM_SHAPE_MULTIPOLES>
508.69
11.61
3.16
1.84
28.78
0.54
0.02
1.3
-7.82
-4.62
0.6
0.38
-0.53
-0.52

> <PUBCHEM_SHAPE_SELFOVERLAP>
1076.415

> <PUBCHEM_SHAPE_VOLUME>
275.2

> <PUBCHEM_COORDINATE_TYPE>
2
5
10

$$$$
