129343
  -OEChem-03292013323D

 46 47  0     1  0  0  0  0  0999 V2000
    1.4721    1.0219   -0.1014 O   0  0  0  0  0  0  0  0  0  0  0  0
    0.9390   -2.3129    1.3129 O   0  0  0  0  0  0  0  0  0  0  0  0
    3.3058   -2.6614   -0.3464 O   0  0  0  0  0  0  0  0  0  0  0  0
    4.9024   -0.2668   -0.3944 O   0  0  0  0  0  0  0  0  0  0  0  0
   -0.5007   -0.2164   -1.6150 O   0  0  0  0  0  0  0  0  0  0  0  0
    2.7545    3.4272   -0.3955 O   0  0  0  0  0  0  0  0  0  0  0  0
   -4.4694    1.0127    0.4301 O   0  0  0  0  0  0  0  0  0  0  0  0
   -0.6197    0.8698    2.9005 O   0  0  0  0  0  0  0  0  0  0  0  0
   -0.5121    0.1374    0.6860 N   0  0  0  0  0  0  0  0  0  0  0  0
   -2.5393    0.8657    1.6610 N   0  0  0  0  0  0  0  0  0  0  0  0
    0.9237    0.0275    0.7588 C   0  0  1  0  0  0  0  0  0  0  0  0
    1.3909   -1.3672    0.3452 C   0  0  1  0  0  0  0  0  0  0  0  0
    2.9173   -1.4291    0.2642 C   0  0  2  0  0  0  0  0  0  0  0  0
    3.4853   -0.2609   -0.5436 C   0  0  1  0  0  0  0  0  0  0  0  0
   -2.6372   -0.2766   -0.4928 C   0  0  0  0  0  0  0  0  0  0  0  0
    2.9006    1.0677   -0.0507 C   0  0  1  0  0  0  0  0  0  0  0  0
   -1.1213   -0.0994   -0.5568 C   0  0  0  0  0  0  0  0  0  0  0  0
   -3.2521   -0.0093   -1.8757 C   0  0  0  0  0  0  0  0  0  0  0  0
   -2.9117   -1.7383   -0.0951 C   0  0  0  0  0  0  0  0  0  0  0  0
   -3.3122    0.6104    0.5403 C   0  0  0  0  0  0  0  0  0  0  0  0
    3.3447    2.2473   -0.9098 C   0  0  0  0  0  0  0  0  0  0  0  0
   -1.1782    0.6205    1.8290 C   0  0  0  0  0  0  0  0  0  0  0  0
   -3.0375    1.4276   -2.2942 C   0  0  0  0  0  0  0  0  0  0  0  0
   -2.2450   -2.6974   -1.0567 C   0  0  0  0  0  0  0  0  0  0  0  0
    1.2631    0.2297    1.7817 H   0  0  0  0  0  0  0  0  0  0  0  0
    1.0016   -1.6934   -0.6225 H   0  0  0  0  0  0  0  0  0  0  0  0
    3.3520   -1.4415    1.2718 H   0  0  0  0  0  0  0  0  0  0  0  0
    3.2644   -0.4118   -1.6071 H   0  0  0  0  0  0  0  0  0  0  0  0
    3.2060    1.2704    0.9849 H   0  0  0  0  0  0  0  0  0  0  0  0
   -4.3281   -0.2244   -1.8739 H   0  0  0  0  0  0  0  0  0  0  0  0
   -2.8083   -0.6354   -2.6565 H   0  0  0  0  0  0  0  0  0  0  0  0
   -3.9916   -1.9336   -0.0723 H   0  0  0  0  0  0  0  0  0  0  0  0
   -2.5439   -1.9444    0.9182 H   0  0  0  0  0  0  0  0  0  0  0  0
    3.0153    2.1334   -1.9479 H   0  0  0  0  0  0  0  0  0  0  0  0
    4.4316    2.3691   -0.8959 H   0  0  0  0  0  0  0  0  0  0  0  0
   -3.0055    1.3382    2.4306 H   0  0  0  0  0  0  0  0  0  0  0  0
   -0.0314   -2.2567    1.3433 H   0  0  0  0  0  0  0  0  0  0  0  0
    2.9130   -3.3812    0.1766 H   0  0  0  0  0  0  0  0  0  0  0  0
    5.1070   -0.0959    0.5409 H   0  0  0  0  0  0  0  0  0  0  0  0
   -3.4658    1.5825   -3.2911 H   0  0  0  0  0  0  0  0  0  0  0  0
   -1.9806    1.7003   -2.3600 H   0  0  0  0  0  0  0  0  0  0  0  0
   -3.5291    2.1432   -1.6295 H   0  0  0  0  0  0  0  0  0  0  0  0
   -2.4573   -3.7225   -0.7291 H   0  0  0  0  0  0  0  0  0  0  0  0
   -1.1571   -2.6116   -1.0771 H   0  0  0  0  0  0  0  0  0  0  0  0
   -2.6301   -2.6262   -2.0764 H   0  0  0  0  0  0  0  0  0  0  0  0
    1.7899    3.3045   -0.4109 H   0  0  0  0  0  0  0  0  0  0  0  0
  1 11  1  0  0  0  0
  1 16  1  0  0  0  0
  2 12  1  0  0  0  0
  2 37  1  0  0  0  0
  3 13  1  0  0  0  0
  3 38  1  0  0  0  0
  4 14  1  0  0  0  0
  4 39  1  0  0  0  0
  5 17  2  0  0  0  0
  6 21  1  0  0  0  0
  6 46  1  0  0  0  0
  7 20  2  0  0  0  0
  8 22  2  0  0  0  0
  9 11  1  0  0  0  0
  9 17  1  0  0  0  0
  9 22  1  0  0  0  0
 10 20  1  0  0  0  0
 10 22  1  0  0  0  0
 10 36  1  0  0  0  0
 11 12  1  0  0  0  0
 11 25  1  0  0  0  0
 12 13  1  0  0  0  0
 12 26  1  0  0  0  0
 13 14  1  0  0  0  0
 13 27  1  0  0  0  0
 14 16  1  0  0  0  0
 14 28  1  0  0  0  0
 15 17  1  0  0  0  0
 15 18  1  0  0  0  0
 15 19  1  0  0  0  0
 15 20  1  0  0  0  0
 16 21  1  0  0  0  0
 16 29  1  0  0  0  0
 18 23  1  0  0  0  0
 18 30  1  0  0  0  0
 18 31  1  0  0  0  0
 19 24  1  0  0  0  0
 19 32  1  0  0  0  0
 19 33  1  0  0  0  0
 21 34  1  0  0  0  0
 21 35  1  0  0  0  0
 23 40  1  0  0  0  0
 23 41  1  0  0  0  0
 23 42  1  0  0  0  0
 24 43  1  0  0  0  0
 24 44  1  0  0  0  0
 24 45  1  0  0  0  0
M  END
> <PUBCHEM_COMPOUND_CID>
129343

> <PUBCHEM_CONFORMER_RMSD>
0.8

> <PUBCHEM_CONFORMER_DIVERSEORDER>
2
22
6
21
24
10
27
11
26
25
13
18
9
23
17
15
19
5
16
20
7
8
12
14
1
3
4

> <PUBCHEM_MMFF94_PARTIAL_CHARGES>
25
1 -0.56
10 -0.49
11 0.58
12 0.28
13 0.28
14 0.28
15 0.12
16 0.28
17 0.57
2 -0.68
20 0.57
21 0.28
22 0.69
3 -0.68
36 0.37
37 0.4
38 0.4
39 0.4
4 -0.68
46 0.4
5 -0.57
6 -0.68
7 -0.57
8 -0.57
9 -0.42

> <PUBCHEM_EFFECTIVE_ROTOR_COUNT>
5.8

> <PUBCHEM_PHARMACOPHORE_FEATURES>
17
1 1 acceptor
1 10 donor
1 2 acceptor
1 2 donor
1 23 hydrophobe
1 24 hydrophobe
1 3 acceptor
1 3 donor
1 4 acceptor
1 4 donor
1 5 acceptor
1 6 acceptor
1 6 donor
1 7 acceptor
1 8 acceptor
6 1 11 12 13 14 16 rings
6 9 10 15 17 20 22 rings

> <PUBCHEM_HEAVY_ATOM_COUNT>
24

> <PUBCHEM_ATOM_DEF_STEREO_COUNT>
5

> <PUBCHEM_ATOM_UDEF_STEREO_COUNT>
0

> <PUBCHEM_BOND_DEF_STEREO_COUNT>
0

> <PUBCHEM_BOND_UDEF_STEREO_COUNT>
0

> <PUBCHEM_ISOTOPIC_ATOM_COUNT>
0

> <PUBCHEM_COMPONENT_COUNT>
1

> <PUBCHEM_CACTVS_TAUTO_COUNT>
3

> <PUBCHEM_CONFORMER_ID>
0001F93F00000002

> <PUBCHEM_MMFF94_ENERGY>
66.6249

> <PUBCHEM_FEATURE_SELFOVERLAP>
86.297

> <PUBCHEM_SHAPE_FINGERPRINT>
10863032 1 18410857706691586679
11578080 2 17699253643830516016
11725454 13 16807826983738569508
12173636 292 18273213088969119501
12236239 1 18060142003076173896
12553582 1 18050006593518350478
12596599 1 18200331977864868774
12714826 92 15769229343691610643
12788726 201 17131280043029241939
13004483 165 16599519772782042874
13009979 54 17774727433464942258
13224815 77 18200867473960078954
13538477 17 18060421295988062650
13583140 156 18189071866325975529
14115302 16 18060136514002533171
14787075 74 17551510376329908926
16752209 62 17203608159982646655
16945 1 18265880381272281091
1813 80 17911252624297546118
18186145 218 18408601483130125924
19862831 5 18131913758213312885
19930381 70 17903918099660879029
20645476 183 18273219668858867699
21639500 275 18335706065621914376
23402539 116 16988838372128588188
23419403 2 15581193283861781675
23493267 7 17631468872167909679
23557571 272 16443359705632725547
23559900 14 15410621324844274732
23598288 3 17489321805695318513
474 4 18338803428695770792
6287921 2 17896048787323357660
77492 1 18059861636143009880
9981440 41 17410480405725100944

> <PUBCHEM_SHAPE_MULTIPOLES>
436.99
7.61
2.61
1.89
2.62
0.22
-0.57
-1.1
2.26
1.77
0.56
-1.7
-0.62
-0.62

> <PUBCHEM_SHAPE_SELFOVERLAP>
913.865

> <PUBCHEM_SHAPE_VOLUME>
243.4

> <PUBCHEM_COORDINATE_TYPE>
2
5
10

$$$$
