129317354
  -OEChem-03292013293D

 62 64  0     1  0  0  0  0  0999 V2000
    2.0289    2.3758    0.0043 O   0  0  0  0  0  0  0  0  0  0  0  0
   -1.3921    2.7897   -0.1433 O   0  0  0  0  0  0  0  0  0  0  0  0
    1.7166   -1.8769    0.3471 O   0  0  0  0  0  0  0  0  0  0  0  0
    3.0958   -0.2003   -0.4782 O   0  0  0  0  0  0  0  0  0  0  0  0
   -2.8951   -2.0181    0.0790 O   0  0  0  0  0  0  0  0  0  0  0  0
   -2.0803    4.0680    1.6536 O   0  0  0  0  0  0  0  0  0  0  0  0
    4.3741   -0.7554    1.3596 O   0  0  0  0  0  0  0  0  0  0  0  0
   -4.5304   -2.9634    1.4028 O   0  0  0  0  0  0  0  0  0  0  0  0
    0.7567    1.7672   -0.2550 C   0  0  1  0  0  0  0  0  0  0  0  0
    0.7410    0.2625   -0.4279 C   0  0  2  0  0  0  0  0  0  0  0  0
   -0.6189   -0.1314    0.2038 C   0  0  2  0  0  0  0  0  0  0  0  0
   -0.3512    2.2243    0.6447 C   0  0  2  0  0  0  0  0  0  0  0  0
    1.4231    2.6829   -1.2555 C   0  0  0  0  0  0  0  0  0  0  0  0
   -0.8385    0.9286    1.2990 C   0  0  0  0  0  0  0  0  0  0  0  0
    1.9054   -0.4593    0.2685 C   0  0  1  0  0  0  0  0  0  0  0  0
   -0.6469   -1.5411    0.7144 C   0  0  0  0  0  0  0  0  0  0  0  0
    0.4675   -2.2852    0.7182 C   0  0  0  0  0  0  0  0  0  0  0  0
   -1.9711   -2.0929    1.1489 C   0  0  0  0  0  0  0  0  0  0  0  0
   -2.1866    3.7034    0.4905 C   0  0  0  0  0  0  0  0  0  0  0  0
    4.2695   -0.3904    0.1966 C   0  0  0  0  0  0  0  0  0  0  0  0
   -3.2323    4.2105   -0.4559 C   0  0  0  0  0  0  0  0  0  0  0  0
    5.4267   -0.0390   -0.7140 C   0  0  0  0  0  0  0  0  0  0  0  0
   -4.1575   -2.4919    0.3372 C   0  0  0  0  0  0  0  0  0  0  0  0
    6.7246   -0.7786   -0.3541 C   0  0  0  0  0  0  0  0  0  0  0  0
   -5.0073   -2.3779   -0.9104 C   0  0  0  0  0  0  0  0  0  0  0  0
    7.8555   -0.3355   -1.2843 C   0  0  0  0  0  0  0  0  0  0  0  0
    6.5466   -2.2965   -0.4425 C   0  0  0  0  0  0  0  0  0  0  0  0
   -5.8221   -1.0764   -0.9692 C   0  0  0  0  0  0  0  0  0  0  0  0
   -6.6891   -1.0574   -2.2296 C   0  0  0  0  0  0  0  0  0  0  0  0
   -4.9125    0.1547   -0.9482 C   0  0  0  0  0  0  0  0  0  0  0  0
    0.7330    0.0027   -1.4946 H   0  0  0  0  0  0  0  0  0  0  0  0
   -1.3920   -0.0047   -0.5670 H   0  0  0  0  0  0  0  0  0  0  0  0
    0.0160    2.9333    1.3965 H   0  0  0  0  0  0  0  0  0  0  0  0
    1.8659    2.2478   -2.1421 H   0  0  0  0  0  0  0  0  0  0  0  0
    1.0288    3.6818   -1.3899 H   0  0  0  0  0  0  0  0  0  0  0  0
   -1.8884    0.9797    1.6055 H   0  0  0  0  0  0  0  0  0  0  0  0
   -0.2279    0.6997    2.1814 H   0  0  0  0  0  0  0  0  0  0  0  0
    2.0198   -0.0700    1.2904 H   0  0  0  0  0  0  0  0  0  0  0  0
    0.4884   -3.3292    1.0011 H   0  0  0  0  0  0  0  0  0  0  0  0
   -2.3445   -1.5128    2.0012 H   0  0  0  0  0  0  0  0  0  0  0  0
   -1.8721   -3.1381    1.4674 H   0  0  0  0  0  0  0  0  0  0  0  0
   -2.7544    4.7056   -1.3048 H   0  0  0  0  0  0  0  0  0  0  0  0
   -3.8670    4.9368    0.0598 H   0  0  0  0  0  0  0  0  0  0  0  0
   -3.8575    3.3810   -0.7956 H   0  0  0  0  0  0  0  0  0  0  0  0
    5.1468   -0.2849   -1.7461 H   0  0  0  0  0  0  0  0  0  0  0  0
    5.5750    1.0451   -0.6521 H   0  0  0  0  0  0  0  0  0  0  0  0
    7.0071   -0.5275    0.6760 H   0  0  0  0  0  0  0  0  0  0  0  0
   -5.6750   -3.2482   -0.9273 H   0  0  0  0  0  0  0  0  0  0  0  0
   -4.3613   -2.4806   -1.7916 H   0  0  0  0  0  0  0  0  0  0  0  0
    7.6300   -0.5755   -2.3290 H   0  0  0  0  0  0  0  0  0  0  0  0
    8.7951   -0.8311   -1.0179 H   0  0  0  0  0  0  0  0  0  0  0  0
    8.0163    0.7453   -1.2116 H   0  0  0  0  0  0  0  0  0  0  0  0
    5.8069   -2.6633    0.2749 H   0  0  0  0  0  0  0  0  0  0  0  0
    7.4904   -2.8081   -0.2242 H   0  0  0  0  0  0  0  0  0  0  0  0
    6.2250   -2.5998   -1.4449 H   0  0  0  0  0  0  0  0  0  0  0  0
   -6.4801   -1.0283   -0.0924 H   0  0  0  0  0  0  0  0  0  0  0  0
   -6.0750   -1.0894   -3.1361 H   0  0  0  0  0  0  0  0  0  0  0  0
   -4.1752    0.1205   -1.7576 H   0  0  0  0  0  0  0  0  0  0  0  0
   -5.5001    1.0716   -1.0670 H   0  0  0  0  0  0  0  0  0  0  0  0
   -4.3749    0.2392    0.0015 H   0  0  0  0  0  0  0  0  0  0  0  0
   -7.3660   -1.9180   -2.2477 H   0  0  0  0  0  0  0  0  0  0  0  0
   -7.3018   -0.1504   -2.2669 H   0  0  0  0  0  0  0  0  0  0  0  0
  1  9  1  0  0  0  0
  1 13  1  0  0  0  0
  2 12  1  0  0  0  0
  2 19  1  0  0  0  0
  3 15  1  0  0  0  0
  3 17  1  0  0  0  0
  4 15  1  0  0  0  0
  4 20  1  0  0  0  0
  5 18  1  0  0  0  0
  5 23  1  0  0  0  0
  6 19  2  0  0  0  0
  7 20  2  0  0  0  0
  8 23  2  0  0  0  0
  9 10  1  0  0  0  0
  9 12  1  0  0  0  0
  9 13  1  0  0  0  0
 10 11  1  0  0  0  0
 10 15  1  0  0  0  0
 10 31  1  0  0  0  0
 11 14  1  0  0  0  0
 11 16  1  0  0  0  0
 11 32  1  0  0  0  0
 12 14  1  0  0  0  0
 12 33  1  0  0  0  0
 13 34  1  0  0  0  0
 13 35  1  0  0  0  0
 14 36  1  0  0  0  0
 14 37  1  0  0  0  0
 15 38  1  0  0  0  0
 16 17  2  0  0  0  0
 16 18  1  0  0  0  0
 17 39  1  0  0  0  0
 18 40  1  0  0  0  0
 18 41  1  0  0  0  0
 19 21  1  0  0  0  0
 20 22  1  0  0  0  0
 21 42  1  0  0  0  0
 21 43  1  0  0  0  0
 21 44  1  0  0  0  0
 22 24  1  0  0  0  0
 22 45  1  0  0  0  0
 22 46  1  0  0  0  0
 23 25  1  0  0  0  0
 24 26  1  0  0  0  0
 24 27  1  0  0  0  0
 24 47  1  0  0  0  0
 25 28  1  0  0  0  0
 25 48  1  0  0  0  0
 25 49  1  0  0  0  0
 26 50  1  0  0  0  0
 26 51  1  0  0  0  0
 26 52  1  0  0  0  0
 27 53  1  0  0  0  0
 27 54  1  0  0  0  0
 27 55  1  0  0  0  0
 28 29  1  0  0  0  0
 28 30  1  0  0  0  0
 28 56  1  0  0  0  0
 29 57  1  0  0  0  0
 29 61  1  0  0  0  0
 29 62  1  0  0  0  0
 30 58  1  0  0  0  0
 30 59  1  0  0  0  0
 30 60  1  0  0  0  0
M  END
> <PUBCHEM_COMPOUND_CID>
129317354

> <PUBCHEM_CONFORMER_RMSD>
1

> <PUBCHEM_CONFORMER_DIVERSEORDER>
1
104
28
10
59
60
83
16
99
58
37
101
77
80
35
116
71
21
36
48
19
92
65
74
17
93
43
119
26
69
117
106
29
107
56
15
30
67
7
82
91
52
49
23
45
95
120
76
51
96
62
24
100
14
111
64
63
98
9
54
114
73
118
57
44
55
40
84
78
39
18
31
86
34
112
72
81
102
4
105
38
27
85
13
109
20
108
47
42
5
68
3
115
66
50
79
11
113
90
46
25
88
22
89
2
33
12
110
53
103
6
41
97
32
94
8
87
75
61
70

> <PUBCHEM_MMFF94_PARTIAL_CHARGES>
26
1 -0.3
10 0.09
11 0.14
12 0.38
13 -0.05
15 0.56
16 -0.28
17 -0.07
18 0.42
19 0.66
2 -0.43
20 0.66
21 0.06
22 0.06
23 0.66
25 0.06
3 -0.36
34 0.1
35 0.1
39 0.15
4 -0.43
5 -0.43
6 -0.57
7 -0.57
8 -0.57
9 -0.04

> <PUBCHEM_EFFECTIVE_ROTOR_COUNT>
12.2

> <PUBCHEM_PHARMACOPHORE_FEATURES>
9
1 1 acceptor
1 3 acceptor
1 6 acceptor
1 7 acceptor
1 8 acceptor
3 24 26 27 hydrophobe
3 28 29 30 hydrophobe
5 9 10 11 12 14 rings
6 3 10 11 15 16 17 rings

> <PUBCHEM_HEAVY_ATOM_COUNT>
30

> <PUBCHEM_ATOM_DEF_STEREO_COUNT>
4

> <PUBCHEM_ATOM_UDEF_STEREO_COUNT>
1

> <PUBCHEM_BOND_DEF_STEREO_COUNT>
0

> <PUBCHEM_BOND_UDEF_STEREO_COUNT>
0

> <PUBCHEM_ISOTOPIC_ATOM_COUNT>
0

> <PUBCHEM_COMPONENT_COUNT>
1

> <PUBCHEM_CACTVS_TAUTO_COUNT>
1

> <PUBCHEM_CONFORMER_ID>
07B539EA00000001

> <PUBCHEM_MMFF94_ENERGY>
50.0865

> <PUBCHEM_FEATURE_SELFOVERLAP>
45.787

> <PUBCHEM_SHAPE_FINGERPRINT>
10411042 1 18265905824416099146
12539745 222 16081673148310664121
12645989 146 18270395139768512919
12788726 201 18408316674995394283
12954195 1 18341052917410479122
13140716 1 18265349450226186049
13631057 29 18342168930456029013
13757389 114 18121516660962370796
13782708 43 17703795778373736846
14068700 675 18412821404236040940
14279260 333 18338228272065655311
14508225 48 18410013272908126900
14790565 3 17545329575453457888
14931854 50 18261938675600756831
15183329 4 17821439170957946590
15420108 30 17833270822458739153
15927050 60 17978796705411686162
16087824 20 18338801097167196329
16992727 255 18041273258542026109
16993089 31 16056056658046010404
18365409 1 18268431222917437125
20642791 13 18411986823776925398
20775438 99 16904080568930415743
21236236 1 18338803312509828256
21279426 13 18188484791314788543
21792961 116 18186522120321071435
221357 26 18264760129975491687
23536364 44 18335974307783053853
23559900 14 18263922309654969386
23929065 36 18269258119652932936
244849 19 17416661619329842960
283562 15 18408890628913601122
3004659 81 18113614633953997878
3009799 131 18261670463050727222
46939830 39 17385724720382652269
5171179 24 18130498734046273440
57527452 28 16630526271742727135
5969126 39 18343584044717298622
7226269 152 18333452049468142931

> <PUBCHEM_SHAPE_MULTIPOLES>
570.43
15.78
4.69
1.38
16.46
5.02
-0.16
-11.74
-8.83
-6.15
1.04
-1.26
-0.1
-0.6

> <PUBCHEM_SHAPE_SELFOVERLAP>
1171.954

> <PUBCHEM_SHAPE_VOLUME>
327.5

> <PUBCHEM_COORDINATE_TYPE>
2
5
10

$$$$
