129350
  -OEChem-03292013323D

 34 37  0     1  0  0  0  0  0999 V2000
   -2.5036   -0.1862    0.8924 O   0  0  0  0  0  0  0  0  0  0  0  0
   -3.3885    2.5671   -0.1879 O   0  0  0  0  0  0  0  0  0  0  0  0
   -4.7076   -1.9024    0.7773 O   0  0  0  0  0  0  0  0  0  0  0  0
    3.6734   -2.6590   -0.2720 O   0  0  0  0  0  0  0  0  0  0  0  0
   -0.3099   -0.5128    0.0505 N   0  0  0  0  0  0  0  0  0  0  0  0
    1.7340    0.8909    0.1301 N   0  0  0  0  0  0  0  0  0  0  0  0
    0.7384   -2.4858   -0.1706 N   0  0  0  0  0  0  0  0  0  0  0  0
    3.7894   -0.3542   -0.0486 N   0  0  0  0  0  0  0  0  0  0  0  0
    3.6220    2.0683    0.1931 N   0  0  0  0  0  0  0  0  0  0  0  0
   -1.4192    0.4258    0.1728 C   0  0  1  0  0  0  0  0  0  0  0  0
   -1.9880    0.8997   -1.1569 C   0  0  0  0  0  0  0  0  0  0  0  0
   -3.4027    1.2655   -0.7700 C   0  0  1  0  0  0  0  0  0  0  0  0
   -3.7498    0.2326    0.2969 C   0  0  1  0  0  0  0  0  0  0  0  0
    1.0207   -0.2715    0.0365 C   0  0  0  0  0  0  0  0  0  0  0  0
   -4.4345   -0.9990   -0.2794 C   0  0  0  0  0  0  0  0  0  0  0  0
   -0.4327   -1.8781   -0.0786 C   0  0  0  0  0  0  0  0  0  0  0  0
    1.6575   -1.4737   -0.0984 C   0  0  0  0  0  0  0  0  0  0  0  0
    3.1154    0.8585    0.0885 C   0  0  0  0  0  0  0  0  0  0  0  0
    3.1047   -1.5779   -0.1490 C   0  0  0  0  0  0  0  0  0  0  0  0
    1.3496    2.1925    0.2684 C   0  0  0  0  0  0  0  0  0  0  0  0
    2.5315    2.8997    0.3050 C   0  0  0  0  0  0  0  0  0  0  0  0
   -1.1039    1.2512    0.8104 H   0  0  0  0  0  0  0  0  0  0  0  0
   -2.0008    0.0828   -1.8882 H   0  0  0  0  0  0  0  0  0  0  0  0
   -1.4071    1.7278   -1.5741 H   0  0  0  0  0  0  0  0  0  0  0  0
   -4.1019    1.2804   -1.6110 H   0  0  0  0  0  0  0  0  0  0  0  0
   -4.3589    0.6590    1.1021 H   0  0  0  0  0  0  0  0  0  0  0  0
   -5.3810   -0.7357   -0.7606 H   0  0  0  0  0  0  0  0  0  0  0  0
   -3.8017   -1.5178   -1.0065 H   0  0  0  0  0  0  0  0  0  0  0  0
   -1.3930   -2.3751   -0.1053 H   0  0  0  0  0  0  0  0  0  0  0  0
   -3.1144    3.1929   -0.8800 H   0  0  0  0  0  0  0  0  0  0  0  0
    0.3310    2.5410    0.3053 H   0  0  0  0  0  0  0  0  0  0  0  0
    4.8038   -0.3322   -0.0749 H   0  0  0  0  0  0  0  0  0  0  0  0
   -3.8598   -2.1265    1.1979 H   0  0  0  0  0  0  0  0  0  0  0  0
    2.6527    3.9691    0.3996 H   0  0  0  0  0  0  0  0  0  0  0  0
  1 10  1  0  0  0  0
  1 13  1  0  0  0  0
  2 12  1  0  0  0  0
  2 30  1  0  0  0  0
  3 15  1  0  0  0  0
  3 33  1  0  0  0  0
  4 19  2  0  0  0  0
  5 10  1  0  0  0  0
  5 14  1  0  0  0  0
  5 16  1  0  0  0  0
  6 14  1  0  0  0  0
  6 18  1  0  0  0  0
  6 20  1  0  0  0  0
  7 16  2  0  0  0  0
  7 17  1  0  0  0  0
  8 18  1  0  0  0  0
  8 19  1  0  0  0  0
  8 32  1  0  0  0  0
  9 18  2  0  0  0  0
  9 21  1  0  0  0  0
 10 11  1  0  0  0  0
 10 22  1  0  0  0  0
 11 12  1  0  0  0  0
 11 23  1  0  0  0  0
 11 24  1  0  0  0  0
 12 13  1  0  0  0  0
 12 25  1  0  0  0  0
 13 15  1  0  0  0  0
 13 26  1  0  0  0  0
 14 17  2  0  0  0  0
 15 27  1  0  0  0  0
 15 28  1  0  0  0  0
 16 29  1  0  0  0  0
 17 19  1  0  0  0  0
 20 21  2  0  0  0  0
 20 31  1  0  0  0  0
 21 34  1  0  0  0  0
M  END
> <PUBCHEM_COMPOUND_CID>
129350

> <PUBCHEM_CONFORMER_RMSD>
0.6

> <PUBCHEM_CONFORMER_DIVERSEORDER>
3
13
14
11
5
12
10
4
6
7
2
1
9
8

> <PUBCHEM_MMFF94_PARTIAL_CHARGES>
26
1 -0.56
10 0.54
12 0.28
13 0.28
14 -0.23
15 0.28
16 0.04
17 0.14
18 0.25
19 0.72
2 -0.68
20 -0.3
21 0.08
29 0.15
3 -0.68
30 0.4
31 0.15
32 0.37
33 0.4
34 0.15
4 -0.57
5 0.05
6 0.38
7 -0.57
8 -0.49
9 -0.57

> <PUBCHEM_EFFECTIVE_ROTOR_COUNT>
3

> <PUBCHEM_PHARMACOPHORE_FEATURES>
12
1 1 acceptor
1 2 acceptor
1 2 donor
1 3 acceptor
1 3 donor
1 4 acceptor
1 8 donor
3 5 7 16 cation
5 1 10 11 12 13 rings
5 5 7 14 16 17 rings
5 6 9 18 20 21 rings
6 6 8 14 17 18 19 rings

> <PUBCHEM_HEAVY_ATOM_COUNT>
21

> <PUBCHEM_ATOM_DEF_STEREO_COUNT>
2

> <PUBCHEM_ATOM_UDEF_STEREO_COUNT>
1

> <PUBCHEM_BOND_DEF_STEREO_COUNT>
0

> <PUBCHEM_BOND_UDEF_STEREO_COUNT>
0

> <PUBCHEM_ISOTOPIC_ATOM_COUNT>
0

> <PUBCHEM_COMPONENT_COUNT>
1

> <PUBCHEM_CACTVS_TAUTO_COUNT>
3

> <PUBCHEM_CONFORMER_ID>
0001F94600000003

> <PUBCHEM_MMFF94_ENERGY>
44.79

> <PUBCHEM_FEATURE_SELFOVERLAP>
61.13

> <PUBCHEM_SHAPE_FINGERPRINT>
10165383 225 18124042492099610840
10366900 7 18041288741413675011
10608611 8 18408038494437758757
10871710 139 16677262387311814988
10967382 1 18411699928430193768
1100329 8 16391265570400110552
11405975 8 18337953381563459489
11471102 20 18339356358084003356
11615757 297 18202006525236058451
12403259 226 18335699412316438431
12403259 415 18333731325447815821
12403260 363 18409438202662030035
12507557 5 18340763741356979282
12623949 98 18199490894467655967
12633257 1 18117834396245953649
12916754 54 18412266125563513755
13009979 54 17559407859489261890
13140716 1 18337946771218660600
13583140 156 17460006596336587723
14026960 21 18264210377617579769
14223421 5 18408604781728260707
15196674 1 18410573959386948116
15219456 202 18335419054273986621
16945 1 18413107264917315848
17492 89 18411980260856478567
18186145 218 18201727231854794636
18785283 64 18335419127694872412
19591789 44 18410292514480744607
19930381 70 18267300027030847681
200 152 18130779045803660367
20681677 76 18335415755855005015
21065198 57 18337673014651355093
21524375 3 18268993266062117338
21639500 275 18341602728979957132
221490 88 18410015420454980875
22854114 111 18412263960382966816
23402539 116 18055906602961690254
23557571 272 17748821939092777317
23559900 14 18337946801483683731
238 59 18049404198073203941
25 1 18410570695728878436
2748010 2 18196378241678723836
3286 77 18334858294458558951
335352 9 18122906425946545909
350125 39 18410296951228972830
49207404 50 18263649618060452531
5104073 3 18409729543437102777
6333272 397 18338233889660766921
7364860 26 18413389852074304302
81228 2 17116615091824049435
9709674 26 18335423486759552451

> <PUBCHEM_SHAPE_MULTIPOLES>
383.79
8.33
3.1
0.76
5.09
0.37
0.06
-0.38
-0.28
-1.93
-0.02
0.45
0.06
0.95

> <PUBCHEM_SHAPE_SELFOVERLAP>
854.724

> <PUBCHEM_SHAPE_VOLUME>
203.5

> <PUBCHEM_COORDINATE_TYPE>
2
5
10

$$$$
