129409
  -OEChem-03292013323D

 36 37  0     1  0  0  0  0  0999 V2000
    1.0965   -1.5576    0.4466 O   0  0  0  0  0  0  0  0  0  0  0  0
   -2.3286    1.2282   -1.2690 O   0  0  0  0  0  0  0  0  0  0  0  0
    3.9499   -0.9437   -1.4627 O   0  0  0  0  0  0  0  0  0  0  0  0
    2.4965    0.3324    0.5263 N   0  0  0  0  0  0  0  0  0  0  0  0
   -4.6045    0.6027   -0.1137 N   0  0  0  0  0  0  0  0  0  0  0  0
   -0.9982    0.3895    0.4499 N   0  0  0  0  0  0  0  0  0  0  0  0
    5.8735   -0.6300   -0.2433 N   0  0  0  0  0  0  0  0  0  0  0  0
    0.2814    0.6685   -0.1272 C   0  0  1  0  0  0  0  0  0  0  0  0
   -3.3949    0.2723    0.6395 C   0  0  1  0  0  0  0  0  0  0  0  0
    0.8829    1.9900    0.3412 C   0  0  0  0  0  0  0  0  0  0  0  0
   -3.4358   -1.2388    0.8407 C   0  0  0  0  0  0  0  0  0  0  0  0
    2.3775    1.7466    0.2547 C   0  0  0  0  0  0  0  0  0  0  0  0
   -4.6334   -1.7176    0.0287 C   0  0  0  0  0  0  0  0  0  0  0  0
   -4.9300   -0.5716   -0.9165 C   0  0  0  0  0  0  0  0  0  0  0  0
    1.2998   -0.3582    0.3309 C   0  0  0  0  0  0  0  0  0  0  0  0
   -2.2071    0.6931   -0.1701 C   0  0  0  0  0  0  0  0  0  0  0  0
    3.7690   -0.2714    0.8565 C   0  0  0  0  0  0  0  0  0  0  0  0
    4.5055   -0.6345   -0.4123 C   0  0  0  0  0  0  0  0  0  0  0  0
    0.2226    0.6336   -1.2214 H   0  0  0  0  0  0  0  0  0  0  0  0
   -3.3785    0.8094    1.5937 H   0  0  0  0  0  0  0  0  0  0  0  0
    0.5995    2.1947    1.3821 H   0  0  0  0  0  0  0  0  0  0  0  0
    0.5580    2.8430   -0.2622 H   0  0  0  0  0  0  0  0  0  0  0  0
   -3.5768   -1.4966    1.8963 H   0  0  0  0  0  0  0  0  0  0  0  0
   -2.5301   -1.7473    0.4917 H   0  0  0  0  0  0  0  0  0  0  0  0
    2.7669    1.9422   -0.7496 H   0  0  0  0  0  0  0  0  0  0  0  0
    2.9320    2.3329    0.9928 H   0  0  0  0  0  0  0  0  0  0  0  0
   -4.4260   -2.6518   -0.5020 H   0  0  0  0  0  0  0  0  0  0  0  0
   -5.4865   -1.8910    0.6963 H   0  0  0  0  0  0  0  0  0  0  0  0
   -4.2953   -0.6267   -1.8083 H   0  0  0  0  0  0  0  0  0  0  0  0
   -5.9759   -0.5642   -1.2359 H   0  0  0  0  0  0  0  0  0  0  0  0
   -4.4881    1.4330   -0.6909 H   0  0  0  0  0  0  0  0  0  0  0  0
   -1.0192   -0.0298    1.3756 H   0  0  0  0  0  0  0  0  0  0  0  0
    4.3446    0.4194    1.4798 H   0  0  0  0  0  0  0  0  0  0  0  0
    3.5927   -1.1977    1.4135 H   0  0  0  0  0  0  0  0  0  0  0  0
    6.4934   -0.8686   -1.0103 H   0  0  0  0  0  0  0  0  0  0  0  0
    6.3137   -0.3911    0.6395 H   0  0  0  0  0  0  0  0  0  0  0  0
  1 15  2  0  0  0  0
  2 16  2  0  0  0  0
  3 18  2  0  0  0  0
  4 12  1  0  0  0  0
  4 15  1  0  0  0  0
  4 17  1  0  0  0  0
  5  9  1  0  0  0  0
  5 14  1  0  0  0  0
  5 31  1  0  0  0  0
  6  8  1  0  0  0  0
  6 16  1  0  0  0  0
  6 32  1  0  0  0  0
  7 18  1  0  0  0  0
  7 35  1  0  0  0  0
  7 36  1  0  0  0  0
  8 10  1  0  0  0  0
  8 15  1  0  0  0  0
  8 19  1  0  0  0  0
  9 11  1  0  0  0  0
  9 16  1  0  0  0  0
  9 20  1  0  0  0  0
 10 12  1  0  0  0  0
 10 21  1  0  0  0  0
 10 22  1  0  0  0  0
 11 13  1  0  0  0  0
 11 23  1  0  0  0  0
 11 24  1  0  0  0  0
 12 25  1  0  0  0  0
 12 26  1  0  0  0  0
 13 14  1  0  0  0  0
 13 27  1  0  0  0  0
 13 28  1  0  0  0  0
 14 29  1  0  0  0  0
 14 30  1  0  0  0  0
 17 18  1  0  0  0  0
 17 33  1  0  0  0  0
 17 34  1  0  0  0  0
M  END
> <PUBCHEM_COMPOUND_CID>
129409

> <PUBCHEM_CONFORMER_RMSD>
0.8

> <PUBCHEM_CONFORMER_DIVERSEORDER>
1
32
12
28
40
34
22
38
9
20
21
16
5
37
39
13
35
2
24
17
31
23
25
29
26
6
36
3
8
7
18
4
33
27
19
30
41
14
15
11
10

> <PUBCHEM_MMFF94_PARTIAL_CHARGES>
19
1 -0.57
12 0.3
14 0.27
15 0.57
16 0.57
17 0.36
18 0.57
2 -0.57
3 -0.57
31 0.36
32 0.37
35 0.37
36 0.37
4 -0.66
5 -0.9
6 -0.73
7 -0.8
8 0.36
9 0.33

> <PUBCHEM_EFFECTIVE_ROTOR_COUNT>
6.8

> <PUBCHEM_PHARMACOPHORE_FEATURES>
9
1 1 acceptor
1 2 acceptor
1 3 acceptor
1 5 cation
1 5 donor
1 6 donor
1 7 donor
5 4 8 10 12 15 rings
5 5 9 11 13 14 rings

> <PUBCHEM_HEAVY_ATOM_COUNT>
18

> <PUBCHEM_ATOM_DEF_STEREO_COUNT>
2

> <PUBCHEM_ATOM_UDEF_STEREO_COUNT>
0

> <PUBCHEM_BOND_DEF_STEREO_COUNT>
0

> <PUBCHEM_BOND_UDEF_STEREO_COUNT>
0

> <PUBCHEM_ISOTOPIC_ATOM_COUNT>
0

> <PUBCHEM_COMPONENT_COUNT>
1

> <PUBCHEM_CACTVS_TAUTO_COUNT>
8

> <PUBCHEM_CONFORMER_ID>
0001F98100000001

> <PUBCHEM_MMFF94_ENERGY>
33.0802

> <PUBCHEM_FEATURE_SELFOVERLAP>
45.671

> <PUBCHEM_SHAPE_FINGERPRINT>
10366900 7 17967811656684669035
11046707 91 18334858329245357147
11128504 68 16515691064901505758
11543360 7 15936415558578245208
11615757 297 18272089417934045553
11806522 49 18413110550240334184
12032990 46 18413672400661113192
12236239 1 17418372506372006713
12596602 18 15051729806782610286
12670546 177 18114191843108846702
12916754 54 18341332292528230561
13288520 33 18411420618264504931
13464513 79 18343864420578020174
13675066 3 17489584554277119160
13740256 8 18413110576041695464
13862211 1 18410570665817348074
14251718 22 18259988193148464780
14252887 29 17775005661635845918
14350574 20 18410295830284687104
15188451 53 15840975776708966607
15196674 1 18337390547415834473
15788980 27 17060337418206374545
15880784 105 17418087771715649931
17804303 29 18334859437267908601
17844677 252 17703794725420882184
17870717 6 18259987076636627751
17959699 21 13262394462227720903
1813 80 17346049904573587620
18186145 218 18187078481794017417
18222031 100 18341607118689617896
193927 3 18202012031157297974
200 152 18273208721076933505
20281475 54 18261952930027389072
20374829 77 18261107474178479337
20432913 95 17418097606837251870
20645477 70 18340483464728943501
20871999 31 17385721370318742253
21267235 1 18336551598980701923
22094290 60 17748827388699601924
221490 88 18263650738946787467
23402539 116 18411698764114125012
23402655 69 16515677815054088965
23557571 272 18260546671761785349
23559900 14 18336537330909628945
26918003 58 17988924457370336121
2871803 45 18187637038027400451
296302 2 10809337841297568353
29717793 49 18130783478072902877
3286 77 18343021137677003625
42 15 16774080661047131336
4214541 1 18411135823389188713
4990 188 18412830170501331078
5104073 3 18411418453501034849
542803 24 10303810990690902058
7495541 125 18409169935184605652
9709674 26 18118685650348250515

> <PUBCHEM_SHAPE_MULTIPOLES>
332.9
11.72
1.67
0.98
1.18
0.26
-0.17
-4.89
-1.82
-0.07
0.04
0
-0.09
0.66

> <PUBCHEM_SHAPE_SELFOVERLAP>
686.921

> <PUBCHEM_SHAPE_VOLUME>
192.6

> <PUBCHEM_COORDINATE_TYPE>
2
5
10

$$$$
