129472
  -OEChem-03292013323D

 61 64  0     1  0  0  0  0  0999 V2000
    7.3620   -0.3887    0.5551 S   0  0  0  0  0  0  0  0  0  0  0  0
   -1.2426   -1.7676   -1.6082 O   0  0  0  0  0  0  0  0  0  0  0  0
    0.4518    0.7510   -2.4910 O   0  0  0  0  0  0  0  0  0  0  0  0
   -7.4024   -0.5636    1.5483 O   0  0  0  0  0  0  0  0  0  0  0  0
    5.8548   -0.6570   -0.0187 O   0  0  0  0  0  0  0  0  0  0  0  0
    8.3146   -1.2404   -0.4592 O   0  0  0  0  0  0  0  0  0  0  0  0
    7.6613    1.0175    0.3582 O   0  0  0  0  0  0  0  0  0  0  0  0
    7.4750   -0.9800    1.8754 O   0  0  0  0  0  0  0  0  0  0  0  0
   -1.4210    1.0204   -0.2275 C   0  0  2  0  0  0  0  0  0  0  0  0
   -2.0488   -0.3416    0.2213 C   0  0  1  0  0  0  0  0  0  0  0  0
    0.0259    1.0788    0.2843 C   0  0  1  0  0  0  0  0  0  0  0  0
    0.9003   -0.0614   -0.2556 C   0  0  1  0  0  0  0  0  0  0  0  0
   -3.5852   -0.4363   -0.1440 C   0  0  2  0  0  0  0  0  0  0  0  0
   -1.1692   -1.5566   -0.2033 C   0  0  2  0  0  0  0  0  0  0  0  0
   -4.2931    0.7988    0.5071 C   0  0  1  0  0  0  0  0  0  0  0  0
    2.2574    0.3290    0.3632 C   0  0  2  0  0  0  0  0  0  0  0  0
    0.3160   -1.4025    0.2030 C   0  0  0  0  0  0  0  0  0  0  0  0
   -2.2229    2.2191    0.3029 C   0  0  0  0  0  0  0  0  0  0  0  0
    0.8592    2.3348    0.0294 C   0  0  0  0  0  0  0  0  0  0  0  0
   -3.7135    2.1233    0.0007 C   0  0  0  0  0  0  0  0  0  0  0  0
    2.3184    1.8598    0.1611 C   0  0  0  0  0  0  0  0  0  0  0  0
   -4.2063   -1.7122    0.4934 C   0  0  0  0  0  0  0  0  0  0  0  0
   -3.8238   -0.4790   -1.6740 C   0  0  0  0  0  0  0  0  0  0  0  0
   -5.8182    0.7823    0.3595 C   0  0  0  0  0  0  0  0  0  0  0  0
    1.0232   -0.0584   -1.7680 C   0  0  0  0  0  0  0  0  0  0  0  0
    3.4844   -0.3947   -0.1740 C   0  0  0  0  0  0  0  0  0  0  0  0
   -5.7248   -1.7911    0.3625 C   0  0  0  0  0  0  0  0  0  0  0  0
   -6.3844   -0.5268    0.8577 C   0  0  0  0  0  0  0  0  0  0  0  0
    4.7519    0.0430    0.5403 C   0  0  0  0  0  0  0  0  0  0  0  0
   -1.4527    1.0849   -1.3162 H   0  0  0  0  0  0  0  0  0  0  0  0
   -2.0056   -0.3411    1.3229 H   0  0  0  0  0  0  0  0  0  0  0  0
   -0.0276    0.9757    1.3815 H   0  0  0  0  0  0  0  0  0  0  0  0
   -1.5509   -2.4647    0.2757 H   0  0  0  0  0  0  0  0  0  0  0  0
   -4.0929    0.7532    1.5894 H   0  0  0  0  0  0  0  0  0  0  0  0
    2.2077    0.1399    1.4462 H   0  0  0  0  0  0  0  0  0  0  0  0
    0.3885   -1.4829    1.2950 H   0  0  0  0  0  0  0  0  0  0  0  0
    0.8998   -2.2291   -0.2209 H   0  0  0  0  0  0  0  0  0  0  0  0
   -1.8347    3.1496   -0.1279 H   0  0  0  0  0  0  0  0  0  0  0  0
   -2.0898    2.2994    1.3898 H   0  0  0  0  0  0  0  0  0  0  0  0
    0.6348    3.1194    0.7599 H   0  0  0  0  0  0  0  0  0  0  0  0
    0.6810    2.7573   -0.9649 H   0  0  0  0  0  0  0  0  0  0  0  0
   -4.2242    2.9636    0.4871 H   0  0  0  0  0  0  0  0  0  0  0  0
   -3.8855    2.2387   -1.0756 H   0  0  0  0  0  0  0  0  0  0  0  0
    2.8736    2.1311   -0.7444 H   0  0  0  0  0  0  0  0  0  0  0  0
    2.8119    2.3459    1.0099 H   0  0  0  0  0  0  0  0  0  0  0  0
   -3.9480   -1.7426    1.5605 H   0  0  0  0  0  0  0  0  0  0  0  0
   -3.7790   -2.6156    0.0430 H   0  0  0  0  0  0  0  0  0  0  0  0
   -4.8743   -0.3249   -1.9362 H   0  0  0  0  0  0  0  0  0  0  0  0
   -3.2542    0.2831   -2.2113 H   0  0  0  0  0  0  0  0  0  0  0  0
   -3.5563   -1.4530   -2.0948 H   0  0  0  0  0  0  0  0  0  0  0  0
   -6.1406    0.9325   -0.6752 H   0  0  0  0  0  0  0  0  0  0  0  0
   -6.2537    1.5915    0.9578 H   0  0  0  0  0  0  0  0  0  0  0  0
    1.6441   -0.8569   -2.2093 H   0  0  0  0  0  0  0  0  0  0  0  0
    3.6193   -0.2154   -1.2473 H   0  0  0  0  0  0  0  0  0  0  0  0
    3.3636   -1.4795   -0.0647 H   0  0  0  0  0  0  0  0  0  0  0  0
   -6.0960   -2.6360    0.9531 H   0  0  0  0  0  0  0  0  0  0  0  0
   -6.0296   -1.9541   -0.6761 H   0  0  0  0  0  0  0  0  0  0  0  0
   -0.7294   -2.5672   -1.8146 H   0  0  0  0  0  0  0  0  0  0  0  0
    4.9223    1.1174    0.4185 H   0  0  0  0  0  0  0  0  0  0  0  0
    4.6885   -0.1837    1.6101 H   0  0  0  0  0  0  0  0  0  0  0  0
    8.0202   -2.1643   -0.6375 H   0  0  0  0  0  0  0  0  0  0  0  0
  1  5  1  0  0  0  0
  1  6  1  0  0  0  0
  1  7  2  0  0  0  0
  1  8  2  0  0  0  0
  2 14  1  0  0  0  0
  2 58  1  0  0  0  0
  3 25  2  0  0  0  0
  4 28  2  0  0  0  0
  5 29  1  0  0  0  0
  6 61  1  0  0  0  0
  9 10  1  0  0  0  0
  9 11  1  0  0  0  0
  9 18  1  0  0  0  0
  9 30  1  0  0  0  0
 10 13  1  0  0  0  0
 10 14  1  0  0  0  0
 10 31  1  0  0  0  0
 11 12  1  0  0  0  0
 11 19  1  0  0  0  0
 11 32  1  0  0  0  0
 12 16  1  0  0  0  0
 12 17  1  0  0  0  0
 12 25  1  0  0  0  0
 13 15  1  0  0  0  0
 13 22  1  0  0  0  0
 13 23  1  0  0  0  0
 14 17  1  0  0  0  0
 14 33  1  0  0  0  0
 15 20  1  0  0  0  0
 15 24  1  0  0  0  0
 15 34  1  0  0  0  0
 16 21  1  0  0  0  0
 16 26  1  0  0  0  0
 16 35  1  0  0  0  0
 17 36  1  0  0  0  0
 17 37  1  0  0  0  0
 18 20  1  0  0  0  0
 18 38  1  0  0  0  0
 18 39  1  0  0  0  0
 19 21  1  0  0  0  0
 19 40  1  0  0  0  0
 19 41  1  0  0  0  0
 20 42  1  0  0  0  0
 20 43  1  0  0  0  0
 21 44  1  0  0  0  0
 21 45  1  0  0  0  0
 22 27  1  0  0  0  0
 22 46  1  0  0  0  0
 22 47  1  0  0  0  0
 23 48  1  0  0  0  0
 23 49  1  0  0  0  0
 23 50  1  0  0  0  0
 24 28  1  0  0  0  0
 24 51  1  0  0  0  0
 24 52  1  0  0  0  0
 25 53  1  0  0  0  0
 26 29  1  0  0  0  0
 26 54  1  0  0  0  0
 26 55  1  0  0  0  0
 27 28  1  0  0  0  0
 27 56  1  0  0  0  0
 27 57  1  0  0  0  0
 29 59  1  0  0  0  0
 29 60  1  0  0  0  0
M  END
> <PUBCHEM_COMPOUND_CID>
129472

> <PUBCHEM_CONFORMER_RMSD>
0.8

> <PUBCHEM_CONFORMER_DIVERSEORDER>
1
17
15
11
3
5
7
9
12
18
14
10
16
2
6
13
8
4

> <PUBCHEM_MMFF94_PARTIAL_CHARGES>
18
1 1.67
12 0.06
14 0.28
2 -0.68
24 0.06
25 0.45
27 0.06
28 0.45
29 0.28
3 -0.57
4 -0.57
5 -0.46
53 0.06
58 0.4
6 -0.68
61 0.5
7 -0.65
8 -0.65

> <PUBCHEM_EFFECTIVE_ROTOR_COUNT>
7

> <PUBCHEM_PHARMACOPHORE_FEATURES>
12
1 2 acceptor
1 2 donor
1 3 acceptor
1 4 acceptor
1 6 acceptor
1 7 acceptor
1 8 acceptor
4 1 6 7 8 anion
5 11 12 16 19 21 rings
6 13 15 22 24 27 28 rings
6 9 10 11 12 14 17 rings
6 9 10 13 15 18 20 rings

> <PUBCHEM_HEAVY_ATOM_COUNT>
29

> <PUBCHEM_ATOM_DEF_STEREO_COUNT>
7

> <PUBCHEM_ATOM_UDEF_STEREO_COUNT>
1

> <PUBCHEM_BOND_DEF_STEREO_COUNT>
0

> <PUBCHEM_BOND_UDEF_STEREO_COUNT>
0

> <PUBCHEM_ISOTOPIC_ATOM_COUNT>
0

> <PUBCHEM_COMPONENT_COUNT>
1

> <PUBCHEM_CACTVS_TAUTO_COUNT>
3

> <PUBCHEM_CONFORMER_ID>
0001F9C000000001

> <PUBCHEM_MMFF94_ENERGY>
84.6181

> <PUBCHEM_FEATURE_SELFOVERLAP>
61.046

> <PUBCHEM_SHAPE_FINGERPRINT>
10 15 18201717375696102440
10076449 9 15864074277734732934
10299344 5 18113901555281425906
10366900 7 13262673764525927445
11315181 36 18186239536893956325
11524674 6 16774076284765848342
11578080 2 13757254877534446265
12035758 1 17918277558273088860
12166972 35 17603872242850102829
12236239 1 17894635854699433668
12516196 113 18411699881454481640
13140716 1 18197780114514167539
13288520 33 18408040710820192569
13540713 5 17842551035482811285
13685833 64 18335139804322281744
14251764 18 18408041831806455418
14849402 71 18266180711361812216
14856354 85 16732989729800863307
15196674 1 18339927125426678905
15849732 13 18260548926629801198
1813 80 17458632164332100262
18335252 98 18410858746912494410
21033648 29 17560504136816571761
21150785 3 13984662563760377090
21267235 1 18408609166515447176
21781055 127 17273443666696191552
22224240 67 16774076275901444182
23402539 116 17988918990066872437
23522609 53 18044406922078639708
23559900 14 18337946917379683808
3178227 256 18410019848550146995
335352 9 18411134740967571109
3383291 50 18335700572190601010
34797466 226 17775292694870385180
350125 39 18412547634420239681
4093350 32 15266792018154514828
5104073 3 18128819646936485674
5969126 39 16298380241124430636
6669772 16 16988570065263502710
7226269 152 17703789210687772104

> <PUBCHEM_SHAPE_MULTIPOLES>
559.57
19.17
2.04
1.31
29.81
0.63
-0.58
-6.39
8.07
-1.22
0.06
-0.08
-0.22
-0.06

> <PUBCHEM_SHAPE_SELFOVERLAP>
1172.48

> <PUBCHEM_SHAPE_VOLUME>
317.6

> <PUBCHEM_COORDINATE_TYPE>
2
5
10

$$$$
