129407224
  -OEChem-03292013293D

 62 64  0     1  0  0  0  0  0999 V2000
   -2.0920    0.9157    0.2792 P   0  0  1  0  0  0  0  0  0  0  0  0
    0.0167    2.2818    0.8559 O   0  0  0  0  0  0  0  0  0  0  0  0
   -3.5683    1.3653   -0.2156 O   0  0  0  0  0  0  0  0  0  0  0  0
   -2.0824    0.4231    1.7029 O   0  0  0  0  0  0  0  0  0  0  0  0
    0.9888   -2.4469    0.2989 O   0  0  0  0  0  0  0  0  0  0  0  0
   -1.3131   -2.4378    0.4090 O   0  0  0  0  0  0  0  0  0  0  0  0
    2.8294    2.1811    0.0227 N   0  0  0  0  0  0  0  0  0  0  0  0
   -1.4431   -0.0647   -0.8868 N   0  0  0  0  0  0  0  0  0  0  0  0
    3.4026    1.4631   -2.0084 N   0  0  0  0  0  0  0  0  0  0  0  0
    3.5384    0.2770    1.3537 N   0  0  0  0  0  0  0  0  0  0  0  0
    4.5065   -1.4718   -0.0467 N   0  0  0  0  0  0  0  0  0  0  0  0
    4.6964   -1.2573   -2.4224 N   0  0  0  0  0  0  0  0  0  0  0  0
    0.8140    3.4573    0.8533 C   0  0  2  0  0  0  0  0  0  0  0  0
    2.2833    3.0925    1.0959 C   0  0  0  0  0  0  0  0  0  0  0  0
   -1.2095    2.4816    0.1648 C   0  0  0  0  0  0  0  0  0  0  0  0
   -0.1140   -0.6201   -0.6915 C   0  0  2  0  0  0  0  0  0  0  0  0
    0.2910    4.3948    1.9342 C   0  0  0  0  0  0  0  0  0  0  0  0
    3.3742    0.9414    0.1999 C   0  0  0  0  0  0  0  0  0  0  0  0
    0.5512   -0.8496   -2.0417 C   0  0  0  0  0  0  0  0  0  0  0  0
    2.8684    2.4501   -1.3198 C   0  0  0  0  0  0  0  0  0  0  0  0
    3.7232    0.5135   -1.0710 C   0  0  0  0  0  0  0  0  0  0  0  0
   -0.2546   -1.9273    0.0657 C   0  0  0  0  0  0  0  0  0  0  0  0
   -4.6506    0.5335   -0.3186 C   0  0  0  0  0  0  0  0  0  0  0  0
    1.0159   -3.6914    1.0054 C   0  0  0  0  0  0  0  0  0  0  0  0
    4.3100   -0.7440   -1.1723 C   0  0  0  0  0  0  0  0  0  0  0  0
   -4.5281   -0.8151    0.0156 C   0  0  0  0  0  0  0  0  0  0  0  0
   -5.8759    1.0347   -0.7579 C   0  0  0  0  0  0  0  0  0  0  0  0
    2.2185   -4.5017    0.5461 C   0  0  0  0  0  0  0  0  0  0  0  0
    1.0548   -3.4175    2.5012 C   0  0  0  0  0  0  0  0  0  0  0  0
    4.1142   -0.9242    1.1290 C   0  0  0  0  0  0  0  0  0  0  0  0
   -5.6310   -1.6628   -0.0893 C   0  0  0  0  0  0  0  0  0  0  0  0
   -6.9788    0.1872   -0.8628 C   0  0  0  0  0  0  0  0  0  0  0  0
   -6.8564   -1.1616   -0.5286 C   0  0  0  0  0  0  0  0  0  0  0  0
    0.7378    3.9597   -0.1198 H   0  0  0  0  0  0  0  0  0  0  0  0
    2.4077    2.5504    2.0392 H   0  0  0  0  0  0  0  0  0  0  0  0
    2.9379    3.9705    1.0862 H   0  0  0  0  0  0  0  0  0  0  0  0
   -1.8136    3.2512    0.6518 H   0  0  0  0  0  0  0  0  0  0  0  0
   -1.0357    2.7512   -0.8820 H   0  0  0  0  0  0  0  0  0  0  0  0
    0.5032    0.0531   -0.0938 H   0  0  0  0  0  0  0  0  0  0  0  0
   -1.5402    0.2802   -1.8413 H   0  0  0  0  0  0  0  0  0  0  0  0
    0.2241    3.8799    2.8991 H   0  0  0  0  0  0  0  0  0  0  0  0
    0.9462    5.2645    2.0484 H   0  0  0  0  0  0  0  0  0  0  0  0
   -0.7107    4.7681    1.7028 H   0  0  0  0  0  0  0  0  0  0  0  0
   -0.0528   -1.5098   -2.6759 H   0  0  0  0  0  0  0  0  0  0  0  0
    0.6954    0.0953   -2.5767 H   0  0  0  0  0  0  0  0  0  0  0  0
    1.5277   -1.3291   -1.9347 H   0  0  0  0  0  0  0  0  0  0  0  0
    2.5005    3.3772   -1.7370 H   0  0  0  0  0  0  0  0  0  0  0  0
    0.1234   -4.2851    0.7706 H   0  0  0  0  0  0  0  0  0  0  0  0
   -3.6024   -1.2472    0.3716 H   0  0  0  0  0  0  0  0  0  0  0  0
   -5.9770    2.0844   -1.0196 H   0  0  0  0  0  0  0  0  0  0  0  0
    1.9271   -2.8097    2.7647 H   0  0  0  0  0  0  0  0  0  0  0  0
    2.1811   -4.6592   -0.5372 H   0  0  0  0  0  0  0  0  0  0  0  0
    0.1719   -2.8521    2.8174 H   0  0  0  0  0  0  0  0  0  0  0  0
    2.2540   -5.4769    1.0412 H   0  0  0  0  0  0  0  0  0  0  0  0
    3.1530   -3.9712    0.7550 H   0  0  0  0  0  0  0  0  0  0  0  0
    1.0919   -4.3489    3.0744 H   0  0  0  0  0  0  0  0  0  0  0  0
    4.2855   -1.5350    2.0089 H   0  0  0  0  0  0  0  0  0  0  0  0
    4.5484   -0.7172   -3.2642 H   0  0  0  0  0  0  0  0  0  0  0  0
    5.1190   -2.1744   -2.4701 H   0  0  0  0  0  0  0  0  0  0  0  0
   -5.5368   -2.7125    0.1732 H   0  0  0  0  0  0  0  0  0  0  0  0
   -7.9329    0.5774   -1.2047 H   0  0  0  0  0  0  0  0  0  0  0  0
   -7.7153   -1.8213   -0.6098 H   0  0  0  0  0  0  0  0  0  0  0  0
  1  3  1  0  0  0  0
  1  4  2  0  0  0  0
  1  8  1  0  0  0  0
  1 15  1  0  0  0  0
  2 13  1  0  0  0  0
  2 15  1  0  0  0  0
  3 23  1  0  0  0  0
  5 22  1  0  0  0  0
  5 24  1  0  0  0  0
  6 22  2  0  0  0  0
  7 14  1  0  0  0  0
  7 18  1  0  0  0  0
  7 20  1  0  0  0  0
  8 16  1  0  0  0  0
  8 40  1  0  0  0  0
  9 20  2  0  0  0  0
  9 21  1  0  0  0  0
 10 18  2  0  0  0  0
 10 30  1  0  0  0  0
 11 25  1  0  0  0  0
 11 30  2  0  0  0  0
 12 25  1  0  0  0  0
 12 58  1  0  0  0  0
 12 59  1  0  0  0  0
 13 14  1  0  0  0  0
 13 17  1  0  0  0  0
 13 34  1  0  0  0  0
 14 35  1  0  0  0  0
 14 36  1  0  0  0  0
 15 37  1  0  0  0  0
 15 38  1  0  0  0  0
 16 19  1  0  0  0  0
 16 22  1  0  0  0  0
 16 39  1  0  0  0  0
 17 41  1  0  0  0  0
 17 42  1  0  0  0  0
 17 43  1  0  0  0  0
 18 21  1  0  0  0  0
 19 44  1  0  0  0  0
 19 45  1  0  0  0  0
 19 46  1  0  0  0  0
 20 47  1  0  0  0  0
 21 25  2  0  0  0  0
 23 26  2  0  0  0  0
 23 27  1  0  0  0  0
 24 28  1  0  0  0  0
 24 29  1  0  0  0  0
 24 48  1  0  0  0  0
 26 31  1  0  0  0  0
 26 49  1  0  0  0  0
 27 32  2  0  0  0  0
 27 50  1  0  0  0  0
 28 52  1  0  0  0  0
 28 54  1  0  0  0  0
 28 55  1  0  0  0  0
 29 51  1  0  0  0  0
 29 53  1  0  0  0  0
 29 56  1  0  0  0  0
 30 57  1  0  0  0  0
 31 33  2  0  0  0  0
 31 60  1  0  0  0  0
 32 33  1  0  0  0  0
 32 61  1  0  0  0  0
 33 62  1  0  0  0  0
M  END
> <PUBCHEM_COMPOUND_CID>
129407224

> <PUBCHEM_CONFORMER_RMSD>
1.2

> <PUBCHEM_CONFORMER_DIVERSEORDER>
1
11
36
86
68
90
21
47
76
14
32
77
41
69
40
56
73
15
89
7
61
67
6
80
8
52
81
5
37
27
78
54
58
46
28
62
34
38
3
23
51
92
2
85
84
75
50
17
55
22
33
71
83
82
4
48
70
45
42
65
30
66
10
49
87
26
19
79
57
20
43
60
16
29
59
13
25
31
12
88
9
72
18
53
64
39
35
91
24
74
63
44

> <PUBCHEM_MMFF94_PARTIAL_CHARGES>
39
1 1.24
10 -0.57
11 -0.62
12 -0.9
13 0.28
14 0.26
15 0.28
16 0.33
18 0.11
2 -0.56
20 0.04
21 0.23
22 0.66
23 0.08
24 0.28
25 0.41
26 -0.15
27 -0.15
3 -0.35
30 0.47
31 -0.15
32 -0.15
33 -0.15
4 -0.7
40 0.36
47 0.15
49 0.15
5 -0.43
50 0.15
57 0.15
58 0.4
59 0.4
6 -0.57
60 0.15
61 0.15
62 0.15
7 0.05
8 -0.9
9 -0.57

> <PUBCHEM_EFFECTIVE_ROTOR_COUNT>
12

> <PUBCHEM_PHARMACOPHORE_FEATURES>
11
1 12 cation
1 12 donor
1 2 acceptor
1 6 acceptor
3 10 11 30 cation
3 24 28 29 hydrophobe
3 7 10 18 cation
3 7 9 20 cation
5 7 9 18 20 21 rings
6 10 11 18 21 25 30 rings
6 23 26 27 31 32 33 rings

> <PUBCHEM_HEAVY_ATOM_COUNT>
33

> <PUBCHEM_ATOM_DEF_STEREO_COUNT>
3

> <PUBCHEM_ATOM_UDEF_STEREO_COUNT>
0

> <PUBCHEM_BOND_DEF_STEREO_COUNT>
0

> <PUBCHEM_BOND_UDEF_STEREO_COUNT>
0

> <PUBCHEM_ISOTOPIC_ATOM_COUNT>
0

> <PUBCHEM_COMPONENT_COUNT>
1

> <PUBCHEM_CACTVS_TAUTO_COUNT>
8

> <PUBCHEM_CONFORMER_ID>
07B698F800000001

> <PUBCHEM_MMFF94_ENERGY>
57.3143

> <PUBCHEM_FEATURE_SELFOVERLAP>
56.426

> <PUBCHEM_SHAPE_FINGERPRINT>
10675989 125 18409732867636963128
11014199 57 17762051039090712162
12166972 35 18333735689050192892
12788726 201 18342188739203952492
13782708 43 18267583688783734719
14068700 675 18339362951349627420
14931854 50 18337971029679044308
17349148 13 17631748156933079409
17909252 39 17630901412499257038
19315092 285 16880457182658470306
20775438 99 17913757581730171774
20905425 154 17767971931118439532
21279426 13 18412824681913402909
23559900 14 18260544580793187349
3298306 158 18408315606049294235
404807 78 17387711615757699531
484989 97 18262812885353931211
6669772 16 18125992999867525169

> <PUBCHEM_SHAPE_MULTIPOLES>
623.74
12.63
5.04
1.83
22.36
0.56
-0.06
2.13
-4.95
-4.16
3.31
-2.01
0.1
-0.29

> <PUBCHEM_SHAPE_SELFOVERLAP>
1288.861

> <PUBCHEM_SHAPE_VOLUME>
358.8

> <PUBCHEM_COORDINATE_TYPE>
2
5
10

$$$$
