129468
  -OEChem-03292013323D

 45 46  0     1  0  0  0  0  0999 V2000
   -1.0134    0.5324   -1.4916 O   0  0  0  0  0  0  0  0  0  0  0  0
    2.0214    1.9603   -1.7260 O   0  0  0  0  0  0  0  0  0  0  0  0
   -3.5895    0.7152   -1.4101 N   0  0  0  0  0  0  0  0  0  0  0  0
   -0.8490   -0.7926    0.4151 N   0  0  0  0  0  0  0  0  0  0  0  0
    2.3604    0.7724    0.7591 N   0  0  0  0  0  0  0  0  0  0  0  0
    0.7053    0.8434    2.1584 N   0  0  0  0  0  0  0  0  0  0  0  0
    2.6362    1.7958    1.5795 N   0  0  0  0  0  0  0  0  0  0  0  0
    1.6201    1.8346    2.4330 N   0  0  0  0  0  0  0  0  0  0  0  0
    3.7838    0.7892   -2.6254 N   0  0  0  0  0  0  0  0  0  0  0  0
   -3.0011   -0.0780   -0.3311 C   0  0  2  0  0  0  0  0  0  0  0  0
   -3.4050    0.6044    0.9717 C   0  0  0  0  0  0  0  0  0  0  0  0
   -4.2054    1.8220    0.5358 C   0  0  0  0  0  0  0  0  0  0  0  0
    0.5893   -0.9525    0.4199 C   0  0  2  0  0  0  0  0  0  0  0  0
   -4.7255    1.4250   -0.8299 C   0  0  0  0  0  0  0  0  0  0  0  0
    0.9741   -2.3123    1.0301 C   0  0  0  0  0  0  0  0  0  0  0  0
   -1.5242   -0.0608   -0.5451 C   0  0  0  0  0  0  0  0  0  0  0  0
    0.4346   -3.5481    0.2799 C   0  0  0  0  0  0  0  0  0  0  0  0
    1.2003    0.2323    1.1395 C   0  0  0  0  0  0  0  0  0  0  0  0
    0.8949   -3.5059   -1.1802 C   0  0  0  0  0  0  0  0  0  0  0  0
   -1.0908   -3.6434    0.3346 C   0  0  0  0  0  0  0  0  0  0  0  0
    3.2521    0.4209   -0.3152 C   0  0  0  0  0  0  0  0  0  0  0  0
    2.9314    1.1458   -1.6020 C   0  0  0  0  0  0  0  0  0  0  0  0
   -3.3673   -1.1108   -0.3603 H   0  0  0  0  0  0  0  0  0  0  0  0
   -4.0521   -0.0651    1.5514 H   0  0  0  0  0  0  0  0  0  0  0  0
   -2.5703    0.9047    1.6135 H   0  0  0  0  0  0  0  0  0  0  0  0
   -3.5453    2.6945    0.4556 H   0  0  0  0  0  0  0  0  0  0  0  0
   -5.0086    2.0637    1.2379 H   0  0  0  0  0  0  0  0  0  0  0  0
    0.9141   -0.9118   -0.6248 H   0  0  0  0  0  0  0  0  0  0  0  0
   -5.0100    2.2926   -1.4313 H   0  0  0  0  0  0  0  0  0  0  0  0
   -5.5907    0.7577   -0.7411 H   0  0  0  0  0  0  0  0  0  0  0  0
   -3.8835    0.1218   -2.1837 H   0  0  0  0  0  0  0  0  0  0  0  0
    0.6337   -2.3572    2.0738 H   0  0  0  0  0  0  0  0  0  0  0  0
    2.0693   -2.3839    1.0722 H   0  0  0  0  0  0  0  0  0  0  0  0
    0.8565   -4.4391    0.7609 H   0  0  0  0  0  0  0  0  0  0  0  0
   -1.3677   -1.1479    1.2131 H   0  0  0  0  0  0  0  0  0  0  0  0
    0.3924   -2.7252   -1.7597 H   0  0  0  0  0  0  0  0  0  0  0  0
    1.9764   -3.3480   -1.2486 H   0  0  0  0  0  0  0  0  0  0  0  0
    0.6705   -4.4606   -1.6693 H   0  0  0  0  0  0  0  0  0  0  0  0
   -1.5923   -2.9974   -0.3896 H   0  0  0  0  0  0  0  0  0  0  0  0
   -1.4735   -3.4404    1.3398 H   0  0  0  0  0  0  0  0  0  0  0  0
   -1.3952   -4.6659    0.0795 H   0  0  0  0  0  0  0  0  0  0  0  0
    3.2095   -0.6609   -0.4735 H   0  0  0  0  0  0  0  0  0  0  0  0
    4.2716    0.6751   -0.0030 H   0  0  0  0  0  0  0  0  0  0  0  0
    3.6887    1.1970   -3.5496 H   0  0  0  0  0  0  0  0  0  0  0  0
    4.5303    0.1131   -2.4993 H   0  0  0  0  0  0  0  0  0  0  0  0
  1 16  2  0  0  0  0
  2 22  2  0  0  0  0
  3 10  1  0  0  0  0
  3 14  1  0  0  0  0
  3 31  1  0  0  0  0
  4 13  1  0  0  0  0
  4 16  1  0  0  0  0
  4 35  1  0  0  0  0
  5  7  1  0  0  0  0
  5 18  1  0  0  0  0
  5 21  1  0  0  0  0
  6  8  1  0  0  0  0
  6 18  2  0  0  0  0
  7  8  2  0  0  0  0
  9 22  1  0  0  0  0
  9 44  1  0  0  0  0
  9 45  1  0  0  0  0
 10 11  1  0  0  0  0
 10 16  1  0  0  0  0
 10 23  1  0  0  0  0
 11 12  1  0  0  0  0
 11 24  1  0  0  0  0
 11 25  1  0  0  0  0
 12 14  1  0  0  0  0
 12 26  1  0  0  0  0
 12 27  1  0  0  0  0
 13 15  1  0  0  0  0
 13 18  1  0  0  0  0
 13 28  1  0  0  0  0
 14 29  1  0  0  0  0
 14 30  1  0  0  0  0
 15 17  1  0  0  0  0
 15 32  1  0  0  0  0
 15 33  1  0  0  0  0
 17 19  1  0  0  0  0
 17 20  1  0  0  0  0
 17 34  1  0  0  0  0
 19 36  1  0  0  0  0
 19 37  1  0  0  0  0
 19 38  1  0  0  0  0
 20 39  1  0  0  0  0
 20 40  1  0  0  0  0
 20 41  1  0  0  0  0
 21 22  1  0  0  0  0
 21 42  1  0  0  0  0
 21 43  1  0  0  0  0
M  END
> <PUBCHEM_COMPOUND_CID>
129468

> <PUBCHEM_CONFORMER_RMSD>
0.8

> <PUBCHEM_CONFORMER_DIVERSEORDER>
1
459
77
48
173
423
267
98
412
293
466
370
272
450
440
320
337
432
307
70
250
356
473
253
402
295
146
90
310
457
273
468
220
318
25
338
379
177
342
471
268
99
96
289
203
331
226
283
207
353
377
403
285
38
265
329
230
360
315
322
427
228
391
156
189
65
437
358
446
291
276
376
278
118
414
422
168
323
13
215
147
380
436
324
87
364
425
413
334
245
119
294
343
421
19
411
406
389
116
309
308
103
94
57
476
269
416
257
475
428
467
42
346
59
181
326
281
74
264
31
218
350
157
469
409
335
154
204
434
122
313
296
369
395
311
462
393
174
292
160
392
179
9
367
185
47
199
328
17
76
433
58
221
223
37
72
345
162
435
246
69
182
23
68
214
429
183
366
344
232
305
352
474
454
439
419
161
233
129
255
50
109
86
368
325
408
225
34
321
7
107
400
240
211
388
212
290
354
158
394
139
229
73
327
373
384
365
306
137
405
231
266
340
375
312
463
339
227
332
443
282
417
197
441
93
80
362
14
386
101
21
30
442
205
51
79
110
470
288
241
135
382
15
136
54
287
460
381
224
55
175
415
164
444
464
319
348
451
262
32
114
472
123
124
184
374
363
39
29
36
145
361
6
188
187
418
171
102
71
222
397
259
60
431
271
194
196
49
27
163
256
91
219
458
115
298
169
152
208
385
191
28
83
95
45
190
150
297
201
401
143
41
238
317
97
178
274
302
88
75
390
426
128
410
186
18
165
44
438
284
279
167
448
430
249
357
243
341
89
202
84
333
113
131
355
300
11
106
351
35
153
248
239
330
112
117
254
105
141
138
251
46
404
396
236
92
8
200
237
398
176
144
477
275
234
52
10
33
359
198
447
216
270
452
263
66
22
43
260
455
172
213
20
371
383
142
132
445
111
78
126
347
56
24
299
261
453
53
140
424
63
133
420
209
121
127
12
149
120
195
40
217
170
4
210
235
258
81
399
378
247
64
26
244
180
108
5
316
85
465
277
61
67
16
461
407
303
301
349
336
372
148
193
314
3
242
130
155
304
166
100
206
134
104
252
125
449
2
82
387
151
456
62
192
280
286
159

> <PUBCHEM_MMFF94_PARTIAL_CHARGES>
19
1 -0.57
10 0.33
13 0.48
14 0.27
16 0.57
18 0.01
2 -0.57
21 0.32
22 0.57
3 -0.9
31 0.36
35 0.37
4 -0.73
44 0.37
45 0.37
5 0.31
6 -0.34
7 -0.42
9 -0.8

> <PUBCHEM_EFFECTIVE_ROTOR_COUNT>
9

> <PUBCHEM_PHARMACOPHORE_FEATURES>
10
1 1 acceptor
1 2 acceptor
1 3 cation
1 3 donor
1 4 donor
1 9 donor
3 17 19 20 hydrophobe
3 5 6 18 cation
5 3 10 11 12 14 rings
5 5 6 7 8 18 rings

> <PUBCHEM_HEAVY_ATOM_COUNT>
22

> <PUBCHEM_ATOM_DEF_STEREO_COUNT>
0

> <PUBCHEM_ATOM_UDEF_STEREO_COUNT>
2

> <PUBCHEM_BOND_DEF_STEREO_COUNT>
0

> <PUBCHEM_BOND_UDEF_STEREO_COUNT>
0

> <PUBCHEM_ISOTOPIC_ATOM_COUNT>
0

> <PUBCHEM_COMPONENT_COUNT>
1

> <PUBCHEM_CACTVS_TAUTO_COUNT>
4

> <PUBCHEM_CONFORMER_ID>
0001F9BC00000001

> <PUBCHEM_MMFF94_ENERGY>
29.9887

> <PUBCHEM_FEATURE_SELFOVERLAP>
50.745

> <PUBCHEM_SHAPE_FINGERPRINT>
10165383 225 18194432019818419659
11578080 2 17980497964018348976
11582403 64 16339431710385808802
12633257 1 16153693311392686673
12788726 201 17540817625686691647
12895836 83 18116452494929705180
12895837 130 17318482017261068940
13533116 47 18197771117179960277
13681431 1 17907297654664574371
14251757 17 16916791828688176471
1813 80 17620198628865274351
18186145 218 18131074873912396809
20600515 1 17686054994402298755
20626108 58 14979673243526018012
2255824 54 18125990573675297827
22907989 373 17976548530682320031
23352939 185 17831596270670983262
23419403 2 12948945589008528162
23526113 38 17560248062408233530
23557571 272 17545877587214679048
23559900 14 18044366133448384117
2637199 183 17749687250032333308
298252 57 17895769494627876028
3060560 45 18272354369870738384
3729539 64 17901137160282535158
3797600 57 17168154484765399721
458136 41 18336276643442638715
469060 322 12182372979608404610
5845 1 8573887846900565387
633830 44 17917712418161114689
6442390 28 18339365274768796227
7364860 26 18127958720662965203
81228 2 17688579881026301555

> <PUBCHEM_SHAPE_MULTIPOLES>
406.14
6.85
3.69
2.1
6.96
5.13
-0.06
-5.8
-2.5
-1.55
0.03
-1.8
-1.37
-0.04

> <PUBCHEM_SHAPE_SELFOVERLAP>
828.732

> <PUBCHEM_SHAPE_VOLUME>
238.3

> <PUBCHEM_COORDINATE_TYPE>
2
5
10

$$$$
