129419
  -OEChem-03292013323D

 46 47  0     0  0  0  0  0  0999 V2000
   -2.8160    0.9105    0.7196 O   0  0  0  0  0  0  0  0  0  0  0  0
    2.8258   -0.8908   -0.7861 O   0  0  0  0  0  0  0  0  0  0  0  0
   -9.0999    0.5950   -0.6571 N   0  0  0  0  0  0  0  0  0  0  0  0
    8.6626    1.6451    0.2052 N   0  0  0  0  0  0  0  0  0  0  0  0
   -8.6038   -1.6172   -0.0901 N   0  0  0  0  0  0  0  0  0  0  0  0
    9.0114   -0.6124    0.6982 N   0  0  0  0  0  0  0  0  0  0  0  0
   -0.5372    0.5319    0.0890 C   0  0  0  0  0  0  0  0  0  0  0  0
    0.5362   -0.5129   -0.1951 C   0  0  0  0  0  0  0  0  0  0  0  0
   -1.8583   -0.1125    0.4840 C   0  0  0  0  0  0  0  0  0  0  0  0
    1.8688    0.1321   -0.5483 C   0  0  0  0  0  0  0  0  0  0  0  0
   -4.1286    0.5959    0.4807 C   0  0  0  0  0  0  0  0  0  0  0  0
    4.1348   -0.5889   -0.5134 C   0  0  0  0  0  0  0  0  0  0  0  0
   -5.0117    1.5902    0.0762 C   0  0  0  0  0  0  0  0  0  0  0  0
    4.5792    0.7219   -0.6410 C   0  0  0  0  0  0  0  0  0  0  0  0
   -4.5629   -0.7139    0.6475 C   0  0  0  0  0  0  0  0  0  0  0  0
    5.0041   -1.5972   -0.1142 C   0  0  0  0  0  0  0  0  0  0  0  0
   -6.7915   -0.0418    0.0000 C   0  0  0  0  0  0  0  0  0  0  0  0
    6.7904    0.0225    0.0358 C   0  0  0  0  0  0  0  0  0  0  0  0
   -6.3478    1.2702   -0.1649 C   0  0  0  0  0  0  0  0  0  0  0  0
    5.9118    1.0287   -0.3653 C   0  0  0  0  0  0  0  0  0  0  0  0
   -5.8990   -1.0340    0.4061 C   0  0  0  0  0  0  0  0  0  0  0  0
    6.3366   -1.2905    0.1615 C   0  0  0  0  0  0  0  0  0  0  0  0
   -8.1849   -0.3746   -0.2511 C   0  0  0  0  0  0  0  0  0  0  0  0
    8.1799    0.3430    0.3225 C   0  0  0  0  0  0  0  0  0  0  0  0
   -0.2108    1.2056    0.8912 H   0  0  0  0  0  0  0  0  0  0  0  0
   -0.6899    1.1674   -0.7923 H   0  0  0  0  0  0  0  0  0  0  0  0
    0.2209   -1.1699   -1.0153 H   0  0  0  0  0  0  0  0  0  0  0  0
    0.6702   -1.1656    0.6770 H   0  0  0  0  0  0  0  0  0  0  0  0
   -1.7298   -0.7021    1.3992 H   0  0  0  0  0  0  0  0  0  0  0  0
   -2.1655   -0.7742   -0.3364 H   0  0  0  0  0  0  0  0  0  0  0  0
    2.1626    0.7742    0.2925 H   0  0  0  0  0  0  0  0  0  0  0  0
    1.7622    0.7421   -1.4528 H   0  0  0  0  0  0  0  0  0  0  0  0
   -4.6693    2.6130   -0.0530 H   0  0  0  0  0  0  0  0  0  0  0  0
    3.9349    1.5280   -0.9782 H   0  0  0  0  0  0  0  0  0  0  0  0
   -3.9076   -1.5090    0.9897 H   0  0  0  0  0  0  0  0  0  0  0  0
    4.6541   -2.6209   -0.0156 H   0  0  0  0  0  0  0  0  0  0  0  0
   -6.9983    2.0793   -0.4782 H   0  0  0  0  0  0  0  0  0  0  0  0
    6.2138    2.0633   -0.4853 H   0  0  0  0  0  0  0  0  0  0  0  0
   -6.2133   -2.0641    0.5501 H   0  0  0  0  0  0  0  0  0  0  0  0
    6.9942   -2.0981    0.4717 H   0  0  0  0  0  0  0  0  0  0  0  0
   -8.8638    1.5684   -0.8037 H   0  0  0  0  0  0  0  0  0  0  0  0
  -10.0685    0.3435   -0.8258 H   0  0  0  0  0  0  0  0  0  0  0  0
    8.0950    2.4348   -0.0758 H   0  0  0  0  0  0  0  0  0  0  0  0
    9.6359    1.8485    0.4078 H   0  0  0  0  0  0  0  0  0  0  0  0
   -9.6052   -1.6506   -0.3113 H   0  0  0  0  0  0  0  0  0  0  0  0
    9.9357   -0.1935    0.8504 H   0  0  0  0  0  0  0  0  0  0  0  0
  1  9  1  0  0  0  0
  1 11  1  0  0  0  0
  2 10  1  0  0  0  0
  2 12  1  0  0  0  0
  3 23  1  0  0  0  0
  3 41  1  0  0  0  0
  3 42  1  0  0  0  0
  4 24  1  0  0  0  0
  4 43  1  0  0  0  0
  4 44  1  0  0  0  0
  5 23  2  0  0  0  0
  5 45  1  0  0  0  0
  6 24  2  0  0  0  0
  6 46  1  0  0  0  0
  7  8  1  0  0  0  0
  7  9  1  0  0  0  0
  7 25  1  0  0  0  0
  7 26  1  0  0  0  0
  8 10  1  0  0  0  0
  8 27  1  0  0  0  0
  8 28  1  0  0  0  0
  9 29  1  0  0  0  0
  9 30  1  0  0  0  0
 10 31  1  0  0  0  0
 10 32  1  0  0  0  0
 11 13  2  0  0  0  0
 11 15  1  0  0  0  0
 12 14  2  0  0  0  0
 12 16  1  0  0  0  0
 13 19  1  0  0  0  0
 13 33  1  0  0  0  0
 14 20  1  0  0  0  0
 14 34  1  0  0  0  0
 15 21  2  0  0  0  0
 15 35  1  0  0  0  0
 16 22  2  0  0  0  0
 16 36  1  0  0  0  0
 17 19  2  0  0  0  0
 17 21  1  0  0  0  0
 17 23  1  0  0  0  0
 18 20  2  0  0  0  0
 18 22  1  0  0  0  0
 18 24  1  0  0  0  0
 19 37  1  0  0  0  0
 20 38  1  0  0  0  0
 21 39  1  0  0  0  0
 22 40  1  0  0  0  0
M  END
> <PUBCHEM_COMPOUND_CID>
129419

> <PUBCHEM_CONFORMER_RMSD>
1

> <PUBCHEM_CONFORMER_DIVERSEORDER>
1
33
16
24
2
15
23
25
21
22
7
34
10
8
4
36
17
39
43
30
3
5
44
14
6
31
18
35
41
40
27
11
28
20
42
9
45
32
12
26
29
19
13
37
38

> <PUBCHEM_MMFF94_PARTIAL_CHARGES>
36
1 -0.36
10 0.28
11 0.08
12 0.08
13 -0.15
14 -0.15
15 -0.15
16 -0.15
17 0.09
18 0.09
19 -0.15
2 -0.36
20 -0.15
21 -0.15
22 -0.15
23 0.41
24 0.41
3 -0.85
33 0.15
34 0.15
35 0.15
36 0.15
37 0.15
38 0.15
39 0.15
4 -0.85
40 0.15
41 0.4
42 0.4
43 0.4
44 0.4
45 0.4
46 0.4
5 -0.85
6 -0.85
9 0.28

> <PUBCHEM_EFFECTIVE_ROTOR_COUNT>
9

> <PUBCHEM_PHARMACOPHORE_FEATURES>
10
1 1 acceptor
1 2 acceptor
1 3 donor
1 4 donor
1 5 donor
1 6 donor
3 3 5 23 cation
3 4 6 24 cation
6 11 13 15 17 19 21 rings
6 12 14 16 18 20 22 rings

> <PUBCHEM_HEAVY_ATOM_COUNT>
24

> <PUBCHEM_ATOM_DEF_STEREO_COUNT>
0

> <PUBCHEM_ATOM_UDEF_STEREO_COUNT>
0

> <PUBCHEM_BOND_DEF_STEREO_COUNT>
0

> <PUBCHEM_BOND_UDEF_STEREO_COUNT>
0

> <PUBCHEM_ISOTOPIC_ATOM_COUNT>
0

> <PUBCHEM_COMPONENT_COUNT>
1

> <PUBCHEM_CACTVS_TAUTO_COUNT>
1

> <PUBCHEM_CONFORMER_ID>
0001F98B00000001

> <PUBCHEM_MMFF94_ENERGY>
83.6755

> <PUBCHEM_FEATURE_SELFOVERLAP>
50.832

> <PUBCHEM_SHAPE_FINGERPRINT>
10 15 17989204845662493606
10162869 55 18335980952044680468
106641 1 18202562891389665266
10674148 151 9439401311780284540
10883706 142 16200149886217844134
11315181 36 18202567264114863305
11638347 137 18408322156238787898
11719270 70 18271807891286449630
11724838 91 18343022199092568916
12082328 90 18201719505931627709
12592606 108 11674886610376469809
13885169 127 18261110743197419309
14123256 10 17275105024333240537
14251764 18 18410859858179960652
14251764 46 18040715865933003835
14428016 248 14333410077216722218
15183329 4 11891332049614028668
15510794 2 18059580156913842062
15840311 113 18410858794442413292
16120349 18 18334294306014939780
18335252 98 17775289352293741014
20621476 8 10665225960341197131
21049683 271 17775565355450858504
21095086 128 10879991354713101005
21150785 3 17775566442187697049
21267235 1 10447927269794296987
21315763 28 18409450267119844853
21365058 27 14620795994295004357
21792934 111 13767924659167695110
22224240 67 18334295366734471282
232437 2 18410575076885813442
23559900 14 18337107982224676329
28498 318 12685088181572373480
33684 2 17894911828371391339
4073 2 17750243646161144682
4325135 7 18130788966439596965
4874694 18 18334010592532339739
5758199 1 13686299071562436509
59682541 35 17418372510461336674
6394761 36 13839984417135695345
67123 10 18412825793565633485
8209 1 18410575084663078917
9663363 56 14418132925332897350
99344 41 18334295357591032051

> <PUBCHEM_SHAPE_MULTIPOLES>
462.25
34.37
1.43
0.77
0.32
0
0
-0.04
-0.64
-0.04
-0.01
-0.06
0
0.09

> <PUBCHEM_SHAPE_SELFOVERLAP>
970.16

> <PUBCHEM_SHAPE_VOLUME>
261.3

> <PUBCHEM_COORDINATE_TYPE>
2
5
10

$$$$
