129439
  -OEChem-03292013323D

 36 35  0     1  0  0  0  0  0999 V2000
    3.1330    1.5627   -1.0818 O   0  0  0  0  0  0  0  0  0  0  0  0
   -0.4081    0.3473    1.7333 O   0  0  0  0  0  0  0  0  0  0  0  0
    4.4858    0.3356    0.2438 O   0  0  0  0  0  0  0  0  0  0  0  0
   -2.7474   -0.8568   -1.2785 O   0  0  0  0  0  0  0  0  0  0  0  0
    0.9103    0.5502   -0.1655 N   0  0  0  0  0  0  0  0  0  0  0  0
   -2.6141    0.9307    0.1996 N   0  0  0  0  0  0  0  0  0  0  0  0
   -4.8377   -1.9000    0.1645 N   0  0  0  0  0  0  0  0  0  0  0  0
    2.0437   -1.6000    0.1583 C   0  0  0  0  0  0  0  0  0  0  0  0
    2.0950   -0.0730    0.3794 C   0  0  1  0  0  0  0  0  0  0  0  0
    3.1602   -2.3316    0.9084 C   0  0  0  0  0  0  0  0  0  0  0  0
    2.0518   -1.9962   -1.3214 C   0  0  0  0  0  0  0  0  0  0  0  0
   -1.3349    1.4371   -0.2230 C   0  0  2  0  0  0  0  0  0  0  0  0
   -0.2562    0.7092    0.5684 C   0  0  0  0  0  0  0  0  0  0  0  0
    3.3569    0.5990   -0.1548 C   0  0  0  0  0  0  0  0  0  0  0  0
   -1.2393    2.9407   -0.0164 C   0  0  0  0  0  0  0  0  0  0  0  0
   -3.2229   -0.1844   -0.3663 C   0  0  0  0  0  0  0  0  0  0  0  0
   -4.5761   -0.4705    0.2519 C   0  0  0  0  0  0  0  0  0  0  0  0
    1.0950   -1.9630    0.5781 H   0  0  0  0  0  0  0  0  0  0  0  0
    2.0909    0.1304    1.4584 H   0  0  0  0  0  0  0  0  0  0  0  0
    0.9447    0.8825   -1.1250 H   0  0  0  0  0  0  0  0  0  0  0  0
    4.1416   -2.1587    0.4571 H   0  0  0  0  0  0  0  0  0  0  0  0
    3.1994   -2.0195    1.9571 H   0  0  0  0  0  0  0  0  0  0  0  0
    2.9825   -3.4128    0.8919 H   0  0  0  0  0  0  0  0  0  0  0  0
    1.2077   -1.5511   -1.8577 H   0  0  0  0  0  0  0  0  0  0  0  0
    1.9719   -3.0834   -1.4289 H   0  0  0  0  0  0  0  0  0  0  0  0
    2.9755   -1.6789   -1.8163 H   0  0  0  0  0  0  0  0  0  0  0  0
   -1.2166    1.2109   -1.2895 H   0  0  0  0  0  0  0  0  0  0  0  0
   -1.3465    3.2045    1.0420 H   0  0  0  0  0  0  0  0  0  0  0  0
   -0.2701    3.3219   -0.3549 H   0  0  0  0  0  0  0  0  0  0  0  0
   -2.0267    3.4619   -0.5713 H   0  0  0  0  0  0  0  0  0  0  0  0
   -3.0653    1.3874    0.9872 H   0  0  0  0  0  0  0  0  0  0  0  0
    3.9668    1.9838   -1.3812 H   0  0  0  0  0  0  0  0  0  0  0  0
   -5.3334    0.0889   -0.3057 H   0  0  0  0  0  0  0  0  0  0  0  0
   -4.6030   -0.1530    1.2990 H   0  0  0  0  0  0  0  0  0  0  0  0
   -5.7520   -2.1003    0.5680 H   0  0  0  0  0  0  0  0  0  0  0  0
   -4.1613   -2.4073    0.7343 H   0  0  0  0  0  0  0  0  0  0  0  0
  1 14  1  0  0  0  0
  1 32  1  0  0  0  0
  2 13  2  0  0  0  0
  3 14  2  0  0  0  0
  4 16  2  0  0  0  0
  5  9  1  0  0  0  0
  5 13  1  0  0  0  0
  5 20  1  0  0  0  0
  6 12  1  0  0  0  0
  6 16  1  0  0  0  0
  6 31  1  0  0  0  0
  7 17  1  0  0  0  0
  7 35  1  0  0  0  0
  7 36  1  0  0  0  0
  8  9  1  0  0  0  0
  8 10  1  0  0  0  0
  8 11  1  0  0  0  0
  8 18  1  0  0  0  0
  9 14  1  0  0  0  0
  9 19  1  0  0  0  0
 10 21  1  0  0  0  0
 10 22  1  0  0  0  0
 10 23  1  0  0  0  0
 11 24  1  0  0  0  0
 11 25  1  0  0  0  0
 11 26  1  0  0  0  0
 12 13  1  0  0  0  0
 12 15  1  0  0  0  0
 12 27  1  0  0  0  0
 15 28  1  0  0  0  0
 15 29  1  0  0  0  0
 15 30  1  0  0  0  0
 16 17  1  0  0  0  0
 17 33  1  0  0  0  0
 17 34  1  0  0  0  0
M  END
> <PUBCHEM_COMPOUND_CID>
129439

> <PUBCHEM_CONFORMER_RMSD>
0.8

> <PUBCHEM_CONFORMER_DIVERSEORDER>
1
14
7
50
64
29
10
71
41
40
66
6
58
65
70
43
39
25
54
67
37
23
17
9
72
30
45
27
80
5
62
60
74
82
13
48
77
16
26
59
19
28
83
44
20
33
75
4
68
36
2
21
47
63
79
57
15
78
61
3
51
42
53
56
52
73
32
76
35
38
69
8
34
46
24
81
18
12
22
55
49
11
31

> <PUBCHEM_MMFF94_PARTIAL_CHARGES>
18
1 -0.65
12 0.36
13 0.57
14 0.66
16 0.57
17 0.33
2 -0.57
20 0.37
3 -0.57
31 0.37
32 0.5
35 0.36
36 0.36
4 -0.57
5 -0.73
6 -0.73
7 -0.99
9 0.36

> <PUBCHEM_EFFECTIVE_ROTOR_COUNT>
8

> <PUBCHEM_PHARMACOPHORE_FEATURES>
10
1 1 acceptor
1 2 acceptor
1 3 acceptor
1 4 acceptor
1 5 donor
1 6 donor
1 7 cation
1 7 donor
3 1 3 14 anion
3 8 10 11 hydrophobe

> <PUBCHEM_HEAVY_ATOM_COUNT>
17

> <PUBCHEM_ATOM_DEF_STEREO_COUNT>
2

> <PUBCHEM_ATOM_UDEF_STEREO_COUNT>
0

> <PUBCHEM_BOND_DEF_STEREO_COUNT>
0

> <PUBCHEM_BOND_UDEF_STEREO_COUNT>
0

> <PUBCHEM_ISOTOPIC_ATOM_COUNT>
0

> <PUBCHEM_COMPONENT_COUNT>
1

> <PUBCHEM_CACTVS_TAUTO_COUNT>
4

> <PUBCHEM_CONFORMER_ID>
0001F99F00000001

> <PUBCHEM_MMFF94_ENERGY>
27.1577

> <PUBCHEM_FEATURE_SELFOVERLAP>
50.809

> <PUBCHEM_SHAPE_FINGERPRINT>
10618630 7 18409449163751028175
12553582 1 18201145646391782111
14178342 30 17836074581451611762
14252887 29 16988291948718679060
15099037 8 18264202509073904985
15375462 189 18059570325759821443
15852999 172 16443070491109188378
17492 89 18264767666609595402
18186145 218 16805604720399069961
18522851 268 18267300933052175748
19422 9 18410577245480073889
200 152 18333729130461064504
20281475 54 18412543198098428433
20645477 70 18339074883223610191
20871999 31 18334002896688877885
21069387 34 17750234712396943314
21501502 16 18264491680959330336
21524375 3 18340209695783645220
221490 88 18269841913214652918
22485316 2 18410291411285539993
23402539 116 18114174229200415720
23532345 88 18261956228730947390
23557571 272 18338517443444314637
23558518 356 18189343359424539785
23559900 14 18266168436117530408
23598288 3 18198614437475588637
2871803 45 18409727348434728055
312423 11 18263937548383551754
351380 180 7997978955398380083
53777708 50 18265057942200726576
58051976 100 18121217576133618085
58051976 378 18410011039777859838
83771 10 18341893034847343113
9709674 26 18261681384762086570
9971528 1 11530751618480549504

> <PUBCHEM_SHAPE_MULTIPOLES>
311.43
8.47
2.54
1.08
4.26
0.26
0
-3.64
0.09
-0.05
0.19
-0.3
-0.25
-0.43

> <PUBCHEM_SHAPE_SELFOVERLAP>
601.473

> <PUBCHEM_SHAPE_VOLUME>
188.6

> <PUBCHEM_COORDINATE_TYPE>
2
5
10

$$$$
