129458
  -OEChem-03292013323D

 79 82  0     1  0  0  0  0  0999 V2000
   -0.0384    0.1277    1.8449 O   0  0  0  0  0  0  0  0  0  0  0  0
   -2.2892    1.4593   -2.1229 O   0  0  0  0  0  0  0  0  0  0  0  0
   -5.2765    3.5626    1.2225 O   0  0  0  0  0  0  0  0  0  0  0  0
    4.9360   -2.6073    0.5148 O   0  0  0  0  0  0  0  0  0  0  0  0
    4.6717    3.3166    0.7311 O   0  0  0  0  0  0  0  0  0  0  0  0
    5.2647    2.7184   -1.3756 O   0  0  0  0  0  0  0  0  0  0  0  0
    0.0518   -1.5208    0.0159 C   0  0  1  0  0  0  0  0  0  0  0  0
   -0.6071   -0.5938   -1.0324 C   0  0  2  0  0  0  0  0  0  0  0  0
   -2.1354   -0.7428   -1.0936 C   0  0  1  0  0  0  0  0  0  0  0  0
   -2.7347   -0.4056    0.3134 C   0  0  1  0  0  0  0  0  0  0  0  0
   -4.3070   -0.5403    0.3246 C   0  0  2  0  0  0  0  0  0  0  0  0
    1.5386   -1.1695   -0.2544 C   0  0  2  0  0  0  0  0  0  0  0  0
   -0.4876   -1.1567    1.4140 C   0  0  2  0  0  0  0  0  0  0  0  0
   -2.0300   -1.1975    1.4552 C   0  0  0  0  0  0  0  0  0  0  0  0
   -4.9121    0.3723   -0.7937 C   0  0  2  0  0  0  0  0  0  0  0  0
    0.2008   -0.8538   -2.3032 C   0  0  0  0  0  0  0  0  0  0  0  0
   -2.7613    0.1180   -2.2081 C   0  0  1  0  0  0  0  0  0  0  0  0
    1.6302   -1.1171   -1.7969 C   0  0  0  0  0  0  0  0  0  0  0  0
   -4.2920    0.0940   -2.1779 C   0  0  0  0  0  0  0  0  0  0  0  0
   -4.9338   -0.1353    1.6918 C   0  0  0  0  0  0  0  0  0  0  0  0
   -0.2127   -3.0299   -0.2408 C   0  0  0  0  0  0  0  0  0  0  0  0
    2.5765   -2.0911    0.3699 C   0  0  1  0  0  0  0  0  0  0  0  0
   -4.8454    1.8744   -0.4451 C   0  0  0  0  0  0  0  0  0  0  0  0
   -4.7471   -2.0085    0.0781 C   0  0  0  0  0  0  0  0  0  0  0  0
   -4.8234    1.3493    2.0110 C   0  0  0  0  0  0  0  0  0  0  0  0
   -5.4659    2.1859    0.9133 C   0  0  1  0  0  0  0  0  0  0  0  0
    4.0125   -1.6521   -0.0141 C   0  0  1  0  0  0  0  0  0  0  0  0
    2.3651   -2.1499    1.8896 C   0  0  0  0  0  0  0  0  0  0  0  0
    4.4433   -0.2569    0.4666 C   0  0  0  0  0  0  0  0  0  0  0  0
    5.8901    0.1002    0.1089 C   0  0  0  0  0  0  0  0  0  0  0  0
    6.2558    1.5393    0.5142 C   0  0  1  0  0  0  0  0  0  0  0  0
    7.7044    1.8497    0.1444 C   0  0  0  0  0  0  0  0  0  0  0  0
    5.3582    2.5611   -0.1653 C   0  0  0  0  0  0  0  0  0  0  0  0
   -0.3899    0.4460   -0.7420 H   0  0  0  0  0  0  0  0  0  0  0  0
   -2.3707   -1.7829   -1.3396 H   0  0  0  0  0  0  0  0  0  0  0  0
   -2.4955    0.6447    0.5210 H   0  0  0  0  0  0  0  0  0  0  0  0
    1.7106   -0.1474    0.1082 H   0  0  0  0  0  0  0  0  0  0  0  0
   -0.1566   -1.8665    2.1727 H   0  0  0  0  0  0  0  0  0  0  0  0
   -2.3508   -2.2433    1.4311 H   0  0  0  0  0  0  0  0  0  0  0  0
   -2.3515   -0.7904    2.4204 H   0  0  0  0  0  0  0  0  0  0  0  0
   -5.9827    0.1333   -0.8795 H   0  0  0  0  0  0  0  0  0  0  0  0
   -0.1778   -1.7247   -2.8498 H   0  0  0  0  0  0  0  0  0  0  0  0
    0.1740    0.0016   -2.9859 H   0  0  0  0  0  0  0  0  0  0  0  0
   -2.4359   -0.2569   -3.1851 H   0  0  0  0  0  0  0  0  0  0  0  0
    2.3073   -0.3176   -2.1179 H   0  0  0  0  0  0  0  0  0  0  0  0
    2.0013   -2.0555   -2.2244 H   0  0  0  0  0  0  0  0  0  0  0  0
   -4.6820    0.8248   -2.8976 H   0  0  0  0  0  0  0  0  0  0  0  0
   -4.6313   -0.8898   -2.5244 H   0  0  0  0  0  0  0  0  0  0  0  0
   -6.0025   -0.3935    1.6843 H   0  0  0  0  0  0  0  0  0  0  0  0
   -4.5044   -0.7191    2.5128 H   0  0  0  0  0  0  0  0  0  0  0  0
    0.2307   -3.6546    0.5408 H   0  0  0  0  0  0  0  0  0  0  0  0
   -1.2782   -3.2737   -0.2541 H   0  0  0  0  0  0  0  0  0  0  0  0
    0.1985   -3.3721   -1.1955 H   0  0  0  0  0  0  0  0  0  0  0  0
    2.4607   -3.1161   -0.0061 H   0  0  0  0  0  0  0  0  0  0  0  0
   -3.8236    2.2579   -0.4396 H   0  0  0  0  0  0  0  0  0  0  0  0
   -5.3650    2.4588   -1.2156 H   0  0  0  0  0  0  0  0  0  0  0  0
   -5.8391   -2.0792    0.0056 H   0  0  0  0  0  0  0  0  0  0  0  0
   -4.3434   -2.4295   -0.8455 H   0  0  0  0  0  0  0  0  0  0  0  0
   -4.4432   -2.6640    0.9005 H   0  0  0  0  0  0  0  0  0  0  0  0
   -3.7768    1.6427    2.1550 H   0  0  0  0  0  0  0  0  0  0  0  0
   -5.3178    1.5582    2.9679 H   0  0  0  0  0  0  0  0  0  0  0  0
   -6.5455    1.9978    0.8750 H   0  0  0  0  0  0  0  0  0  0  0  0
   -0.3916    0.2809    2.7377 H   0  0  0  0  0  0  0  0  0  0  0  0
    4.1203   -1.6998   -1.1040 H   0  0  0  0  0  0  0  0  0  0  0  0
   -2.0586    1.6751   -1.2070 H   0  0  0  0  0  0  0  0  0  0  0  0
    2.1751   -1.1665    2.3278 H   0  0  0  0  0  0  0  0  0  0  0  0
    3.2612   -2.5405    2.3859 H   0  0  0  0  0  0  0  0  0  0  0  0
    1.5756   -2.8510    2.1633 H   0  0  0  0  0  0  0  0  0  0  0  0
    4.3458   -0.1982    1.5574 H   0  0  0  0  0  0  0  0  0  0  0  0
    3.7700    0.4917    0.0397 H   0  0  0  0  0  0  0  0  0  0  0  0
   -5.6971    3.7313    2.0828 H   0  0  0  0  0  0  0  0  0  0  0  0
    5.7615   -2.5372    0.0065 H   0  0  0  0  0  0  0  0  0  0  0  0
    6.0305   -0.0263   -0.9722 H   0  0  0  0  0  0  0  0  0  0  0  0
    6.5804   -0.5900    0.6079 H   0  0  0  0  0  0  0  0  0  0  0  0
    6.1447    1.6416    1.6010 H   0  0  0  0  0  0  0  0  0  0  0  0
    8.3920    1.1733    0.6627 H   0  0  0  0  0  0  0  0  0  0  0  0
    7.9653    2.8766    0.4233 H   0  0  0  0  0  0  0  0  0  0  0  0
    7.8748    1.7480   -0.9332 H   0  0  0  0  0  0  0  0  0  0  0  0
    4.1014    3.9807    0.2882 H   0  0  0  0  0  0  0  0  0  0  0  0
  1 13  1  0  0  0  0
  1 63  1  0  0  0  0
  2 17  1  0  0  0  0
  2 65  1  0  0  0  0
  3 26  1  0  0  0  0
  3 71  1  0  0  0  0
  4 27  1  0  0  0  0
  4 72  1  0  0  0  0
  5 33  1  0  0  0  0
  5 79  1  0  0  0  0
  6 33  2  0  0  0  0
  7  8  1  0  0  0  0
  7 12  1  0  0  0  0
  7 13  1  0  0  0  0
  7 21  1  0  0  0  0
  8  9  1  0  0  0  0
  8 16  1  0  0  0  0
  8 34  1  0  0  0  0
  9 10  1  0  0  0  0
  9 17  1  0  0  0  0
  9 35  1  0  0  0  0
 10 11  1  0  0  0  0
 10 14  1  0  0  0  0
 10 36  1  0  0  0  0
 11 15  1  0  0  0  0
 11 20  1  0  0  0  0
 11 24  1  0  0  0  0
 12 18  1  0  0  0  0
 12 22  1  0  0  0  0
 12 37  1  0  0  0  0
 13 14  1  0  0  0  0
 13 38  1  0  0  0  0
 14 39  1  0  0  0  0
 14 40  1  0  0  0  0
 15 19  1  0  0  0  0
 15 23  1  0  0  0  0
 15 41  1  0  0  0  0
 16 18  1  0  0  0  0
 16 42  1  0  0  0  0
 16 43  1  0  0  0  0
 17 19  1  0  0  0  0
 17 44  1  0  0  0  0
 18 45  1  0  0  0  0
 18 46  1  0  0  0  0
 19 47  1  0  0  0  0
 19 48  1  0  0  0  0
 20 25  1  0  0  0  0
 20 49  1  0  0  0  0
 20 50  1  0  0  0  0
 21 51  1  0  0  0  0
 21 52  1  0  0  0  0
 21 53  1  0  0  0  0
 22 27  1  0  0  0  0
 22 28  1  0  0  0  0
 22 54  1  0  0  0  0
 23 26  1  0  0  0  0
 23 55  1  0  0  0  0
 23 56  1  0  0  0  0
 24 57  1  0  0  0  0
 24 58  1  0  0  0  0
 24 59  1  0  0  0  0
 25 26  1  0  0  0  0
 25 60  1  0  0  0  0
 25 61  1  0  0  0  0
 26 62  1  0  0  0  0
 27 29  1  0  0  0  0
 27 64  1  0  0  0  0
 28 66  1  0  0  0  0
 28 67  1  0  0  0  0
 28 68  1  0  0  0  0
 29 30  1  0  0  0  0
 29 69  1  0  0  0  0
 29 70  1  0  0  0  0
 30 31  1  0  0  0  0
 30 73  1  0  0  0  0
 30 74  1  0  0  0  0
 31 32  1  0  0  0  0
 31 33  1  0  0  0  0
 31 75  1  0  0  0  0
 32 76  1  0  0  0  0
 32 77  1  0  0  0  0
 32 78  1  0  0  0  0
M  END
> <PUBCHEM_COMPOUND_CID>
129458

> <PUBCHEM_CONFORMER_RMSD>
1

> <PUBCHEM_CONFORMER_DIVERSEORDER>
2
11
4
5
9
6
3
8
1
7
10

> <PUBCHEM_MMFF94_PARTIAL_CHARGES>
17
1 -0.68
13 0.28
17 0.28
2 -0.68
26 0.28
27 0.28
3 -0.68
31 0.06
33 0.66
4 -0.68
5 -0.65
6 -0.57
63 0.4
65 0.4
71 0.4
72 0.4
79 0.5

> <PUBCHEM_EFFECTIVE_ROTOR_COUNT>
8.2

> <PUBCHEM_PHARMACOPHORE_FEATURES>
17
1 1 acceptor
1 1 donor
1 2 acceptor
1 2 donor
1 28 hydrophobe
1 3 acceptor
1 3 donor
1 32 hydrophobe
1 4 acceptor
1 4 donor
1 5 acceptor
1 6 acceptor
3 5 6 33 anion
5 7 8 12 16 18 rings
6 11 15 20 23 25 26 rings
6 7 8 9 10 13 14 rings
6 9 10 11 15 17 19 rings

> <PUBCHEM_HEAVY_ATOM_COUNT>
33

> <PUBCHEM_ATOM_DEF_STEREO_COUNT>
12

> <PUBCHEM_ATOM_UDEF_STEREO_COUNT>
1

> <PUBCHEM_BOND_DEF_STEREO_COUNT>
0

> <PUBCHEM_BOND_UDEF_STEREO_COUNT>
0

> <PUBCHEM_ISOTOPIC_ATOM_COUNT>
0

> <PUBCHEM_COMPONENT_COUNT>
1

> <PUBCHEM_CACTVS_TAUTO_COUNT>
1

> <PUBCHEM_CONFORMER_ID>
0001F9B200000002

> <PUBCHEM_MMFF94_ENERGY>
116.3228

> <PUBCHEM_FEATURE_SELFOVERLAP>
86.453

> <PUBCHEM_SHAPE_FINGERPRINT>
10 15 16660365896243801934
11479125 193 18054786458342978720
11578080 2 18261404376704234338
12422481 6 18409731720706673964
12788726 201 17274831220606062384
13690498 29 16055455353422543599
13782708 43 10375868572081291912
14202776 33 17846212323704782319
14251764 30 8574709083359840146
14790565 3 18342458144752485672
14856354 85 17346031303043829743
15183329 4 13830140489985988758
15475509 35 11747234479689511572
15575132 122 17704073988484023952
15840311 113 18336271124435946149
17349148 13 12974187128881636603
18393751 57 18187652422780077283
19315092 285 11963394042336894982
21033648 144 18260260841688112959
21033648 29 17167857522352254533
21033650 10 15769784571299537239
21298829 104 18343299297735702912
22122407 14 18341620330077936904
22393880 68 14836107858688090151
23559900 14 16444465664049565490
23569914 152 11381337728856435001
23569914 2 17760035819003400864
2838139 119 18201156645945763624
392239 28 17822006506167611028
397830 11 17895201029614797578
4058900 60 17845942844213578502
4258327 124 18060699464863672909
474113 269 13262679287938182361
5104073 3 17967532354808812906
56638632 10 18263360450940402204
57724786 102 18411418376286464114
6608658 132 17060348391853371024

> <PUBCHEM_SHAPE_MULTIPOLES>
643.91
16.59
3.34
2.08
17.54
1.77
-0.54
14.06
2.95
2.33
0.75
-2.16
0.07
-1.25

> <PUBCHEM_SHAPE_SELFOVERLAP>
1340.285

> <PUBCHEM_SHAPE_VOLUME>
362.8

> <PUBCHEM_COORDINATE_TYPE>
2
5
10

$$$$
