129556
  -OEChem-03292013323D

 37 38  0     1  0  0  0  0  0999 V2000
   -1.7039   -0.7424    1.0360 O   0  0  0  0  0  0  0  0  0  0  0  0
   -0.4423    0.5793   -0.4782 O   0  0  0  0  0  0  0  0  0  0  0  0
   -4.6677    1.3926   -0.9285 O   0  0  0  0  0  0  0  0  0  0  0  0
   -4.3963   -1.4106   -1.3917 O   0  0  0  0  0  0  0  0  0  0  0  0
   -3.3186    1.5898    1.4976 O   0  0  0  0  0  0  0  0  0  0  0  0
    6.4134   -1.0234   -1.2082 N   0  0  0  0  0  0  0  0  0  0  0  0
   -3.4418    0.6874   -0.7475 C   0  0  2  0  0  0  0  0  0  0  0  0
   -3.7455   -0.7465   -0.3112 C   0  0  2  0  0  0  0  0  0  0  0  0
   -2.5771    1.4040    0.2909 C   0  0  2  0  0  0  0  0  0  0  0  0
   -2.4437   -1.4738    0.0531 C   0  0  2  0  0  0  0  0  0  0  0  0
   -1.3362    0.5801    0.6296 C   0  0  1  0  0  0  0  0  0  0  0  0
   -2.7068   -2.8605    0.6339 C   0  0  0  0  0  0  0  0  0  0  0  0
    0.8937    0.4838   -0.1920 C   0  0  0  0  0  0  0  0  0  0  0  0
    1.7568    1.4998   -0.5877 C   0  0  0  0  0  0  0  0  0  0  0  0
    1.3743   -0.6277    0.4917 C   0  0  0  0  0  0  0  0  0  0  0  0
    3.6065    0.2911    0.3891 C   0  0  0  0  0  0  0  0  0  0  0  0
    3.1175    1.4031   -0.2962 C   0  0  0  0  0  0  0  0  0  0  0  0
    2.7350   -0.7243    0.7831 C   0  0  0  0  0  0  0  0  0  0  0  0
    5.0610    0.1878    0.7010 C   0  0  0  0  0  0  0  0  0  0  0  0
    5.8218   -0.4895   -0.3647 C   0  0  0  0  0  0  0  0  0  0  0  0
   -2.9311    0.6831   -1.7184 H   0  0  0  0  0  0  0  0  0  0  0  0
   -4.4440   -0.7335    0.5344 H   0  0  0  0  0  0  0  0  0  0  0  0
   -2.3063    2.3986   -0.0799 H   0  0  0  0  0  0  0  0  0  0  0  0
   -1.8204   -1.6062   -0.8407 H   0  0  0  0  0  0  0  0  0  0  0  0
   -0.8501    1.0430    1.4994 H   0  0  0  0  0  0  0  0  0  0  0  0
   -3.3303   -2.7956    1.5324 H   0  0  0  0  0  0  0  0  0  0  0  0
   -3.1976   -3.5187   -0.0884 H   0  0  0  0  0  0  0  0  0  0  0  0
   -1.7646   -3.3288    0.9396 H   0  0  0  0  0  0  0  0  0  0  0  0
   -5.1964    0.8958   -1.5762 H   0  0  0  0  0  0  0  0  0  0  0  0
   -4.7315   -2.2600   -1.0593 H   0  0  0  0  0  0  0  0  0  0  0  0
   -3.4354    0.7234    1.9224 H   0  0  0  0  0  0  0  0  0  0  0  0
    1.3798    2.3675   -1.1215 H   0  0  0  0  0  0  0  0  0  0  0  0
    0.7187   -1.4388    0.7912 H   0  0  0  0  0  0  0  0  0  0  0  0
    3.7858    2.2007   -0.6099 H   0  0  0  0  0  0  0  0  0  0  0  0
    3.1042   -1.5985    1.3130 H   0  0  0  0  0  0  0  0  0  0  0  0
    5.2013   -0.3471    1.6487 H   0  0  0  0  0  0  0  0  0  0  0  0
    5.4776    1.1890    0.8694 H   0  0  0  0  0  0  0  0  0  0  0  0
  1 10  1  0  0  0  0
  1 11  1  0  0  0  0
  2 11  1  0  0  0  0
  2 13  1  0  0  0  0
  3  7  1  0  0  0  0
  3 29  1  0  0  0  0
  4  8  1  0  0  0  0
  4 30  1  0  0  0  0
  5  9  1  0  0  0  0
  5 31  1  0  0  0  0
  6 20  3  0  0  0  0
  7  8  1  0  0  0  0
  7  9  1  0  0  0  0
  7 21  1  0  0  0  0
  8 10  1  0  0  0  0
  8 22  1  0  0  0  0
  9 11  1  0  0  0  0
  9 23  1  0  0  0  0
 10 12  1  0  0  0  0
 10 24  1  0  0  0  0
 11 25  1  0  0  0  0
 12 26  1  0  0  0  0
 12 27  1  0  0  0  0
 12 28  1  0  0  0  0
 13 14  2  0  0  0  0
 13 15  1  0  0  0  0
 14 17  1  0  0  0  0
 14 32  1  0  0  0  0
 15 18  2  0  0  0  0
 15 33  1  0  0  0  0
 16 17  2  0  0  0  0
 16 18  1  0  0  0  0
 16 19  1  0  0  0  0
 17 34  1  0  0  0  0
 18 35  1  0  0  0  0
 19 20  1  0  0  0  0
 19 36  1  0  0  0  0
 19 37  1  0  0  0  0
M  END
> <PUBCHEM_COMPOUND_CID>
129556

> <PUBCHEM_CONFORMER_RMSD>
0.6

> <PUBCHEM_CONFORMER_DIVERSEORDER>
1
75
40
62
77
74
15
54
78
33
76
27
66
10
71
48
49
57
63
47
21
68
73
37
55
58
64
20
26
8
32
67
61
72
70
80
4
17
52
79
2
14
65
53
43
23
29
60
13
39
16
35
46
6
56
50
9
59
34
5
12
38
69
36
7
22
44
18
11
42
51
3
45
41
19
24
31
28
25
30

> <PUBCHEM_MMFF94_PARTIAL_CHARGES>
26
1 -0.56
10 0.28
11 0.56
13 0.08
14 -0.15
15 -0.15
16 -0.14
17 -0.15
18 -0.15
19 0.34
2 -0.36
20 0.36
29 0.4
3 -0.68
30 0.4
31 0.4
32 0.15
33 0.15
34 0.15
35 0.15
4 -0.68
5 -0.68
6 -0.56
7 0.28
8 0.28
9 0.28

> <PUBCHEM_EFFECTIVE_ROTOR_COUNT>
4.2

> <PUBCHEM_PHARMACOPHORE_FEATURES>
11
1 1 acceptor
1 2 acceptor
1 3 acceptor
1 3 donor
1 4 acceptor
1 4 donor
1 5 acceptor
1 5 donor
1 6 acceptor
6 1 7 8 9 10 11 rings
6 13 14 15 16 17 18 rings

> <PUBCHEM_HEAVY_ATOM_COUNT>
20

> <PUBCHEM_ATOM_DEF_STEREO_COUNT>
5

> <PUBCHEM_ATOM_UDEF_STEREO_COUNT>
0

> <PUBCHEM_BOND_DEF_STEREO_COUNT>
0

> <PUBCHEM_BOND_UDEF_STEREO_COUNT>
0

> <PUBCHEM_ISOTOPIC_ATOM_COUNT>
0

> <PUBCHEM_COMPONENT_COUNT>
1

> <PUBCHEM_CACTVS_TAUTO_COUNT>
1

> <PUBCHEM_CONFORMER_ID>
0001FA1400000001

> <PUBCHEM_MMFF94_ENERGY>
58.8269

> <PUBCHEM_FEATURE_SELFOVERLAP>
55.876

> <PUBCHEM_SHAPE_FINGERPRINT>
10291535 26 15338565920944055425
10366900 7 17917701379699109504
10616163 171 18409165549427527747
10680689 15 18113622278695071896
11315181 36 18131912663476797976
11595378 159 12391243651879074070
12236239 1 18413666920082487332
12596602 18 13758065286856928134
12916754 54 18338241590574129913
13288520 33 18413388739345497885
13583140 156 17346309445251966410
13675066 3 18060698412343062040
13760787 5 16515682230886955394
14573314 32 18131072615350293198
15196674 1 18261392303841198216
15788980 27 16415480437454576912
15880784 105 16988274386682061446
17349148 13 18410283722687509642
17492 89 18118969332716910362
17834072 33 18410011065874958156
17844677 252 17489592277324708264
17870717 6 18410016528561733790
18186145 218 13407075933341588372
18222031 100 18334852823508954548
18927931 339 17704080598301399620
19489759 90 18060414698923648600
200 152 18341324578302522253
21267235 1 18334019423285182835
21682296 61 16987733286087177310
21709351 56 18334008402298881460
221490 88 18117001189822918906
22393880 68 18260823830459652938
23402539 116 18341886403402020541
23402655 69 17968089790082065908
23557571 272 17917998264923785936
23559900 14 18340759438069215880
25122255 55 17989497324672633470
2916195 48 7853564687596608070
29717793 49 18342454859297683276
312423 11 18117012163264120788
3545911 37 18409449172056002801
4214541 1 18335417984547542049
5104073 3 18337390538979180280
542803 24 15502376712527548584
559249 180 18335976493520791970
58051976 100 18260545649332455270
59755656 215 18339924822912816854
59755656 520 18271812259737148905
633830 44 16298386898561440164
7495541 125 15697708316102981402
9709674 26 18411700997581937279

> <PUBCHEM_SHAPE_MULTIPOLES>
377.26
12.23
1.98
1.09
12.69
0.79
0
2.03
3.13
-2.12
-0.1
-0.32
0.01
0.03

> <PUBCHEM_SHAPE_SELFOVERLAP>
788.041

> <PUBCHEM_SHAPE_VOLUME>
209.7

> <PUBCHEM_COORDINATE_TYPE>
2
5
10

$$$$
