129596
  -OEChem-03292013323D

 30 30  0     1  0  0  0  0  0999 V2000
   -3.1197   -0.2836   -0.7983 S   0  0  0  0  0  0  0  0  0  0  0  0
   -0.4880   -1.0420    0.8932 O   0  0  0  0  0  0  0  0  0  0  0  0
    3.1467   -2.2784    0.5723 O   0  0  0  0  0  0  0  0  0  0  0  0
    2.9727   -0.1859    1.4597 O   0  0  0  0  0  0  0  0  0  0  0  0
   -5.3623   -1.2308   -0.8994 O   0  0  0  0  0  0  0  0  0  0  0  0
    0.9469    0.3341   -0.2915 N   0  0  0  0  0  0  0  0  0  0  0  0
   -4.6750   -0.5446   -0.1364 N   0  0  0  0  0  0  0  0  0  0  0  0
    1.9099   -0.6988   -0.6504 C   0  0  1  0  0  0  0  0  0  0  0  0
    2.7558   -0.0732   -1.7534 C   0  0  0  0  0  0  0  0  0  0  0  0
    2.7102    1.4187   -1.4327 C   0  0  0  0  0  0  0  0  0  0  0  0
    1.3022    1.6172   -0.8924 C   0  0  0  0  0  0  0  0  0  0  0  0
   -0.2222    0.0548    0.3989 C   0  0  0  0  0  0  0  0  0  0  0  0
   -1.1881    1.2049    0.5329 C   0  0  1  0  0  0  0  0  0  0  0  0
    2.7216   -0.9912    0.5755 C   0  0  0  0  0  0  0  0  0  0  0  0
   -2.6235    0.6982    0.6523 C   0  0  0  0  0  0  0  0  0  0  0  0
   -0.7872    2.0003    1.7697 C   0  0  0  0  0  0  0  0  0  0  0  0
    1.3785   -1.6011   -0.9711 H   0  0  0  0  0  0  0  0  0  0  0  0
    2.2831   -0.2484   -2.7275 H   0  0  0  0  0  0  0  0  0  0  0  0
    3.7798   -0.4565   -1.7943 H   0  0  0  0  0  0  0  0  0  0  0  0
    3.4485    1.6566   -0.6578 H   0  0  0  0  0  0  0  0  0  0  0  0
    2.9191    2.0473   -2.3029 H   0  0  0  0  0  0  0  0  0  0  0  0
    1.2496    2.4362   -0.1735 H   0  0  0  0  0  0  0  0  0  0  0  0
    0.6028    1.8121   -1.7129 H   0  0  0  0  0  0  0  0  0  0  0  0
   -1.1383    1.8624   -0.3407 H   0  0  0  0  0  0  0  0  0  0  0  0
   -2.7369    0.0854    1.5559 H   0  0  0  0  0  0  0  0  0  0  0  0
   -3.2988    1.5574    0.7498 H   0  0  0  0  0  0  0  0  0  0  0  0
    0.2542    2.3317    1.7420 H   0  0  0  0  0  0  0  0  0  0  0  0
   -1.4180    2.8894    1.8759 H   0  0  0  0  0  0  0  0  0  0  0  0
   -0.9033    1.3993    2.6794 H   0  0  0  0  0  0  0  0  0  0  0  0
    3.6819   -2.4894    1.3669 H   0  0  0  0  0  0  0  0  0  0  0  0
  1  7  1  0  0  0  0
  1 15  1  0  0  0  0
  2 12  2  0  0  0  0
  3 14  1  0  0  0  0
  3 30  1  0  0  0  0
  4 14  2  0  0  0  0
  5  7  2  0  0  0  0
  6  8  1  0  0  0  0
  6 11  1  0  0  0  0
  6 12  1  0  0  0  0
  8  9  1  0  0  0  0
  8 14  1  0  0  0  0
  8 17  1  0  0  0  0
  9 10  1  0  0  0  0
  9 18  1  0  0  0  0
  9 19  1  0  0  0  0
 10 11  1  0  0  0  0
 10 20  1  0  0  0  0
 10 21  1  0  0  0  0
 11 22  1  0  0  0  0
 11 23  1  0  0  0  0
 12 13  1  0  0  0  0
 13 15  1  0  0  0  0
 13 16  1  0  0  0  0
 13 24  1  0  0  0  0
 15 25  1  0  0  0  0
 15 26  1  0  0  0  0
 16 27  1  0  0  0  0
 16 28  1  0  0  0  0
 16 29  1  0  0  0  0
M  END
> <PUBCHEM_COMPOUND_CID>
129596

> <PUBCHEM_CONFORMER_RMSD>
0.8

> <PUBCHEM_CONFORMER_DIVERSEORDER>
1
13
4
15
29
34
35
28
17
8
18
24
20
22
10
19
14
26
3
25
2
7
11
30
5
16
6
31
27
9
21
12
23
32
33

> <PUBCHEM_MMFF94_PARTIAL_CHARGES>
14
1 -0.04
11 0.3
12 0.57
13 0.06
14 0.66
15 0.23
2 -0.57
3 -0.65
30 0.5
4 -0.57
5 -0.16
6 -0.66
7 -0.03
8 0.36

> <PUBCHEM_EFFECTIVE_ROTOR_COUNT>
7

> <PUBCHEM_PHARMACOPHORE_FEATURES>
6
1 16 hydrophobe
1 2 acceptor
1 3 acceptor
1 4 acceptor
3 3 4 14 anion
5 6 8 9 10 11 rings

> <PUBCHEM_HEAVY_ATOM_COUNT>
16

> <PUBCHEM_ATOM_DEF_STEREO_COUNT>
2

> <PUBCHEM_ATOM_UDEF_STEREO_COUNT>
0

> <PUBCHEM_BOND_DEF_STEREO_COUNT>
0

> <PUBCHEM_BOND_UDEF_STEREO_COUNT>
0

> <PUBCHEM_ISOTOPIC_ATOM_COUNT>
0

> <PUBCHEM_COMPONENT_COUNT>
1

> <PUBCHEM_CACTVS_TAUTO_COUNT>
1

> <PUBCHEM_CONFORMER_ID>
0001FA3C00000001

> <PUBCHEM_MMFF94_ENERGY>
31.5618

> <PUBCHEM_FEATURE_SELFOVERLAP>
30.502

> <PUBCHEM_SHAPE_FINGERPRINT>
11543360 7 17676489501460131823
11578080 2 18266999709552899329
12553582 1 17704074040629981447
13296908 3 15913332351477669833
14178342 30 17843125792243137643
14252887 29 16630245891713130935
16945 1 17751953309453906764
18186145 218 15791738473101012905
192875 21 18186800249148213617
200 152 18410581686207206525
20645477 70 17603596217938736931
20671657 53 17895749595653971047
21069387 34 18187929417488498658
22112679 90 18195544600815854168
23557571 272 17561365058473468129
23598291 2 18189625959882999101
251288 83 16343695556200964669
2748010 2 17393077283782176132
31174 14 14620799271222726492
3286 77 17749380460449451053
495365 180 15864065502921407464
6049 1 14636311194010218116
633830 44 14634863167857183927
7164475 11 18337390431452133293
7615 1 18337966575175913560
77492 1 18339094687111999113

> <PUBCHEM_SHAPE_MULTIPOLES>
299.68
7.43
1.82
1.57
9.16
0.28
0.08
-3.89
1.86
-0.25
-0.44
-1.09
0.29
-1.51

> <PUBCHEM_SHAPE_SELFOVERLAP>
589.875

> <PUBCHEM_SHAPE_VOLUME>
181.4

> <PUBCHEM_COORDINATE_TYPE>
2
5
10

$$$$
