129533
  -OEChem-03292013323D

 32 33  0     1  0  0  0  0  0999 V2000
   -1.5628    0.5125   -1.0757 O   0  0  0  0  0  0  0  0  0  0  0  0
   -2.2339   -2.1996    1.1735 O   0  0  0  0  0  0  0  0  0  0  0  0
   -4.1669   -0.8120   -0.1620 O   0  0  0  0  0  0  0  0  0  0  0  0
   -1.7068    3.2485   -0.4828 O   0  0  0  0  0  0  0  0  0  0  0  0
    2.9276    2.2632    0.4537 O   0  0  0  0  0  0  0  0  0  0  0  0
    2.2125   -2.3818   -0.4025 N   0  0  0  0  0  0  0  0  0  0  0  0
    4.7037    0.8357    0.3958 N   0  0  0  0  0  0  0  0  0  0  0  0
   -1.9494   -0.8621    0.8154 C   0  0  2  0  0  0  0  0  0  0  0  0
   -3.1991   -0.0444    0.5532 C   0  0  1  0  0  0  0  0  0  0  0  0
   -1.2154   -0.7715   -0.5177 C   0  0  2  0  0  0  0  0  0  0  0  0
   -2.6768    1.0701   -0.3443 C   0  0  1  0  0  0  0  0  0  0  0  0
    0.2810   -0.9306   -0.3786 C   0  0  0  0  0  0  0  0  0  0  0  0
   -2.1786    2.2788    0.4360 C   0  0  0  0  0  0  0  0  0  0  0  0
    1.0946    0.1636   -0.1106 C   0  0  0  0  0  0  0  0  0  0  0  0
    0.8818   -2.1706   -0.5143 C   0  0  0  0  0  0  0  0  0  0  0  0
    2.4684   -0.0136    0.0117 C   0  0  0  0  0  0  0  0  0  0  0  0
    2.9731   -1.2949   -0.1416 C   0  0  0  0  0  0  0  0  0  0  0  0
    3.3469    1.1086    0.2909 C   0  0  0  0  0  0  0  0  0  0  0  0
   -1.3718   -0.3977    1.6243 H   0  0  0  0  0  0  0  0  0  0  0  0
   -3.6810    0.3162    1.4669 H   0  0  0  0  0  0  0  0  0  0  0  0
   -1.5864   -1.5279   -1.2216 H   0  0  0  0  0  0  0  0  0  0  0  0
   -3.4175    1.3838   -1.0885 H   0  0  0  0  0  0  0  0  0  0  0  0
   -1.3507    2.0190    1.1024 H   0  0  0  0  0  0  0  0  0  0  0  0
   -2.9878    2.7207    1.0258 H   0  0  0  0  0  0  0  0  0  0  0  0
   -1.3861   -2.6605    1.2907 H   0  0  0  0  0  0  0  0  0  0  0  0
   -4.3883   -1.5816    0.3896 H   0  0  0  0  0  0  0  0  0  0  0  0
    0.6626    1.1530    0.0067 H   0  0  0  0  0  0  0  0  0  0  0  0
    0.2983   -3.0621   -0.7223 H   0  0  0  0  0  0  0  0  0  0  0  0
   -1.3978    4.0099    0.0371 H   0  0  0  0  0  0  0  0  0  0  0  0
    4.0223   -1.5504   -0.0671 H   0  0  0  0  0  0  0  0  0  0  0  0
    5.1385   -0.0712    0.2852 H   0  0  0  0  0  0  0  0  0  0  0  0
    5.3484    1.5934    0.5988 H   0  0  0  0  0  0  0  0  0  0  0  0
  1 10  1  0  0  0  0
  1 11  1  0  0  0  0
  2  8  1  0  0  0  0
  2 25  1  0  0  0  0
  3  9  1  0  0  0  0
  3 26  1  0  0  0  0
  4 13  1  0  0  0  0
  4 29  1  0  0  0  0
  5 18  2  0  0  0  0
  6 15  2  0  0  0  0
  6 17  1  0  0  0  0
  7 18  1  0  0  0  0
  7 31  1  0  0  0  0
  7 32  1  0  0  0  0
  8  9  1  0  0  0  0
  8 10  1  0  0  0  0
  8 19  1  0  0  0  0
  9 11  1  0  0  0  0
  9 20  1  0  0  0  0
 10 12  1  0  0  0  0
 10 21  1  0  0  0  0
 11 13  1  0  0  0  0
 11 22  1  0  0  0  0
 12 14  2  0  0  0  0
 12 15  1  0  0  0  0
 13 23  1  0  0  0  0
 13 24  1  0  0  0  0
 14 16  1  0  0  0  0
 14 27  1  0  0  0  0
 15 28  1  0  0  0  0
 16 17  2  0  0  0  0
 16 18  1  0  0  0  0
 17 30  1  0  0  0  0
M  END
> <PUBCHEM_COMPOUND_CID>
129533

> <PUBCHEM_CONFORMER_RMSD>
0.6

> <PUBCHEM_CONFORMER_DIVERSEORDER>
1
26
9
19
28
7
21
30
16
20
6
23
4
31
18
3
15
25
8
29
22
27
17
11
32
2
24
5
13
10
12
14

> <PUBCHEM_MMFF94_PARTIAL_CHARGES>
26
1 -0.56
10 0.42
11 0.28
12 -0.14
13 0.28
14 -0.15
15 0.16
16 0.09
17 0.16
18 0.54
2 -0.68
25 0.4
26 0.4
27 0.15
28 0.15
29 0.4
3 -0.68
30 0.15
31 0.37
32 0.37
4 -0.68
5 -0.57
6 -0.62
7 -0.8
8 0.28
9 0.28

> <PUBCHEM_EFFECTIVE_ROTOR_COUNT>
4

> <PUBCHEM_PHARMACOPHORE_FEATURES>
12
1 1 acceptor
1 2 acceptor
1 2 donor
1 3 acceptor
1 3 donor
1 4 acceptor
1 4 donor
1 5 acceptor
1 6 acceptor
1 7 donor
5 1 8 9 10 11 rings
6 6 12 14 15 16 17 rings

> <PUBCHEM_HEAVY_ATOM_COUNT>
18

> <PUBCHEM_ATOM_DEF_STEREO_COUNT>
4

> <PUBCHEM_ATOM_UDEF_STEREO_COUNT>
0

> <PUBCHEM_BOND_DEF_STEREO_COUNT>
0

> <PUBCHEM_BOND_UDEF_STEREO_COUNT>
0

> <PUBCHEM_ISOTOPIC_ATOM_COUNT>
0

> <PUBCHEM_COMPONENT_COUNT>
1

> <PUBCHEM_CACTVS_TAUTO_COUNT>
2

> <PUBCHEM_CONFORMER_ID>
0001F9FD00000001

> <PUBCHEM_MMFF94_ENERGY>
54.5538

> <PUBCHEM_FEATURE_SELFOVERLAP>
60.916

> <PUBCHEM_SHAPE_FINGERPRINT>
10366900 7 18336831982434098842
10608611 8 18338798905477626812
11615756 256 18340494356882414488
11715629 250 18272084985517161900
12251169 10 18040998479039254526
12633257 1 18120090576667753088
12916754 54 18130228164344772751
13140716 1 18122066673882802985
13294875 104 17178257613634103177
14026960 21 18266181810656265568
14223421 5 18410579469835244154
14648413 74 18268149743106986846
14866123 147 15096207912727862675
15219456 202 18409731733601650846
15375462 6 18411983563411386071
15442244 35 18123469380411198954
15775835 57 17917711335370056182
16945 1 18262818331620096447
17802600 8 18342734143762146272
18186145 218 17918002689325448590
19049666 15 18264775350353040874
20510252 161 18409167675936882153
20528008 55 18333450950035545231
20645476 183 14836127667214097597
20681677 76 18338511928890455253
21041028 32 15597795252089650267
21501502 16 18338802186948795887
21524375 3 18130223873751415782
21652331 79 18412261774355597344
22182937 141 18126853694381941185
22854114 111 18342740710835499086
22854114 59 18341615944515218555
23402539 116 18337100255093071039
23557571 272 18115322183759211163
23558518 356 18262243201213315625
23559900 14 18338793412362434114
2748010 2 18411705352831405662
3286 77 18262799553865147774
3524813 1 18201714106693792576
5104073 3 18337677416903313035
6049 1 18267042594916647350
7364860 26 18271528594190129542
81228 2 17968392168975550179
9709674 26 18411704253103870071

> <PUBCHEM_SHAPE_MULTIPOLES>
331.12
6.92
2.83
0.85
2.55
1.1
0.04
1.64
0.94
-0.13
0.01
-0.35
-0.12
0.89

> <PUBCHEM_SHAPE_SELFOVERLAP>
703.067

> <PUBCHEM_SHAPE_VOLUME>
184.8

> <PUBCHEM_COORDINATE_TYPE>
2
5
10

$$$$
