129538
  -OEChem-03292013323D

 35 36  0     1  0  0  0  0  0999 V2000
   -1.4002   -1.9791    1.2267 S   0  0  0  0  0  0  0  0  0  0  0  0
   -3.3373   -1.6003    0.6621 S   0  0  0  0  0  0  0  0  0  0  0  0
    1.5992   -0.6921   -0.6698 O   0  0  0  0  0  0  0  0  0  0  0  0
    0.5704    1.6547    0.6274 O   0  0  0  0  0  0  0  0  0  0  0  0
    4.3858   -0.2081   -1.1662 O   0  0  0  0  0  0  0  0  0  0  0  0
    2.2283   -1.6047    1.3562 O   0  0  0  0  0  0  0  0  0  0  0  0
    2.3387    0.4448   -0.2766 N   0  0  0  0  0  0  0  0  0  0  0  0
   -2.8593    0.9948    1.1132 N   0  0  0  0  0  0  0  0  0  0  0  0
    2.8417    2.4913    0.6341 C   0  0  0  0  0  0  0  0  0  0  0  0
    4.1083    1.8729    0.0386 C   0  0  0  0  0  0  0  0  0  0  0  0
   -0.6757   -2.5499   -0.3542 C   0  0  1  0  0  0  0  0  0  0  0  0
    1.7472    1.5012    0.3397 C   0  0  0  0  0  0  0  0  0  0  0  0
    3.6618    0.5665   -0.5602 C   0  0  0  0  0  0  0  0  0  0  0  0
    0.8182   -2.8520   -0.1862 C   0  0  0  0  0  0  0  0  0  0  0  0
    1.6261   -1.6621    0.2923 C   0  0  0  0  0  0  0  0  0  0  0  0
   -1.4316   -3.7901   -0.8231 C   0  0  0  0  0  0  0  0  0  0  0  0
   -3.2493    0.1111    0.1671 C   0  0  0  0  0  0  0  0  0  0  0  0
   -3.5769    0.4618   -1.1331 C   0  0  0  0  0  0  0  0  0  0  0  0
   -3.4987    1.8049   -1.4845 C   0  0  0  0  0  0  0  0  0  0  0  0
   -3.1014    2.7433   -0.5385 C   0  0  0  0  0  0  0  0  0  0  0  0
   -2.7953    2.2911    0.7349 C   0  0  0  0  0  0  0  0  0  0  0  0
    2.9364    2.6281    1.7153 H   0  0  0  0  0  0  0  0  0  0  0  0
    2.6095    3.4511    0.1635 H   0  0  0  0  0  0  0  0  0  0  0  0
    4.5333    2.5120   -0.7408 H   0  0  0  0  0  0  0  0  0  0  0  0
    4.8613    1.6887    0.8104 H   0  0  0  0  0  0  0  0  0  0  0  0
   -0.7940   -1.7482   -1.0923 H   0  0  0  0  0  0  0  0  0  0  0  0
    0.9705   -3.6696    0.5304 H   0  0  0  0  0  0  0  0  0  0  0  0
    1.2550   -3.1922   -1.1333 H   0  0  0  0  0  0  0  0  0  0  0  0
   -2.4617   -3.5767   -1.1218 H   0  0  0  0  0  0  0  0  0  0  0  0
   -0.9428   -4.2092   -1.7109 H   0  0  0  0  0  0  0  0  0  0  0  0
   -1.4429   -4.5785   -0.0617 H   0  0  0  0  0  0  0  0  0  0  0  0
   -3.8857   -0.2733   -1.8693 H   0  0  0  0  0  0  0  0  0  0  0  0
   -3.7465    2.1198   -2.4937 H   0  0  0  0  0  0  0  0  0  0  0  0
   -3.0327    3.7953   -0.7903 H   0  0  0  0  0  0  0  0  0  0  0  0
   -2.4789    2.9826    1.5088 H   0  0  0  0  0  0  0  0  0  0  0  0
  1  2  1  0  0  0  0
  1 11  1  0  0  0  0
  2 17  1  0  0  0  0
  3  7  1  0  0  0  0
  3 15  1  0  0  0  0
  4 12  2  0  0  0  0
  5 13  2  0  0  0  0
  6 15  2  0  0  0  0
  7 12  1  0  0  0  0
  7 13  1  0  0  0  0
  8 17  1  0  0  0  0
  8 21  2  0  0  0  0
  9 10  1  0  0  0  0
  9 12  1  0  0  0  0
  9 22  1  0  0  0  0
  9 23  1  0  0  0  0
 10 13  1  0  0  0  0
 10 24  1  0  0  0  0
 10 25  1  0  0  0  0
 11 14  1  0  0  0  0
 11 16  1  0  0  0  0
 11 26  1  0  0  0  0
 14 15  1  0  0  0  0
 14 27  1  0  0  0  0
 14 28  1  0  0  0  0
 16 29  1  0  0  0  0
 16 30  1  0  0  0  0
 16 31  1  0  0  0  0
 17 18  2  0  0  0  0
 18 19  1  0  0  0  0
 18 32  1  0  0  0  0
 19 20  2  0  0  0  0
 19 33  1  0  0  0  0
 20 21  1  0  0  0  0
 20 34  1  0  0  0  0
 21 35  1  0  0  0  0
M  END
> <PUBCHEM_COMPOUND_CID>
129538

> <PUBCHEM_CONFORMER_RMSD>
1

> <PUBCHEM_CONFORMER_DIVERSEORDER>
1
231
331
352
158
197
170
82
161
26
409
250
176
355
345
159
287
249
49
255
229
152
439
190
167
440
272
177
98
245
132
153
163
199
13
339
187
337
384
123
171
178
185
351
371
400
335
133
251
306
118
94
353
397
210
237
391
270
221
325
63
230
374
376
404
212
179
430
151
100
323
273
128
436
36
110
174
242
85
116
318
380
182
421
401
46
372
260
296
56
405
96
298
420
303
416
382
320
30
375
437
316
73
329
188
247
53
226
146
184
321
326
105
379
74
266
252
292
277
425
97
269
370
263
106
271
227
44
111
291
344
282
135
164
198
141
138
368
349
107
166
205
39
54
11
373
322
154
113
21
23
140
192
20
157
175
253
381
147
284
299
4
52
224
328
406
289
38
389
114
191
62
387
334
414
61
418
58
294
225
243
415
45
218
232
122
145
130
173
95
180
427
15
196
264
248
169
121
203
204
129
317
142
241
378
41
424
8
288
367
35
220
423
120
433
214
239
79
216
104
193
213
102
314
354
148
315
143
431
434
201
209
78
42
215
194
301
428
108
300
222
217
183
422
59
285
5
165
10
324
75
7
276
262
162
65
32
369
410
71
275
411
312
84
27
293
91
432
109
235
40
297
137
361
99
395
168
43
419
160
134
399
88
274
83
259
211
350
333
342
206
304
76
290
208
393
356
281
25
383
403
124
438
365
3
18
6
172
186
72
280
377
234
363
149
265
48
92
426
125
219
195
394
28
348
332
202
341
150
34
359
408
50
398
47
286
69
278
81
267
366
155
392
70
240
319
181
31
12
66
308
238
385
136
119
396
346
279
261
311
207
80
390
200
16
223
313
429
131
68
189
309
386
347
340
112
51
37
103
236
64
307
55
257
336
358
413
305
338
156
417
117
87
144
254
362
244
2
60
127
24
407
256
435
402
412
228
330
22
295
93
388
9
126
67
233
246
101
327
360
283
89
302
364
115
17
310
57
357
343
86
139
29
33
268
77
14
19
258
90

> <PUBCHEM_MMFF94_PARTIAL_CHARGES>
24
1 -0.23
10 0.06
11 0.23
12 0.57
13 0.57
14 0.06
15 0.66
17 0.41
18 -0.15
19 -0.15
2 -0.1
20 -0.15
21 0.16
3 -0.19
32 0.15
33 0.15
34 0.15
35 0.15
4 -0.57
5 -0.57
6 -0.57
7 -0.08
8 -0.62
9 0.06

> <PUBCHEM_EFFECTIVE_ROTOR_COUNT>
7.6

> <PUBCHEM_PHARMACOPHORE_FEATURES>
8
1 16 hydrophobe
1 4 acceptor
1 5 acceptor
1 6 acceptor
1 8 acceptor
4 1 2 11 14 hydrophobe
5 7 9 10 12 13 rings
6 8 17 18 19 20 21 rings

> <PUBCHEM_HEAVY_ATOM_COUNT>
21

> <PUBCHEM_ATOM_DEF_STEREO_COUNT>
0

> <PUBCHEM_ATOM_UDEF_STEREO_COUNT>
1

> <PUBCHEM_BOND_DEF_STEREO_COUNT>
0

> <PUBCHEM_BOND_UDEF_STEREO_COUNT>
0

> <PUBCHEM_ISOTOPIC_ATOM_COUNT>
0

> <PUBCHEM_COMPONENT_COUNT>
1

> <PUBCHEM_CACTVS_TAUTO_COUNT>
3

> <PUBCHEM_CONFORMER_ID>
0001FA0200000001

> <PUBCHEM_MMFF94_ENERGY>
32.7433

> <PUBCHEM_FEATURE_SELFOVERLAP>
40.822

> <PUBCHEM_SHAPE_FINGERPRINT>
10498660 4 18194675093445401479
10759866 29 18040719160515869690
11045515 52 17546717622630991959
11221954 11 18335708178724855027
11370993 70 18408877430352356629
12553582 1 17547863949063943371
12633257 1 17900535679807339011
13122387 1 18338234843381201665
13402501 40 18339366387127895769
14123250 116 18200881673596953657
14251751 93 18337674221231301266
14251757 17 18200612353345801694
14466204 15 18409160031211418184
192875 21 18124009279369873867
19930381 70 18194682558568001865
20621476 13 17688304591118670221
21095088 737 18340473578109828399
21279426 13 18338245852052405270
21524375 3 18335990817337262827
22393880 68 18340483374529648204
22749437 52 18336818702516675209
238 59 18265593417517095181
3187 122 17752215134986867419
3524813 1 18267871751385475441
474 4 18123183499082768731
5939293 188 17832135031310421555

> <PUBCHEM_SHAPE_MULTIPOLES>
406.43
7.95
4.29
1.22
3.56
1.81
0.02
-4.87
1.3
-1.97
0.27
-0.53
0.02
0.7

> <PUBCHEM_SHAPE_SELFOVERLAP>
817.223

> <PUBCHEM_SHAPE_VOLUME>
240.6

> <PUBCHEM_COORDINATE_TYPE>
2
5
10

$$$$
