129676541
  -OEChem-03292013293D

 40 40  0     1  0  0  0  0  0999 V2000
    0.7475    2.6995    0.2254 O   0  5  0  0  0  0  0  0  0  0  0  0
    2.6789    2.2965    1.2061 O   0  0  0  0  0  0  0  0  0  0  0  0
    1.5936   -1.5898   -2.3634 O   0  0  0  0  0  0  0  0  0  0  0  0
   -1.7112   -2.2766    0.4935 O   0  0  0  0  0  0  0  0  0  0  0  0
    1.8872    2.2133    0.2559 N   0  3  0  0  0  0  0  0  0  0  0  0
   -0.6991   -0.2069    0.7684 N   0  0  0  0  0  0  0  0  0  0  0  0
    0.8424   -1.6066   -1.1856 N   0  0  0  0  0  0  0  0  0  0  0  0
   -4.5238    1.5275    0.5151 N   0  0  0  0  0  0  0  0  0  0  0  0
    2.3347    1.4506   -0.9325 C   0  0  2  0  0  0  0  0  0  0  0  0
    2.5749    0.0423   -0.4513 C   0  0  0  0  0  0  0  0  0  0  0  0
    1.3457   -0.8090   -0.2937 C   0  0  0  0  0  0  0  0  0  0  0  0
    3.7599   -0.4773   -0.0798 C   0  0  0  0  0  0  0  0  0  0  0  0
    0.6228   -0.6942    1.0343 C   0  0  0  0  0  0  0  0  0  0  0  0
    3.5129    2.2171   -1.5194 C   0  0  0  0  0  0  0  0  0  0  0  0
    4.0422   -1.8523    0.4612 C   0  0  0  0  0  0  0  0  0  0  0  0
    3.9405   -1.8754    1.9790 C   0  0  0  0  0  0  0  0  0  0  0  0
   -1.7772   -1.0503    0.5153 C   0  0  0  0  0  0  0  0  0  0  0  0
   -3.0766   -0.3884    0.2319 C   0  0  0  0  0  0  0  0  0  0  0  0
   -4.0431   -1.0122   -0.5491 C   0  0  0  0  0  0  0  0  0  0  0  0
   -3.3633    0.8701    0.7360 C   0  0  0  0  0  0  0  0  0  0  0  0
   -5.2497   -0.3677   -0.7986 C   0  0  0  0  0  0  0  0  0  0  0  0
   -5.4392    0.8897   -0.2484 C   0  0  0  0  0  0  0  0  0  0  0  0
    1.5145    1.4583   -1.6609 H   0  0  0  0  0  0  0  0  0  0  0  0
    4.6430    0.1550   -0.1445 H   0  0  0  0  0  0  0  0  0  0  0  0
    1.1171   -0.0069    1.7233 H   0  0  0  0  0  0  0  0  0  0  0  0
    0.5733   -1.6854    1.4967 H   0  0  0  0  0  0  0  0  0  0  0  0
    3.2042    3.2203   -1.8369 H   0  0  0  0  0  0  0  0  0  0  0  0
    3.9041    1.6986   -2.4018 H   0  0  0  0  0  0  0  0  0  0  0  0
    4.3420    2.3452   -0.8142 H   0  0  0  0  0  0  0  0  0  0  0  0
    5.0495   -2.1538    0.1516 H   0  0  0  0  0  0  0  0  0  0  0  0
    3.3562   -2.5922    0.0349 H   0  0  0  0  0  0  0  0  0  0  0  0
   -0.8102    0.7993    0.7021 H   0  0  0  0  0  0  0  0  0  0  0  0
    2.9341   -1.6307    2.3277 H   0  0  0  0  0  0  0  0  0  0  0  0
    4.1896   -2.8730    2.3551 H   0  0  0  0  0  0  0  0  0  0  0  0
    4.6385   -1.1628    2.4318 H   0  0  0  0  0  0  0  0  0  0  0  0
   -3.8719   -1.9973   -0.9744 H   0  0  0  0  0  0  0  0  0  0  0  0
   -2.6769    1.4154    1.3752 H   0  0  0  0  0  0  0  0  0  0  0  0
   -6.0172   -0.8343   -1.4054 H   0  0  0  0  0  0  0  0  0  0  0  0
    1.1027   -2.2203   -2.9170 H   0  0  0  0  0  0  0  0  0  0  0  0
   -6.3628    1.4346   -0.4135 H   0  0  0  0  0  0  0  0  0  0  0  0
  1  5  1  0  0  0  0
  2  5  2  0  0  0  0
  3  7  1  0  0  0  0
  3 39  1  0  0  0  0
  4 17  2  0  0  0  0
  5  9  1  0  0  0  0
  6 13  1  0  0  0  0
  6 17  1  0  0  0  0
  6 32  1  0  0  0  0
  7 11  2  0  0  0  0
  8 20  1  0  0  0  0
  8 22  2  0  0  0  0
  9 10  1  0  0  0  0
  9 14  1  0  0  0  0
  9 23  1  0  0  0  0
 10 11  1  0  0  0  0
 10 12  2  0  0  0  0
 11 13  1  0  0  0  0
 12 15  1  0  0  0  0
 12 24  1  0  0  0  0
 13 25  1  0  0  0  0
 13 26  1  0  0  0  0
 14 27  1  0  0  0  0
 14 28  1  0  0  0  0
 14 29  1  0  0  0  0
 15 16  1  0  0  0  0
 15 30  1  0  0  0  0
 15 31  1  0  0  0  0
 16 33  1  0  0  0  0
 16 34  1  0  0  0  0
 16 35  1  0  0  0  0
 17 18  1  0  0  0  0
 18 19  1  0  0  0  0
 18 20  2  0  0  0  0
 19 21  2  0  0  0  0
 19 36  1  0  0  0  0
 20 37  1  0  0  0  0
 21 22  1  0  0  0  0
 21 38  1  0  0  0  0
 22 40  1  0  0  0  0
M  CHG  2   1  -1   5   1
M  END
> <PUBCHEM_COMPOUND_CID>
129676541

> <PUBCHEM_CONFORMER_RMSD>
1.2

> <PUBCHEM_CONFORMER_DIVERSEORDER>
1
21
14
43
57
88
49
48
64
50
65
55
7
36
83
76
85
13
69
15
25
58
91
42
80
33
4
70
89
86
52
29
61
44
22
41
17
39
77
46
74
90
6
32
26
3
71
63
35
24
62
75
27
40
51
59
67
78
72
10
81
16
45
68
23
47
37
12
87
8
2
20
38
31
73
11
60
30
66
28
56
53
5
18
82
79
54
19
9
34
84

> <PUBCHEM_MMFF94_PARTIAL_CHARGES>
27
1 -0.52
10 -0.12
11 0.37
12 -0.29
13 0.36
15 0.14
17 0.54
18 0.09
19 -0.15
2 -0.52
20 0.16
21 -0.15
22 0.16
24 0.15
3 -0.34
32 0.37
36 0.15
37 0.15
38 0.15
39 0.4
4 -0.57
40 0.15
5 0.8
6 -0.73
7 -0.51
8 -0.62
9 0.38

> <PUBCHEM_EFFECTIVE_ROTOR_COUNT>
8

> <PUBCHEM_PHARMACOPHORE_FEATURES>
10
1 1 acceptor
1 1 anion
1 16 hydrophobe
1 2 acceptor
1 3 anion
1 4 acceptor
1 6 donor
1 7 acceptor
1 8 acceptor
6 8 18 19 20 21 22 rings

> <PUBCHEM_HEAVY_ATOM_COUNT>
22

> <PUBCHEM_ATOM_DEF_STEREO_COUNT>
0

> <PUBCHEM_ATOM_UDEF_STEREO_COUNT>
1

> <PUBCHEM_BOND_DEF_STEREO_COUNT>
2

> <PUBCHEM_BOND_UDEF_STEREO_COUNT>
0

> <PUBCHEM_ISOTOPIC_ATOM_COUNT>
0

> <PUBCHEM_COMPONENT_COUNT>
1

> <PUBCHEM_CACTVS_TAUTO_COUNT>
40

> <PUBCHEM_CONFORMER_ID>
07BAB4FD00000001

> <PUBCHEM_MMFF94_ENERGY>
50.4388

> <PUBCHEM_FEATURE_SELFOVERLAP>
50.826

> <PUBCHEM_SHAPE_FINGERPRINT>
11405975 8 18186521025040633395
116883 192 18127143969719708748
12403260 363 18336540534828150291
12616971 3 18413109442634475155
12633257 1 18408603630476714807
12670546 177 18272366499686603207
13134695 92 18410285913585249204
13583140 156 17895485820475234859
13675066 3 16443070508241817991
15163728 17 16809297056971526476
17349148 13 18060137617856795931
18186145 218 17967530177502733091
192875 21 18272933808193066347
20832881 197 17458903717871326506
21033648 29 16878209910214502981
22393880 68 18129108998729976476
23402539 116 18270392785419065043
23419403 2 18120905401316601696
23557571 272 17774161171706289289
23559900 14 18130232557780104414
3060560 45 17774451572041818252
345986 75 17534883214003334802
34934 24 18339078298207478272
351380 180 18410007719915930503
474 4 17896041099611517533
495365 180 17846211215191951272
5104073 3 18410295835128307475
5281201 14 18201167568131681831
57724786 102 17676216770615200381
5895379 119 17845103869491287912
67856867 119 18342165709024516929
8509985 295 18260825956194197050
9971528 1 18271242716845560074
9981440 41 17686334678424795232

> <PUBCHEM_SHAPE_MULTIPOLES>
409.35
10.57
2.67
1.45
11.58
1.16
0.36
0.39
0.09
-2.74
-0.26
-1.22
-0.29
-1.18

> <PUBCHEM_SHAPE_SELFOVERLAP>
835.973

> <PUBCHEM_SHAPE_VOLUME>
234.9

> <PUBCHEM_COORDINATE_TYPE>
2
5
10

$$$$
