129632190
  -OEChem-03292013293D

 57 60  0     1  0  0  0  0  0999 V2000
    4.9190   -2.6575   -0.1026 O   0  0  0  0  0  0  0  0  0  0  0  0
    4.3291   -0.3881   -1.5190 O   0  0  0  0  0  0  0  0  0  0  0  0
    2.2834   -0.0990   -0.2787 O   0  0  0  0  0  0  0  0  0  0  0  0
    6.8760   -0.1701    0.8111 O   0  0  0  0  0  0  0  0  0  0  0  0
   -4.3796    0.4413   -2.0272 O   0  0  0  0  0  0  0  0  0  0  0  0
   -4.8911   -0.3478    2.2173 O   0  0  0  0  0  0  0  0  0  0  0  0
   -7.0437   -0.4751   -1.9721 O   0  0  0  0  0  0  0  0  0  0  0  0
   -7.6705   -1.0070    0.2360 N   0  0  0  0  0  0  0  0  0  0  0  0
    3.7028   -1.9601    0.2082 C   0  0  1  0  0  0  0  0  0  0  0  0
    5.0124   -1.6004    0.8659 C   0  0  2  0  0  0  0  0  0  0  0  0
    3.2066   -1.0252   -0.8750 C   0  0  2  0  0  0  0  0  0  0  0  0
    5.0295    0.4692   -0.6169 C   0  0  1  0  0  0  0  0  0  0  0  0
    4.0738    1.5415   -0.0422 C   0  0  1  0  0  0  0  0  0  0  0  0
    5.7542   -0.4168    0.3845 C   0  0  0  0  0  0  0  0  0  0  0  0
    2.6299    1.2653   -0.5214 C   0  0  2  0  0  0  0  0  0  0  0  0
    2.7152   -2.7871    0.9706 C   0  0  0  0  0  0  0  0  0  0  0  0
    2.4584   -1.7782   -1.9732 C   0  0  0  0  0  0  0  0  0  0  0  0
    1.5668    2.1428    0.1266 C   0  0  1  0  0  0  0  0  0  0  0  0
    4.1976    1.7169    1.4754 C   0  0  0  0  0  0  0  0  0  0  0  0
    1.8370    3.6198   -0.1679 C   0  0  0  0  0  0  0  0  0  0  0  0
    0.1962    1.7601   -0.3858 C   0  0  0  0  0  0  0  0  0  0  0  0
   -0.8668    1.2977    0.3069 C   0  0  0  0  0  0  0  0  0  0  0  0
   -0.8751    1.0818    1.7978 C   0  0  0  0  0  0  0  0  0  0  0  0
   -2.0975    0.9864   -0.4291 C   0  0  0  0  0  0  0  0  0  0  0  0
   -3.2471    0.5199    0.0901 C   0  0  0  0  0  0  0  0  0  0  0  0
   -4.4507    0.2197   -0.6655 C   0  0  0  0  0  0  0  0  0  0  0  0
   -5.5662   -0.2443   -0.0845 C   0  0  0  0  0  0  0  0  0  0  0  0
   -5.7402   -0.5125    1.3582 C   0  0  0  0  0  0  0  0  0  0  0  0
   -6.8228   -0.5716   -0.7794 C   0  0  0  0  0  0  0  0  0  0  0  0
   -7.1365   -1.0217    1.5917 C   0  0  0  0  0  0  0  0  0  0  0  0
    5.1631   -1.8787    1.9019 H   0  0  0  0  0  0  0  0  0  0  0  0
    5.8069    0.9649   -1.2108 H   0  0  0  0  0  0  0  0  0  0  0  0
    4.3845    2.4990   -0.4823 H   0  0  0  0  0  0  0  0  0  0  0  0
    2.5909    1.4221   -1.6103 H   0  0  0  0  0  0  0  0  0  0  0  0
    2.2087   -3.4979    0.3107 H   0  0  0  0  0  0  0  0  0  0  0  0
    1.9585   -2.1506    1.4399 H   0  0  0  0  0  0  0  0  0  0  0  0
    3.1993   -3.3662    1.7647 H   0  0  0  0  0  0  0  0  0  0  0  0
    2.1623   -1.0894   -2.7732 H   0  0  0  0  0  0  0  0  0  0  0  0
    1.5410   -2.2425   -1.5971 H   0  0  0  0  0  0  0  0  0  0  0  0
    3.0875   -2.5516   -2.4266 H   0  0  0  0  0  0  0  0  0  0  0  0
    1.5966    2.0041    1.2083 H   0  0  0  0  0  0  0  0  0  0  0  0
    3.6628    2.6001    1.8348 H   0  0  0  0  0  0  0  0  0  0  0  0
    5.2435    1.8608    1.7669 H   0  0  0  0  0  0  0  0  0  0  0  0
    3.8051    0.8487    2.0145 H   0  0  0  0  0  0  0  0  0  0  0  0
    1.8900    3.8105   -1.2461 H   0  0  0  0  0  0  0  0  0  0  0  0
    1.0336    4.2462    0.2375 H   0  0  0  0  0  0  0  0  0  0  0  0
    2.7694    3.9737    0.2794 H   0  0  0  0  0  0  0  0  0  0  0  0
    0.0893    1.8824   -1.4652 H   0  0  0  0  0  0  0  0  0  0  0  0
   -1.0744    0.0299    2.0318 H   0  0  0  0  0  0  0  0  0  0  0  0
   -1.6453    1.7010    2.2715 H   0  0  0  0  0  0  0  0  0  0  0  0
    0.0657    1.3322    2.2900 H   0  0  0  0  0  0  0  0  0  0  0  0
   -2.0476    1.1590   -1.5036 H   0  0  0  0  0  0  0  0  0  0  0  0
   -3.2435    0.3663    1.1552 H   0  0  0  0  0  0  0  0  0  0  0  0
   -7.1367   -2.0466    1.9653 H   0  0  0  0  0  0  0  0  0  0  0  0
   -7.7180   -0.3389    2.2127 H   0  0  0  0  0  0  0  0  0  0  0  0
   -5.2296    0.2113   -2.4364 H   0  0  0  0  0  0  0  0  0  0  0  0
   -8.6217   -1.3026    0.0399 H   0  0  0  0  0  0  0  0  0  0  0  0
  1  9  1  0  0  0  0
  1 10  1  0  0  0  0
  2 11  1  0  0  0  0
  2 12  1  0  0  0  0
  3 11  1  0  0  0  0
  3 15  1  0  0  0  0
  4 14  2  0  0  0  0
  5 26  1  0  0  0  0
  5 56  1  0  0  0  0
  6 28  2  0  0  0  0
  7 29  2  0  0  0  0
  8 29  1  0  0  0  0
  8 30  1  0  0  0  0
  8 57  1  0  0  0  0
  9 10  1  0  0  0  0
  9 11  1  0  0  0  0
  9 16  1  0  0  0  0
 10 14  1  0  0  0  0
 10 31  1  0  0  0  0
 11 17  1  0  0  0  0
 12 13  1  0  0  0  0
 12 14  1  0  0  0  0
 12 32  1  0  0  0  0
 13 15  1  0  0  0  0
 13 19  1  0  0  0  0
 13 33  1  0  0  0  0
 15 18  1  0  0  0  0
 15 34  1  0  0  0  0
 16 35  1  0  0  0  0
 16 36  1  0  0  0  0
 16 37  1  0  0  0  0
 17 38  1  0  0  0  0
 17 39  1  0  0  0  0
 17 40  1  0  0  0  0
 18 20  1  0  0  0  0
 18 21  1  0  0  0  0
 18 41  1  0  0  0  0
 19 42  1  0  0  0  0
 19 43  1  0  0  0  0
 19 44  1  0  0  0  0
 20 45  1  0  0  0  0
 20 46  1  0  0  0  0
 20 47  1  0  0  0  0
 21 22  2  0  0  0  0
 21 48  1  0  0  0  0
 22 23  1  0  0  0  0
 22 24  1  0  0  0  0
 23 49  1  0  0  0  0
 23 50  1  0  0  0  0
 23 51  1  0  0  0  0
 24 25  2  0  0  0  0
 24 52  1  0  0  0  0
 25 26  1  0  0  0  0
 25 53  1  0  0  0  0
 26 27  2  0  0  0  0
 27 28  1  0  0  0  0
 27 29  1  0  0  0  0
 28 30  1  0  0  0  0
 30 54  1  0  0  0  0
 30 55  1  0  0  0  0
M  END
> <PUBCHEM_COMPOUND_CID>
129632190

> <PUBCHEM_CONFORMER_RMSD>
0.8

> <PUBCHEM_CONFORMER_DIVERSEORDER>
1
26
66
53
52
54
35
62
14
64
36
19
78
74
10
72
6
57
79
9
18
4
15
75
69
33
5
71
27
68
17
7
29
49
45
30
12
61
40
76
59
28
3
13
16
73
21
55
86
11
25
34
2
70
37
67
24
44
39
60
83
48
23
38
41
77
50
8
84
47
56
42
46
85
80
22
20
51
63
87
65
32
31
82
43
58
81

> <PUBCHEM_MMFF94_PARTIAL_CHARGES>
32
1 -0.3
10 0.05
11 0.65
12 0.34
14 0.51
15 0.28
16 0.09
18 0.14
2 -0.56
21 -0.29
22 -0.14
23 0.14
24 -0.15
25 -0.15
26 0.08
27 0.03
28 0.49
29 0.62
3 -0.56
30 0.36
31 0.1
4 -0.57
48 0.15
5 -0.53
52 0.15
53 0.15
56 0.45
57 0.37
6 -0.57
7 -0.57
8 -0.73
9 -0.04

> <PUBCHEM_EFFECTIVE_ROTOR_COUNT>
5.4

> <PUBCHEM_PHARMACOPHORE_FEATURES>
14
1 1 acceptor
1 2 acceptor
1 20 hydrophobe
1 23 hydrophobe
1 27 anion
1 3 acceptor
1 4 acceptor
1 5 donor
1 6 acceptor
1 7 acceptor
1 8 donor
5 8 27 28 29 30 rings
6 2 3 11 12 13 15 rings
7 1 2 9 10 11 12 14 rings

> <PUBCHEM_HEAVY_ATOM_COUNT>
30

> <PUBCHEM_ATOM_DEF_STEREO_COUNT>
5

> <PUBCHEM_ATOM_UDEF_STEREO_COUNT>
2

> <PUBCHEM_BOND_DEF_STEREO_COUNT>
3

> <PUBCHEM_BOND_UDEF_STEREO_COUNT>
0

> <PUBCHEM_ISOTOPIC_ATOM_COUNT>
0

> <PUBCHEM_COMPONENT_COUNT>
1

> <PUBCHEM_CACTVS_TAUTO_COUNT>
207

> <PUBCHEM_CONFORMER_ID>
07BA07BE00000001

> <PUBCHEM_MMFF94_ENERGY>
84.2781

> <PUBCHEM_FEATURE_SELFOVERLAP>
71.586

> <PUBCHEM_SHAPE_FINGERPRINT>
10316853 100 18261114105708562418
10670039 82 15140951834408515405
11135609 99 18186801345209711562
11828532 37 15358275882305862689
11991303 11 11675171397195505353
12516196 113 17346880052820905001
12596602 18 15626227901092593635
12778500 126 14261359016388209318
13533116 47 18272089426234258576
13617811 41 16298386894846591911
13685833 64 18408605872665960025
13782708 43 18113619010783953435
14347332 77 18412544289242258613
15001296 14 17916862546911361693
15119646 104 18341897385190265137
15183329 4 14706926246452031259
15352257 5 18187367662253514491
15483637 11 17974855273959458443
15537594 2 18341894116688446415
15721738 202 17846782884324356370
17492 89 18049720716337168606
17857418 61 18202565086154980773
19315092 285 18201152132135245730
19377110 9 17489590052025019297
1979834 28 17704077270055173422
20028762 73 17989205927910356903
20567600 247 18411133650082911443
21033650 10 15864346883989528429
21315764 119 16443342040606530787
21623969 137 18411985758445785423
22061861 79 18113616790185517735
2303208 19 17676774262297944041
23559900 14 17603870044159104357
23569914 152 17469003733385022111
25222932 49 18409446956022170542
3411729 13 15266201721870442448
34797466 226 16878231965146186253
404807 78 17460056147717589330
439807 62 18040716940012541827
4461854 278 17989210356449030486
46194498 28 17530964721760009284
463206 1 18271803591860006238
5104073 3 18201441324715071457
513532 50 15574714699294486942
5718773 13 18042962082827866042
58260988 393 16415202235284949946

> <PUBCHEM_SHAPE_MULTIPOLES>
571.32
20.21
2.7
1.67
31.39
0.51
0.02
-9.22
-1.48
-4.3
-0.22
1.69
-0.35
0.57

> <PUBCHEM_SHAPE_SELFOVERLAP>
1221.675

> <PUBCHEM_SHAPE_VOLUME>
314.3

> <PUBCHEM_COORDINATE_TYPE>
2
5
10

$$$$
