129632332
  -OEChem-03292013293D

 42 43  0     0  0  0  0  0  0999 V2000
    2.5422   -1.9114   -0.5237 S   0  0  0  0  0  0  0  0  0  0  0  0
   -2.5750    1.8823    0.5268 S   0  0  0  0  0  0  0  0  0  0  0  0
    2.4966   -2.0082   -1.9708 O   0  0  0  0  0  0  0  0  0  0  0  0
   -3.1673    2.9623   -0.2552 O   0  0  0  0  0  0  0  0  0  0  0  0
   -2.6163    1.9471    1.9824 O   0  0  0  0  0  0  0  0  0  0  0  0
    3.2184   -2.9287    0.2592 O   0  0  0  0  0  0  0  0  0  0  0  0
   -0.9768   -2.4751    0.9242 O   0  5  0  0  0  0  0  0  0  0  0  0
    0.9568    2.5376   -0.8823 O   0  5  0  0  0  0  0  0  0  0  0  0
   -0.7234    3.8934   -0.4150 O   0  0  0  0  0  0  0  0  0  0  0  0
    0.6867   -3.8592    0.4804 O   0  0  0  0  0  0  0  0  0  0  0  0
   -0.9432    1.6578   -0.0349 N   0  0  0  0  0  0  0  0  0  0  0  0
    0.9235   -1.6230    0.0498 N   0  0  0  0  0  0  0  0  0  0  0  0
   -0.1849    2.7860   -0.4823 N   0  3  0  0  0  0  0  0  0  0  0  0
    0.1566   -2.7463    0.5151 N   0  3  0  0  0  0  0  0  0  0  0  0
   -0.1823    0.5139    0.5534 C   0  0  0  0  0  0  0  0  0  0  0  0
    0.1847   -0.4808   -0.5342 C   0  0  0  0  0  0  0  0  0  0  0  0
   -3.3472    0.3788    0.0900 C   0  0  0  0  0  0  0  0  0  0  0  0
    3.3528   -0.3938   -0.1035 C   0  0  0  0  0  0  0  0  0  0  0  0
   -3.7250   -0.5252    1.0827 C   0  0  0  0  0  0  0  0  0  0  0  0
    3.7428    0.4901   -1.1095 C   0  0  0  0  0  0  0  0  0  0  0  0
    3.6044   -0.0842    1.2330 C   0  0  0  0  0  0  0  0  0  0  0  0
   -3.5827    0.0798   -1.2518 C   0  0  0  0  0  0  0  0  0  0  0  0
    4.3848    1.6836   -0.7791 C   0  0  0  0  0  0  0  0  0  0  0  0
   -4.3385   -1.7285    0.7336 C   0  0  0  0  0  0  0  0  0  0  0  0
   -4.1961   -1.1233   -1.6010 C   0  0  0  0  0  0  0  0  0  0  0  0
    4.2461    1.1093    1.5635 C   0  0  0  0  0  0  0  0  0  0  0  0
    4.6364    1.9931    0.5575 C   0  0  0  0  0  0  0  0  0  0  0  0
   -4.5740   -2.0275   -0.6083 C   0  0  0  0  0  0  0  0  0  0  0  0
   -0.7728    0.0319    1.3383 H   0  0  0  0  0  0  0  0  0  0  0  0
    0.7110    0.8870    1.0684 H   0  0  0  0  0  0  0  0  0  0  0  0
    0.7831    0.0054   -1.3105 H   0  0  0  0  0  0  0  0  0  0  0  0
   -0.7076   -0.8424   -1.0585 H   0  0  0  0  0  0  0  0  0  0  0  0
   -3.5510   -0.3255    2.1357 H   0  0  0  0  0  0  0  0  0  0  0  0
    3.5570    0.2748   -2.1575 H   0  0  0  0  0  0  0  0  0  0  0  0
   -3.2899    0.7718   -2.0368 H   0  0  0  0  0  0  0  0  0  0  0  0
    3.3027   -0.7608    2.0278 H   0  0  0  0  0  0  0  0  0  0  0  0
   -4.6308   -2.4336    1.5063 H   0  0  0  0  0  0  0  0  0  0  0  0
    4.6874    2.3726   -1.5621 H   0  0  0  0  0  0  0  0  0  0  0  0
   -4.3780   -1.3570   -2.6459 H   0  0  0  0  0  0  0  0  0  0  0  0
    4.4407    1.3511    2.6043 H   0  0  0  0  0  0  0  0  0  0  0  0
   -5.0505   -2.9648   -0.8802 H   0  0  0  0  0  0  0  0  0  0  0  0
    5.1353    2.9228    0.8149 H   0  0  0  0  0  0  0  0  0  0  0  0
  1  3  2  0  0  0  0
  1  6  2  0  0  0  0
  1 12  1  0  0  0  0
  1 18  1  0  0  0  0
  2  4  2  0  0  0  0
  2  5  2  0  0  0  0
  2 11  1  0  0  0  0
  2 17  1  0  0  0  0
  7 14  1  0  0  0  0
  8 13  1  0  0  0  0
  9 13  2  0  0  0  0
 10 14  2  0  0  0  0
 11 13  1  0  0  0  0
 11 15  1  0  0  0  0
 12 14  1  0  0  0  0
 12 16  1  0  0  0  0
 15 16  1  0  0  0  0
 15 29  1  0  0  0  0
 15 30  1  0  0  0  0
 16 31  1  0  0  0  0
 16 32  1  0  0  0  0
 17 19  2  0  0  0  0
 17 22  1  0  0  0  0
 18 20  2  0  0  0  0
 18 21  1  0  0  0  0
 19 24  1  0  0  0  0
 19 33  1  0  0  0  0
 20 23  1  0  0  0  0
 20 34  1  0  0  0  0
 21 26  2  0  0  0  0
 21 36  1  0  0  0  0
 22 25  2  0  0  0  0
 22 35  1  0  0  0  0
 23 27  2  0  0  0  0
 23 38  1  0  0  0  0
 24 28  2  0  0  0  0
 24 37  1  0  0  0  0
 25 28  1  0  0  0  0
 25 39  1  0  0  0  0
 26 27  1  0  0  0  0
 26 40  1  0  0  0  0
 27 42  1  0  0  0  0
 28 41  1  0  0  0  0
M  CHG  4   7  -1   8  -1  13   1  14   1
M  END
> <PUBCHEM_COMPOUND_CID>
129632332

> <PUBCHEM_CONFORMER_RMSD>
1

> <PUBCHEM_CONFORMER_DIVERSEORDER>
1
69
22
32
31
24
81
19
48
84
9
42
3
66
20
77
23
37
41
11
75
98
57
91
51
70
53
95
85
33
76
97
71
35
78
89
72
39
6
36
40
99
7
68
8
43
10
44
86
4
92
46
16
74
2
93
88
83
25
62
38
54
90
61
60
100
73
63
55
15
14
56
45
79
82
64
96
18
47
50
80
49
58
27
21
59
29
87
28
26
94
30
17
5
34
65
13
67
52
12

> <PUBCHEM_MMFF94_PARTIAL_CHARGES>
38
1 1.45
10 -0.52
11 -0.56
12 -0.56
13 1.11
14 1.11
15 0.36
16 0.36
17 -0.01
18 -0.01
19 -0.15
2 1.45
20 -0.15
21 -0.15
22 -0.15
23 -0.15
24 -0.15
25 -0.15
26 -0.15
27 -0.15
28 -0.15
3 -0.65
33 0.15
34 0.15
35 0.15
36 0.15
37 0.15
38 0.15
39 0.15
4 -0.65
40 0.15
41 0.15
42 0.15
5 -0.65
6 -0.65
7 -0.52
8 -0.52
9 -0.52

> <PUBCHEM_EFFECTIVE_ROTOR_COUNT>
9

> <PUBCHEM_PHARMACOPHORE_FEATURES>
10
1 10 acceptor
1 3 acceptor
1 4 acceptor
1 5 acceptor
1 6 acceptor
1 7 acceptor
1 8 acceptor
1 9 acceptor
6 17 19 22 24 25 28 rings
6 18 20 21 23 26 27 rings

> <PUBCHEM_HEAVY_ATOM_COUNT>
28

> <PUBCHEM_ATOM_DEF_STEREO_COUNT>
0

> <PUBCHEM_ATOM_UDEF_STEREO_COUNT>
0

> <PUBCHEM_BOND_DEF_STEREO_COUNT>
0

> <PUBCHEM_BOND_UDEF_STEREO_COUNT>
0

> <PUBCHEM_ISOTOPIC_ATOM_COUNT>
0

> <PUBCHEM_COMPONENT_COUNT>
1

> <PUBCHEM_CACTVS_TAUTO_COUNT>
1

> <PUBCHEM_CONFORMER_ID>
07BA084C00000001

> <PUBCHEM_MMFF94_ENERGY>
54.3341

> <PUBCHEM_FEATURE_SELFOVERLAP>
50.96

> <PUBCHEM_SHAPE_FINGERPRINT>
10074138 170 17835768140347305970
10670039 82 18335712654444735828
10675989 125 17539664938939275533
1100329 8 18049161373496269347
11513181 2 18271815587915103134
12553582 1 18337683021656324469
12596599 1 17843693166002389223
12788726 201 18339361971606642448
12838863 1 18193817444274340706
13140716 1 18267588996244720944
13224815 77 18410295770060199402
13911987 19 18189333631391933255
14081887 123 18266453196602005649
14251764 38 18337105679277900890
14787075 74 17987232407627795280
14840074 17 17988083408564002487
161222 619 16983468537574696720
17349148 13 18187650231882168596
20715895 44 17678716969936374541
20775438 99 17614799026208610229
22113638 7 18122341551736830645
22393880 68 18340492144989652950
23559900 14 18194397784613218282
350125 39 18410295766588476778
392239 28 18411981381610191562
463206 1 17911229835211499471
469060 322 18337120059039606281
6287921 2 18059306369780709726
6442390 28 18130507535103584222

> <PUBCHEM_SHAPE_MULTIPOLES>
517.05
9.96
4.17
1.42
0.34
0.1
-0.01
0
-0.05
-0.07
0.01
-0.03
-0.02
-0.04

> <PUBCHEM_SHAPE_SELFOVERLAP>
1055.504

> <PUBCHEM_SHAPE_VOLUME>
296.8

> <PUBCHEM_COORDINATE_TYPE>
2
5
10

$$$$
