129632191
  -OEChem-03292013293D

 58 61  0     1  0  0  0  0  0999 V2000
    4.8708   -2.5145   -0.5210 O   0  0  0  0  0  0  0  0  0  0  0  0
    4.2562   -0.0870   -1.6314 O   0  0  0  0  0  0  0  0  0  0  0  0
    2.2165    0.0250   -0.3532 O   0  0  0  0  0  0  0  0  0  0  0  0
    1.9725   -2.0954    1.5511 O   0  0  0  0  0  0  0  0  0  0  0  0
    6.8163   -0.1498    0.6935 O   0  0  0  0  0  0  0  0  0  0  0  0
   -4.4611    0.7336   -1.9817 O   0  0  0  0  0  0  0  0  0  0  0  0
   -4.9401   -0.5970    2.1292 O   0  0  0  0  0  0  0  0  0  0  0  0
   -7.1184   -0.2028   -2.0302 O   0  0  0  0  0  0  0  0  0  0  0  0
   -7.7274   -1.0182    0.0949 N   0  0  0  0  0  0  0  0  0  0  0  0
    3.6519   -1.8721   -0.1167 C   0  0  1  0  0  0  0  0  0  0  0  0
    4.9631   -1.5897    0.5746 C   0  0  2  0  0  0  0  0  0  0  0  0
    3.1422   -0.8100   -1.0683 C   0  0  2  0  0  0  0  0  0  0  0  0
    4.9563    0.6530   -0.6307 C   0  0  1  0  0  0  0  0  0  0  0  0
    3.9969    1.6354    0.0820 C   0  0  1  0  0  0  0  0  0  0  0  0
    5.6935   -0.3485    0.2449 C   0  0  0  0  0  0  0  0  0  0  0  0
    2.5519    1.4118   -0.4208 C   0  0  2  0  0  0  0  0  0  0  0  0
    2.6748   -2.7977    0.5387 C   0  0  0  0  0  0  0  0  0  0  0  0
    2.3923   -1.4217   -2.2499 C   0  0  0  0  0  0  0  0  0  0  0  0
    1.4869    2.1907    0.3402 C   0  0  1  0  0  0  0  0  0  0  0  0
    4.1291    1.6158    1.6089 C   0  0  0  0  0  0  0  0  0  0  0  0
    1.7449    3.6954    0.2361 C   0  0  0  0  0  0  0  0  0  0  0  0
    0.1158    1.8663   -0.2096 C   0  0  0  0  0  0  0  0  0  0  0  0
   -0.9396    1.3108    0.4238 C   0  0  0  0  0  0  0  0  0  0  0  0
   -0.9369    0.9055    1.8747 C   0  0  0  0  0  0  0  0  0  0  0  0
   -2.1727    1.0869   -0.3394 C   0  0  0  0  0  0  0  0  0  0  0  0
   -3.3158    0.5489    0.1220 C   0  0  0  0  0  0  0  0  0  0  0  0
   -4.5220    0.3387   -0.6594 C   0  0  0  0  0  0  0  0  0  0  0  0
   -5.6306   -0.2045   -0.1366 C   0  0  0  0  0  0  0  0  0  0  0  0
   -5.7935   -0.6568    1.2607 C   0  0  0  0  0  0  0  0  0  0  0  0
   -6.8892   -0.4497   -0.8609 C   0  0  0  0  0  0  0  0  0  0  0  0
   -7.1847   -1.2024    1.4345 C   0  0  0  0  0  0  0  0  0  0  0  0
    5.1207   -1.9978    1.5656 H   0  0  0  0  0  0  0  0  0  0  0  0
    5.7265    1.2267   -1.1603 H   0  0  0  0  0  0  0  0  0  0  0  0
    4.2982    2.6438   -0.2333 H   0  0  0  0  0  0  0  0  0  0  0  0
    2.5049    1.7066   -1.4803 H   0  0  0  0  0  0  0  0  0  0  0  0
    3.1878   -3.6432    1.0109 H   0  0  0  0  0  0  0  0  0  0  0  0
    1.9555   -3.2056   -0.1764 H   0  0  0  0  0  0  0  0  0  0  0  0
    2.1146   -0.6405   -2.9677 H   0  0  0  0  0  0  0  0  0  0  0  0
    1.4626   -1.9095   -1.9411 H   0  0  0  0  0  0  0  0  0  0  0  0
    3.0143   -2.1466   -2.7858 H   0  0  0  0  0  0  0  0  0  0  0  0
    1.5246    1.9146    1.3950 H   0  0  0  0  0  0  0  0  0  0  0  0
    3.5905    2.4414    2.0815 H   0  0  0  0  0  0  0  0  0  0  0  0
    5.1759    1.7291    1.9107 H   0  0  0  0  0  0  0  0  0  0  0  0
    3.7461    0.6826    2.0343 H   0  0  0  0  0  0  0  0  0  0  0  0
    1.3476   -2.7220    1.9540 H   0  0  0  0  0  0  0  0  0  0  0  0
    1.7898    4.0231   -0.8091 H   0  0  0  0  0  0  0  0  0  0  0  0
    0.9398    4.2584    0.7228 H   0  0  0  0  0  0  0  0  0  0  0  0
    2.6777    3.9962    0.7200 H   0  0  0  0  0  0  0  0  0  0  0  0
    0.0011    2.1252   -1.2639 H   0  0  0  0  0  0  0  0  0  0  0  0
   -1.1269   -0.1694    1.9728 H   0  0  0  0  0  0  0  0  0  0  0  0
   -1.7084    1.4526    2.4281 H   0  0  0  0  0  0  0  0  0  0  0  0
    0.0053    1.0980    2.3898 H   0  0  0  0  0  0  0  0  0  0  0  0
   -2.1308    1.3963   -1.3831 H   0  0  0  0  0  0  0  0  0  0  0  0
   -3.3043    0.2599    1.1585 H   0  0  0  0  0  0  0  0  0  0  0  0
   -7.1754   -2.2667    1.6736 H   0  0  0  0  0  0  0  0  0  0  0  0
   -7.7669   -0.6094    2.1412 H   0  0  0  0  0  0  0  0  0  0  0  0
   -5.3121    0.5515   -2.4125 H   0  0  0  0  0  0  0  0  0  0  0  0
   -8.6777   -1.2935   -0.1324 H   0  0  0  0  0  0  0  0  0  0  0  0
  1 10  1  0  0  0  0
  1 11  1  0  0  0  0
  2 12  1  0  0  0  0
  2 13  1  0  0  0  0
  3 12  1  0  0  0  0
  3 16  1  0  0  0  0
  4 17  1  0  0  0  0
  4 45  1  0  0  0  0
  5 15  2  0  0  0  0
  6 27  1  0  0  0  0
  6 57  1  0  0  0  0
  7 29  2  0  0  0  0
  8 30  2  0  0  0  0
  9 30  1  0  0  0  0
  9 31  1  0  0  0  0
  9 58  1  0  0  0  0
 10 11  1  0  0  0  0
 10 12  1  0  0  0  0
 10 17  1  0  0  0  0
 11 15  1  0  0  0  0
 11 32  1  0  0  0  0
 12 18  1  0  0  0  0
 13 14  1  0  0  0  0
 13 15  1  0  0  0  0
 13 33  1  0  0  0  0
 14 16  1  0  0  0  0
 14 20  1  0  0  0  0
 14 34  1  0  0  0  0
 16 19  1  0  0  0  0
 16 35  1  0  0  0  0
 17 36  1  0  0  0  0
 17 37  1  0  0  0  0
 18 38  1  0  0  0  0
 18 39  1  0  0  0  0
 18 40  1  0  0  0  0
 19 21  1  0  0  0  0
 19 22  1  0  0  0  0
 19 41  1  0  0  0  0
 20 42  1  0  0  0  0
 20 43  1  0  0  0  0
 20 44  1  0  0  0  0
 21 46  1  0  0  0  0
 21 47  1  0  0  0  0
 21 48  1  0  0  0  0
 22 23  2  0  0  0  0
 22 49  1  0  0  0  0
 23 24  1  0  0  0  0
 23 25  1  0  0  0  0
 24 50  1  0  0  0  0
 24 51  1  0  0  0  0
 24 52  1  0  0  0  0
 25 26  2  0  0  0  0
 25 53  1  0  0  0  0
 26 27  1  0  0  0  0
 26 54  1  0  0  0  0
 27 28  2  0  0  0  0
 28 29  1  0  0  0  0
 28 30  1  0  0  0  0
 29 31  1  0  0  0  0
 31 55  1  0  0  0  0
 31 56  1  0  0  0  0
M  END
> <PUBCHEM_COMPOUND_CID>
129632191

> <PUBCHEM_CONFORMER_RMSD>
0.8

> <PUBCHEM_CONFORMER_DIVERSEORDER>
1
37
83
66
67
51
69
47
78
95
4
43
68
28
15
31
35
105
48
71
7
58
72
88
12
20
80
94
8
2
85
77
29
36
44
11
39
91
59
103
89
10
34
104
63
6
18
49
32
9
16
42
86
5
75
19
38
45
70
54
93
40
25
76
17
41
106
14
21
81
62
100
57
53
3
92
50
13
101
46
64
22
61
74
87
33
84
55
79
97
26
96
90
60
102
27
99
65
52
30
82
24
56
107
23
98
73

> <PUBCHEM_MMFF94_PARTIAL_CHARGES>
34
1 -0.3
10 -0.04
11 0.05
12 0.65
13 0.34
15 0.51
16 0.28
17 0.38
19 0.14
2 -0.56
22 -0.29
23 -0.14
24 0.14
25 -0.15
26 -0.15
27 0.08
28 0.03
29 0.49
3 -0.56
30 0.62
31 0.36
32 0.1
4 -0.68
45 0.4
49 0.15
5 -0.57
53 0.15
54 0.15
57 0.45
58 0.37
6 -0.53
7 -0.57
8 -0.57
9 -0.73

> <PUBCHEM_EFFECTIVE_ROTOR_COUNT>
6.4

> <PUBCHEM_PHARMACOPHORE_FEATURES>
16
1 1 acceptor
1 2 acceptor
1 21 hydrophobe
1 24 hydrophobe
1 28 anion
1 3 acceptor
1 4 acceptor
1 4 donor
1 5 acceptor
1 6 donor
1 7 acceptor
1 8 acceptor
1 9 donor
5 9 28 29 30 31 rings
6 2 3 12 13 14 16 rings
7 1 2 10 11 12 13 15 rings

> <PUBCHEM_HEAVY_ATOM_COUNT>
31

> <PUBCHEM_ATOM_DEF_STEREO_COUNT>
5

> <PUBCHEM_ATOM_UDEF_STEREO_COUNT>
2

> <PUBCHEM_BOND_DEF_STEREO_COUNT>
3

> <PUBCHEM_BOND_UDEF_STEREO_COUNT>
0

> <PUBCHEM_ISOTOPIC_ATOM_COUNT>
0

> <PUBCHEM_COMPONENT_COUNT>
1

> <PUBCHEM_CACTVS_TAUTO_COUNT>
207

> <PUBCHEM_CONFORMER_ID>
07BA07BF00000001

> <PUBCHEM_MMFF94_ENERGY>
85.1826

> <PUBCHEM_FEATURE_SELFOVERLAP>
81.74

> <PUBCHEM_SHAPE_FINGERPRINT>
10316853 100 18334579078866962634
10670039 82 15502366804043148685
10763959 59 10519985958842826026
11135609 99 18261110739034944274
11828532 37 15719970132220456401
12596602 18 15123514696520291911
12778500 126 14045750287955288052
13533116 47 18202002161323004289
13617811 41 16805323332234309111
13685833 64 18410576197545178081
13782708 43 18259987098211463547
15001296 14 17774717683735913909
15119646 104 18342742909663718905
15183329 4 18040150704799672337
15352257 5 18261114106193878283
15483637 11 18048880998169350051
15537594 2 18343300392155233023
15721738 202 17704356550319342154
17492 89 18051694343977555262
17857418 61 18060421322459440741
19315092 285 18059008372671349954
19377110 9 17275107219330632417
1979834 28 17346323674030271070
20567600 247 18412822499980066083
21033650 10 16153984635082874125
21315764 119 16805601435186925391
21623969 137 18341899593088285543
22061861 79 18259983778106687949
22122407 14 8070032203140486247
2303208 19 17895198848546773633
23559900 14 18262237854195654801
23569914 152 17615372916034305183
25222932 49 18411417285032708846
27425 322 15141535795458200556
3411729 13 14835543903659497000
34797466 226 17168150095973227909
404807 78 16951142775168737163
439807 62 18114181913281711867
4461854 278 17847066596948055678
46194498 28 17676486185081307004
484989 97 17968674773418670170
5104073 3 18059297565346069313
513532 50 15936127469794951948
5718773 13 18189612744696267706
58260988 393 16200155353146645522
59755656 215 17603579742902891585

> <PUBCHEM_SHAPE_MULTIPOLES>
586.03
19.81
2.75
1.72
33.1
0.62
0.12
-8.47
-0.1
-4.05
-0.4
1.43
-0.39
0.93

> <PUBCHEM_SHAPE_SELFOVERLAP>
1252.891

> <PUBCHEM_SHAPE_VOLUME>
322

> <PUBCHEM_COORDINATE_TYPE>
2
5
10

$$$$
