129627692
  -OEChem-03292013293D

 60 61  0     1  0  0  0  0  0999 V2000
    0.8828    4.3167   -0.2893 Cl  0  0  0  0  0  0  0  0  0  0  0  0
    1.9416   -2.6869   -1.5524 S   0  0  0  0  0  0  0  0  0  0  0  0
    1.4358   -0.7642    0.3159 O   0  0  0  0  0  0  0  0  0  0  0  0
    3.4797    0.8540    1.6486 O   0  0  0  0  0  0  0  0  0  0  0  0
    5.5719   -0.7202    0.7620 O   0  0  0  0  0  0  0  0  0  0  0  0
    4.2140   -3.2099    0.4376 O   0  0  0  0  0  0  0  0  0  0  0  0
   -1.1294    1.5252    1.6047 O   0  0  0  0  0  0  0  0  0  0  0  0
   -3.5216    1.7604    0.4701 N   0  0  2  0  0  0  0  0  0  0  0  0
   -0.0989    1.3544   -0.4756 N   0  0  0  0  0  0  0  0  0  0  0  0
   -4.0749   -0.4859    0.5353 C   0  0  1  0  0  0  0  0  0  0  0  0
   -2.4713    1.1082   -0.3204 C   0  0  2  0  0  0  0  0  0  0  0  0
   -2.8302   -0.3794   -0.3438 C   0  0  0  0  0  0  0  0  0  0  0  0
   -4.7004    0.8947    0.3941 C   0  0  0  0  0  0  0  0  0  0  0  0
    2.1138    0.3456   -0.2927 C   0  0  1  0  0  0  0  0  0  0  0  0
    1.2611    1.5853   -0.0417 C   0  0  1  0  0  0  0  0  0  0  0  0
    3.5340    0.4922    0.2665 C   0  0  2  0  0  0  0  0  0  0  0  0
   -5.0080   -1.6143    0.1309 C   0  0  0  0  0  0  0  0  0  0  0  0
    4.3111   -0.8171    0.1035 C   0  0  2  0  0  0  0  0  0  0  0  0
   -1.1780    1.3449    0.3906 C   0  0  0  0  0  0  0  0  0  0  0  0
    3.5248   -1.9892    0.6894 C   0  0  1  0  0  0  0  0  0  0  0  0
    2.0850   -2.0325    0.1539 C   0  0  2  0  0  0  0  0  0  0  0  0
    1.8553    2.8608   -0.6745 C   0  0  1  0  0  0  0  0  0  0  0  0
   -3.8072    3.1197    0.0316 C   0  0  0  0  0  0  0  0  0  0  0  0
   -4.3010   -2.9682    0.1715 C   0  0  0  0  0  0  0  0  0  0  0  0
    2.0021    2.7512   -2.1898 C   0  0  0  0  0  0  0  0  0  0  0  0
   -5.2423   -4.1008   -0.2059 C   0  0  0  0  0  0  0  0  0  0  0  0
    0.1502   -2.5446   -1.7201 C   0  0  0  0  0  0  0  0  0  0  0  0
   -3.7591   -0.6339    1.5781 H   0  0  0  0  0  0  0  0  0  0  0  0
   -2.4323    1.4910   -1.3483 H   0  0  0  0  0  0  0  0  0  0  0  0
   -3.0565   -0.6785   -1.3749 H   0  0  0  0  0  0  0  0  0  0  0  0
   -2.0283   -1.0251    0.0303 H   0  0  0  0  0  0  0  0  0  0  0  0
   -5.2196    0.9968   -0.5677 H   0  0  0  0  0  0  0  0  0  0  0  0
   -5.4081    1.1020    1.2032 H   0  0  0  0  0  0  0  0  0  0  0  0
    2.1613    0.1485   -1.3691 H   0  0  0  0  0  0  0  0  0  0  0  0
    1.2149    1.7509    1.0424 H   0  0  0  0  0  0  0  0  0  0  0  0
    4.0889    1.2871   -0.2407 H   0  0  0  0  0  0  0  0  0  0  0  0
   -5.8736   -1.6279    0.8046 H   0  0  0  0  0  0  0  0  0  0  0  0
   -5.3985   -1.4397   -0.8797 H   0  0  0  0  0  0  0  0  0  0  0  0
    4.5217   -1.0047   -0.9562 H   0  0  0  0  0  0  0  0  0  0  0  0
    3.4963   -1.8739    1.7804 H   0  0  0  0  0  0  0  0  0  0  0  0
   -0.2554    1.1657   -1.4614 H   0  0  0  0  0  0  0  0  0  0  0  0
    1.5306   -2.7474    0.7724 H   0  0  0  0  0  0  0  0  0  0  0  0
    2.8376    3.0713   -0.2427 H   0  0  0  0  0  0  0  0  0  0  0  0
   -2.9154    3.7494    0.1212 H   0  0  0  0  0  0  0  0  0  0  0  0
   -4.5791    3.5700    0.6653 H   0  0  0  0  0  0  0  0  0  0  0  0
   -4.1516    3.1582   -1.0081 H   0  0  0  0  0  0  0  0  0  0  0  0
   -3.4517   -2.9840   -0.5203 H   0  0  0  0  0  0  0  0  0  0  0  0
   -3.9044   -3.1514    1.1769 H   0  0  0  0  0  0  0  0  0  0  0  0
    2.4043    3.6831   -2.6044 H   0  0  0  0  0  0  0  0  0  0  0  0
    2.7009    1.9596   -2.4746 H   0  0  0  0  0  0  0  0  0  0  0  0
    1.0451    2.5601   -2.6859 H   0  0  0  0  0  0  0  0  0  0  0  0
    2.8741    0.2415    2.0990 H   0  0  0  0  0  0  0  0  0  0  0  0
    6.0446    0.0381    0.3783 H   0  0  0  0  0  0  0  0  0  0  0  0
   -6.0911   -4.1516    0.4834 H   0  0  0  0  0  0  0  0  0  0  0  0
   -4.7162   -5.0599   -0.1675 H   0  0  0  0  0  0  0  0  0  0  0  0
   -5.6306   -3.9666   -1.2205 H   0  0  0  0  0  0  0  0  0  0  0  0
    3.6759   -3.9305    0.8072 H   0  0  0  0  0  0  0  0  0  0  0  0
   -0.1580   -3.0102   -2.6602 H   0  0  0  0  0  0  0  0  0  0  0  0
   -0.1526   -1.4953   -1.7470 H   0  0  0  0  0  0  0  0  0  0  0  0
   -0.3592   -3.0576   -0.9001 H   0  0  0  0  0  0  0  0  0  0  0  0
  1 22  1  0  0  0  0
  2 21  1  0  0  0  0
  2 27  1  0  0  0  0
  3 14  1  0  0  0  0
  3 21  1  0  0  0  0
  4 16  1  0  0  0  0
  4 52  1  0  0  0  0
  5 18  1  0  0  0  0
  5 53  1  0  0  0  0
  6 20  1  0  0  0  0
  6 57  1  0  0  0  0
  7 19  2  0  0  0  0
  8 11  1  0  0  0  0
  8 13  1  0  0  0  0
  8 23  1  0  0  0  0
  9 15  1  0  0  0  0
  9 19  1  0  0  0  0
  9 41  1  0  0  0  0
 10 12  1  0  0  0  0
 10 13  1  0  0  0  0
 10 17  1  0  0  0  0
 10 28  1  0  0  0  0
 11 12  1  0  0  0  0
 11 19  1  0  0  0  0
 11 29  1  0  0  0  0
 12 30  1  0  0  0  0
 12 31  1  0  0  0  0
 13 32  1  0  0  0  0
 13 33  1  0  0  0  0
 14 15  1  0  0  0  0
 14 16  1  0  0  0  0
 14 34  1  0  0  0  0
 15 22  1  0  0  0  0
 15 35  1  0  0  0  0
 16 18  1  0  0  0  0
 16 36  1  0  0  0  0
 17 24  1  0  0  0  0
 17 37  1  0  0  0  0
 17 38  1  0  0  0  0
 18 20  1  0  0  0  0
 18 39  1  0  0  0  0
 20 21  1  0  0  0  0
 20 40  1  0  0  0  0
 21 42  1  0  0  0  0
 22 25  1  0  0  0  0
 22 43  1  0  0  0  0
 23 44  1  0  0  0  0
 23 45  1  0  0  0  0
 23 46  1  0  0  0  0
 24 26  1  0  0  0  0
 24 47  1  0  0  0  0
 24 48  1  0  0  0  0
 25 49  1  0  0  0  0
 25 50  1  0  0  0  0
 25 51  1  0  0  0  0
 26 54  1  0  0  0  0
 26 55  1  0  0  0  0
 26 56  1  0  0  0  0
 27 58  1  0  0  0  0
 27 59  1  0  0  0  0
 27 60  1  0  0  0  0
M  END
> <PUBCHEM_COMPOUND_CID>
129627692

> <PUBCHEM_CONFORMER_RMSD>
1

> <PUBCHEM_CONFORMER_DIVERSEORDER>
1
21
60
112
36
253
220
42
176
126
110
34
85
246
254
145
83
121
185
146
157
212
183
255
272
63
75
247
96
202
94
105
108
61
161
51
66
215
190
229
86
82
90
160
159
258
219
103
172
191
158
150
39
251
124
109
92
88
162
273
184
165
49
138
12
67
222
239
242
233
168
72
130
137
177
206
154
133
128
216
104
171
117
93
167
256
257
24
78
100
238
164
143
166
33
217
169
11
27
270
182
268
237
28
211
245
221
23
152
200
62
22
123
76
98
6
102
250
181
243
101
25
226
178
31
240
132
189
214
129
80
125
43
7
15
84
79
218
19
69
111
47
131
106
204
64
16
52
225
196
73
141
115
139
68
3
198
114
187
209
235
99
156
197
8
180
55
227
262
40
81
149
163
261
186
266
192
44
95
118
122
77
263
29
87
148
269
91
56
228
14
136
53
119
134
207
201
58
249
274
26
135
265
30
252
97
259
71
170
54
210
65
205
173
151
144
57
50
244
188
46
224
271
41
175
17
74
153
89
116
113
70
18
9
10
248
20
203
127
223
267
120
174
213
107
230
231
208
5
241
193
275
13
199
236
4
38
48
194
59
260
32
147
234
140
195
232
142
35
264
155
2
45
37
179

> <PUBCHEM_MMFF94_PARTIAL_CHARGES>
25
1 -0.29
11 0.33
13 0.27
14 0.28
15 0.3
16 0.28
18 0.28
19 0.57
2 -0.46
20 0.28
21 0.51
22 0.29
23 0.27
27 0.23
3 -0.56
4 -0.68
41 0.37
5 -0.68
52 0.4
53 0.4
57 0.4
6 -0.68
7 -0.57
8 -0.81
9 -0.73

> <PUBCHEM_EFFECTIVE_ROTOR_COUNT>
10.2

> <PUBCHEM_PHARMACOPHORE_FEATURES>
14
1 26 hydrophobe
1 27 hydrophobe
1 3 acceptor
1 4 acceptor
1 4 donor
1 5 acceptor
1 5 donor
1 6 acceptor
1 6 donor
1 7 acceptor
1 8 cation
1 9 donor
5 8 10 11 12 13 rings
6 3 14 16 18 20 21 rings

> <PUBCHEM_HEAVY_ATOM_COUNT>
27

> <PUBCHEM_ATOM_DEF_STEREO_COUNT>
8

> <PUBCHEM_ATOM_UDEF_STEREO_COUNT>
1

> <PUBCHEM_BOND_DEF_STEREO_COUNT>
0

> <PUBCHEM_BOND_UDEF_STEREO_COUNT>
0

> <PUBCHEM_ISOTOPIC_ATOM_COUNT>
0

> <PUBCHEM_COMPONENT_COUNT>
1

> <PUBCHEM_CACTVS_TAUTO_COUNT>
2

> <PUBCHEM_CONFORMER_ID>
07B9F62C00000001

> <PUBCHEM_MMFF94_ENERGY>
61.3764

> <PUBCHEM_FEATURE_SELFOVERLAP>
71.063

> <PUBCHEM_SHAPE_FINGERPRINT>
10616163 171 18341056306556621447
10940486 97 18189627046346630421
11578080 2 13182190501120458761
12107183 9 18339372873030043377
12422481 6 18127949955130852906
12596599 1 18055366742282720051
13004483 165 17754730525048152472
13140716 1 18268423538740097106
13583140 156 17917417718795697625
14178342 30 18271816661656763889
14955137 171 18342462551800199764
15250474 111 18338520837059042687
17492 89 18337109072470817779
1813 80 17532382971748727260
18681886 176 18268433615050365368
19141452 34 18264489482031228153
19319366 153 17546164568260368333
20626108 58 18334849524304204184
21421861 104 18267044889019773715
23558518 356 18335145297717361009
23559900 14 18411409627512299225
23622692 118 18338232773496855509
24893989 43 16259555717177023263
3004659 81 18042677472519364331
338550 245 18338236080125950951
340366 18 18189624835034545701
463206 1 18262243226861716019
5104073 3 18271239426409741955
5312544 6 18048600618540123053
6823239 73 18058469641453337862
9709674 26 18261399983242684859

> <PUBCHEM_SHAPE_MULTIPOLES>
522.06
10.92
5.28
1.28
7.02
0.31
0.42
-7.77
-2.53
1.48
1.32
-1
0.06
-1.11

> <PUBCHEM_SHAPE_SELFOVERLAP>
1026.67

> <PUBCHEM_SHAPE_VOLUME>
316.7

> <PUBCHEM_COORDINATE_TYPE>
2
5
10

$$$$
