129630696
  -OEChem-03292013293D

 18 22  0     1  0  0  0  0  0999 V2000
   -2.7976    0.0186    0.3197 P   0  0  1  0  0  0  0  0  0  0  0  0
    2.6923    0.1259    0.2234 P   0  0  2  0  0  0  0  0  0  0  0  0
   -2.4088    0.7952   -1.0540 O   0  0  0  0  0  0  0  0  0  0  0  0
   -2.1292   -1.3882   -0.1757 O   0  0  0  0  0  0  0  0  0  0  0  0
   -1.6762    0.6370    1.3678 O   0  0  0  0  0  0  0  0  0  0  0  0
    1.7131   -0.3096    1.4501 O   0  0  0  0  0  0  0  0  0  0  0  0
    0.9556    1.5502   -1.1011 O   0  0  0  0  0  0  0  0  0  0  0  0
    1.3079   -1.9504   -0.5279 O   0  0  0  0  0  0  0  0  0  0  0  0
    2.0783    1.5909   -0.1599 O   0  0  0  0  0  0  0  0  0  0  0  0
    2.2190   -0.8704   -0.9798 O   0  0  0  0  0  0  0  0  0  0  0  0
   -4.2328    0.0060    0.7366 O   0  0  0  0  0  0  0  0  0  0  0  0
    4.1563    0.1080    0.5464 O   0  0  0  0  0  0  0  0  0  0  0  0
   -1.0369    0.3978   -1.2224 C   0  0  0  0  0  0  0  0  0  0  0  0
   -0.8868   -1.0044   -0.8691 C   0  0  0  0  0  0  0  0  0  0  0  0
   -0.2985    0.7919    0.8838 C   0  0  0  0  0  0  0  0  0  0  0  0
    0.3973   -0.4064    1.0271 C   0  0  0  0  0  0  0  0  0  0  0  0
   -0.2390    1.2260   -0.4439 C   0  0  0  0  0  0  0  0  0  0  0  0
    0.1861   -1.3184   -0.0213 C   0  0  0  0  0  0  0  0  0  0  0  0
  1  3  1  0  0  0  0
  1  4  1  0  0  0  0
  1  5  1  0  0  0  0
  1 11  2  0  0  0  0
  2  6  1  0  0  0  0
  2  9  1  0  0  0  0
  2 10  1  0  0  0  0
  2 12  2  0  0  0  0
  3 13  1  0  0  0  0
  4 14  1  0  0  0  0
  5 15  1  0  0  0  0
  6 16  1  0  0  0  0
  7  9  1  0  0  0  0
  7 17  1  0  0  0  0
  8 10  1  0  0  0  0
  8 18  1  0  0  0  0
 13 14  1  0  0  0  0
 13 17  2  0  0  0  0
 14 18  2  0  0  0  0
 15 16  2  0  0  0  0
 15 17  1  0  0  0  0
 16 18  1  0  0  0  0
M  END
> <PUBCHEM_COMPOUND_CID>
129630696

> <PUBCHEM_CONFORMER_RMSD>
0.6

> <PUBCHEM_CONFORMER_DIVERSEORDER>
1
2

> <PUBCHEM_MMFF94_PARTIAL_CHARGES>
18
1 1.51
10 -0.27
11 -0.7
12 -0.7
13 0.08
14 0.08
15 0.08
16 0.08
17 0.08
18 0.08
2 1.51
3 -0.35
4 -0.35
5 -0.35
6 -0.35
7 -0.08
8 -0.08
9 -0.27

> <PUBCHEM_EFFECTIVE_ROTOR_COUNT>
1.6

> <PUBCHEM_PHARMACOPHORE_FEATURES>
5
1 11 acceptor
1 12 acceptor
10 1 3 4 5 13 14 15 16 17 18 rings
6 2 6 8 10 16 18 rings
7 2 6 7 9 15 16 17 rings

> <PUBCHEM_HEAVY_ATOM_COUNT>
18

> <PUBCHEM_ATOM_DEF_STEREO_COUNT>
0

> <PUBCHEM_ATOM_UDEF_STEREO_COUNT>
2

> <PUBCHEM_BOND_DEF_STEREO_COUNT>
0

> <PUBCHEM_BOND_UDEF_STEREO_COUNT>
0

> <PUBCHEM_ISOTOPIC_ATOM_COUNT>
0

> <PUBCHEM_COMPONENT_COUNT>
1

> <PUBCHEM_CACTVS_TAUTO_COUNT>
1

> <PUBCHEM_CONFORMER_ID>
07BA01E800000001

> <PUBCHEM_MMFF94_ENERGY>
245.225

> <PUBCHEM_FEATURE_SELFOVERLAP>
26.542

> <PUBCHEM_SHAPE_FINGERPRINT>
10863032 1 18196936788599661220
10948715 1 16702304550618033928
12423570 1 18335695065973045591
12491281 212 18201174220466414960
13024252 1 15791725287123886440
13172582 1 18335980951791504934
144361 1 18263070179706514992
14943859 89 15482670173674549915
15219456 202 18336261219856161655
15775835 57 18188776179133995260
16945 1 18341324522399343261
21501502 16 18118407486290093495
23419403 2 15592360589114236456
23559900 14 17560515210144256072
2748010 2 18264760141910671732
276578 36 17846792792755865979
296302 2 16200147729273745648
3286 77 16732982054588322932
369184 2 17458616796464237466
5084963 1 18262791990379753392
528886 8 18341891904859305690

> <PUBCHEM_SHAPE_MULTIPOLES>
319.44
4.77
1.49
1.25
0.04
0.18
0.07
-0.16
0.94
-0.32
-0.35
0.13
-0.12
-0.01

> <PUBCHEM_SHAPE_SELFOVERLAP>
726.536

> <PUBCHEM_SHAPE_VOLUME>
169.4

> <PUBCHEM_COORDINATE_TYPE>
2
5
10

$$$$
