129656
  -OEChem-03292013323D

 28 28  0     0  0  0  0  0  0999 V2000
    4.4286   -0.9227    1.5269 F   0  0  0  0  0  0  0  0  0  0  0  0
   -0.0493   -2.3613    0.1812 O   0  0  0  0  0  0  0  0  0  0  0  0
   -4.9312    2.1086    0.8347 O   0  0  0  0  0  0  0  0  0  0  0  0
    0.6509    1.3960   -1.5661 O   0  0  0  0  0  0  0  0  0  0  0  0
   -5.2873   -0.0535    1.4274 O   0  0  0  0  0  0  0  0  0  0  0  0
    4.8109    1.5104    0.3856 O   0  0  0  0  0  0  0  0  0  0  0  0
   -0.9195   -0.6864   -1.1237 N   0  0  0  0  0  0  0  0  0  0  0  0
    1.2687   -0.4472   -0.2191 N   0  0  0  0  0  0  0  0  0  0  0  0
    2.7043    1.4337   -0.5744 N   0  0  0  0  0  0  0  0  0  0  0  0
   -3.2398   -1.0159   -0.3209 C   0  0  0  0  0  0  0  0  0  0  0  0
   -2.1783   -1.3525   -1.3673 C   0  0  0  0  0  0  0  0  0  0  0  0
   -3.6141    0.4674   -0.2654 C   0  0  0  0  0  0  0  0  0  0  0  0
    0.0863   -1.2516   -0.3450 C   0  0  0  0  0  0  0  0  0  0  0  0
    1.4668    0.8258   -0.8379 C   0  0  0  0  0  0  0  0  0  0  0  0
    2.2960   -0.9854    0.5552 C   0  0  0  0  0  0  0  0  0  0  0  0
   -4.6968    0.7730    0.7462 C   0  0  0  0  0  0  0  0  0  0  0  0
    3.4591   -0.3759    0.7709 C   0  0  0  0  0  0  0  0  0  0  0  0
    3.7448    0.9375    0.1916 C   0  0  0  0  0  0  0  0  0  0  0  0
   -2.8911   -1.3344    0.6698 H   0  0  0  0  0  0  0  0  0  0  0  0
   -4.1398   -1.6056   -0.5358 H   0  0  0  0  0  0  0  0  0  0  0  0
   -2.5179   -1.0454   -2.3622 H   0  0  0  0  0  0  0  0  0  0  0  0
   -2.0145   -2.4354   -1.3906 H   0  0  0  0  0  0  0  0  0  0  0  0
   -3.9723    0.7929   -1.2484 H   0  0  0  0  0  0  0  0  0  0  0  0
   -2.7326    1.0603    0.0033 H   0  0  0  0  0  0  0  0  0  0  0  0
   -0.7911    0.2316   -1.5323 H   0  0  0  0  0  0  0  0  0  0  0  0
    2.1241   -1.9571    1.0053 H   0  0  0  0  0  0  0  0  0  0  0  0
    2.8553    2.3423   -1.0041 H   0  0  0  0  0  0  0  0  0  0  0  0
   -5.6250    2.3147    1.4970 H   0  0  0  0  0  0  0  0  0  0  0  0
  1 17  1  0  0  0  0
  2 13  2  0  0  0  0
  3 16  1  0  0  0  0
  3 28  1  0  0  0  0
  4 14  2  0  0  0  0
  5 16  2  0  0  0  0
  6 18  2  0  0  0  0
  7 11  1  0  0  0  0
  7 13  1  0  0  0  0
  7 25  1  0  0  0  0
  8 13  1  0  0  0  0
  8 14  1  0  0  0  0
  8 15  1  0  0  0  0
  9 14  1  0  0  0  0
  9 18  1  0  0  0  0
  9 27  1  0  0  0  0
 10 11  1  0  0  0  0
 10 12  1  0  0  0  0
 10 19  1  0  0  0  0
 10 20  1  0  0  0  0
 11 21  1  0  0  0  0
 11 22  1  0  0  0  0
 12 16  1  0  0  0  0
 12 23  1  0  0  0  0
 12 24  1  0  0  0  0
 15 17  2  0  0  0  0
 15 26  1  0  0  0  0
 17 18  1  0  0  0  0
M  END
> <PUBCHEM_COMPOUND_CID>
129656

> <PUBCHEM_CONFORMER_RMSD>
0.8

> <PUBCHEM_CONFORMER_DIVERSEORDER>
1
13
34
36
21
49
45
15
37
18
47
16
48
4
24
20
50
29
19
17
11
44
28
31
54
43
33
52
26
9
46
6
22
35
5
8
39
25
53
51
38
27
32
41
42
40
10
3
12
14
2
30
23
7

> <PUBCHEM_MMFF94_PARTIAL_CHARGES>
21
1 -0.15
11 0.3
12 0.06
13 0.69
14 0.69
15 -0.04
16 0.66
17 0.16
18 0.62
2 -0.57
25 0.37
26 0.15
27 0.37
28 0.5
3 -0.65
4 -0.57
5 -0.57
6 -0.57
7 -0.73
8 -0.23
9 -0.49

> <PUBCHEM_EFFECTIVE_ROTOR_COUNT>
6

> <PUBCHEM_PHARMACOPHORE_FEATURES>
9
1 2 acceptor
1 3 acceptor
1 4 acceptor
1 5 acceptor
1 6 acceptor
1 7 donor
1 9 donor
3 3 5 16 anion
6 8 9 14 15 17 18 rings

> <PUBCHEM_HEAVY_ATOM_COUNT>
18

> <PUBCHEM_ATOM_DEF_STEREO_COUNT>
0

> <PUBCHEM_ATOM_UDEF_STEREO_COUNT>
0

> <PUBCHEM_BOND_DEF_STEREO_COUNT>
0

> <PUBCHEM_BOND_UDEF_STEREO_COUNT>
0

> <PUBCHEM_ISOTOPIC_ATOM_COUNT>
0

> <PUBCHEM_COMPONENT_COUNT>
1

> <PUBCHEM_CACTVS_TAUTO_COUNT>
6

> <PUBCHEM_CONFORMER_ID>
0001FA7800000001

> <PUBCHEM_MMFF94_ENERGY>
30.6773

> <PUBCHEM_FEATURE_SELFOVERLAP>
45.732

> <PUBCHEM_SHAPE_FINGERPRINT>
10354089 29 18260553345945478624
10382601 240 18261388901831805250
10465860 228 18341896251282170719
10498660 4 16845574176256762081
11552529 35 17825112759882091675
12596602 18 18114181947604696601
12644460 14 16950853608285147100
12670546 177 10952053355292412337
14123255 352 18060700589585681857
14252887 29 17095795577633833272
15188451 53 16371297739945890043
15209294 21 18342452664347770669
15475509 8 18339098029445934132
1741750 31 17703792522551000031
18785283 64 16154564240723888132
193927 3 12757154558776210763
19784866 9 18412825755101040163
20261772 1 18408322176858919605
20645477 56 17131556132639397199
20671657 53 8286192856134938559
20739085 24 18113624447806414092
22393880 68 10807939224052616387
231179 274 15626220230016979686
23184049 59 18186515514365269374
23402539 116 16917063377974288588
23557571 272 16558192738776908519
23559900 14 16988574506702336444
3472631 163 17704072923722641385
38570 142 17679612153027472132
5104073 3 18262787588449940266
5352402 22 16805323279813661915
633830 44 18342454846307624246

> <PUBCHEM_SHAPE_MULTIPOLES>
318.87
10.77
1.9
1.27
6.12
0
-0.05
-5.01
5.2
0.45
-0.04
0.22
-0.01
-1.41

> <PUBCHEM_SHAPE_SELFOVERLAP>
651.938

> <PUBCHEM_SHAPE_VOLUME>
181.8

> <PUBCHEM_COORDINATE_TYPE>
2
5
10

$$$$
