129650168
  -OEChem-03292013293D

 36 36  0     1  0  0  0  0  0999 V2000
    3.9273    1.4679    0.2450 O   0  0  0  0  0  0  0  0  0  0  0  0
    1.6742    2.5646    0.9077 O   0  0  0  0  0  0  0  0  0  0  0  0
    2.2243   -0.9355   -1.7158 O   0  0  0  0  0  0  0  0  0  0  0  0
    3.3837    0.9161   -2.3167 O   0  0  0  0  0  0  0  0  0  0  0  0
    4.0098   -2.7069    1.2092 O   0  0  0  0  0  0  0  0  0  0  0  0
   -3.9550   -2.2216   -0.1843 O   0  0  0  0  0  0  0  0  0  0  0  0
    5.2102   -1.0682    0.1816 O   0  0  0  0  0  0  0  0  0  0  0  0
   -6.1074   -0.4646   -0.2720 O   0  0  0  0  0  0  0  0  0  0  0  0
    2.8037    0.6052    0.0364 C   0  0  1  0  0  0  0  0  0  0  0  0
    2.9735   -0.5911    0.9918 C   0  0  0  0  0  0  0  0  0  0  0  0
    1.5706    1.4375    0.4245 C   0  0  0  0  0  0  0  0  0  0  0  0
    2.8521    0.2399   -1.4456 C   0  0  0  0  0  0  0  0  0  0  0  0
    0.2264    0.8259    0.1871 C   0  0  0  0  0  0  0  0  0  0  0  0
   -2.2566    0.9791    0.2993 C   0  0  0  0  0  0  0  0  0  0  0  0
   -0.8915    1.4953    0.5019 C   0  0  0  0  0  0  0  0  0  0  0  0
    4.1882   -1.4499    0.7334 C   0  0  0  0  0  0  0  0  0  0  0  0
   -2.4685   -0.3916    0.1510 C   0  0  0  0  0  0  0  0  0  0  0  0
   -3.3368    1.8605    0.2554 C   0  0  0  0  0  0  0  0  0  0  0  0
   -3.7606   -0.8809   -0.0409 C   0  0  0  0  0  0  0  0  0  0  0  0
   -4.8408    0.0006   -0.0849 C   0  0  0  0  0  0  0  0  0  0  0  0
   -4.6288    1.3713    0.0632 C   0  0  0  0  0  0  0  0  0  0  0  0
   -2.7980   -3.0537   -0.1271 C   0  0  0  0  0  0  0  0  0  0  0  0
    3.0499   -0.2420    2.0294 H   0  0  0  0  0  0  0  0  0  0  0  0
    2.0903   -1.2387    0.9277 H   0  0  0  0  0  0  0  0  0  0  0  0
    0.2191   -0.1594   -0.2591 H   0  0  0  0  0  0  0  0  0  0  0  0
   -0.8324    2.4945    0.9266 H   0  0  0  0  0  0  0  0  0  0  0  0
    4.0217    1.6230    1.2004 H   0  0  0  0  0  0  0  0  0  0  0  0
   -1.6177   -1.0568    0.2190 H   0  0  0  0  0  0  0  0  0  0  0  0
   -3.1901    2.9320    0.3679 H   0  0  0  0  0  0  0  0  0  0  0  0
   -5.4613    2.0692    0.0307 H   0  0  0  0  0  0  0  0  0  0  0  0
    2.2583   -1.1566   -2.6709 H   0  0  0  0  0  0  0  0  0  0  0  0
    4.7960   -3.2726    1.0532 H   0  0  0  0  0  0  0  0  0  0  0  0
   -6.7240    0.2877   -0.2746 H   0  0  0  0  0  0  0  0  0  0  0  0
   -3.1378   -4.0853   -0.2676 H   0  0  0  0  0  0  0  0  0  0  0  0
   -2.3176   -3.0115    0.8565 H   0  0  0  0  0  0  0  0  0  0  0  0
   -2.1018   -2.8373   -0.9447 H   0  0  0  0  0  0  0  0  0  0  0  0
  1  9  1  0  0  0  0
  1 27  1  0  0  0  0
  2 11  2  0  0  0  0
  3 12  1  0  0  0  0
  3 31  1  0  0  0  0
  4 12  2  0  0  0  0
  5 16  1  0  0  0  0
  5 32  1  0  0  0  0
  6 19  1  0  0  0  0
  6 22  1  0  0  0  0
  7 16  2  0  0  0  0
  8 20  1  0  0  0  0
  8 33  1  0  0  0  0
  9 10  1  0  0  0  0
  9 11  1  0  0  0  0
  9 12  1  0  0  0  0
 10 16  1  0  0  0  0
 10 23  1  0  0  0  0
 10 24  1  0  0  0  0
 11 13  1  0  0  0  0
 13 15  2  0  0  0  0
 13 25  1  0  0  0  0
 14 15  1  0  0  0  0
 14 17  2  0  0  0  0
 14 18  1  0  0  0  0
 15 26  1  0  0  0  0
 17 19  1  0  0  0  0
 17 28  1  0  0  0  0
 18 21  2  0  0  0  0
 18 29  1  0  0  0  0
 19 20  2  0  0  0  0
 20 21  1  0  0  0  0
 21 30  1  0  0  0  0
 22 34  1  0  0  0  0
 22 35  1  0  0  0  0
 22 36  1  0  0  0  0
M  END
> <PUBCHEM_COMPOUND_CID>
129650168

> <PUBCHEM_CONFORMER_RMSD>
0.8

> <PUBCHEM_CONFORMER_DIVERSEORDER>
1
18
51
14
141
121
105
152
15
134
117
94
148
17
58
78
75
19
126
46
144
91
53
37
45
42
101
80
156
76
43
99
127
54
104
151
160
77
150
103
142
29
65
132
158
89
131
73
27
50
70
111
86
62
109
124
157
32
69
143
112
116
162
93
47
129
163
90
24
139
48
136
138
30
114
67
79
130
16
39
71
5
154
56
8
107
135
87
149
120
60
33
81
100
119
146
125
113
35
95
97
96
52
72
68
28
31
153
155
34
98
12
108
145
137
66
23
49
74
106
10
133
159
25
9
59
85
22
6
61
83
92
63
161
88
55
57
84
123
122
64
118
102
115
82
7
40
21
147
110
11
44
140
2
26
128
36
20
38
41
13
4
3

> <PUBCHEM_MMFF94_PARTIAL_CHARGES>
31
1 -0.68
10 0.06
11 0.49
12 0.66
13 -0.14
14 0.03
15 -0.18
16 0.66
17 -0.15
18 -0.15
19 0.08
2 -0.57
20 0.08
21 -0.15
22 0.28
25 0.15
26 0.15
27 0.4
28 0.15
29 0.15
3 -0.65
30 0.15
31 0.5
32 0.5
33 0.45
4 -0.57
5 -0.65
6 -0.36
7 -0.57
8 -0.53
9 0.4

> <PUBCHEM_EFFECTIVE_ROTOR_COUNT>
7

> <PUBCHEM_PHARMACOPHORE_FEATURES>
12
1 1 acceptor
1 1 donor
1 2 acceptor
1 3 acceptor
1 4 acceptor
1 5 acceptor
1 6 acceptor
1 7 acceptor
1 8 donor
3 3 4 12 anion
3 5 7 16 anion
6 14 17 18 19 20 21 rings

> <PUBCHEM_HEAVY_ATOM_COUNT>
22

> <PUBCHEM_ATOM_DEF_STEREO_COUNT>
0

> <PUBCHEM_ATOM_UDEF_STEREO_COUNT>
1

> <PUBCHEM_BOND_DEF_STEREO_COUNT>
1

> <PUBCHEM_BOND_UDEF_STEREO_COUNT>
0

> <PUBCHEM_ISOTOPIC_ATOM_COUNT>
0

> <PUBCHEM_COMPONENT_COUNT>
1

> <PUBCHEM_CACTVS_TAUTO_COUNT>
6

> <PUBCHEM_CONFORMER_ID>
07BA4DF800000001

> <PUBCHEM_MMFF94_ENERGY>
60.2959

> <PUBCHEM_FEATURE_SELFOVERLAP>
61.039

> <PUBCHEM_SHAPE_FINGERPRINT>
10616163 171 18269274736912958023
10759866 29 18261682579121535198
11405975 8 18343584062187669281
11796584 16 18340771442555230646
12107183 9 18051130298475106201
12553582 1 18129682827798784337
12555020 224 18339066143534628207
12596599 1 17916601928327807363
12633257 1 18272942609045240409
12788726 201 17989214719919193929
13073987 5 18411416198574898489
13167823 11 18334293158498457857
13533116 47 18408879646713503267
14178342 30 17630334025812827184
14252887 29 16343707595353342308
14386348 63 17775570831580983237
15196674 1 18411416237039264579
15537594 2 18263380216411066043
17349148 13 18059851749323583505
17492 89 18265611177091345667
17857418 61 18411694379269033467
20281475 54 18408322202707909481
20369508 70 18413384337236459512
20403669 9 18273217508432302023
20645477 70 18060139889915828069
21033648 29 15841264835796386817
23559900 14 18272933834016052624
239999 70 18059863921546120404
3004659 81 18260546697589253762
314173 41 18271250520569145321
338550 245 18334014956208296323
3680242 22 18340211769678038059
4214541 1 18411697665024867345
46194498 28 16732988613267323510
463206 1 18334576806734525546
4921388 177 16515975864647173179
5104073 3 18202284719137629417
5281201 14 16805319963930234420
5309563 4 17257094195396334219
559249 180 18263355898459022083
633830 44 16515687732197203729
67856867 119 18334857264262935332
6823239 73 17774458143357514364
960060 61 18040158422048742668
9709674 26 18201441440942418805

> <PUBCHEM_SHAPE_MULTIPOLES>
405.8
12.14
2.69
1.19
4.02
1.41
-0.64
3.83
-0.14
0.39
0.55
-1.74
-0.01
-1.05

> <PUBCHEM_SHAPE_SELFOVERLAP>
848.897

> <PUBCHEM_SHAPE_VOLUME>
227.8

> <PUBCHEM_COORDINATE_TYPE>
2
5
10

$$$$
