129644
  -OEChem-03292013323D

 31 32  0     1  0  0  0  0  0999 V2000
   -1.6619   -0.4122   -0.9732 O   0  0  0  0  0  0  0  0  0  0  0  0
   -2.0700    2.5260    0.9932 O   0  0  0  0  0  0  0  0  0  0  0  0
   -3.6939    0.0513    1.9383 O   0  0  0  0  0  0  0  0  0  0  0  0
   -3.2627   -2.6772   -1.4958 O   0  0  0  0  0  0  0  0  0  0  0  0
    0.6301    2.9955   -0.9319 O   0  0  0  0  0  0  0  0  0  0  0  0
    4.3237    0.3966    0.0175 O   0  0  0  0  0  0  0  0  0  0  0  0
    1.8193   -2.7733    0.6649 O   0  5  0  0  0  0  0  0  0  0  0  0
    3.8848   -2.0102    0.6189 O   0  0  0  0  0  0  0  0  0  0  0  0
    0.2741    0.7526   -0.3728 N   0  0  0  0  0  0  0  0  0  0  0  0
    2.4647    1.6973   -0.4555 N   0  0  0  0  0  0  0  0  0  0  0  0
    2.6580   -1.8756    0.4920 N   0  3  0  0  0  0  0  0  0  0  0  0
   -1.8330    1.1402    0.8232 C   0  0  1  0  0  0  0  0  0  0  0  0
   -3.1351    0.3842    0.6824 C   0  0  1  0  0  0  0  0  0  0  0  0
   -1.1521    0.8467   -0.5044 C   0  0  2  0  0  0  0  0  0  0  0  0
   -2.6789   -0.8578   -0.0619 C   0  0  1  0  0  0  0  0  0  0  0  0
   -3.7938   -1.5419   -0.8319 C   0  0  0  0  0  0  0  0  0  0  0  0
    0.8588   -0.4591   -0.0124 C   0  0  0  0  0  0  0  0  0  0  0  0
    1.0819    1.8942   -0.6102 C   0  0  0  0  0  0  0  0  0  0  0  0
    2.1764   -0.5945    0.1208 C   0  0  0  0  0  0  0  0  0  0  0  0
    3.1095    0.5171   -0.1010 C   0  0  0  0  0  0  0  0  0  0  0  0
   -1.2605    0.7876    1.6890 H   0  0  0  0  0  0  0  0  0  0  0  0
   -3.8743    0.9584    0.1109 H   0  0  0  0  0  0  0  0  0  0  0  0
   -1.3986    1.6037   -1.2584 H   0  0  0  0  0  0  0  0  0  0  0  0
   -2.2156   -1.5836    0.6190 H   0  0  0  0  0  0  0  0  0  0  0  0
   -4.2079   -0.8754   -1.5956 H   0  0  0  0  0  0  0  0  0  0  0  0
   -4.5949   -1.8674   -0.1612 H   0  0  0  0  0  0  0  0  0  0  0  0
   -2.5876    2.8449    0.2344 H   0  0  0  0  0  0  0  0  0  0  0  0
   -3.8574    0.8837    2.4136 H   0  0  0  0  0  0  0  0  0  0  0  0
    0.1639   -1.2692    0.1692 H   0  0  0  0  0  0  0  0  0  0  0  0
    3.0570    2.5060   -0.6227 H   0  0  0  0  0  0  0  0  0  0  0  0
   -3.9955   -3.0946   -1.9799 H   0  0  0  0  0  0  0  0  0  0  0  0
  1 14  1  0  0  0  0
  1 15  1  0  0  0  0
  2 12  1  0  0  0  0
  2 27  1  0  0  0  0
  3 13  1  0  0  0  0
  3 28  1  0  0  0  0
  4 16  1  0  0  0  0
  4 31  1  0  0  0  0
  5 18  2  0  0  0  0
  6 20  2  0  0  0  0
  7 11  1  0  0  0  0
  8 11  2  0  0  0  0
  9 14  1  0  0  0  0
  9 17  1  0  0  0  0
  9 18  1  0  0  0  0
 10 18  1  0  0  0  0
 10 20  1  0  0  0  0
 10 30  1  0  0  0  0
 11 19  1  0  0  0  0
 12 13  1  0  0  0  0
 12 14  1  0  0  0  0
 12 21  1  0  0  0  0
 13 15  1  0  0  0  0
 13 22  1  0  0  0  0
 14 23  1  0  0  0  0
 15 16  1  0  0  0  0
 15 24  1  0  0  0  0
 16 25  1  0  0  0  0
 16 26  1  0  0  0  0
 17 19  2  0  0  0  0
 17 29  1  0  0  0  0
 19 20  1  0  0  0  0
M  CHG  2   7  -1  11   1
M  END
> <PUBCHEM_COMPOUND_CID>
129644

> <PUBCHEM_CONFORMER_RMSD>
0.6

> <PUBCHEM_CONFORMER_DIVERSEORDER>
1
9
7
12
17
3
16
4
11
15
13
10
18
14
2
8
6
5

> <PUBCHEM_MMFF94_PARTIAL_CHARGES>
25
1 -0.56
10 -0.49
11 0.84
12 0.28
13 0.28
14 0.58
15 0.28
16 0.28
17 -0.04
18 0.69
19 0.22
2 -0.68
20 0.62
27 0.4
28 0.4
29 0.15
3 -0.68
30 0.37
31 0.4
4 -0.68
5 -0.57
6 -0.57
7 -0.52
8 -0.52
9 -0.47

> <PUBCHEM_EFFECTIVE_ROTOR_COUNT>
4

> <PUBCHEM_PHARMACOPHORE_FEATURES>
15
1 1 acceptor
1 10 donor
1 2 acceptor
1 2 donor
1 3 acceptor
1 3 donor
1 4 acceptor
1 4 donor
1 5 acceptor
1 6 acceptor
1 7 acceptor
1 7 anion
1 8 acceptor
5 1 12 13 14 15 rings
6 9 10 17 18 19 20 rings

> <PUBCHEM_HEAVY_ATOM_COUNT>
20

> <PUBCHEM_ATOM_DEF_STEREO_COUNT>
3

> <PUBCHEM_ATOM_UDEF_STEREO_COUNT>
1

> <PUBCHEM_BOND_DEF_STEREO_COUNT>
0

> <PUBCHEM_BOND_UDEF_STEREO_COUNT>
0

> <PUBCHEM_ISOTOPIC_ATOM_COUNT>
0

> <PUBCHEM_COMPONENT_COUNT>
1

> <PUBCHEM_CACTVS_TAUTO_COUNT>
3

> <PUBCHEM_CONFORMER_ID>
0001FA6C00000001

> <PUBCHEM_MMFF94_ENERGY>
57.8057

> <PUBCHEM_FEATURE_SELFOVERLAP>
76.23

> <PUBCHEM_SHAPE_FINGERPRINT>
11578080 2 18056730278789154017
11806522 49 18268423701990981100
12251169 10 18270120080643980794
12553582 1 18334580096774191766
12596599 1 18201445727003704342
13140716 1 17975705200878930640
14178342 30 18340192012843936880
14576447 43 18338509867338146086
14787075 74 17627500876432341216
14844126 61 16818246686316437402
15099037 8 18341325669488238951
15375462 189 18341904033999937241
16945 1 18189058749089956989
19433438 48 18341892999981163731
200 152 18339072800259053383
20442098 301 18342461408774675571
20645477 70 17895747525574641079
21634736 98 18124029289406702670
22112679 90 17916035727416393573
22445834 79 18410582764207308449
2255824 54 18190468357609932892
23388829 49 18411139168614765885
23557571 272 16773812406328008325
23598291 2 18341337720786540166
2748010 2 18046051667530774172
6992083 37 18268154158365015697
7097593 13 18341057315341010673
77492 1 18272657882498880573

> <PUBCHEM_SHAPE_MULTIPOLES>
349.69
7.13
2.89
1.14
0.55
0.2
-0.15
3.23
-0.73
0.45
0.3
-1.14
0.06
-1.97

> <PUBCHEM_SHAPE_SELFOVERLAP>
743.018

> <PUBCHEM_SHAPE_VOLUME>
194.4

> <PUBCHEM_COORDINATE_TYPE>
2
5
10

$$$$
