129692185
  -OEChem-03292013293D

 33 32  0     1  0  0  0  0  0999 V2000
   -0.3566   -1.1819   -1.3779 O   0  0  0  0  0  0  0  0  0  0  0  0
    0.9935    0.4842    1.5841 O   0  0  0  0  0  0  0  0  0  0  0  0
    2.0572   -0.6517   -1.7242 O   0  0  0  0  0  0  0  0  0  0  0  0
   -0.8017    1.3043   -1.9804 O   0  0  0  0  0  0  0  0  0  0  0  0
   -1.3456   -1.2073    1.8527 O   0  0  0  0  0  0  0  0  0  0  0  0
    3.9037   -1.6746   -0.0765 O   0  0  0  0  0  0  0  0  0  0  0  0
   -1.9389    2.0494    0.9412 O   0  0  0  0  0  0  0  0  0  0  0  0
   -3.4916   -0.2054   -0.3865 O   0  0  0  0  0  0  0  0  0  0  0  0
   -0.3943   -0.3418   -0.2215 C   0  0  0  0  0  0  0  0  0  0  0  0
    1.0000   -0.3894    0.4555 C   0  0  1  0  0  0  0  0  0  0  0  0
    2.1862   -0.0229   -0.4581 C   0  0  1  0  0  0  0  0  0  0  0  0
   -0.7387    1.0318   -0.7882 C   0  0  0  0  0  0  0  0  0  0  0  0
   -1.4950   -0.9177    0.6719 C   0  0  0  0  0  0  0  0  0  0  0  0
    3.4986   -0.5297    0.1260 C   0  0  0  0  0  0  0  0  0  0  0  0
   -1.0034    2.1679    0.1638 C   0  0  0  0  0  0  0  0  0  0  0  0
   -2.8696   -1.1478    0.0780 C   0  0  0  0  0  0  0  0  0  0  0  0
    4.2751    0.4278    0.9928 C   0  0  0  0  0  0  0  0  0  0  0  0
   -3.3670   -2.5631    0.0733 C   0  0  0  0  0  0  0  0  0  0  0  0
   -0.1117    3.3679    0.0741 C   0  0  0  0  0  0  0  0  0  0  0  0
    1.1510   -1.4117    0.8294 H   0  0  0  0  0  0  0  0  0  0  0  0
    2.2527    1.0587   -0.6143 H   0  0  0  0  0  0  0  0  0  0  0  0
   -1.2027   -1.1070   -1.8514 H   0  0  0  0  0  0  0  0  0  0  0  0
    1.7001    0.1952    2.1845 H   0  0  0  0  0  0  0  0  0  0  0  0
    2.7620   -0.3051   -2.2979 H   0  0  0  0  0  0  0  0  0  0  0  0
    3.7894    0.5430    1.9626 H   0  0  0  0  0  0  0  0  0  0  0  0
    4.3571    1.3967    0.4940 H   0  0  0  0  0  0  0  0  0  0  0  0
    5.2856    0.0384    1.1474 H   0  0  0  0  0  0  0  0  0  0  0  0
   -0.2631    3.8700   -0.8844 H   0  0  0  0  0  0  0  0  0  0  0  0
    0.9323    3.0651    0.1810 H   0  0  0  0  0  0  0  0  0  0  0  0
   -0.3563    4.0634    0.8817 H   0  0  0  0  0  0  0  0  0  0  0  0
   -3.4719   -2.9220    1.1000 H   0  0  0  0  0  0  0  0  0  0  0  0
   -2.6691   -3.1961   -0.4802 H   0  0  0  0  0  0  0  0  0  0  0  0
   -4.3441   -2.6051   -0.4160 H   0  0  0  0  0  0  0  0  0  0  0  0
  1  9  1  0  0  0  0
  1 22  1  0  0  0  0
  2 10  1  0  0  0  0
  2 23  1  0  0  0  0
  3 11  1  0  0  0  0
  3 24  1  0  0  0  0
  4 12  2  0  0  0  0
  5 13  2  0  0  0  0
  6 14  2  0  0  0  0
  7 15  2  0  0  0  0
  8 16  2  0  0  0  0
  9 10  1  0  0  0  0
  9 12  1  0  0  0  0
  9 13  1  0  0  0  0
 10 11  1  0  0  0  0
 10 20  1  0  0  0  0
 11 14  1  0  0  0  0
 11 21  1  0  0  0  0
 12 15  1  0  0  0  0
 13 16  1  0  0  0  0
 14 17  1  0  0  0  0
 15 19  1  0  0  0  0
 16 18  1  0  0  0  0
 17 25  1  0  0  0  0
 17 26  1  0  0  0  0
 17 27  1  0  0  0  0
 18 31  1  0  0  0  0
 18 32  1  0  0  0  0
 18 33  1  0  0  0  0
 19 28  1  0  0  0  0
 19 29  1  0  0  0  0
 19 30  1  0  0  0  0
M  END
> <PUBCHEM_COMPOUND_CID>
129692185

> <PUBCHEM_CONFORMER_RMSD>
1.4

> <PUBCHEM_CONFORMER_DIVERSEORDER>
1
36
39
10
44
7
27
48
30
45
47
23
8
20
25
41
34
26
17
21
37
24
29
3
42
15
18
33
31
6
19
46
32
12
43
40
5
11
14
4
13
22
35
16
9
28
2
38

> <PUBCHEM_MMFF94_PARTIAL_CHARGES>
22
1 -0.68
10 0.28
11 0.34
12 0.51
13 0.51
14 0.45
15 0.51
16 0.51
17 0.06
18 0.06
19 0.06
2 -0.68
22 0.4
23 0.4
24 0.4
3 -0.68
4 -0.57
5 -0.57
6 -0.57
7 -0.57
8 -0.57
9 0.4

> <PUBCHEM_EFFECTIVE_ROTOR_COUNT>
7

> <PUBCHEM_PHARMACOPHORE_FEATURES>
11
1 1 acceptor
1 1 donor
1 2 acceptor
1 2 donor
1 3 acceptor
1 3 donor
1 4 acceptor
1 5 acceptor
1 6 acceptor
1 7 acceptor
1 8 acceptor

> <PUBCHEM_HEAVY_ATOM_COUNT>
19

> <PUBCHEM_ATOM_DEF_STEREO_COUNT>
0

> <PUBCHEM_ATOM_UDEF_STEREO_COUNT>
2

> <PUBCHEM_BOND_DEF_STEREO_COUNT>
0

> <PUBCHEM_BOND_UDEF_STEREO_COUNT>
0

> <PUBCHEM_ISOTOPIC_ATOM_COUNT>
0

> <PUBCHEM_COMPONENT_COUNT>
1

> <PUBCHEM_CACTVS_TAUTO_COUNT>
18

> <PUBCHEM_CONFORMER_ID>
07BAF21900000001

> <PUBCHEM_MMFF94_ENERGY>
33.8209

> <PUBCHEM_FEATURE_SELFOVERLAP>
55.891

> <PUBCHEM_SHAPE_FINGERPRINT>
11132069 177 18337956696961940897
12403814 3 17846204575219704854
12423570 1 17694750284720637697
13134695 92 18195244649374639157
14181834 199 17976825616196880421
14614273 12 18041834000507326951
14617773 55 17750254576441098796
14787075 74 17971187277836152202
15309172 13 10591773068773001667
15490181 7 17615979802743625169
16945 1 18339379473566302807
17844478 74 18131068238335402914
18186145 218 14707207768135714967
200 152 16587735447926142010
20510252 161 18334287648271766272
20600515 1 17895471552440500118
21296965 67 18339923826422219235
21339142 36 18336253604863321757
21501502 16 18122626054671142802
21524375 3 17614569137794135168
22112679 90 17969244289949312125
22802520 49 18129655288795588432
23402539 116 18411408531730960790
23419403 2 18046882025921064957
23557571 272 18342743992364593164
23559900 14 18336817599179572130
3250762 1 17839190610226470119
5845 1 18194430890094308077
6049 1 17916877811747273758
7364860 26 17762904659766786043
81228 2 18262817163061918377

> <PUBCHEM_SHAPE_MULTIPOLES>
344.06
5.83
2.68
1.4
3.86
2.08
-0.17
-3.74
0.81
-1.49
0.14
0.11
0.01
0.36

> <PUBCHEM_SHAPE_SELFOVERLAP>
693.606

> <PUBCHEM_SHAPE_VOLUME>
200

> <PUBCHEM_COORDINATE_TYPE>
2
5
10

$$$$
