129670239
  -OEChem-03292013293D

 54 59  0     1  0  0  0  0  0999 V2000
   -0.4870    0.2857   -1.7238 O   0  0  0  0  0  0  0  0  0  0  0  0
    0.5089    2.6593    0.4558 O   0  0  0  0  0  0  0  0  0  0  0  0
   -0.1314   -2.0411   -1.4479 O   0  0  0  0  0  0  0  0  0  0  0  0
   -3.3904   -0.2149    1.7040 O   0  0  0  0  0  0  0  0  0  0  0  0
   -2.9627    2.0713   -0.2382 O   0  0  0  0  0  0  0  0  0  0  0  0
    3.0960    2.2833    1.2148 O   0  0  0  0  0  0  0  0  0  0  0  0
    1.3828   -2.1276    1.7187 O   0  0  0  0  0  0  0  0  0  0  0  0
   -0.5340    3.1342   -1.5180 O   0  0  0  0  0  0  0  0  0  0  0  0
   -0.1208   -3.8277   -0.0117 O   0  0  0  0  0  0  0  0  0  0  0  0
   -4.9882   -1.3327    0.5036 O   0  0  0  0  0  0  0  0  0  0  0  0
    0.0562    0.3165    0.6147 C   0  0  2  0  0  0  0  0  0  0  0  0
    1.1189   -0.5236   -0.1310 C   0  0  2  0  0  0  0  0  0  0  0  0
   -0.7831    0.9415   -0.4992 C   0  0  2  0  0  0  0  0  0  0  0  0
    0.7808    1.5028    1.2613 C   0  0  1  0  0  0  0  0  0  0  0  0
    2.3593    0.4119   -0.1686 C   0  0  1  0  0  0  0  0  0  0  0  0
   -2.2613    0.8442   -0.0735 C   0  0  1  0  0  0  0  0  0  0  0  0
   -0.9508   -0.3448    1.5579 C   0  0  0  0  0  0  0  0  0  0  0  0
    0.4862   -0.7436   -1.4978 C   0  0  2  0  0  0  0  0  0  0  0  0
    2.2607    1.1423    1.1722 C   0  0  1  0  0  0  0  0  0  0  0  0
   -2.2015    0.5181    1.4099 C   0  0  2  0  0  0  0  0  0  0  0  0
    1.3871   -1.9501    0.3281 C   0  0  2  0  0  0  0  0  0  0  0  0
   -0.2784    2.3568   -0.6104 C   0  0  0  0  0  0  0  0  0  0  0  0
    3.7225   -0.2382   -0.3744 C   0  0  0  0  0  0  0  0  0  0  0  0
   -3.0830   -0.3202   -0.6329 C   0  0  1  0  0  0  0  0  0  0  0  0
    0.3025   -2.7353   -0.3545 C   0  0  0  0  0  0  0  0  0  0  0  0
   -3.9550   -0.6825    0.5477 C   0  0  0  0  0  0  0  0  0  0  0  0
    3.7696   -0.9297   -1.7484 C   0  0  0  0  0  0  0  0  0  0  0  0
    4.8268    0.8319   -0.3114 C   0  0  0  0  0  0  0  0  0  0  0  0
    3.9732   -1.2856    0.7250 C   0  0  0  0  0  0  0  0  0  0  0  0
   -3.9040   -0.0023   -1.8719 C   0  0  0  0  0  0  0  0  0  0  0  0
    0.4795    1.7302    2.2886 H   0  0  0  0  0  0  0  0  0  0  0  0
    2.2318    1.1510   -0.9745 H   0  0  0  0  0  0  0  0  0  0  0  0
   -0.6092   -0.3714    2.5982 H   0  0  0  0  0  0  0  0  0  0  0  0
   -1.1810   -1.3777    1.2831 H   0  0  0  0  0  0  0  0  0  0  0  0
    1.1769   -0.7380   -2.3427 H   0  0  0  0  0  0  0  0  0  0  0  0
    2.5061    0.5136    2.0305 H   0  0  0  0  0  0  0  0  0  0  0  0
   -2.1660    1.4121    2.0426 H   0  0  0  0  0  0  0  0  0  0  0  0
    2.2338   -2.4478   -0.1241 H   0  0  0  0  0  0  0  0  0  0  0  0
   -2.4592   -1.1986   -0.8229 H   0  0  0  0  0  0  0  0  0  0  0  0
   -3.8213    1.9991    0.2123 H   0  0  0  0  0  0  0  0  0  0  0  0
    2.8926    2.7637    2.0353 H   0  0  0  0  0  0  0  0  0  0  0  0
    3.4448   -1.1696    1.6663 H   0  0  0  0  0  0  0  0  0  0  0  0
    3.5589   -0.2139   -2.5516 H   0  0  0  0  0  0  0  0  0  0  0  0
    3.0845   -1.7705   -1.8619 H   0  0  0  0  0  0  0  0  0  0  0  0
    4.7729   -1.3315   -1.9372 H   0  0  0  0  0  0  0  0  0  0  0  0
    5.0544    1.1534    0.7095 H   0  0  0  0  0  0  0  0  0  0  0  0
    5.7691    0.4311   -0.7062 H   0  0  0  0  0  0  0  0  0  0  0  0
    3.9852   -2.3259    0.3864 H   0  0  0  0  0  0  0  0  0  0  0  0
    5.0223   -1.1802    1.0463 H   0  0  0  0  0  0  0  0  0  0  0  0
    4.5799    1.7081   -0.9212 H   0  0  0  0  0  0  0  0  0  0  0  0
   -4.6857    0.7374   -1.6688 H   0  0  0  0  0  0  0  0  0  0  0  0
   -4.4078   -0.9042   -2.2370 H   0  0  0  0  0  0  0  0  0  0  0  0
   -3.2665    0.3765   -2.6768 H   0  0  0  0  0  0  0  0  0  0  0  0
    1.5646   -3.0655    1.8994 H   0  0  0  0  0  0  0  0  0  0  0  0
  1 13  1  0  0  0  0
  1 18  1  0  0  0  0
  2 14  1  0  0  0  0
  2 22  1  0  0  0  0
  3 18  1  0  0  0  0
  3 25  1  0  0  0  0
  4 20  1  0  0  0  0
  4 26  1  0  0  0  0
  5 16  1  0  0  0  0
  5 40  1  0  0  0  0
  6 19  1  0  0  0  0
  6 41  1  0  0  0  0
  7 21  1  0  0  0  0
  7 54  1  0  0  0  0
  8 22  2  0  0  0  0
  9 25  2  0  0  0  0
 10 26  2  0  0  0  0
 11 12  1  0  0  0  0
 11 13  1  0  0  0  0
 11 14  1  0  0  0  0
 11 17  1  0  0  0  0
 12 15  1  0  0  0  0
 12 18  1  0  0  0  0
 12 21  1  0  0  0  0
 13 16  1  0  0  0  0
 13 22  1  0  0  0  0
 14 19  1  0  0  0  0
 14 31  1  0  0  0  0
 15 19  1  0  0  0  0
 15 23  1  0  0  0  0
 15 32  1  0  0  0  0
 16 20  1  0  0  0  0
 16 24  1  0  0  0  0
 17 20  1  0  0  0  0
 17 33  1  0  0  0  0
 17 34  1  0  0  0  0
 18 35  1  0  0  0  0
 19 36  1  0  0  0  0
 20 37  1  0  0  0  0
 21 25  1  0  0  0  0
 21 38  1  0  0  0  0
 23 27  1  0  0  0  0
 23 28  1  0  0  0  0
 23 29  1  0  0  0  0
 24 26  1  0  0  0  0
 24 30  1  0  0  0  0
 24 39  1  0  0  0  0
 27 43  1  0  0  0  0
 27 44  1  0  0  0  0
 27 45  1  0  0  0  0
 28 46  1  0  0  0  0
 28 47  1  0  0  0  0
 28 50  1  0  0  0  0
 29 42  1  0  0  0  0
 29 48  1  0  0  0  0
 29 49  1  0  0  0  0
 30 51  1  0  0  0  0
 30 52  1  0  0  0  0
 30 53  1  0  0  0  0
M  END
> <PUBCHEM_COMPOUND_CID>
129670239

> <PUBCHEM_CONFORMER_RMSD>
0.8

> <PUBCHEM_CONFORMER_DIVERSEORDER>
1
2
3

> <PUBCHEM_MMFF94_PARTIAL_CHARGES>
24
1 -0.56
10 -0.57
13 0.34
14 0.28
16 0.28
18 0.56
19 0.28
2 -0.43
20 0.28
21 0.34
22 0.66
24 0.06
25 0.66
26 0.66
3 -0.43
4 -0.43
40 0.4
41 0.4
5 -0.68
54 0.4
6 -0.68
7 -0.68
8 -0.57
9 -0.57

> <PUBCHEM_EFFECTIVE_ROTOR_COUNT>
2.8

> <PUBCHEM_PHARMACOPHORE_FEATURES>
17
1 1 acceptor
1 10 acceptor
1 5 acceptor
1 5 donor
1 6 acceptor
1 6 donor
1 7 acceptor
1 7 donor
1 8 acceptor
1 9 acceptor
4 23 27 28 29 hydrophobe
5 1 11 12 13 18 rings
5 11 12 14 15 19 rings
5 11 13 16 17 20 rings
5 2 11 13 14 22 rings
5 3 12 18 21 25 rings
5 4 16 20 24 26 rings

> <PUBCHEM_HEAVY_ATOM_COUNT>
30

> <PUBCHEM_ATOM_DEF_STEREO_COUNT>
7

> <PUBCHEM_ATOM_UDEF_STEREO_COUNT>
4

> <PUBCHEM_BOND_DEF_STEREO_COUNT>
0

> <PUBCHEM_BOND_UDEF_STEREO_COUNT>
0

> <PUBCHEM_ISOTOPIC_ATOM_COUNT>
0

> <PUBCHEM_COMPONENT_COUNT>
1

> <PUBCHEM_CACTVS_TAUTO_COUNT>
4

> <PUBCHEM_CONFORMER_ID>
07BA9C5F00000001

> <PUBCHEM_MMFF94_ENERGY>
142.4529

> <PUBCHEM_FEATURE_SELFOVERLAP>
89.635

> <PUBCHEM_SHAPE_FINGERPRINT>
10076449 9 17987541306867223630
10863032 1 17823134531935279515
10906281 52 18042429992087664017
10948715 1 18201440315296977408
1100329 8 18194967576090618546
11578080 2 16953375672857290830
12011746 2 18409171042811505303
12035758 1 18341053037848990018
12236239 1 17203615899529668353
12969540 114 18262226820007335774
13140716 1 18271241608427818376
13224815 77 18409170974097147436
13965767 371 16194575254162708441
14223421 5 18120093888071596814
14787075 74 18059857315411139184
14790565 3 18340216249186820944
15209289 33 18060426815042149762
15324884 4 18261671579378227377
15848702 151 17346048770432644214
16945 1 17822015289412647864
17349148 13 17095530560571010614
17492 54 18411416245681914534
17980427 23 17241061953898889116
1813 80 18340504312437291437
19591789 44 18412542102702601534
20028762 73 17845652685135139031
20691752 17 18267000907990277334
20905425 154 18191305974895327794
21421861 104 17828776036130049491
22393880 68 18200014188908041605
23227448 37 18193848269771374748
23419403 2 16159957357716184673
23559900 14 17385998413268849210
238 59 18193811821929431407
2748010 2 18337676433239536120
296302 2 16950569847989987718
6669772 16 17467940874159350212
70251023 43 17982171111119502431
81228 2 17906997818918723826

> <PUBCHEM_SHAPE_MULTIPOLES>
558.69
7.02
2.95
1.68
0.58
0.52
-0.16
0.64
-0.21
-0.5
-0.12
0.34
0
0.54

> <PUBCHEM_SHAPE_SELFOVERLAP>
1281.304

> <PUBCHEM_SHAPE_VOLUME>
291.5

> <PUBCHEM_COORDINATE_TYPE>
2
5
10

$$$$
