12960480
  -OEChem-03292013303D

 38 39  0     1  0  0  0  0  0999 V2000
    1.5908    0.1343    1.4883 S   0  0  0  0  0  0  0  0  0  0  0  0
   -3.4228   -1.8664    0.0220 O   0  0  0  0  0  0  0  0  0  0  0  0
   -0.3735   -3.0012   -1.0756 O   0  0  0  0  0  0  0  0  0  0  0  0
   -6.5535    0.9883   -0.3447 O   0  0  0  0  0  0  0  0  0  0  0  0
    0.5575   -2.8496    1.0077 O   0  0  0  0  0  0  0  0  0  0  0  0
    6.9053    0.6398    0.8646 O   0  0  0  0  0  0  0  0  0  0  0  0
   -1.5523   -0.6017   -0.7162 N   0  0  0  0  0  0  0  0  0  0  0  0
    4.9968    0.6182   -0.4764 N   0  0  0  0  0  0  0  0  0  0  0  0
   -1.7100    0.8649   -0.7106 C   0  0  2  0  0  0  0  0  0  0  0  0
   -0.6342    1.3630    0.2629 C   0  0  0  0  0  0  0  0  0  0  0  0
   -3.1217    0.5759   -0.2483 C   0  0  0  0  0  0  0  0  0  0  0  0
   -2.8251   -0.8591   -0.2973 C   0  0  0  0  0  0  0  0  0  0  0  0
   -0.4165   -0.9491   -0.0362 C   0  0  0  0  0  0  0  0  0  0  0  0
    0.1706    0.1141    0.5277 C   0  0  0  0  0  0  0  0  0  0  0  0
   -4.1974    1.2830    0.0791 C   0  0  0  0  0  0  0  0  0  0  0  0
   -0.0157   -2.3491    0.0528 C   0  0  0  0  0  0  0  0  0  0  0  0
   -5.5000    0.6471    0.5458 C   0  0  0  0  0  0  0  0  0  0  0  0
   -4.2347    2.8040    0.0406 C   0  0  0  0  0  0  0  0  0  0  0  0
    2.7570    0.3584    0.2409 C   0  0  0  0  0  0  0  0  0  0  0  0
    4.0657    0.4407    0.5013 C   0  0  0  0  0  0  0  0  0  0  0  0
    6.3600    0.7069   -0.2347 C   0  0  0  0  0  0  0  0  0  0  0  0
    7.1537    0.9375   -1.4941 C   0  0  0  0  0  0  0  0  0  0  0  0
   -1.6111    1.2852   -1.7194 H   0  0  0  0  0  0  0  0  0  0  0  0
   -1.0676    1.7626    1.1862 H   0  0  0  0  0  0  0  0  0  0  0  0
   -0.0187    2.1364   -0.2092 H   0  0  0  0  0  0  0  0  0  0  0  0
   -5.4391   -0.4427    0.5957 H   0  0  0  0  0  0  0  0  0  0  0  0
   -5.7524    1.0180    1.5450 H   0  0  0  0  0  0  0  0  0  0  0  0
   -4.4806    3.2001    1.0311 H   0  0  0  0  0  0  0  0  0  0  0  0
   -4.9870    3.1506   -0.6746 H   0  0  0  0  0  0  0  0  0  0  0  0
   -3.2695    3.2247   -0.2590 H   0  0  0  0  0  0  0  0  0  0  0  0
    2.4140    0.4365   -0.7875 H   0  0  0  0  0  0  0  0  0  0  0  0
   -0.1186   -3.9481   -1.0500 H   0  0  0  0  0  0  0  0  0  0  0  0
   -7.3662    0.5865    0.0069 H   0  0  0  0  0  0  0  0  0  0  0  0
    4.4478    0.3674    1.5148 H   0  0  0  0  0  0  0  0  0  0  0  0
    4.6631    0.6939   -1.4342 H   0  0  0  0  0  0  0  0  0  0  0  0
    8.2117    0.7373   -1.3038 H   0  0  0  0  0  0  0  0  0  0  0  0
    7.0339    1.9763   -1.8134 H   0  0  0  0  0  0  0  0  0  0  0  0
    6.8105    0.2699   -2.2896 H   0  0  0  0  0  0  0  0  0  0  0  0
  1 14  1  0  0  0  0
  1 19  1  0  0  0  0
  2 12  2  0  0  0  0
  3 16  1  0  0  0  0
  3 32  1  0  0  0  0
  4 17  1  0  0  0  0
  4 33  1  0  0  0  0
  5 16  2  0  0  0  0
  6 21  2  0  0  0  0
  7  9  1  0  0  0  0
  7 12  1  0  0  0  0
  7 13  1  0  0  0  0
  8 20  1  0  0  0  0
  8 21  1  0  0  0  0
  8 35  1  0  0  0  0
  9 10  1  0  0  0  0
  9 11  1  0  0  0  0
  9 23  1  0  0  0  0
 10 14  1  0  0  0  0
 10 24  1  0  0  0  0
 10 25  1  0  0  0  0
 11 12  1  0  0  0  0
 11 15  2  0  0  0  0
 13 14  2  0  0  0  0
 13 16  1  0  0  0  0
 15 17  1  0  0  0  0
 15 18  1  0  0  0  0
 17 26  1  0  0  0  0
 17 27  1  0  0  0  0
 18 28  1  0  0  0  0
 18 29  1  0  0  0  0
 18 30  1  0  0  0  0
 19 20  2  0  0  0  0
 19 31  1  0  0  0  0
 20 34  1  0  0  0  0
 21 22  1  0  0  0  0
 22 36  1  0  0  0  0
 22 37  1  0  0  0  0
 22 38  1  0  0  0  0
M  END
> <PUBCHEM_COMPOUND_CID>
12960480

> <PUBCHEM_CONFORMER_RMSD>
0.8

> <PUBCHEM_CONFORMER_DIVERSEORDER>
1
23
14
24
17
28
6
4
37
22
9
21
10
36
29
15
20
5
16
35
19
7
3
32
31
30
13
8
12
26
34
33
11
27
2
25
18

> <PUBCHEM_MMFF94_PARTIAL_CHARGES>
27
1 -0.2
10 0.14
11 -0.24
12 0.7
13 0.12
14 -0.04
15 -0.25
16 0.71
17 0.42
18 0.14
19 -0.05
2 -0.57
20 -0.04
21 0.57
22 0.06
3 -0.65
31 0.15
32 0.5
33 0.4
34 0.15
35 0.37
4 -0.68
5 -0.57
6 -0.57
7 -0.39
8 -0.54
9 0.36

> <PUBCHEM_EFFECTIVE_ROTOR_COUNT>
6.2

> <PUBCHEM_PHARMACOPHORE_FEATURES>
10
1 18 hydrophobe
1 2 acceptor
1 3 acceptor
1 4 acceptor
1 4 donor
1 5 acceptor
1 6 acceptor
1 8 donor
3 3 5 16 anion
7 7 9 10 11 12 13 14 rings

> <PUBCHEM_HEAVY_ATOM_COUNT>
22

> <PUBCHEM_ATOM_DEF_STEREO_COUNT>
1

> <PUBCHEM_ATOM_UDEF_STEREO_COUNT>
0

> <PUBCHEM_BOND_DEF_STEREO_COUNT>
2

> <PUBCHEM_BOND_UDEF_STEREO_COUNT>
0

> <PUBCHEM_ISOTOPIC_ATOM_COUNT>
0

> <PUBCHEM_COMPONENT_COUNT>
1

> <PUBCHEM_CACTVS_TAUTO_COUNT>
2

> <PUBCHEM_CONFORMER_ID>
00C5C2E000000001

> <PUBCHEM_MMFF94_ENERGY>
62.5212

> <PUBCHEM_FEATURE_SELFOVERLAP>
50.801

> <PUBCHEM_SHAPE_FINGERPRINT>
10165383 225 18343021073653213065
10411042 1 17762617691717873287
106641 1 17313111860873875497
107951 10 18335144215423422006
10835480 77 17774999150851073840
11578080 2 17315902288019353381
11823591 26 18335973207965502714
12236239 1 17821727247742112960
12390115 104 18343027666069225457
12516196 113 8646767794347792852
12788726 201 17845658045448814632
12895836 83 18410292545130818280
12954195 1 18060132197882608927
13140716 1 18266741467008399313
13914758 101 13398361152323450976
14251752 14 18342458110999369672
14790565 3 18410856516980780408
15183329 4 17489314053532446448
15927050 60 18412261740091740062
17834072 8 17561363980653129824
18006028 8 8934998166014561848
19784866 170 18334858290775384753
200 152 13110966431337847576
20281389 69 18335135380543546096
20681677 155 18410289255380769274
22224240 67 18333169475316973033
23198884 109 16487258759438527825
23402539 116 18341608244129473876
23559900 14 17988919029275817088
25147074 1 18265031613951358635
293599 30 18413669101920462608
3004659 81 18339643340179692490
3009799 131 9655579582767235785
3411729 13 18264206915773959435
5104073 3 18120943807373014801
5265222 85 18197787798579691804
59682541 35 13623823751246648476
59755656 215 18130791131150560964
59755656 520 18412257346107198047

> <PUBCHEM_SHAPE_MULTIPOLES>
417.29
15.39
2.46
1.05
20.86
1.68
-0.05
-10.18
2.6
-2.15
0.16
1.06
0.06
-0.51

> <PUBCHEM_SHAPE_SELFOVERLAP>
864.704

> <PUBCHEM_SHAPE_VOLUME>
240.7

> <PUBCHEM_COORDINATE_TYPE>
2
5
10

$$$$
