129651688
  -OEChem-03292013293D

 31 32  0     1  0  0  0  0  0999 V2000
    1.4204    0.3995    0.7172 O   0  0  0  0  0  0  0  0  0  0  0  0
    3.2808   -2.0300    0.8106 O   0  0  0  0  0  0  0  0  0  0  0  0
   -1.0184    1.8161    1.0812 O   0  0  0  0  0  0  0  0  0  0  0  0
    2.6101    2.3921   -0.8533 O   0  0  0  0  0  0  0  0  0  0  0  0
   -1.9019   -2.4140    0.1711 O   0  0  0  0  0  0  0  0  0  0  0  0
   -4.0700   -0.8167   -0.6453 O   0  0  0  0  0  0  0  0  0  0  0  0
   -0.7342   -0.3515    0.1991 N   0  0  0  0  0  0  0  0  0  0  0  0
   -2.4996    0.9357   -0.4772 N   0  0  0  0  0  0  0  0  0  0  0  0
    0.5819   -0.7582    0.5964 C   0  0  1  0  0  0  0  0  0  0  0  0
    1.2391   -1.6908   -0.4081 C   0  0  0  0  0  0  0  0  0  0  0  0
    2.7005   -1.3261   -0.2852 C   0  0  1  0  0  0  0  0  0  0  0  0
    2.6592    0.1647    0.0202 C   0  0  1  0  0  0  0  0  0  0  0  0
   -1.1213    1.0163   -0.0821 C   0  0  1  0  0  0  0  0  0  0  0  0
    2.6607    1.0272   -1.2353 C   0  0  0  0  0  0  0  0  0  0  0  0
   -1.8049   -1.2129    0.0329 C   0  0  0  0  0  0  0  0  0  0  0  0
   -2.9730   -0.3565   -0.4115 C   0  0  0  0  0  0  0  0  0  0  0  0
   -1.0294    3.2049    0.7692 C   0  0  0  0  0  0  0  0  0  0  0  0
    0.5139   -1.2373    1.5800 H   0  0  0  0  0  0  0  0  0  0  0  0
    0.8881   -1.4763   -1.4251 H   0  0  0  0  0  0  0  0  0  0  0  0
    1.0249   -2.7410   -0.1868 H   0  0  0  0  0  0  0  0  0  0  0  0
    3.2764   -1.5771   -1.1809 H   0  0  0  0  0  0  0  0  0  0  0  0
    3.4664    0.4782    0.6914 H   0  0  0  0  0  0  0  0  0  0  0  0
   -0.5213    1.3986   -0.9159 H   0  0  0  0  0  0  0  0  0  0  0  0
    1.7872    0.8262   -1.8634 H   0  0  0  0  0  0  0  0  0  0  0  0
    3.5707    0.8619   -1.8203 H   0  0  0  0  0  0  0  0  0  0  0  0
   -3.0622    1.7295   -0.7659 H   0  0  0  0  0  0  0  0  0  0  0  0
    4.2041   -1.7350    0.8888 H   0  0  0  0  0  0  0  0  0  0  0  0
    2.6110    2.9186   -1.6707 H   0  0  0  0  0  0  0  0  0  0  0  0
   -0.9306    3.7638    1.7038 H   0  0  0  0  0  0  0  0  0  0  0  0
   -1.9702    3.4947    0.2926 H   0  0  0  0  0  0  0  0  0  0  0  0
   -0.1832    3.4598    0.1237 H   0  0  0  0  0  0  0  0  0  0  0  0
  1  9  1  0  0  0  0
  1 12  1  0  0  0  0
  2 11  1  0  0  0  0
  2 27  1  0  0  0  0
  3 13  1  0  0  0  0
  3 17  1  0  0  0  0
  4 14  1  0  0  0  0
  4 28  1  0  0  0  0
  5 15  2  0  0  0  0
  6 16  2  0  0  0  0
  7  9  1  0  0  0  0
  7 13  1  0  0  0  0
  7 15  1  0  0  0  0
  8 13  1  0  0  0  0
  8 16  1  0  0  0  0
  8 26  1  0  0  0  0
  9 10  1  0  0  0  0
  9 18  1  0  0  0  0
 10 11  1  0  0  0  0
 10 19  1  0  0  0  0
 10 20  1  0  0  0  0
 11 12  1  0  0  0  0
 11 21  1  0  0  0  0
 12 14  1  0  0  0  0
 12 22  1  0  0  0  0
 13 23  1  0  0  0  0
 14 24  1  0  0  0  0
 14 25  1  0  0  0  0
 15 16  1  0  0  0  0
 17 29  1  0  0  0  0
 17 30  1  0  0  0  0
 17 31  1  0  0  0  0
M  END
> <PUBCHEM_COMPOUND_CID>
129651688

> <PUBCHEM_CONFORMER_RMSD>
0.6

> <PUBCHEM_CONFORMER_DIVERSEORDER>
2
22
28
6
35
58
25
53
34
37
12
59
30
52
1
15
11
5
45
36
16
57
4
38
8
51
40
47
18
56
27
17
20
19
26
14
44
43
3
10
41
23
55
32
29
42
54
21
46
9
13
50
33
49
24
48
7
31
39

> <PUBCHEM_MMFF94_PARTIAL_CHARGES>
19
1 -0.56
11 0.28
12 0.28
13 0.88
14 0.28
15 0.63
16 0.63
17 0.28
2 -0.68
26 0.37
27 0.4
28 0.4
3 -0.56
4 -0.68
5 -0.57
6 -0.57
7 -0.66
8 -0.73
9 0.58

> <PUBCHEM_EFFECTIVE_ROTOR_COUNT>
4.6

> <PUBCHEM_PHARMACOPHORE_FEATURES>
11
1 1 acceptor
1 2 acceptor
1 2 donor
1 3 acceptor
1 4 acceptor
1 4 donor
1 5 acceptor
1 6 acceptor
1 8 donor
5 1 9 10 11 12 rings
5 7 8 13 15 16 rings

> <PUBCHEM_HEAVY_ATOM_COUNT>
17

> <PUBCHEM_ATOM_DEF_STEREO_COUNT>
3

> <PUBCHEM_ATOM_UDEF_STEREO_COUNT>
1

> <PUBCHEM_BOND_DEF_STEREO_COUNT>
0

> <PUBCHEM_BOND_UDEF_STEREO_COUNT>
0

> <PUBCHEM_ISOTOPIC_ATOM_COUNT>
0

> <PUBCHEM_COMPONENT_COUNT>
1

> <PUBCHEM_CACTVS_TAUTO_COUNT>
2

> <PUBCHEM_CONFORMER_ID>
07BA53E800000002

> <PUBCHEM_MMFF94_ENERGY>
37.9456

> <PUBCHEM_FEATURE_SELFOVERLAP>
55.835

> <PUBCHEM_SHAPE_FINGERPRINT>
10967382 1 18339642368335064915
13140716 1 18410855485993567699
14178342 30 17980189791018212730
14250199 8 18334583433889544766
15442244 35 18192993717039125234
16945 1 18339653230492252186
17775402 16 18267590297678255956
18186145 218 17313097540925214303
18619055 16 18408881866995421215
192875 21 18337095770772570174
19765921 60 17750513068926554136
20559304 39 18410290303068030514
20711985 365 18339077086515056271
21501502 16 18340493261654795192
2334 1 18267303325090704363
23402539 116 18197199387190071799
23552423 10 18334856104067565682
23557571 272 17989205936800308528
23559900 14 18410282606381465922
23598291 2 18191315875153699742
2748010 2 16607725986342066083
353137 74 18408323267780430801
5262128 65 17913523295938969972
537710 114 18410294761191336389
6992083 37 17903923253684145144
7364860 26 18409447012146343318
74978 22 18261116231722531194
7832392 63 17979080379532874180
81228 2 18271812276563531985

> <PUBCHEM_SHAPE_MULTIPOLES>
304.67
5.44
2.87
0.95
0.52
1.62
0.04
-1.38
1.14
0.06
-0.42
-0.28
0.27
-0.99

> <PUBCHEM_SHAPE_SELFOVERLAP>
634.476

> <PUBCHEM_SHAPE_VOLUME>
172.5

> <PUBCHEM_COORDINATE_TYPE>
2
5
10

$$$$
