129707
  -OEChem-03292013323D

 52 54  0     0  0  0  0  0  0999 V2000
   -3.2340   -1.5579    0.1201 S   0  0  0  0  0  0  0  0  0  0  0  0
    2.2328   -0.0468   -2.2571 S   0  0  0  0  0  0  0  0  0  0  0  0
    3.8830   -0.2511   -0.2379 N   0  0  0  0  0  0  0  0  0  0  0  0
    6.6849   -0.7846   -0.2038 N   0  0  0  0  0  0  0  0  0  0  0  0
    1.6832    0.1945    0.4318 N   0  0  0  0  0  0  0  0  0  0  0  0
   -3.8180    0.9361   -0.1822 N   0  0  0  0  0  0  0  0  0  0  0  0
    2.2000    0.3567    1.7417 N   0  0  0  0  0  0  0  0  0  0  0  0
   -5.7780   -0.5666   -0.2285 C   0  0  0  0  0  0  0  0  0  0  0  0
    4.8274    0.8527   -0.1263 C   0  0  0  0  0  0  0  0  0  0  0  0
    4.3643   -1.5587    0.1875 C   0  0  0  0  0  0  0  0  0  0  0  0
    6.1732    0.4806   -0.7440 C   0  0  0  0  0  0  0  0  0  0  0  0
    5.7224   -1.8676   -0.4384 C   0  0  0  0  0  0  0  0  0  0  0  0
   -4.3336   -0.2691   -0.1152 C   0  0  0  0  0  0  0  0  0  0  0  0
    2.5947   -0.0521   -0.6100 C   0  0  0  0  0  0  0  0  0  0  0  0
    0.2706    0.4326    0.2696 C   0  0  0  0  0  0  0  0  0  0  0  0
   -1.9305   -0.4293    0.1379 C   0  0  0  0  0  0  0  0  0  0  0  0
   -2.4400    0.8606   -0.0393 C   0  0  0  0  0  0  0  0  0  0  0  0
   -6.6355    0.7301   -0.4399 C   0  0  0  0  0  0  0  0  0  0  0  0
   -6.3388   -1.2801    1.0511 C   0  0  0  0  0  0  0  0  0  0  0  0
   -6.1865   -1.5100   -1.4190 C   0  0  0  0  0  0  0  0  0  0  0  0
   -0.1699    1.7174    0.0993 C   0  0  0  0  0  0  0  0  0  0  0  0
   -0.5559   -0.6682    0.2968 C   0  0  0  0  0  0  0  0  0  0  0  0
   -1.5397    1.9481   -0.0582 C   0  0  0  0  0  0  0  0  0  0  0  0
    0.7569    2.8906    0.0748 C   0  0  0  0  0  0  0  0  0  0  0  0
    1.5670   -0.5582    2.6891 C   0  0  0  0  0  0  0  0  0  0  0  0
    4.9505    1.0713    0.9414 H   0  0  0  0  0  0  0  0  0  0  0  0
    4.4154    1.7507   -0.6000 H   0  0  0  0  0  0  0  0  0  0  0  0
    3.6300   -2.3286   -0.0747 H   0  0  0  0  0  0  0  0  0  0  0  0
    4.4477   -1.5386    1.2809 H   0  0  0  0  0  0  0  0  0  0  0  0
    6.8980    1.2759   -0.5396 H   0  0  0  0  0  0  0  0  0  0  0  0
    6.0783    0.4023   -1.8342 H   0  0  0  0  0  0  0  0  0  0  0  0
    5.6106   -2.0317   -1.5174 H   0  0  0  0  0  0  0  0  0  0  0  0
    6.1162   -2.7954   -0.0100 H   0  0  0  0  0  0  0  0  0  0  0  0
    7.5667   -1.0135   -0.6616 H   0  0  0  0  0  0  0  0  0  0  0  0
   -7.7053    0.5013   -0.5040 H   0  0  0  0  0  0  0  0  0  0  0  0
   -6.4937    1.4293    0.3925 H   0  0  0  0  0  0  0  0  0  0  0  0
   -6.3438    1.2455   -1.3624 H   0  0  0  0  0  0  0  0  0  0  0  0
   -6.1211   -0.6881    1.9479 H   0  0  0  0  0  0  0  0  0  0  0  0
   -7.4259   -1.4079    0.9912 H   0  0  0  0  0  0  0  0  0  0  0  0
   -5.8992   -2.2735    1.1922 H   0  0  0  0  0  0  0  0  0  0  0  0
   -7.2724   -1.6482   -1.4712 H   0  0  0  0  0  0  0  0  0  0  0  0
   -5.8502   -1.0872   -2.3729 H   0  0  0  0  0  0  0  0  0  0  0  0
   -5.7297   -2.5008   -1.3196 H   0  0  0  0  0  0  0  0  0  0  0  0
   -0.1774   -1.6769    0.4272 H   0  0  0  0  0  0  0  0  0  0  0  0
   -1.9243    2.9555   -0.1934 H   0  0  0  0  0  0  0  0  0  0  0  0
    2.0367    1.3205    2.0279 H   0  0  0  0  0  0  0  0  0  0  0  0
    1.6340    2.7089   -0.5522 H   0  0  0  0  0  0  0  0  0  0  0  0
    0.2640    3.7777   -0.3393 H   0  0  0  0  0  0  0  0  0  0  0  0
    1.0825    3.1400    1.0894 H   0  0  0  0  0  0  0  0  0  0  0  0
    1.6235   -1.5961    2.3443 H   0  0  0  0  0  0  0  0  0  0  0  0
    0.5257   -0.2939    2.8974 H   0  0  0  0  0  0  0  0  0  0  0  0
    2.1064   -0.5053    3.6404 H   0  0  0  0  0  0  0  0  0  0  0  0
  1 13  1  0  0  0  0
  1 16  1  0  0  0  0
  2 14  2  0  0  0  0
  3  9  1  0  0  0  0
  3 10  1  0  0  0  0
  3 14  1  0  0  0  0
  4 11  1  0  0  0  0
  4 12  1  0  0  0  0
  4 34  1  0  0  0  0
  5  7  1  0  0  0  0
  5 14  1  0  0  0  0
  5 15  1  0  0  0  0
  6 13  2  0  0  0  0
  6 17  1  0  0  0  0
  7 25  1  0  0  0  0
  7 46  1  0  0  0  0
  8 13  1  0  0  0  0
  8 18  1  0  0  0  0
  8 19  1  0  0  0  0
  8 20  1  0  0  0  0
  9 11  1  0  0  0  0
  9 26  1  0  0  0  0
  9 27  1  0  0  0  0
 10 12  1  0  0  0  0
 10 28  1  0  0  0  0
 10 29  1  0  0  0  0
 11 30  1  0  0  0  0
 11 31  1  0  0  0  0
 12 32  1  0  0  0  0
 12 33  1  0  0  0  0
 15 21  1  0  0  0  0
 15 22  2  0  0  0  0
 16 17  2  0  0  0  0
 16 22  1  0  0  0  0
 17 23  1  0  0  0  0
 18 35  1  0  0  0  0
 18 36  1  0  0  0  0
 18 37  1  0  0  0  0
 19 38  1  0  0  0  0
 19 39  1  0  0  0  0
 19 40  1  0  0  0  0
 20 41  1  0  0  0  0
 20 42  1  0  0  0  0
 20 43  1  0  0  0  0
 21 23  2  0  0  0  0
 21 24  1  0  0  0  0
 22 44  1  0  0  0  0
 23 45  1  0  0  0  0
 24 47  1  0  0  0  0
 24 48  1  0  0  0  0
 24 49  1  0  0  0  0
 25 50  1  0  0  0  0
 25 51  1  0  0  0  0
 25 52  1  0  0  0  0
M  END
> <PUBCHEM_COMPOUND_CID>
129707

> <PUBCHEM_CONFORMER_RMSD>
0.8

> <PUBCHEM_CONFORMER_DIVERSEORDER>
2
21
3
22
11
1
17
15
10
7
20
12
19
16
18
13
4
14
6
5
8
9

> <PUBCHEM_MMFF94_PARTIAL_CHARGES>
26
1 -0.08
10 0.3
11 0.27
12 0.27
13 0.2
14 0.5
15 0.12
16 0.04
17 0.23
2 -0.38
21 -0.14
22 -0.15
23 -0.15
24 0.14
25 0.27
3 -0.66
34 0.36
4 -0.9
44 0.15
45 0.15
46 0.36
5 -0.17
6 -0.57
7 -0.64
8 0.18
9 0.3

> <PUBCHEM_EFFECTIVE_ROTOR_COUNT>
6.2

> <PUBCHEM_PHARMACOPHORE_FEATURES>
9
1 2 acceptor
1 4 cation
1 4 donor
1 6 acceptor
1 7 donor
4 8 18 19 20 hydrophobe
5 1 6 13 16 17 rings
6 15 16 17 21 22 23 rings
6 3 4 9 10 11 12 rings

> <PUBCHEM_HEAVY_ATOM_COUNT>
25

> <PUBCHEM_ATOM_DEF_STEREO_COUNT>
0

> <PUBCHEM_ATOM_UDEF_STEREO_COUNT>
0

> <PUBCHEM_BOND_DEF_STEREO_COUNT>
0

> <PUBCHEM_BOND_UDEF_STEREO_COUNT>
0

> <PUBCHEM_ISOTOPIC_ATOM_COUNT>
0

> <PUBCHEM_COMPONENT_COUNT>
1

> <PUBCHEM_CACTVS_TAUTO_COUNT>
1

> <PUBCHEM_CONFORMER_ID>
0001FAAB00000002

> <PUBCHEM_MMFF94_ENERGY>
102.2604

> <PUBCHEM_FEATURE_SELFOVERLAP>
45.744

> <PUBCHEM_SHAPE_FINGERPRINT>
10595046 47 18409170974762000052
106641 1 11527937976746381959
11089746 13 13262675971912075823
11315181 36 17917714612989239937
11524674 6 16200148807400507575
11963148 33 18202557376251959454
12166972 35 17967537873957793876
12236239 1 17749108880829482990
12403259 118 13542468683253651979
12516196 113 18272651259648786624
12633257 1 16056874749698115270
12741549 16 17346312666356672192
12788726 201 18260823757587894153
13288520 33 18413108355839119549
13533116 47 18335701607725708794
13685833 64 18272654558162570907
13782708 43 17632573846841372063
13862211 1 18342455954720208279
13911987 19 15141546666136685870
13968360 50 15719386218726583354
14251752 14 18041273275784944845
14347332 77 18117271459436007282
14849402 71 14979377591242195434
15021287 119 14548728522164415937
15183329 4 18408600345153813415
17492 89 18124597475516315630
18222031 100 18341317968838483793
18681886 176 18187362163988097353
19784866 140 18187080637566770307
2026 5 17558565604325444902
20281389 69 10231754483227238391
21033648 29 17274807040156515473
21150785 3 17167869668715154350
21236236 1 18341334392793845841
21267235 1 18336549408826806307
21521721 280 17060053792073482602
22224240 67 16128649752532247918
23035841 295 18408885135460135355
23402539 116 18412543180612734156
23522609 53 17986139437256960057
23557571 272 18272095950790558948
23559900 14 18340762749715594425
23576562 1 17895747547988520863
23622692 88 14764343847023589973
2838139 119 13045942434341446719
29717793 49 18187087243521890366
3004659 81 18186520990859982750
3009799 131 17749108902636830540
335352 9 18410853257912635397
34797466 226 18131360722062698244
397830 11 14907315598983838047
4325135 7 18410577301626047724
4463277 17 18409167714486241897
465052 167 17846499231973299614
5104073 3 18130504120572968472
5385378 56 9078850596486789900
59755656 215 18261112946072952526
7495541 125 17988920076899437048
999808 66 18041854995125615451

> <PUBCHEM_SHAPE_MULTIPOLES>
497.28
16.76
1.97
1.46
4.23
0.78
-0.34
-7.18
3.66
-0.05
-0.01
-0.63
-0.34
-0.05

> <PUBCHEM_SHAPE_SELFOVERLAP>
1020.354

> <PUBCHEM_SHAPE_VOLUME>
293.4

> <PUBCHEM_COORDINATE_TYPE>
2
5
10

$$$$
