129716443
  -OEChem-03292013293D

 52 53  0     0  0  0  0  0  0999 V2000
   -1.6180   -2.8875   -0.6667 O   0  0  0  0  0  0  0  0  0  0  0  0
    0.4407   -0.5206   -1.7826 O   0  0  0  0  0  0  0  0  0  0  0  0
    1.5293   -3.5515   -0.0532 O   0  0  0  0  0  0  0  0  0  0  0  0
   -7.9620    0.9558   -0.9437 O   0  0  0  0  0  0  0  0  0  0  0  0
    6.7675    1.1024    1.8691 O   0  0  0  0  0  0  0  0  0  0  0  0
    8.4278    1.7619   -0.2608 O   0  0  0  0  0  0  0  0  0  0  0  0
   -7.5644    2.8635    1.0388 O   0  0  0  0  0  0  0  0  0  0  0  0
    0.1547   -1.6048    0.3585 C   0  0  0  0  0  0  0  0  0  0  0  0
    0.9320   -0.8205   -0.6968 C   0  0  0  0  0  0  0  0  0  0  0  0
   -1.2877   -1.8663   -0.0680 C   0  0  0  0  0  0  0  0  0  0  0  0
    0.8725   -2.8931    0.7532 C   0  0  0  0  0  0  0  0  0  0  0  0
    2.3359   -0.4546   -0.3408 C   0  0  0  0  0  0  0  0  0  0  0  0
   -2.2753   -0.7965    0.2666 C   0  0  0  0  0  0  0  0  0  0  0  0
    4.4925    0.6334   -0.9537 C   0  0  0  0  0  0  0  0  0  0  0  0
   -4.6150    0.0579    0.2203 C   0  0  0  0  0  0  0  0  0  0  0  0
    3.0964    0.2337   -1.2037 C   0  0  0  0  0  0  0  0  0  0  0  0
   -3.5658   -0.9358   -0.0675 C   0  0  0  0  0  0  0  0  0  0  0  0
    0.7183   -3.3446    2.1832 C   0  0  0  0  0  0  0  0  0  0  0  0
   -5.8077    0.0415   -0.5029 C   0  0  0  0  0  0  0  0  0  0  0  0
    4.9807    0.6813    0.3521 C   0  0  0  0  0  0  0  0  0  0  0  0
   -4.4157    1.0152    1.2151 C   0  0  0  0  0  0  0  0  0  0  0  0
    5.3258    0.9641   -2.0223 C   0  0  0  0  0  0  0  0  0  0  0  0
    6.3022    1.0598    0.5894 C   0  0  0  0  0  0  0  0  0  0  0  0
   -6.8012    0.9821   -0.2310 C   0  0  0  0  0  0  0  0  0  0  0  0
    7.1353    1.3906   -0.4792 C   0  0  0  0  0  0  0  0  0  0  0  0
   -6.6019    1.9393    0.7638 C   0  0  0  0  0  0  0  0  0  0  0  0
    6.6472    1.3428   -1.7849 C   0  0  0  0  0  0  0  0  0  0  0  0
   -5.4091    1.9559    1.4868 C   0  0  0  0  0  0  0  0  0  0  0  0
    5.8512    0.7494    2.9037 C   0  0  0  0  0  0  0  0  0  0  0  0
   -8.0860   -0.0548   -1.9427 C   0  0  0  0  0  0  0  0  0  0  0  0
    0.1319   -0.9695    1.2547 H   0  0  0  0  0  0  0  0  0  0  0  0
    2.6847   -0.7871    0.6290 H   0  0  0  0  0  0  0  0  0  0  0  0
   -1.8812    0.0803    0.7661 H   0  0  0  0  0  0  0  0  0  0  0  0
    2.6990    0.5235   -2.1736 H   0  0  0  0  0  0  0  0  0  0  0  0
   -3.9018   -1.8273   -0.5916 H   0  0  0  0  0  0  0  0  0  0  0  0
   -0.3393   -3.5050    2.4059 H   0  0  0  0  0  0  0  0  0  0  0  0
    1.2574   -4.2841    2.3329 H   0  0  0  0  0  0  0  0  0  0  0  0
    1.1356   -2.5885    2.8527 H   0  0  0  0  0  0  0  0  0  0  0  0
    4.3054    0.4481    1.1650 H   0  0  0  0  0  0  0  0  0  0  0  0
   -5.9101   -0.7228   -1.2666 H   0  0  0  0  0  0  0  0  0  0  0  0
    4.9627    0.9313   -3.0467 H   0  0  0  0  0  0  0  0  0  0  0  0
   -3.5124    1.0536    1.8167 H   0  0  0  0  0  0  0  0  0  0  0  0
    7.2856    1.5977   -2.6267 H   0  0  0  0  0  0  0  0  0  0  0  0
   -5.2431    2.6936    2.2674 H   0  0  0  0  0  0  0  0  0  0  0  0
   -7.2517    3.4430    1.7546 H   0  0  0  0  0  0  0  0  0  0  0  0
    8.8510    1.9535   -1.1154 H   0  0  0  0  0  0  0  0  0  0  0  0
    6.3920    0.8313    3.8524 H   0  0  0  0  0  0  0  0  0  0  0  0
    5.5233   -0.2923    2.8170 H   0  0  0  0  0  0  0  0  0  0  0  0
    5.0121    1.4514    2.9577 H   0  0  0  0  0  0  0  0  0  0  0  0
   -9.0689    0.0725   -2.4085 H   0  0  0  0  0  0  0  0  0  0  0  0
   -8.0704   -1.0591   -1.5058 H   0  0  0  0  0  0  0  0  0  0  0  0
   -7.3412    0.0681   -2.7364 H   0  0  0  0  0  0  0  0  0  0  0  0
  1 10  2  0  0  0  0
  2  9  2  0  0  0  0
  3 11  2  0  0  0  0
  4 24  1  0  0  0  0
  4 30  1  0  0  0  0
  5 23  1  0  0  0  0
  5 29  1  0  0  0  0
  6 25  1  0  0  0  0
  6 46  1  0  0  0  0
  7 26  1  0  0  0  0
  7 45  1  0  0  0  0
  8  9  1  0  0  0  0
  8 10  1  0  0  0  0
  8 11  1  0  0  0  0
  8 31  1  0  0  0  0
  9 12  1  0  0  0  0
 10 13  1  0  0  0  0
 11 18  1  0  0  0  0
 12 16  2  0  0  0  0
 12 32  1  0  0  0  0
 13 17  2  0  0  0  0
 13 33  1  0  0  0  0
 14 16  1  0  0  0  0
 14 20  2  0  0  0  0
 14 22  1  0  0  0  0
 15 17  1  0  0  0  0
 15 19  2  0  0  0  0
 15 21  1  0  0  0  0
 16 34  1  0  0  0  0
 17 35  1  0  0  0  0
 18 36  1  0  0  0  0
 18 37  1  0  0  0  0
 18 38  1  0  0  0  0
 19 24  1  0  0  0  0
 19 40  1  0  0  0  0
 20 23  1  0  0  0  0
 20 39  1  0  0  0  0
 21 28  2  0  0  0  0
 21 42  1  0  0  0  0
 22 27  2  0  0  0  0
 22 41  1  0  0  0  0
 23 25  2  0  0  0  0
 24 26  2  0  0  0  0
 25 27  1  0  0  0  0
 26 28  1  0  0  0  0
 27 43  1  0  0  0  0
 28 44  1  0  0  0  0
 29 47  1  0  0  0  0
 29 48  1  0  0  0  0
 29 49  1  0  0  0  0
 30 50  1  0  0  0  0
 30 51  1  0  0  0  0
 30 52  1  0  0  0  0
M  END
> <PUBCHEM_COMPOUND_CID>
129716443

> <PUBCHEM_CONFORMER_RMSD>
1

> <PUBCHEM_CONFORMER_DIVERSEORDER>
11
98
120
77
23
12
102
100
95
47
92
131
88
99
119
67
79
34
125
89
107
109
126
26
127
51
15
91
50
104
72
111
55
115
128
106
28
101
81
63
124
29
90
48
61
129
85
73
10
18
105
130
123
117
68
37
76
64
103
42
80
58
39
49
21
69
114
56
121
27
30
71
59
36
5
113
45
86
60
38
87
122
57
84
112
9
53
2
108
25
97
19
20
13
22
74
35
70
82
44
118
31
16
66
32
54
110
62
78
43
96
40
46
83
41
33
94
93
75
65
116
1
14
7
52
6
4
8
17
24
3

> <PUBCHEM_MMFF94_PARTIAL_CHARGES>
42
1 -0.57
10 0.49
11 0.45
12 -0.14
13 -0.14
14 0.03
15 0.03
16 -0.18
17 -0.18
18 0.06
19 -0.15
2 -0.57
20 -0.15
21 -0.15
22 -0.15
23 0.08
24 0.08
25 0.08
26 0.08
27 -0.15
28 -0.15
29 0.28
3 -0.57
30 0.28
32 0.15
33 0.15
34 0.15
35 0.15
39 0.15
4 -0.36
40 0.15
41 0.15
42 0.15
43 0.15
44 0.15
45 0.45
46 0.45
5 -0.36
6 -0.53
7 -0.53
8 0.18
9 0.49

> <PUBCHEM_EFFECTIVE_ROTOR_COUNT>
9

> <PUBCHEM_PHARMACOPHORE_FEATURES>
10
1 1 acceptor
1 2 acceptor
1 3 acceptor
1 4 acceptor
1 5 acceptor
1 6 donor
1 7 donor
1 8 anion
6 14 20 22 23 25 27 rings
6 15 19 21 24 26 28 rings

> <PUBCHEM_HEAVY_ATOM_COUNT>
30

> <PUBCHEM_ATOM_DEF_STEREO_COUNT>
0

> <PUBCHEM_ATOM_UDEF_STEREO_COUNT>
0

> <PUBCHEM_BOND_DEF_STEREO_COUNT>
2

> <PUBCHEM_BOND_UDEF_STEREO_COUNT>
0

> <PUBCHEM_ISOTOPIC_ATOM_COUNT>
0

> <PUBCHEM_COMPONENT_COUNT>
1

> <PUBCHEM_CACTVS_TAUTO_COUNT>
123

> <PUBCHEM_CONFORMER_ID>
07BB50DB0000000B

> <PUBCHEM_MMFF94_ENERGY>
98.2028

> <PUBCHEM_FEATURE_SELFOVERLAP>
50.748

> <PUBCHEM_SHAPE_FINGERPRINT>
10 15 16950285113301924277
11297750 10 16953933117022263198
11386260 185 15985112938197042648
11443803 9 18271514368831502095
11475781 23 18201169814626333828
11478447 183 17632283598591765725
11823591 26 18334013899693638935
12047536 79 16588852469924411701
12082328 90 14620802591786522617
12373685 5 17095233736373306019
13673619 4 11095883748666992611
14556957 393 13470422101074041010
14739800 52 18201711812964602171
150020 25 16702301261000522437
15183329 4 18413392046370589368
15289351 153 18342174436941303338
1577012 14 18201159858913259517
16994733 274 18060697286365402113
20511986 3 18341045212866956141
20554085 129 18341606036458404626
21033648 144 18260268513333276975
21033648 29 17845928654706690472
21298829 104 18410863127241566317
21403212 168 17967806150642428178
21424621 283 18341897406928878242
21585481 151 12035451623110671249
21781055 127 18335991892133550036
21792965 106 18118114767823192697
23522609 53 17387713806311677380
2748736 6 18410013243001598381
2838139 119 18131070471481247444
3411729 13 18260551086972678786
3918712 181 18411982472822957336
5385378 56 18260551087178179602
54039377 194 10447927287480321765
5758199 1 18409733950115849709
5937810 71 16988573351704930569
6058803 2 17172658218264568798
6712543 237 14923950059113743577
9831232 110 11747205849774964448

> <PUBCHEM_SHAPE_MULTIPOLES>
576.3
26.01
3.09
2.01
7.99
2.97
0.68
-25.49
-0.93
0.8
1.14
-1.92
-0.39
-2.16

> <PUBCHEM_SHAPE_SELFOVERLAP>
1218.861

> <PUBCHEM_SHAPE_VOLUME>
322.6

> <PUBCHEM_COORDINATE_TYPE>
2
5
10

$$$$
