129702
  -OEChem-03292013323D

 42 43  0     0  0  0  0  0  0999 V2000
    6.3292   -0.0167   -2.1675 Cl  0  0  0  0  0  0  0  0  0  0  0  0
   -3.0111    2.4817    1.3477 O   0  0  0  0  0  0  0  0  0  0  0  0
    1.0600   -0.6484    0.6362 O   0  0  0  0  0  0  0  0  0  0  0  0
   -6.3027   -2.6827   -0.0124 O   0  5  0  0  0  0  0  0  0  0  0  0
   -4.9661   -2.6182   -1.7525 O   0  0  0  0  0  0  0  0  0  0  0  0
   -0.7319    0.9347   -0.7451 N   0  0  0  0  0  0  0  0  0  0  0  0
    1.5750    0.9772   -0.9631 N   0  0  0  0  0  0  0  0  0  0  0  0
   -5.3750   -2.1456   -0.6646 N   0  3  0  0  0  0  0  0  0  0  0  0
    0.3311    2.4536   -2.2603 N   0  0  0  0  0  0  0  0  0  0  0  0
    4.0711   -0.0702   -0.9201 N   0  0  0  0  0  0  0  0  0  0  0  0
    5.1338   -0.9760    1.5123 N   0  0  0  0  0  0  0  0  0  0  0  0
    2.9519   -0.9447    2.4518 N   0  0  0  0  0  0  0  0  0  0  0  0
    7.2978   -0.9939    0.5429 N   0  0  0  0  0  0  0  0  0  0  0  0
   -3.1493    0.8029   -0.3575 C   0  0  0  0  0  0  0  0  0  0  0  0
   -2.0372    1.4523   -1.1326 C   0  0  0  0  0  0  0  0  0  0  0  0
   -3.5807    1.3508    0.8446 C   0  0  0  0  0  0  0  0  0  0  0  0
   -3.7364   -0.3512   -0.8628 C   0  0  0  0  0  0  0  0  0  0  0  0
   -4.7696   -0.9661   -0.1557 C   0  0  0  0  0  0  0  0  0  0  0  0
   -4.6139    0.7359    1.5519 C   0  0  0  0  0  0  0  0  0  0  0  0
   -5.2083   -0.4226    1.0516 C   0  0  0  0  0  0  0  0  0  0  0  0
    0.3061    1.4550   -1.3152 C   0  0  0  0  0  0  0  0  0  0  0  0
    3.3248   -0.2951    0.1639 C   0  0  0  0  0  0  0  0  0  0  0  0
    1.8780   -0.0221   -0.0314 C   0  0  0  0  0  0  0  0  0  0  0  0
    3.8173   -0.7344    1.3547 C   0  0  0  0  0  0  0  0  0  0  0  0
   -1.8909    2.3127    2.2138 C   0  0  0  0  0  0  0  0  0  0  0  0
    5.9095   -0.7570    0.4321 C   0  0  0  0  0  0  0  0  0  0  0  0
    5.3876   -0.3121   -0.7626 C   0  0  0  0  0  0  0  0  0  0  0  0
   -2.2086    1.2781   -2.2038 H   0  0  0  0  0  0  0  0  0  0  0  0
   -2.0856    2.5401   -0.9924 H   0  0  0  0  0  0  0  0  0  0  0  0
   -3.3757   -0.7583   -1.8044 H   0  0  0  0  0  0  0  0  0  0  0  0
   -4.9609    1.1544    2.4928 H   0  0  0  0  0  0  0  0  0  0  0  0
   -6.0105   -0.8744    1.6296 H   0  0  0  0  0  0  0  0  0  0  0  0
    2.3593    1.4179   -1.4375 H   0  0  0  0  0  0  0  0  0  0  0  0
   -1.2012    1.5462    1.8490 H   0  0  0  0  0  0  0  0  0  0  0  0
   -2.2401    2.0438    3.2155 H   0  0  0  0  0  0  0  0  0  0  0  0
   -1.3568    3.2649    2.2736 H   0  0  0  0  0  0  0  0  0  0  0  0
   -0.5143    2.8880   -2.6125 H   0  0  0  0  0  0  0  0  0  0  0  0
    1.2085    2.7885   -2.6435 H   0  0  0  0  0  0  0  0  0  0  0  0
    3.3774   -1.2765    3.3088 H   0  0  0  0  0  0  0  0  0  0  0  0
    2.1220   -0.3706    2.5329 H   0  0  0  0  0  0  0  0  0  0  0  0
    7.8132   -1.2366   -0.2941 H   0  0  0  0  0  0  0  0  0  0  0  0
    7.6419   -1.3278    1.4345 H   0  0  0  0  0  0  0  0  0  0  0  0
  1 27  1  0  0  0  0
  2 16  1  0  0  0  0
  2 25  1  0  0  0  0
  3 23  2  0  0  0  0
  4  8  1  0  0  0  0
  5  8  2  0  0  0  0
  6 15  1  0  0  0  0
  6 21  2  0  0  0  0
  7 21  1  0  0  0  0
  7 23  1  0  0  0  0
  7 33  1  0  0  0  0
  8 18  1  0  0  0  0
  9 21  1  0  0  0  0
  9 37  1  0  0  0  0
  9 38  1  0  0  0  0
 10 22  1  0  0  0  0
 10 27  2  0  0  0  0
 11 24  1  0  0  0  0
 11 26  2  0  0  0  0
 12 24  1  0  0  0  0
 12 39  1  0  0  0  0
 12 40  1  0  0  0  0
 13 26  1  0  0  0  0
 13 41  1  0  0  0  0
 13 42  1  0  0  0  0
 14 15  1  0  0  0  0
 14 16  2  0  0  0  0
 14 17  1  0  0  0  0
 15 28  1  0  0  0  0
 15 29  1  0  0  0  0
 16 19  1  0  0  0  0
 17 18  2  0  0  0  0
 17 30  1  0  0  0  0
 18 20  1  0  0  0  0
 19 20  2  0  0  0  0
 19 31  1  0  0  0  0
 20 32  1  0  0  0  0
 22 23  1  0  0  0  0
 22 24  2  0  0  0  0
 25 34  1  0  0  0  0
 25 35  1  0  0  0  0
 25 36  1  0  0  0  0
 26 27  1  0  0  0  0
M  CHG  2   4  -1   8   1
M  END
> <PUBCHEM_COMPOUND_CID>
129702

> <PUBCHEM_CONFORMER_RMSD>
0.8

> <PUBCHEM_CONFORMER_DIVERSEORDER>
2
171
14
176
204
206
223
35
101
151
182
160
152
153
34
192
186
178
124
4
127
115
105
214
165
197
30
199
78
109
208
179
51
155
137
75
66
74
82
91
106
170
56
154
172
157
169
41
177
205
107
99
122
94
125
63
77
143
149
62
52
207
120
135
54
31
198
163
202
181
180
24
90
162
142
156
110
47
188
211
161
117
226
95
104
25
168
43
71
173
100
218
121
13
112
201
36
175
191
148
134
219
183
73
26
141
132
27
10
158
15
194
150
200
145
196
119
128
68
98
18
212
12
215
86
209
146
225
138
38
213
57
174
65
159
193
5
210
222
130
59
118
64
167
147
203
87
61
44
221
33
85
166
140
8
184
102
111
3
123
97
67
80
20
29
116
21
92
76
190
49
139
187
32
50
37
195
108
84
88
19
9
93
136
216
60
11
53
114
55
224
189
96
16
131
40
81
69
39
129
144
126
1
79
103
6
42
23
217
70
46
58
22
17
83
185
113
45
89
48
28
72
220
133
7
164

> <PUBCHEM_MMFF94_PARTIAL_CHARGES>
37
1 -0.18
10 -0.62
11 -0.62
12 -0.9
13 -0.9
14 -0.14
15 0.39
16 0.08
17 -0.15
18 0.13
19 -0.15
2 -0.36
20 -0.15
21 0.56
22 0.4
23 0.54
24 0.41
25 0.28
26 0.41
27 0.49
3 -0.57
30 0.15
31 0.15
32 0.15
33 0.37
37 0.4
38 0.4
39 0.4
4 -0.52
40 0.4
41 0.4
42 0.4
5 -0.52
6 -0.7
7 -0.49
8 0.91
9 -0.85

> <PUBCHEM_EFFECTIVE_ROTOR_COUNT>
7

> <PUBCHEM_PHARMACOPHORE_FEATURES>
14
1 10 acceptor
1 12 cation
1 12 donor
1 13 donor
1 2 acceptor
1 3 acceptor
1 4 acceptor
1 4 anion
1 5 acceptor
1 7 donor
1 9 donor
3 11 13 26 cation
6 10 11 22 24 26 27 rings
6 14 16 17 18 19 20 rings

> <PUBCHEM_HEAVY_ATOM_COUNT>
27

> <PUBCHEM_ATOM_DEF_STEREO_COUNT>
0

> <PUBCHEM_ATOM_UDEF_STEREO_COUNT>
0

> <PUBCHEM_BOND_DEF_STEREO_COUNT>
0

> <PUBCHEM_BOND_UDEF_STEREO_COUNT>
0

> <PUBCHEM_ISOTOPIC_ATOM_COUNT>
0

> <PUBCHEM_COMPONENT_COUNT>
1

> <PUBCHEM_CACTVS_TAUTO_COUNT>
54

> <PUBCHEM_CONFORMER_ID>
0001FAA600000002

> <PUBCHEM_MMFF94_ENERGY>
103.5308

> <PUBCHEM_FEATURE_SELFOVERLAP>
71.174

> <PUBCHEM_SHAPE_FINGERPRINT>
10319926 262 17418104212718577245
10447042 23 16877940521312777082
10803635 8 12973607724518218537
11545043 162 17561363963335798656
12166972 35 18261954158599168501
12596602 18 18413105074141500248
13544653 18 17023191478719209628
13583140 156 16702015336173643845
14068700 675 18410571821042062257
14251764 30 18201162057715014702
14767858 380 17386016087285983078
15163728 17 11098396111688528505
15188451 53 18272081734596288095
15880784 105 18407759239901397320
17349148 13 18334581252135861579
17780758 139 18273213080389695449
18222031 100 18187076278153995788
20028762 73 18409728486770503214
21033648 29 15768916962262172552
21315759 148 17775287140854867510
21315759 40 18335139748883670530
22393880 68 13407080335603951817
2303208 19 16845299319597775270
23522609 53 18044124322216032756
23559900 14 17129895784287910341
312425 54 17846225414506922723
314194 84 17821730524564588240
351380 3 18260265261188348279
397830 11 17632285826597921656
4015057 19 16515696562354805949
4938544 92 18271528572615475425
57527295 17 16298928906718277081
6431902 208 17312824853061051962
6691757 9 18201446836212887025

> <PUBCHEM_SHAPE_MULTIPOLES>
494.19
17.64
2.3
2.11
12.21
0.14
-0.16
10.83
-0.46
-4.71
0.27
1.08
-0.59
-2.69

> <PUBCHEM_SHAPE_SELFOVERLAP>
1045.704

> <PUBCHEM_SHAPE_VOLUME>
277.8

> <PUBCHEM_COORDINATE_TYPE>
2
5
10

$$$$
