129747
  -OEChem-03292013323D

 54 56  0     1  0  0  0  0  0999 V2000
   -2.8757   -0.6354    0.6100 S   0  0  0  0  0  0  0  0  0  0  0  0
    5.0863    2.0861    0.3579 F   0  0  0  0  0  0  0  0  0  0  0  0
    4.5252    0.5381   -1.0538 F   0  0  0  0  0  0  0  0  0  0  0  0
    3.1673    2.1902   -0.6594 F   0  0  0  0  0  0  0  0  0  0  0  0
    0.1638    2.2067   -1.4816 O   0  0  0  0  0  0  0  0  0  0  0  0
   -2.2887    0.3026    1.5572 O   0  0  0  0  0  0  0  0  0  0  0  0
   -2.8216   -2.0652    0.8823 O   0  0  0  0  0  0  0  0  0  0  0  0
   -0.1105    1.9469    0.8024 O   0  0  0  0  0  0  0  0  0  0  0  0
   -0.4813   -2.0688   -1.2066 N   0  0  0  0  0  0  0  0  0  0  0  0
    4.2689   -2.8313   -1.3559 N   0  0  0  0  0  0  0  0  0  0  0  0
   -7.2468    0.5160    0.1808 N   0  0  0  0  0  0  0  0  0  0  0  0
    1.7325   -0.4191   -0.5768 C   0  0  2  0  0  0  0  0  0  0  0  0
    0.2865    0.0873   -0.6126 C   0  0  0  0  0  0  0  0  0  0  0  0
   -0.7402   -0.7419   -0.9062 C   0  0  0  0  0  0  0  0  0  0  0  0
    1.8818   -1.8745   -1.0540 C   0  0  0  0  0  0  0  0  0  0  0  0
    2.2965   -0.2772    0.8086 C   0  0  0  0  0  0  0  0  0  0  0  0
   -2.1925   -0.3531   -0.9797 C   0  0  0  0  0  0  0  0  0  0  0  0
    0.7831   -2.6193   -1.3218 C   0  0  0  0  0  0  0  0  0  0  0  0
    3.3863    0.5515    1.0494 C   0  0  0  0  0  0  0  0  0  0  0  0
    0.0866    1.5161   -0.3186 C   0  0  0  0  0  0  0  0  0  0  0  0
    1.7067   -0.9921    1.8452 C   0  0  0  0  0  0  0  0  0  0  0  0
    0.8101   -4.0571   -1.7715 C   0  0  0  0  0  0  0  0  0  0  0  0
   -4.5807   -0.1862    0.4426 C   0  0  0  0  0  0  0  0  0  0  0  0
    3.8932    0.6671    2.3437 C   0  0  0  0  0  0  0  0  0  0  0  0
    4.0306    1.3248   -0.0539 C   0  0  0  0  0  0  0  0  0  0  0  0
    2.2137   -0.8764    3.1395 C   0  0  0  0  0  0  0  0  0  0  0  0
    3.1994   -2.4027   -1.2206 C   0  0  0  0  0  0  0  0  0  0  0  0
    3.3069   -0.0470    3.3888 C   0  0  0  0  0  0  0  0  0  0  0  0
   -5.4943   -1.1453    0.0639 C   0  0  0  0  0  0  0  0  0  0  0  0
   -4.9612    1.1137    0.6944 C   0  0  0  0  0  0  0  0  0  0  0  0
   -0.0109    3.6220   -1.3594 C   0  0  0  0  0  0  0  0  0  0  0  0
   -6.8153   -0.7437   -0.0528 C   0  0  0  0  0  0  0  0  0  0  0  0
   -6.3060    1.4143    0.5494 C   0  0  0  0  0  0  0  0  0  0  0  0
    0.1006    4.2530   -2.7310 C   0  0  0  0  0  0  0  0  0  0  0  0
    2.2643    0.1818   -1.3215 H   0  0  0  0  0  0  0  0  0  0  0  0
   -2.7375   -0.9505   -1.7170 H   0  0  0  0  0  0  0  0  0  0  0  0
   -2.3241    0.7037   -1.2291 H   0  0  0  0  0  0  0  0  0  0  0  0
   -1.2720   -2.6666   -1.4195 H   0  0  0  0  0  0  0  0  0  0  0  0
    0.8535   -1.6439    1.6803 H   0  0  0  0  0  0  0  0  0  0  0  0
    0.3486   -4.1496   -2.7607 H   0  0  0  0  0  0  0  0  0  0  0  0
    1.8161   -4.4792   -1.8383 H   0  0  0  0  0  0  0  0  0  0  0  0
    0.2434   -4.6793   -1.0699 H   0  0  0  0  0  0  0  0  0  0  0  0
    4.7439    1.3073    2.5603 H   0  0  0  0  0  0  0  0  0  0  0  0
    1.7568   -1.4318    3.9534 H   0  0  0  0  0  0  0  0  0  0  0  0
    3.7014    0.0430    4.3967 H   0  0  0  0  0  0  0  0  0  0  0  0
   -5.2176   -2.1714   -0.1460 H   0  0  0  0  0  0  0  0  0  0  0  0
   -4.2602    1.8868    0.9854 H   0  0  0  0  0  0  0  0  0  0  0  0
    0.7636    4.0297   -0.7001 H   0  0  0  0  0  0  0  0  0  0  0  0
   -0.9986    3.8324   -0.9340 H   0  0  0  0  0  0  0  0  0  0  0  0
   -7.5858   -1.4479   -0.3490 H   0  0  0  0  0  0  0  0  0  0  0  0
   -6.6731    2.4192    0.7301 H   0  0  0  0  0  0  0  0  0  0  0  0
   -0.0284    5.3374   -2.6744 H   0  0  0  0  0  0  0  0  0  0  0  0
    1.0769    4.0354   -3.1764 H   0  0  0  0  0  0  0  0  0  0  0  0
   -0.6561    3.8413   -3.4070 H   0  0  0  0  0  0  0  0  0  0  0  0
  1  6  2  0  0  0  0
  1  7  2  0  0  0  0
  1 17  1  0  0  0  0
  1 23  1  0  0  0  0
  2 25  1  0  0  0  0
  3 25  1  0  0  0  0
  4 25  1  0  0  0  0
  5 20  1  0  0  0  0
  5 31  1  0  0  0  0
  8 20  2  0  0  0  0
  9 14  1  0  0  0  0
  9 18  1  0  0  0  0
  9 38  1  0  0  0  0
 10 27  3  0  0  0  0
 11 32  2  0  0  0  0
 11 33  1  0  0  0  0
 12 13  1  0  0  0  0
 12 15  1  0  0  0  0
 12 16  1  0  0  0  0
 12 35  1  0  0  0  0
 13 14  2  0  0  0  0
 13 20  1  0  0  0  0
 14 17  1  0  0  0  0
 15 18  2  0  0  0  0
 15 27  1  0  0  0  0
 16 19  1  0  0  0  0
 16 21  2  0  0  0  0
 17 36  1  0  0  0  0
 17 37  1  0  0  0  0
 18 22  1  0  0  0  0
 19 24  2  0  0  0  0
 19 25  1  0  0  0  0
 21 26  1  0  0  0  0
 21 39  1  0  0  0  0
 22 40  1  0  0  0  0
 22 41  1  0  0  0  0
 22 42  1  0  0  0  0
 23 29  2  0  0  0  0
 23 30  1  0  0  0  0
 24 28  1  0  0  0  0
 24 43  1  0  0  0  0
 26 28  2  0  0  0  0
 26 44  1  0  0  0  0
 28 45  1  0  0  0  0
 29 32  1  0  0  0  0
 29 46  1  0  0  0  0
 30 33  2  0  0  0  0
 30 47  1  0  0  0  0
 31 34  1  0  0  0  0
 31 48  1  0  0  0  0
 31 49  1  0  0  0  0
 32 50  1  0  0  0  0
 33 51  1  0  0  0  0
 34 52  1  0  0  0  0
 34 53  1  0  0  0  0
 34 54  1  0  0  0  0
M  END
> <PUBCHEM_COMPOUND_CID>
129747

> <PUBCHEM_CONFORMER_RMSD>
1

> <PUBCHEM_CONFORMER_DIVERSEORDER>
1
12
11
23
22
14
21
5
18
13
20
6
10
3
8
15
17
2
19
4
9
16
7

> <PUBCHEM_MMFF94_PARTIAL_CHARGES>
42
1 1.2
10 -0.56
11 -0.62
12 0.42
13 -0.12
14 -0.04
15 -0.07
16 -0.14
17 0.24
18 -0.04
19 -0.14
2 -0.34
20 0.71
21 -0.15
22 0.14
23 -0.01
24 -0.15
25 1.16
26 -0.15
27 0.49
28 -0.15
29 -0.15
3 -0.34
30 -0.15
31 0.28
32 0.16
33 0.16
38 0.4
39 0.15
4 -0.34
43 0.15
44 0.15
45 0.15
46 0.15
47 0.15
5 -0.43
50 0.15
51 0.15
6 -0.65
7 -0.65
8 -0.57
9 -0.6

> <PUBCHEM_EFFECTIVE_ROTOR_COUNT>
8.4

> <PUBCHEM_PHARMACOPHORE_FEATURES>
10
1 10 acceptor
1 11 acceptor
1 6 acceptor
1 7 acceptor
1 8 acceptor
1 9 cation
1 9 donor
6 11 23 29 30 32 33 rings
6 16 19 21 24 26 28 rings
6 9 12 13 14 15 18 rings

> <PUBCHEM_HEAVY_ATOM_COUNT>
34

> <PUBCHEM_ATOM_DEF_STEREO_COUNT>
0

> <PUBCHEM_ATOM_UDEF_STEREO_COUNT>
1

> <PUBCHEM_BOND_DEF_STEREO_COUNT>
0

> <PUBCHEM_BOND_UDEF_STEREO_COUNT>
0

> <PUBCHEM_ISOTOPIC_ATOM_COUNT>
0

> <PUBCHEM_COMPONENT_COUNT>
1

> <PUBCHEM_CACTVS_TAUTO_COUNT>
2

> <PUBCHEM_CONFORMER_ID>
0001FAD300000001

> <PUBCHEM_MMFF94_ENERGY>
68.8258

> <PUBCHEM_FEATURE_SELFOVERLAP>
50.769

> <PUBCHEM_SHAPE_FINGERPRINT>
10006869 2 18114448024949966832
10165383 225 18060700624235447256
12107698 1 18114179688625705312
12403259 327 17531247300817354627
12422481 6 18338500946717439345
12633257 1 18040709299355497219
12788726 201 17387702608873318101
13533116 47 17775288218934213891
13965767 371 18197475493916702520
14341114 328 18040707117042482818
14790565 3 18126569161045435836
14955137 171 18266468774501187844
15420108 30 18050844721530418429
15664445 248 18114754814622137092
1601671 61 18411983593444710029
18365409 1 17771621527933555535
18681886 176 18269843188524378133
20739085 24 18411706469417407879
21033648 29 17917423289214754475
21421861 104 17749665199406290256
22149856 69 18059030466764504771
23559900 14 18271814475924760859
25222932 49 17749956703501396179
3411729 13 18114749363849721932
345986 75 16879324750575797193
350125 39 18201441325120791646
513532 50 18260833678498319058
57527306 92 18260828258998787696
57527585 21 14972303479347482016
6086070 43 16343697776673299970
70251023 43 18189623735206068778
8509985 295 17676485034741539011
9658208 31 17560232664745333638
9841814 1 17894634759978677645

> <PUBCHEM_SHAPE_MULTIPOLES>
643.31
12.17
3.84
2.53
22.65
1.26
-1.43
0.67
-4.21
-2.32
4.02
-3.22
0.24
0.83

> <PUBCHEM_SHAPE_SELFOVERLAP>
1377.289

> <PUBCHEM_SHAPE_VOLUME>
358.1

> <PUBCHEM_COORDINATE_TYPE>
2
5
10

$$$$
