129720491
  -OEChem-03292013293D

 41 41  0     1  0  0  0  0  0999 V2000
   -4.3980   -0.7413   -0.6673 O   0  0  0  0  0  0  0  0  0  0  0  0
   -2.7888    2.4395    0.1133 O   0  0  0  0  0  0  0  0  0  0  0  0
   -3.6202   -0.4315    2.0210 O   0  0  0  0  0  0  0  0  0  0  0  0
   -5.0581    3.3256   -1.2704 O   0  0  0  0  0  0  0  0  0  0  0  0
   -2.5707   -2.8054    1.4840 O   0  0  0  0  0  0  0  0  0  0  0  0
   -1.2105   -2.8925   -1.0358 O   0  0  0  0  0  0  0  0  0  0  0  0
    3.9579    2.1238    1.0832 O   0  0  0  0  0  0  0  0  0  0  0  0
    6.2266    1.0862   -0.1431 O   0  0  0  0  0  0  0  0  0  0  0  0
   -3.3251    0.1216   -0.2861 C   0  0  1  0  0  0  0  0  0  0  0  0
   -3.8686    1.5516   -0.1694 C   0  0  2  0  0  0  0  0  0  0  0  0
   -2.6447   -0.4235    0.9788 C   0  0  2  0  0  0  0  0  0  0  0  0
   -4.5491    2.0093   -1.4609 C   0  0  0  0  0  0  0  0  0  0  0  0
   -2.1502   -1.8518    0.8438 C   0  0  0  0  0  0  0  0  0  0  0  0
   -1.0270   -2.1002   -0.1266 C   0  0  0  0  0  0  0  0  0  0  0  0
    0.2282   -1.3532    0.1232 C   0  0  0  0  0  0  0  0  0  0  0  0
    2.5694   -0.8368   -0.5510 C   0  0  0  0  0  0  0  0  0  0  0  0
    1.2735   -1.5217   -0.6983 C   0  0  0  0  0  0  0  0  0  0  0  0
    2.6576    0.3330    0.2038 C   0  0  0  0  0  0  0  0  0  0  0  0
    3.7079   -1.3573   -1.1661 C   0  0  0  0  0  0  0  0  0  0  0  0
    3.8842    0.9822    0.3435 C   0  0  0  0  0  0  0  0  0  0  0  0
    5.0228    0.4616   -0.2717 C   0  0  0  0  0  0  0  0  0  0  0  0
    4.9346   -0.7081   -1.0265 C   0  0  0  0  0  0  0  0  0  0  0  0
    2.7480    2.5890    1.6786 C   0  0  0  0  0  0  0  0  0  0  0  0
   -2.5913    0.1000   -1.1024 H   0  0  0  0  0  0  0  0  0  0  0  0
   -4.5859    1.6275    0.6564 H   0  0  0  0  0  0  0  0  0  0  0  0
   -1.8260    0.2208    1.3089 H   0  0  0  0  0  0  0  0  0  0  0  0
   -5.3844    1.3577   -1.7328 H   0  0  0  0  0  0  0  0  0  0  0  0
   -3.8315    2.0478   -2.2871 H   0  0  0  0  0  0  0  0  0  0  0  0
   -4.0180   -1.6044   -0.9028 H   0  0  0  0  0  0  0  0  0  0  0  0
   -3.1568    3.3379    0.1692 H   0  0  0  0  0  0  0  0  0  0  0  0
   -4.3922   -0.9314    1.7043 H   0  0  0  0  0  0  0  0  0  0  0  0
   -5.4775    3.5924   -2.1062 H   0  0  0  0  0  0  0  0  0  0  0  0
    0.2550   -0.7197    1.0004 H   0  0  0  0  0  0  0  0  0  0  0  0
    1.2015   -2.2014   -1.5443 H   0  0  0  0  0  0  0  0  0  0  0  0
    1.7536    0.7315    0.6459 H   0  0  0  0  0  0  0  0  0  0  0  0
    3.6579   -2.2686   -1.7571 H   0  0  0  0  0  0  0  0  0  0  0  0
    5.8137   -1.1246   -1.5109 H   0  0  0  0  0  0  0  0  0  0  0  0
    6.8983    0.5838   -0.6356 H   0  0  0  0  0  0  0  0  0  0  0  0
    2.9939    3.5000    2.2343 H   0  0  0  0  0  0  0  0  0  0  0  0
    2.3528    1.8726    2.4070 H   0  0  0  0  0  0  0  0  0  0  0  0
    2.0076    2.8714    0.9223 H   0  0  0  0  0  0  0  0  0  0  0  0
  1  9  1  0  0  0  0
  1 29  1  0  0  0  0
  2 10  1  0  0  0  0
  2 30  1  0  0  0  0
  3 11  1  0  0  0  0
  3 31  1  0  0  0  0
  4 12  1  0  0  0  0
  4 32  1  0  0  0  0
  5 13  2  0  0  0  0
  6 14  2  0  0  0  0
  7 20  1  0  0  0  0
  7 23  1  0  0  0  0
  8 21  1  0  0  0  0
  8 38  1  0  0  0  0
  9 10  1  0  0  0  0
  9 11  1  0  0  0  0
  9 24  1  0  0  0  0
 10 12  1  0  0  0  0
 10 25  1  0  0  0  0
 11 13  1  0  0  0  0
 11 26  1  0  0  0  0
 12 27  1  0  0  0  0
 12 28  1  0  0  0  0
 13 14  1  0  0  0  0
 14 15  1  0  0  0  0
 15 17  2  0  0  0  0
 15 33  1  0  0  0  0
 16 17  1  0  0  0  0
 16 18  2  0  0  0  0
 16 19  1  0  0  0  0
 17 34  1  0  0  0  0
 18 20  1  0  0  0  0
 18 35  1  0  0  0  0
 19 22  2  0  0  0  0
 19 36  1  0  0  0  0
 20 21  2  0  0  0  0
 21 22  1  0  0  0  0
 22 37  1  0  0  0  0
 23 39  1  0  0  0  0
 23 40  1  0  0  0  0
 23 41  1  0  0  0  0
M  END
> <PUBCHEM_COMPOUND_CID>
129720491

> <PUBCHEM_CONFORMER_RMSD>
1

> <PUBCHEM_CONFORMER_DIVERSEORDER>
1
127
74
144
32
130
142
57
33
55
7
20
29
77
36
128
132
98
129
110
69
136
45
133
106
78
31
124
27
90
80
19
75
123
140
50
15
73
10
103
101
14
11
64
109
76
56
30
24
94
65
113
131
91
100
67
54
139
134
71
135
92
95
105
122
138
8
26
96
97
72
25
60
117
12
68
42
2
137
120
48
84
119
93
141
89
82
9
58
61
6
81
115
46
44
126
107
4
40
104
63
16
121
43
59
23
79
17
5
99
125
52
116
3
62
28
66
88
112
13
34
145
39
37
83
41
143
22
114
70
21
51
38
86
49
108
18
85
102
118
53
87
35
111
47

> <PUBCHEM_MMFF94_PARTIAL_CHARGES>
33
1 -0.68
10 0.28
11 0.34
12 0.28
13 0.51
14 0.56
15 -0.14
16 0.03
17 -0.18
18 -0.15
19 -0.15
2 -0.68
20 0.08
21 0.08
22 -0.15
23 0.28
29 0.4
3 -0.68
30 0.4
31 0.4
32 0.4
33 0.15
34 0.15
35 0.15
36 0.15
37 0.15
38 0.45
4 -0.68
5 -0.57
6 -0.57
7 -0.36
8 -0.53
9 0.28

> <PUBCHEM_EFFECTIVE_ROTOR_COUNT>
8

> <PUBCHEM_PHARMACOPHORE_FEATURES>
13
1 1 acceptor
1 1 donor
1 2 acceptor
1 2 donor
1 3 acceptor
1 3 donor
1 4 acceptor
1 4 donor
1 5 acceptor
1 6 acceptor
1 7 acceptor
1 8 donor
6 16 18 19 20 21 22 rings

> <PUBCHEM_HEAVY_ATOM_COUNT>
23

> <PUBCHEM_ATOM_DEF_STEREO_COUNT>
3

> <PUBCHEM_ATOM_UDEF_STEREO_COUNT>
0

> <PUBCHEM_BOND_DEF_STEREO_COUNT>
1

> <PUBCHEM_BOND_UDEF_STEREO_COUNT>
0

> <PUBCHEM_ISOTOPIC_ATOM_COUNT>
0

> <PUBCHEM_COMPONENT_COUNT>
1

> <PUBCHEM_CACTVS_TAUTO_COUNT>
1000

> <PUBCHEM_CONFORMER_ID>
07BB60AB00000001

> <PUBCHEM_MMFF94_ENERGY>
62.0508

> <PUBCHEM_FEATURE_SELFOVERLAP>
66.004

> <PUBCHEM_SHAPE_FINGERPRINT>
10498660 4 18339638949852548021
11045515 52 17767953600103809167
11552529 35 16155134899900960746
11595378 159 17676761054724694208
12403259 415 18337962203231125887
12596602 18 16081660005304529416
13103583 49 13840563817283456541
13402501 40 18411698759798598052
13583140 156 18340211881321119010
13944108 23 17474102103730448797
14251757 17 18343586243898849016
14251764 38 18335700602017670052
14347329 18 18041285361580569724
14950920 106 14057300678747979245
14957384 54 18410281536913289650
15003188 100 18343292678447073973
17349148 13 14548741698939424678
17868525 174 18336259038856878658
20645477 56 18342465884204860363
20645477 70 17560816398588878126
21033648 144 17987796444497852284
21033648 29 18409443691567307656
21054139 6 13110963107328566788
21279426 13 18340778035841921614
21401589 2 18188217486041764681
21709351 56 17702950387128314462
221357 26 18131350808312762529
22289505 5 18272933800494707764
23559900 14 17774734112714243558
2838139 119 18192140513195619877
325973 47 18341048605127339744
341906 21 18040431100879469026
4028521 119 18413108351011447719
4371632 12 17129556176448696713
508706 21 18335135418897220637
633830 44 17130451024025974535
9981440 41 18114185194742741363

> <PUBCHEM_SHAPE_MULTIPOLES>
426.37
12.75
3.38
1.44
4.69
0.9
0.33
7.85
-2.74
-2.91
0.07
-0.88
0.22
3.4

> <PUBCHEM_SHAPE_SELFOVERLAP>
878.53

> <PUBCHEM_SHAPE_VOLUME>
243.7

> <PUBCHEM_COORDINATE_TYPE>
2
5
10

$$$$
