129710133
  -OEChem-03292013293D

 30 29  0     1  0  0  0  0  0999 V2000
    0.0725   -0.1525    1.5758 O   0  0  0  0  0  0  0  0  0  0  0  0
    2.6197    1.1137    1.3861 O   0  0  0  0  0  0  0  0  0  0  0  0
    4.6625    1.4696   -0.0566 O   0  0  0  0  0  0  0  0  0  0  0  0
    3.7979    0.0847   -1.6732 O   0  0  0  0  0  0  0  0  0  0  0  0
   -0.0253   -2.9105    0.0737 N   0  0  0  0  0  0  0  0  0  0  0  0
    1.5999   -0.3252   -0.1743 N   0  0  0  0  0  0  0  0  0  0  0  0
   -5.9860    1.5762   -0.1696 N   0  0  0  0  0  0  0  0  0  0  0  0
   -1.9708   -1.4071    0.0125 C   0  0  0  0  0  0  0  0  0  0  0  0
   -2.4907   -0.0148   -0.3674 C   0  0  0  0  0  0  0  0  0  0  0  0
   -0.4784   -1.5717   -0.3076 C   0  0  1  0  0  0  0  0  0  0  0  0
   -3.9965    0.1025   -0.1089 C   0  0  0  0  0  0  0  0  0  0  0  0
   -4.5497    1.4972   -0.4065 C   0  0  0  0  0  0  0  0  0  0  0  0
    0.3981   -0.6017    0.4786 C   0  0  0  0  0  0  0  0  0  0  0  0
    2.5898    0.4976    0.3328 C   0  0  0  0  0  0  0  0  0  0  0  0
    3.7570    0.6420   -0.5953 C   0  0  0  0  0  0  0  0  0  0  0  0
   -2.1538   -1.5784    1.0816 H   0  0  0  0  0  0  0  0  0  0  0  0
   -2.5453   -2.1667   -0.5335 H   0  0  0  0  0  0  0  0  0  0  0  0
   -2.2887    0.1781   -1.4280 H   0  0  0  0  0  0  0  0  0  0  0  0
   -1.9702    0.7597    0.2062 H   0  0  0  0  0  0  0  0  0  0  0  0
   -0.3216   -1.4274   -1.3831 H   0  0  0  0  0  0  0  0  0  0  0  0
   -4.5251   -0.6382   -0.7226 H   0  0  0  0  0  0  0  0  0  0  0  0
   -4.2018   -0.1501    0.9395 H   0  0  0  0  0  0  0  0  0  0  0  0
   -4.0415    2.2392    0.2195 H   0  0  0  0  0  0  0  0  0  0  0  0
   -4.3499    1.7578   -1.4516 H   0  0  0  0  0  0  0  0  0  0  0  0
    0.9359   -3.0475   -0.2375 H   0  0  0  0  0  0  0  0  0  0  0  0
   -0.5826   -3.6111   -0.4139 H   0  0  0  0  0  0  0  0  0  0  0  0
    1.7613   -0.7569   -1.0810 H   0  0  0  0  0  0  0  0  0  0  0  0
   -6.3020    2.5331   -0.3217 H   0  0  0  0  0  0  0  0  0  0  0  0
   -6.1846    1.3607    0.8065 H   0  0  0  0  0  0  0  0  0  0  0  0
    5.4394    1.6017   -0.6408 H   0  0  0  0  0  0  0  0  0  0  0  0
  1 13  2  0  0  0  0
  2 14  2  0  0  0  0
  3 15  1  0  0  0  0
  3 30  1  0  0  0  0
  4 15  2  0  0  0  0
  5 10  1  0  0  0  0
  5 25  1  0  0  0  0
  5 26  1  0  0  0  0
  6 13  1  0  0  0  0
  6 14  1  0  0  0  0
  6 27  1  0  0  0  0
  7 12  1  0  0  0  0
  7 28  1  0  0  0  0
  7 29  1  0  0  0  0
  8  9  1  0  0  0  0
  8 10  1  0  0  0  0
  8 16  1  0  0  0  0
  8 17  1  0  0  0  0
  9 11  1  0  0  0  0
  9 18  1  0  0  0  0
  9 19  1  0  0  0  0
 10 13  1  0  0  0  0
 10 20  1  0  0  0  0
 11 12  1  0  0  0  0
 11 21  1  0  0  0  0
 11 22  1  0  0  0  0
 12 23  1  0  0  0  0
 12 24  1  0  0  0  0
 14 15  1  0  0  0  0
M  END
> <PUBCHEM_COMPOUND_CID>
129710133

> <PUBCHEM_CONFORMER_RMSD>
0.8

> <PUBCHEM_CONFORMER_DIVERSEORDER>
1
69
45
60
48
28
44
25
29
47
4
9
58
57
68
27
61
5
2
42
3
66
62
43
50
30
40
51
63
21
18
54
17
34
46
24
59
35
37
11
53
6
33
23
36
64
10
67
20
55
31
41
13
16
14
22
26
38
12
8
65
32
56
7
49
52
19
39
15

> <PUBCHEM_MMFF94_PARTIAL_CHARGES>
18
1 -0.57
10 0.33
12 0.27
13 0.57
14 0.63
15 0.72
2 -0.57
25 0.36
26 0.36
27 0.37
28 0.36
29 0.36
3 -0.65
30 0.5
4 -0.57
5 -0.99
6 -0.49
7 -0.99

> <PUBCHEM_EFFECTIVE_ROTOR_COUNT>
8

> <PUBCHEM_PHARMACOPHORE_FEATURES>
10
1 1 acceptor
1 2 acceptor
1 3 acceptor
1 4 acceptor
1 5 cation
1 5 donor
1 6 donor
1 7 cation
1 7 donor
3 3 4 15 anion

> <PUBCHEM_HEAVY_ATOM_COUNT>
15

> <PUBCHEM_ATOM_DEF_STEREO_COUNT>
1

> <PUBCHEM_ATOM_UDEF_STEREO_COUNT>
0

> <PUBCHEM_BOND_DEF_STEREO_COUNT>
0

> <PUBCHEM_BOND_UDEF_STEREO_COUNT>
0

> <PUBCHEM_ISOTOPIC_ATOM_COUNT>
0

> <PUBCHEM_COMPONENT_COUNT>
1

> <PUBCHEM_CACTVS_TAUTO_COUNT>
3

> <PUBCHEM_CONFORMER_ID>
07BB383500000001

> <PUBCHEM_MMFF94_ENERGY>
11.2464

> <PUBCHEM_FEATURE_SELFOVERLAP>
50.818

> <PUBCHEM_SHAPE_FINGERPRINT>
100836 57 18408044000781024085
10498660 4 18411974742102785797
10610426 29 12607406572251781723
10726558 24 18412827988452593119
12251169 10 13623533467396911171
12363563 72 9871465461023461533
12500047 106 18270398429391226918
12730499 353 18343027666586378163
12892183 10 13984934104836324245
14123255 52 18409726257855718285
1420 369 9655579621264159877
14252887 29 11746933161721176617
14341114 328 16226055491631281885
17834072 32 18336547204754553837
1798214 20 13398630537173166077
18186145 218 17988928902540330651
193927 3 10807934920384992789
200 152 15195298537990385354
20645477 56 18268715089678273394
20645477 70 17059794290065218566
20671657 53 12967126129574410403
20871999 31 18199183069475505335
212847 35 18410006611487392072
21501925 9 8142080966345753763
22218785 32 18060139834075647511
23253445 4 13334744539586163957
23402539 116 18343575270141349916
23402655 69 17847062181404591605
23557571 272 18200316657537286111
23559900 14 17917715738587071986
25 1 18273213088626384091
293599 30 18409449193536347885
3071541 37 18338797801972121291
4028521 119 18201720660845203057
449060 62 18336263440813033669
4990 188 17632574959438108359
56616090 163 18410582760313430223
76465 3 10735880560304133141
81539 233 18188205399613526675

> <PUBCHEM_SHAPE_MULTIPOLES>
270.27
10.28
1.98
1.05
6.74
1.13
0.09
-8.64
-2.25
0.87
-0.02
-0.95
-0.13
0.29

> <PUBCHEM_SHAPE_SELFOVERLAP>
520.766

> <PUBCHEM_SHAPE_VOLUME>
162.6

> <PUBCHEM_COORDINATE_TYPE>
2
5
10

$$$$
