129732821
  -OEChem-03292013293D

 35 37  0     0  0  0  0  0  0999 V2000
   -0.9212    1.9955   -0.1470 O   0  0  0  0  0  0  0  0  0  0  0  0
   -0.0391   -3.2738   -0.0622 O   0  0  0  0  0  0  0  0  0  0  0  0
   -3.2742    2.3427    1.1835 O   0  0  0  0  0  0  0  0  0  0  0  0
    5.0171   -1.7030    1.1242 O   0  0  0  0  0  0  0  0  0  0  0  0
    1.6015    3.1394    1.0502 O   0  0  0  0  0  0  0  0  0  0  0  0
    1.5499    3.2926   -1.2171 O   0  0  0  0  0  0  0  0  0  0  0  0
    0.6607    0.2597   -0.1402 C   0  0  0  0  0  0  0  0  0  0  0  0
   -1.8502   -0.1595   -0.0907 C   0  0  0  0  0  0  0  0  0  0  0  0
    0.8911   -1.1174   -0.1189 C   0  0  0  0  0  0  0  0  0  0  0  0
   -1.6198   -1.5367   -0.0691 C   0  0  0  0  0  0  0  0  0  0  0  0
   -0.7183    0.7890   -0.1276 C   0  0  0  0  0  0  0  0  0  0  0  0
   -0.2408   -2.0659   -0.0823 C   0  0  0  0  0  0  0  0  0  0  0  0
   -3.1621    0.3292   -0.0774 C   0  0  0  0  0  0  0  0  0  0  0  0
    1.7423    1.1482   -0.1736 C   0  0  0  0  0  0  0  0  0  0  0  0
    2.2029   -1.6062   -0.1312 C   0  0  0  0  0  0  0  0  0  0  0  0
    3.2779   -0.7174   -0.1643 C   0  0  0  0  0  0  0  0  0  0  0  0
    3.0480    0.6568   -0.1853 C   0  0  0  0  0  0  0  0  0  0  0  0
   -2.7013   -2.4251   -0.0343 C   0  0  0  0  0  0  0  0  0  0  0  0
   -4.2369   -0.5595   -0.0425 C   0  0  0  0  0  0  0  0  0  0  0  0
   -3.5192    1.7818   -0.0986 C   0  0  0  0  0  0  0  0  0  0  0  0
   -4.0070   -1.9338   -0.0211 C   0  0  0  0  0  0  0  0  0  0  0  0
    4.6752   -1.2392   -0.1760 C   0  0  0  0  0  0  0  0  0  0  0  0
    1.6237    2.6026   -0.1985 C   0  0  0  0  0  0  0  0  0  0  0  0
    2.3969   -2.6760   -0.1143 H   0  0  0  0  0  0  0  0  0  0  0  0
    3.8898    1.3460   -0.2094 H   0  0  0  0  0  0  0  0  0  0  0  0
   -2.5487   -3.5009   -0.0168 H   0  0  0  0  0  0  0  0  0  0  0  0
   -5.2641   -0.2039   -0.0286 H   0  0  0  0  0  0  0  0  0  0  0  0
   -3.0046    2.3387   -0.8876 H   0  0  0  0  0  0  0  0  0  0  0  0
   -4.5874    1.9179   -0.3083 H   0  0  0  0  0  0  0  0  0  0  0  0
   -4.8454   -2.6239    0.0066 H   0  0  0  0  0  0  0  0  0  0  0  0
    4.7691   -2.0680   -0.8866 H   0  0  0  0  0  0  0  0  0  0  0  0
    5.3927   -0.4655   -0.4699 H   0  0  0  0  0  0  0  0  0  0  0  0
   -3.5252    3.2810    1.1374 H   0  0  0  0  0  0  0  0  0  0  0  0
    5.9264   -2.0440    1.0751 H   0  0  0  0  0  0  0  0  0  0  0  0
    1.5209    4.1168    1.0263 H   0  0  0  0  0  0  0  0  0  0  0  0
  1 11  2  0  0  0  0
  2 12  2  0  0  0  0
  3 20  1  0  0  0  0
  3 33  1  0  0  0  0
  4 22  1  0  0  0  0
  4 34  1  0  0  0  0
  5 23  1  0  0  0  0
  5 35  1  0  0  0  0
  6 23  2  0  0  0  0
  7  9  2  0  0  0  0
  7 11  1  0  0  0  0
  7 14  1  0  0  0  0
  8 10  1  0  0  0  0
  8 11  1  0  0  0  0
  8 13  2  0  0  0  0
  9 12  1  0  0  0  0
  9 15  1  0  0  0  0
 10 12  1  0  0  0  0
 10 18  2  0  0  0  0
 13 19  1  0  0  0  0
 13 20  1  0  0  0  0
 14 17  2  0  0  0  0
 14 23  1  0  0  0  0
 15 16  2  0  0  0  0
 15 24  1  0  0  0  0
 16 17  1  0  0  0  0
 16 22  1  0  0  0  0
 17 25  1  0  0  0  0
 18 21  1  0  0  0  0
 18 26  1  0  0  0  0
 19 21  2  0  0  0  0
 19 27  1  0  0  0  0
 20 28  1  0  0  0  0
 20 29  1  0  0  0  0
 21 30  1  0  0  0  0
 22 31  1  0  0  0  0
 22 32  1  0  0  0  0
M  END
> <PUBCHEM_COMPOUND_CID>
129732821

> <PUBCHEM_CONFORMER_RMSD>
0.6

> <PUBCHEM_CONFORMER_DIVERSEORDER>
1
3
4
2

> <PUBCHEM_MMFF94_PARTIAL_CHARGES>
31
1 -0.57
10 0.09
11 0.4
12 0.4
13 -0.14
14 0.09
15 -0.15
16 -0.14
17 -0.15
18 -0.15
19 -0.15
2 -0.57
20 0.42
21 -0.15
22 0.42
23 0.63
24 0.15
25 0.15
26 0.15
27 0.15
3 -0.68
30 0.15
33 0.4
34 0.4
35 0.5
4 -0.68
5 -0.65
6 -0.57
7 0.09
8 0.09
9 0.09

> <PUBCHEM_EFFECTIVE_ROTOR_COUNT>
3

> <PUBCHEM_PHARMACOPHORE_FEATURES>
12
1 1 acceptor
1 2 acceptor
1 3 acceptor
1 3 donor
1 4 acceptor
1 4 donor
1 5 acceptor
1 6 acceptor
3 5 6 23 anion
6 7 8 9 10 11 12 rings
6 7 9 14 15 16 17 rings
6 8 10 13 18 19 21 rings

> <PUBCHEM_HEAVY_ATOM_COUNT>
23

> <PUBCHEM_ATOM_DEF_STEREO_COUNT>
0

> <PUBCHEM_ATOM_UDEF_STEREO_COUNT>
0

> <PUBCHEM_BOND_DEF_STEREO_COUNT>
0

> <PUBCHEM_BOND_UDEF_STEREO_COUNT>
0

> <PUBCHEM_ISOTOPIC_ATOM_COUNT>
0

> <PUBCHEM_COMPONENT_COUNT>
1

> <PUBCHEM_CACTVS_TAUTO_COUNT>
1

> <PUBCHEM_CONFORMER_ID>
07BB90D500000001

> <PUBCHEM_MMFF94_ENERGY>
79.57

> <PUBCHEM_FEATURE_SELFOVERLAP>
61.006

> <PUBCHEM_SHAPE_FINGERPRINT>
10062212 137 18409162190847277283
10493431 412 18054516807468775033
10616163 171 17905895025629881286
10675989 125 16533402754006287508
10967382 1 18122346783307664343
1100329 8 18341337690912088985
11680986 33 18119532278053227690
12236239 1 17822295639857253582
12403259 226 18337667615708737037
12403260 363 18411977001049686327
12553582 1 18264769861316017927
12633257 1 18339367370369724097
13140716 1 18411705400202737361
138480 1 18337672022377071620
14178342 30 18269837527773059745
14223421 5 18121784095178533907
14466204 15 18337103467380500978
14790565 3 18051144596495424716
14955137 171 18122655801656423955
15042514 8 18193270798338359466
15196674 1 18410293618513822694
15442244 35 18410576214371353118
15536298 74 18270119148699484958
16945 1 18338520716567745951
17492 89 18264770050348177547
17804303 29 18410295813073318974
19591789 44 18337955691987079447
20028762 73 18201716310228871615
20510252 161 18126571347763648521
20600515 1 18270687450594088108
20642791 178 18262533527854223812
20905425 154 17982179112268307404
21033648 29 17489287669263978954
21267235 1 18410020935219616071
21501502 16 18338242664321313093
221490 88 18263370354907801818
2334 1 18266462194769272909
23366157 5 17969782076253763884
23402539 116 18341603764394363558
23558518 356 18335706108439452315
23559900 14 18340199799255699272
2748010 2 18337109089624326271
3286 77 18335982055492741766
335352 9 18410010992649284015
34934 24 18120368766142239879
350125 39 18410299142084455845
4409770 3 17609479545935366444
5104073 3 18411138043433263042
59755656 215 18122906688314408964
7364860 26 18269556220616603916
7832392 63 18340207384283943079
9709674 26 18192151709790712339
9981440 41 17398106535856517704

> <PUBCHEM_SHAPE_MULTIPOLES>
438.11
7.81
3.7
0.78
1.41
1.46
0.07
-2.52
0.9
0.28
0.12
0.22
0.3
-0.66

> <PUBCHEM_SHAPE_SELFOVERLAP>
983.641

> <PUBCHEM_SHAPE_VOLUME>
227.8

> <PUBCHEM_COORDINATE_TYPE>
2
5
10

$$$$
