1297
  -OEChem-03292013323D

 24 24  0     1  0  0  0  0  0999 V2000
   -1.5932    2.1745   -0.3335 O   0  0  0  0  0  0  0  0  0  0  0  0
    2.8983   -0.8073   -1.7143 O   0  0  0  0  0  0  0  0  0  0  0  0
    3.9657    0.8755   -0.6444 O   0  0  0  0  0  0  0  0  0  0  0  0
   -3.7835   -1.2680   -0.6254 O   0  0  0  0  0  0  0  0  0  0  0  0
   -3.9799    0.8698    0.1216 O   0  0  0  0  0  0  0  0  0  0  0  0
    2.8833    0.3731    1.7697 N   0  0  0  0  0  0  0  0  0  0  0  0
    0.9291   -0.3528    0.4413 C   0  0  0  0  0  0  0  0  0  0  0  0
    2.4037   -0.4462    0.6428 C   0  0  1  0  0  0  0  0  0  0  0  0
    0.3418    0.8769    0.1439 C   0  0  0  0  0  0  0  0  0  0  0  0
    0.1368   -1.4956    0.5516 C   0  0  0  0  0  0  0  0  0  0  0  0
   -1.0377    0.9640   -0.0434 C   0  0  0  0  0  0  0  0  0  0  0  0
   -1.8300   -0.1787    0.0670 C   0  0  0  0  0  0  0  0  0  0  0  0
   -1.2428   -1.4084    0.3646 C   0  0  0  0  0  0  0  0  0  0  0  0
    3.1800   -0.0667   -0.6149 C   0  0  0  0  0  0  0  0  0  0  0  0
   -3.2717   -0.1102   -0.1265 C   0  0  0  0  0  0  0  0  0  0  0  0
    2.6974   -1.4788    0.8694 H   0  0  0  0  0  0  0  0  0  0  0  0
    0.9481    1.7748    0.0507 H   0  0  0  0  0  0  0  0  0  0  0  0
    0.5790   -2.4604    0.7855 H   0  0  0  0  0  0  0  0  0  0  0  0
   -1.8345   -2.3140    0.4696 H   0  0  0  0  0  0  0  0  0  0  0  0
    2.3869    0.1090    2.6199 H   0  0  0  0  0  0  0  0  0  0  0  0
    2.6754    1.3569    1.6050 H   0  0  0  0  0  0  0  0  0  0  0  0
   -2.5474    2.0860   -0.4853 H   0  0  0  0  0  0  0  0  0  0  0  0
    3.4028   -0.5046   -2.4993 H   0  0  0  0  0  0  0  0  0  0  0  0
   -4.7546   -1.2129   -0.7528 H   0  0  0  0  0  0  0  0  0  0  0  0
  1 11  1  0  0  0  0
  1 22  1  0  0  0  0
  2 14  1  0  0  0  0
  2 23  1  0  0  0  0
  3 14  2  0  0  0  0
  4 15  1  0  0  0  0
  4 24  1  0  0  0  0
  5 15  2  0  0  0  0
  6  8  1  0  0  0  0
  6 20  1  0  0  0  0
  6 21  1  0  0  0  0
  7  8  1  0  0  0  0
  7  9  2  0  0  0  0
  7 10  1  0  0  0  0
  8 14  1  0  0  0  0
  8 16  1  0  0  0  0
  9 11  1  0  0  0  0
  9 17  1  0  0  0  0
 10 13  2  0  0  0  0
 10 18  1  0  0  0  0
 11 12  2  0  0  0  0
 12 13  1  0  0  0  0
 12 15  1  0  0  0  0
 13 19  1  0  0  0  0
M  END
> <PUBCHEM_COMPOUND_CID>
1297

> <PUBCHEM_CONFORMER_RMSD>
0.6

> <PUBCHEM_CONFORMER_DIVERSEORDER>
3
16
9
12
11
2
13
8
7
15
17
10
4
6
5
14
1

> <PUBCHEM_MMFF94_PARTIAL_CHARGES>
23
1 -0.53
10 -0.15
11 0.08
12 0.09
13 -0.15
14 0.66
15 0.63
17 0.15
18 0.15
19 0.15
2 -0.65
20 0.36
21 0.36
22 0.45
23 0.5
24 0.5
3 -0.57
4 -0.65
5 -0.57
6 -0.99
7 -0.14
8 0.47
9 -0.15

> <PUBCHEM_EFFECTIVE_ROTOR_COUNT>
3

> <PUBCHEM_PHARMACOPHORE_FEATURES>
10
1 1 donor
1 2 acceptor
1 3 acceptor
1 4 acceptor
1 5 acceptor
1 6 cation
1 6 donor
3 2 3 14 anion
3 4 5 15 anion
6 7 9 10 11 12 13 rings

> <PUBCHEM_HEAVY_ATOM_COUNT>
15

> <PUBCHEM_ATOM_DEF_STEREO_COUNT>
0

> <PUBCHEM_ATOM_UDEF_STEREO_COUNT>
1

> <PUBCHEM_BOND_DEF_STEREO_COUNT>
0

> <PUBCHEM_BOND_UDEF_STEREO_COUNT>
0

> <PUBCHEM_ISOTOPIC_ATOM_COUNT>
0

> <PUBCHEM_COMPONENT_COUNT>
1

> <PUBCHEM_CACTVS_TAUTO_COUNT>
4

> <PUBCHEM_CONFORMER_ID>
0000051100000003

> <PUBCHEM_MMFF94_ENERGY>
40.2952

> <PUBCHEM_FEATURE_SELFOVERLAP>
50.864

> <PUBCHEM_SHAPE_FINGERPRINT>
11132069 177 18341323436073388777
11206711 2 18334570214186117901
11543360 7 16415181417314909529
12032990 46 18339083791138723747
12932764 1 18059565867346436891
13296908 3 17560796645532571059
13538477 17 17676483990695493858
13760787 5 17894906317764995715
14993402 34 18040435511884819727
15775835 57 17313107479526795766
16945 1 18334292071924596363
18186145 218 18060416898126031545
19026448 4 16917062282989652299
19026448 5 16081365250463019419
19786989 88 17059755824153284536
20279233 1 17847060004209652418
20559304 39 17968086487547341914
20645476 183 17313392274186717722
20645477 70 15841551851359939548
21501502 16 18192992612852670187
23402539 116 18410287017417971438
23557571 272 18194136328658409366
23559900 14 18412546505545006094
2748010 2 18047750691751713883
474 4 16661781053729856956
4990 188 18131073709886569215
537710 114 18040999552886632117
53812653 8 18187365402462042745
77492 1 17458060456465471770

> <PUBCHEM_SHAPE_MULTIPOLES>
274.37
6.61
1.51
1.07
0.32
0.23
0.01
0.49
1.27
0.78
0.03
-1.14
-0.12
-0.06

> <PUBCHEM_SHAPE_SELFOVERLAP>
580.571

> <PUBCHEM_SHAPE_VOLUME>
152.7

> <PUBCHEM_COORDINATE_TYPE>
2
5
10

$$$$
