129717745
  -OEChem-03292013293D

 39 38  0     1  0  0  0  0  0999 V2000
    1.7964   -0.1695   -1.7138 O   0  0  0  0  0  0  0  0  0  0  0  0
    2.8140   -2.1554   -0.2891 O   0  0  0  0  0  0  0  0  0  0  0  0
   -0.8118   -1.4094   -0.8379 O   0  0  0  0  0  0  0  0  0  0  0  0
    1.4667   -1.6793    1.4685 O   0  0  0  0  0  0  0  0  0  0  0  0
    0.3501    0.3982    0.0493 N   0  0  0  0  0  0  0  0  0  0  0  0
    2.4652    2.3350   -0.5378 N   0  0  0  0  0  0  0  0  0  0  0  0
    2.7755    1.0607    0.1401 C   0  0  0  0  0  0  0  0  0  0  0  0
    1.7175   -0.0081   -0.3018 C   0  0  2  0  0  0  0  0  0  0  0  0
    2.7577    1.3418    1.6545 C   0  0  0  0  0  0  0  0  0  0  0  0
    4.2067    0.6600   -0.2707 C   0  0  0  0  0  0  0  0  0  0  0  0
   -3.3383   -0.3922   -0.0839 C   0  0  0  0  0  0  0  0  0  0  0  0
   -4.6311    0.2777    0.4244 C   0  0  0  0  0  0  0  0  0  0  0  0
   -2.0520    0.3771    0.2212 C   0  0  0  0  0  0  0  0  0  0  0  0
   -0.7935   -0.3331   -0.2468 C   0  0  0  0  0  0  0  0  0  0  0  0
    1.9593   -1.3521    0.3954 C   0  0  0  0  0  0  0  0  0  0  0  0
   -5.8330   -0.6169    0.1084 C   0  0  0  0  0  0  0  0  0  0  0  0
   -4.8493    1.6655   -0.1800 C   0  0  0  0  0  0  0  0  0  0  0  0
    3.4801    2.1230    1.9221 H   0  0  0  0  0  0  0  0  0  0  0  0
    4.9249    1.4549   -0.0342 H   0  0  0  0  0  0  0  0  0  0  0  0
    4.5415   -0.2356    0.2629 H   0  0  0  0  0  0  0  0  0  0  0  0
    4.2831    0.4629   -1.3457 H   0  0  0  0  0  0  0  0  0  0  0  0
    3.0301    0.4492    2.2278 H   0  0  0  0  0  0  0  0  0  0  0  0
    1.7761    1.6765    2.0062 H   0  0  0  0  0  0  0  0  0  0  0  0
    0.2283    1.2949    0.5096 H   0  0  0  0  0  0  0  0  0  0  0  0
   -3.4108   -0.5478   -1.1687 H   0  0  0  0  0  0  0  0  0  0  0  0
   -3.2612   -1.3936    0.3599 H   0  0  0  0  0  0  0  0  0  0  0  0
   -4.5640    0.3843    1.5144 H   0  0  0  0  0  0  0  0  0  0  0  0
   -1.9687    0.5420    1.3021 H   0  0  0  0  0  0  0  0  0  0  0  0
   -2.0721    1.3570   -0.2687 H   0  0  0  0  0  0  0  0  0  0  0  0
    1.5529    2.6768   -0.2396 H   0  0  0  0  0  0  0  0  0  0  0  0
    3.1383    3.0493   -0.2616 H   0  0  0  0  0  0  0  0  0  0  0  0
    1.0655   -0.7489   -1.9858 H   0  0  0  0  0  0  0  0  0  0  0  0
   -4.8450    1.6271   -1.2745 H   0  0  0  0  0  0  0  0  0  0  0  0
   -4.0723    2.3659    0.1410 H   0  0  0  0  0  0  0  0  0  0  0  0
   -5.8108    2.0816    0.1399 H   0  0  0  0  0  0  0  0  0  0  0  0
   -5.9545   -0.7537   -0.9716 H   0  0  0  0  0  0  0  0  0  0  0  0
   -5.7131   -1.6053    0.5645 H   0  0  0  0  0  0  0  0  0  0  0  0
   -6.7573   -0.1797    0.5008 H   0  0  0  0  0  0  0  0  0  0  0  0
    2.9698   -3.0045    0.1766 H   0  0  0  0  0  0  0  0  0  0  0  0
  1  8  1  0  0  0  0
  1 32  1  0  0  0  0
  2 15  1  0  0  0  0
  2 39  1  0  0  0  0
  3 14  2  0  0  0  0
  4 15  2  0  0  0  0
  5  8  1  0  0  0  0
  5 14  1  0  0  0  0
  5 24  1  0  0  0  0
  6  7  1  0  0  0  0
  6 30  1  0  0  0  0
  6 31  1  0  0  0  0
  7  8  1  0  0  0  0
  7  9  1  0  0  0  0
  7 10  1  0  0  0  0
  8 15  1  0  0  0  0
  9 18  1  0  0  0  0
  9 22  1  0  0  0  0
  9 23  1  0  0  0  0
 10 19  1  0  0  0  0
 10 20  1  0  0  0  0
 10 21  1  0  0  0  0
 11 12  1  0  0  0  0
 11 13  1  0  0  0  0
 11 25  1  0  0  0  0
 11 26  1  0  0  0  0
 12 16  1  0  0  0  0
 12 17  1  0  0  0  0
 12 27  1  0  0  0  0
 13 14  1  0  0  0  0
 13 28  1  0  0  0  0
 13 29  1  0  0  0  0
 16 36  1  0  0  0  0
 16 37  1  0  0  0  0
 16 38  1  0  0  0  0
 17 33  1  0  0  0  0
 17 34  1  0  0  0  0
 17 35  1  0  0  0  0
M  END
> <PUBCHEM_COMPOUND_CID>
129717745

> <PUBCHEM_CONFORMER_RMSD>
0.8

> <PUBCHEM_CONFORMER_DIVERSEORDER>
2
52
68
47
64
65
70
48
23
19
57
10
3
73
58
27
54
72
66
18
12
24
29
11
38
34
45
9
31
8
35
61
69
22
39
56
59
20
50
6
63
67
41
55
62
53
33
49
51
44
13
16
21
15
37
60
71
7
36
30
42
28
40
1
26
17
74
25
5
46
4
43
32
14

> <PUBCHEM_MMFF94_PARTIAL_CHARGES>
16
1 -0.68
13 0.06
14 0.57
15 0.66
2 -0.65
24 0.37
3 -0.57
30 0.36
31 0.36
32 0.4
39 0.5
4 -0.57
5 -0.73
6 -0.99
7 0.27
8 0.64

> <PUBCHEM_EFFECTIVE_ROTOR_COUNT>
7

> <PUBCHEM_PHARMACOPHORE_FEATURES>
11
1 1 acceptor
1 1 donor
1 2 acceptor
1 3 acceptor
1 4 acceptor
1 5 donor
1 6 cation
1 6 donor
3 12 16 17 hydrophobe
3 2 4 15 anion
3 7 9 10 hydrophobe

> <PUBCHEM_HEAVY_ATOM_COUNT>
17

> <PUBCHEM_ATOM_DEF_STEREO_COUNT>
1

> <PUBCHEM_ATOM_UDEF_STEREO_COUNT>
0

> <PUBCHEM_BOND_DEF_STEREO_COUNT>
0

> <PUBCHEM_BOND_UDEF_STEREO_COUNT>
0

> <PUBCHEM_ISOTOPIC_ATOM_COUNT>
0

> <PUBCHEM_COMPONENT_COUNT>
1

> <PUBCHEM_CACTVS_TAUTO_COUNT>
2

> <PUBCHEM_CONFORMER_ID>
07BB55F100000002

> <PUBCHEM_MMFF94_ENERGY>
28.9289

> <PUBCHEM_FEATURE_SELFOVERLAP>
55.934

> <PUBCHEM_SHAPE_FINGERPRINT>
10366900 7 17749392589516664121
10980938 120 18412260649068657225
12670546 56 18186796942803961445
13167823 11 18410291402907063147
13533116 47 18410291372858227123
13675066 3 18040720251659017901
13955234 65 17203613683295271886
14252887 29 15719389512444200464
14289901 80 18333734645779074721
15239154 128 18410013213495892425
16945 1 18341602742497679820
17834072 33 18413387657457000271
18186145 218 18272378542458461149
20279233 1 17022908951849674563
20645477 70 18340207397390716039
21452121 103 18343292661298508984
21730867 7 18260829297736638978
23048698 100 18412266112562411627
231179 274 18342458153316150208
23402539 116 17917987295540362620
23402655 69 17846781801792383917
23559900 14 18410293567058604643
3060560 45 16774082886209748572
3545911 37 18413110580373566529
4047638 21 17846780745282994800
449060 62 18341615940273057157
474 4 18190181367705335748
5104073 3 18411421670821585251
522135 26 18343303643493013183
5374978 207 18413386519337977529
633830 44 18266735964722542804
7364860 26 18272089362252678590
77779 3 18409450267800099441
90127 26 18335431127907064825
9999458 23 18187648050502999620

> <PUBCHEM_SHAPE_MULTIPOLES>
316.41
10.28
1.87
1.09
15.18
0.01
-0.15
2.28
-0.48
-1.27
-0.08
-0.89
0
0.08

> <PUBCHEM_SHAPE_SELFOVERLAP>
612.074

> <PUBCHEM_SHAPE_VOLUME>
190.6

> <PUBCHEM_COORDINATE_TYPE>
2
5
10

$$$$
