129736040
  -OEChem-03292013293D

 68 70  0     1  0  0  0  0  0999 V2000
    0.5598   -1.5755    0.8567 O   0  0  0  0  0  0  0  0  0  0  0  0
   -0.5007    3.3980    1.7832 O   0  0  0  0  0  0  0  0  0  0  0  0
   -0.6210    3.8343   -1.0430 O   0  0  0  0  0  0  0  0  0  0  0  0
    1.8966    0.4596   -2.0611 O   0  0  0  0  0  0  0  0  0  0  0  0
   -2.8572    1.9787    0.1261 O   0  0  0  0  0  0  0  0  0  0  0  0
   -2.6157   -1.3283    2.5185 O   0  0  0  0  0  0  0  0  0  0  0  0
    3.5325    0.3516    1.8679 O   0  0  0  0  0  0  0  0  0  0  0  0
    0.3578   -3.4707   -0.4286 O   0  0  0  0  0  0  0  0  0  0  0  0
   -0.4910    0.5532    1.2274 C   0  0  1  0  0  0  0  0  0  0  0  0
    0.8134    1.4101    1.2963 C   0  0  2  0  0  0  0  0  0  0  0  0
   -0.1635    1.4371   -1.1563 C   0  0  1  0  0  0  0  0  0  0  0  0
   -1.0162    0.5105   -0.2419 C   0  0  2  0  0  0  0  0  0  0  0  0
    0.4777    2.8761    0.8931 C   0  0  1  0  0  0  0  0  0  0  0  0
   -0.2859   -0.8637    1.7768 C   0  0  1  0  0  0  0  0  0  0  0  0
   -0.1477    2.8356   -0.5066 C   0  0  0  0  0  0  0  0  0  0  0  0
    1.8091    0.8433    0.3050 C   0  0  0  0  0  0  0  0  0  0  0  0
    1.2647    0.8630   -1.0932 C   0  0  0  0  0  0  0  0  0  0  0  0
   -0.6640    1.4831   -2.5986 C   0  0  0  0  0  0  0  0  0  0  0  0
   -2.4718    0.8833   -0.2759 C   0  0  0  0  0  0  0  0  0  0  0  0
    1.6928    3.8034    0.9099 C   0  0  0  0  0  0  0  0  0  0  0  0
   -1.5283   -1.6684    1.7638 C   0  0  0  0  0  0  0  0  0  0  0  0
    0.4018   -0.8376    3.1375 C   0  0  0  0  0  0  0  0  0  0  0  0
    3.0284    0.3711    0.5795 C   0  0  0  0  0  0  0  0  0  0  0  0
   -1.4470   -2.7252    0.9556 C   0  0  0  0  0  0  0  0  0  0  0  0
   -0.0994   -2.6689    0.3681 C   0  0  0  0  0  0  0  0  0  0  0  0
   -3.4133   -0.1515   -0.7871 C   0  0  0  0  0  0  0  0  0  0  0  0
    3.9126   -0.1549   -0.4468 C   0  0  0  0  0  0  0  0  0  0  0  0
   -2.4316   -3.7836    0.6440 C   0  0  0  0  0  0  0  0  0  0  0  0
   -4.7283    0.0966   -0.8518 C   0  0  0  0  0  0  0  0  0  0  0  0
    5.1465   -0.6435   -0.2407 C   0  0  0  0  0  0  0  0  0  0  0  0
   -5.6825   -0.8747   -1.3390 C   0  0  0  0  0  0  0  0  0  0  0  0
    5.9780   -1.1545   -1.3089 C   0  0  0  0  0  0  0  0  0  0  0  0
   -7.0007   -0.6377   -1.4084 C   0  0  0  0  0  0  0  0  0  0  0  0
    7.2108   -1.6436   -1.1093 C   0  0  0  0  0  0  0  0  0  0  0  0
   -7.9957   -1.6325   -1.9096 C   0  0  0  0  0  0  0  0  0  0  0  0
    8.0786   -2.1739   -2.2029 C   0  0  0  0  0  0  0  0  0  0  0  0
   -1.2356    1.0357    1.8766 H   0  0  0  0  0  0  0  0  0  0  0  0
    1.1725    1.4440    2.3267 H   0  0  0  0  0  0  0  0  0  0  0  0
   -0.9259   -0.4865   -0.6807 H   0  0  0  0  0  0  0  0  0  0  0  0
   -0.7124    0.4791   -3.0347 H   0  0  0  0  0  0  0  0  0  0  0  0
    0.0071    2.0813   -3.2261 H   0  0  0  0  0  0  0  0  0  0  0  0
   -1.6588    1.9348   -2.6741 H   0  0  0  0  0  0  0  0  0  0  0  0
    2.1689    3.7985    1.8966 H   0  0  0  0  0  0  0  0  0  0  0  0
    1.3953    4.8401    0.7124 H   0  0  0  0  0  0  0  0  0  0  0  0
    2.4394    3.5308    0.1575 H   0  0  0  0  0  0  0  0  0  0  0  0
    1.4661   -0.6068    3.0746 H   0  0  0  0  0  0  0  0  0  0  0  0
    0.3625   -1.8306    3.6042 H   0  0  0  0  0  0  0  0  0  0  0  0
   -0.0838   -0.1389    3.8273 H   0  0  0  0  0  0  0  0  0  0  0  0
   -0.6809    4.3196    1.5306 H   0  0  0  0  0  0  0  0  0  0  0  0
   -3.0020   -1.0986   -1.1179 H   0  0  0  0  0  0  0  0  0  0  0  0
   -3.3232   -1.9745    2.3625 H   0  0  0  0  0  0  0  0  0  0  0  0
    3.6414   -0.2007   -1.4844 H   0  0  0  0  0  0  0  0  0  0  0  0
   -2.6450   -3.7977   -0.4297 H   0  0  0  0  0  0  0  0  0  0  0  0
   -3.3817   -3.6469    1.1668 H   0  0  0  0  0  0  0  0  0  0  0  0
   -2.0355   -4.7644    0.9258 H   0  0  0  0  0  0  0  0  0  0  0  0
    2.9792    0.8897    2.4526 H   0  0  0  0  0  0  0  0  0  0  0  0
   -5.1261    1.0544   -0.5263 H   0  0  0  0  0  0  0  0  0  0  0  0
    5.5689   -0.6695    0.7608 H   0  0  0  0  0  0  0  0  0  0  0  0
   -5.2938   -1.8381   -1.6598 H   0  0  0  0  0  0  0  0  0  0  0  0
    5.5710   -1.1351   -2.3168 H   0  0  0  0  0  0  0  0  0  0  0  0
   -7.3993    0.3225   -1.0898 H   0  0  0  0  0  0  0  0  0  0  0  0
    7.6311   -1.6695   -0.1067 H   0  0  0  0  0  0  0  0  0  0  0  0
   -8.5280   -1.2236   -2.7738 H   0  0  0  0  0  0  0  0  0  0  0  0
   -8.7282   -1.8531   -1.1271 H   0  0  0  0  0  0  0  0  0  0  0  0
   -7.5260   -2.5738   -2.2123 H   0  0  0  0  0  0  0  0  0  0  0  0
    7.5939   -2.1175   -3.1827 H   0  0  0  0  0  0  0  0  0  0  0  0
    8.3280   -3.2210   -2.0057 H   0  0  0  0  0  0  0  0  0  0  0  0
    9.0100   -1.6014   -2.2498 H   0  0  0  0  0  0  0  0  0  0  0  0
  1 14  1  0  0  0  0
  1 25  1  0  0  0  0
  2 13  1  0  0  0  0
  2 49  1  0  0  0  0
  3 15  2  0  0  0  0
  4 17  2  0  0  0  0
  5 19  2  0  0  0  0
  6 21  1  0  0  0  0
  6 51  1  0  0  0  0
  7 23  1  0  0  0  0
  7 56  1  0  0  0  0
  8 25  2  0  0  0  0
  9 10  1  0  0  0  0
  9 12  1  0  0  0  0
  9 14  1  0  0  0  0
  9 37  1  0  0  0  0
 10 13  1  0  0  0  0
 10 16  1  0  0  0  0
 10 38  1  0  0  0  0
 11 12  1  0  0  0  0
 11 15  1  0  0  0  0
 11 17  1  0  0  0  0
 11 18  1  0  0  0  0
 12 19  1  0  0  0  0
 12 39  1  0  0  0  0
 13 15  1  0  0  0  0
 13 20  1  0  0  0  0
 14 21  1  0  0  0  0
 14 22  1  0  0  0  0
 16 17  1  0  0  0  0
 16 23  2  0  0  0  0
 18 40  1  0  0  0  0
 18 41  1  0  0  0  0
 18 42  1  0  0  0  0
 19 26  1  0  0  0  0
 20 43  1  0  0  0  0
 20 44  1  0  0  0  0
 20 45  1  0  0  0  0
 21 24  2  0  0  0  0
 22 46  1  0  0  0  0
 22 47  1  0  0  0  0
 22 48  1  0  0  0  0
 23 27  1  0  0  0  0
 24 25  1  0  0  0  0
 24 28  1  0  0  0  0
 26 29  2  0  0  0  0
 26 50  1  0  0  0  0
 27 30  2  0  0  0  0
 27 52  1  0  0  0  0
 28 53  1  0  0  0  0
 28 54  1  0  0  0  0
 28 55  1  0  0  0  0
 29 31  1  0  0  0  0
 29 57  1  0  0  0  0
 30 32  1  0  0  0  0
 30 58  1  0  0  0  0
 31 33  2  0  0  0  0
 31 59  1  0  0  0  0
 32 34  2  0  0  0  0
 32 60  1  0  0  0  0
 33 35  1  0  0  0  0
 33 61  1  0  0  0  0
 34 36  1  0  0  0  0
 34 62  1  0  0  0  0
 35 63  1  0  0  0  0
 35 64  1  0  0  0  0
 35 65  1  0  0  0  0
 36 66  1  0  0  0  0
 36 67  1  0  0  0  0
 36 68  1  0  0  0  0
M  END
> <PUBCHEM_COMPOUND_CID>
129736040

> <PUBCHEM_CONFORMER_RMSD>
1

> <PUBCHEM_CONFORMER_DIVERSEORDER>
1
26
21
9
17
13
27
25
16
5
20
12
18
2
7
10
15
19
3
24
22
11
14
23
6
4
8

> <PUBCHEM_MMFF94_PARTIAL_CHARGES>
43
1 -0.43
10 0.14
11 0.12
12 0.06
13 0.34
14 0.42
15 0.45
16 -0.12
17 0.49
19 0.49
2 -0.68
21 -0.06
23 0.08
24 -0.12
25 0.71
26 -0.14
27 -0.15
28 0.14
29 -0.15
3 -0.57
30 -0.15
31 -0.15
32 -0.15
33 -0.29
34 -0.29
35 0.14
36 0.14
4 -0.57
49 0.4
5 -0.57
50 0.15
51 0.45
52 0.15
56 0.45
57 0.15
58 0.15
59 0.15
6 -0.53
60 0.15
61 0.15
62 0.15
7 -0.53
8 -0.57

> <PUBCHEM_EFFECTIVE_ROTOR_COUNT>
7

> <PUBCHEM_PHARMACOPHORE_FEATURES>
12
1 2 acceptor
1 2 donor
1 3 acceptor
1 35 hydrophobe
1 36 hydrophobe
1 4 acceptor
1 5 acceptor
1 6 donor
1 7 donor
1 8 acceptor
5 1 14 21 24 25 rings
8 9 10 11 12 13 15 16 17 rings

> <PUBCHEM_HEAVY_ATOM_COUNT>
36

> <PUBCHEM_ATOM_DEF_STEREO_COUNT>
5

> <PUBCHEM_ATOM_UDEF_STEREO_COUNT>
1

> <PUBCHEM_BOND_DEF_STEREO_COUNT>
5

> <PUBCHEM_BOND_UDEF_STEREO_COUNT>
0

> <PUBCHEM_ISOTOPIC_ATOM_COUNT>
0

> <PUBCHEM_COMPONENT_COUNT>
1

> <PUBCHEM_CACTVS_TAUTO_COUNT>
1001

> <PUBCHEM_CONFORMER_ID>
07BB9D6800000001

> <PUBCHEM_MMFF94_ENERGY>
98.5659

> <PUBCHEM_FEATURE_SELFOVERLAP>
60.9

> <PUBCHEM_SHAPE_FINGERPRINT>
10076449 9 18337124418610837114
10162869 55 10879989204247633181
10483366 6 18409729543379781447
10930396 42 18193809696865086904
11578080 2 17901382617003903301
12788726 201 18263078825813298712
13383665 225 16661473006291243975
14068700 675 17775287161775770616
15927050 60 17765161565917012032
17492 54 17458060439285628441
19958102 18 18042133068483179902
20775438 99 17839435015161094774
21307412 95 18411426123896458558
21344244 181 18341325669293553991
22899556 105 18270964510355579102
23559900 14 18335989740165420316
23576562 1 16951136204322363887
469060 322 14333132966296269534
484989 97 18042411395127575819
563151 40 18050858718892197689
57527306 92 14779264215501940622
58260988 647 17846779615501159794

> <PUBCHEM_SHAPE_MULTIPOLES>
693.91
13.45
4.14
2.47
3.7
1.24
0.57
-12.94
-13.88
0.14
0.69
0.01
-0.43
1.76

> <PUBCHEM_SHAPE_SELFOVERLAP>
1489.222

> <PUBCHEM_SHAPE_VOLUME>
378.3

> <PUBCHEM_COORDINATE_TYPE>
2
5
10

$$$$
