129761
  -OEChem-03292013323D

 34 36  0     0  0  0  0  0  0999 V2000
    5.4795    0.5629    0.4647 S   0  0  0  0  0  0  0  0  0  0  0  0
    4.6199   -0.2305   -0.6912 O   0  0  0  0  0  0  0  0  0  0  0  0
    7.0041    0.5699   -0.1186 O   0  0  0  0  0  0  0  0  0  0  0  0
    5.0215    1.9384    0.5328 O   0  0  0  0  0  0  0  0  0  0  0  0
    5.4766   -0.2614    1.6594 O   0  0  0  0  0  0  0  0  0  0  0  0
   -4.1640    1.1921    0.1035 N   0  0  0  0  0  0  0  0  0  0  0  0
   -5.0016   -0.8684    0.2203 N   0  0  0  0  0  0  0  0  0  0  0  0
   -2.8914   -2.0555    0.0453 N   0  0  0  0  0  0  0  0  0  0  0  0
   -6.4985    1.0101    0.3253 N   0  0  0  0  0  0  0  0  0  0  0  0
   -3.0874    0.3519    0.0187 C   0  0  0  0  0  0  0  0  0  0  0  0
   -0.9404   -0.5959   -0.1640 C   0  0  0  0  0  0  0  0  0  0  0  0
   -1.7184    0.5576   -0.1129 C   0  0  0  0  0  0  0  0  0  0  0  0
   -3.6364   -0.9231    0.0939 C   0  0  0  0  0  0  0  0  0  0  0  0
    0.4957   -0.5016   -0.3003 C   0  0  0  0  0  0  0  0  0  0  0  0
   -5.2855    0.4159    0.2229 C   0  0  0  0  0  0  0  0  0  0  0  0
   -1.5611   -1.8379   -0.0827 C   0  0  0  0  0  0  0  0  0  0  0  0
   -4.1094    2.6372    0.0724 C   0  0  0  0  0  0  0  0  0  0  0  0
    1.0632    0.5762   -0.9805 C   0  0  0  0  0  0  0  0  0  0  0  0
    1.3155   -1.4884    0.2486 C   0  0  0  0  0  0  0  0  0  0  0  0
    2.4488    0.6673   -1.1120 C   0  0  0  0  0  0  0  0  0  0  0  0
    2.7013   -1.3974    0.1173 C   0  0  0  0  0  0  0  0  0  0  0  0
    3.2681   -0.3194   -0.5630 C   0  0  0  0  0  0  0  0  0  0  0  0
   -1.3078    1.5591   -0.1422 H   0  0  0  0  0  0  0  0  0  0  0  0
   -1.0020   -2.7678   -0.1500 H   0  0  0  0  0  0  0  0  0  0  0  0
   -3.0800    2.9805   -0.0417 H   0  0  0  0  0  0  0  0  0  0  0  0
   -4.7035    2.9864   -0.7762 H   0  0  0  0  0  0  0  0  0  0  0  0
   -4.5172    3.0174    1.0128 H   0  0  0  0  0  0  0  0  0  0  0  0
    0.4640    1.3524   -1.4486 H   0  0  0  0  0  0  0  0  0  0  0  0
    0.9209   -2.3297    0.8118 H   0  0  0  0  0  0  0  0  0  0  0  0
    2.8836    1.5052   -1.6501 H   0  0  0  0  0  0  0  0  0  0  0  0
    3.3338   -2.1671    0.5511 H   0  0  0  0  0  0  0  0  0  0  0  0
   -6.6297    2.0164    0.3199 H   0  0  0  0  0  0  0  0  0  0  0  0
   -7.3467    0.4598    0.4152 H   0  0  0  0  0  0  0  0  0  0  0  0
    7.3258   -0.2948   -0.4665 H   0  0  0  0  0  0  0  0  0  0  0  0
  1  2  1  0  0  0  0
  1  3  1  0  0  0  0
  1  4  2  0  0  0  0
  1  5  2  0  0  0  0
  2 22  1  0  0  0  0
  3 34  1  0  0  0  0
  6 10  1  0  0  0  0
  6 15  1  0  0  0  0
  6 17  1  0  0  0  0
  7 13  1  0  0  0  0
  7 15  2  0  0  0  0
  8 13  1  0  0  0  0
  8 16  2  0  0  0  0
  9 15  1  0  0  0  0
  9 32  1  0  0  0  0
  9 33  1  0  0  0  0
 10 12  1  0  0  0  0
 10 13  2  0  0  0  0
 11 12  2  0  0  0  0
 11 14  1  0  0  0  0
 11 16  1  0  0  0  0
 12 23  1  0  0  0  0
 14 18  2  0  0  0  0
 14 19  1  0  0  0  0
 16 24  1  0  0  0  0
 17 25  1  0  0  0  0
 17 26  1  0  0  0  0
 17 27  1  0  0  0  0
 18 20  1  0  0  0  0
 18 28  1  0  0  0  0
 19 21  2  0  0  0  0
 19 29  1  0  0  0  0
 20 22  2  0  0  0  0
 20 30  1  0  0  0  0
 21 22  1  0  0  0  0
 21 31  1  0  0  0  0
M  END
> <PUBCHEM_COMPOUND_CID>
129761

> <PUBCHEM_CONFORMER_RMSD>
0.6

> <PUBCHEM_CONFORMER_DIVERSEORDER>
1
8
5
4
2
7
6
3

> <PUBCHEM_MMFF94_PARTIAL_CHARGES>
29
1 1.67
10 -0.15
12 -0.15
13 0.48
15 0.27
16 0.16
17 0.26
18 -0.15
19 -0.15
2 -0.27
20 -0.15
21 -0.15
22 0.08
23 0.15
24 0.15
28 0.15
29 0.15
3 -0.68
30 0.15
31 0.15
32 0.4
33 0.4
34 0.5
4 -0.65
5 -0.65
6 0.05
7 -0.57
8 -0.57
9 -0.88

> <PUBCHEM_EFFECTIVE_ROTOR_COUNT>
3

> <PUBCHEM_PHARMACOPHORE_FEATURES>
10
1 3 acceptor
1 4 acceptor
1 5 acceptor
1 8 acceptor
1 9 donor
4 1 3 4 5 anion
4 6 7 9 15 cation
5 6 7 10 13 15 rings
6 14 18 19 20 21 22 rings
6 8 10 11 12 13 16 rings

> <PUBCHEM_HEAVY_ATOM_COUNT>
22

> <PUBCHEM_ATOM_DEF_STEREO_COUNT>
0

> <PUBCHEM_ATOM_UDEF_STEREO_COUNT>
0

> <PUBCHEM_BOND_DEF_STEREO_COUNT>
0

> <PUBCHEM_BOND_UDEF_STEREO_COUNT>
0

> <PUBCHEM_ISOTOPIC_ATOM_COUNT>
0

> <PUBCHEM_COMPONENT_COUNT>
1

> <PUBCHEM_CACTVS_TAUTO_COUNT>
3

> <PUBCHEM_CONFORMER_ID>
0001FAE100000001

> <PUBCHEM_MMFF94_ENERGY>
57.4119

> <PUBCHEM_FEATURE_SELFOVERLAP>
50.933

> <PUBCHEM_SHAPE_FINGERPRINT>
10 15 18261116295862074392
10366900 7 13470690338740135063
10411042 1 17907298007717575671
11045977 3 18201155550807886760
11089746 13 18273208716460251828
11128504 68 12751235926444151762
11595378 159 17531514400148460000
12107183 9 17613151867516448331
12236239 1 18040434403688441603
12507557 5 18187368731636859685
12596602 18 17676205805363168696
12616971 3 17095244760488562230
12633257 1 16660368107835512934
12969540 114 16702012076324984708
13073987 5 18335704897306420443
13403585 85 18413106181915956145
13533116 47 17988364750539820550
13668630 136 13551187767359060352
13685833 64 11386365941801351828
14251764 18 17894634781078851030
14466204 15 18335419041299771272
14739800 52 18342160160237949016
15048467 5 18413952784457498882
15188451 53 16081946965677242331
15196674 1 18336830788512617079
15209294 21 18335419067132430310
16079462 125 17774995795858570936
17980427 23 18337670926822528997
1813 80 16370730288371260014
19489759 90 18413389843252241691
20281389 69 18408041784187548104
20645477 56 18343584049028187407
20645477 70 16558200297850914638
21033648 29 17916854825003204050
21150785 3 15410888578841325037
21267235 1 18262252070268190399
21315764 268 18409161130075004692
21623969 137 14273452570478289336
21641784 216 15338856273665685256
21859007 373 17315339346334093917
220451 1 17530683230141277898
23402539 116 18413668024337280855
23559900 14 18272650168621501048
25147074 1 17750805530682997822
2916195 48 18272647965419394208
29717793 49 8574710191577622755
300161 21 18409727344482587167
33382 64 12757141364716201336
34797466 226 17703518778372705100
34934 24 18412260636010019903
3545911 37 18411986849267134870
4073 2 18187090598329724554
4214541 1 18408327674786005325
441001 317 18343303660672908465
465052 167 13045936898750685280
5104073 3 18261961734731594811
542803 24 18202563977467862462
653340 110 18192429662889589436
67856867 119 18188776183175976084
7970288 3 8068297104973029073
9981440 41 18334020467358167587

> <PUBCHEM_SHAPE_MULTIPOLES>
413.2
15.37
1.9
0.87
7.14
0.31
0.05
6.07
3.35
-1.5
0.14
0.97
0.07
-0.04

> <PUBCHEM_SHAPE_SELFOVERLAP>
901.381

> <PUBCHEM_SHAPE_VOLUME>
229

> <PUBCHEM_COORDINATE_TYPE>
2
5
10

$$$$
