129769
  -OEChem-03292013323D

 30 32  0     0  0  0  0  0  0999 V2000
    3.1266    1.4188   -0.3540 S   0  0  0  0  0  0  0  0  0  0  0  0
    2.1634    0.9104    0.8722 O   0  0  0  0  0  0  0  0  0  0  0  0
    4.5356    1.7927    0.3806 O   0  0  0  0  0  0  0  0  0  0  0  0
    3.3745    0.3090   -1.2560 O   0  0  0  0  0  0  0  0  0  0  0  0
    2.5629    2.6550   -0.8646 O   0  0  0  0  0  0  0  0  0  0  0  0
   -2.6344    1.3970    0.0990 N   0  0  0  0  0  0  0  0  0  0  0  0
   -2.9597   -0.7629   -0.3032 N   0  0  0  0  0  0  0  0  0  0  0  0
    1.8226   -1.7740    0.3827 N   0  0  0  0  0  0  0  0  0  0  0  0
   -4.8359    0.7365   -0.3946 N   0  0  0  0  0  0  0  0  0  0  0  0
   -1.4016    0.8105    0.2234 C   0  0  0  0  0  0  0  0  0  0  0  0
   -1.6272   -0.5376   -0.0315 C   0  0  0  0  0  0  0  0  0  0  0  0
   -0.5276   -1.4315    0.0207 C   0  0  0  0  0  0  0  0  0  0  0  0
    0.7636   -0.9456    0.3268 C   0  0  0  0  0  0  0  0  0  0  0  0
   -0.1454    1.3266    0.5280 C   0  0  0  0  0  0  0  0  0  0  0  0
    0.9210    0.4169    0.5717 C   0  0  0  0  0  0  0  0  0  0  0  0
   -3.5324    0.4163   -0.2161 C   0  0  0  0  0  0  0  0  0  0  0  0
   -0.7023   -2.8024   -0.2282 C   0  0  0  0  0  0  0  0  0  0  0  0
   -2.9173    2.8050    0.2745 C   0  0  0  0  0  0  0  0  0  0  0  0
    0.3933   -3.6497   -0.1689 C   0  0  0  0  0  0  0  0  0  0  0  0
    1.6202   -3.0911    0.1373 C   0  0  0  0  0  0  0  0  0  0  0  0
    0.0133    2.3805    0.7277 H   0  0  0  0  0  0  0  0  0  0  0  0
   -1.6805   -3.2115   -0.4666 H   0  0  0  0  0  0  0  0  0  0  0  0
   -3.6352    2.9124    1.0919 H   0  0  0  0  0  0  0  0  0  0  0  0
   -2.0072    3.3550    0.5180 H   0  0  0  0  0  0  0  0  0  0  0  0
   -3.3343    3.1913   -0.6594 H   0  0  0  0  0  0  0  0  0  0  0  0
    0.2913   -4.7122   -0.3560 H   0  0  0  0  0  0  0  0  0  0  0  0
    2.5106   -3.7090    0.1966 H   0  0  0  0  0  0  0  0  0  0  0  0
   -5.5233    0.0275   -0.6288 H   0  0  0  0  0  0  0  0  0  0  0  0
   -5.1962    1.6812   -0.3069 H   0  0  0  0  0  0  0  0  0  0  0  0
    4.4524    2.3354    1.1996 H   0  0  0  0  0  0  0  0  0  0  0  0
  1  2  1  0  0  0  0
  1  3  1  0  0  0  0
  1  4  2  0  0  0  0
  1  5  2  0  0  0  0
  2 15  1  0  0  0  0
  3 30  1  0  0  0  0
  6 10  1  0  0  0  0
  6 16  1  0  0  0  0
  6 18  1  0  0  0  0
  7 11  1  0  0  0  0
  7 16  2  0  0  0  0
  8 13  1  0  0  0  0
  8 20  2  0  0  0  0
  9 16  1  0  0  0  0
  9 28  1  0  0  0  0
  9 29  1  0  0  0  0
 10 11  1  0  0  0  0
 10 14  2  0  0  0  0
 11 12  2  0  0  0  0
 12 13  1  0  0  0  0
 12 17  1  0  0  0  0
 13 15  2  0  0  0  0
 14 15  1  0  0  0  0
 14 21  1  0  0  0  0
 17 19  2  0  0  0  0
 17 22  1  0  0  0  0
 18 23  1  0  0  0  0
 18 24  1  0  0  0  0
 18 25  1  0  0  0  0
 19 20  1  0  0  0  0
 19 26  1  0  0  0  0
 20 27  1  0  0  0  0
M  END
> <PUBCHEM_COMPOUND_CID>
129769

> <PUBCHEM_CONFORMER_RMSD>
0.6

> <PUBCHEM_CONFORMER_DIVERSEORDER>
1
2
4
3

> <PUBCHEM_MMFF94_PARTIAL_CHARGES>
26
1 1.67
10 -0.15
11 0.23
13 0.31
14 -0.15
15 0.08
16 0.27
17 -0.15
18 0.26
19 -0.15
2 -0.27
20 0.16
21 0.15
22 0.15
26 0.15
27 0.15
28 0.4
29 0.4
3 -0.68
30 0.5
4 -0.65
5 -0.65
6 0.05
7 -0.57
8 -0.62
9 -0.88

> <PUBCHEM_EFFECTIVE_ROTOR_COUNT>
2

> <PUBCHEM_PHARMACOPHORE_FEATURES>
10
1 3 acceptor
1 4 acceptor
1 5 acceptor
1 8 acceptor
1 9 donor
4 1 3 4 5 anion
4 6 7 9 16 cation
5 6 7 10 11 16 rings
6 10 11 12 13 14 15 rings
6 8 12 13 17 19 20 rings

> <PUBCHEM_HEAVY_ATOM_COUNT>
20

> <PUBCHEM_ATOM_DEF_STEREO_COUNT>
0

> <PUBCHEM_ATOM_UDEF_STEREO_COUNT>
0

> <PUBCHEM_BOND_DEF_STEREO_COUNT>
0

> <PUBCHEM_BOND_UDEF_STEREO_COUNT>
0

> <PUBCHEM_ISOTOPIC_ATOM_COUNT>
0

> <PUBCHEM_COMPONENT_COUNT>
1

> <PUBCHEM_CACTVS_TAUTO_COUNT>
3

> <PUBCHEM_CONFORMER_ID>
0001FAE900000001

> <PUBCHEM_MMFF94_ENERGY>
46.6596

> <PUBCHEM_FEATURE_SELFOVERLAP>
50.938

> <PUBCHEM_SHAPE_FINGERPRINT>
10411042 1 17402048899391566763
10967382 1 18340200791672752091
11370993 70 18410855503479041012
12173636 292 18338795740081942405
12592029 89 18408611352669521395
12644460 14 18265064535112280179
12788726 201 17540825327090424498
13140716 1 17906452486799481099
13583140 156 16878770746637929873
138480 1 17906452125964582202
14648413 74 18192715531780393323
14790565 3 18122356928490461673
15042514 8 18048599518976280330
15309172 13 18339088184768740641
15475509 35 13398338101978052061
15502722 9 18338235951519368991
16752209 62 18051401061687205562
16945 1 18268420399071472699
17134986 127 18335703870724652364
18186145 218 18271544043018597084
19591789 44 18050573138311386787
20510252 161 18125729138472073985
20645476 183 18189331436795552098
20645477 70 18263916649679370335
20671657 1 18267868280841020359
21501502 16 18197214746525813657
21524375 3 18187081788776436472
2255824 54 18266177227815819683
2334 1 18412539890730900411
23366157 5 18044096756767084771
23402539 116 18270391827741766996
23419403 2 17466275947256005090
23557571 272 17766567128957628872
23559900 14 18051120407297077339
25147074 1 17915456096179461225
2748010 2 18411420626569979835
298252 57 18336262448258915866
3060560 45 18334858316292156588
3071541 12 18195811760492097490
3071541 158 17832704573774547150
3071541 37 18409729521862142559
3091708 16 9335960369771729330
350125 39 18266741285928533337
352729 6 18265899235904209122
394222 165 18187358822783038762
43471831 8 18410008836401868131
458136 41 18339939133727698027
58051976 378 18412260644800148301
6138700 20 18266747870847102046
7364860 26 18267864986680271058
81228 2 17549256390330644387
8272917 22 18339644417651663149
84936 182 18272366413096628656
9709674 26 18056488476730512700
9981440 41 18408880763046200690

> <PUBCHEM_SHAPE_MULTIPOLES>
372.04
6.41
3.88
0.79
1.92
2.45
-0.06
-5.12
-0.98
-1.88
-0.18
-0.36
-0.17
-0.45

> <PUBCHEM_SHAPE_SELFOVERLAP>
817.834

> <PUBCHEM_SHAPE_VOLUME>
203.2

> <PUBCHEM_COORDINATE_TYPE>
2
5
10

$$$$
