129735010
  -OEChem-03292013293D

 81 85  0     1  0  0  0  0  0999 V2000
    3.2865    1.0714    0.5746 O   0  0  0  0  0  0  0  0  0  0  0  0
   -6.4521   -1.5723    0.7501 O   0  0  0  0  0  0  0  0  0  0  0  0
    2.7377   -1.2347    0.4630 O   0  0  0  0  0  0  0  0  0  0  0  0
    4.9390   -1.6945    2.2526 O   0  0  0  0  0  0  0  0  0  0  0  0
    6.8842   -1.3029    0.3234 O   0  0  0  0  0  0  0  0  0  0  0  0
    5.3182   -2.0156   -2.0307 O   0  0  0  0  0  0  0  0  0  0  0  0
   -3.5218   -0.6212   -2.0455 N   0  0  0  0  0  0  0  0  0  0  0  0
   -2.7894   -0.2874   -0.8059 C   0  0  2  0  0  0  0  0  0  0  0  0
   -3.7769   -0.2634    0.4105 C   0  0  1  0  0  0  0  0  0  0  0  0
   -1.9955    1.0462   -1.0095 C   0  0  1  0  0  0  0  0  0  0  0  0
   -1.3511    1.5869    0.2973 C   0  0  1  0  0  0  0  0  0  0  0  0
   -0.5358    2.9277    0.0955 C   0  0  2  0  0  0  0  0  0  0  0  0
   -4.0596   -1.7808    0.7057 C   0  0  2  0  0  0  0  0  0  0  0  0
   -3.0751    0.3317    1.6660 C   0  0  0  0  0  0  0  0  0  0  0  0
    0.4113    2.8784   -1.1502 C   0  0  2  0  0  0  0  0  0  0  0  0
   -2.4090    1.6795    1.4123 C   0  0  0  0  0  0  0  0  0  0  0  0
   -1.9085   -1.5076   -0.4665 C   0  0  0  0  0  0  0  0  0  0  0  0
   -0.9169    0.9275   -2.1038 C   0  0  0  0  0  0  0  0  0  0  0  0
   -2.8774   -2.5544    0.0824 C   0  0  0  0  0  0  0  0  0  0  0  0
   -0.2630    2.2706   -2.3846 C   0  0  0  0  0  0  0  0  0  0  0  0
    0.3524    3.2401    1.3294 C   0  0  0  0  0  0  0  0  0  0  0  0
   -5.0542    0.5627    0.1481 C   0  0  0  0  0  0  0  0  0  0  0  0
    1.8056    2.2623   -0.8850 C   0  0  0  0  0  0  0  0  0  0  0  0
   -1.5031    4.1274   -0.0875 C   0  0  0  0  0  0  0  0  0  0  0  0
   -5.3902   -2.3449    0.2053 C   0  0  1  0  0  0  0  0  0  0  0  0
    1.4180    2.1819    1.6238 C   0  0  0  0  0  0  0  0  0  0  0  0
    1.9200    1.4365    0.3870 C   0  0  2  0  0  0  0  0  0  0  0  0
   -5.5650   -3.7996    0.6027 C   0  0  0  0  0  0  0  0  0  0  0  0
    3.4008   -0.2021    1.2005 C   0  0  1  0  0  0  0  0  0  0  0  0
    4.8752   -0.5468    1.4039 C   0  0  2  0  0  0  0  0  0  0  0  0
    5.5585   -0.8464    0.0686 C   0  0  2  0  0  0  0  0  0  0  0  0
    3.3013   -1.4842   -0.8275 C   0  0  1  0  0  0  0  0  0  0  0  0
    4.7744   -1.8978   -0.7188 C   0  0  1  0  0  0  0  0  0  0  0  0
    2.4613   -2.5742   -1.4873 C   0  0  0  0  0  0  0  0  0  0  0  0
   -2.7240    1.7955   -1.3502 H   0  0  0  0  0  0  0  0  0  0  0  0
   -0.6502    0.8210    0.6334 H   0  0  0  0  0  0  0  0  0  0  0  0
   -4.0436   -1.9275    1.7952 H   0  0  0  0  0  0  0  0  0  0  0  0
   -2.3134   -0.3591    2.0503 H   0  0  0  0  0  0  0  0  0  0  0  0
   -3.8035    0.4427    2.4801 H   0  0  0  0  0  0  0  0  0  0  0  0
    0.6349    3.9171   -1.4388 H   0  0  0  0  0  0  0  0  0  0  0  0
   -3.1748    2.4214    1.1668 H   0  0  0  0  0  0  0  0  0  0  0  0
   -1.9465    2.0054    2.3497 H   0  0  0  0  0  0  0  0  0  0  0  0
   -1.1577   -1.2749    0.2954 H   0  0  0  0  0  0  0  0  0  0  0  0
   -1.3601   -1.8975   -1.3321 H   0  0  0  0  0  0  0  0  0  0  0  0
   -1.3490    0.5735   -3.0448 H   0  0  0  0  0  0  0  0  0  0  0  0
   -0.1513    0.1988   -1.8133 H   0  0  0  0  0  0  0  0  0  0  0  0
   -3.1924   -3.2095   -0.7377 H   0  0  0  0  0  0  0  0  0  0  0  0
   -2.3821   -3.1883    0.8261 H   0  0  0  0  0  0  0  0  0  0  0  0
    0.4630    2.1623   -3.1996 H   0  0  0  0  0  0  0  0  0  0  0  0
   -1.0266    2.9646   -2.7585 H   0  0  0  0  0  0  0  0  0  0  0  0
   -0.2504    3.4050    2.2296 H   0  0  0  0  0  0  0  0  0  0  0  0
    0.8699    4.1944    1.1539 H   0  0  0  0  0  0  0  0  0  0  0  0
   -5.6542    0.1795   -0.6828 H   0  0  0  0  0  0  0  0  0  0  0  0
   -4.7988    1.5902   -0.1347 H   0  0  0  0  0  0  0  0  0  0  0  0
   -5.6803    0.6440    1.0429 H   0  0  0  0  0  0  0  0  0  0  0  0
    2.1500    1.6694   -1.7414 H   0  0  0  0  0  0  0  0  0  0  0  0
    2.5353    3.0829   -0.8195 H   0  0  0  0  0  0  0  0  0  0  0  0
   -4.0117   -1.5064   -1.9628 H   0  0  0  0  0  0  0  0  0  0  0  0
   -2.8686   -0.7570   -2.8147 H   0  0  0  0  0  0  0  0  0  0  0  0
   -2.2072    3.9669   -0.9090 H   0  0  0  0  0  0  0  0  0  0  0  0
   -0.9520    5.0499   -0.3058 H   0  0  0  0  0  0  0  0  0  0  0  0
   -2.0824    4.3242    0.8205 H   0  0  0  0  0  0  0  0  0  0  0  0
   -5.4768   -2.2760   -0.8818 H   0  0  0  0  0  0  0  0  0  0  0  0
    2.2526    2.6577    2.1546 H   0  0  0  0  0  0  0  0  0  0  0  0
    1.0128    1.4478    2.3323 H   0  0  0  0  0  0  0  0  0  0  0  0
    1.3114    0.5427    0.2277 H   0  0  0  0  0  0  0  0  0  0  0  0
   -4.8209   -4.4585    0.1482 H   0  0  0  0  0  0  0  0  0  0  0  0
   -6.5560   -4.1580    0.3016 H   0  0  0  0  0  0  0  0  0  0  0  0
   -5.5163   -3.9165    1.6913 H   0  0  0  0  0  0  0  0  0  0  0  0
   -7.2874   -1.9367    0.4113 H   0  0  0  0  0  0  0  0  0  0  0  0
    2.9107   -0.1582    2.1806 H   0  0  0  0  0  0  0  0  0  0  0  0
    5.4066    0.2673    1.9105 H   0  0  0  0  0  0  0  0  0  0  0  0
    5.6460    0.0704   -0.5276 H   0  0  0  0  0  0  0  0  0  0  0  0
    3.2048   -0.5825   -1.4447 H   0  0  0  0  0  0  0  0  0  0  0  0
    4.8744   -2.8758   -0.2335 H   0  0  0  0  0  0  0  0  0  0  0  0
    4.5457   -1.4500    3.1077 H   0  0  0  0  0  0  0  0  0  0  0  0
    2.8031   -2.7900   -2.5038 H   0  0  0  0  0  0  0  0  0  0  0  0
    1.4106   -2.2668   -1.5334 H   0  0  0  0  0  0  0  0  0  0  0  0
    2.4915   -3.4994   -0.9014 H   0  0  0  0  0  0  0  0  0  0  0  0
    7.3455   -0.6039    0.8177 H   0  0  0  0  0  0  0  0  0  0  0  0
    5.2389   -1.1511   -2.4688 H   0  0  0  0  0  0  0  0  0  0  0  0
  1 27  1  0  0  0  0
  1 29  1  0  0  0  0
  2 25  1  0  0  0  0
  2 70  1  0  0  0  0
  3 29  1  0  0  0  0
  3 32  1  0  0  0  0
  4 30  1  0  0  0  0
  4 76  1  0  0  0  0
  5 31  1  0  0  0  0
  5 80  1  0  0  0  0
  6 33  1  0  0  0  0
  6 81  1  0  0  0  0
  7  8  1  0  0  0  0
  7 58  1  0  0  0  0
  7 59  1  0  0  0  0
  8  9  1  0  0  0  0
  8 10  1  0  0  0  0
  8 17  1  0  0  0  0
  9 13  1  0  0  0  0
  9 14  1  0  0  0  0
  9 22  1  0  0  0  0
 10 11  1  0  0  0  0
 10 18  1  0  0  0  0
 10 35  1  0  0  0  0
 11 12  1  0  0  0  0
 11 16  1  0  0  0  0
 11 36  1  0  0  0  0
 12 15  1  0  0  0  0
 12 21  1  0  0  0  0
 12 24  1  0  0  0  0
 13 19  1  0  0  0  0
 13 25  1  0  0  0  0
 13 37  1  0  0  0  0
 14 16  1  0  0  0  0
 14 38  1  0  0  0  0
 14 39  1  0  0  0  0
 15 20  1  0  0  0  0
 15 23  1  0  0  0  0
 15 40  1  0  0  0  0
 16 41  1  0  0  0  0
 16 42  1  0  0  0  0
 17 19  1  0  0  0  0
 17 43  1  0  0  0  0
 17 44  1  0  0  0  0
 18 20  1  0  0  0  0
 18 45  1  0  0  0  0
 18 46  1  0  0  0  0
 19 47  1  0  0  0  0
 19 48  1  0  0  0  0
 20 49  1  0  0  0  0
 20 50  1  0  0  0  0
 21 26  1  0  0  0  0
 21 51  1  0  0  0  0
 21 52  1  0  0  0  0
 22 53  1  0  0  0  0
 22 54  1  0  0  0  0
 22 55  1  0  0  0  0
 23 27  1  0  0  0  0
 23 56  1  0  0  0  0
 23 57  1  0  0  0  0
 24 60  1  0  0  0  0
 24 61  1  0  0  0  0
 24 62  1  0  0  0  0
 25 28  1  0  0  0  0
 25 63  1  0  0  0  0
 26 27  1  0  0  0  0
 26 64  1  0  0  0  0
 26 65  1  0  0  0  0
 27 66  1  0  0  0  0
 28 67  1  0  0  0  0
 28 68  1  0  0  0  0
 28 69  1  0  0  0  0
 29 30  1  0  0  0  0
 29 71  1  0  0  0  0
 30 31  1  0  0  0  0
 30 72  1  0  0  0  0
 31 33  1  0  0  0  0
 31 73  1  0  0  0  0
 32 33  1  0  0  0  0
 32 34  1  0  0  0  0
 32 74  1  0  0  0  0
 33 75  1  0  0  0  0
 34 77  1  0  0  0  0
 34 78  1  0  0  0  0
 34 79  1  0  0  0  0
M  END
> <PUBCHEM_COMPOUND_CID>
129735010

> <PUBCHEM_CONFORMER_RMSD>
1

> <PUBCHEM_CONFORMER_DIVERSEORDER>
1
34
26
31
8
21
23
12
36
37
11
33
4
28
27
32
10
18
15
22
25
2
13
29
35
14
16
24
19
5
3
6
20
9
17
7
30

> <PUBCHEM_MMFF94_PARTIAL_CHARGES>
21
1 -0.56
2 -0.68
25 0.28
27 0.28
29 0.56
3 -0.56
30 0.28
31 0.28
32 0.28
33 0.28
4 -0.68
5 -0.68
58 0.36
59 0.36
6 -0.68
7 -0.99
70 0.4
76 0.4
8 0.27
80 0.4
81 0.4

> <PUBCHEM_EFFECTIVE_ROTOR_COUNT>
6.4

> <PUBCHEM_PHARMACOPHORE_FEATURES>
17
1 1 acceptor
1 2 acceptor
1 2 donor
1 3 acceptor
1 4 acceptor
1 4 donor
1 5 acceptor
1 5 donor
1 6 acceptor
1 6 donor
1 7 cation
1 7 donor
5 8 9 13 17 19 rings
6 10 11 12 15 18 20 rings
6 12 15 21 23 26 27 rings
6 3 29 30 31 32 33 rings
6 8 9 10 11 14 16 rings

> <PUBCHEM_HEAVY_ATOM_COUNT>
34

> <PUBCHEM_ATOM_DEF_STEREO_COUNT>
13

> <PUBCHEM_ATOM_UDEF_STEREO_COUNT>
1

> <PUBCHEM_BOND_DEF_STEREO_COUNT>
0

> <PUBCHEM_BOND_UDEF_STEREO_COUNT>
0

> <PUBCHEM_ISOTOPIC_ATOM_COUNT>
0

> <PUBCHEM_COMPONENT_COUNT>
1

> <PUBCHEM_CACTVS_TAUTO_COUNT>
1

> <PUBCHEM_CONFORMER_ID>
07BB996200000001

> <PUBCHEM_MMFF94_ENERGY>
128.1972

> <PUBCHEM_FEATURE_SELFOVERLAP>
86.578

> <PUBCHEM_SHAPE_FINGERPRINT>
10042902 136 18339092535428121420
10928967 22 18187366523644296986
11135609 12 18410851083883918400
11135926 11 18051965115484554492
11370993 144 17059213618981592880
11578080 2 13397532065729206051
11954058 11 18266743674199355847
11963148 33 17255405345868620155
12107183 9 18410018724176453625
12156800 1 16482240532624317616
12166972 35 17603866732185548190
12422481 6 17704081685529323503
12633257 1 18343300374848736666
13135754 10 18058742281925010536
13402501 40 18342175557537916442
13533116 47 18121220055031523691
13583140 156 16988265492100366528
14068700 675 18259985972260320388
14114206 34 15792002368776679109
14251764 30 18409167714243752922
15064986 96 16342591534899940814
15475509 35 17764876088874963235
1813 80 18113340820697835573
1979834 28 17988648531391651750
20775530 9 18336252548275181322
21716022 299 18117298036230055244
22889206 1 17270591705664930969
23559900 14 18265613372267455115
2838139 119 8718822068365458128
3737641 26 18272091617194801156
3886686 26 17627255372123037739
437815 12 18413384337325902677
4394409 98 16241794670092135006
46194498 28 17097767126394400749
463206 1 18192150614732268747
469060 322 18114753624741485810
474113 269 18059285587521174151
484985 159 18262509274384542361
50009960 94 17755557671309873443
508706 21 18269833108288472852
5309563 4 18411417345114654379
56633871 153 18059573641617460279
57816373 69 18200594825637475735
613672 6 18341035359420720918
7970288 3 18408602582325821091

> <PUBCHEM_SHAPE_MULTIPOLES>
659.51
13.05
4.49
1.91
5.31
1.45
-0.45
-15.49
3.03
-1.9
-0.15
0.92
0.34
1.01

> <PUBCHEM_SHAPE_SELFOVERLAP>
1390.615

> <PUBCHEM_SHAPE_VOLUME>
366.4

> <PUBCHEM_COORDINATE_TYPE>
2
5
10

$$$$
