129704
  -OEChem-03292013323D

 29 31  0     1  0  0  0  0  0999 V2000
    1.9783   -2.0477   -0.0973 S   0  0  0  0  0  0  0  0  0  0  0  0
    6.0768    0.0165    0.1048 O   0  0  0  0  0  0  0  0  0  0  0  0
    4.6364    1.6681    0.7318 O   0  0  0  0  0  0  0  0  0  0  0  0
   -6.1358    0.4233    0.1939 O   0  0  0  0  0  0  0  0  0  0  0  0
    2.5451    0.4739   -0.3677 N   0  0  0  0  0  0  0  0  0  0  0  0
   -0.7736   -0.8979   -0.0518 N   0  0  0  0  0  0  0  0  0  0  0  0
    3.8173   -0.2652   -0.4579 C   0  0  2  0  0  0  0  0  0  0  0  0
    3.6887   -1.6045    0.2447 C   0  0  0  0  0  0  0  0  0  0  0  0
    1.5557   -0.3533   -0.2417 C   0  0  0  0  0  0  0  0  0  0  0  0
    0.1425    0.0884   -0.1864 C   0  0  0  0  0  0  0  0  0  0  0  0
   -2.4938    0.7896   -0.0704 C   0  0  0  0  0  0  0  0  0  0  0  0
   -2.0743   -0.5550    0.0060 C   0  0  0  0  0  0  0  0  0  0  0  0
   -0.1712    1.4299   -0.2695 C   0  0  0  0  0  0  0  0  0  0  0  0
   -1.5123    1.7800   -0.2102 C   0  0  0  0  0  0  0  0  0  0  0  0
    4.8531    0.5928    0.1934 C   0  0  0  0  0  0  0  0  0  0  0  0
   -3.8603    1.1114   -0.0068 C   0  0  0  0  0  0  0  0  0  0  0  0
   -3.0497   -1.5387    0.1448 C   0  0  0  0  0  0  0  0  0  0  0  0
   -4.8144    0.1074    0.1323 C   0  0  0  0  0  0  0  0  0  0  0  0
   -4.4083   -1.2190    0.2081 C   0  0  0  0  0  0  0  0  0  0  0  0
    4.0804   -0.3778   -1.5175 H   0  0  0  0  0  0  0  0  0  0  0  0
    4.3855   -2.3494   -0.1498 H   0  0  0  0  0  0  0  0  0  0  0  0
    3.8339   -1.5233    1.3272 H   0  0  0  0  0  0  0  0  0  0  0  0
    0.5823    2.2022   -0.3771 H   0  0  0  0  0  0  0  0  0  0  0  0
   -1.7880    2.8303   -0.2733 H   0  0  0  0  0  0  0  0  0  0  0  0
   -4.1760    2.1513   -0.0664 H   0  0  0  0  0  0  0  0  0  0  0  0
   -2.7572   -2.5854    0.2064 H   0  0  0  0  0  0  0  0  0  0  0  0
   -5.1415   -2.0135    0.3168 H   0  0  0  0  0  0  0  0  0  0  0  0
    6.7718    0.5653    0.5266 H   0  0  0  0  0  0  0  0  0  0  0  0
   -6.2333    1.3886    0.1259 H   0  0  0  0  0  0  0  0  0  0  0  0
  1  8  1  0  0  0  0
  1  9  1  0  0  0  0
  2 15  1  0  0  0  0
  2 28  1  0  0  0  0
  3 15  2  0  0  0  0
  4 18  1  0  0  0  0
  4 29  1  0  0  0  0
  5  7  1  0  0  0  0
  5  9  2  0  0  0  0
  6 10  2  0  0  0  0
  6 12  1  0  0  0  0
  7  8  1  0  0  0  0
  7 15  1  0  0  0  0
  7 20  1  0  0  0  0
  8 21  1  0  0  0  0
  8 22  1  0  0  0  0
  9 10  1  0  0  0  0
 10 13  1  0  0  0  0
 11 12  2  0  0  0  0
 11 14  1  0  0  0  0
 11 16  1  0  0  0  0
 12 17  1  0  0  0  0
 13 14  2  0  0  0  0
 13 23  1  0  0  0  0
 14 24  1  0  0  0  0
 16 18  2  0  0  0  0
 16 25  1  0  0  0  0
 17 19  2  0  0  0  0
 17 26  1  0  0  0  0
 18 19  1  0  0  0  0
 19 27  1  0  0  0  0
M  END
> <PUBCHEM_COMPOUND_CID>
129704

> <PUBCHEM_CONFORMER_RMSD>
0.6

> <PUBCHEM_CONFORMER_DIVERSEORDER>
1
4
8
7
5
6
2
9
3

> <PUBCHEM_MMFF94_PARTIAL_CHARGES>
25
1 -0.37
10 0.4
12 0.31
13 -0.15
14 -0.15
15 0.66
16 -0.15
17 -0.15
18 0.08
19 -0.15
2 -0.65
23 0.15
24 0.15
25 0.15
26 0.15
27 0.15
28 0.5
29 0.45
3 -0.57
4 -0.53
5 -0.7
6 -0.62
7 0.31
8 0.23
9 0.5

> <PUBCHEM_EFFECTIVE_ROTOR_COUNT>
2.6

> <PUBCHEM_PHARMACOPHORE_FEATURES>
9
1 2 acceptor
1 3 acceptor
1 4 donor
1 5 acceptor
1 6 acceptor
3 2 3 15 anion
5 1 5 7 8 9 rings
6 11 12 16 17 18 19 rings
6 6 10 11 12 13 14 rings

> <PUBCHEM_HEAVY_ATOM_COUNT>
19

> <PUBCHEM_ATOM_DEF_STEREO_COUNT>
1

> <PUBCHEM_ATOM_UDEF_STEREO_COUNT>
0

> <PUBCHEM_BOND_DEF_STEREO_COUNT>
0

> <PUBCHEM_BOND_UDEF_STEREO_COUNT>
0

> <PUBCHEM_ISOTOPIC_ATOM_COUNT>
0

> <PUBCHEM_COMPONENT_COUNT>
1

> <PUBCHEM_CACTVS_TAUTO_COUNT>
4

> <PUBCHEM_CONFORMER_ID>
0001FAA800000001

> <PUBCHEM_MMFF94_ENERGY>
47.3691

> <PUBCHEM_FEATURE_SELFOVERLAP>
45.768

> <PUBCHEM_SHAPE_FINGERPRINT>
10 15 18339631340030473184
10366900 7 14117801318898592023
10968037 39 18408042922659596487
11045977 3 18343300409414288064
11401426 45 18407760343992296231
12107183 9 17617941331355618514
12236239 1 17530965786884965252
12516196 113 18201718466285648457
13214271 11 18413106173684497095
13533116 47 17676478407417377066
13668630 136 14418136192938080560
14251764 18 18343306972931190953
15048467 5 17846502513312476521
15196674 1 18409730621136510455
15375358 24 18335423473542393043
15536298 74 18410858720293520470
17834072 33 18201997737479873606
1813 80 17022908929973944263
18522853 276 18410577279623605717
19141452 34 18413109481157662847
19489759 90 16660641839155176021
200 152 18202280303926806151
20510252 161 18270683043793930265
20645477 70 18201441307798933182
21267235 1 18336557039965787534
22854114 59 18342739619940017306
23402539 116 18335979847969397655
23557571 272 18338524045014640820
23559900 14 18411133649634492584
239999 70 18272940406070182030
26918003 58 17748830730294733115
300161 21 18408880729055798143
335352 9 18408886244400455037
34797466 226 17346605196067219437
34934 24 18410852157762911687
3545911 37 18408887321730221366
4073 2 18113907086930687426
4214541 1 18337673022761436709
4463277 17 18410857642699730297
474229 33 18410574007001230326
5104073 3 18336829680162849770
5283173 99 17969211253472724437
5374978 207 18408318865750065466
542803 24 17203612575119401635
5486654 2 18410579508901595030
59755656 215 18411144598139451414
67856867 119 18114749364087040556
77779 3 18411420579151012798
9709674 26 18336836307366601566

> <PUBCHEM_SHAPE_MULTIPOLES>
367.29
12.5
1.84
0.66
2.65
0.23
0
-0.83
-1.54
0.3
-0.07
0.16
-0.02
0.36

> <PUBCHEM_SHAPE_SELFOVERLAP>
798.431

> <PUBCHEM_SHAPE_VOLUME>
203.1

> <PUBCHEM_COORDINATE_TYPE>
2
5
10

$$$$
