129717314
  -OEChem-03292013293D

 44 45  0     1  0  0  0  0  0999 V2000
    0.7153    3.1752   -0.6691 S   0  0  0  0  0  0  0  0  0  0  0  0
   -2.9555    2.1926    2.2887 O   0  0  0  0  0  0  0  0  0  0  0  0
    7.2276   -0.9976    0.0197 O   0  0  0  0  0  0  0  0  0  0  0  0
   -1.1489   -2.5499    0.0581 O   0  0  0  0  0  0  0  0  0  0  0  0
    5.5487   -2.0481    1.1311 O   0  0  0  0  0  0  0  0  0  0  0  0
   -3.1152   -4.1856   -0.7166 O   0  0  0  0  0  0  0  0  0  0  0  0
   -1.6385    1.1629    0.6257 N   0  0  0  0  0  0  0  0  0  0  0  0
   -2.5722    3.1579    0.1922 N   0  0  0  0  0  0  0  0  0  0  0  0
   -1.5203   -0.0710    1.2244 N   0  0  0  0  0  0  0  0  0  0  0  0
   -2.5408   -0.9038    0.8168 N   0  0  0  0  0  0  0  0  0  0  0  0
   -4.3223   -4.9156   -1.0806 N   0  0  0  0  0  0  0  0  0  0  0  0
   -1.2612    1.4131   -0.7521 C   0  0  1  0  0  0  0  0  0  0  0  0
   -1.8822    2.8084   -1.0369 C   0  0  2  0  0  0  0  0  0  0  0  0
    0.2460    1.4668   -1.0500 C   0  0  2  0  0  0  0  0  0  0  0  0
   -0.8069    3.8356   -1.3777 C   0  0  0  0  0  0  0  0  0  0  0  0
    1.1349    0.4690   -0.3287 C   0  0  0  0  0  0  0  0  0  0  0  0
   -2.4407    2.1698    1.1783 C   0  0  0  0  0  0  0  0  0  0  0  0
    2.6171    0.5904   -0.6947 C   0  0  0  0  0  0  0  0  0  0  0  0
    3.5621   -0.3604    0.0458 C   0  0  0  0  0  0  0  0  0  0  0  0
    5.0334   -0.1571   -0.3143 C   0  0  0  0  0  0  0  0  0  0  0  0
   -2.2941   -2.1326    0.2395 C   0  0  0  0  0  0  0  0  0  0  0  0
    5.9247   -1.1732    0.3634 C   0  0  0  0  0  0  0  0  0  0  0  0
   -3.5110   -2.9467   -0.1631 C   0  0  0  0  0  0  0  0  0  0  0  0
   -1.7419    0.6513   -1.3785 H   0  0  0  0  0  0  0  0  0  0  0  0
   -2.6404    2.7646   -1.8262 H   0  0  0  0  0  0  0  0  0  0  0  0
    0.3848    1.3447   -2.1317 H   0  0  0  0  0  0  0  0  0  0  0  0
   -0.6723    3.9012   -2.4621 H   0  0  0  0  0  0  0  0  0  0  0  0
   -1.0226    4.8360   -0.9914 H   0  0  0  0  0  0  0  0  0  0  0  0
    1.0483    0.5857    0.7583 H   0  0  0  0  0  0  0  0  0  0  0  0
    0.8007   -0.5481   -0.5662 H   0  0  0  0  0  0  0  0  0  0  0  0
   -3.1344    3.9950    0.3095 H   0  0  0  0  0  0  0  0  0  0  0  0
    2.7279    0.4251   -1.7741 H   0  0  0  0  0  0  0  0  0  0  0  0
    2.9755    1.6070   -0.5004 H   0  0  0  0  0  0  0  0  0  0  0  0
   -1.6178    0.0556    2.2312 H   0  0  0  0  0  0  0  0  0  0  0  0
    3.4332   -0.2279    1.1275 H   0  0  0  0  0  0  0  0  0  0  0  0
    3.2678   -1.3943   -0.1751 H   0  0  0  0  0  0  0  0  0  0  0  0
    5.3559    0.8437   -0.0075 H   0  0  0  0  0  0  0  0  0  0  0  0
    5.1655   -0.2597   -1.3970 H   0  0  0  0  0  0  0  0  0  0  0  0
   -3.4913   -0.5752    0.9566 H   0  0  0  0  0  0  0  0  0  0  0  0
   -4.1210   -3.1019    0.7351 H   0  0  0  0  0  0  0  0  0  0  0  0
   -4.0766   -2.3587   -0.8961 H   0  0  0  0  0  0  0  0  0  0  0  0
    7.8124   -1.6520    0.4581 H   0  0  0  0  0  0  0  0  0  0  0  0
   -4.7975   -4.2667   -1.7054 H   0  0  0  0  0  0  0  0  0  0  0  0
   -4.8353   -4.9537   -0.2017 H   0  0  0  0  0  0  0  0  0  0  0  0
  1 14  1  0  0  0  0
  1 15  1  0  0  0  0
  2 17  2  0  0  0  0
  3 22  1  0  0  0  0
  3 42  1  0  0  0  0
  4 21  2  0  0  0  0
  5 22  2  0  0  0  0
  6 11  1  0  0  0  0
  6 23  1  0  0  0  0
  7  9  1  0  0  0  0
  7 12  1  0  0  0  0
  7 17  1  0  0  0  0
  8 13  1  0  0  0  0
  8 17  1  0  0  0  0
  8 31  1  0  0  0  0
  9 10  1  0  0  0  0
  9 34  1  0  0  0  0
 10 21  1  0  0  0  0
 10 39  1  0  0  0  0
 11 43  1  0  0  0  0
 11 44  1  0  0  0  0
 12 13  1  0  0  0  0
 12 14  1  0  0  0  0
 12 24  1  0  0  0  0
 13 15  1  0  0  0  0
 13 25  1  0  0  0  0
 14 16  1  0  0  0  0
 14 26  1  0  0  0  0
 15 27  1  0  0  0  0
 15 28  1  0  0  0  0
 16 18  1  0  0  0  0
 16 29  1  0  0  0  0
 16 30  1  0  0  0  0
 18 19  1  0  0  0  0
 18 32  1  0  0  0  0
 18 33  1  0  0  0  0
 19 20  1  0  0  0  0
 19 35  1  0  0  0  0
 19 36  1  0  0  0  0
 20 22  1  0  0  0  0
 20 37  1  0  0  0  0
 20 38  1  0  0  0  0
 21 23  1  0  0  0  0
 23 40  1  0  0  0  0
 23 41  1  0  0  0  0
M  END
> <PUBCHEM_COMPOUND_CID>
129717314

> <PUBCHEM_CONFORMER_RMSD>
1

> <PUBCHEM_CONFORMER_DIVERSEORDER>
1
47
22
12
13
11
51
26
2
15
31
10
7
45
24
34
29
28
46
27
30
21
6
23
5
9
20
8
17
4
18
50
49
32
39
41
14
35
43
40
44
38
36
19
3
33
37
42
25
16
48

> <PUBCHEM_MMFF94_PARTIAL_CHARGES>
26
1 -0.46
10 -0.42
11 -0.82
12 0.3
13 0.3
14 0.23
15 0.23
17 0.69
2 -0.57
20 0.06
21 0.57
22 0.66
23 0.34
3 -0.65
31 0.37
34 0.36
39 0.37
4 -0.57
42 0.5
43 0.36
44 0.36
5 -0.57
6 -0.18
7 -0.35
8 -0.73
9 -0.38

> <PUBCHEM_EFFECTIVE_ROTOR_COUNT>
11

> <PUBCHEM_PHARMACOPHORE_FEATURES>
10
1 10 donor
1 2 acceptor
1 3 acceptor
1 4 acceptor
1 5 acceptor
1 8 donor
3 3 5 22 anion
4 16 18 19 20 hydrophobe
5 1 12 13 14 15 rings
5 7 8 12 13 17 rings

> <PUBCHEM_HEAVY_ATOM_COUNT>
23

> <PUBCHEM_ATOM_DEF_STEREO_COUNT>
3

> <PUBCHEM_ATOM_UDEF_STEREO_COUNT>
0

> <PUBCHEM_BOND_DEF_STEREO_COUNT>
0

> <PUBCHEM_BOND_UDEF_STEREO_COUNT>
0

> <PUBCHEM_ISOTOPIC_ATOM_COUNT>
0

> <PUBCHEM_COMPONENT_COUNT>
1

> <PUBCHEM_CACTVS_TAUTO_COUNT>
4

> <PUBCHEM_CONFORMER_ID>
07BB544200000001

> <PUBCHEM_MMFF94_ENERGY>
46.1432

> <PUBCHEM_FEATURE_SELFOVERLAP>
51.285

> <PUBCHEM_SHAPE_FINGERPRINT>
10483366 6 18262780892975578045
11135609 149 17552610953890758135
11552529 35 18342458132236745104
11720765 8 17981030136340985941
12633257 1 18058469680192342000
13004483 165 18269554012671260495
13083527 12 17979350081877944308
14844126 61 18261676982552308296
15042514 8 18261401004949249616
15250474 111 18115014201062163778
17539 30 18408314497641803037
20621476 51 18408887339100176510
21360442 33 17477191100371764151
23598288 3 17968391052052432332
23622692 118 18337109068381500998
397830 11 18270948108755397882
484985 159 18261661593753506822
5924683 9 18410290303041695722
9981440 41 17685768021946615432

> <PUBCHEM_SHAPE_MULTIPOLES>
422.93
10.92
5.94
1.32
26.06
3.83
-0.43
12
-1.7
-9.92
2.24
-1.12
-0.62
-2.52

> <PUBCHEM_SHAPE_SELFOVERLAP>
839.264

> <PUBCHEM_SHAPE_VOLUME>
251.8

> <PUBCHEM_COORDINATE_TYPE>
2
5
10

$$$$
