129711583
  -OEChem-03292013293D

 50 52  0     1  0  0  0  0  0999 V2000
    2.4748   -1.2637    0.3004 O   0  0  0  0  0  0  0  0  0  0  0  0
    0.3519   -1.1572    2.3808 O   0  0  0  0  0  0  0  0  0  0  0  0
   -0.4025   -2.7057   -1.3974 O   0  0  0  0  0  0  0  0  0  0  0  0
    2.2871   -3.9674    0.0338 O   0  0  0  0  0  0  0  0  0  0  0  0
   -6.1473    0.8736   -0.0204 O   0  0  0  0  0  0  0  0  0  0  0  0
   -0.8297    0.6510   -0.5065 N   0  0  0  0  0  0  0  0  0  0  0  0
   -2.6945    0.5584    0.8188 N   0  0  0  0  0  0  0  0  0  0  0  0
   -4.0526    0.6126    0.9492 N   0  0  0  0  0  0  0  0  0  0  0  0
    3.2577    5.4036   -0.3722 N   0  0  0  0  0  0  0  0  0  0  0  0
    1.1700   -1.8610    0.1894 C   0  0  0  0  0  0  0  0  0  0  0  0
    0.1036   -1.0600    0.9709 C   0  0  2  0  0  0  0  0  0  0  0  0
    0.0695    0.4288    0.6075 C   0  0  1  0  0  0  0  0  0  0  0  0
    1.4469    0.9548    0.2970 C   0  0  0  0  0  0  0  0  0  0  0  0
    0.8249   -2.0151   -1.3021 C   0  0  0  0  0  0  0  0  0  0  0  0
    1.3138   -3.2738    0.7849 C   0  0  0  0  0  0  0  0  0  0  0  0
    2.5459    0.0974    0.1703 C   0  0  0  0  0  0  0  0  0  0  0  0
    1.6486    2.3377    0.1555 C   0  0  0  0  0  0  0  0  0  0  0  0
    3.8220    0.6153   -0.0732 C   0  0  0  0  0  0  0  0  0  0  0  0
   -2.1628    0.7019   -0.3644 C   0  0  0  0  0  0  0  0  0  0  0  0
    2.9203    2.8510   -0.1012 C   0  0  0  0  0  0  0  0  0  0  0  0
    4.0075    1.9893   -0.2132 C   0  0  0  0  0  0  0  0  0  0  0  0
    2.4868   -5.2926    0.5174 C   0  0  0  0  0  0  0  0  0  0  0  0
   -0.8023   -2.8945   -2.7518 C   0  0  0  0  0  0  0  0  0  0  0  0
   -2.9829    0.9223   -1.5791 C   0  0  0  0  0  0  0  0  0  0  0  0
    3.1067    4.2593   -0.2508 C   0  0  0  0  0  0  0  0  0  0  0  0
   -4.3041    0.9753   -1.4415 C   0  0  0  0  0  0  0  0  0  0  0  0
   -4.9213    0.8171   -0.1107 C   0  0  0  0  0  0  0  0  0  0  0  0
   -4.5379    0.4415    2.3085 C   0  0  0  0  0  0  0  0  0  0  0  0
   -0.8787   -1.5253    0.8258 H   0  0  0  0  0  0  0  0  0  0  0  0
   -0.2783    1.0045    1.4772 H   0  0  0  0  0  0  0  0  0  0  0  0
    0.3614   -3.8170    0.7709 H   0  0  0  0  0  0  0  0  0  0  0  0
    1.6669   -3.2149    1.8216 H   0  0  0  0  0  0  0  0  0  0  0  0
    1.6121   -2.5625   -1.8362 H   0  0  0  0  0  0  0  0  0  0  0  0
    0.7565   -1.0451   -1.8042 H   0  0  0  0  0  0  0  0  0  0  0  0
   -0.4144    0.7558   -1.4285 H   0  0  0  0  0  0  0  0  0  0  0  0
   -0.3978   -0.7418    2.8404 H   0  0  0  0  0  0  0  0  0  0  0  0
    0.8006    3.0137    0.2535 H   0  0  0  0  0  0  0  0  0  0  0  0
    4.6771   -0.0503   -0.1609 H   0  0  0  0  0  0  0  0  0  0  0  0
    5.0062    2.3719   -0.4093 H   0  0  0  0  0  0  0  0  0  0  0  0
    1.5596   -5.8691    0.4450 H   0  0  0  0  0  0  0  0  0  0  0  0
    2.8406   -5.2729    1.5526 H   0  0  0  0  0  0  0  0  0  0  0  0
   -0.9446   -1.9283   -3.2453 H   0  0  0  0  0  0  0  0  0  0  0  0
   -0.0586   -3.4896   -3.2903 H   0  0  0  0  0  0  0  0  0  0  0  0
   -1.7534   -3.4335   -2.7564 H   0  0  0  0  0  0  0  0  0  0  0  0
    3.2474   -5.7731   -0.1036 H   0  0  0  0  0  0  0  0  0  0  0  0
   -2.4996    1.0337   -2.5417 H   0  0  0  0  0  0  0  0  0  0  0  0
   -4.9539    1.1341   -2.2942 H   0  0  0  0  0  0  0  0  0  0  0  0
   -4.2051   -0.5317    2.6814 H   0  0  0  0  0  0  0  0  0  0  0  0
   -5.6291    0.4874    2.3511 H   0  0  0  0  0  0  0  0  0  0  0  0
   -4.1209    1.2364    2.9338 H   0  0  0  0  0  0  0  0  0  0  0  0
  1 10  1  0  0  0  0
  1 16  1  0  0  0  0
  2 11  1  0  0  0  0
  2 36  1  0  0  0  0
  3 14  1  0  0  0  0
  3 23  1  0  0  0  0
  4 15  1  0  0  0  0
  4 22  1  0  0  0  0
  5 27  2  0  0  0  0
  6 12  1  0  0  0  0
  6 19  1  0  0  0  0
  6 35  1  0  0  0  0
  7  8  1  0  0  0  0
  7 19  2  0  0  0  0
  8 27  1  0  0  0  0
  8 28  1  0  0  0  0
  9 25  3  0  0  0  0
 10 11  1  0  0  0  0
 10 14  1  0  0  0  0
 10 15  1  0  0  0  0
 11 12  1  0  0  0  0
 11 29  1  0  0  0  0
 12 13  1  0  0  0  0
 12 30  1  0  0  0  0
 13 16  2  0  0  0  0
 13 17  1  0  0  0  0
 14 33  1  0  0  0  0
 14 34  1  0  0  0  0
 15 31  1  0  0  0  0
 15 32  1  0  0  0  0
 16 18  1  0  0  0  0
 17 20  2  0  0  0  0
 17 37  1  0  0  0  0
 18 21  2  0  0  0  0
 18 38  1  0  0  0  0
 19 24  1  0  0  0  0
 20 21  1  0  0  0  0
 20 25  1  0  0  0  0
 21 39  1  0  0  0  0
 22 40  1  0  0  0  0
 22 41  1  0  0  0  0
 22 45  1  0  0  0  0
 23 42  1  0  0  0  0
 23 43  1  0  0  0  0
 23 44  1  0  0  0  0
 24 26  2  0  0  0  0
 24 46  1  0  0  0  0
 26 27  1  0  0  0  0
 26 47  1  0  0  0  0
 28 48  1  0  0  0  0
 28 49  1  0  0  0  0
 28 50  1  0  0  0  0
M  END
> <PUBCHEM_COMPOUND_CID>
129711583

> <PUBCHEM_CONFORMER_RMSD>
0.8

> <PUBCHEM_CONFORMER_DIVERSEORDER>
1
77
12
76
43
31
46
62
74
71
88
69
64
40
33
52
70
85
80
56
51
68
41
82
38
30
84
61
20
72
21
29
86
44
65
79
19
60
54
50
67
42
81
34
90
89
75
59
5
78
73
17
26
83
28
22
13
36
7
87
10
48
53
39
58
57
24
27
15
14
49
55
45
18
63
9
25
16
8
35
47
6
23
3
32
66
4
2
11
37

> <PUBCHEM_MMFF94_PARTIAL_CHARGES>
35
1 -0.36
10 0.28
11 0.28
12 0.51
13 -0.14
14 0.28
15 0.28
16 0.08
17 -0.15
18 -0.15
19 0.49
2 -0.68
20 0.07
21 -0.15
22 0.28
23 0.28
24 -0.14
25 0.48
26 -0.14
27 0.62
28 0.3
3 -0.56
35 0.4
36 0.4
37 0.15
38 0.15
39 0.15
4 -0.56
46 0.15
47 0.15
5 -0.57
6 -0.82
7 -0.51
8 -0.3
9 -0.56

> <PUBCHEM_EFFECTIVE_ROTOR_COUNT>
6.8

> <PUBCHEM_PHARMACOPHORE_FEATURES>
12
1 1 acceptor
1 2 acceptor
1 2 donor
1 3 acceptor
1 4 acceptor
1 5 acceptor
1 6 donor
1 9 acceptor
3 6 7 19 cation
6 1 10 11 12 13 16 rings
6 13 16 17 18 20 21 rings
6 7 8 19 24 26 27 rings

> <PUBCHEM_HEAVY_ATOM_COUNT>
28

> <PUBCHEM_ATOM_DEF_STEREO_COUNT>
1

> <PUBCHEM_ATOM_UDEF_STEREO_COUNT>
1

> <PUBCHEM_BOND_DEF_STEREO_COUNT>
0

> <PUBCHEM_BOND_UDEF_STEREO_COUNT>
0

> <PUBCHEM_ISOTOPIC_ATOM_COUNT>
0

> <PUBCHEM_COMPONENT_COUNT>
1

> <PUBCHEM_CACTVS_TAUTO_COUNT>
2

> <PUBCHEM_CONFORMER_ID>
07BB3DDF00000001

> <PUBCHEM_MMFF94_ENERGY>
89.4183

> <PUBCHEM_FEATURE_SELFOVERLAP>
60.934

> <PUBCHEM_SHAPE_FINGERPRINT>
10411042 1 17905325122230363978
11421498 54 17417546721831840841
12156800 1 17546202991159325855
12293681 4 17184178445042535869
12730499 353 18334583451370230729
12788726 201 17477468172599495214
13009979 54 17557139502196706011
13134695 92 18120369861195467806
13140716 1 18340196513985493808
13955234 65 18409450258804054873
14790565 3 18194122043227989221
14955137 171 18262788576519219498
16114785 44 17692819597888944339
17138139 8 17413275282604305783
1813 80 17769659689514152591
19319366 153 18270959154256235273
20101258 96 17617949032269007122
20645477 70 18335694980384916527
20739085 24 17985547745344846391
21120745 212 16534283003342608989
23419403 2 17621374260103238446
23557571 272 16878227455346090509
23558518 356 17764575913056673060
23559900 14 18118395156082344107
283562 15 17401756918623325318
3060560 45 18411981351914763428
3178227 256 18337966635737732448
376196 1 18187359990935528345
469060 322 15795081177148490407
474 4 18411983597856040273
633830 44 18129680688926644069
6669772 16 18411706491578241366
81228 2 17402879519689544024
9999458 23 18408604773091029228

> <PUBCHEM_SHAPE_MULTIPOLES>
526.96
8.77
5.98
1.71
12.41
2.59
-0.19
-7.85
0.68
-10.01
-0.82
1.88
1.12
-1.01

> <PUBCHEM_SHAPE_SELFOVERLAP>
1121.985

> <PUBCHEM_SHAPE_VOLUME>
289.5

> <PUBCHEM_COORDINATE_TYPE>
2
5
10

$$$$
