129786
  -OEChem-03292013323D

 49 52  0     0  0  0  0  0  0999 V2000
    0.3813    1.3560    1.7226 O   0  0  0  0  0  0  0  0  0  0  0  0
   -2.4599   -1.3352   -3.0469 O   0  0  0  0  0  0  0  0  0  0  0  0
    2.2803   -0.2851    1.0505 N   0  0  0  0  0  0  0  0  0  0  0  0
    4.8263    0.1654   -0.1400 N   0  0  0  0  0  0  0  0  0  0  0  0
   -1.2633    0.1461    0.5614 N   0  0  0  0  0  0  0  0  0  0  0  0
    6.3074    1.4233   -1.3350 N   0  0  0  0  0  0  0  0  0  0  0  0
   -2.9038    0.5836   -1.8989 N   0  0  0  0  0  0  0  0  0  0  0  0
    6.5235   -0.9188   -1.3167 N   0  0  0  0  0  0  0  0  0  0  0  0
   -2.0533    2.2683    1.3004 N   0  0  0  0  0  0  0  0  0  0  0  0
    2.4065    0.5549   -0.1494 C   0  0  0  0  0  0  0  0  0  0  0  0
    3.2999   -1.3443    1.0422 C   0  0  0  0  0  0  0  0  0  0  0  0
    3.7939    1.1947   -0.2245 C   0  0  0  0  0  0  0  0  0  0  0  0
    4.7071   -0.7468    0.9940 C   0  0  0  0  0  0  0  0  0  0  0  0
    0.9398   -0.8633    1.1343 C   0  0  0  0  0  0  0  0  0  0  0  0
   -0.0171    0.3113    1.1988 C   0  0  0  0  0  0  0  0  0  0  0  0
    5.9123    0.1702   -0.9462 C   0  0  0  0  0  0  0  0  0  0  0  0
   -1.9060   -1.1197    0.4352 C   0  0  0  0  0  0  0  0  0  0  0  0
   -2.1085    1.2878    0.3534 C   0  0  0  0  0  0  0  0  0  0  0  0
   -2.5438   -1.5414   -0.7316 C   0  0  0  0  0  0  0  0  0  0  0  0
   -2.8812    1.4535   -0.7974 C   0  0  0  0  0  0  0  0  0  0  0  0
   -1.9190   -1.9851    1.5490 C   0  0  0  0  0  0  0  0  0  0  0  0
   -2.5855   -0.7503   -1.9709 C   0  0  0  0  0  0  0  0  0  0  0  0
   -3.1457   -2.8122   -0.7898 C   0  0  0  0  0  0  0  0  0  0  0  0
   -3.5936    2.6537   -0.9542 C   0  0  0  0  0  0  0  0  0  0  0  0
   -2.5255   -3.2406    1.4914 C   0  0  0  0  0  0  0  0  0  0  0  0
   -3.1364   -3.6568    0.3176 C   0  0  0  0  0  0  0  0  0  0  0  0
   -3.5592    3.6358    0.0232 C   0  0  0  0  0  0  0  0  0  0  0  0
   -2.7763    3.3952    1.1275 C   0  0  0  0  0  0  0  0  0  0  0  0
    1.6886    1.3787   -0.1970 H   0  0  0  0  0  0  0  0  0  0  0  0
    2.2429   -0.0522   -1.0513 H   0  0  0  0  0  0  0  0  0  0  0  0
    3.1554   -2.0140    0.1837 H   0  0  0  0  0  0  0  0  0  0  0  0
    3.2143   -1.9524    1.9509 H   0  0  0  0  0  0  0  0  0  0  0  0
    3.9285    1.9175    0.5897 H   0  0  0  0  0  0  0  0  0  0  0  0
    3.8415    1.7473   -1.1705 H   0  0  0  0  0  0  0  0  0  0  0  0
    5.4377   -1.5619    0.9363 H   0  0  0  0  0  0  0  0  0  0  0  0
    4.9176   -0.1963    1.9194 H   0  0  0  0  0  0  0  0  0  0  0  0
    0.7325   -1.5069    0.2728 H   0  0  0  0  0  0  0  0  0  0  0  0
    0.8367   -1.4399    2.0591 H   0  0  0  0  0  0  0  0  0  0  0  0
   -1.4724   -1.6787    2.4928 H   0  0  0  0  0  0  0  0  0  0  0  0
    7.1032    1.5465   -1.9521 H   0  0  0  0  0  0  0  0  0  0  0  0
    5.9229    2.2672   -0.9255 H   0  0  0  0  0  0  0  0  0  0  0  0
   -3.2274    0.9934   -2.7724 H   0  0  0  0  0  0  0  0  0  0  0  0
   -3.6379   -3.1565   -1.6969 H   0  0  0  0  0  0  0  0  0  0  0  0
    7.3119   -0.6626   -1.9211 H   0  0  0  0  0  0  0  0  0  0  0  0
   -4.1857    2.8313   -1.8499 H   0  0  0  0  0  0  0  0  0  0  0  0
   -2.5223   -3.8864    2.3643 H   0  0  0  0  0  0  0  0  0  0  0  0
   -3.6097   -4.6324    0.2634 H   0  0  0  0  0  0  0  0  0  0  0  0
   -4.1151    4.5590   -0.0865 H   0  0  0  0  0  0  0  0  0  0  0  0
   -2.6954    4.1241    1.9266 H   0  0  0  0  0  0  0  0  0  0  0  0
  1 15  2  0  0  0  0
  2 22  2  0  0  0  0
  3 10  1  0  0  0  0
  3 11  1  0  0  0  0
  3 14  1  0  0  0  0
  4 12  1  0  0  0  0
  4 13  1  0  0  0  0
  4 16  1  0  0  0  0
  5 15  1  0  0  0  0
  5 17  1  0  0  0  0
  5 18  1  0  0  0  0
  6 16  1  0  0  0  0
  6 40  1  0  0  0  0
  6 41  1  0  0  0  0
  7 20  1  0  0  0  0
  7 22  1  0  0  0  0
  7 42  1  0  0  0  0
  8 16  2  0  0  0  0
  8 44  1  0  0  0  0
  9 18  1  0  0  0  0
  9 28  2  0  0  0  0
 10 12  1  0  0  0  0
 10 29  1  0  0  0  0
 10 30  1  0  0  0  0
 11 13  1  0  0  0  0
 11 31  1  0  0  0  0
 11 32  1  0  0  0  0
 12 33  1  0  0  0  0
 12 34  1  0  0  0  0
 13 35  1  0  0  0  0
 13 36  1  0  0  0  0
 14 15  1  0  0  0  0
 14 37  1  0  0  0  0
 14 38  1  0  0  0  0
 17 19  1  0  0  0  0
 17 21  2  0  0  0  0
 18 20  2  0  0  0  0
 19 22  1  0  0  0  0
 19 23  2  0  0  0  0
 20 24  1  0  0  0  0
 21 25  1  0  0  0  0
 21 39  1  0  0  0  0
 23 26  1  0  0  0  0
 23 43  1  0  0  0  0
 24 27  2  0  0  0  0
 24 45  1  0  0  0  0
 25 26  2  0  0  0  0
 25 46  1  0  0  0  0
 26 47  1  0  0  0  0
 27 28  1  0  0  0  0
 27 48  1  0  0  0  0
 28 49  1  0  0  0  0
M  END
> <PUBCHEM_COMPOUND_CID>
129786

> <PUBCHEM_CONFORMER_RMSD>
0.8

> <PUBCHEM_CONFORMER_DIVERSEORDER>
1
26
31
19
34
18
9
25
28
12
30
20
24
10
15
17
11
29
23
4
6
14
5
3
13
32
22
7
27
21
16
33
2
8

> <PUBCHEM_MMFF94_PARTIAL_CHARGES>
39
1 -0.57
10 0.27
11 0.27
12 0.37
13 0.37
14 0.33
15 0.57
16 0.55
17 0.12
18 0.43
19 0.09
2 -0.57
20 0.12
21 -0.15
22 0.54
23 -0.15
24 -0.15
25 -0.15
26 -0.15
27 -0.15
28 0.16
3 -0.81
39 0.15
4 -0.79
40 0.4
41 0.4
42 0.37
43 0.15
44 0.4
45 0.15
46 0.15
47 0.15
48 0.15
49 0.15
5 -0.29
6 -0.85
7 -0.55
8 -0.85
9 -0.62

> <PUBCHEM_EFFECTIVE_ROTOR_COUNT>
5.6

> <PUBCHEM_PHARMACOPHORE_FEATURES>
12
1 1 acceptor
1 2 acceptor
1 3 cation
1 6 donor
1 7 donor
1 8 donor
1 9 acceptor
4 4 6 8 16 cation
6 17 19 21 23 25 26 rings
6 3 4 10 11 12 13 rings
6 9 18 20 24 27 28 rings
7 5 7 17 18 19 20 22 rings

> <PUBCHEM_HEAVY_ATOM_COUNT>
28

> <PUBCHEM_ATOM_DEF_STEREO_COUNT>
0

> <PUBCHEM_ATOM_UDEF_STEREO_COUNT>
0

> <PUBCHEM_BOND_DEF_STEREO_COUNT>
0

> <PUBCHEM_BOND_UDEF_STEREO_COUNT>
0

> <PUBCHEM_ISOTOPIC_ATOM_COUNT>
0

> <PUBCHEM_COMPONENT_COUNT>
1

> <PUBCHEM_CACTVS_TAUTO_COUNT>
2

> <PUBCHEM_CONFORMER_ID>
0001FAFA00000001

> <PUBCHEM_MMFF94_ENERGY>
134.97

> <PUBCHEM_FEATURE_SELFOVERLAP>
60.969

> <PUBCHEM_SHAPE_FINGERPRINT>
10369192 42 14202836371982061994
107951 10 18268714913838101455
10928967 22 17203050781129998710
12616971 3 17676766462647611472
12714826 92 17989207083219057570
12788726 201 18337095835640503403
13383661 66 14978518880855153004
13690498 29 18270406104392250942
14251757 5 18411979178587250571
14713325 29 18409738373705623003
14932701 244 18042696185296065240
15463212 79 18187636951785312945
16994733 274 14780360433691835807
20101258 96 18339368590256650073
21033650 10 17344910711595284560
22393880 68 18409729573939677496
22907989 373 18335972160130911903
24941158 1 10988222868298814335
25265897 201 18052008889759158876
283562 15 18041845137231588147
3411729 13 17480587045397714745
3459 110 8646476419624887766
3610482 184 18042708172972068092
394222 165 17549536311283217385
4015057 19 16486391223363522176
4058900 60 17907583519594000441
4258327 124 17530693108091143381
437815 12 18194401332726274883
44062 13 18343586231145750468
469060 322 15213310750377338427
484985 159 15841555180207604999
4921388 177 18411985753870963932
497634 4 17968098646257209878
59755656 520 18261679164406204841
70251023 43 17843949580140379039

> <PUBCHEM_SHAPE_MULTIPOLES>
529.62
11.49
4.07
1.95
26.67
0.22
-0.89
1.7
-4.97
-7.63
0.98
-0.9
-0.39
-0.83

> <PUBCHEM_SHAPE_SELFOVERLAP>
1156.082

> <PUBCHEM_SHAPE_VOLUME>
283.8

> <PUBCHEM_COORDINATE_TYPE>
2
5
10

$$$$
