129734091
  -OEChem-03292013293D

 33 33  0     1  0  0  0  0  0999 V2000
   -0.2064   -1.7495   -0.9726 O   0  0  0  0  0  0  0  0  0  0  0  0
   -0.9666    0.9186   -1.7998 O   0  0  0  0  0  0  0  0  0  0  0  0
    0.3310    0.7175    1.6170 O   0  0  0  0  0  0  0  0  0  0  0  0
    1.7791    0.2758   -1.7201 O   0  0  0  0  0  0  0  0  0  0  0  0
   -1.6067   -1.4605    0.9127 O   0  0  0  0  0  0  0  0  0  0  0  0
   -1.8419    2.1465    1.0705 O   0  0  0  0  0  0  0  0  0  0  0  0
    3.4071   -0.8537    0.8508 O   0  0  0  0  0  0  0  0  0  0  0  0
   -0.9515    0.5125   -0.4279 C   0  0  2  0  0  0  0  0  0  0  0  0
    0.4181    0.8367    0.1950 C   0  0  2  0  0  0  0  0  0  0  0  0
    1.4991   -0.1003   -0.3722 C   0  0  1  0  0  0  0  0  0  0  0  0
   -1.2732   -0.9890   -0.3898 C   0  0  1  0  0  0  0  0  0  0  0  0
    1.0585   -1.5648   -0.3327 C   0  0  0  0  0  0  0  0  0  0  0  0
   -2.0583    1.3271    0.1789 C   0  0  0  0  0  0  0  0  0  0  0  0
    2.8124    0.0888    0.3301 C   0  0  0  0  0  0  0  0  0  0  0  0
   -3.4446    1.0908   -0.3569 C   0  0  0  0  0  0  0  0  0  0  0  0
    3.3652    1.4880    0.3665 C   0  0  0  0  0  0  0  0  0  0  0  0
   -2.3212   -2.6847    0.8504 C   0  0  0  0  0  0  0  0  0  0  0  0
    0.6675    1.8814   -0.0333 H   0  0  0  0  0  0  0  0  0  0  0  0
   -2.1297   -1.1666   -1.0536 H   0  0  0  0  0  0  0  0  0  0  0  0
    1.7722   -2.2006   -0.8689 H   0  0  0  0  0  0  0  0  0  0  0  0
    0.9940   -1.9439    0.6944 H   0  0  0  0  0  0  0  0  0  0  0  0
   -0.6614    1.8408   -1.8489 H   0  0  0  0  0  0  0  0  0  0  0  0
    1.1528    1.0582    2.0054 H   0  0  0  0  0  0  0  0  0  0  0  0
    2.3793   -0.3858   -2.1048 H   0  0  0  0  0  0  0  0  0  0  0  0
   -3.8398    0.1455    0.0211 H   0  0  0  0  0  0  0  0  0  0  0  0
   -3.4518    1.0961   -1.4490 H   0  0  0  0  0  0  0  0  0  0  0  0
   -4.1000    1.8986   -0.0164 H   0  0  0  0  0  0  0  0  0  0  0  0
    2.8062    2.1099    1.0677 H   0  0  0  0  0  0  0  0  0  0  0  0
    3.3520    1.9377   -0.6290 H   0  0  0  0  0  0  0  0  0  0  0  0
    4.4074    1.4494    0.6987 H   0  0  0  0  0  0  0  0  0  0  0  0
   -2.5241   -3.0140    1.8731 H   0  0  0  0  0  0  0  0  0  0  0  0
   -1.7306   -3.4583    0.3504 H   0  0  0  0  0  0  0  0  0  0  0  0
   -3.2785   -2.5487    0.3378 H   0  0  0  0  0  0  0  0  0  0  0  0
  1 11  1  0  0  0  0
  1 12  1  0  0  0  0
  2  8  1  0  0  0  0
  2 22  1  0  0  0  0
  3  9  1  0  0  0  0
  3 23  1  0  0  0  0
  4 10  1  0  0  0  0
  4 24  1  0  0  0  0
  5 11  1  0  0  0  0
  5 17  1  0  0  0  0
  6 13  2  0  0  0  0
  7 14  2  0  0  0  0
  8  9  1  0  0  0  0
  8 11  1  0  0  0  0
  8 13  1  0  0  0  0
  9 10  1  0  0  0  0
  9 18  1  0  0  0  0
 10 12  1  0  0  0  0
 10 14  1  0  0  0  0
 11 19  1  0  0  0  0
 12 20  1  0  0  0  0
 12 21  1  0  0  0  0
 13 15  1  0  0  0  0
 14 16  1  0  0  0  0
 15 25  1  0  0  0  0
 15 26  1  0  0  0  0
 15 27  1  0  0  0  0
 16 28  1  0  0  0  0
 16 29  1  0  0  0  0
 16 30  1  0  0  0  0
 17 31  1  0  0  0  0
 17 32  1  0  0  0  0
 17 33  1  0  0  0  0
M  END
> <PUBCHEM_COMPOUND_CID>
129734091

> <PUBCHEM_CONFORMER_RMSD>
0.6

> <PUBCHEM_CONFORMER_DIVERSEORDER>
1
14
11
13
12
4
17
15
16
9
7
2
10
3
6
5
8

> <PUBCHEM_MMFF94_PARTIAL_CHARGES>
20
1 -0.56
10 0.34
11 0.56
12 0.28
13 0.45
14 0.45
15 0.06
16 0.06
17 0.28
2 -0.68
22 0.4
23 0.4
24 0.4
3 -0.68
4 -0.68
5 -0.56
6 -0.57
7 -0.57
8 0.34
9 0.28

> <PUBCHEM_EFFECTIVE_ROTOR_COUNT>
4.2

> <PUBCHEM_PHARMACOPHORE_FEATURES>
11
1 1 acceptor
1 2 acceptor
1 2 donor
1 3 acceptor
1 3 donor
1 4 acceptor
1 4 donor
1 5 acceptor
1 6 acceptor
1 7 acceptor
6 1 8 9 10 11 12 rings

> <PUBCHEM_HEAVY_ATOM_COUNT>
17

> <PUBCHEM_ATOM_DEF_STEREO_COUNT>
4

> <PUBCHEM_ATOM_UDEF_STEREO_COUNT>
0

> <PUBCHEM_BOND_DEF_STEREO_COUNT>
0

> <PUBCHEM_BOND_UDEF_STEREO_COUNT>
0

> <PUBCHEM_ISOTOPIC_ATOM_COUNT>
0

> <PUBCHEM_COMPONENT_COUNT>
1

> <PUBCHEM_CACTVS_TAUTO_COUNT>
4

> <PUBCHEM_CONFORMER_ID>
07BB95CB00000001

> <PUBCHEM_MMFF94_ENERGY>
47.3465

> <PUBCHEM_FEATURE_SELFOVERLAP>
55.883

> <PUBCHEM_SHAPE_FINGERPRINT>
10863032 1 18335415798625336418
11086676 242 18120670281236030403
11680611 10 17677918848863770695
11680986 33 18198348359951749046
12138202 97 18334295353511751391
12251169 10 18334569101905489768
12423570 1 17749959855637573660
12932764 1 17603577492287345544
13024252 1 14129052595536302269
13172582 1 18113903710511093684
13380535 76 18341045212170779623
13538477 17 18187373137687502396
13571099 52 17559941148292866024
13581323 91 18187925045227388024
13764800 53 18343026609312026649
14787075 74 18343012312151998569
15490181 8 18198915707608211872
15775835 57 18261111868193955636
15852999 172 18264476313381599119
16945 1 18338815432754433325
17844478 74 18196941186772890026
18186145 218 17914900824751878317
19010151 120 16661757971910631606
20510252 161 18270123551125379090
20511035 2 18199196087547993814
20525323 117 18337387239979994494
21501502 16 18409724092886278418
21524375 3 18198052586870206125
22802520 49 17773622462891106636
23402539 116 18129360653706864549
23419403 2 17344330405937132019
23559900 14 18412821362061535714
2748010 2 18272944816389600206
305870 269 17831297203286395969
3071541 236 18335138683172540451
369184 2 17967523567426725596
4340502 62 18264489491032437513
68250623 7 17750528436240339829
81228 2 18262255407536842299

> <PUBCHEM_SHAPE_MULTIPOLES>
308.77
4.74
2.26
1.28
1.92
0.88
0.2
-0.85
-0.83
-1.62
-0.52
0
-0.12
0.34

> <PUBCHEM_SHAPE_SELFOVERLAP>
635.537

> <PUBCHEM_SHAPE_VOLUME>
174.2

> <PUBCHEM_COORDINATE_TYPE>
2
5
10

$$$$
