129736772
  -OEChem-03292013293D

 49 54  0     1  0  0  0  0  0999 V2000
    0.0300    0.6992    1.3673 O   0  0  0  0  0  0  0  0  0  0  0  0
   -2.8157   -1.6793   -0.3237 O   0  0  0  0  0  0  0  0  0  0  0  0
    1.7081    2.1968    1.9150 O   0  0  0  0  0  0  0  0  0  0  0  0
    0.2050   -5.3110   -0.6079 O   0  0  0  0  0  0  0  0  0  0  0  0
   -6.2236    1.4308    0.7306 O   0  0  0  0  0  0  0  0  0  0  0  0
    5.5833    1.1901    0.9661 N   0  0  0  0  0  0  0  0  0  0  0  0
   -0.6838    0.2559    0.1697 C   0  0  2  0  0  0  0  0  0  0  0  0
   -0.4351   -1.2291   -0.0066 C   0  0  0  0  0  0  0  0  0  0  0  0
   -0.0348    1.0852   -0.8911 C   0  0  0  0  0  0  0  0  0  0  0  0
   -2.1548    0.5743    0.3510 C   0  0  0  0  0  0  0  0  0  0  0  0
    0.9324    1.8963   -0.3254 C   0  0  0  0  0  0  0  0  0  0  0  0
   -1.5071   -2.0926   -0.2581 C   0  0  0  0  0  0  0  0  0  0  0  0
    0.8609   -1.7722    0.0443 C   0  0  0  0  0  0  0  0  0  0  0  0
   -3.1203   -0.4012    0.0780 C   0  0  0  0  0  0  0  0  0  0  0  0
    0.9782    1.6558    1.1087 C   0  0  0  0  0  0  0  0  0  0  0  0
   -0.2709    1.1305   -2.2561 C   0  0  0  0  0  0  0  0  0  0  0  0
   -2.5901    1.8468    0.7615 C   0  0  0  0  0  0  0  0  0  0  0  0
   -1.2921   -3.4595   -0.4643 C   0  0  0  0  0  0  0  0  0  0  0  0
    1.0748   -3.1374   -0.1541 C   0  0  0  0  0  0  0  0  0  0  0  0
    2.0734   -1.0121    0.2806 C   0  0  0  0  0  0  0  0  0  0  0  0
    1.6992    2.7754   -1.0678 C   0  0  0  0  0  0  0  0  0  0  0  0
   -4.4838   -0.1132    0.2009 C   0  0  0  0  0  0  0  0  0  0  0  0
   -0.0018   -3.9807   -0.4106 C   0  0  0  0  0  0  0  0  0  0  0  0
    0.4888    2.0100   -3.0332 C   0  0  0  0  0  0  0  0  0  0  0  0
   -3.9506    2.1322    0.8908 C   0  0  0  0  0  0  0  0  0  0  0  0
    1.4673    2.8269   -2.4425 C   0  0  0  0  0  0  0  0  0  0  0  0
   -4.8974    1.1525    0.6087 C   0  0  0  0  0  0  0  0  0  0  0  0
    2.7688   -0.4562   -0.7933 C   0  0  0  0  0  0  0  0  0  0  0  0
    2.5436   -0.8362    1.5821 C   0  0  0  0  0  0  0  0  0  0  0  0
    3.9344    0.2754   -0.5658 C   0  0  0  0  0  0  0  0  0  0  0  0
    3.7092   -0.1047    1.8095 C   0  0  0  0  0  0  0  0  0  0  0  0
    4.4046    0.4510    0.7357 C   0  0  0  0  0  0  0  0  0  0  0  0
   -1.0246    0.5019   -2.7181 H   0  0  0  0  0  0  0  0  0  0  0  0
   -1.8728    2.6338    0.9800 H   0  0  0  0  0  0  0  0  0  0  0  0
   -2.1383   -4.1135   -0.6623 H   0  0  0  0  0  0  0  0  0  0  0  0
    2.0770   -3.5613   -0.1174 H   0  0  0  0  0  0  0  0  0  0  0  0
    2.4533    3.4042   -0.6084 H   0  0  0  0  0  0  0  0  0  0  0  0
   -5.2188   -0.8840   -0.0197 H   0  0  0  0  0  0  0  0  0  0  0  0
    0.3220    2.0629   -4.1057 H   0  0  0  0  0  0  0  0  0  0  0  0
   -4.2631    3.1232    1.2085 H   0  0  0  0  0  0  0  0  0  0  0  0
    2.0481    3.5035   -3.0634 H   0  0  0  0  0  0  0  0  0  0  0  0
    2.4271   -0.5975   -1.8160 H   0  0  0  0  0  0  0  0  0  0  0  0
    2.0151   -1.2645    2.4306 H   0  0  0  0  0  0  0  0  0  0  0  0
    4.4695    0.7001   -1.4112 H   0  0  0  0  0  0  0  0  0  0  0  0
    4.0653    0.0254    2.8282 H   0  0  0  0  0  0  0  0  0  0  0  0
   -0.6510   -5.7425   -0.7722 H   0  0  0  0  0  0  0  0  0  0  0  0
   -6.7353    0.6378    0.4953 H   0  0  0  0  0  0  0  0  0  0  0  0
    6.0864    1.5959    0.1883 H   0  0  0  0  0  0  0  0  0  0  0  0
    5.9233    1.3197    1.9097 H   0  0  0  0  0  0  0  0  0  0  0  0
  1  7  1  0  0  0  0
  1 15  1  0  0  0  0
  2 12  1  0  0  0  0
  2 14  1  0  0  0  0
  3 15  2  0  0  0  0
  4 23  1  0  0  0  0
  4 46  1  0  0  0  0
  5 27  1  0  0  0  0
  5 47  1  0  0  0  0
  6 32  1  0  0  0  0
  6 48  1  0  0  0  0
  6 49  1  0  0  0  0
  7  8  1  0  0  0  0
  7  9  1  0  0  0  0
  7 10  1  0  0  0  0
  8 12  1  0  0  0  0
  8 13  2  0  0  0  0
  9 11  1  0  0  0  0
  9 16  2  0  0  0  0
 10 14  2  0  0  0  0
 10 17  1  0  0  0  0
 11 15  1  0  0  0  0
 11 21  2  0  0  0  0
 12 18  2  0  0  0  0
 13 19  1  0  0  0  0
 13 20  1  0  0  0  0
 14 22  1  0  0  0  0
 16 24  1  0  0  0  0
 16 33  1  0  0  0  0
 17 25  2  0  0  0  0
 17 34  1  0  0  0  0
 18 23  1  0  0  0  0
 18 35  1  0  0  0  0
 19 23  2  0  0  0  0
 19 36  1  0  0  0  0
 20 28  2  0  0  0  0
 20 29  1  0  0  0  0
 21 26  1  0  0  0  0
 21 37  1  0  0  0  0
 22 27  2  0  0  0  0
 22 38  1  0  0  0  0
 24 26  2  0  0  0  0
 24 39  1  0  0  0  0
 25 27  1  0  0  0  0
 25 40  1  0  0  0  0
 26 41  1  0  0  0  0
 28 30  1  0  0  0  0
 28 42  1  0  0  0  0
 29 31  2  0  0  0  0
 29 43  1  0  0  0  0
 30 32  2  0  0  0  0
 30 44  1  0  0  0  0
 31 32  1  0  0  0  0
 31 45  1  0  0  0  0
M  END
> <PUBCHEM_COMPOUND_CID>
129736772

> <PUBCHEM_CONFORMER_RMSD>
0.6

> <PUBCHEM_CONFORMER_DIVERSEORDER>
1
2

> <PUBCHEM_MMFF94_PARTIAL_CHARGES>
47
1 -0.43
10 -0.14
11 0.09
12 0.08
14 0.08
15 0.63
16 -0.15
17 -0.15
18 -0.15
19 -0.15
2 -0.17
21 -0.15
22 -0.15
23 0.08
24 -0.15
25 -0.15
26 -0.15
27 0.08
28 -0.15
29 -0.15
3 -0.57
30 -0.15
31 -0.15
32 0.1
33 0.15
34 0.15
35 0.15
36 0.15
37 0.15
38 0.15
39 0.15
4 -0.53
40 0.15
41 0.15
42 0.15
43 0.15
44 0.15
45 0.15
46 0.45
47 0.45
48 0.4
49 0.4
5 -0.53
6 -0.9
7 0.71
8 -0.14
9 -0.14

> <PUBCHEM_EFFECTIVE_ROTOR_COUNT>
1.4

> <PUBCHEM_PHARMACOPHORE_FEATURES>
12
1 2 acceptor
1 3 acceptor
1 4 donor
1 5 donor
1 6 cation
1 6 donor
5 1 7 9 11 15 rings
6 10 14 17 22 25 27 rings
6 2 7 8 10 12 14 rings
6 20 28 29 30 31 32 rings
6 8 12 13 18 19 23 rings
6 9 11 16 21 24 26 rings

> <PUBCHEM_HEAVY_ATOM_COUNT>
32

> <PUBCHEM_ATOM_DEF_STEREO_COUNT>
0

> <PUBCHEM_ATOM_UDEF_STEREO_COUNT>
1

> <PUBCHEM_BOND_DEF_STEREO_COUNT>
0

> <PUBCHEM_BOND_UDEF_STEREO_COUNT>
0

> <PUBCHEM_ISOTOPIC_ATOM_COUNT>
0

> <PUBCHEM_COMPONENT_COUNT>
1

> <PUBCHEM_CACTVS_TAUTO_COUNT>
51

> <PUBCHEM_CONFORMER_ID>
07BBA04400000001

> <PUBCHEM_MMFF94_ENERGY>
124.8379

> <PUBCHEM_FEATURE_SELFOVERLAP>
61.045

> <PUBCHEM_SHAPE_FINGERPRINT>
10064457 181 18341608278067115128
10165383 225 18341333301892829608
10493431 412 18413105060923892498
10863032 1 17917998235233223032
1100329 8 18339922743995502232
11513181 2 18060419118630327918
11578080 2 17758964722667674421
12107698 1 17823423888720752827
12403259 226 17328309043809462351
12403814 3 17967800640014550056
12422481 6 17970898964870820312
12788726 201 16532593049881543500
13009979 54 17758953010713487186
13140716 1 18339920536677756851
133893 2 16374089515289611572
138480 1 17693942886556462715
13965767 371 18264193721823979746
14787075 74 17845924199754784641
14790565 3 18413111662394751768
14840074 17 17967819362061953828
14863182 85 18340221682472638591
14955137 171 18262257541681667200
15297060 5 18201169809888475610
15420108 30 18341317916925050739
1601671 61 18334017159483847013
16945 1 18412537691454385099
17980427 26 17486738996751621272
1813 80 17604154718147959189
18365409 1 18271801393507281519
20600515 1 18411703227249680268
20642791 178 18261405493443177757
20691752 17 17969509199422076955
20739085 24 18190469259315453987
21033648 29 18201430415413172210
21330990 113 18265614282172845612
21756936 100 16982344862914951232
22149856 69 18198370415689489675
22182313 1 17826792534676275917
229495 10 17908965631009712245
23419403 2 17472409955186595237
23558518 356 17829892388334992570
23559900 14 18059864961075418428
350125 39 18339364192568717803
4340502 62 18272931587737302200
44280117 145 17908704279236788092
463206 1 16535666202483104182
57527306 92 16951432965372485086

> <PUBCHEM_SHAPE_MULTIPOLES>
624.22
7.87
4.42
1.87
4.97
5.53
-0.86
-4.08
4.07
-0.02
-1.95
-1.18
-1.63
-1.01

> <PUBCHEM_SHAPE_SELFOVERLAP>
1452.695

> <PUBCHEM_SHAPE_VOLUME>
314

> <PUBCHEM_COORDINATE_TYPE>
2
5
10

$$$$
