129720114
  -OEChem-03292013293D

 32 32  0     1  0  0  0  0  0999 V2000
    3.4638    1.5083    0.3375 O   0  0  0  0  0  0  0  0  0  0  0  0
    1.1173    2.3547    1.0418 O   0  0  0  0  0  0  0  0  0  0  0  0
    1.9955   -0.9167   -1.7802 O   0  0  0  0  0  0  0  0  0  0  0  0
    2.9845    1.0650   -2.2579 O   0  0  0  0  0  0  0  0  0  0  0  0
    3.9213   -2.6924    1.0518 O   0  0  0  0  0  0  0  0  0  0  0  0
    4.9724   -0.8928    0.1359 O   0  0  0  0  0  0  0  0  0  0  0  0
   -6.3440   -1.2994   -0.4003 O   0  0  0  0  0  0  0  0  0  0  0  0
    2.4243    0.5617    0.0665 C   0  0  1  0  0  0  0  0  0  0  0  0
    2.6979   -0.6699    0.9506 C   0  0  0  0  0  0  0  0  0  0  0  0
    1.1189    1.2540    0.4912 C   0  0  0  0  0  0  0  0  0  0  0  0
    2.5126    0.2923   -1.4340 C   0  0  0  0  0  0  0  0  0  0  0  0
   -0.1631    0.5387    0.2042 C   0  0  0  0  0  0  0  0  0  0  0  0
    3.9868   -1.3980    0.6536 C   0  0  0  0  0  0  0  0  0  0  0  0
   -1.3386    1.0839    0.5471 C   0  0  0  0  0  0  0  0  0  0  0  0
   -2.6502    0.4595    0.3004 C   0  0  0  0  0  0  0  0  0  0  0  0
   -2.7365   -0.9134    0.0689 C   0  0  0  0  0  0  0  0  0  0  0  0
   -3.8055    1.2412    0.2971 C   0  0  0  0  0  0  0  0  0  0  0  0
   -3.9777   -1.5044   -0.1663 C   0  0  0  0  0  0  0  0  0  0  0  0
   -5.0468    0.6502    0.0619 C   0  0  0  0  0  0  0  0  0  0  0  0
   -5.1329   -0.7225   -0.1699 C   0  0  0  0  0  0  0  0  0  0  0  0
    1.8775   -1.3897    0.8391 H   0  0  0  0  0  0  0  0  0  0  0  0
    2.7374   -0.3785    2.0078 H   0  0  0  0  0  0  0  0  0  0  0  0
   -0.0827   -0.4176   -0.2954 H   0  0  0  0  0  0  0  0  0  0  0  0
    3.5393    1.6134    1.3014 H   0  0  0  0  0  0  0  0  0  0  0  0
   -1.3726    2.0580    1.0292 H   0  0  0  0  0  0  0  0  0  0  0  0
   -1.8680   -1.5652    0.0827 H   0  0  0  0  0  0  0  0  0  0  0  0
   -3.7570    2.3129    0.4743 H   0  0  0  0  0  0  0  0  0  0  0  0
   -4.0397   -2.5750   -0.3418 H   0  0  0  0  0  0  0  0  0  0  0  0
   -5.9393    1.2702    0.0613 H   0  0  0  0  0  0  0  0  0  0  0  0
    2.0540   -1.0758   -2.7463 H   0  0  0  0  0  0  0  0  0  0  0  0
    4.7563   -3.1742    0.8703 H   0  0  0  0  0  0  0  0  0  0  0  0
   -7.0317   -0.6123   -0.3666 H   0  0  0  0  0  0  0  0  0  0  0  0
  1  8  1  0  0  0  0
  1 24  1  0  0  0  0
  2 10  2  0  0  0  0
  3 11  1  0  0  0  0
  3 30  1  0  0  0  0
  4 11  2  0  0  0  0
  5 13  1  0  0  0  0
  5 31  1  0  0  0  0
  6 13  2  0  0  0  0
  7 20  1  0  0  0  0
  7 32  1  0  0  0  0
  8  9  1  0  0  0  0
  8 10  1  0  0  0  0
  8 11  1  0  0  0  0
  9 13  1  0  0  0  0
  9 21  1  0  0  0  0
  9 22  1  0  0  0  0
 10 12  1  0  0  0  0
 12 14  2  0  0  0  0
 12 23  1  0  0  0  0
 14 15  1  0  0  0  0
 14 25  1  0  0  0  0
 15 16  2  0  0  0  0
 15 17  1  0  0  0  0
 16 18  1  0  0  0  0
 16 26  1  0  0  0  0
 17 19  2  0  0  0  0
 17 27  1  0  0  0  0
 18 20  2  0  0  0  0
 18 28  1  0  0  0  0
 19 20  1  0  0  0  0
 19 29  1  0  0  0  0
M  END
> <PUBCHEM_COMPOUND_CID>
129720114

> <PUBCHEM_CONFORMER_RMSD>
0.8

> <PUBCHEM_CONFORMER_DIVERSEORDER>
1
30
65
68
71
60
16
37
15
53
70
9
4
86
66
29
87
52
51
81
89
7
64
54
62
88
75
43
82
8
76
73
63
56
83
6
47
33
48
84
72
38
85
32
12
46
17
69
58
39
41
10
74
14
11
45
34
19
79
67
40
49
18
59
57
55
78
36
80
77
27
31
20
42
3
2
24
21
35
25
61
26
44
50
23
22
5
13
28

> <PUBCHEM_MMFF94_PARTIAL_CHARGES>
30
1 -0.68
10 0.49
11 0.66
12 -0.14
13 0.66
14 -0.18
15 0.03
16 -0.15
17 -0.15
18 -0.15
19 -0.15
2 -0.57
20 0.08
23 0.15
24 0.4
25 0.15
26 0.15
27 0.15
28 0.15
29 0.15
3 -0.65
30 0.5
31 0.5
32 0.45
4 -0.57
5 -0.65
6 -0.57
7 -0.53
8 0.4
9 0.06

> <PUBCHEM_EFFECTIVE_ROTOR_COUNT>
6

> <PUBCHEM_PHARMACOPHORE_FEATURES>
11
1 1 acceptor
1 1 donor
1 2 acceptor
1 3 acceptor
1 4 acceptor
1 5 acceptor
1 6 acceptor
1 7 donor
3 3 4 11 anion
3 5 6 13 anion
6 15 16 17 18 19 20 rings

> <PUBCHEM_HEAVY_ATOM_COUNT>
20

> <PUBCHEM_ATOM_DEF_STEREO_COUNT>
0

> <PUBCHEM_ATOM_UDEF_STEREO_COUNT>
1

> <PUBCHEM_BOND_DEF_STEREO_COUNT>
1

> <PUBCHEM_BOND_UDEF_STEREO_COUNT>
0

> <PUBCHEM_ISOTOPIC_ATOM_COUNT>
0

> <PUBCHEM_COMPONENT_COUNT>
1

> <PUBCHEM_CACTVS_TAUTO_COUNT>
5

> <PUBCHEM_CONFORMER_ID>
07BB5F3200000001

> <PUBCHEM_MMFF94_ENERGY>
44.7147

> <PUBCHEM_FEATURE_SELFOVERLAP>
55.962

> <PUBCHEM_SHAPE_FINGERPRINT>
10447042 23 18342165683122720895
10670039 82 11386637473655102222
11796584 16 18341051817730299567
12633257 1 18202292389980562505
13073987 5 18412542120135698313
13167823 11 18409444782794683235
13533116 47 18408880759194610859
13675066 3 15985109591820952025
14178342 30 17487629528113536144
14252887 29 16200157564606571644
14863182 85 18200881682208396710
15196674 1 18412259541257108993
15342816 4 18341901791805787236
15788980 27 18113620066987244577
17857418 61 18413102862512806787
18186145 218 14779555594741644201
19784866 240 18337111159556021834
20281475 54 18410013221669147817
20369508 70 18342452664326840704
20403669 9 18273498987846476191
20645477 70 18273217516584575068
21250096 35 18340482279397084938
22224240 67 16199855233722345546
22646028 1 18412543223963190665
22646028 28 18411697668918648211
23557571 272 17559396851419575192
23559900 14 18341321280089847553
239999 70 17917156108190222508
29717793 49 17676202477301142389
3004659 81 18260827081433385082
3286 77 18410568487794025673
4214541 1 18412260610836243737
427121 178 15051725396404663278
46194498 28 16877663469751818926
465052 167 18273496792495929623
4921388 177 16443636795738159587
5104073 3 18131072662668741889
5281201 14 17095237003956642381
54040823 5 18272089435261809232
542803 24 10015865379719306081
559249 180 18338228255328520827
573450 72 18341610378765052481
633830 44 16660364775252335601
7164475 11 17968095266150012300
960060 61 18040720281122480429
9709674 26 18199187480886842587
9841814 1 18060142067427181496
9971528 1 17676204676045193396

> <PUBCHEM_SHAPE_MULTIPOLES>
370.51
12.28
2
1.24
10.34
0.34
-0.71
5.44
-0.36
-1.09
0.52
-1.59
-0.09
-1.11

> <PUBCHEM_SHAPE_SELFOVERLAP>
775.835

> <PUBCHEM_SHAPE_VOLUME>
206.3

> <PUBCHEM_COORDINATE_TYPE>
2
5
10

$$$$
