129799
  -OEChem-03292013323D

 46 46  0     1  0  0  0  0  0999 V2000
   -3.8407   -0.4570    1.7484 F   0  0  0  0  0  0  0  0  0  0  0  0
   -5.8990   -0.4474    1.0271 F   0  0  0  0  0  0  0  0  0  0  0  0
   -5.0080    1.3822    1.8065 F   0  0  0  0  0  0  0  0  0  0  0  0
    2.5413    1.3104   -0.2716 O   0  0  0  0  0  0  0  0  0  0  0  0
    0.4960    0.4460   -0.9753 O   0  0  0  0  0  0  0  0  0  0  0  0
    3.9117   -2.4583    0.7444 O   0  0  0  0  0  0  0  0  0  0  0  0
    4.8743   -0.2723   -0.6669 O   0  0  0  0  0  0  0  0  0  0  0  0
    4.0083    3.6405    0.8046 O   0  0  0  0  0  0  0  0  0  0  0  0
    0.1473   -2.4395   -1.6838 O   0  0  0  0  0  0  0  0  0  0  0  0
   -4.9430    1.2905   -1.0950 O   0  0  0  0  0  0  0  0  0  0  0  0
    1.0512   -2.0136    0.4184 N   0  0  0  0  0  0  0  0  0  0  0  0
   -2.9989    0.1199   -0.5699 N   0  0  0  0  0  0  0  0  0  0  0  0
    2.0732   -1.0736    0.0065 C   0  0  2  0  0  0  0  0  0  0  0  0
    3.2967   -1.1849    0.9232 C   0  0  2  0  0  0  0  0  0  0  0  0
    4.3107   -0.0766    0.6317 C   0  0  2  0  0  0  0  0  0  0  0  0
    3.6164    1.2873    0.6738 C   0  0  1  0  0  0  0  0  0  0  0  0
    1.5175    0.3581    0.0176 C   0  0  1  0  0  0  0  0  0  0  0  0
    4.5603    2.4300    0.3184 C   0  0  0  0  0  0  0  0  0  0  0  0
   -0.3633    1.5491   -0.7345 C   0  0  0  0  0  0  0  0  0  0  0  0
    0.1763   -2.6146   -0.4685 C   0  0  0  0  0  0  0  0  0  0  0  0
   -1.4439    1.5724   -1.8088 C   0  0  0  0  0  0  0  0  0  0  0  0
   -2.3011    0.3135   -1.8115 C   0  0  0  0  0  0  0  0  0  0  0  0
   -0.7657   -3.5660    0.2194 C   0  0  0  0  0  0  0  0  0  0  0  0
   -4.2660    0.6266   -0.3151 C   0  0  0  0  0  0  0  0  0  0  0  0
   -4.7517    0.2775    1.0608 C   0  0  0  0  0  0  0  0  0  0  0  0
    2.3649   -1.3412   -1.0179 H   0  0  0  0  0  0  0  0  0  0  0  0
    2.9792   -1.1188    1.9720 H   0  0  0  0  0  0  0  0  0  0  0  0
    5.1338   -0.1292    1.3535 H   0  0  0  0  0  0  0  0  0  0  0  0
    3.1970    1.4639    1.6733 H   0  0  0  0  0  0  0  0  0  0  0  0
    1.0902    0.5766    1.0067 H   0  0  0  0  0  0  0  0  0  0  0  0
    5.5354    2.2978    0.7979 H   0  0  0  0  0  0  0  0  0  0  0  0
    4.6931    2.5266   -0.7641 H   0  0  0  0  0  0  0  0  0  0  0  0
    0.9418   -2.1945    1.4124 H   0  0  0  0  0  0  0  0  0  0  0  0
    4.6828   -2.4964    1.3356 H   0  0  0  0  0  0  0  0  0  0  0  0
    5.6338    0.3279   -0.7550 H   0  0  0  0  0  0  0  0  0  0  0  0
   -0.8137    1.4725    0.2617 H   0  0  0  0  0  0  0  0  0  0  0  0
    0.2115    2.4811   -0.7830 H   0  0  0  0  0  0  0  0  0  0  0  0
   -2.0764    2.4554   -1.6605 H   0  0  0  0  0  0  0  0  0  0  0  0
   -0.9709    1.6657   -2.7938 H   0  0  0  0  0  0  0  0  0  0  0  0
    4.6277    4.3529    0.5713 H   0  0  0  0  0  0  0  0  0  0  0  0
   -3.0361    0.3793   -2.6216 H   0  0  0  0  0  0  0  0  0  0  0  0
   -1.6960   -0.5784   -1.9928 H   0  0  0  0  0  0  0  0  0  0  0  0
   -1.3442   -3.0314    0.9783 H   0  0  0  0  0  0  0  0  0  0  0  0
   -1.4554   -3.9962   -0.5120 H   0  0  0  0  0  0  0  0  0  0  0  0
   -0.1981   -4.3722    0.6922 H   0  0  0  0  0  0  0  0  0  0  0  0
   -2.5303   -0.4155    0.1556 H   0  0  0  0  0  0  0  0  0  0  0  0
  1 25  1  0  0  0  0
  2 25  1  0  0  0  0
  3 25  1  0  0  0  0
  4 16  1  0  0  0  0
  4 17  1  0  0  0  0
  5 17  1  0  0  0  0
  5 19  1  0  0  0  0
  6 14  1  0  0  0  0
  6 34  1  0  0  0  0
  7 15  1  0  0  0  0
  7 35  1  0  0  0  0
  8 18  1  0  0  0  0
  8 40  1  0  0  0  0
  9 20  2  0  0  0  0
 10 24  2  0  0  0  0
 11 13  1  0  0  0  0
 11 20  1  0  0  0  0
 11 33  1  0  0  0  0
 12 22  1  0  0  0  0
 12 24  1  0  0  0  0
 12 46  1  0  0  0  0
 13 14  1  0  0  0  0
 13 17  1  0  0  0  0
 13 26  1  0  0  0  0
 14 15  1  0  0  0  0
 14 27  1  0  0  0  0
 15 16  1  0  0  0  0
 15 28  1  0  0  0  0
 16 18  1  0  0  0  0
 16 29  1  0  0  0  0
 17 30  1  0  0  0  0
 18 31  1  0  0  0  0
 18 32  1  0  0  0  0
 19 21  1  0  0  0  0
 19 36  1  0  0  0  0
 19 37  1  0  0  0  0
 20 23  1  0  0  0  0
 21 22  1  0  0  0  0
 21 38  1  0  0  0  0
 21 39  1  0  0  0  0
 22 41  1  0  0  0  0
 22 42  1  0  0  0  0
 23 43  1  0  0  0  0
 23 44  1  0  0  0  0
 23 45  1  0  0  0  0
 24 25  1  0  0  0  0
M  END
> <PUBCHEM_COMPOUND_CID>
129799

> <PUBCHEM_CONFORMER_RMSD>
1

> <PUBCHEM_CONFORMER_DIVERSEORDER>
1
128
10
164
139
60
29
11
140
51
103
106
71
149
110
173
45
148
133
176
17
81
70
78
41
34
137
175
115
59
117
131
9
146
30
32
119
19
130
111
168
73
101
83
79
20
12
25
52
167
13
172
57
42
74
69
44
98
162
159
36
147
99
100
125
5
129
108
135
151
62
61
116
107
38
31
178
121
138
54
27
8
18
88
56
132
80
26
37
72
89
155
21
53
144
85
124
156
92
39
163
66
95
152
153
6
7
136
127
170
145
150
165
94
67
68
50
97
46
134
47
174
14
24
114
154
157
112
84
96
75
158
143
16
104
122
58
63
142
120
161
40
28
48
91
166
141
65
123
160
3
87
90
169
4
109
177
15
102
171
43
22
86
118
64
126
2
33
55
93
76
82
77
113
35
49
23
105

> <PUBCHEM_MMFF94_PARTIAL_CHARGES>
29
1 -0.34
10 -0.57
11 -0.73
12 -0.73
13 0.3
14 0.28
15 0.28
16 0.28
17 0.56
18 0.28
19 0.28
2 -0.34
20 0.57
22 0.3
23 0.06
24 0.57
25 1.08
3 -0.34
33 0.37
34 0.4
35 0.4
4 -0.56
40 0.4
46 0.37
5 -0.56
6 -0.68
7 -0.68
8 -0.68
9 -0.57

> <PUBCHEM_EFFECTIVE_ROTOR_COUNT>
11.2

> <PUBCHEM_PHARMACOPHORE_FEATURES>
13
1 10 acceptor
1 11 donor
1 12 donor
1 4 acceptor
1 5 acceptor
1 6 acceptor
1 6 donor
1 7 acceptor
1 7 donor
1 8 acceptor
1 8 donor
1 9 acceptor
6 4 13 14 15 16 17 rings

> <PUBCHEM_HEAVY_ATOM_COUNT>
25

> <PUBCHEM_ATOM_DEF_STEREO_COUNT>
5

> <PUBCHEM_ATOM_UDEF_STEREO_COUNT>
0

> <PUBCHEM_BOND_DEF_STEREO_COUNT>
0

> <PUBCHEM_BOND_UDEF_STEREO_COUNT>
0

> <PUBCHEM_ISOTOPIC_ATOM_COUNT>
0

> <PUBCHEM_COMPONENT_COUNT>
1

> <PUBCHEM_CACTVS_TAUTO_COUNT>
4

> <PUBCHEM_CONFORMER_ID>
0001FB0700000001

> <PUBCHEM_MMFF94_ENERGY>
41.3803

> <PUBCHEM_FEATURE_SELFOVERLAP>
66.038

> <PUBCHEM_SHAPE_FINGERPRINT>
10493431 412 18339077219432553061
11045977 3 17968374537792129623
11488393 25 17983299218476297342
11578080 2 17629747123306799058
1200032 147 15337188250434557939
12035758 1 18339345380918131186
12390115 104 17977947118595937844
12596602 18 18131355241409933377
12633257 1 18340190943444663062
13140716 1 18264753532741863264
13402501 40 18040718018144402227
13583140 156 16300040525379053188
14341114 328 17917996079360146209
14790565 3 17683813485852396596
20261772 1 18333448763522671231
20739085 24 18335713693093877396
23557571 272 16878781565956026293
23559900 14 17313663729083529726
469060 322 16879611898692634990
5104073 3 18048576395663481072
633830 44 18060416919574604908
6438718 38 18057032721621806006

> <PUBCHEM_SHAPE_MULTIPOLES>
441.62
11.58
3.39
1.5
8.13
1.41
-0.1
-5.46
4.92
-3.02
0.09
1.8
-0.23
0.57

> <PUBCHEM_SHAPE_SELFOVERLAP>
886.144

> <PUBCHEM_SHAPE_VOLUME>
257.5

> <PUBCHEM_COORDINATE_TYPE>
2
5
10

$$$$
