129760095
  -OEChem-03292013293D

 35 36  0     1  0  0  0  0  0999 V2000
   -0.4239   -4.7249    0.4380 I   0  0  0  0  0  0  0  0  0  0  0  0
   -0.4689    1.9995   -1.1328 O   0  0  0  0  0  0  0  0  0  0  0  0
   -3.1423    0.6247   -1.3863 O   0  0  0  0  0  0  0  0  0  0  0  0
   -2.5375    3.6958    1.3043 O   0  0  0  0  0  0  0  0  0  0  0  0
    1.5304   -1.5425   -1.6689 O   0  0  0  0  0  0  0  0  0  0  0  0
   -2.1300   -1.9267    1.8737 O   0  0  0  0  0  0  0  0  0  0  0  0
    4.9499    0.1233    0.9341 O   0  0  0  0  0  0  0  0  0  0  0  0
    1.1648    0.4491   -0.5037 N   0  0  0  0  0  0  0  0  0  0  0  0
   -1.5247   -1.3550   -0.2953 N   0  0  0  0  0  0  0  0  0  0  0  0
    3.2321   -0.7113   -0.3722 N   0  0  0  0  0  0  0  0  0  0  0  0
   -1.2158    0.0223   -0.0343 C   0  0  2  0  0  0  0  0  0  0  0  0
   -2.3914    0.9653   -0.2204 C   0  0  1  0  0  0  0  0  0  0  0  0
   -0.1780    0.5992   -0.9888 C   0  0  1  0  0  0  0  0  0  0  0  0
   -1.7041    2.3042   -0.4545 C   0  0  1  0  0  0  0  0  0  0  0  0
   -1.3700    3.0416    0.8356 C   0  0  0  0  0  0  0  0  0  0  0  0
    1.9376   -0.6635   -0.9064 C   0  0  0  0  0  0  0  0  0  0  0  0
    1.6981    1.3980    0.3587 C   0  0  0  0  0  0  0  0  0  0  0  0
   -1.9606   -2.2230    0.6920 C   0  0  0  0  0  0  0  0  0  0  0  0
    2.9339    1.3391    0.8592 C   0  0  0  0  0  0  0  0  0  0  0  0
   -2.2084   -3.6230    0.1774 C   0  0  0  0  0  0  0  0  0  0  0  0
    3.8088    0.2078    0.4907 C   0  0  0  0  0  0  0  0  0  0  0  0
   -0.8628    0.1045    1.0020 H   0  0  0  0  0  0  0  0  0  0  0  0
   -3.0805    0.9605    0.6298 H   0  0  0  0  0  0  0  0  0  0  0  0
   -0.2610    0.1531   -1.9875 H   0  0  0  0  0  0  0  0  0  0  0  0
   -2.2949    2.9499   -1.1142 H   0  0  0  0  0  0  0  0  0  0  0  0
   -1.0044    2.3729    1.6205 H   0  0  0  0  0  0  0  0  0  0  0  0
   -0.6064    3.8056    0.6547 H   0  0  0  0  0  0  0  0  0  0  0  0
   -1.4614   -1.6878   -1.2530 H   0  0  0  0  0  0  0  0  0  0  0  0
   -3.8559    1.2795   -1.4738 H   0  0  0  0  0  0  0  0  0  0  0  0
    1.0776    2.2324    0.6434 H   0  0  0  0  0  0  0  0  0  0  0  0
   -2.2943    4.1668    2.1194 H   0  0  0  0  0  0  0  0  0  0  0  0
    3.8071   -1.5029   -0.6468 H   0  0  0  0  0  0  0  0  0  0  0  0
    3.3180    2.0970    1.5309 H   0  0  0  0  0  0  0  0  0  0  0  0
   -2.5141   -3.5964   -0.8736 H   0  0  0  0  0  0  0  0  0  0  0  0
   -3.0375   -4.0579    0.7453 H   0  0  0  0  0  0  0  0  0  0  0  0
  1 20  1  0  0  0  0
  2 13  1  0  0  0  0
  2 14  1  0  0  0  0
  3 12  1  0  0  0  0
  3 29  1  0  0  0  0
  4 15  1  0  0  0  0
  4 31  1  0  0  0  0
  5 16  2  0  0  0  0
  6 18  2  0  0  0  0
  7 21  2  0  0  0  0
  8 13  1  0  0  0  0
  8 16  1  0  0  0  0
  8 17  1  0  0  0  0
  9 11  1  0  0  0  0
  9 18  1  0  0  0  0
  9 28  1  0  0  0  0
 10 16  1  0  0  0  0
 10 21  1  0  0  0  0
 10 32  1  0  0  0  0
 11 12  1  0  0  0  0
 11 13  1  0  0  0  0
 11 22  1  0  0  0  0
 12 14  1  0  0  0  0
 12 23  1  0  0  0  0
 13 24  1  0  0  0  0
 14 15  1  0  0  0  0
 14 25  1  0  0  0  0
 15 26  1  0  0  0  0
 15 27  1  0  0  0  0
 17 19  2  0  0  0  0
 17 30  1  0  0  0  0
 18 20  1  0  0  0  0
 19 21  1  0  0  0  0
 19 33  1  0  0  0  0
 20 34  1  0  0  0  0
 20 35  1  0  0  0  0
M  END
> <PUBCHEM_COMPOUND_CID>
129760095

> <PUBCHEM_CONFORMER_RMSD>
0.8

> <PUBCHEM_CONFORMER_DIVERSEORDER>
1
24
9
12
46
13
38
42
25
5
6
20
40
31
36
17
18
19
32
28
23
21
44
2
34
26
35
14
16
15
39
10
22
33
4
37
7
45
30
8
43
27
11
29
47
41
3

> <PUBCHEM_MMFF94_PARTIAL_CHARGES>
27
1 -0.19
10 -0.49
11 0.3
12 0.28
13 0.58
14 0.28
15 0.28
16 0.69
17 -0.04
18 0.57
19 -0.14
2 -0.56
20 0.25
21 0.62
28 0.37
29 0.4
3 -0.68
30 0.15
31 0.4
32 0.37
33 0.15
4 -0.68
5 -0.57
6 -0.57
7 -0.57
8 -0.47
9 -0.73

> <PUBCHEM_EFFECTIVE_ROTOR_COUNT>
6

> <PUBCHEM_PHARMACOPHORE_FEATURES>
13
1 1 hydrophobe
1 10 donor
1 2 acceptor
1 3 acceptor
1 3 donor
1 4 acceptor
1 4 donor
1 5 acceptor
1 6 acceptor
1 7 acceptor
1 9 donor
5 2 11 12 13 14 rings
6 8 10 16 17 19 21 rings

> <PUBCHEM_HEAVY_ATOM_COUNT>
21

> <PUBCHEM_ATOM_DEF_STEREO_COUNT>
4

> <PUBCHEM_ATOM_UDEF_STEREO_COUNT>
0

> <PUBCHEM_BOND_DEF_STEREO_COUNT>
0

> <PUBCHEM_BOND_UDEF_STEREO_COUNT>
0

> <PUBCHEM_ISOTOPIC_ATOM_COUNT>
0

> <PUBCHEM_COMPONENT_COUNT>
1

> <PUBCHEM_CACTVS_TAUTO_COUNT>
6

> <PUBCHEM_CONFORMER_ID>
07BBFB5F00000001

> <PUBCHEM_MMFF94_ENERGY>
49.5703

> <PUBCHEM_FEATURE_SELFOVERLAP>
65.98

> <PUBCHEM_SHAPE_FINGERPRINT>
10366900 7 18201991153685554724
12553582 1 17975715087672684439
12633257 1 18200327643942472898
13083527 12 17330262287323773075
13140716 1 18268428121206607296
14081887 123 18338226167689578506
14844126 61 18189319312250959138
14955137 171 17188140522677621892
16945 1 18341342136081732604
17980427 26 17620743999380202076
19049666 15 18127702538727171918
19930381 70 17256228359900978298
20510252 161 18341327799771074697
20600515 1 18191589863743872943
21650355 55 18266457787853525243
23402539 116 18340187644883445429
23419403 2 15190741220817037375
23557571 272 18339646758118812646
23558518 356 18270684138973654541
23559900 14 18265036089734412496
257057 1 17831577952450810031
2748010 2 18269560605334946102
3380486 145 18050005798959151539
5845 1 18047780335716152515
58807428 26 18050566244403755577
81228 2 18334590039723332109
8809292 202 18410569583158216892
9709674 26 18343016671147957630
9981440 41 17701794666952189040

> <PUBCHEM_SHAPE_MULTIPOLES>
393.95
5.72
5.28
1.31
1.24
2.37
0.01
-6.85
1.93
-1.98
1.09
-0.12
0.22
0.49

> <PUBCHEM_SHAPE_SELFOVERLAP>
799.167

> <PUBCHEM_SHAPE_VOLUME>
233.3

> <PUBCHEM_COORDINATE_TYPE>
2
5
10

$$$$
