129724659
  -OEChem-03292013293D

 32 33  0     0  0  0  0  0  0999 V2000
    1.2933   -1.1955   -0.2613 O   0  0  0  0  0  0  0  0  0  0  0  0
    1.2830    1.2738   -0.2368 O   0  0  0  0  0  0  0  0  0  0  0  0
   -1.2933   -1.1955    0.2612 O   0  0  0  0  0  0  0  0  0  0  0  0
   -1.2830    1.2738    0.2368 O   0  0  0  0  0  0  0  0  0  0  0  0
   -2.8460   -2.8200    0.0419 O   0  0  0  0  0  0  0  0  0  0  0  0
   -2.9361    2.7956    0.2200 O   0  0  0  0  0  0  0  0  0  0  0  0
    2.8461   -2.8201   -0.0419 O   0  0  0  0  0  0  0  0  0  0  0  0
    2.9360    2.7957   -0.2200 O   0  0  0  0  0  0  0  0  0  0  0  0
    0.6243    0.0297    1.7347 N   0  0  0  0  0  0  0  0  0  0  0  0
   -0.6244    0.0296   -1.7347 N   0  0  0  0  0  0  0  0  0  0  0  0
    0.7195    0.0296    0.2697 C   0  0  0  0  0  0  0  0  0  0  0  0
   -0.7195    0.0296   -0.2696 C   0  0  0  0  0  0  0  0  0  0  0  0
   -3.4743   -0.5990   -0.5925 C   0  0  0  0  0  0  0  0  0  0  0  0
    3.4744   -0.5989    0.5924 C   0  0  0  0  0  0  0  0  0  0  0  0
    3.5880    0.5120   -0.4262 C   0  0  0  0  0  0  0  0  0  0  0  0
   -3.5880    0.5120    0.4261 C   0  0  0  0  0  0  0  0  0  0  0  0
   -2.5887    1.6167    0.2375 C   0  0  0  0  0  0  0  0  0  0  0  0
    2.5233   -1.6428    0.0853 C   0  0  0  0  0  0  0  0  0  0  0  0
   -2.5234   -1.6429   -0.0852 C   0  0  0  0  0  0  0  0  0  0  0  0
    2.5886    1.6167   -0.2374 C   0  0  0  0  0  0  0  0  0  0  0  0
    3.5101    0.1505   -1.4581 H   0  0  0  0  0  0  0  0  0  0  0  0
    4.5809    0.9682   -0.3225 H   0  0  0  0  0  0  0  0  0  0  0  0
    3.1932   -0.2577    1.5912 H   0  0  0  0  0  0  0  0  0  0  0  0
    4.4533   -1.0849    0.6901 H   0  0  0  0  0  0  0  0  0  0  0  0
   -3.5101    0.1505    1.4580 H   0  0  0  0  0  0  0  0  0  0  0  0
   -4.5808    0.9681    0.3224 H   0  0  0  0  0  0  0  0  0  0  0  0
   -3.1931   -0.2578   -1.5912 H   0  0  0  0  0  0  0  0  0  0  0  0
   -4.4533   -1.0849   -0.6902 H   0  0  0  0  0  0  0  0  0  0  0  0
    0.0936   -0.7857    2.0388 H   0  0  0  0  0  0  0  0  0  0  0  0
    0.0906    0.8432    2.0385 H   0  0  0  0  0  0  0  0  0  0  0  0
   -0.0938   -0.7859   -2.0388 H   0  0  0  0  0  0  0  0  0  0  0  0
   -0.0905    0.8430   -2.0385 H   0  0  0  0  0  0  0  0  0  0  0  0
  1 11  1  0  0  0  0
  1 18  1  0  0  0  0
  2 11  1  0  0  0  0
  2 20  1  0  0  0  0
  3 12  1  0  0  0  0
  3 19  1  0  0  0  0
  4 12  1  0  0  0  0
  4 17  1  0  0  0  0
  5 19  2  0  0  0  0
  6 17  2  0  0  0  0
  7 18  2  0  0  0  0
  8 20  2  0  0  0  0
  9 11  1  0  0  0  0
  9 29  1  0  0  0  0
  9 30  1  0  0  0  0
 10 12  1  0  0  0  0
 10 31  1  0  0  0  0
 10 32  1  0  0  0  0
 11 12  1  0  0  0  0
 13 16  1  0  0  0  0
 13 19  1  0  0  0  0
 13 27  1  0  0  0  0
 13 28  1  0  0  0  0
 14 15  1  0  0  0  0
 14 18  1  0  0  0  0
 14 23  1  0  0  0  0
 14 24  1  0  0  0  0
 15 20  1  0  0  0  0
 15 21  1  0  0  0  0
 15 22  1  0  0  0  0
 16 17  1  0  0  0  0
 16 25  1  0  0  0  0
 16 26  1  0  0  0  0
M  END
> <PUBCHEM_COMPOUND_CID>
129724659

> <PUBCHEM_CONFORMER_RMSD>
0.6

> <PUBCHEM_CONFORMER_DIVERSEORDER>
1
6
10
7
5
4
9
2
3
8

> <PUBCHEM_MMFF94_PARTIAL_CHARGES>
24
1 -0.43
10 -0.99
11 0.83
12 0.83
13 0.06
14 0.06
15 0.06
16 0.06
17 0.66
18 0.66
19 0.66
2 -0.43
20 0.66
29 0.36
3 -0.43
30 0.36
31 0.36
32 0.36
4 -0.43
5 -0.57
6 -0.57
7 -0.57
8 -0.57
9 -0.99

> <PUBCHEM_EFFECTIVE_ROTOR_COUNT>
3

> <PUBCHEM_PHARMACOPHORE_FEATURES>
10
1 10 cation
1 10 donor
1 5 acceptor
1 6 acceptor
1 7 acceptor
1 8 acceptor
1 9 cation
1 9 donor
7 1 2 11 14 15 18 20 rings
7 3 4 12 13 16 17 19 rings

> <PUBCHEM_HEAVY_ATOM_COUNT>
20

> <PUBCHEM_ATOM_DEF_STEREO_COUNT>
0

> <PUBCHEM_ATOM_UDEF_STEREO_COUNT>
0

> <PUBCHEM_BOND_DEF_STEREO_COUNT>
0

> <PUBCHEM_BOND_UDEF_STEREO_COUNT>
0

> <PUBCHEM_ISOTOPIC_ATOM_COUNT>
0

> <PUBCHEM_COMPONENT_COUNT>
1

> <PUBCHEM_CACTVS_TAUTO_COUNT>
1

> <PUBCHEM_CONFORMER_ID>
07BB70F300000001

> <PUBCHEM_MMFF94_ENERGY>
60.5427

> <PUBCHEM_FEATURE_SELFOVERLAP>
50.747

> <PUBCHEM_SHAPE_FINGERPRINT>
10608611 8 18410854364911878080
10616163 171 18340771536738880919
10756046 5 18411706452269121820
10967382 1 18410576167000112258
12173636 292 18412258428681257261
12251169 10 18410012096060226711
12491281 212 18334586736603513081
14178342 30 18338218411094608634
14223421 5 18411139177093644765
14289901 80 18410856581135764395
14787075 74 17324924149675198719
15375462 6 18268147732988212021
15442244 35 18266741281559557106
16945 1 18410860957686313670
17492 89 18410012143474575083
18186145 218 18056205678255060453
18981168 100 18266716082797066500
19050596 39 18410855490240425234
19591789 44 17329429445751386541
19930381 70 17834113421996049937
20511035 2 17987784229394578110
21267235 1 18410865360028116867
21501502 16 18410575088958065702
221490 88 18337117851468730562
23366157 5 18113902663203471134
23558518 356 18260269676298476345
23559900 14 18341325622164405946
23566358 27 18335717047705538910
3286 77 18261950855906260220
335352 9 17978510836503713687
474 4 17604437417459394228
5104073 3 18410293656931022465
58051976 100 18411422808260047767
58051976 378 18340766035180907574
7097593 13 18336826373233365794
7364860 26 18411982464321686384
74978 22 18337953389636331631
7832392 63 18338798910131608476
9709674 26 18412548695224511783
9981440 41 17974286826911680504

> <PUBCHEM_SHAPE_MULTIPOLES>
354.67
6.73
2.82
0.92
0
0.04
0
-0.1
0
0
0
0
-0.02
-0.51

> <PUBCHEM_SHAPE_SELFOVERLAP>
747.256

> <PUBCHEM_SHAPE_VOLUME>
191.5

> <PUBCHEM_COORDINATE_TYPE>
2
5
10

$$$$
