129734732
  -OEChem-03292013293D

 55 58  0     1  0  0  0  0  0999 V2000
   -4.2841   -0.0917    1.1470 O   0  0  0  0  0  0  0  0  0  0  0  0
    0.5088   -0.6039    2.7416 O   0  0  0  0  0  0  0  0  0  0  0  0
   -4.1161    1.6359   -1.6030 O   0  0  0  0  0  0  0  0  0  0  0  0
   -3.0900   -0.7188   -2.0069 O   0  0  0  0  0  0  0  0  0  0  0  0
   -4.0682   -3.1502   -1.4150 O   0  0  0  0  0  0  0  0  0  0  0  0
    5.7938   -1.2218   -1.8127 O   0  0  0  0  0  0  0  0  0  0  0  0
   -1.8480    0.1978    0.8621 C   0  0  1  0  0  0  0  0  0  0  0  0
   -1.0592    0.9533   -0.2278 C   0  0  2  0  0  0  0  0  0  0  0  0
    0.4042    1.2225    0.1550 C   0  0  1  0  0  0  0  0  0  0  0  0
    1.1241   -0.1517    0.3983 C   0  0  2  0  0  0  0  0  0  0  0  0
   -3.2579    0.1745    0.2044 C   0  0  2  0  0  0  0  0  0  0  0  0
   -1.1662   -1.1693    1.0806 C   0  0  0  0  0  0  0  0  0  0  0  0
   -1.9605    2.1377   -0.5860 C   0  0  0  0  0  0  0  0  0  0  0  0
    0.3408   -1.0540    1.4050 C   0  0  2  0  0  0  0  0  0  0  0  0
   -3.3953    1.6046   -0.3806 C   0  0  1  0  0  0  0  0  0  0  0  0
    2.6684    0.0262    0.6851 C   0  0  1  0  0  0  0  0  0  0  0  0
    1.1077    2.0317   -0.9496 C   0  0  0  0  0  0  0  0  0  0  0  0
   -1.9362    0.9600    2.2150 C   0  0  0  0  0  0  0  0  0  0  0  0
    2.5954    2.2130   -0.6769 C   0  0  0  0  0  0  0  0  0  0  0  0
    3.2498    0.8745   -0.4513 C   0  0  0  0  0  0  0  0  0  0  0  0
   -3.4137   -0.9073   -0.8353 C   0  0  0  0  0  0  0  0  0  0  0  0
    2.9825    0.7347    2.0223 C   0  0  0  0  0  0  0  0  0  0  0  0
    3.3454   -1.3350    0.7566 C   0  0  0  0  0  0  0  0  0  0  0  0
    4.2499    0.4686   -1.2493 C   0  0  0  0  0  0  0  0  0  0  0  0
   -3.9863   -2.2231   -0.3531 C   0  0  0  0  0  0  0  0  0  0  0  0
    4.3400   -1.7460   -0.0360 C   0  0  0  0  0  0  0  0  0  0  0  0
    4.8710   -0.8621   -1.0895 C   0  0  0  0  0  0  0  0  0  0  0  0
   -1.0141    0.3255   -1.1305 H   0  0  0  0  0  0  0  0  0  0  0  0
    0.4394    1.8214    1.0708 H   0  0  0  0  0  0  0  0  0  0  0  0
    1.0574   -0.6913   -0.5623 H   0  0  0  0  0  0  0  0  0  0  0  0
   -1.2352   -1.7766    0.1710 H   0  0  0  0  0  0  0  0  0  0  0  0
   -1.6795   -1.7171    1.8799 H   0  0  0  0  0  0  0  0  0  0  0  0
   -1.7747    2.9775    0.0934 H   0  0  0  0  0  0  0  0  0  0  0  0
   -1.7825    2.4855   -1.6089 H   0  0  0  0  0  0  0  0  0  0  0  0
    0.7541   -2.0682    1.3667 H   0  0  0  0  0  0  0  0  0  0  0  0
   -3.9367    2.2549    0.3167 H   0  0  0  0  0  0  0  0  0  0  0  0
    0.6452    3.0215   -1.0417 H   0  0  0  0  0  0  0  0  0  0  0  0
    0.9756    1.5311   -1.9182 H   0  0  0  0  0  0  0  0  0  0  0  0
   -2.5385    1.8715    2.1466 H   0  0  0  0  0  0  0  0  0  0  0  0
   -0.9629    1.2739    2.5962 H   0  0  0  0  0  0  0  0  0  0  0  0
   -2.3972    0.3312    2.9854 H   0  0  0  0  0  0  0  0  0  0  0  0
    2.7445    2.8543    0.1993 H   0  0  0  0  0  0  0  0  0  0  0  0
    3.0488    2.7431   -1.5234 H   0  0  0  0  0  0  0  0  0  0  0  0
    2.3737    1.6305    2.1771 H   0  0  0  0  0  0  0  0  0  0  0  0
    4.0336    1.0499    2.0646 H   0  0  0  0  0  0  0  0  0  0  0  0
    2.8278    0.0810    2.8875 H   0  0  0  0  0  0  0  0  0  0  0  0
    3.0139   -2.0219    1.5321 H   0  0  0  0  0  0  0  0  0  0  0  0
   -3.9880   -0.8020    1.7410 H   0  0  0  0  0  0  0  0  0  0  0  0
    0.0432   -1.2265    3.3254 H   0  0  0  0  0  0  0  0  0  0  0  0
   -4.1312    2.5582   -1.9108 H   0  0  0  0  0  0  0  0  0  0  0  0
    4.6299    1.0920   -2.0517 H   0  0  0  0  0  0  0  0  0  0  0  0
   -5.0056   -2.0678    0.0111 H   0  0  0  0  0  0  0  0  0  0  0  0
   -3.3674   -2.6550    0.4344 H   0  0  0  0  0  0  0  0  0  0  0  0
    4.7857   -2.7270    0.0809 H   0  0  0  0  0  0  0  0  0  0  0  0
   -4.4683   -3.9620   -1.0595 H   0  0  0  0  0  0  0  0  0  0  0  0
  1 11  1  0  0  0  0
  1 48  1  0  0  0  0
  2 14  1  0  0  0  0
  2 49  1  0  0  0  0
  3 15  1  0  0  0  0
  3 50  1  0  0  0  0
  4 21  2  0  0  0  0
  5 25  1  0  0  0  0
  5 55  1  0  0  0  0
  6 27  2  0  0  0  0
  7  8  1  0  0  0  0
  7 11  1  0  0  0  0
  7 12  1  0  0  0  0
  7 18  1  0  0  0  0
  8  9  1  0  0  0  0
  8 13  1  0  0  0  0
  8 28  1  0  0  0  0
  9 10  1  0  0  0  0
  9 17  1  0  0  0  0
  9 29  1  0  0  0  0
 10 14  1  0  0  0  0
 10 16  1  0  0  0  0
 10 30  1  0  0  0  0
 11 15  1  0  0  0  0
 11 21  1  0  0  0  0
 12 14  1  0  0  0  0
 12 31  1  0  0  0  0
 12 32  1  0  0  0  0
 13 15  1  0  0  0  0
 13 33  1  0  0  0  0
 13 34  1  0  0  0  0
 14 35  1  0  0  0  0
 15 36  1  0  0  0  0
 16 20  1  0  0  0  0
 16 22  1  0  0  0  0
 16 23  1  0  0  0  0
 17 19  1  0  0  0  0
 17 37  1  0  0  0  0
 17 38  1  0  0  0  0
 18 39  1  0  0  0  0
 18 40  1  0  0  0  0
 18 41  1  0  0  0  0
 19 20  1  0  0  0  0
 19 42  1  0  0  0  0
 19 43  1  0  0  0  0
 20 24  2  0  0  0  0
 21 25  1  0  0  0  0
 22 44  1  0  0  0  0
 22 45  1  0  0  0  0
 22 46  1  0  0  0  0
 23 26  2  0  0  0  0
 23 47  1  0  0  0  0
 24 27  1  0  0  0  0
 24 51  1  0  0  0  0
 25 52  1  0  0  0  0
 25 53  1  0  0  0  0
 26 27  1  0  0  0  0
 26 54  1  0  0  0  0
M  END
> <PUBCHEM_COMPOUND_CID>
129734732

> <PUBCHEM_CONFORMER_RMSD>
0.8

> <PUBCHEM_CONFORMER_DIVERSEORDER>
1
2

> <PUBCHEM_MMFF94_PARTIAL_CHARGES>
25
1 -0.68
11 0.34
14 0.28
15 0.28
16 0.28
19 0.14
2 -0.68
20 -0.28
21 0.45
23 -0.29
24 -0.14
25 0.34
26 -0.14
27 0.54
3 -0.68
4 -0.57
47 0.15
48 0.4
49 0.4
5 -0.68
50 0.4
51 0.15
54 0.15
55 0.4
6 -0.57

> <PUBCHEM_EFFECTIVE_ROTOR_COUNT>
3.4

> <PUBCHEM_PHARMACOPHORE_FEATURES>
14
1 1 acceptor
1 1 donor
1 2 acceptor
1 2 donor
1 3 acceptor
1 3 donor
1 4 acceptor
1 5 acceptor
1 5 donor
1 6 acceptor
5 7 8 11 13 15 rings
6 16 20 23 24 26 27 rings
6 7 8 9 10 12 14 rings
6 9 10 16 17 19 20 rings

> <PUBCHEM_HEAVY_ATOM_COUNT>
27

> <PUBCHEM_ATOM_DEF_STEREO_COUNT>
7

> <PUBCHEM_ATOM_UDEF_STEREO_COUNT>
1

> <PUBCHEM_BOND_DEF_STEREO_COUNT>
0

> <PUBCHEM_BOND_UDEF_STEREO_COUNT>
0

> <PUBCHEM_ISOTOPIC_ATOM_COUNT>
0

> <PUBCHEM_COMPONENT_COUNT>
1

> <PUBCHEM_CACTVS_TAUTO_COUNT>
30

> <PUBCHEM_CONFORMER_ID>
07BB984C00000001

> <PUBCHEM_MMFF94_ENERGY>
97.2387

> <PUBCHEM_FEATURE_SELFOVERLAP>
71.168

> <PUBCHEM_SHAPE_FINGERPRINT>
10498660 4 15357696409533879342
11552529 35 14331420077245172247
11578080 2 18129922547062057825
11796584 16 17846505794440851734
12553582 1 18186521007633826048
12596599 1 18342741784397916556
12633257 1 14692571069367587367
12788726 201 17825103714786642692
12969540 114 16153429450118632342
13224815 77 18412538834000283408
13383661 66 17630350699161623518
13583140 156 17417510510625314664
13944108 23 15949604978159934509
14251751 18 17918274260055243118
14251764 30 18122631819282781575
15163728 17 14057259971374858503
16752209 62 17895189978880203192
16945 1 18186517734752611336
17349148 13 18114167666637808200
18186145 218 16950280693743769960
19862831 5 18113621157814154532
20775438 99 17619047873829936375
221357 26 18114186328096830461
22182313 1 17387985415010329080
22393880 68 18186793686406719004
22907989 373 16732994153790731975
23379529 103 18125725827137620343
23402539 116 18114465553095941630
23557571 272 18199453523592307248
23559900 14 18273206496078522744
3286 77 17775566433982871656
4280585 95 17620196434543655422
44062 13 18413386523369278839
57724786 102 14924500828254757932
633830 44 17313385578237257546
7970288 3 17770211984176407431
9709674 26 18188495795041963440

> <PUBCHEM_SHAPE_MULTIPOLES>
520.43
10.04
2.4
1.96
4.19
0.17
-0.6
3.6
5.1
-1.28
0.91
-0.05
0.43
-0.47

> <PUBCHEM_SHAPE_SELFOVERLAP>
1128.798

> <PUBCHEM_SHAPE_VOLUME>
278.3

> <PUBCHEM_COORDINATE_TYPE>
2
5
10

$$$$
