129760726
  -OEChem-03292013293D

 41 43  0     0  0  0  0  0  0999 V2000
   -1.4225   -1.2057    0.9600 O   0  0  0  0  0  0  0  0  0  0  0  0
   -1.2665    1.5929    0.6885 O   0  0  0  0  0  0  0  0  0  0  0  0
    5.1955    1.4426   -0.3039 O   0  0  0  0  0  0  0  0  0  0  0  0
   -1.8237   -1.4046   -1.3154 O   0  0  0  0  0  0  0  0  0  0  0  0
   -1.5247    1.6101   -1.6136 O   0  0  0  0  0  0  0  0  0  0  0  0
   -0.1716    0.7332    0.5315 N   0  0  0  0  0  0  0  0  0  0  0  0
    2.0094   -4.6092   -0.6082 N   0  0  0  0  0  0  0  0  0  0  0  0
    1.0155   -1.1342    0.5529 C   0  0  0  0  0  0  0  0  0  0  0  0
    1.8969   -0.0388    0.3095 C   0  0  0  0  0  0  0  0  0  0  0  0
    1.1250    1.1276    0.3129 C   0  0  0  0  0  0  0  0  0  0  0  0
   -0.2601   -0.6286    0.6791 C   0  0  0  0  0  0  0  0  0  0  0  0
    1.3988   -2.5555    0.6546 C   0  0  0  0  0  0  0  0  0  0  0  0
   -4.2032   -0.1060    0.7435 C   0  0  0  0  0  0  0  0  0  0  0  0
   -4.3233    0.9650   -0.3564 C   0  0  0  0  0  0  0  0  0  0  0  0
   -3.6513   -1.4475    0.2524 C   0  0  0  0  0  0  0  0  0  0  0  0
   -3.3803    2.1571   -0.1726 C   0  0  0  0  0  0  0  0  0  0  0  0
    3.2863    0.0688    0.0998 C   0  0  0  0  0  0  0  0  0  0  0  0
    1.6804    2.3989    0.1202 C   0  0  0  0  0  0  0  0  0  0  0  0
    1.6598   -3.1973   -0.7209 C   0  0  0  0  0  0  0  0  0  0  0  0
   -2.1994   -1.3635   -0.1492 C   0  0  0  0  0  0  0  0  0  0  0  0
   -1.9533    1.7826   -0.4793 C   0  0  0  0  0  0  0  0  0  0  0  0
    3.8525    1.3331   -0.0982 C   0  0  0  0  0  0  0  0  0  0  0  0
    3.0601    2.4790   -0.0869 C   0  0  0  0  0  0  0  0  0  0  0  0
    2.2972   -2.6480    1.2787 H   0  0  0  0  0  0  0  0  0  0  0  0
    0.6121   -3.1200    1.1723 H   0  0  0  0  0  0  0  0  0  0  0  0
   -5.2100   -0.2973    1.1366 H   0  0  0  0  0  0  0  0  0  0  0  0
   -3.6123    0.2648    1.5888 H   0  0  0  0  0  0  0  0  0  0  0  0
   -4.1867    0.5220   -1.3500 H   0  0  0  0  0  0  0  0  0  0  0  0
   -5.3482    1.3570   -0.3320 H   0  0  0  0  0  0  0  0  0  0  0  0
   -4.2297   -1.8129   -0.6041 H   0  0  0  0  0  0  0  0  0  0  0  0
   -3.7446   -2.2087    1.0359 H   0  0  0  0  0  0  0  0  0  0  0  0
   -3.4566    2.5731    0.8384 H   0  0  0  0  0  0  0  0  0  0  0  0
   -3.6570    2.9662   -0.8588 H   0  0  0  0  0  0  0  0  0  0  0  0
    3.9090   -0.8218    0.0956 H   0  0  0  0  0  0  0  0  0  0  0  0
    1.0656    3.2928    0.1272 H   0  0  0  0  0  0  0  0  0  0  0  0
    2.4697   -2.6705   -1.2383 H   0  0  0  0  0  0  0  0  0  0  0  0
    0.7656   -3.1058   -1.3484 H   0  0  0  0  0  0  0  0  0  0  0  0
    3.5151    3.4546   -0.2414 H   0  0  0  0  0  0  0  0  0  0  0  0
    2.8566   -4.7078   -0.0503 H   0  0  0  0  0  0  0  0  0  0  0  0
    2.2305   -4.9777   -1.5323 H   0  0  0  0  0  0  0  0  0  0  0  0
    5.5917    0.5547   -0.2812 H   0  0  0  0  0  0  0  0  0  0  0  0
  1 11  1  0  0  0  0
  1 20  1  0  0  0  0
  2  6  1  0  0  0  0
  2 21  1  0  0  0  0
  3 22  1  0  0  0  0
  3 41  1  0  0  0  0
  4 20  2  0  0  0  0
  5 21  2  0  0  0  0
  6 10  1  0  0  0  0
  6 11  1  0  0  0  0
  7 19  1  0  0  0  0
  7 39  1  0  0  0  0
  7 40  1  0  0  0  0
  8  9  1  0  0  0  0
  8 11  2  0  0  0  0
  8 12  1  0  0  0  0
  9 10  2  0  0  0  0
  9 17  1  0  0  0  0
 10 18  1  0  0  0  0
 12 19  1  0  0  0  0
 12 24  1  0  0  0  0
 12 25  1  0  0  0  0
 13 14  1  0  0  0  0
 13 15  1  0  0  0  0
 13 26  1  0  0  0  0
 13 27  1  0  0  0  0
 14 16  1  0  0  0  0
 14 28  1  0  0  0  0
 14 29  1  0  0  0  0
 15 20  1  0  0  0  0
 15 30  1  0  0  0  0
 15 31  1  0  0  0  0
 16 21  1  0  0  0  0
 16 32  1  0  0  0  0
 16 33  1  0  0  0  0
 17 22  2  0  0  0  0
 17 34  1  0  0  0  0
 18 23  2  0  0  0  0
 18 35  1  0  0  0  0
 19 36  1  0  0  0  0
 19 37  1  0  0  0  0
 22 23  1  0  0  0  0
 23 38  1  0  0  0  0
M  END
> <PUBCHEM_COMPOUND_CID>
129760726

> <PUBCHEM_CONFORMER_RMSD>
0.6

> <PUBCHEM_CONFORMER_DIVERSEORDER>
3
14
9
11
17
20
18
21
12
10
19
8
1
15
16
13
5
4
2
6
7

> <PUBCHEM_MMFF94_PARTIAL_CHARGES>
26
1 -0.21
10 -0.15
11 -0.09
12 0.18
15 0.06
16 0.06
17 -0.15
18 -0.15
19 0.27
2 -0.29
20 0.66
21 0.66
22 0.08
23 -0.15
3 -0.53
34 0.15
35 0.15
38 0.15
39 0.36
4 -0.57
40 0.36
41 0.45
5 -0.57
6 0.44
7 -0.99
8 -0.18

> <PUBCHEM_EFFECTIVE_ROTOR_COUNT>
3.2

> <PUBCHEM_PHARMACOPHORE_FEATURES>
7
1 3 donor
1 4 acceptor
1 5 acceptor
1 7 cation
1 7 donor
5 6 8 9 10 11 rings
6 9 10 17 18 22 23 rings

> <PUBCHEM_HEAVY_ATOM_COUNT>
23

> <PUBCHEM_ATOM_DEF_STEREO_COUNT>
0

> <PUBCHEM_ATOM_UDEF_STEREO_COUNT>
0

> <PUBCHEM_BOND_DEF_STEREO_COUNT>
0

> <PUBCHEM_BOND_UDEF_STEREO_COUNT>
0

> <PUBCHEM_ISOTOPIC_ATOM_COUNT>
0

> <PUBCHEM_COMPONENT_COUNT>
1

> <PUBCHEM_CACTVS_TAUTO_COUNT>
3

> <PUBCHEM_CONFORMER_ID>
07BBFDD600000003

> <PUBCHEM_MMFF94_ENERGY>
42.963

> <PUBCHEM_FEATURE_SELFOVERLAP>
35.612

> <PUBCHEM_SHAPE_FINGERPRINT>
10411042 1 16321185586028174250
10616163 171 18336827593083056243
10967382 1 18409446964284784577
1100329 8 17404024721222093736
11578080 2 16662033743197329471
11680986 33 18196087746606228995
11833330 49 17400356750864343162
12839892 36 18338498807960694546
13140716 1 18119808272683369611
138480 1 18051132484529024082
14022347 108 17472130679064861227
14223421 5 18408043992138277051
14508225 48 17620192031863943086
14790565 3 18265904737805528512
15196674 1 18335419079838237641
16752209 62 18265608961056616672
16945 1 18338785788990370259
19591789 44 18267585903894693443
21501502 16 18334565824423391345
21524375 3 18261111932707908728
221490 88 18264497191196675435
22182313 1 18041566845600596309
23114952 82 18264208019532828430
23366157 5 18041846086804241410
23402539 116 18268988859768855356
23419403 2 17540017950147229537
23559900 14 18268422435112960818
23566358 2 18337670793704889919
238 59 17611702822807799437
2748010 2 17255947980404028888
350125 39 18335986483979135176
4280585 95 17835521523225234366
5104073 3 18334573546817256081
6138700 20 18338241458480228574
7364860 26 18339643334961396810
81228 2 16969128827226380738
9709674 26 18336828585426613315

> <PUBCHEM_SHAPE_MULTIPOLES>
434.02
7.57
3.92
0.95
0.82
3.77
-0.15
-3.3
-0.38
-2.71
-0.89
0.34
0.14
0.47

> <PUBCHEM_SHAPE_SELFOVERLAP>
936.234

> <PUBCHEM_SHAPE_VOLUME>
237.2

> <PUBCHEM_COORDINATE_TYPE>
2
5
10

$$$$
