129710400
  -OEChem-03292013293D

 32 32  0     1  0  0  0  0  0999 V2000
   -4.3885    2.1193   -0.8493 S   0  0  0  0  0  0  0  0  0  0  0  0
   -1.0342    0.8166   -1.4387 O   0  0  0  0  0  0  0  0  0  0  0  0
    3.7168    0.8885    1.8183 O   0  0  0  0  0  0  0  0  0  0  0  0
    4.8675    0.8216   -0.7114 O   0  0  0  0  0  0  0  0  0  0  0  0
   -3.5894   -1.4443   -0.4778 O   0  0  0  0  0  0  0  0  0  0  0  0
   -2.5835   -2.8029    1.0416 O   0  0  0  0  0  0  0  0  0  0  0  0
   -1.0994    1.8767    1.5140 N   0  0  0  0  0  0  0  0  0  0  0  0
   -2.1505    1.3792    0.6240 C   0  0  2  0  0  0  0  0  0  0  0  0
   -1.4579    0.4270   -0.3506 C   0  0  0  0  0  0  0  0  0  0  0  0
   -1.3313   -1.0151    0.0591 C   0  0  0  0  0  0  0  0  0  0  0  0
   -2.7940    2.5681   -0.0958 C   0  0  0  0  0  0  0  0  0  0  0  0
    1.1798   -0.9670   -0.0480 C   0  0  0  0  0  0  0  0  0  0  0  0
   -0.1240   -1.6001    0.1823 C   0  0  0  0  0  0  0  0  0  0  0  0
    1.8412   -0.3313    1.0026 C   0  0  0  0  0  0  0  0  0  0  0  0
    1.7573   -1.0006   -1.3173 C   0  0  0  0  0  0  0  0  0  0  0  0
    3.0803    0.2708    0.7843 C   0  0  0  0  0  0  0  0  0  0  0  0
    2.9964   -0.3983   -1.5357 C   0  0  0  0  0  0  0  0  0  0  0  0
    3.6580    0.2373   -0.4850 C   0  0  0  0  0  0  0  0  0  0  0  0
   -2.5448   -1.8454    0.2832 C   0  0  0  0  0  0  0  0  0  0  0  0
   -2.8933    0.8397    1.2220 H   0  0  0  0  0  0  0  0  0  0  0  0
   -2.1457    2.9887   -0.8720 H   0  0  0  0  0  0  0  0  0  0  0  0
   -3.0117    3.3732    0.6155 H   0  0  0  0  0  0  0  0  0  0  0  0
   -0.0521   -2.6506    0.4578 H   0  0  0  0  0  0  0  0  0  0  0  0
    1.3934   -0.3068    1.9938 H   0  0  0  0  0  0  0  0  0  0  0  0
   -0.7275    1.1064    2.0688 H   0  0  0  0  0  0  0  0  0  0  0  0
   -1.4992    2.5345    2.1824 H   0  0  0  0  0  0  0  0  0  0  0  0
    1.2538   -1.4924   -2.1460 H   0  0  0  0  0  0  0  0  0  0  0  0
    3.4349   -0.4318   -2.5295 H   0  0  0  0  0  0  0  0  0  0  0  0
   -4.6741    3.3358   -1.3361 H   0  0  0  0  0  0  0  0  0  0  0  0
    3.1692    0.8129    2.6185 H   0  0  0  0  0  0  0  0  0  0  0  0
    5.1088    0.6989   -1.6456 H   0  0  0  0  0  0  0  0  0  0  0  0
   -4.3828   -2.0038   -0.3370 H   0  0  0  0  0  0  0  0  0  0  0  0
  1 11  1  0  0  0  0
  1 29  1  0  0  0  0
  2  9  2  0  0  0  0
  3 16  1  0  0  0  0
  3 30  1  0  0  0  0
  4 18  1  0  0  0  0
  4 31  1  0  0  0  0
  5 19  1  0  0  0  0
  5 32  1  0  0  0  0
  6 19  2  0  0  0  0
  7  8  1  0  0  0  0
  7 25  1  0  0  0  0
  7 26  1  0  0  0  0
  8  9  1  0  0  0  0
  8 11  1  0  0  0  0
  8 20  1  0  0  0  0
  9 10  1  0  0  0  0
 10 13  2  0  0  0  0
 10 19  1  0  0  0  0
 11 21  1  0  0  0  0
 11 22  1  0  0  0  0
 12 13  1  0  0  0  0
 12 14  2  0  0  0  0
 12 15  1  0  0  0  0
 13 23  1  0  0  0  0
 14 16  1  0  0  0  0
 14 24  1  0  0  0  0
 15 17  2  0  0  0  0
 15 27  1  0  0  0  0
 16 18  2  0  0  0  0
 17 18  1  0  0  0  0
 17 28  1  0  0  0  0
M  END
> <PUBCHEM_COMPOUND_CID>
129710400

> <PUBCHEM_CONFORMER_RMSD>
0.8

> <PUBCHEM_CONFORMER_DIVERSEORDER>
1
51
48
25
50
67
29
52
58
62
16
64
27
9
31
38
37
44
39
66
60
41
32
47
61
56
34
36
14
28
63
45
49
26
57
18
30
42
20
55
22
59
65
53
54
43
19
24
13
7
8
3
21
11
10
23
35
69
46
6
17
4
68
15
2
12
33
40
5

> <PUBCHEM_MMFF94_PARTIAL_CHARGES>
29
1 -0.41
10 0.03
11 0.23
12 0.03
13 -0.18
14 -0.15
15 -0.15
16 0.08
17 -0.15
18 0.08
19 0.71
2 -0.57
23 0.15
24 0.15
25 0.36
26 0.36
27 0.15
28 0.15
29 0.18
3 -0.53
30 0.45
31 0.45
32 0.5
4 -0.53
5 -0.65
6 -0.57
7 -0.99
8 0.33
9 0.49

> <PUBCHEM_EFFECTIVE_ROTOR_COUNT>
5

> <PUBCHEM_PHARMACOPHORE_FEATURES>
10
1 10 anion
1 2 acceptor
1 3 donor
1 4 donor
1 5 acceptor
1 6 acceptor
1 7 cation
1 7 donor
3 5 6 19 anion
6 12 14 15 16 17 18 rings

> <PUBCHEM_HEAVY_ATOM_COUNT>
19

> <PUBCHEM_ATOM_DEF_STEREO_COUNT>
1

> <PUBCHEM_ATOM_UDEF_STEREO_COUNT>
0

> <PUBCHEM_BOND_DEF_STEREO_COUNT>
1

> <PUBCHEM_BOND_UDEF_STEREO_COUNT>
0

> <PUBCHEM_ISOTOPIC_ATOM_COUNT>
0

> <PUBCHEM_COMPONENT_COUNT>
1

> <PUBCHEM_CACTVS_TAUTO_COUNT>
460

> <PUBCHEM_CONFORMER_ID>
07BB394000000001

> <PUBCHEM_MMFF94_ENERGY>
50.7291

> <PUBCHEM_FEATURE_SELFOVERLAP>
51.095

> <PUBCHEM_SHAPE_FINGERPRINT>
10498660 4 18411984637306561108
11640471 11 17676492709114886532
12173636 292 18265327314244349485
13544592 271 17845349150862848376
13764800 53 18341899562759536473
15775835 57 18040437655274077236
16752209 62 18335701671685903647
16945 1 18334300894030327051
17357779 13 18129089182136033231
173720 79 17895180062143328561
17844478 74 17988373666495976250
18186145 218 18054508002611829117
18981168 100 18202002088513749282
200 152 16081363128622860394
20510252 161 18339369650796969795
20671657 1 17975417910337425603
21524375 3 18052253990831626319
22802520 49 17703519783363254264
23227448 37 18408889550818858877
23402539 116 18265050413276278078
23419403 2 17686303840764980677
23526113 38 17416134875781947422
23557571 272 18341056288843866006
23559900 14 18341898437905606878
238 59 17131264636839067863
2748010 2 18131917052606157858
350125 39 18191310368699976419
4028521 119 18272650095712785845
6049 1 17988938776965439006
633830 44 17840307718789061789
68521 5 18336549421353180847
77492 1 17167861997692670790
7808743 9 18334584512222462780
81228 2 18337968843430050139
84936 182 17619907262626165257

> <PUBCHEM_SHAPE_MULTIPOLES>
360.53
7.91
2.54
1.41
2.46
0.59
-0.07
-3.79
1.15
-3.51
-0.47
0.84
-0.28
0.84

> <PUBCHEM_SHAPE_SELFOVERLAP>
741.053

> <PUBCHEM_SHAPE_VOLUME>
208.8

> <PUBCHEM_COORDINATE_TYPE>
2
5
10

$$$$
