129731543
  -OEChem-03292013293D

 59 61  0     0  0  0  0  0  0999 V2000
   -5.1499   -0.9615    1.0692 O   0  0  0  0  0  0  0  0  0  0  0  0
    7.5550    3.3145   -0.8104 O   0  0  0  0  0  0  0  0  0  0  0  0
   -6.7830   -2.8398   -0.1690 O   0  0  0  0  0  0  0  0  0  0  0  0
   10.1378    2.3717   -0.4007 O   0  0  0  0  0  0  0  0  0  0  0  0
    1.6048   -3.6925   -0.6391 O   0  0  0  0  0  0  0  0  0  0  0  0
    3.5590   -2.6326    1.3252 O   0  0  0  0  0  0  0  0  0  0  0  0
   -5.8091    3.8127    2.2711 O   0  0  0  0  0  0  0  0  0  0  0  0
   -2.6525   -3.2147   -0.3624 C   0  0  0  0  0  0  0  0  0  0  0  0
    6.8739   -0.0627    0.4117 C   0  0  0  0  0  0  0  0  0  0  0  0
   -4.6073   -2.0129    0.3937 C   0  0  0  0  0  0  0  0  0  0  0  0
   -3.2201   -2.1428    0.3264 C   0  0  0  0  0  0  0  0  0  0  0  0
    2.0364   -1.3904   -0.0711 C   0  0  0  0  0  0  0  0  0  0  0  0
   -3.4720   -4.1569   -0.9838 C   0  0  0  0  0  0  0  0  0  0  0  0
   -1.1868   -3.3514   -0.4331 C   0  0  0  0  0  0  0  0  0  0  0  0
   -5.4268   -2.9551   -0.2275 C   0  0  0  0  0  0  0  0  0  0  0  0
    6.6716    1.2312   -0.0683 C   0  0  0  0  0  0  0  0  0  0  0  0
   -4.8592   -4.0272   -0.9161 C   0  0  0  0  0  0  0  0  0  0  0  0
    7.7653    2.0525   -0.3423 C   0  0  0  0  0  0  0  0  0  0  0  0
    5.7181   -0.9300    0.7008 C   0  0  0  0  0  0  0  0  0  0  0  0
    8.1700   -0.5356    0.6173 C   0  0  0  0  0  0  0  0  0  0  0  0
    1.1516   -2.5940   -0.3281 C   0  0  0  0  0  0  0  0  0  0  0  0
   -0.3181   -2.3523   -0.2240 C   0  0  0  0  0  0  0  0  0  0  0  0
    3.3846   -1.6946    0.5518 C   0  0  0  0  0  0  0  0  0  0  0  0
    9.0613    1.5797   -0.1368 C   0  0  0  0  0  0  0  0  0  0  0  0
    4.4868   -0.7501    0.2024 C   0  0  0  0  0  0  0  0  0  0  0  0
    9.2637    0.2856    0.3429 C   0  0  0  0  0  0  0  0  0  0  0  0
   -6.2029    2.5502    0.2642 C   0  0  0  0  0  0  0  0  0  0  0  0
   -5.9232    1.2766    0.9483 C   0  0  0  0  0  0  0  0  0  0  0  0
   -6.1361    3.7641    0.9481 C   0  0  0  0  0  0  0  0  0  0  0  0
   -5.3934    0.1902    0.3764 C   0  0  0  0  0  0  0  0  0  0  0  0
   -6.5398    2.5298   -1.0892 C   0  0  0  0  0  0  0  0  0  0  0  0
   -6.4062    4.9576    0.2786 C   0  0  0  0  0  0  0  0  0  0  0  0
   -6.8099    3.7233   -1.7588 C   0  0  0  0  0  0  0  0  0  0  0  0
   -6.7433    4.9370   -1.0748 C   0  0  0  0  0  0  0  0  0  0  0  0
    6.1997    3.7203   -0.9928 C   0  0  0  0  0  0  0  0  0  0  0  0
   -2.6149   -1.4014    0.8409 H   0  0  0  0  0  0  0  0  0  0  0  0
    2.1779   -0.8949   -1.0383 H   0  0  0  0  0  0  0  0  0  0  0  0
    1.5291   -0.6945    0.6065 H   0  0  0  0  0  0  0  0  0  0  0  0
   -3.0470   -4.9981   -1.5260 H   0  0  0  0  0  0  0  0  0  0  0  0
   -0.8271   -4.3463   -0.6848 H   0  0  0  0  0  0  0  0  0  0  0  0
    5.6556    1.5831   -0.1917 H   0  0  0  0  0  0  0  0  0  0  0  0
   -5.4861   -4.7683   -1.4048 H   0  0  0  0  0  0  0  0  0  0  0  0
    5.9243   -1.7697    1.3604 H   0  0  0  0  0  0  0  0  0  0  0  0
    8.3466   -1.5418    0.9896 H   0  0  0  0  0  0  0  0  0  0  0  0
   -0.6219   -1.3375    0.0032 H   0  0  0  0  0  0  0  0  0  0  0  0
    4.2287    0.0508   -0.4798 H   0  0  0  0  0  0  0  0  0  0  0  0
   10.2681   -0.0955    0.5072 H   0  0  0  0  0  0  0  0  0  0  0  0
   -6.1614    1.2416    2.0089 H   0  0  0  0  0  0  0  0  0  0  0  0
   -5.1056    0.1428   -0.6658 H   0  0  0  0  0  0  0  0  0  0  0  0
   -6.6181    1.6023   -1.6504 H   0  0  0  0  0  0  0  0  0  0  0  0
   -6.3584    5.9110    0.7981 H   0  0  0  0  0  0  0  0  0  0  0  0
   -7.0761    3.7076   -2.8117 H   0  0  0  0  0  0  0  0  0  0  0  0
   -6.9547    5.8661   -1.5961 H   0  0  0  0  0  0  0  0  0  0  0  0
   -7.1851   -3.5799   -0.6552 H   0  0  0  0  0  0  0  0  0  0  0  0
   10.9513    1.8780   -0.1994 H   0  0  0  0  0  0  0  0  0  0  0  0
    6.2212    4.7457   -1.3768 H   0  0  0  0  0  0  0  0  0  0  0  0
    5.6553    3.7509   -0.0428 H   0  0  0  0  0  0  0  0  0  0  0  0
    5.6923    3.1113   -1.7490 H   0  0  0  0  0  0  0  0  0  0  0  0
   -5.8148    4.7391    2.5670 H   0  0  0  0  0  0  0  0  0  0  0  0
  1 10  1  0  0  0  0
  1 30  1  0  0  0  0
  2 18  1  0  0  0  0
  2 35  1  0  0  0  0
  3 15  1  0  0  0  0
  3 54  1  0  0  0  0
  4 24  1  0  0  0  0
  4 55  1  0  0  0  0
  5 21  2  0  0  0  0
  6 23  2  0  0  0  0
  7 29  1  0  0  0  0
  7 59  1  0  0  0  0
  8 11  2  0  0  0  0
  8 13  1  0  0  0  0
  8 14  1  0  0  0  0
  9 16  2  0  0  0  0
  9 19  1  0  0  0  0
  9 20  1  0  0  0  0
 10 11  1  0  0  0  0
 10 15  2  0  0  0  0
 11 36  1  0  0  0  0
 12 21  1  0  0  0  0
 12 23  1  0  0  0  0
 12 37  1  0  0  0  0
 12 38  1  0  0  0  0
 13 17  2  0  0  0  0
 13 39  1  0  0  0  0
 14 22  2  0  0  0  0
 14 40  1  0  0  0  0
 15 17  1  0  0  0  0
 16 18  1  0  0  0  0
 16 41  1  0  0  0  0
 17 42  1  0  0  0  0
 18 24  2  0  0  0  0
 19 25  2  0  0  0  0
 19 43  1  0  0  0  0
 20 26  2  0  0  0  0
 20 44  1  0  0  0  0
 21 22  1  0  0  0  0
 22 45  1  0  0  0  0
 23 25  1  0  0  0  0
 24 26  1  0  0  0  0
 25 46  1  0  0  0  0
 26 47  1  0  0  0  0
 27 28  1  0  0  0  0
 27 29  1  0  0  0  0
 27 31  2  0  0  0  0
 28 30  2  3  0  0  0
 28 48  1  0  0  0  0
 29 32  2  0  0  0  0
 30 49  1  0  0  0  0
 31 33  1  0  0  0  0
 31 50  1  0  0  0  0
 32 34  1  0  0  0  0
 32 51  1  0  0  0  0
 33 34  2  0  0  0  0
 33 52  1  0  0  0  0
 34 53  1  0  0  0  0
 35 56  1  0  0  0  0
 35 57  1  0  0  0  0
 35 58  1  0  0  0  0
M  END
> <PUBCHEM_COMPOUND_CID>
129731543

> <PUBCHEM_CONFORMER_RMSD>
1.2

> <PUBCHEM_CONFORMER_DIVERSEORDER>
1
143
147
79
184
31
187
151
116
161
43
58
175
122
133
178
121
148
33
141
55
106
174
62
86
32
156
199
13
169
140
200
190
128
125
109
149
83
95
59
135
18
34
150
101
131
61
136
198
119
201
179
19
129
137
5
78
167
132
145
113
107
66
93
39
44
114
103
99
154
168
22
127
191
16
47
104
118
139
97
155
82
81
134
90
138
94
11
68
3
162
84
57
112
170
14
183
63
192
124
102
172
105
12
196
164
188
70
2
25
26
173
177
45
89
100
182
65
69
160
98
35
4
54
176
23
49
171
146
36
20
37
41
197
185
74
159
108
144
180
60
56
96
17
27
158
189
30
8
73
123
87
152
153
166
42
163
88
91
186
195
46
71
126
51
48
181
77
7
165
117
110
10
40
64
194
115
52
157
130
9
76
72
38
21
111
85
29
24
92
50
120
142
6
193
67
53
80
15
75
28

> <PUBCHEM_MMFF94_PARTIAL_CHARGES>
54
1 -0.16
10 0.08
11 -0.15
12 0.12
13 -0.15
14 -0.18
15 0.08
16 -0.15
17 -0.15
18 0.08
19 -0.18
2 -0.36
20 -0.15
21 0.49
22 -0.14
23 0.49
24 0.08
25 -0.14
26 -0.15
27 0.03
28 -0.18
29 0.08
3 -0.53
30 -0.07
31 -0.15
32 -0.15
33 -0.15
34 -0.15
35 0.28
36 0.15
39 0.15
4 -0.53
40 0.15
41 0.15
42 0.15
43 0.15
44 0.15
45 0.15
46 0.15
47 0.15
48 0.15
49 0.15
5 -0.57
50 0.15
51 0.15
52 0.15
53 0.15
54 0.45
55 0.45
59 0.45
6 -0.57
7 -0.53
8 0.03
9 0.03

> <PUBCHEM_EFFECTIVE_ROTOR_COUNT>
10

> <PUBCHEM_PHARMACOPHORE_FEATURES>
11
1 1 acceptor
1 12 anion
1 2 acceptor
1 3 donor
1 4 donor
1 5 acceptor
1 6 acceptor
1 7 donor
6 27 29 31 32 33 34 rings
6 8 10 11 13 15 17 rings
6 9 16 18 20 24 26 rings

> <PUBCHEM_HEAVY_ATOM_COUNT>
35

> <PUBCHEM_ATOM_DEF_STEREO_COUNT>
0

> <PUBCHEM_ATOM_UDEF_STEREO_COUNT>
0

> <PUBCHEM_BOND_DEF_STEREO_COUNT>
2

> <PUBCHEM_BOND_UDEF_STEREO_COUNT>
1

> <PUBCHEM_ISOTOPIC_ATOM_COUNT>
0

> <PUBCHEM_COMPONENT_COUNT>
1

> <PUBCHEM_CACTVS_TAUTO_COUNT>
288

> <PUBCHEM_CONFORMER_ID>
07BB8BD700000001

> <PUBCHEM_MMFF94_ENERGY>
111.4959

> <PUBCHEM_FEATURE_SELFOVERLAP>
55.823

> <PUBCHEM_SHAPE_FINGERPRINT>
10625338 131 18409158901640495592
11408170 253 18272098239538753281
11421887 103 17755291276422547869
11621639 254 18342727517724426327
12013929 29 18269271257662115046
12133447 93 18411711985046966132
131241 285 18335409158912664661
14512766 119 18343026570958261335
15347591 1 18338516335760315091
16728433 281 18201723920472180305
19053607 189 18341038645393092890
20982279 24 14635416128286401106
21585482 111 18335420132574743116
21772524 286 18412266137852680481
23516275 100 18047185255424835277
2748736 6 18124024638700555587
2835820 40 18408885153099505448
3525247 18 17831292805715860205
3711267 37 18041000696012487388
393628 194 18340205177278122533
4169191 19 18340768131325869337
4366758 26 18335144245630436292
437795 83 18342729724873626519
4756326 101 17170102653100465269
48014 12 18272377494301779747
6289498 60 18261672580469793064
636775 72 18410293622856379699
636783 253 17684357370794787853

> <PUBCHEM_SHAPE_MULTIPOLES>
679.2
34.45
8.12
1.18
60.56
4.27
0.13
40.2
-0.61
-18.29
-2.02
-1.76
0.88
-2.73

> <PUBCHEM_SHAPE_SELFOVERLAP>
1456.799

> <PUBCHEM_SHAPE_VOLUME>
373.2

> <PUBCHEM_COORDINATE_TYPE>
2
5
10

$$$$
