129700
  -OEChem-03292013323D

 29 29  0     1  0  0  0  0  0999 V2000
   -1.2460    2.9777    0.0788 O   0  0  0  0  0  0  0  0  0  0  0  0
    2.6155    0.2550   -1.9336 O   0  5  0  0  0  0  0  0  0  0  0  0
   -1.5686   -1.6070   -1.7607 O   0  0  0  0  0  0  0  0  0  0  0  0
   -2.5073   -0.4803   -0.2413 N   0  0  0  0  0  0  0  0  0  0  0  0
   -2.6634   -1.2868   -1.2825 N   0  0  0  0  0  0  0  0  0  0  0  0
    3.7698   -0.8061    0.3733 N   0  3  0  0  0  0  0  0  0  0  0  0
    4.7523   -1.2697    0.3938 N   0  0  0  0  0  0  0  0  0  0  0  0
   -1.3655    1.5880    0.4129 C   0  0  1  0  0  0  0  0  0  0  0  0
   -2.3412    0.9177   -0.5696 C   0  0  0  0  0  0  0  0  0  0  0  0
   -0.0125    0.9607    0.3896 C   0  0  0  0  0  0  0  0  0  0  0  0
   -3.6052   -0.6520    0.7273 C   0  0  0  0  0  0  0  0  0  0  0  0
    0.7057    0.8942   -0.8042 C   0  0  0  0  0  0  0  0  0  0  0  0
    0.5340    0.4392    1.5623 C   0  0  0  0  0  0  0  0  0  0  0  0
   -3.3537   -1.8731    1.5909 C   0  0  0  0  0  0  0  0  0  0  0  0
    1.9705    0.3063   -0.8255 C   0  0  0  0  0  0  0  0  0  0  0  0
    1.7986   -0.1487    1.5412 C   0  0  0  0  0  0  0  0  0  0  0  0
    2.5170   -0.2151    0.3472 C   0  0  0  0  0  0  0  0  0  0  0  0
   -1.7796    1.5570    1.4279 H   0  0  0  0  0  0  0  0  0  0  0  0
   -1.9626    1.0595   -1.5929 H   0  0  0  0  0  0  0  0  0  0  0  0
   -3.2989    1.4589   -0.5788 H   0  0  0  0  0  0  0  0  0  0  0  0
   -3.6597    0.2049    1.4114 H   0  0  0  0  0  0  0  0  0  0  0  0
   -4.5862   -0.7147    0.2365 H   0  0  0  0  0  0  0  0  0  0  0  0
    0.2817    1.3155   -1.7148 H   0  0  0  0  0  0  0  0  0  0  0  0
   -0.0137    0.4819    2.5000 H   0  0  0  0  0  0  0  0  0  0  0  0
   -3.3576   -2.7974    1.0037 H   0  0  0  0  0  0  0  0  0  0  0  0
   -2.3922   -1.8007    2.1111 H   0  0  0  0  0  0  0  0  0  0  0  0
   -4.1367   -1.9621    2.3512 H   0  0  0  0  0  0  0  0  0  0  0  0
   -2.1366    3.3657    0.1232 H   0  0  0  0  0  0  0  0  0  0  0  0
    2.2159   -0.5523    2.4599 H   0  0  0  0  0  0  0  0  0  0  0  0
  1  8  1  0  0  0  0
  1 28  1  0  0  0  0
  2 15  1  0  0  0  0
  3  5  2  0  0  0  0
  4  5  1  0  0  0  0
  4  9  1  0  0  0  0
  4 11  1  0  0  0  0
  6  7  3  0  0  0  0
  6 17  1  0  0  0  0
  8  9  1  0  0  0  0
  8 10  1  0  0  0  0
  8 18  1  0  0  0  0
  9 19  1  0  0  0  0
  9 20  1  0  0  0  0
 10 12  2  0  0  0  0
 10 13  1  0  0  0  0
 11 14  1  0  0  0  0
 11 21  1  0  0  0  0
 11 22  1  0  0  0  0
 12 15  1  0  0  0  0
 12 23  1  0  0  0  0
 13 16  2  0  0  0  0
 13 24  1  0  0  0  0
 14 25  1  0  0  0  0
 14 26  1  0  0  0  0
 14 27  1  0  0  0  0
 15 17  2  0  0  0  0
 16 17  1  0  0  0  0
 16 29  1  0  0  0  0
M  CHG  2   2  -1   6   1
M  END
> <PUBCHEM_COMPOUND_CID>
129700

> <PUBCHEM_CONFORMER_RMSD>
0.6

> <PUBCHEM_CONFORMER_DIVERSEORDER>
1
13
123
191
12
3
92
11
78
159
243
199
212
114
49
238
75
176
125
132
231
220
216
138
185
207
206
225
116
60
36
83
166
65
29
209
118
178
66
21
158
97
136
163
175
61
85
72
145
234
192
46
62
215
174
67
39
214
217
235
19
96
195
224
10
58
142
240
35
57
108
193
167
4
126
105
64
149
204
156
131
127
180
198
208
173
104
70
119
90
22
165
221
213
188
41
172
232
76
113
79
239
30
26
122
54
74
17
139
201
106
146
48
130
128
88
94
87
210
141
133
120
98
31
157
183
203
6
148
115
5
121
143
68
194
77
89
63
80
179
99
154
140
7
153
170
177
229
112
129
47
24
23
27
38
181
155
55
18
117
111
200
69
9
236
25
71
73
51
14
84
171
37
53
110
226
56
228
101
223
147
135
196
103
81
82
205
227
52
28
86
244
241
222
107
42
137
219
91
33
59
15
184
187
197
168
242
233
44
20
230
134
218
43
237
95
186
182
151
102
202
16
162
189
169
161
100
190
144
45
93
2
40
32
211
34
152
109
8
160
150
50
164
124

> <PUBCHEM_MMFF94_PARTIAL_CHARGES>
20
1 -0.68
10 -0.14
11 0.27
12 -0.15
13 -0.15
15 -0.17
16 -0.15
17 0.14
2 -0.83
23 0.15
24 0.15
28 0.4
29 0.15
3 -0.16
4 -0.36
5 -0.01
6 1.35
7 -0.49
8 0.42
9 0.27

> <PUBCHEM_EFFECTIVE_ROTOR_COUNT>
5

> <PUBCHEM_PHARMACOPHORE_FEATURES>
3
1 1 acceptor
1 1 donor
6 10 12 13 15 16 17 rings

> <PUBCHEM_HEAVY_ATOM_COUNT>
17

> <PUBCHEM_ATOM_DEF_STEREO_COUNT>
0

> <PUBCHEM_ATOM_UDEF_STEREO_COUNT>
1

> <PUBCHEM_BOND_DEF_STEREO_COUNT>
0

> <PUBCHEM_BOND_UDEF_STEREO_COUNT>
0

> <PUBCHEM_ISOTOPIC_ATOM_COUNT>
0

> <PUBCHEM_COMPONENT_COUNT>
1

> <PUBCHEM_CACTVS_TAUTO_COUNT>
1

> <PUBCHEM_CONFORMER_ID>
0001FAA400000001

> <PUBCHEM_MMFF94_ENERGY>
45.1602

> <PUBCHEM_FEATURE_SELFOVERLAP>
15.223

> <PUBCHEM_SHAPE_FINGERPRINT>
11471102 22 15554441907801024220
12251169 10 15051730915052444929
12400797 292 16878793849309134947
12500047 106 17982718689300263152
12633257 1 16917068884048782114
12670546 177 16371019515774592682
12892183 10 14836139757647548079
13705890 14 17603587469274730578
14115302 16 17894624851473152105
14289901 80 18271791429140352392
14863182 85 15590787708051619379
15209294 21 12103555356439622666
15276787 5 15840732749952486939
16945 1 17561370581822645861
18186145 218 16515681152243677796
18522851 268 16226317218332599487
19422 9 17968387817941603209
19766037 51 18187932853979040427
20279233 1 17418089884454437741
20361792 2 18339918341959894317
20645476 183 17677886830309827433
21061003 4 16773789286350333856
21713013 43 16950560047349839675
21731516 1 18268145534244492319
232386 152 18411414016509432972
23402539 116 17386843912310031202
23402655 69 15430304803015288303
23419403 2 14293611042294724793
23557571 272 18199468771064441280
23559900 14 18336536128540092064
23598288 3 18409174277122553925
25 1 14129606693409275724
465052 167 18193289700869406419
568465 68 15841542024712227142
81228 2 18340477864588118017

> <PUBCHEM_SHAPE_MULTIPOLES>
312.32
6.61
1.96
1.64
2.85
0.62
-0.44
-4.28
-0.04
-1.33
0.41
-0.19
-0.34
-0.31

> <PUBCHEM_SHAPE_SELFOVERLAP>
644.194

> <PUBCHEM_SHAPE_VOLUME>
180

> <PUBCHEM_COORDINATE_TYPE>
2
5
10

$$$$
