129849129
  -OEChem-03292013293D

 49 51  0     0  0  0  0  0  0999 V2000
    3.7584    3.3536    0.6621 O   0  5  0  0  0  0  0  0  0  0  0  0
   -5.6543    1.4019    0.2636 O   0  5  0  0  0  0  0  0  0  0  0  0
    5.6105   -1.5576   -0.7878 O   0  5  0  0  0  0  0  0  0  0  0  0
    3.6413   -0.6481   -1.1255 O   0  0  0  0  0  0  0  0  0  0  0  0
    2.1272    2.4976    1.8562 O   0  0  0  0  0  0  0  0  0  0  0  0
   -4.1195    0.6327    1.6318 O   0  0  0  0  0  0  0  0  0  0  0  0
   -0.3715   -0.3310    0.1138 N   0  0  0  0  0  0  0  0  0  0  0  0
    2.5354   -2.7418    0.4818 N   0  0  0  0  0  0  0  0  0  0  0  0
    0.3307    3.3856   -0.1869 N   0  0  0  0  0  0  0  0  0  0  0  0
   -3.9217   -1.6568   -0.0738 N   0  0  0  0  0  0  0  0  0  0  0  0
    1.8153    5.0000   -0.5359 N   0  0  0  0  0  0  0  0  0  0  0  0
   -6.0567   -1.2645   -0.5428 N   0  0  0  0  0  0  0  0  0  0  0  0
    4.2423   -3.9581   -0.2519 N   0  0  0  0  0  0  0  0  0  0  0  0
    4.3490   -1.6128   -0.7157 N   0  3  0  0  0  0  0  0  0  0  0  0
    2.5225    3.2147    0.8922 N   0  3  0  0  0  0  0  0  0  0  0  0
   -4.9135    0.4577    0.6631 N   0  3  0  0  0  0  0  0  0  0  0  0
    0.4636   -1.4929   -0.1887 C   0  0  0  0  0  0  0  0  0  0  0  0
    0.2360    0.8878   -0.4190 C   0  0  0  0  0  0  0  0  0  0  0  0
   -1.7163   -0.5123   -0.4315 C   0  0  0  0  0  0  0  0  0  0  0  0
    1.6593   -1.5466    0.7614 C   0  0  0  0  0  0  0  0  0  0  0  0
   -2.5242   -1.4577    0.4567 C   0  0  0  0  0  0  0  0  0  0  0  0
   -0.2864    2.1116    0.3327 C   0  0  0  0  0  0  0  0  0  0  0  0
    1.5864    3.8588    0.0752 C   0  0  0  0  0  0  0  0  0  0  0  0
    3.7322   -2.7488   -0.1790 C   0  0  0  0  0  0  0  0  0  0  0  0
   -4.9729   -0.7886    0.0291 C   0  0  0  0  0  0  0  0  0  0  0  0
    2.2651   -4.0286    0.8537 C   0  0  0  0  0  0  0  0  0  0  0  0
   -4.3634   -2.7561   -0.7547 C   0  0  0  0  0  0  0  0  0  0  0  0
   -0.2798    4.2822   -1.0180 C   0  0  0  0  0  0  0  0  0  0  0  0
    0.6558    5.2694   -1.2191 C   0  0  0  0  0  0  0  0  0  0  0  0
    3.3327   -4.7607    0.3900 C   0  0  0  0  0  0  0  0  0  0  0  0
   -5.6834   -2.4907   -1.0334 C   0  0  0  0  0  0  0  0  0  0  0  0
   -2.2559    0.4387   -0.4840 H   0  0  0  0  0  0  0  0  0  0  0  0
   -1.6828   -0.8867   -1.4640 H   0  0  0  0  0  0  0  0  0  0  0  0
    1.3248    0.8747   -0.3130 H   0  0  0  0  0  0  0  0  0  0  0  0
    0.0531    0.9885   -1.4978 H   0  0  0  0  0  0  0  0  0  0  0  0
   -0.0861   -2.4325   -0.0681 H   0  0  0  0  0  0  0  0  0  0  0  0
    0.7988   -1.4813   -1.2348 H   0  0  0  0  0  0  0  0  0  0  0  0
    1.3147   -1.7013    1.7929 H   0  0  0  0  0  0  0  0  0  0  0  0
    2.2966   -0.6622    0.7815 H   0  0  0  0  0  0  0  0  0  0  0  0
   -0.1158    2.0781    1.4113 H   0  0  0  0  0  0  0  0  0  0  0  0
   -1.3633    2.2540    0.1882 H   0  0  0  0  0  0  0  0  0  0  0  0
   -2.6093   -1.1287    1.4951 H   0  0  0  0  0  0  0  0  0  0  0  0
   -2.1020   -2.4681    0.4806 H   0  0  0  0  0  0  0  0  0  0  0  0
   -3.7262   -3.6006   -0.9767 H   0  0  0  0  0  0  0  0  0  0  0  0
   -1.2881    4.1469   -1.3835 H   0  0  0  0  0  0  0  0  0  0  0  0
    1.3709   -4.3030    1.3957 H   0  0  0  0  0  0  0  0  0  0  0  0
   -6.3838   -3.1199   -1.5629 H   0  0  0  0  0  0  0  0  0  0  0  0
    0.5538    6.1602   -1.8216 H   0  0  0  0  0  0  0  0  0  0  0  0
    3.4925   -5.8247    0.4856 H   0  0  0  0  0  0  0  0  0  0  0  0
  1 15  1  0  0  0  0
  2 16  1  0  0  0  0
  3 14  1  0  0  0  0
  4 14  2  0  0  0  0
  5 15  2  0  0  0  0
  6 16  2  0  0  0  0
  7 17  1  0  0  0  0
  7 18  1  0  0  0  0
  7 19  1  0  0  0  0
  8 20  1  0  0  0  0
  8 24  1  0  0  0  0
  8 26  1  0  0  0  0
  9 22  1  0  0  0  0
  9 23  1  0  0  0  0
  9 28  1  0  0  0  0
 10 21  1  0  0  0  0
 10 25  1  0  0  0  0
 10 27  1  0  0  0  0
 11 23  2  0  0  0  0
 11 29  1  0  0  0  0
 12 25  2  0  0  0  0
 12 31  1  0  0  0  0
 13 24  2  0  0  0  0
 13 30  1  0  0  0  0
 14 24  1  0  0  0  0
 15 23  1  0  0  0  0
 16 25  1  0  0  0  0
 17 20  1  0  0  0  0
 17 36  1  0  0  0  0
 17 37  1  0  0  0  0
 18 22  1  0  0  0  0
 18 34  1  0  0  0  0
 18 35  1  0  0  0  0
 19 21  1  0  0  0  0
 19 32  1  0  0  0  0
 19 33  1  0  0  0  0
 20 38  1  0  0  0  0
 20 39  1  0  0  0  0
 21 42  1  0  0  0  0
 21 43  1  0  0  0  0
 22 40  1  0  0  0  0
 22 41  1  0  0  0  0
 26 30  2  0  0  0  0
 26 46  1  0  0  0  0
 27 31  2  0  0  0  0
 27 44  1  0  0  0  0
 28 29  2  0  0  0  0
 28 45  1  0  0  0  0
 29 48  1  0  0  0  0
 30 49  1  0  0  0  0
 31 47  1  0  0  0  0
M  CHG  6   1  -1   2  -1   3  -1  14   1  15   1  16   1
M  END
> <PUBCHEM_COMPOUND_CID>
129849129

> <PUBCHEM_CONFORMER_RMSD>
1.2

> <PUBCHEM_CONFORMER_DIVERSEORDER>
2
13
6
56
22
51
26
45
31
54
21
50
40
37
57
29
14
35
23
43
33
1
47
10
39
59
41
25
17
16
30
48
55
36
49
28
52
46
53
32
58
42
15
27
20
24
9
34
18
19
8
11
4
38
12
7
44
5
3

> <PUBCHEM_MMFF94_PARTIAL_CHARGES>
37
1 -0.52
10 0.05
11 -0.57
12 -0.57
13 -0.57
14 0.96
15 0.96
16 0.96
17 0.27
18 0.27
19 0.27
2 -0.52
20 0.26
21 0.26
22 0.26
23 0.27
24 0.27
25 0.27
26 -0.3
27 -0.3
28 -0.3
29 0.08
3 -0.52
30 0.08
31 0.08
4 -0.52
44 0.15
45 0.15
46 0.15
47 0.15
48 0.15
49 0.15
5 -0.52
6 -0.52
7 -0.81
8 0.05
9 0.05

> <PUBCHEM_EFFECTIVE_ROTOR_COUNT>
12

> <PUBCHEM_PHARMACOPHORE_FEATURES>
13
1 1 acceptor
1 2 acceptor
1 3 acceptor
1 4 acceptor
1 5 acceptor
1 6 acceptor
1 7 cation
4 10 12 16 25 cation
4 8 13 14 24 cation
4 9 11 15 23 cation
5 10 12 25 27 31 rings
5 8 13 24 26 30 rings
5 9 11 23 28 29 rings

> <PUBCHEM_HEAVY_ATOM_COUNT>
31

> <PUBCHEM_ATOM_DEF_STEREO_COUNT>
0

> <PUBCHEM_ATOM_UDEF_STEREO_COUNT>
0

> <PUBCHEM_BOND_DEF_STEREO_COUNT>
0

> <PUBCHEM_BOND_UDEF_STEREO_COUNT>
0

> <PUBCHEM_ISOTOPIC_ATOM_COUNT>
0

> <PUBCHEM_COMPONENT_COUNT>
1

> <PUBCHEM_CACTVS_TAUTO_COUNT>
1

> <PUBCHEM_CONFORMER_ID>
07BD572900000002

> <PUBCHEM_MMFF94_ENERGY>
60.7168

> <PUBCHEM_FEATURE_SELFOVERLAP>
66.221

> <PUBCHEM_SHAPE_FINGERPRINT>
11045515 52 18265897956040865354
11621639 179 17897151426711289837
11763715 3 18120959238341475342
12107183 9 18270973324033736225
12788726 201 17828484661201448115
13590594 115 18264497191671422697
1361 2 18266739267604965330
13690498 29 17837510552597440670
13692114 37 17117181344665869546
15439362 3 18265332987922644293
15664445 248 18342750619531280126
15705408 1 18337672030655517735
16993438 75 17469892077923098929
19319366 153 17838050765077632711
20028762 73 18052249893211669797
20101258 96 18194402190906629713
20739085 24 18264473156712856456
20775438 99 17761725729619744021
23366157 5 18337676433482252591
23559900 14 18410284853113741275
4017518 198 17911244142111695820
4409770 3 17615402563697780229
532947 4 18266743678304451434
7164475 11 18120094975136802678
79837 15 17474104783551774762
9981440 41 17759520367619593115

> <PUBCHEM_SHAPE_MULTIPOLES>
552.94
11.73
8.34
1.1
14.41
7.37
-0.17
-11.37
1.24
-10.46
1.05
-0.02
0.44
-0.51

> <PUBCHEM_SHAPE_SELFOVERLAP>
1165.576

> <PUBCHEM_SHAPE_VOLUME>
309

> <PUBCHEM_COORDINATE_TYPE>
2
5
10

$$$$
