12989697
  -OEChem-03292013303D

 53 58  0     1  0  0  0  0  0999 V2000
   -0.2852   -0.0810    1.5509 O   0  0  0  0  0  0  0  0  0  0  0  0
   -0.1595   -2.7780   -0.5553 O   0  0  0  0  0  0  0  0  0  0  0  0
    1.5764    1.5997    1.5416 O   0  0  0  0  0  0  0  0  0  0  0  0
   -3.6069    0.5454   -1.5227 O   0  0  0  0  0  0  0  0  0  0  0  0
   -3.2347   -1.5880    0.5875 O   0  0  0  0  0  0  0  0  0  0  0  0
    0.8989    2.5173   -1.4537 O   0  0  0  0  0  0  0  0  0  0  0  0
   -0.8458   -2.9322    1.6204 O   0  0  0  0  0  0  0  0  0  0  0  0
    3.0847    3.0799    0.5989 O   0  0  0  0  0  0  0  0  0  0  0  0
   -4.9001    1.9524   -0.2613 O   0  0  0  0  0  0  0  0  0  0  0  0
   -0.1415   -0.3991   -0.8410 C   0  0  2  0  0  0  0  0  0  0  0  0
    1.0898    0.3375   -0.3127 C   0  0  2  0  0  0  0  0  0  0  0  0
   -0.8977   -0.7934    0.4606 C   0  0  2  0  0  0  0  0  0  0  0  0
    0.3362   -1.7366   -1.4101 C   0  0  1  0  0  0  0  0  0  0  0  0
    2.1143   -0.8314   -0.0654 C   0  0  1  0  0  0  0  0  0  0  0  0
   -2.3969   -0.4954    0.2145 C   0  0  1  0  0  0  0  0  0  0  0  0
   -1.1737    0.3216   -1.7022 C   0  0  0  0  0  0  0  0  0  0  0  0
    0.4812    0.9507    0.9274 C   0  0  1  0  0  0  0  0  0  0  0  0
    1.8574   -1.7139   -1.2944 C   0  0  0  0  0  0  0  0  0  0  0  0
   -2.4968   -0.3228   -1.2951 C   0  0  2  0  0  0  0  0  0  0  0  0
    1.7669    1.5901   -0.8443 C   0  0  2  0  0  0  0  0  0  0  0  0
   -0.6355   -2.2710    0.6150 C   0  0  0  0  0  0  0  0  0  0  0  0
    3.6057   -0.5402    0.0834 C   0  0  0  0  0  0  0  0  0  0  0  0
   -2.9908    0.8125    0.7401 C   0  0  1  0  0  0  0  0  0  0  0  0
    2.2452    2.2013    0.4799 C   0  0  0  0  0  0  0  0  0  0  0  0
   -3.9618    1.1765   -0.3606 C   0  0  0  0  0  0  0  0  0  0  0  0
    4.3855   -1.8616    0.1926 C   0  0  0  0  0  0  0  0  0  0  0  0
    4.1077    0.2429   -1.1418 C   0  0  0  0  0  0  0  0  0  0  0  0
    3.8487    0.2958    1.3514 C   0  0  0  0  0  0  0  0  0  0  0  0
   -3.6715    0.7209    2.0965 C   0  0  0  0  0  0  0  0  0  0  0  0
    0.0084   -1.9398   -2.4339 H   0  0  0  0  0  0  0  0  0  0  0  0
    1.8133   -1.3917    0.8307 H   0  0  0  0  0  0  0  0  0  0  0  0
   -0.9854    0.2141   -2.7754 H   0  0  0  0  0  0  0  0  0  0  0  0
   -1.2205    1.3950   -1.5022 H   0  0  0  0  0  0  0  0  0  0  0  0
   -0.2425    1.7450    0.7216 H   0  0  0  0  0  0  0  0  0  0  0  0
    2.2519   -1.3076   -2.2267 H   0  0  0  0  0  0  0  0  0  0  0  0
    2.2438   -2.7295   -1.1647 H   0  0  0  0  0  0  0  0  0  0  0  0
   -2.6701   -1.2635   -1.8296 H   0  0  0  0  0  0  0  0  0  0  0  0
    2.4719    1.4598   -1.6347 H   0  0  0  0  0  0  0  0  0  0  0  0
   -2.2608    1.6234    0.7583 H   0  0  0  0  0  0  0  0  0  0  0  0
   -3.0341   -2.3500    0.0187 H   0  0  0  0  0  0  0  0  0  0  0  0
    3.9823   -2.4972    0.9892 H   0  0  0  0  0  0  0  0  0  0  0  0
    5.4429   -1.6817    0.4218 H   0  0  0  0  0  0  0  0  0  0  0  0
    4.3717   -2.4333   -0.7411 H   0  0  0  0  0  0  0  0  0  0  0  0
    4.2445    1.3176   -0.9912 H   0  0  0  0  0  0  0  0  0  0  0  0
    3.6623    0.0099   -2.1092 H   0  0  0  0  0  0  0  0  0  0  0  0
    5.1566   -0.0565   -1.3037 H   0  0  0  0  0  0  0  0  0  0  0  0
    4.2296    1.3026    1.2136 H   0  0  0  0  0  0  0  0  0  0  0  0
    4.7210   -0.1422    1.8651 H   0  0  0  0  0  0  0  0  0  0  0  0
    3.0907    0.1745    2.1271 H   0  0  0  0  0  0  0  0  0  0  0  0
   -4.5507    0.0680    2.0710 H   0  0  0  0  0  0  0  0  0  0  0  0
   -2.9788    0.3443    2.8555 H   0  0  0  0  0  0  0  0  0  0  0  0
   -4.0190    1.7093    2.4171 H   0  0  0  0  0  0  0  0  0  0  0  0
    0.2886    2.8907   -0.7984 H   0  0  0  0  0  0  0  0  0  0  0  0
  1 12  1  0  0  0  0
  1 17  1  0  0  0  0
  2 13  1  0  0  0  0
  2 21  1  0  0  0  0
  3 17  1  0  0  0  0
  3 24  1  0  0  0  0
  4 19  1  0  0  0  0
  4 25  1  0  0  0  0
  5 15  1  0  0  0  0
  5 40  1  0  0  0  0
  6 20  1  0  0  0  0
  6 53  1  0  0  0  0
  7 21  2  0  0  0  0
  8 24  2  0  0  0  0
  9 25  2  0  0  0  0
 10 11  1  0  0  0  0
 10 12  1  0  0  0  0
 10 13  1  0  0  0  0
 10 16  1  0  0  0  0
 11 14  1  0  0  0  0
 11 17  1  0  0  0  0
 11 20  1  0  0  0  0
 12 15  1  0  0  0  0
 12 21  1  0  0  0  0
 13 18  1  0  0  0  0
 13 30  1  0  0  0  0
 14 18  1  0  0  0  0
 14 22  1  0  0  0  0
 14 31  1  0  0  0  0
 15 19  1  0  0  0  0
 15 23  1  0  0  0  0
 16 19  1  0  0  0  0
 16 32  1  0  0  0  0
 16 33  1  0  0  0  0
 17 34  1  0  0  0  0
 18 35  1  0  0  0  0
 18 36  1  0  0  0  0
 19 37  1  0  0  0  0
 20 24  1  0  0  0  0
 20 38  1  0  0  0  0
 22 26  1  0  0  0  0
 22 27  1  0  0  0  0
 22 28  1  0  0  0  0
 23 25  1  0  0  0  0
 23 29  1  0  0  0  0
 23 39  1  0  0  0  0
 26 41  1  0  0  0  0
 26 42  1  0  0  0  0
 26 43  1  0  0  0  0
 27 44  1  0  0  0  0
 27 45  1  0  0  0  0
 27 46  1  0  0  0  0
 28 47  1  0  0  0  0
 28 48  1  0  0  0  0
 28 49  1  0  0  0  0
 29 50  1  0  0  0  0
 29 51  1  0  0  0  0
 29 52  1  0  0  0  0
M  END
> <PUBCHEM_COMPOUND_CID>
12989697

> <PUBCHEM_CONFORMER_RMSD>
0.8

> <PUBCHEM_CONFORMER_DIVERSEORDER>
2
1

> <PUBCHEM_MMFF94_PARTIAL_CHARGES>
21
1 -0.56
12 0.34
13 0.28
15 0.28
17 0.56
19 0.28
2 -0.43
20 0.34
21 0.66
23 0.06
24 0.66
25 0.66
3 -0.43
4 -0.43
40 0.4
5 -0.68
53 0.4
6 -0.68
7 -0.57
8 -0.57
9 -0.57

> <PUBCHEM_EFFECTIVE_ROTOR_COUNT>
2.8

> <PUBCHEM_PHARMACOPHORE_FEATURES>
15
1 1 acceptor
1 5 acceptor
1 5 donor
1 6 acceptor
1 6 donor
1 7 acceptor
1 8 acceptor
1 9 acceptor
4 22 26 27 28 hydrophobe
5 1 10 11 12 17 rings
5 10 11 13 14 18 rings
5 10 12 15 16 19 rings
5 2 10 12 13 21 rings
5 3 11 17 20 24 rings
5 4 15 19 23 25 rings

> <PUBCHEM_HEAVY_ATOM_COUNT>
29

> <PUBCHEM_ATOM_DEF_STEREO_COUNT>
9

> <PUBCHEM_ATOM_UDEF_STEREO_COUNT>
1

> <PUBCHEM_BOND_DEF_STEREO_COUNT>
0

> <PUBCHEM_BOND_UDEF_STEREO_COUNT>
0

> <PUBCHEM_ISOTOPIC_ATOM_COUNT>
0

> <PUBCHEM_COMPONENT_COUNT>
1

> <PUBCHEM_CACTVS_TAUTO_COUNT>
6

> <PUBCHEM_CONFORMER_ID>
00C6350100000002

> <PUBCHEM_MMFF94_ENERGY>
178.672

> <PUBCHEM_FEATURE_SELFOVERLAP>
79.426

> <PUBCHEM_SHAPE_FINGERPRINT>
10062212 137 17917988365108570839
10165383 225 17974891425062217589
10863032 1 18338796826797864590
10906281 52 18272384040222243860
10948715 1 18340198695475289591
11578080 2 17898035600925078356
11640471 11 17489869349390052605
12011746 2 18131074792983101918
12035758 1 18334852797206271384
12156800 1 7994260544253967440
12422481 6 17483671205076808562
12633257 1 18260824891079036072
12788726 201 18058460815907636328
13132413 78 17986397676386135104
13134695 92 18339073796702366268
13140716 1 18411709793917098115
13224815 77 17917434254308419601
13464514 151 18195806267682606469
13583140 156 18187356670772691138
14178342 30 17974842084625549376
14223421 5 17903359547605528522
14466204 15 18194673766174114600
14713325 29 17758964010108979616
1601671 61 18340775858003228660
16945 1 18131071497967842806
17349148 13 17989489606152003042
17980427 23 17489306352461192096
18186145 218 18273220802192215497
18981168 100 18192432085097331901
20600515 1 18263099738193757518
20691752 17 18188751908094256364
21033648 29 17967806141915545093
21033650 10 14476699493732232745
21304253 335 17416414168635924153
21731516 1 8790343113482278837
23184049 59 18413103948922943094
23558518 356 18191582154362212775
23559900 14 18272652342629333250
238 59 17977346531374149445
25 1 18340770347201381223
2748010 2 18054796345283034854
296302 2 16916777509546526026
350125 39 18338526347322826307
4340502 62 18338807728358610155
474 4 18272088279762391609
70251023 43 17478898182146023079
9981440 41 17196537398183569720

> <PUBCHEM_SHAPE_MULTIPOLES>
543.98
7.31
2.76
1.68
1.6
0.02
0.11
-2.09
0.54
-1.07
0.28
0.56
-0.05
0.43

> <PUBCHEM_SHAPE_SELFOVERLAP>
1251.823

> <PUBCHEM_SHAPE_VOLUME>
283.5

> <PUBCHEM_COORDINATE_TYPE>
2
5
10

$$$$
