129864130
  -OEChem-03292013293D

 45 48  0     1  0  0  0  0  0999 V2000
   -4.1578   -0.8290    0.7646 O   0  0  0  0  0  0  0  0  0  0  0  0
   -3.4859    2.3423   -0.7707 O   0  0  0  0  0  0  0  0  0  0  0  0
   -5.9536    1.4043   -0.1325 O   0  0  0  0  0  0  0  0  0  0  0  0
   -4.8040   -3.1970   -0.6042 O   0  0  0  0  0  0  0  0  0  0  0  0
    8.1616    0.1759   -0.4522 O   0  0  0  0  0  0  0  0  0  0  0  0
   -1.7986   -0.2247    0.5342 N   0  0  0  0  0  0  0  0  0  0  0  0
   -0.0863   -1.6503    0.6066 N   0  0  0  0  0  0  0  0  0  0  0  0
   -0.6021    1.8416    0.0879 N   0  0  0  0  0  0  0  0  0  0  0  0
    1.8025    1.4562   -0.0730 N   0  0  0  0  0  0  0  0  0  0  0  0
    2.7761   -0.7141    0.1878 N   0  0  0  0  0  0  0  0  0  0  0  0
    4.5757    0.7857   -0.2205 N   0  0  0  0  0  0  0  0  0  0  0  0
   -3.2410    0.2815    0.5861 C   0  0  1  0  0  0  0  0  0  0  0  0
   -3.6670    0.9397   -0.7429 C   0  0  1  0  0  0  0  0  0  0  0  0
   -5.1212    0.5400   -0.9011 C   0  0  1  0  0  0  0  0  0  0  0  0
   -5.1406   -0.8488   -0.2885 C   0  0  1  0  0  0  0  0  0  0  0  0
   -3.4080    1.1841    1.8180 C   0  0  0  0  0  0  0  0  0  0  0  0
   -4.7664   -1.9479   -1.2747 C   0  0  0  0  0  0  0  0  0  0  0  0
   -0.6764    0.5206    0.3091 C   0  0  0  0  0  0  0  0  0  0  0  0
   -1.3929   -1.5214    0.7072 C   0  0  0  0  0  0  0  0  0  0  0  0
    0.3741   -0.3818    0.3580 C   0  0  0  0  0  0  0  0  0  0  0  0
    1.6523    0.1294    0.1562 C   0  0  0  0  0  0  0  0  0  0  0  0
    0.6825    2.2186   -0.0926 C   0  0  0  0  0  0  0  0  0  0  0  0
    4.1578   -0.4772    0.0212 C   0  0  0  0  0  0  0  0  0  0  0  0
    5.0050   -1.5692    0.1193 C   0  0  0  0  0  0  0  0  0  0  0  0
    6.3689   -1.3512   -0.0412 C   0  0  0  0  0  0  0  0  0  0  0  0
    5.9081    0.9587   -0.3709 C   0  0  0  0  0  0  0  0  0  0  0  0
    6.8372   -0.0660   -0.2912 C   0  0  0  0  0  0  0  0  0  0  0  0
   -3.0956    0.5118   -1.5767 H   0  0  0  0  0  0  0  0  0  0  0  0
   -5.4665    0.5826   -1.9383 H   0  0  0  0  0  0  0  0  0  0  0  0
   -6.1012   -1.0846    0.1827 H   0  0  0  0  0  0  0  0  0  0  0  0
   -3.1322    0.6390    2.7291 H   0  0  0  0  0  0  0  0  0  0  0  0
   -2.7862    2.0829    1.7686 H   0  0  0  0  0  0  0  0  0  0  0  0
   -4.4496    1.4918    1.9539 H   0  0  0  0  0  0  0  0  0  0  0  0
   -3.7526   -1.8150   -1.6649 H   0  0  0  0  0  0  0  0  0  0  0  0
   -5.4727   -1.9779   -2.1101 H   0  0  0  0  0  0  0  0  0  0  0  0
   -2.5368    2.5194   -0.6603 H   0  0  0  0  0  0  0  0  0  0  0  0
   -2.0823   -2.3309    0.9038 H   0  0  0  0  0  0  0  0  0  0  0  0
   -6.8671    1.0828   -0.2210 H   0  0  0  0  0  0  0  0  0  0  0  0
   -4.5656   -3.8788   -1.2551 H   0  0  0  0  0  0  0  0  0  0  0  0
    0.8400    3.2756   -0.2789 H   0  0  0  0  0  0  0  0  0  0  0  0
    2.5425   -1.6871    0.3665 H   0  0  0  0  0  0  0  0  0  0  0  0
    4.6355   -2.5706    0.3147 H   0  0  0  0  0  0  0  0  0  0  0  0
    7.0565   -2.1893    0.0307 H   0  0  0  0  0  0  0  0  0  0  0  0
    6.2168    1.9812   -0.5641 H   0  0  0  0  0  0  0  0  0  0  0  0
    8.6471   -0.6621   -0.3618 H   0  0  0  0  0  0  0  0  0  0  0  0
  1 12  1  0  0  0  0
  1 15  1  0  0  0  0
  2 13  1  0  0  0  0
  2 36  1  0  0  0  0
  3 14  1  0  0  0  0
  3 38  1  0  0  0  0
  4 17  1  0  0  0  0
  4 39  1  0  0  0  0
  5 27  1  0  0  0  0
  5 45  1  0  0  0  0
  6 12  1  0  0  0  0
  6 18  1  0  0  0  0
  6 19  1  0  0  0  0
  7 19  2  0  0  0  0
  7 20  1  0  0  0  0
  8 18  2  0  0  0  0
  8 22  1  0  0  0  0
  9 21  1  0  0  0  0
  9 22  2  0  0  0  0
 10 21  1  0  0  0  0
 10 23  1  0  0  0  0
 10 41  1  0  0  0  0
 11 23  2  0  0  0  0
 11 26  1  0  0  0  0
 12 13  1  0  0  0  0
 12 16  1  0  0  0  0
 13 14  1  0  0  0  0
 13 28  1  0  0  0  0
 14 15  1  0  0  0  0
 14 29  1  0  0  0  0
 15 17  1  0  0  0  0
 15 30  1  0  0  0  0
 16 31  1  0  0  0  0
 16 32  1  0  0  0  0
 16 33  1  0  0  0  0
 17 34  1  0  0  0  0
 17 35  1  0  0  0  0
 18 20  1  0  0  0  0
 19 37  1  0  0  0  0
 20 21  2  0  0  0  0
 22 40  1  0  0  0  0
 23 24  1  0  0  0  0
 24 25  2  0  0  0  0
 24 42  1  0  0  0  0
 25 27  1  0  0  0  0
 25 43  1  0  0  0  0
 26 27  2  0  0  0  0
 26 44  1  0  0  0  0
M  END
> <PUBCHEM_COMPOUND_CID>
129864130

> <PUBCHEM_CONFORMER_RMSD>
0.8

> <PUBCHEM_CONFORMER_DIVERSEORDER>
1
19
62
71
31
95
48
87
11
104
79
66
12
52
5
75
47
58
49
73
25
8
56
70
40
63
93
105
76
20
33
30
54
42
2
18
21
61
72
67
15
26
28
80
83
98
60
7
29
32
6
90
22
74
50
24
39
34
14
84
94
78
96
27
59
9
102
92
55
57
16
97
23
35
37
44
86
46
103
65
3
81
45
36
64
88
100
99
68
17
51
13
82
77
101
4
89
38
10
43
53
41
85
69
91

> <PUBCHEM_MMFF94_PARTIAL_CHARGES>
36
1 -0.56
10 -0.6
11 -0.62
12 0.54
13 0.28
14 0.28
15 0.28
17 0.28
18 0.11
19 0.04
2 -0.68
20 0.23
21 0.41
22 0.47
23 0.41
24 -0.15
25 -0.15
26 0.16
27 0.08
3 -0.68
36 0.4
37 0.15
38 0.4
39 0.4
4 -0.68
40 0.15
41 0.4
42 0.15
43 0.15
44 0.15
45 0.45
5 -0.53
6 0.05
7 -0.57
8 -0.57
9 -0.62

> <PUBCHEM_EFFECTIVE_ROTOR_COUNT>
5

> <PUBCHEM_PHARMACOPHORE_FEATURES>
17
1 1 acceptor
1 10 donor
1 2 acceptor
1 2 donor
1 3 acceptor
1 3 donor
1 4 acceptor
1 4 donor
1 5 donor
3 10 11 23 cation
3 6 7 19 cation
3 6 8 18 cation
3 8 9 22 cation
5 1 12 13 14 15 rings
5 6 7 18 19 20 rings
6 11 23 24 25 26 27 rings
6 8 9 18 20 21 22 rings

> <PUBCHEM_HEAVY_ATOM_COUNT>
27

> <PUBCHEM_ATOM_DEF_STEREO_COUNT>
4

> <PUBCHEM_ATOM_UDEF_STEREO_COUNT>
0

> <PUBCHEM_BOND_DEF_STEREO_COUNT>
0

> <PUBCHEM_BOND_UDEF_STEREO_COUNT>
0

> <PUBCHEM_ISOTOPIC_ATOM_COUNT>
0

> <PUBCHEM_COMPONENT_COUNT>
1

> <PUBCHEM_CACTVS_TAUTO_COUNT>
17

> <PUBCHEM_CONFORMER_ID>
07BD91C200000001

> <PUBCHEM_MMFF94_ENERGY>
78.4012

> <PUBCHEM_FEATURE_SELFOVERLAP>
86.895

> <PUBCHEM_SHAPE_FINGERPRINT>
10906281 52 18267043720545978576
11315181 36 18131072640429208648
11524674 6 16486971812984810231
12091667 2 18040438788987012610
12166972 35 18342739666916282304
12236239 1 18272369771697386280
12516196 113 18343863325461749056
13288520 33 18342738529144976653
13631057 29 18272083942199467639
13668630 136 17775571944436462190
13782708 43 17561086857148242318
13862211 1 18409728452610646730
14856354 85 16271923839513439885
15183329 4 18334572434705315118
15461852 350 18412268367847659614
17349148 13 18131358522121336744
17492 89 18124028203281129887
17980427 23 17775018868059648480
18681886 176 18271516589434589083
18927931 339 16845574223337845685
19489759 90 17095244708927666880
21150785 3 18040714792270573862
21236236 1 18337955580112545729
21267235 1 18337110164004641907
21709351 56 18260542347030047733
22393880 68 18262222387991469469
23402539 116 18411979152437677695
23522609 53 18125472815626611424
23559900 14 18270954747519738593
249057 3 18413385441670600693
3004659 81 18113900443021838272
3009799 131 18113617867848100356
335352 9 18410288104498605381
34797466 226 16343427297556327944
397830 11 15912182369911225578
4015057 19 18114750450645239808
4073 2 17604158120743240018
4325135 7 18408886226740505436
5283173 99 18187923924684496924
531348 171 18335978654174282423
54039377 194 18270683203209412967
59755656 520 16805041826438700667

> <PUBCHEM_SHAPE_MULTIPOLES>
496.41
17.93
2.26
0.97
24.11
0.51
-0.14
3.14
4.14
-2.45
0.33
-1.19
-0.03
-0.74

> <PUBCHEM_SHAPE_SELFOVERLAP>
1087.174

> <PUBCHEM_SHAPE_VOLUME>
262.6

> <PUBCHEM_COORDINATE_TYPE>
2
5
10

$$$$
