129817
  -OEChem-03292013323D

 32 32  0     0  0  0  0  0  0999 V2000
   -0.3173   -0.5372    0.0737 S   0  0  0  0  0  0  0  0  0  0  0  0
   -4.6734    0.8038    0.6445 N   0  0  0  0  0  0  0  0  0  0  0  0
    2.7450    0.1272   -0.3595 N   0  0  0  0  0  0  0  0  0  0  0  0
   -3.6888   -1.1849    0.7363 N   0  0  0  0  0  0  0  0  0  0  0  0
    4.1262    1.8492    0.2054 N   0  0  0  0  0  0  0  0  0  0  0  0
    4.9074   -0.4090    0.3923 N   0  0  0  0  0  0  0  0  0  0  0  0
   -3.0382   -0.3599   -0.1292 C   0  0  0  0  0  0  0  0  0  0  0  0
   -1.8327   -0.8594   -0.8561 C   0  0  0  0  0  0  0  0  0  0  0  0
    0.8678   -1.2646   -1.0994 C   0  0  0  0  0  0  0  0  0  0  0  0
   -3.6126    0.8714   -0.2142 C   0  0  0  0  0  0  0  0  0  0  0  0
    2.2979   -1.2282   -0.5754 C   0  0  0  0  0  0  0  0  0  0  0  0
   -3.2977    2.0826   -0.9875 C   0  0  0  0  0  0  0  0  0  0  0  0
   -4.6786   -0.4492    1.1916 C   0  0  0  0  0  0  0  0  0  0  0  0
    4.0017    0.4789    0.1046 C   0  0  0  0  0  0  0  0  0  0  0  0
    6.1932    0.0794    0.8730 C   0  0  0  0  0  0  0  0  0  0  0  0
   -1.9307   -1.9383   -1.0189 H   0  0  0  0  0  0  0  0  0  0  0  0
   -1.7640   -0.3787   -1.8380 H   0  0  0  0  0  0  0  0  0  0  0  0
    0.8018   -0.7143   -2.0443 H   0  0  0  0  0  0  0  0  0  0  0  0
    0.5820   -2.3048   -1.2876 H   0  0  0  0  0  0  0  0  0  0  0  0
    2.9532   -1.7123   -1.3089 H   0  0  0  0  0  0  0  0  0  0  0  0
    2.3732   -1.8009    0.3568 H   0  0  0  0  0  0  0  0  0  0  0  0
   -5.3356    1.5424    0.8416 H   0  0  0  0  0  0  0  0  0  0  0  0
   -3.9638    2.9137   -0.7336 H   0  0  0  0  0  0  0  0  0  0  0  0
   -2.2703    2.4068   -0.7934 H   0  0  0  0  0  0  0  0  0  0  0  0
   -3.3970    1.8882   -2.0602 H   0  0  0  0  0  0  0  0  0  0  0  0
    2.0802    0.8697   -0.5594 H   0  0  0  0  0  0  0  0  0  0  0  0
   -5.4248   -0.7594    1.9091 H   0  0  0  0  0  0  0  0  0  0  0  0
    3.3598    2.4649   -0.0445 H   0  0  0  0  0  0  0  0  0  0  0  0
    4.9791    2.2918    0.5285 H   0  0  0  0  0  0  0  0  0  0  0  0
    6.6911    0.7039    0.1239 H   0  0  0  0  0  0  0  0  0  0  0  0
    6.8462   -0.7762    1.0716 H   0  0  0  0  0  0  0  0  0  0  0  0
    6.0868    0.6342    1.8109 H   0  0  0  0  0  0  0  0  0  0  0  0
  1  8  1  0  0  0  0
  1  9  1  0  0  0  0
  2 10  1  0  0  0  0
  2 13  1  0  0  0  0
  2 22  1  0  0  0  0
  3 11  1  0  0  0  0
  3 14  1  0  0  0  0
  3 26  1  0  0  0  0
  4  7  1  0  0  0  0
  4 13  2  0  0  0  0
  5 14  1  0  0  0  0
  5 28  1  0  0  0  0
  5 29  1  0  0  0  0
  6 14  2  0  0  0  0
  6 15  1  0  0  0  0
  7  8  1  0  0  0  0
  7 10  2  0  0  0  0
  8 16  1  0  0  0  0
  8 17  1  0  0  0  0
  9 11  1  0  0  0  0
  9 18  1  0  0  0  0
  9 19  1  0  0  0  0
 10 12  1  0  0  0  0
 11 20  1  0  0  0  0
 11 21  1  0  0  0  0
 12 23  1  0  0  0  0
 12 24  1  0  0  0  0
 12 25  1  0  0  0  0
 13 27  1  0  0  0  0
 15 30  1  0  0  0  0
 15 31  1  0  0  0  0
 15 32  1  0  0  0  0
M  END
> <PUBCHEM_COMPOUND_CID>
129817

> <PUBCHEM_CONFORMER_RMSD>
0.8

> <PUBCHEM_CONFORMER_DIVERSEORDER>
1
156
233
29
35
92
177
40
117
33
165
64
258
79
15
179
75
59
130
56
58
95
209
94
138
4
45
225
121
237
175
163
134
12
124
23
8
230
232
110
192
246
133
46
155
199
212
61
250
222
26
6
30
2
25
3
158
19
157
198
41
21
148
123
86
104
57
141
60
238
118
200
5
241
69
236
128
119
55
218
182
27
180
115
116
43
135
205
194
132
168
62
162
36
93
17
144
221
108
73
16
37
107
9
210
166
188
48
149
152
153
191
51
120
96
227
81
87
214
186
160
24
102
253
183
176
111
207
254
31
65
213
139
103
172
231
112
18
197
67
220
54
173
13
202
208
98
83
66
7
22
32
52
68
228
147
101
216
223
185
74
114
100
77
84
129
235
257
78
71
20
224
34
90
171
248
190
137
142
169
10
164
80
88
151
39
159
217
211
146
109
82
47
70
99
204
49
174
229
113
196
143
91
240
50
226
97
14
150
167
201
28
195
145
11
243
245
42
140
181
256
219
76
239
161
184
136
106
203
38
178
249
215
127
234
44
189
255
122
131
187
206
85
244
154
72
89
247
170
63
53
193
242
126
251
125
105
252

> <PUBCHEM_MMFF94_PARTIAL_CHARGES>
20
1 -0.46
10 -0.33
11 0.37
12 0.18
13 0.04
14 0.55
15 0.25
2 0.03
22 0.27
26 0.4
27 0.15
28 0.4
29 0.4
3 -0.82
4 -0.57
5 -0.85
6 -0.7
7 0.05
8 0.41
9 0.23

> <PUBCHEM_EFFECTIVE_ROTOR_COUNT>
6

> <PUBCHEM_PHARMACOPHORE_FEATURES>
6
1 2 donor
1 3 donor
1 5 donor
3 2 4 13 cation
4 3 5 6 14 cation
5 2 4 7 10 13 rings

> <PUBCHEM_HEAVY_ATOM_COUNT>
15

> <PUBCHEM_ATOM_DEF_STEREO_COUNT>
0

> <PUBCHEM_ATOM_UDEF_STEREO_COUNT>
0

> <PUBCHEM_BOND_DEF_STEREO_COUNT>
0

> <PUBCHEM_BOND_UDEF_STEREO_COUNT>
0

> <PUBCHEM_ISOTOPIC_ATOM_COUNT>
0

> <PUBCHEM_COMPONENT_COUNT>
1

> <PUBCHEM_CACTVS_TAUTO_COUNT>
6

> <PUBCHEM_CONFORMER_ID>
0001FB1900000001

> <PUBCHEM_MMFF94_ENERGY>
22.4103

> <PUBCHEM_FEATURE_SELFOVERLAP>
30.502

> <PUBCHEM_SHAPE_FINGERPRINT>
11543360 7 12103554312361688358
12507557 5 18413670218554093280
12596602 18 16588308319106616200
13675066 3 18334861597388720814
14123255 352 18412257333369839620
14251718 22 10735871781596760282
14252887 29 14418128492452017410
15188451 53 16878227571162650875
15501527 16 18202844370344890506
15880784 105 15357705213958425068
17834072 33 10663809802539823562
1798214 20 7781520300108159966
18222031 100 13479129121001487894
193927 3 12468640474159487530
19433438 28 18260265265462164576
200 152 12829207780447838511
20325693 3 12175619573480326375
20432913 95 14418131803243970704
20645477 56 18342740719151289887
20871999 31 11743836967068393855
21065199 12 18260833648617955911
23402539 116 18041275547770098167
23402655 69 13470694737007899502
23403322 49 7853572401041158869
23590187 198 16008750216598342955
27216 239 18411703162893794253
2767999 5 17203602697158812218
3004659 81 11095899155110328772
314194 84 12829490338009469728
351380 3 13479132402092491802
4259306 186 10809335659438253880
449060 50 18202007620474064903
5104073 3 18263372391270842571

> <PUBCHEM_SHAPE_MULTIPOLES>
287.64
13.66
1.6
1.06
12.27
0.66
0
3.31
4.96
-0.54
-0.38
-0.54
-0.1
0.97

> <PUBCHEM_SHAPE_SELFOVERLAP>
556.529

> <PUBCHEM_SHAPE_VOLUME>
177.1

> <PUBCHEM_COORDINATE_TYPE>
2
5
10

$$$$
