129822899
  -OEChem-03292013293D

 36 36  0     1  0  0  0  0  0999 V2000
    3.2469   -0.5022   -0.6435 O   0  0  0  0  0  0  0  0  0  0  0  0
    0.7240    3.1497   -0.5598 O   0  0  0  0  0  0  0  0  0  0  0  0
    0.6442    2.8069    1.6924 O   0  0  0  0  0  0  0  0  0  0  0  0
   -4.0370    1.1629   -1.6953 O   0  0  0  0  0  0  0  0  0  0  0  0
   -3.5201   -1.0036   -2.2139 O   0  0  0  0  0  0  0  0  0  0  0  0
   -2.7635   -2.8706    1.0423 O   0  0  0  0  0  0  0  0  0  0  0  0
   -4.5888   -1.4963    0.9436 O   0  0  0  0  0  0  0  0  0  0  0  0
    4.8302   -0.3297    1.0309 O   0  0  0  0  0  0  0  0  0  0  0  0
   -0.0660    1.0551    0.1741 C   0  0  2  0  0  0  0  0  0  0  0  0
   -1.3619    1.2301   -0.6590 C   0  0  0  0  0  0  0  0  0  0  0  0
    1.0051    0.3020   -0.6246 C   0  0  0  0  0  0  0  0  0  0  0  0
   -0.3128    0.3410    1.4795 C   0  0  0  0  0  0  0  0  0  0  0  0
   -2.3906    0.1354   -0.4600 C   0  0  0  0  0  0  0  0  0  0  0  0
    0.4669    2.4136    0.5490 C   0  0  0  0  0  0  0  0  0  0  0  0
    2.2978    0.1867    0.1585 C   0  0  0  0  0  0  0  0  0  0  0  0
   -2.3935   -0.6349    0.6457 C   0  0  0  0  0  0  0  0  0  0  0  0
   -1.3966   -0.4222    1.6797 C   0  0  0  0  0  0  0  0  0  0  0  0
   -3.3659    0.0036   -1.5555 C   0  0  0  0  0  0  0  0  0  0  0  0
   -3.3921   -1.6892    0.8908 C   0  0  0  0  0  0  0  0  0  0  0  0
    4.4757   -0.6912   -0.0800 C   0  0  0  0  0  0  0  0  0  0  0  0
    5.3183   -1.4175   -1.0524 C   0  0  0  0  0  0  0  0  0  0  0  0
    6.5798   -1.7297   -0.7425 C   0  0  0  0  0  0  0  0  0  0  0  0
   -1.1045    1.3010   -1.7246 H   0  0  0  0  0  0  0  0  0  0  0  0
   -1.8476    2.1832   -0.4044 H   0  0  0  0  0  0  0  0  0  0  0  0
    1.2134    0.8015   -1.5803 H   0  0  0  0  0  0  0  0  0  0  0  0
    0.6548   -0.7031   -0.8967 H   0  0  0  0  0  0  0  0  0  0  0  0
    0.4049    0.4151    2.2934 H   0  0  0  0  0  0  0  0  0  0  0  0
    2.7077    1.1719    0.4056 H   0  0  0  0  0  0  0  0  0  0  0  0
    2.1608   -0.3874    1.0805 H   0  0  0  0  0  0  0  0  0  0  0  0
   -1.5307   -0.9220    2.6344 H   0  0  0  0  0  0  0  0  0  0  0  0
    1.0722    4.0391   -0.3364 H   0  0  0  0  0  0  0  0  0  0  0  0
   -4.6999    1.1214   -2.4172 H   0  0  0  0  0  0  0  0  0  0  0  0
   -3.3921   -3.6050    1.2088 H   0  0  0  0  0  0  0  0  0  0  0  0
    4.8990   -1.6906   -2.0142 H   0  0  0  0  0  0  0  0  0  0  0  0
    7.1980   -2.2631   -1.4570 H   0  0  0  0  0  0  0  0  0  0  0  0
    7.0274   -1.4705    0.2106 H   0  0  0  0  0  0  0  0  0  0  0  0
  1 15  1  0  0  0  0
  1 20  1  0  0  0  0
  2 14  1  0  0  0  0
  2 31  1  0  0  0  0
  3 14  2  0  0  0  0
  4 18  1  0  0  0  0
  4 32  1  0  0  0  0
  5 18  2  0  0  0  0
  6 19  1  0  0  0  0
  6 33  1  0  0  0  0
  7 19  2  0  0  0  0
  8 20  2  0  0  0  0
  9 10  1  0  0  0  0
  9 11  1  0  0  0  0
  9 12  1  0  0  0  0
  9 14  1  0  0  0  0
 10 13  1  0  0  0  0
 10 23  1  0  0  0  0
 10 24  1  0  0  0  0
 11 15  1  0  0  0  0
 11 25  1  0  0  0  0
 11 26  1  0  0  0  0
 12 17  2  0  0  0  0
 12 27  1  0  0  0  0
 13 16  2  0  0  0  0
 13 18  1  0  0  0  0
 15 28  1  0  0  0  0
 15 29  1  0  0  0  0
 16 17  1  0  0  0  0
 16 19  1  0  0  0  0
 17 30  1  0  0  0  0
 20 21  1  0  0  0  0
 21 22  2  0  0  0  0
 21 34  1  0  0  0  0
 22 35  1  0  0  0  0
 22 36  1  0  0  0  0
M  END
> <PUBCHEM_COMPOUND_CID>
129822899

> <PUBCHEM_CONFORMER_RMSD>
0.8

> <PUBCHEM_CONFORMER_DIVERSEORDER>
1
38
13
22
26
6
21
52
36
37
10
30
60
43
34
58
29
20
23
54
7
48
24
57
19
25
9
49
42
4
33
3
55
50
16
2
39
41
18
40
59
47
31
51
28
44
46
17
53
45
11
35
14
5
56
8
32
12
15
27

> <PUBCHEM_MMFF94_PARTIAL_CHARGES>
29
1 -0.43
10 0.14
12 -0.29
13 -0.12
14 0.66
15 0.28
16 0.01
17 -0.15
18 0.71
19 0.71
2 -0.65
20 0.71
21 -0.14
22 -0.3
27 0.15
3 -0.57
30 0.15
31 0.5
32 0.5
33 0.5
34 0.15
35 0.15
36 0.15
4 -0.65
5 -0.57
6 -0.65
7 -0.57
8 -0.57
9 0.2

> <PUBCHEM_EFFECTIVE_ROTOR_COUNT>
8.4

> <PUBCHEM_PHARMACOPHORE_FEATURES>
12
1 2 acceptor
1 22 hydrophobe
1 3 acceptor
1 4 acceptor
1 5 acceptor
1 6 acceptor
1 7 acceptor
1 8 acceptor
3 2 3 14 anion
3 4 5 18 anion
3 6 7 19 anion
6 9 10 12 13 16 17 rings

> <PUBCHEM_HEAVY_ATOM_COUNT>
22

> <PUBCHEM_ATOM_DEF_STEREO_COUNT>
0

> <PUBCHEM_ATOM_UDEF_STEREO_COUNT>
1

> <PUBCHEM_BOND_DEF_STEREO_COUNT>
0

> <PUBCHEM_BOND_UDEF_STEREO_COUNT>
0

> <PUBCHEM_ISOTOPIC_ATOM_COUNT>
0

> <PUBCHEM_COMPONENT_COUNT>
1

> <PUBCHEM_CACTVS_TAUTO_COUNT>
1

> <PUBCHEM_CONFORMER_ID>
07BCF0B300000001

> <PUBCHEM_MMFF94_ENERGY>
57.4362

> <PUBCHEM_FEATURE_SELFOVERLAP>
61.066

> <PUBCHEM_SHAPE_FINGERPRINT>
10165383 225 17677893436312609141
12363563 72 18411991260430454988
12403259 118 12607398893108849346
12596602 18 13973675119086057222
12788726 201 18052811455864111896
12892183 10 12823298992070065436
12954195 1 18040994025933518431
13083527 12 12462703227676531521
13134695 92 18059289980159692921
13544653 18 18131067143329998788
13673619 4 17896334656616276715
14341114 328 15051737503843825394
14713325 29 14996584879138489153
15183329 4 13118278166984063338
15534591 1 13912324559987447765
15880784 105 17060328631120317222
16945 1 17678426806646823225
17870717 6 18114467773088027926
17980427 23 13614236010305623017
1813 80 17775299273852902100
18915476 22 18053374689201218952
18927931 339 18059583430095477678
200 152 18410577249964906198
20645477 56 8502359024178096706
20871999 31 16950285113133183695
22079108 93 11386661679905783277
22182313 1 17897993866785722777
22224240 67 8646477562149407885
23175994 123 18412827992757888997
23402539 116 18339649940947983250
23557571 272 18199754635608186564
23559900 14 18260543433910266560
27216 239 10952046732315802015
2838139 119 14201117903963521134
5283173 99 17894905218396221908
6049 1 18116426132541663557
90316 7 15410906157920772891

> <PUBCHEM_SHAPE_MULTIPOLES>
405.8
10.84
2.59
1.69
17.38
1.23
-0.23
-9.07
-3.4
-0.5
0.62
-1.6
-0.06
1.58

> <PUBCHEM_SHAPE_SELFOVERLAP>
850.708

> <PUBCHEM_SHAPE_VOLUME>
225.4

> <PUBCHEM_COORDINATE_TYPE>
2
5
10

$$$$
