129883793
  -OEChem-03292013293D

 34 35  0     1  0  0  0  0  0999 V2000
    5.2138   -0.2110    0.1953 P   0  0  0  0  0  0  0  0  0  0  0  0
    1.0236   -0.1134   -1.5786 F   0  0  0  0  0  0  0  0  0  0  0  0
    2.1588    0.1454    0.3499 O   0  0  0  0  0  0  0  0  0  0  0  0
    5.3900   -0.9593   -1.2183 O   0  0  0  0  0  0  0  0  0  0  0  0
    6.5625   -0.5678    0.9973 O   0  0  0  0  0  0  0  0  0  0  0  0
    4.8415    1.2276    0.1382 O   0  0  0  0  0  0  0  0  0  0  0  0
   -2.4474    0.1393   -1.0464 N   0  0  0  0  0  0  0  0  0  0  0  0
   -2.5181    1.6861    0.8387 N   0  0  0  0  0  0  0  0  0  0  0  0
   -5.0325   -0.9932    0.9968 N   0  0  0  0  0  0  0  0  0  0  0  0
   -4.1132   -1.6276   -0.9321 N   0  0  0  0  0  0  0  0  0  0  0  0
    0.4527    1.7249   -0.2339 C   0  0  0  0  0  0  0  0  0  0  0  0
   -0.8873    1.9859   -0.9274 C   0  0  0  0  0  0  0  0  0  0  0  0
    0.8854    0.2640   -0.2796 C   0  0  1  0  0  0  0  0  0  0  0  0
    2.6306   -1.1951    0.3463 C   0  0  0  0  0  0  0  0  0  0  0  0
    3.9832   -1.2437    1.0290 C   0  0  0  0  0  0  0  0  0  0  0  0
   -2.0376    1.2117   -0.3353 C   0  0  0  0  0  0  0  0  0  0  0  0
   -4.0363   -0.0929    0.7472 C   0  0  0  0  0  0  0  0  0  0  0  0
   -3.4805   -0.5079   -0.4555 C   0  0  0  0  0  0  0  0  0  0  0  0
   -3.5493    1.0196    1.4048 C   0  0  0  0  0  0  0  0  0  0  0  0
   -5.0399   -1.8928   -0.0363 C   0  0  0  0  0  0  0  0  0  0  0  0
    1.2216    2.3414   -0.7162 H   0  0  0  0  0  0  0  0  0  0  0  0
    0.4100    2.0549    0.8117 H   0  0  0  0  0  0  0  0  0  0  0  0
   -1.1205    3.0561   -0.8675 H   0  0  0  0  0  0  0  0  0  0  0  0
   -0.7999    1.7491   -1.9951 H   0  0  0  0  0  0  0  0  0  0  0  0
    0.1625   -0.3963    0.2107 H   0  0  0  0  0  0  0  0  0  0  0  0
    1.9231   -1.8371    0.8825 H   0  0  0  0  0  0  0  0  0  0  0  0
    2.7225   -1.5500   -0.6857 H   0  0  0  0  0  0  0  0  0  0  0  0
    3.8959   -0.8755    2.0571 H   0  0  0  0  0  0  0  0  0  0  0  0
    4.3465   -2.2757    1.0668 H   0  0  0  0  0  0  0  0  0  0  0  0
   -3.9389    1.3912    2.3419 H   0  0  0  0  0  0  0  0  0  0  0  0
   -5.6521   -0.9978    1.7961 H   0  0  0  0  0  0  0  0  0  0  0  0
   -5.7429   -2.7127   -0.0738 H   0  0  0  0  0  0  0  0  0  0  0  0
    5.9991   -0.5808   -1.8874 H   0  0  0  0  0  0  0  0  0  0  0  0
    7.3976   -0.1140    0.7547 H   0  0  0  0  0  0  0  0  0  0  0  0
  1  4  1  0  0  0  0
  1  5  1  0  0  0  0
  1  6  2  0  0  0  0
  1 15  1  0  0  0  0
  2 13  1  0  0  0  0
  3 13  1  0  0  0  0
  3 14  1  0  0  0  0
  4 33  1  0  0  0  0
  5 34  1  0  0  0  0
  7 16  1  0  0  0  0
  7 18  2  0  0  0  0
  8 16  2  0  0  0  0
  8 19  1  0  0  0  0
  9 17  1  0  0  0  0
  9 20  1  0  0  0  0
  9 31  1  0  0  0  0
 10 18  1  0  0  0  0
 10 20  2  0  0  0  0
 11 12  1  0  0  0  0
 11 13  1  0  0  0  0
 11 21  1  0  0  0  0
 11 22  1  0  0  0  0
 12 16  1  0  0  0  0
 12 23  1  0  0  0  0
 12 24  1  0  0  0  0
 13 25  1  0  0  0  0
 14 15  1  0  0  0  0
 14 26  1  0  0  0  0
 14 27  1  0  0  0  0
 15 28  1  0  0  0  0
 15 29  1  0  0  0  0
 17 18  1  0  0  0  0
 17 19  2  0  0  0  0
 19 30  1  0  0  0  0
 20 32  1  0  0  0  0
M  END
> <PUBCHEM_COMPOUND_CID>
129883793

> <PUBCHEM_CONFORMER_RMSD>
1

> <PUBCHEM_CONFORMER_DIVERSEORDER>
1
66
17
64
5
10
63
54
58
14
102
21
100
24
97
48
25
16
3
99
96
39
81
60
98
70
83
12
30
106
7
22
78
28
113
112
103
55
73
111
49
29
40
45
18
105
4
57
6
32
107
20
56
94
74
71
9
91
61
109
35
52
88
82
46
37
85
87
47
95
11
2
13
23
62
31
101
75
42
59
19
104
110
43
34
41
77
69
38
80
27
26
44
36
65
50
72
76
8
53
51
84
93
108
89
86
67
92
33
15
90
79
68

> <PUBCHEM_MMFF94_PARTIAL_CHARGES>
23
1 1.24
10 -0.57
12 0.14
13 0.62
14 0.28
16 0.48
17 -0.15
18 0.48
19 0.16
2 -0.34
20 0.04
3 -0.56
30 0.15
31 0.27
32 0.15
33 0.5
34 0.5
4 -0.77
5 -0.77
6 -0.7
7 -0.57
8 -0.62
9 0.03

> <PUBCHEM_EFFECTIVE_ROTOR_COUNT>
7

> <PUBCHEM_PHARMACOPHORE_FEATURES>
11
1 3 acceptor
1 4 acceptor
1 5 acceptor
1 6 acceptor
1 9 donor
3 7 10 18 cation
3 7 8 16 cation
3 9 10 20 cation
4 1 4 5 6 anion
5 9 10 17 18 20 rings
6 7 8 16 17 18 19 rings

> <PUBCHEM_HEAVY_ATOM_COUNT>
20

> <PUBCHEM_ATOM_DEF_STEREO_COUNT>
0

> <PUBCHEM_ATOM_UDEF_STEREO_COUNT>
1

> <PUBCHEM_BOND_DEF_STEREO_COUNT>
0

> <PUBCHEM_BOND_UDEF_STEREO_COUNT>
0

> <PUBCHEM_ISOTOPIC_ATOM_COUNT>
0

> <PUBCHEM_COMPONENT_COUNT>
1

> <PUBCHEM_CACTVS_TAUTO_COUNT>
46

> <PUBCHEM_CONFORMER_ID>
07BDDE9100000001

> <PUBCHEM_MMFF94_ENERGY>
-3.9263

> <PUBCHEM_FEATURE_SELFOVERLAP>
56.515

> <PUBCHEM_SHAPE_FINGERPRINT>
10803635 8 14056721253199517241
11046707 91 18407757023792802237
11089746 13 10665231471364467302
11370993 144 16988009266951103679
11458722 120 12391516369532862846
12596602 18 18060702814098965498
12633257 1 16486693675308295123
13288520 33 18333731316973633241
13544653 18 17822010874254676948
14251764 30 18131075888131372454
14341114 176 17632864118016314064
14787075 74 18260550035058599560
14848160 23 15719111353709711248
15183329 4 11963383046703489504
15415430 10 18408040727846970497
15880784 105 18413674612579710080
17349148 13 17240492381701846132
17780758 139 18273494559524171809
17844677 252 17917717885685949152
1813 80 18187658989167550469
18785283 64 17987222517020148880
19489759 90 11963392933997740694
19784866 240 18114465651906628167
200 152 17458063759485304285
20621476 66 10231756716847713170
20621476 91 18335686265822478922
21315759 148 17560807615185260022
23402539 116 17603586296501011772
23559900 14 17968935430736187349
2838139 119 8070037644510777659
351380 3 18334294279601388795
474229 33 18333446539225594642
5104073 3 18129655289075144354
5283173 99 12685087086129360390
543358 83 10807938163586487140
57724786 102 13110672904583042162
633830 44 12823284711472617260
7495541 125 18342730824295674280
9996256 80 10015575130240941621

> <PUBCHEM_SHAPE_MULTIPOLES>
364.77
14.17
1.89
1.21
14.03
0.27
-0.03
-6.94
2.54
-1.3
-0.09
-0.27
-0.01
-0.65

> <PUBCHEM_SHAPE_SELFOVERLAP>
746.409

> <PUBCHEM_SHAPE_VOLUME>
212.2

> <PUBCHEM_COORDINATE_TYPE>
2
5
10

$$$$
