129829664
  -OEChem-03292013293D

 42 42  0     1  0  0  0  0  0999 V2000
   -0.2244   -2.3369   -0.6017 O   0  0  0  0  0  0  0  0  0  0  0  0
   -0.1145    1.7804   -0.3085 O   0  0  0  0  0  0  0  0  0  0  0  0
   -2.4959    0.3671    0.4551 O   0  0  0  0  0  0  0  0  0  0  0  0
    2.2796    0.2334    0.1920 O   0  0  0  0  0  0  0  0  0  0  0  0
    1.2147   -2.1282    1.2708 O   0  0  0  0  0  0  0  0  0  0  0  0
   -2.4835   -3.8412   -0.3092 O   0  0  0  0  0  0  0  0  0  0  0  0
    1.1311    2.4597    1.5146 O   0  0  0  0  0  0  0  0  0  0  0  0
   -2.6760    2.0092   -1.1596 O   0  0  0  0  0  0  0  0  0  0  0  0
    3.4305   -0.2062   -1.7622 O   0  0  0  0  0  0  0  0  0  0  0  0
   -0.1196    0.4392    0.1860 C   0  0  1  0  0  0  0  0  0  0  0  0
   -1.4193   -0.2323   -0.2619 C   0  0  1  0  0  0  0  0  0  0  0  0
    1.0905   -0.3048   -0.3753 C   0  0  2  0  0  0  0  0  0  0  0  0
   -1.3813   -1.7443   -0.0008 C   0  0  1  0  0  0  0  0  0  0  0  0
    1.0059   -1.8075   -0.1034 C   0  0  2  0  0  0  0  0  0  0  0  0
   -2.5996   -2.4569   -0.5818 C   0  0  0  0  0  0  0  0  0  0  0  0
    0.5515    2.6887    0.4617 C   0  0  0  0  0  0  0  0  0  0  0  0
   -3.0328    1.4877   -0.1118 C   0  0  0  0  0  0  0  0  0  0  0  0
    3.3816    0.2202   -0.6164 C   0  0  0  0  0  0  0  0  0  0  0  0
    1.5841   -3.4887    1.4327 C   0  0  0  0  0  0  0  0  0  0  0  0
    0.4733    4.0428   -0.1760 C   0  0  0  0  0  0  0  0  0  0  0  0
   -4.1470    2.0054    0.7465 C   0  0  0  0  0  0  0  0  0  0  0  0
    4.5512    0.8133    0.1090 C   0  0  0  0  0  0  0  0  0  0  0  0
   -0.0921    0.4488    1.2845 H   0  0  0  0  0  0  0  0  0  0  0  0
   -1.5459   -0.0789   -1.3433 H   0  0  0  0  0  0  0  0  0  0  0  0
    1.0766   -0.1369   -1.4621 H   0  0  0  0  0  0  0  0  0  0  0  0
   -1.3580   -1.9480    1.0780 H   0  0  0  0  0  0  0  0  0  0  0  0
    1.8089   -2.2805   -0.6830 H   0  0  0  0  0  0  0  0  0  0  0  0
   -2.6418   -2.3331   -1.6690 H   0  0  0  0  0  0  0  0  0  0  0  0
   -3.5286   -2.0850   -0.1391 H   0  0  0  0  0  0  0  0  0  0  0  0
   -3.2662   -4.2752   -0.6893 H   0  0  0  0  0  0  0  0  0  0  0  0
    1.6973   -3.6872    2.5020 H   0  0  0  0  0  0  0  0  0  0  0  0
    2.5418   -3.6901    0.9429 H   0  0  0  0  0  0  0  0  0  0  0  0
    0.8098   -4.1540    1.0385 H   0  0  0  0  0  0  0  0  0  0  0  0
    0.9403    4.0143   -1.1637 H   1  0  0  0  0  0  0  0  0  0  0  0
    1.0111    4.7667    0.4429 H   0  0  0  0  0  0  0  0  0  0  0  0
   -0.5708    4.3566   -0.2519 H   0  0  0  0  0  0  0  0  0  0  0  0
   -4.9303    1.2482    0.8332 H   1  0  0  0  0  0  0  0  0  0  0  0
   -4.5757    2.8991    0.2842 H   0  0  0  0  0  0  0  0  0  0  0  0
   -3.7598    2.2745    1.7324 H   0  0  0  0  0  0  0  0  0  0  0  0
    4.3309    1.8484    0.3819 H   1  0  0  0  0  0  0  0  0  0  0  0
    5.4272    0.8042   -0.5459 H   0  0  0  0  0  0  0  0  0  0  0  0
    4.7745    0.2194    0.9988 H   0  0  0  0  0  0  0  0  0  0  0  0
  1 13  1  0  0  0  0
  1 14  1  0  0  0  0
  2 10  1  0  0  0  0
  2 16  1  0  0  0  0
  3 11  1  0  0  0  0
  3 17  1  0  0  0  0
  4 12  1  0  0  0  0
  4 18  1  0  0  0  0
  5 14  1  0  0  0  0
  5 19  1  0  0  0  0
  6 15  1  0  0  0  0
  6 30  1  0  0  0  0
  7 16  2  0  0  0  0
  8 17  2  0  0  0  0
  9 18  2  0  0  0  0
 10 11  1  0  0  0  0
 10 12  1  0  0  0  0
 10 23  1  0  0  0  0
 11 13  1  0  0  0  0
 11 24  1  0  0  0  0
 12 14  1  0  0  0  0
 12 25  1  0  0  0  0
 13 15  1  0  0  0  0
 13 26  1  0  0  0  0
 14 27  1  0  0  0  0
 15 28  1  0  0  0  0
 15 29  1  0  0  0  0
 16 20  1  0  0  0  0
 17 21  1  0  0  0  0
 18 22  1  0  0  0  0
 19 31  1  0  0  0  0
 19 32  1  0  0  0  0
 19 33  1  0  0  0  0
 20 34  1  0  0  0  0
 20 35  1  0  0  0  0
 20 36  1  0  0  0  0
 21 37  1  0  0  0  0
 21 38  1  0  0  0  0
 21 39  1  0  0  0  0
 22 40  1  0  0  0  0
 22 41  1  0  0  0  0
 22 42  1  0  0  0  0
M  ISO  3  34   2  37   2  40   2
M  END
> <PUBCHEM_COMPOUND_CID>
129829664

> <PUBCHEM_CONFORMER_RMSD>
0.8

> <PUBCHEM_CONFORMER_DIVERSEORDER>
1
3
20
28
21
7
6
27
2
24
26
4
15
8
16
17
14
29
25
18
9
11
10
12
19
13
22
23
5

> <PUBCHEM_MMFF94_PARTIAL_CHARGES>
23
1 -0.56
10 0.28
11 0.28
12 0.28
13 0.28
14 0.56
15 0.28
16 0.66
17 0.66
18 0.66
19 0.28
2 -0.43
20 0.06
21 0.06
22 0.06
3 -0.43
30 0.4
4 -0.43
5 -0.56
6 -0.68
7 -0.57
8 -0.57
9 -0.57

> <PUBCHEM_EFFECTIVE_ROTOR_COUNT>
9.2

> <PUBCHEM_PHARMACOPHORE_FEATURES>
8
1 1 acceptor
1 5 acceptor
1 6 acceptor
1 6 donor
1 7 acceptor
1 8 acceptor
1 9 acceptor
6 1 10 11 12 13 14 rings

> <PUBCHEM_HEAVY_ATOM_COUNT>
22

> <PUBCHEM_ATOM_DEF_STEREO_COUNT>
4

> <PUBCHEM_ATOM_UDEF_STEREO_COUNT>
1

> <PUBCHEM_BOND_DEF_STEREO_COUNT>
0

> <PUBCHEM_BOND_UDEF_STEREO_COUNT>
0

> <PUBCHEM_ISOTOPIC_ATOM_COUNT>
3

> <PUBCHEM_COMPONENT_COUNT>
1

> <PUBCHEM_CACTVS_TAUTO_COUNT>
1

> <PUBCHEM_CONFORMER_ID>
07BD0B2000000001

> <PUBCHEM_MMFF94_ENERGY>
47.8621

> <PUBCHEM_FEATURE_SELFOVERLAP>
40.643

> <PUBCHEM_SHAPE_FINGERPRINT>
10493431 412 18342183232781514193
10967382 1 18339643313349403741
1100329 8 18412268367004043193
13140716 1 18339356473879848176
14178342 30 18267848622780864905
14790565 3 18268727020877122817
16945 1 18338225085273579395
19591789 44 18410296916874489753
20600515 1 18342457041474034640
20739085 24 17834141665927848521
20871999 31 18266754643572145564
21041028 32 17979359986373137791
21501502 16 18123478442502381077
2334 1 18051128387072097485
23402539 116 18413105083300893540
23419403 2 17488170694314611760
23557571 272 18201169853238854220
23558518 356 18122344841929900377
23559900 14 17764021763617724588
2748010 2 18269828886172525652
34934 24 18341330007225632484
350125 39 18196097861592022385
394222 165 17970078737955115816
589210 1 17980481483479585596
70251023 43 17843108458077606127
81228 2 17832987522394688337

> <PUBCHEM_SHAPE_MULTIPOLES>
399.93
5.86
4.83
1.11
0.85
0.9
-0.08
-1.74
0.53
-1.43
-0.8
0.48
0.17
-0.77

> <PUBCHEM_SHAPE_SELFOVERLAP>
803.924

> <PUBCHEM_SHAPE_VOLUME>
232.6

> <PUBCHEM_COORDINATE_TYPE>
2
5
10

$$$$
