129892588
  -OEChem-03292013293D

 39 41  0     0  0  0  0  0  0999 V2000
    1.0128   -3.0887   -0.6303 O   0  0  0  0  0  0  0  0  0  0  0  0
    3.9665    0.6105   -2.3319 O   0  0  0  0  0  0  0  0  0  0  0  0
    7.2008    2.4233    0.4080 O   0  0  0  0  0  0  0  0  0  0  0  0
   -2.8354   -1.1330    0.5966 N   0  0  0  0  0  0  0  0  0  0  0  0
   -0.1339   -2.0733    1.1153 N   0  0  0  0  0  0  0  0  0  0  0  0
   -3.8652    1.6238    1.4573 N   0  0  0  0  0  0  0  0  0  0  0  0
   -4.4180   -0.8935   -1.1662 N   0  0  0  0  0  0  0  0  0  0  0  0
   -5.4538    2.7446    0.3671 N   0  0  0  0  0  0  0  0  0  0  0  0
   -5.8276    1.0869   -1.3715 N   0  0  0  0  0  0  0  0  0  0  0  0
    5.5842    1.5218   -0.9690 N   0  0  0  0  0  0  0  0  0  0  0  0
    5.8555    0.7417    1.2160 N   0  0  0  0  0  0  0  0  0  0  0  0
   -2.3753   -2.4308    0.1612 C   0  0  0  0  0  0  0  0  0  0  0  0
   -1.2851   -2.9455    1.0882 C   0  0  0  0  0  0  0  0  0  0  0  0
   -3.8198   -0.4079   -0.0552 C   0  0  0  0  0  0  0  0  0  0  0  0
   -4.2227    0.8303    0.4047 C   0  0  0  0  0  0  0  0  0  0  0  0
   -5.2103    1.5477   -0.2569 C   0  0  0  0  0  0  0  0  0  0  0  0
    0.9272   -2.2273    0.2391 C   0  0  0  0  0  0  0  0  0  0  0  0
   -4.6293    2.7588    1.3927 C   0  0  0  0  0  0  0  0  0  0  0  0
    4.1574   -0.2588   -0.1193 C   0  0  0  0  0  0  0  0  0  0  0  0
    1.9900   -1.2104    0.4701 C   0  0  0  0  0  0  0  0  0  0  0  0
   -5.3715   -0.1273   -1.7474 C   0  0  0  0  0  0  0  0  0  0  0  0
    3.0937   -1.2088   -0.2884 C   0  0  0  0  0  0  0  0  0  0  0  0
    4.5404    0.6470   -1.2462 C   0  0  0  0  0  0  0  0  0  0  0  0
    4.8365   -0.1520    1.0309 C   0  0  0  0  0  0  0  0  0  0  0  0
    6.2830    1.6210    0.2351 C   0  0  0  0  0  0  0  0  0  0  0  0
   -3.2098   -3.1413    0.1609 H   0  0  0  0  0  0  0  0  0  0  0  0
   -1.9891   -2.3625   -0.8629 H   0  0  0  0  0  0  0  0  0  0  0  0
   -1.6556   -3.0159    2.1169 H   0  0  0  0  0  0  0  0  0  0  0  0
   -0.9712   -3.9465    0.7729 H   0  0  0  0  0  0  0  0  0  0  0  0
   -2.4180   -0.7230    1.4248 H   0  0  0  0  0  0  0  0  0  0  0  0
   -0.1241   -1.3255    1.8029 H   0  0  0  0  0  0  0  0  0  0  0  0
   -3.1655    1.4154    2.1573 H   0  0  0  0  0  0  0  0  0  0  0  0
   -4.5352    3.5521    2.1206 H   0  0  0  0  0  0  0  0  0  0  0  0
    1.8505   -0.4911    1.2713 H   0  0  0  0  0  0  0  0  0  0  0  0
   -5.8308   -0.5470   -2.6360 H   0  0  0  0  0  0  0  0  0  0  0  0
    3.2129   -1.9112   -1.1089 H   0  0  0  0  0  0  0  0  0  0  0  0
    4.6251   -0.7732    1.8947 H   0  0  0  0  0  0  0  0  0  0  0  0
    5.8670    2.1504   -1.7157 H   0  0  0  0  0  0  0  0  0  0  0  0
    6.3163    0.7534    2.1211 H   0  0  0  0  0  0  0  0  0  0  0  0
  1 17  2  0  0  0  0
  2 23  2  0  0  0  0
  3 25  2  0  0  0  0
  4 12  1  0  0  0  0
  4 14  1  0  0  0  0
  4 30  1  0  0  0  0
  5 13  1  0  0  0  0
  5 17  1  0  0  0  0
  5 31  1  0  0  0  0
  6 15  1  0  0  0  0
  6 18  1  0  0  0  0
  6 32  1  0  0  0  0
  7 14  2  0  0  0  0
  7 21  1  0  0  0  0
  8 16  1  0  0  0  0
  8 18  2  0  0  0  0
  9 16  1  0  0  0  0
  9 21  2  0  0  0  0
 10 23  1  0  0  0  0
 10 25  1  0  0  0  0
 10 38  1  0  0  0  0
 11 24  1  0  0  0  0
 11 25  1  0  0  0  0
 11 39  1  0  0  0  0
 12 13  1  0  0  0  0
 12 26  1  0  0  0  0
 12 27  1  0  0  0  0
 13 28  1  0  0  0  0
 13 29  1  0  0  0  0
 14 15  1  0  0  0  0
 15 16  2  0  0  0  0
 17 20  1  0  0  0  0
 18 33  1  0  0  0  0
 19 22  1  0  0  0  0
 19 23  1  0  0  0  0
 19 24  2  0  0  0  0
 20 22  2  0  0  0  0
 20 34  1  0  0  0  0
 21 35  1  0  0  0  0
 22 36  1  0  0  0  0
 24 37  1  0  0  0  0
M  END
> <PUBCHEM_COMPOUND_CID>
129892588

> <PUBCHEM_CONFORMER_RMSD>
1

> <PUBCHEM_CONFORMER_DIVERSEORDER>
1
22
55
52
3
14
96
28
36
71
15
16
109
84
73
53
31
38
35
4
111
59
62
103
90
63
92
40
57
68
54
18
108
29
48
19
27
76
78
110
34
114
104
45
6
99
98
72
24
7
13
56
41
102
81
23
69
9
11
42
44
89
112
61
86
2
67
82
101
75
30
116
37
97
47
70
107
8
77
60
26
100
20
79
88
106
94
5
25
49
74
87
105
85
93
91
115
10
12
64
39
32
65
113
43
66
83
33
50
46
51
95
80
17
21
58

> <PUBCHEM_MMFF94_PARTIAL_CHARGES>
35
1 -0.57
10 -0.49
11 -0.54
12 0.37
13 0.3
14 0.41
15 -0.15
16 0.48
17 0.62
18 0.04
19 0.01
2 -0.57
20 -0.14
21 0.47
22 -0.15
23 0.62
24 -0.04
25 0.69
3 -0.57
30 0.4
31 0.37
32 0.27
33 0.15
34 0.15
35 0.15
36 0.15
37 0.15
38 0.37
39 0.37
4 -0.87
5 -0.73
6 0.03
7 -0.62
8 -0.57
9 -0.57

> <PUBCHEM_EFFECTIVE_ROTOR_COUNT>
7

> <PUBCHEM_PHARMACOPHORE_FEATURES>
14
1 1 acceptor
1 10 donor
1 11 donor
1 2 acceptor
1 3 acceptor
1 4 donor
1 5 donor
1 6 donor
3 4 7 14 cation
3 6 8 18 cation
3 7 9 21 cation
5 6 8 15 16 18 rings
6 10 11 19 23 24 25 rings
6 7 9 14 15 16 21 rings

> <PUBCHEM_HEAVY_ATOM_COUNT>
25

> <PUBCHEM_ATOM_DEF_STEREO_COUNT>
0

> <PUBCHEM_ATOM_UDEF_STEREO_COUNT>
0

> <PUBCHEM_BOND_DEF_STEREO_COUNT>
1

> <PUBCHEM_BOND_UDEF_STEREO_COUNT>
0

> <PUBCHEM_ISOTOPIC_ATOM_COUNT>
0

> <PUBCHEM_COMPONENT_COUNT>
1

> <PUBCHEM_CACTVS_TAUTO_COUNT>
351

> <PUBCHEM_CONFORMER_ID>
07BE00EC00000001

> <PUBCHEM_MMFF94_ENERGY>
49.8342

> <PUBCHEM_FEATURE_SELFOVERLAP>
71.34

> <PUBCHEM_SHAPE_FINGERPRINT>
10042902 136 9583514317627768050
10319926 262 13768211532760098835
11135609 201 18409735058550079531
12107183 9 18114167607026043154
12422481 6 17095240306855318462
13103583 49 11242250715050172231
14251764 30 8430320134427142388
14251764 75 18055084168454031337
14420673 8 9223234070337718677
14429114 114 18266459798278586593
14950920 106 13334741240787796583
15348495 7 14201406001072829268
15513586 35 17026586959794039405
1768 210 18410849963134584125
17780758 139 11963386336996981295
18608769 82 18338519746469964723
21315763 76 18186512207419637421
21401589 2 18186529795553756171
21774942 28 18059857225855383208
21968339 14 17418094296256346978
235170 7 16343705404576863623
270888 7 18408602539554963203
2748736 6 18408316683711785952
2838139 119 18343016675179531378
312425 54 11818999573495573871
312425 83 17487909903990238279
351380 3 10592042474785998623
3680242 22 17821444638967687816
393628 179 18129366259214582488
393628 194 18409172137976308548
44249763 50 17416670527071122986
4487111 67 18194398892509981425
46194498 28 16343122753624461923
474113 269 10881982605612346521
5104073 3 17749107794530513754
543368 44 18413105040314329485
54583773 228 18341043023199273501
636775 8 8357717226484751528
8863177 126 8286201635137508954

> <PUBCHEM_SHAPE_MULTIPOLES>
457.03
19.1
3.43
1.52
11.36
0.72
0.48
-17.79
2.07
-1.63
-1.06
-0.35
-0.36
-1.05

> <PUBCHEM_SHAPE_SELFOVERLAP>
984.852

> <PUBCHEM_SHAPE_VOLUME>
246

> <PUBCHEM_COORDINATE_TYPE>
2
5
10

$$$$
