129878031
  -OEChem-03292013293D

 36 36  0     1  0  0  0  0  0999 V2000
   -1.4799   -1.2463    0.3507 O   0  0  0  0  0  0  0  0  0  0  0  0
   -0.3852    2.6891   -0.4166 O   0  0  0  0  0  0  0  0  0  0  0  0
   -2.9378    1.7120   -1.2937 O   0  0  0  0  0  0  0  0  0  0  0  0
   -1.5366   -0.2715    2.5135 O   0  0  0  0  0  0  0  0  0  0  0  0
   -3.7319   -2.4367   -0.6246 O   0  0  0  0  0  0  0  0  0  0  0  0
    2.6877    0.1311    1.5626 O   0  0  0  0  0  0  0  0  0  0  0  0
    1.0258    0.3038   -0.0482 N   0  0  0  0  0  0  0  0  0  0  0  0
   -0.0449    0.6616    0.8588 C   0  0  1  0  0  0  0  0  0  0  0  0
   -1.0623    1.5896    0.1872 C   0  0  2  0  0  0  0  0  0  0  0  0
   -1.8997    0.8409   -0.8515 C   0  0  1  0  0  0  0  0  0  0  0  0
   -2.4988   -0.4286   -0.2322 C   0  0  1  0  0  0  0  0  0  0  0  0
   -0.7306   -0.6025    1.3856 C   0  0  2  0  0  0  0  0  0  0  0  0
   -3.2195   -1.2852   -1.2694 C   0  0  0  0  0  0  0  0  0  0  0  0
    2.3168    0.0669    0.3936 C   0  0  0  0  0  0  0  0  0  0  0  0
    3.2413   -0.2901   -0.7565 C   0  0  0  0  0  0  0  0  0  0  0  0
    4.6710   -0.5557   -0.2941 C   0  0  0  0  0  0  0  0  0  0  0  0
    5.5848   -0.8785   -1.4650 C   0  0  0  0  0  0  0  0  0  0  0  0
    0.4064    1.2064    1.6982 H   0  0  0  0  0  0  0  0  0  0  0  0
   -1.7298    2.0166    0.9467 H   0  0  0  0  0  0  0  0  0  0  0  0
   -1.2859    0.6002   -1.7267 H   0  0  0  0  0  0  0  0  0  0  0  0
   -3.2251   -0.1726    0.5507 H   0  0  0  0  0  0  0  0  0  0  0  0
    0.0255   -1.3187    1.7273 H   0  0  0  0  0  0  0  0  0  0  0  0
    0.8073    0.1670   -1.0307 H   0  0  0  0  0  0  0  0  0  0  0  0
   -2.5257   -1.6194   -2.0480 H   0  0  0  0  0  0  0  0  0  0  0  0
   -4.0477   -0.7401   -1.7323 H   0  0  0  0  0  0  0  0  0  0  0  0
    0.1369    3.1282    0.2764 H   0  0  0  0  0  0  0  0  0  0  0  0
   -3.5124    1.9064   -0.5336 H   0  0  0  0  0  0  0  0  0  0  0  0
   -1.6019   -1.0705    3.0635 H   0  0  0  0  0  0  0  0  0  0  0  0
    2.8391   -1.1784   -1.2582 H   0  0  0  0  0  0  0  0  0  0  0  0
    3.2276    0.5384   -1.4750 H   0  0  0  0  0  0  0  0  0  0  0  0
   -4.1829   -2.9685   -1.3024 H   0  0  0  0  0  0  0  0  0  0  0  0
    4.6845   -1.3896    0.4178 H   0  0  0  0  0  0  0  0  0  0  0  0
    5.0617    0.3206    0.2369 H   0  0  0  0  0  0  0  0  0  0  0  0
    5.6206   -0.0468   -2.1758 H   1  0  0  0  0  0  0  0  0  0  0  0
    6.6031   -1.0664   -1.1106 H   0  0  0  0  0  0  0  0  0  0  0  0
    5.2401   -1.7711   -1.9969 H   0  0  0  0  0  0  0  0  0  0  0  0
  1 11  1  0  0  0  0
  1 12  1  0  0  0  0
  2  9  1  0  0  0  0
  2 26  1  0  0  0  0
  3 10  1  0  0  0  0
  3 27  1  0  0  0  0
  4 12  1  0  0  0  0
  4 28  1  0  0  0  0
  5 13  1  0  0  0  0
  5 31  1  0  0  0  0
  6 14  2  0  0  0  0
  7  8  1  0  0  0  0
  7 14  1  0  0  0  0
  7 23  1  0  0  0  0
  8  9  1  0  0  0  0
  8 12  1  0  0  0  0
  8 18  1  0  0  0  0
  9 10  1  0  0  0  0
  9 19  1  0  0  0  0
 10 11  1  0  0  0  0
 10 20  1  0  0  0  0
 11 13  1  0  0  0  0
 11 21  1  0  0  0  0
 12 22  1  0  0  0  0
 13 24  1  0  0  0  0
 13 25  1  0  0  0  0
 14 15  1  0  0  0  0
 15 16  1  0  0  0  0
 15 29  1  0  0  0  0
 15 30  1  0  0  0  0
 16 17  1  0  0  0  0
 16 32  1  0  0  0  0
 16 33  1  0  0  0  0
 17 34  1  0  0  0  0
 17 35  1  0  0  0  0
 17 36  1  0  0  0  0
M  ISO  1  34   2
M  END
> <PUBCHEM_COMPOUND_CID>
129878031

> <PUBCHEM_CONFORMER_RMSD>
0.8

> <PUBCHEM_CONFORMER_DIVERSEORDER>
1
19
28
21
14
5
6
23
17
27
10
8
11
18
12
16
4
3
22
15
20
2
24
29
7
25
13
26
9

> <PUBCHEM_MMFF94_PARTIAL_CHARGES>
20
1 -0.56
10 0.28
11 0.28
12 0.56
13 0.28
14 0.57
15 0.06
2 -0.68
23 0.37
26 0.4
27 0.4
28 0.4
3 -0.68
31 0.4
4 -0.68
5 -0.68
6 -0.57
7 -0.73
8 0.3
9 0.28

> <PUBCHEM_EFFECTIVE_ROTOR_COUNT>
6.2

> <PUBCHEM_PHARMACOPHORE_FEATURES>
13
1 1 acceptor
1 17 hydrophobe
1 2 acceptor
1 2 donor
1 3 acceptor
1 3 donor
1 4 acceptor
1 4 donor
1 5 acceptor
1 5 donor
1 6 acceptor
1 7 donor
6 1 8 9 10 11 12 rings

> <PUBCHEM_HEAVY_ATOM_COUNT>
17

> <PUBCHEM_ATOM_DEF_STEREO_COUNT>
4

> <PUBCHEM_ATOM_UDEF_STEREO_COUNT>
1

> <PUBCHEM_BOND_DEF_STEREO_COUNT>
0

> <PUBCHEM_BOND_UDEF_STEREO_COUNT>
0

> <PUBCHEM_ISOTOPIC_ATOM_COUNT>
1

> <PUBCHEM_COMPONENT_COUNT>
1

> <PUBCHEM_CACTVS_TAUTO_COUNT>
2

> <PUBCHEM_CONFORMER_ID>
07BDC80F00000001

> <PUBCHEM_MMFF94_ENERGY>
27.7123

> <PUBCHEM_FEATURE_SELFOVERLAP>
66.026

> <PUBCHEM_SHAPE_FINGERPRINT>
10014705 185 14201404919273853078
11046707 91 17988929968109016294
11127187 94 18412539890588514741
11357001 24 15482402966531945242
122479 349 11386361539233266990
12251169 10 12103568614491923275
12633257 1 11887674004657180222
12916754 54 18131637798591678340
13024252 1 17313396603708625633
13296908 3 17917419960562202528
13296909 8 9079110094458153373
14251764 30 18262808504951967771
15061688 2 11891597027885378559
16945 1 18265879286055783041
17870717 6 18271816661936085926
18186145 218 17531237396300867117
200 152 18260270754783666830
20281475 54 17703522017126244646
20300324 65 18334577928052779076
20645476 183 17240767241869680297
20645477 56 13262407648072458286
20871999 31 18334009488703820725
22620623 9 18270099276349965637
2306618 200 17916591938286377464
23379529 103 18123471849759717671
23382010 3 16588573331504888091
23402539 116 18113617855189746724
23403322 49 18202566151101427942
23419403 2 11646748394456700529
23500284 214 10953454128948420622
23557571 272 18268694156060797336
23559900 14 18269824360057399328
27216 239 11891630043330352214
2838139 119 12830025825410030447
3286 77 17132117974396128626
45790113 50 16487256616429149848

> <PUBCHEM_SHAPE_MULTIPOLES>
309.66
8.29
1.9
1.63
12.32
0.05
0.71
-4.91
-3.7
-2.05
-0.68
-0.49
0.17
0.67

> <PUBCHEM_SHAPE_SELFOVERLAP>
612.278

> <PUBCHEM_SHAPE_VOLUME>
182.7

> <PUBCHEM_COORDINATE_TYPE>
2
5
10

$$$$
