129825683
  -OEChem-03292013293D

 60 63  0     1  0  0  0  0  0999 V2000
    1.7635   -0.9234   -0.7410 F   0  0  0  0  0  0  0  0  0  0  0  0
   -3.7503   -0.8083    0.9936 O   0  0  0  0  0  0  0  0  0  0  0  0
    1.0446   -0.5025    2.7508 O   0  0  0  0  0  0  0  0  0  0  0  0
   -2.3692   -1.6742   -1.9783 O   0  0  0  0  0  0  0  0  0  0  0  0
   -5.2973    0.8955   -0.3248 O   0  0  0  0  0  0  0  0  0  0  0  0
   -4.0108    2.7839    0.0154 O   0  0  0  0  0  0  0  0  0  0  0  0
   -3.0759   -4.0917   -1.0427 O   0  0  0  0  0  0  0  0  0  0  0  0
    6.5647   -0.6600   -1.4861 O   0  0  0  0  0  0  0  0  0  0  0  0
   -1.3466   -0.1959    0.7332 C   0  0  1  0  0  0  0  0  0  0  0  0
   -0.6371    0.5536   -0.4103 C   0  0  2  0  0  0  0  0  0  0  0  0
    0.7531    1.0777   -0.0195 C   0  0  1  0  0  0  0  0  0  0  0  0
    1.6636   -0.1307    0.3938 C   0  0  1  0  0  0  0  0  0  0  0  0
   -2.7244   -0.4912    0.0666 C   0  0  2  0  0  0  0  0  0  0  0  0
   -0.4799   -1.4201    1.0985 C   0  0  0  0  0  0  0  0  0  0  0  0
   -1.6913    1.5500   -0.8888 C   0  0  0  0  0  0  0  0  0  0  0  0
    0.9822   -1.0575    1.4464 C   0  0  2  0  0  0  0  0  0  0  0  0
   -3.0147    0.7563   -0.8196 C   0  0  2  0  0  0  0  0  0  0  0  0
    3.1398    0.3289    0.7185 C   0  0  1  0  0  0  0  0  0  0  0  0
    1.3728    1.8665   -1.1886 C   0  0  0  0  0  0  0  0  0  0  0  0
   -1.5695    0.6703    2.0042 C   0  0  0  0  0  0  0  0  0  0  0  0
    2.8016    2.3093   -0.8975 C   0  0  0  0  0  0  0  0  0  0  0  0
    3.6449    1.1287   -0.4891 C   0  0  0  0  0  0  0  0  0  0  0  0
   -2.7123   -1.7246   -0.7981 C   0  0  0  0  0  0  0  0  0  0  0  0
    3.2600    1.2259    1.9718 C   0  0  0  0  0  0  0  0  0  0  0  0
   -4.1399    1.6161   -0.3265 C   0  0  0  0  0  0  0  0  0  0  0  0
    4.0210   -0.8835    0.9816 C   0  0  0  0  0  0  0  0  0  0  0  0
    4.7409    0.8049   -1.1930 C   0  0  0  0  0  0  0  0  0  0  0  0
   -3.1437   -3.0141   -0.1328 C   0  0  0  0  0  0  0  0  0  0  0  0
    5.1131   -1.2113    0.2843 C   0  0  0  0  0  0  0  0  0  0  0  0
    5.5560   -0.3779   -0.8483 C   0  0  0  0  0  0  0  0  0  0  0  0
   -6.4591    1.5992    0.1259 C   0  0  0  0  0  0  0  0  0  0  0  0
   -0.4744   -0.1434   -1.2465 H   0  0  0  0  0  0  0  0  0  0  0  0
    0.6573    1.7697    0.8230 H   0  0  0  0  0  0  0  0  0  0  0  0
   -0.4312   -2.1140    0.2513 H   0  0  0  0  0  0  0  0  0  0  0  0
   -0.9369   -1.9605    1.9362 H   0  0  0  0  0  0  0  0  0  0  0  0
   -1.4921    1.8768   -1.9156 H   0  0  0  0  0  0  0  0  0  0  0  0
   -1.6813    2.4455   -0.2587 H   0  0  0  0  0  0  0  0  0  0  0  0
    1.5322   -2.0053    1.4827 H   0  0  0  0  0  0  0  0  0  0  0  0
   -3.2889    0.4861   -1.8476 H   0  0  0  0  0  0  0  0  0  0  0  0
    0.7690    2.7562   -1.4026 H   0  0  0  0  0  0  0  0  0  0  0  0
    1.3622    1.2531   -2.0994 H   0  0  0  0  0  0  0  0  0  0  0  0
   -2.2904    1.4758    1.8361 H   0  0  0  0  0  0  0  0  0  0  0  0
   -0.6597    1.1496    2.3692 H   0  0  0  0  0  0  0  0  0  0  0  0
   -1.9630    0.0598    2.8250 H   0  0  0  0  0  0  0  0  0  0  0  0
    2.8081    3.0637   -0.1024 H   0  0  0  0  0  0  0  0  0  0  0  0
    3.2079    2.8027   -1.7889 H   0  0  0  0  0  0  0  0  0  0  0  0
    2.5145    2.0263    1.9920 H   0  0  0  0  0  0  0  0  0  0  0  0
    4.2463    1.7066    2.0191 H   0  0  0  0  0  0  0  0  0  0  0  0
    3.1552    0.6596    2.9034 H   0  0  0  0  0  0  0  0  0  0  0  0
    3.7573   -1.5239    1.8205 H   0  0  0  0  0  0  0  0  0  0  0  0
   -3.3697   -1.3359    1.7161 H   0  0  0  0  0  0  0  0  0  0  0  0
    0.6546   -1.1455    3.3669 H   0  0  0  0  0  0  0  0  0  0  0  0
    5.0634    1.3881   -2.0491 H   0  0  0  0  0  0  0  0  0  0  0  0
   -4.1880   -2.9422    0.1828 H   0  0  0  0  0  0  0  0  0  0  0  0
   -2.5041   -3.2455    0.7203 H   0  0  0  0  0  0  0  0  0  0  0  0
    5.7021   -2.0854    0.5367 H   0  0  0  0  0  0  0  0  0  0  0  0
   -3.3722   -4.8882   -0.5702 H   0  0  0  0  0  0  0  0  0  0  0  0
   -7.3105    0.9150    0.0784 H   0  0  0  0  0  0  0  0  0  0  0  0
   -6.6595    2.4556   -0.5249 H   0  0  0  0  0  0  0  0  0  0  0  0
   -6.3264    1.9233    1.1625 H   0  0  0  0  0  0  0  0  0  0  0  0
  1 12  1  0  0  0  0
  2 13  1  0  0  0  0
  2 51  1  0  0  0  0
  3 16  1  0  0  0  0
  3 52  1  0  0  0  0
  4 23  2  0  0  0  0
  5 25  1  0  0  0  0
  5 31  1  0  0  0  0
  6 25  2  0  0  0  0
  7 28  1  0  0  0  0
  7 57  1  0  0  0  0
  8 30  2  0  0  0  0
  9 10  1  0  0  0  0
  9 13  1  0  0  0  0
  9 14  1  0  0  0  0
  9 20  1  0  0  0  0
 10 11  1  0  0  0  0
 10 15  1  0  0  0  0
 10 32  1  0  0  0  0
 11 12  1  0  0  0  0
 11 19  1  0  0  0  0
 11 33  1  0  0  0  0
 12 16  1  0  0  0  0
 12 18  1  0  0  0  0
 13 17  1  0  0  0  0
 13 23  1  0  0  0  0
 14 16  1  0  0  0  0
 14 34  1  0  0  0  0
 14 35  1  0  0  0  0
 15 17  1  0  0  0  0
 15 36  1  0  0  0  0
 15 37  1  0  0  0  0
 16 38  1  0  0  0  0
 17 25  1  0  0  0  0
 17 39  1  0  0  0  0
 18 22  1  0  0  0  0
 18 24  1  0  0  0  0
 18 26  1  0  0  0  0
 19 21  1  0  0  0  0
 19 40  1  0  0  0  0
 19 41  1  0  0  0  0
 20 42  1  0  0  0  0
 20 43  1  0  0  0  0
 20 44  1  0  0  0  0
 21 22  1  0  0  0  0
 21 45  1  0  0  0  0
 21 46  1  0  0  0  0
 22 27  2  0  0  0  0
 23 28  1  0  0  0  0
 24 47  1  0  0  0  0
 24 48  1  0  0  0  0
 24 49  1  0  0  0  0
 26 29  2  0  0  0  0
 26 50  1  0  0  0  0
 27 30  1  0  0  0  0
 27 53  1  0  0  0  0
 28 54  1  0  0  0  0
 28 55  1  0  0  0  0
 29 30  1  0  0  0  0
 29 56  1  0  0  0  0
 31 58  1  0  0  0  0
 31 59  1  0  0  0  0
 31 60  1  0  0  0  0
M  END
> <PUBCHEM_COMPOUND_CID>
129825683

> <PUBCHEM_CONFORMER_RMSD>
0.8

> <PUBCHEM_CONFORMER_DIVERSEORDER>
1
2
3
4

> <PUBCHEM_MMFF94_PARTIAL_CHARGES>
29
1 -0.34
12 0.34
13 0.34
16 0.28
17 0.06
18 0.28
2 -0.68
21 0.14
22 -0.28
23 0.45
25 0.66
26 -0.29
27 -0.14
28 0.34
29 -0.14
3 -0.68
30 0.54
31 0.28
4 -0.57
5 -0.43
50 0.15
51 0.4
52 0.4
53 0.15
56 0.15
57 0.4
6 -0.57
7 -0.68
8 -0.57

> <PUBCHEM_EFFECTIVE_ROTOR_COUNT>
5.4

> <PUBCHEM_PHARMACOPHORE_FEATURES>
13
1 2 acceptor
1 2 donor
1 3 acceptor
1 3 donor
1 4 acceptor
1 6 acceptor
1 7 acceptor
1 7 donor
1 8 acceptor
5 9 10 13 15 17 rings
6 11 12 18 19 21 22 rings
6 18 22 26 27 29 30 rings
6 9 10 11 12 14 16 rings

> <PUBCHEM_HEAVY_ATOM_COUNT>
31

> <PUBCHEM_ATOM_DEF_STEREO_COUNT>
8

> <PUBCHEM_ATOM_UDEF_STEREO_COUNT>
0

> <PUBCHEM_BOND_DEF_STEREO_COUNT>
0

> <PUBCHEM_BOND_UDEF_STEREO_COUNT>
0

> <PUBCHEM_ISOTOPIC_ATOM_COUNT>
0

> <PUBCHEM_COMPONENT_COUNT>
1

> <PUBCHEM_CACTVS_TAUTO_COUNT>
30

> <PUBCHEM_CONFORMER_ID>
07BCFB9300000001

> <PUBCHEM_MMFF94_ENERGY>
106.2793

> <PUBCHEM_FEATURE_SELFOVERLAP>
66.08

> <PUBCHEM_SHAPE_FINGERPRINT>
10 15 12107800631222230702
11405975 8 18343577460516694032
11578080 2 17916291921725263193
11796584 16 18202286901134021982
12236239 1 18334857199711584957
12553582 1 17531234050637738900
12616971 3 17530951472096578170
12788726 201 18042685005729205220
13140716 1 17894628192657489529
13224815 77 18338228388039866688
13583140 156 17489012885819603192
13782708 43 17202758345238486567
13944108 23 16383075368399507397
14790565 3 17749396923112493612
15131766 46 15720257121634086749
15183329 4 18410014295178674844
15788980 27 17775564243259471644
16090146 7 18200606817259759395
17492 89 18266739284474072462
18186145 218 16805597092753345624
20691752 17 17023171778031198740
21033648 29 18129647704025710624
21304303 282 17057263054735636920
21857420 4 16689877015671847374
22393880 68 18413107290634709950
23557571 272 18057871614538562857
23559900 14 18130781287539452664
249057 3 18412825772149033916
3004659 81 17458910324174462562
335352 9 18187083923258962852
350125 39 17967536744476476437
4015057 19 16271912844691996201
4058900 60 18124882257754468313
44062 13 18343301500135703223
497634 4 16805611407921892123
5104073 3 18040713701275385720
59755656 215 18200880569605605934
59755656 520 17023189322840591707
633830 44 17676205797031287200
70251023 43 17762617696186303235
9709674 26 18043253642149910160
9981440 41 17542225009640903264

> <PUBCHEM_SHAPE_MULTIPOLES>
589.61
12.1
2.75
1.71
2.56
1.46
-0.66
-1.63
2.99
-3.26
0.95
0.81
0.32
-0.98

> <PUBCHEM_SHAPE_SELFOVERLAP>
1281.943

> <PUBCHEM_SHAPE_VOLUME>
319.6

> <PUBCHEM_COORDINATE_TYPE>
2
5
10

$$$$
