129834125
  -OEChem-03292013293D

 43 45  0     1  0  0  0  0  0999 V2000
    2.2288    1.3687   -0.7498 O   0  0  0  0  0  0  0  0  0  0  0  0
    1.9239   -0.4701    2.4056 O   0  0  0  0  0  0  0  0  0  0  0  0
   -0.3992   -0.6722   -0.3053 O   0  0  0  0  0  0  0  0  0  0  0  0
    5.2302   -1.9742    0.8325 O   0  0  0  0  0  0  0  0  0  0  0  0
   -2.2505    2.4343    1.5721 O   0  0  0  0  0  0  0  0  0  0  0  0
   -4.5966    1.2990    1.1079 O   0  0  0  0  0  0  0  0  0  0  0  0
   -4.5232   -2.8412   -1.2178 O   0  0  0  0  0  0  0  0  0  0  0  0
    1.7975    0.2657    0.0592 C   0  0  1  0  0  0  0  0  0  0  0  0
    2.5184    0.3766    1.4186 C   0  0  2  0  0  0  0  0  0  0  0  0
    4.0040    0.0322    1.3120 C   0  0  0  0  0  0  0  0  0  0  0  0
    0.3103    0.3874    0.2367 C   0  0  0  0  0  0  0  0  0  0  0  0
    2.1696   -0.9969   -0.6755 C   0  0  0  0  0  0  0  0  0  0  0  0
    1.5982    1.3445   -2.0172 C   0  0  0  0  0  0  0  0  0  0  0  0
    4.2313   -1.2917    0.6104 C   0  0  0  0  0  0  0  0  0  0  0  0
    3.2584   -1.7308   -0.4180 C   0  0  0  0  0  0  0  0  0  0  0  0
   -0.2521    1.4316    0.8630 C   0  0  0  0  0  0  0  0  0  0  0  0
   -1.7672   -0.6629   -0.1999 C   0  0  0  0  0  0  0  0  0  0  0  0
   -2.4711    0.3643    0.4274 C   0  0  0  0  0  0  0  0  0  0  0  0
   -1.7197    1.4903    1.0034 C   0  0  0  0  0  0  0  0  0  0  0  0
    2.6567    1.2058   -3.1007 C   0  0  0  0  0  0  0  0  0  0  0  0
    0.7728    2.6106   -2.1898 C   0  0  0  0  0  0  0  0  0  0  0  0
   -2.4561   -1.7423   -0.7539 C   0  0  0  0  0  0  0  0  0  0  0  0
   -3.8649    0.3208    0.5058 C   0  0  0  0  0  0  0  0  0  0  0  0
   -3.8484   -1.7894   -0.6777 C   0  0  0  0  0  0  0  0  0  0  0  0
   -4.5509   -0.7602   -0.0491 C   0  0  0  0  0  0  0  0  0  0  0  0
    2.4525    1.4042    1.7990 H   0  0  0  0  0  0  0  0  0  0  0  0
    4.4440   -0.0425    2.3131 H   0  0  0  0  0  0  0  0  0  0  0  0
    4.5420    0.8023    0.7482 H   0  0  0  0  0  0  0  0  0  0  0  0
    1.5479   -1.3692   -1.4876 H   0  0  0  0  0  0  0  0  0  0  0  0
    0.8947    0.5213   -2.1791 H   0  0  0  0  0  0  0  0  0  0  0  0
    3.4775   -2.6346   -0.9745 H   0  0  0  0  0  0  0  0  0  0  0  0
    0.3234    2.2538    1.2712 H   0  0  0  0  0  0  0  0  0  0  0  0
    2.3859   -0.3122    3.2465 H   0  0  0  0  0  0  0  0  0  0  0  0
    0.3479    2.6693   -3.1973 H   0  0  0  0  0  0  0  0  0  0  0  0
    3.2320    0.2828   -2.9809 H   0  0  0  0  0  0  0  0  0  0  0  0
   -0.0534    2.6701   -1.4793 H   0  0  0  0  0  0  0  0  0  0  0  0
    1.3913    3.5001   -2.0253 H   0  0  0  0  0  0  0  0  0  0  0  0
    2.2072    1.2040   -4.0988 H   0  0  0  0  0  0  0  0  0  0  0  0
    3.3761    2.0307   -3.0468 H   0  0  0  0  0  0  0  0  0  0  0  0
   -1.9112   -2.5451   -1.2441 H   0  0  0  0  0  0  0  0  0  0  0  0
   -5.6363   -0.7960    0.0108 H   0  0  0  0  0  0  0  0  0  0  0  0
   -4.0148    1.9937    1.4529 H   0  0  0  0  0  0  0  0  0  0  0  0
   -5.4765   -2.7114   -1.0749 H   0  0  0  0  0  0  0  0  0  0  0  0
  1  8  1  0  0  0  0
  1 13  1  0  0  0  0
  2  9  1  0  0  0  0
  2 33  1  0  0  0  0
  3 11  1  0  0  0  0
  3 17  1  0  0  0  0
  4 14  2  0  0  0  0
  5 19  2  0  0  0  0
  6 23  1  0  0  0  0
  6 42  1  0  0  0  0
  7 24  1  0  0  0  0
  7 43  1  0  0  0  0
  8  9  1  0  0  0  0
  8 11  1  0  0  0  0
  8 12  1  0  0  0  0
  9 10  1  0  0  0  0
  9 26  1  0  0  0  0
 10 14  1  0  0  0  0
 10 27  1  0  0  0  0
 10 28  1  0  0  0  0
 11 16  2  0  0  0  0
 12 15  2  0  0  0  0
 12 29  1  0  0  0  0
 13 20  1  0  0  0  0
 13 21  1  0  0  0  0
 13 30  1  0  0  0  0
 14 15  1  0  0  0  0
 15 31  1  0  0  0  0
 16 19  1  0  0  0  0
 16 32  1  0  0  0  0
 17 18  1  0  0  0  0
 17 22  2  0  0  0  0
 18 19  1  0  0  0  0
 18 23  2  0  0  0  0
 20 35  1  0  0  0  0
 20 38  1  0  0  0  0
 20 39  1  0  0  0  0
 21 34  1  0  0  0  0
 21 36  1  0  0  0  0
 21 37  1  0  0  0  0
 22 24  1  0  0  0  0
 22 40  1  0  0  0  0
 23 25  1  0  0  0  0
 24 25  2  0  0  0  0
 25 41  1  0  0  0  0
M  END
> <PUBCHEM_COMPOUND_CID>
129834125

> <PUBCHEM_CONFORMER_RMSD>
0.8

> <PUBCHEM_CONFORMER_DIVERSEORDER>
1
21
24
12
10
30
27
14
2
20
11
15
4
28
31
13
18
26
29
6
23
16
19
5
7
17
9
8
22
3
25

> <PUBCHEM_MMFF94_PARTIAL_CHARGES>
31
1 -0.56
10 0.06
11 -0.06
12 -0.29
13 0.28
14 0.49
15 -0.14
16 -0.14
17 0.08
18 0.09
19 0.47
2 -0.68
22 -0.15
23 0.08
24 0.08
25 -0.15
29 0.15
3 -0.16
31 0.15
32 0.15
33 0.4
4 -0.57
40 0.15
41 0.15
42 0.45
43 0.45
5 -0.57
6 -0.53
7 -0.53
8 0.56
9 0.28

> <PUBCHEM_EFFECTIVE_ROTOR_COUNT>
3.6

> <PUBCHEM_PHARMACOPHORE_FEATURES>
12
1 1 acceptor
1 2 acceptor
1 2 donor
1 3 acceptor
1 4 acceptor
1 5 acceptor
1 6 donor
1 7 donor
3 13 20 21 hydrophobe
6 17 18 22 23 24 25 rings
6 3 11 16 17 18 19 rings
6 8 9 10 12 14 15 rings

> <PUBCHEM_HEAVY_ATOM_COUNT>
25

> <PUBCHEM_ATOM_DEF_STEREO_COUNT>
0

> <PUBCHEM_ATOM_UDEF_STEREO_COUNT>
2

> <PUBCHEM_BOND_DEF_STEREO_COUNT>
0

> <PUBCHEM_BOND_UDEF_STEREO_COUNT>
0

> <PUBCHEM_ISOTOPIC_ATOM_COUNT>
0

> <PUBCHEM_COMPONENT_COUNT>
1

> <PUBCHEM_CACTVS_TAUTO_COUNT>
24

> <PUBCHEM_CONFORMER_ID>
07BD1C8D00000001

> <PUBCHEM_MMFF94_ENERGY>
74.8887

> <PUBCHEM_FEATURE_SELFOVERLAP>
60.926

> <PUBCHEM_SHAPE_FINGERPRINT>
11578080 2 18190434177991763444
12166972 35 18335407015739262223
12236239 1 18333735697402607456
12553582 1 17986404501769839047
12633257 1 15841261661800009635
13009979 54 18410304596360482488
13134695 92 16153968206563200568
13140716 1 17989204889160552641
13224815 77 17846785143376939611
13583140 156 16987980722904390298
14556957 393 16227757416126869966
17349148 13 18408885161187974875
17980427 23 18337666529135128916
1813 80 18040718013754424382
18186145 218 16443065032242703753
18222031 100 18040424487136475850
200 152 16443630086682582186
204376 136 13614226106010589948
20600515 1 17775291525695302049
20626108 58 18262506100092454755
20645477 70 17167867503560948470
22112679 90 18262252027197328060
2255824 54 17603590767793880566
23175994 123 16371296519579123672
23419403 2 17905566147358022724
23557571 272 17489599994969202789
23559900 14 17560540429232557684
23598291 2 18187089459535208293
238 59 16952259952028331028
2838139 119 12533415960460306403
312423 11 18114188583307932775
495365 180 15647609081125009197
5104073 3 17917986191813162363
633830 44 17385448726216616145
6438718 38 17244703364717373148
7471813 234 17821728317178492116
7615 1 18335995232595025445
9709674 26 17632017438133691975
9971528 1 18186794794935302108
9981440 41 17469608863479599040

> <PUBCHEM_SHAPE_MULTIPOLES>
473.4
9.16
2.5
2.11
3.05
0.47
0.53
-5.43
-0.54
-0.16
1.16
-0.92
1.03
-2.98

> <PUBCHEM_SHAPE_SELFOVERLAP>
1034.687

> <PUBCHEM_SHAPE_VOLUME>
255.6

> <PUBCHEM_COORDINATE_TYPE>
2
5
10

$$$$
