129849435
  -OEChem-03292013293D

 33 33  0     1  0  0  0  0  0999 V2000
    3.4460   -0.8143    0.0697 P   0  0  0  0  0  0  0  0  0  0  0  0
   -0.5254   -0.5706   -0.0248 O   0  0  0  0  0  0  0  0  0  0  0  0
    4.3683    0.2623    0.8466 O   0  0  0  0  0  0  0  0  0  0  0  0
    3.5002   -2.1031    1.0454 O   0  0  0  0  0  0  0  0  0  0  0  0
    3.8442   -1.0817   -1.3518 O   0  0  0  0  0  0  0  0  0  0  0  0
    0.9201   -2.2361   -0.7003 O   0  0  0  0  0  0  0  0  0  0  0  0
    1.7147    0.9836   -0.5541 N   0  0  0  0  0  0  0  0  0  0  0  0
    2.3913    2.2634    1.2538 N   0  0  0  0  0  0  0  0  0  0  0  0
    2.0135    3.3675   -0.6984 N   0  0  0  0  0  0  0  0  0  0  0  0
    1.7798   -0.2018    0.2893 C   0  0  1  0  0  0  0  0  0  0  0  0
    0.7047   -1.1328   -0.2159 C   0  0  0  0  0  0  0  0  0  0  0  0
   -1.6391   -1.3687   -0.4381 C   0  0  0  0  0  0  0  0  0  0  0  0
   -2.9087   -0.6174   -0.1641 C   0  0  0  0  0  0  0  0  0  0  0  0
   -3.5537   -0.7620    1.0642 C   0  0  0  0  0  0  0  0  0  0  0  0
   -3.4439    0.2257   -1.1377 C   0  0  0  0  0  0  0  0  0  0  0  0
   -4.7341   -0.0636    1.3188 C   0  0  0  0  0  0  0  0  0  0  0  0
   -4.6241    0.9242   -0.8833 C   0  0  0  0  0  0  0  0  0  0  0  0
    2.0155    2.1458   -0.0643 C   0  0  0  0  0  0  0  0  0  0  0  0
   -5.2693    0.7795    0.3449 C   0  0  0  0  0  0  0  0  0  0  0  0
    1.5539   -0.0496    1.3492 H   0  0  0  0  0  0  0  0  0  0  0  0
   -1.6367   -2.3197    0.1089 H   0  0  0  0  0  0  0  0  0  0  0  0
   -1.5563   -1.5939   -1.5087 H   0  0  0  0  0  0  0  0  0  0  0  0
   -3.1453   -1.4143    1.8316 H   0  0  0  0  0  0  0  0  0  0  0  0
   -2.9494    0.3484   -2.0977 H   0  0  0  0  0  0  0  0  0  0  0  0
   -5.2362   -0.1758    2.2754 H   0  0  0  0  0  0  0  0  0  0  0  0
   -5.0406    1.5811   -1.6413 H   0  0  0  0  0  0  0  0  0  0  0  0
    4.3181   -2.6439    1.0719 H   0  0  0  0  0  0  0  0  0  0  0  0
    5.3424    0.1478    0.8370 H   0  0  0  0  0  0  0  0  0  0  0  0
   -6.1881    1.3235    0.5431 H   0  0  0  0  0  0  0  0  0  0  0  0
    1.7563    3.4489   -1.6761 H   0  0  0  0  0  0  0  0  0  0  0  0
    2.2693    4.2192   -0.2111 H   0  0  0  0  0  0  0  0  0  0  0  0
    2.5372    1.4837    1.8813 H   0  0  0  0  0  0  0  0  0  0  0  0
    2.6061    3.1770    1.6403 H   0  0  0  0  0  0  0  0  0  0  0  0
  1  3  1  0  0  0  0
  1  4  1  0  0  0  0
  1  5  2  0  0  0  0
  1 10  1  0  0  0  0
  2 11  1  0  0  0  0
  2 12  1  0  0  0  0
  3 28  1  0  0  0  0
  4 27  1  0  0  0  0
  6 11  2  0  0  0  0
  7 10  1  0  0  0  0
  7 18  2  0  0  0  0
  8 18  1  0  0  0  0
  8 32  1  0  0  0  0
  8 33  1  0  0  0  0
  9 18  1  0  0  0  0
  9 30  1  0  0  0  0
  9 31  1  0  0  0  0
 10 11  1  0  0  0  0
 10 20  1  0  0  0  0
 12 13  1  0  0  0  0
 12 21  1  0  0  0  0
 12 22  1  0  0  0  0
 13 14  2  0  0  0  0
 13 15  1  0  0  0  0
 14 16  1  0  0  0  0
 14 23  1  0  0  0  0
 15 17  2  0  0  0  0
 15 24  1  0  0  0  0
 16 19  2  0  0  0  0
 16 25  1  0  0  0  0
 17 19  1  0  0  0  0
 17 26  1  0  0  0  0
 19 29  1  0  0  0  0
M  END
> <PUBCHEM_COMPOUND_CID>
129849435

> <PUBCHEM_CONFORMER_RMSD>
0.8

> <PUBCHEM_CONFORMER_DIVERSEORDER>
1
84
52
81
53
36
155
22
127
132
97
122
153
133
51
113
91
126
77
10
94
173
137
151
25
146
140
11
32
57
143
47
130
138
43
114
13
142
21
46
102
78
73
82
141
170
136
90
166
26
116
55
6
64
12
71
101
62
159
134
149
4
65
171
95
157
63
167
174
33
98
89
128
108
45
61
79
20
92
17
28
110
139
31
14
58
144
40
121
30
74
105
107
145
172
103
87
117
158
24
76
156
162
27
56
163
80
152
83
161
160
115
2
106
50
59
147
109
175
118
70
23
93
150
3
164
154
48
104
168
148
69
120
19
67
38
75
7
72
54
18
85
112
37
16
49
9
42
60
35
34
41
8
88
29
5
165
124
125
129
100
44
66
15
111
123
39
68
96
86
135
169
131
99
119

> <PUBCHEM_MMFF94_PARTIAL_CHARGES>
30
1 1.24
10 0.31
11 0.66
12 0.42
13 -0.14
14 -0.15
15 -0.15
16 -0.15
17 -0.15
18 0.55
19 -0.15
2 -0.43
23 0.15
24 0.15
25 0.15
26 0.15
27 0.5
28 0.5
29 0.15
3 -0.77
30 0.4
31 0.4
32 0.4
33 0.4
4 -0.77
5 -0.7
6 -0.57
7 -0.7
8 -0.85
9 -0.85

> <PUBCHEM_EFFECTIVE_ROTOR_COUNT>
6

> <PUBCHEM_PHARMACOPHORE_FEATURES>
9
1 3 acceptor
1 4 acceptor
1 5 acceptor
1 6 acceptor
1 8 donor
1 9 donor
4 1 3 4 5 anion
4 7 8 9 18 cation
6 13 14 15 16 17 19 rings

> <PUBCHEM_HEAVY_ATOM_COUNT>
19

> <PUBCHEM_ATOM_DEF_STEREO_COUNT>
0

> <PUBCHEM_ATOM_UDEF_STEREO_COUNT>
1

> <PUBCHEM_BOND_DEF_STEREO_COUNT>
0

> <PUBCHEM_BOND_UDEF_STEREO_COUNT>
0

> <PUBCHEM_ISOTOPIC_ATOM_COUNT>
0

> <PUBCHEM_COMPONENT_COUNT>
1

> <PUBCHEM_CACTVS_TAUTO_COUNT>
2

> <PUBCHEM_CONFORMER_ID>
07BD585B00000001

> <PUBCHEM_MMFF94_ENERGY>
16.5298

> <PUBCHEM_FEATURE_SELFOVERLAP>
45.765

> <PUBCHEM_SHAPE_FINGERPRINT>
10366900 7 17749113292325606467
11405975 8 18335423486959869819
12236239 1 17131832037254339343
12507557 5 18409729564922494633
12617007 42 18200050477302918996
13134695 92 18335127662312605414
13583140 156 18040709277844042723
13922767 16 18413102879312646926
15295992 7 18187373150920648787
15653759 3 17748827414875347039
1601671 61 18411419518868869926
18186145 218 18412829109486361167
18785283 64 18115594879854293956
192875 21 17703795803568196473
20281475 54 9006789691387486911
20681677 76 18188768474342279359
21033648 29 17749937904682443589
21065198 57 18260550035074384763
21503847 285 18408889542049173257
21709351 56 18412822508311642247
23402539 116 14764342700262034331
23559900 14 17095246912905344223
3060560 45 18202565047178989990
351380 180 18334571322640873965
474 4 18342737438054686323
5104073 3 18410858802272342291
5895379 119 15625960723692617385
6913067 236 10951760820680137827
7495541 125 18040724679100614627
9971528 1 17846780672416237310

> <PUBCHEM_SHAPE_MULTIPOLES>
350.57
10.64
2.47
1.18
7.42
1.74
-0.09
0.85
-1.53
-3.02
0.16
0.31
0.01
0.4

> <PUBCHEM_SHAPE_SELFOVERLAP>
705.384

> <PUBCHEM_SHAPE_VOLUME>
204.8

> <PUBCHEM_COORDINATE_TYPE>
2
5
10

$$$$
