129800705
  -OEChem-03292013293D

 39 39  0     1  0  0  0  0  0999 V2000
   -1.8119   -1.2117    0.5293 O   0  0  0  0  0  0  0  0  0  0  0  0
   -0.9167    2.6150   -0.8235 O   0  0  0  0  0  0  0  0  0  0  0  0
   -3.3584    1.3409   -1.6326 O   0  0  0  0  0  0  0  0  0  0  0  0
   -2.0368    0.0904    2.5004 O   0  0  0  0  0  0  0  0  0  0  0  0
   -3.9362   -2.6913   -0.3297 O   0  0  0  0  0  0  0  0  0  0  0  0
    2.2222    0.6094    1.6504 O   0  0  0  0  0  0  0  0  0  0  0  0
    0.6137    0.4195   -0.0147 N   0  0  0  0  0  0  0  0  0  0  0  0
   -0.5212    0.8450    0.7777 C   0  0  1  0  0  0  0  0  0  0  0  0
   -1.5567    1.5832   -0.0768 C   0  0  2  0  0  0  0  0  0  0  0  0
   -2.2940    0.6234   -1.0127 C   0  0  1  0  0  0  0  0  0  0  0  0
   -2.8469   -0.5680   -0.2199 C   0  0  1  0  0  0  0  0  0  0  0  0
   -1.1561   -0.3617    1.4750 C   0  0  2  0  0  0  0  0  0  0  0  0
   -3.4614   -1.6260   -1.1321 C   0  0  0  0  0  0  0  0  0  0  0  0
    1.8986    0.3385    0.4971 C   0  0  0  0  0  0  0  0  0  0  0  0
    2.8861   -0.1363   -0.5544 C   0  0  0  0  0  0  0  0  0  0  0  0
    4.3112   -0.2343   -0.0150 C   0  0  0  0  0  0  0  0  0  0  0  0
    5.2757   -0.7506   -1.0818 C   0  0  0  0  0  0  0  0  0  0  0  0
    6.6887   -0.8857   -0.5369 C   0  0  0  0  0  0  0  0  0  0  0  0
   -0.1444    1.5451    1.5347 H   0  0  0  0  0  0  0  0  0  0  0  0
   -2.2863    2.0803    0.5754 H   0  0  0  0  0  0  0  0  0  0  0  0
   -1.6233    0.2878   -1.8116 H   0  0  0  0  0  0  0  0  0  0  0  0
   -3.6261   -0.2396    0.4808 H   0  0  0  0  0  0  0  0  0  0  0  0
   -0.3766   -0.9615    1.9591 H   0  0  0  0  0  0  0  0  0  0  0  0
    0.4481    0.1147   -0.9694 H   0  0  0  0  0  0  0  0  0  0  0  0
   -4.2960   -1.2188   -1.7108 H   0  0  0  0  0  0  0  0  0  0  0  0
   -2.7101   -2.0330   -1.8171 H   0  0  0  0  0  0  0  0  0  0  0  0
   -0.4576    3.1932   -0.1907 H   0  0  0  0  0  0  0  0  0  0  0  0
   -3.9815    1.6153   -0.9383 H   0  0  0  0  0  0  0  0  0  0  0  0
   -2.0820   -0.6129    3.1701 H   0  0  0  0  0  0  0  0  0  0  0  0
    2.8524    0.5628   -1.3985 H   0  0  0  0  0  0  0  0  0  0  0  0
    2.5542   -1.1174   -0.9149 H   0  0  0  0  0  0  0  0  0  0  0  0
    4.6417    0.7503    0.3389 H   0  0  0  0  0  0  0  0  0  0  0  0
    4.3305   -0.9043    0.8537 H   0  0  0  0  0  0  0  0  0  0  0  0
   -4.3195   -3.3537   -0.9296 H   0  0  0  0  0  0  0  0  0  0  0  0
    5.2829   -0.0673   -1.9389 H   0  0  0  0  0  0  0  0  0  0  0  0
    4.9386   -1.7273   -1.4480 H   0  0  0  0  0  0  0  0  0  0  0  0
    6.7207   -1.5898    0.3007 H   1  0  0  0  0  0  0  0  0  0  0  0
    7.0688    0.0802   -0.1889 H   0  0  0  0  0  0  0  0  0  0  0  0
    7.3620   -1.2548   -1.3168 H   0  0  0  0  0  0  0  0  0  0  0  0
  1 11  1  0  0  0  0
  1 12  1  0  0  0  0
  2  9  1  0  0  0  0
  2 27  1  0  0  0  0
  3 10  1  0  0  0  0
  3 28  1  0  0  0  0
  4 12  1  0  0  0  0
  4 29  1  0  0  0  0
  5 13  1  0  0  0  0
  5 34  1  0  0  0  0
  6 14  2  0  0  0  0
  7  8  1  0  0  0  0
  7 14  1  0  0  0  0
  7 24  1  0  0  0  0
  8  9  1  0  0  0  0
  8 12  1  0  0  0  0
  8 19  1  0  0  0  0
  9 10  1  0  0  0  0
  9 20  1  0  0  0  0
 10 11  1  0  0  0  0
 10 21  1  0  0  0  0
 11 13  1  0  0  0  0
 11 22  1  0  0  0  0
 12 23  1  0  0  0  0
 13 25  1  0  0  0  0
 13 26  1  0  0  0  0
 14 15  1  0  0  0  0
 15 16  1  0  0  0  0
 15 30  1  0  0  0  0
 15 31  1  0  0  0  0
 16 17  1  0  0  0  0
 16 32  1  0  0  0  0
 16 33  1  0  0  0  0
 17 18  1  0  0  0  0
 17 35  1  0  0  0  0
 17 36  1  0  0  0  0
 18 37  1  0  0  0  0
 18 38  1  0  0  0  0
 18 39  1  0  0  0  0
M  ISO  1  37   2
M  END
> <PUBCHEM_COMPOUND_CID>
129800705

> <PUBCHEM_CONFORMER_RMSD>
0.8

> <PUBCHEM_CONFORMER_DIVERSEORDER>
3
41
81
10
58
36
51
14
4
73
32
45
75
28
18
15
54
1
71
16
65
56
49
35
24
6
48
31
23
68
78
70
33
39
7
37
76
43
38
47
26
19
80
64
9
53
63
30
27
44
29
40
25
69
21
79
5
55
74
62
67
57
20
42
46
17
77
12
59
72
50
2
52
22
11
60
13
34
66
8
61

> <PUBCHEM_MMFF94_PARTIAL_CHARGES>
20
1 -0.56
10 0.28
11 0.28
12 0.56
13 0.28
14 0.57
15 0.06
2 -0.68
24 0.37
27 0.4
28 0.4
29 0.4
3 -0.68
34 0.4
4 -0.68
5 -0.68
6 -0.57
7 -0.73
8 0.3
9 0.28

> <PUBCHEM_EFFECTIVE_ROTOR_COUNT>
7.2

> <PUBCHEM_PHARMACOPHORE_FEATURES>
13
1 1 acceptor
1 18 hydrophobe
1 2 acceptor
1 2 donor
1 3 acceptor
1 3 donor
1 4 acceptor
1 4 donor
1 5 acceptor
1 5 donor
1 6 acceptor
1 7 donor
6 1 8 9 10 11 12 rings

> <PUBCHEM_HEAVY_ATOM_COUNT>
18

> <PUBCHEM_ATOM_DEF_STEREO_COUNT>
4

> <PUBCHEM_ATOM_UDEF_STEREO_COUNT>
1

> <PUBCHEM_BOND_DEF_STEREO_COUNT>
0

> <PUBCHEM_BOND_UDEF_STEREO_COUNT>
0

> <PUBCHEM_ISOTOPIC_ATOM_COUNT>
1

> <PUBCHEM_COMPONENT_COUNT>
1

> <PUBCHEM_CACTVS_TAUTO_COUNT>
2

> <PUBCHEM_CONFORMER_ID>
07BC9A0100000003

> <PUBCHEM_MMFF94_ENERGY>
27.469

> <PUBCHEM_FEATURE_SELFOVERLAP>
66.026

> <PUBCHEM_SHAPE_FINGERPRINT>
10014705 185 13406796648961605438
10680689 15 18335994077807712440
11046707 91 18202285814217034982
11315181 36 16200145453294552176
12916754 54 18272372013976367456
13024252 1 17022628559236559201
13288520 33 17917716790363604942
13994607 96 11602822380387489087
14123255 352 11963387458036173574
14251764 30 18115878580051910235
15061688 2 11098114670639188655
15209294 21 10231759989559571044
16945 1 18191565515864623209
17870717 6 18340772550720044990
19489759 90 18186518775041798004
200 152 16630516319796618524
20112054 13 8646497322897965986
20300324 65 18259704488978408036
20645477 56 13045947901844960938
20871999 31 18113893862346048477
21637258 2 17418086676520283623
22620623 9 18267000874184238951
2306618 200 18130230363056610112
23379529 103 17975977879810903511
23402539 116 17822294561519262492
23403322 49 18272089387927452454
23500284 214 8214150654879614606
23559900 14 18340474626208799624
26918003 58 17203328918204534319
27216 239 11169923787601545996
2748010 2 16882725815107844665
2838139 119 12036542364404750591
3286 77 17489591211871768122
5104073 3 16702024124558154578
531348 171 18118121369197742406
90316 7 13901911132821524603

> <PUBCHEM_SHAPE_MULTIPOLES>
330.23
10.61
1.9
1.58
20.59
0.41
-0.56
6.24
3.41
-2.45
0.5
-1.18
-0.43
0.7

> <PUBCHEM_SHAPE_SELFOVERLAP>
650.003

> <PUBCHEM_SHAPE_VOLUME>
195.8

> <PUBCHEM_COORDINATE_TYPE>
2
5
10

$$$$
