129878087
  -OEChem-03292013293D

 33 32  0     1  0  0  0  0  0999 V2000
    0.7397   -0.3155    0.2317 O   0  0  0  0  0  0  0  0  0  0  0  0
   -1.6007    1.1249    1.1285 O   0  0  0  0  0  0  0  0  0  0  0  0
   -2.1453   -1.5547   -1.2637 O   0  0  0  0  0  0  0  0  0  0  0  0
   -0.1214    2.6633   -1.6944 O   0  0  0  0  0  0  0  0  0  0  0  0
   -3.9396   -2.3147    0.6861 O   0  0  0  0  0  0  0  0  0  0  0  0
   -0.0029    3.7323    0.7402 O   0  0  0  0  0  0  0  0  0  0  0  0
    4.0112   -1.7463   -0.1569 O   0  0  0  0  0  0  0  0  0  0  0  0
    2.9604   -0.8441    1.6414 O   0  0  0  0  0  0  0  0  0  0  0  0
   -0.0383    0.5189   -0.6353 C   0  0  1  0  0  0  0  0  0  0  0  0
   -1.4928    0.4640   -0.1367 C   0  0  1  0  0  0  0  0  0  0  0  0
   -2.0801   -0.9448    0.0336 C   0  0  1  0  0  0  0  0  0  0  0  0
    0.6107    1.9058   -0.7370 C   0  0  2  0  0  0  0  0  0  0  0  0
   -3.4930   -0.9637    0.6069 C   0  0  0  0  0  0  0  0  0  0  0  0
    1.7814   -0.9602   -0.4804 C   0  0  2  0  0  0  0  0  0  0  0  0
    0.6063    2.6816    0.5641 C   0  0  0  0  0  0  0  0  0  0  0  0
    1.2509   -2.2903   -0.9862 C   0  0  0  0  0  0  0  0  0  0  0  0
    2.9536   -1.1566    0.4580 C   0  0  0  0  0  0  0  0  0  0  0  0
   -0.0611    0.0913   -1.6478 H   0  0  0  0  0  0  0  0  0  0  0  0
   -2.1145    1.0204   -0.8495 H   0  0  0  0  0  0  0  0  0  0  0  0
   -1.4348   -1.5691    0.6620 H   0  0  0  0  0  0  0  0  0  0  0  0
    1.6507    1.8457   -1.0706 H   0  0  0  0  0  0  0  0  0  0  0  0
   -4.1873   -0.4224   -0.0441 H   0  0  0  0  0  0  0  0  0  0  0  0
   -3.5290   -0.5382    1.6136 H   0  0  0  0  0  0  0  0  0  0  0  0
    2.1487   -0.3443   -1.3104 H   0  0  0  0  0  0  0  0  0  0  0  0
   -2.5248    1.4063    1.2380 H   0  0  0  0  0  0  0  0  0  0  0  0
    1.2113    2.2424    1.3762 H   0  0  0  0  0  0  0  0  0  0  0  0
   -2.4933   -2.4550   -1.1440 H   0  0  0  0  0  0  0  0  0  0  0  0
    0.8441   -2.8879   -0.1624 H   0  0  0  0  0  0  0  0  0  0  0  0
    2.0348   -2.8784   -1.4738 H   0  0  0  0  0  0  0  0  0  0  0  0
    0.4423   -2.1501   -1.7090 H   0  0  0  0  0  0  0  0  0  0  0  0
   -1.0210    2.8046   -1.3551 H   0  0  0  0  0  0  0  0  0  0  0  0
   -4.8421   -2.2952    1.0477 H   0  0  0  0  0  0  0  0  0  0  0  0
    4.7637   -1.8798    0.4580 H   0  0  0  0  0  0  0  0  0  0  0  0
  1  9  1  0  0  0  0
  1 14  1  0  0  0  0
  2 10  1  0  0  0  0
  2 25  1  0  0  0  0
  3 11  1  0  0  0  0
  3 27  1  0  0  0  0
  4 12  1  0  0  0  0
  4 31  1  0  0  0  0
  5 13  1  0  0  0  0
  5 32  1  0  0  0  0
  6 15  2  0  0  0  0
  7 17  1  0  0  0  0
  7 33  1  0  0  0  0
  8 17  2  0  0  0  0
  9 10  1  0  0  0  0
  9 12  1  0  0  0  0
  9 18  1  0  0  0  0
 10 11  1  0  0  0  0
 10 19  1  0  0  0  0
 11 13  1  0  0  0  0
 11 20  1  0  0  0  0
 12 15  1  0  0  0  0
 12 21  1  0  0  0  0
 13 22  1  0  0  0  0
 13 23  1  0  0  0  0
 14 16  1  0  0  0  0
 14 17  1  0  0  0  0
 14 24  1  0  0  0  0
 15 26  1  0  0  0  0
 16 28  1  0  0  0  0
 16 29  1  0  0  0  0
 16 30  1  0  0  0  0
M  END
> <PUBCHEM_COMPOUND_CID>
129878087

> <PUBCHEM_CONFORMER_RMSD>
0.8

> <PUBCHEM_CONFORMER_DIVERSEORDER>
1
59
131
49
159
135
70
96
151
141
167
122
13
47
77
155
107
97
98
121
61
63
158
30
105
104
101
48
109
129
39
73
81
168
169
156
22
114
152
51
82
67
147
36
23
113
58
90
79
21
170
161
19
148
127
16
43
171
38
95
65
144
163
116
112
86
78
80
162
110
143
89
146
56
88
29
120
45
134
71
72
106
15
150
87
76
100
149
99
164
25
133
27
93
52
117
83
157
123
145
4
136
118
10
69
128
172
119
103
28
125
57
75
115
137
173
33
40
94
108
142
165
18
84
35
46
68
62
124
154
140
34
60
85
41
74
24
53
111
91
31
130
153
132
42
26
138
55
126
12
166
139
6
7
54
2
102
20
3
64
14
17
44
92
66
50
11
5
9
160
32
8
37

> <PUBCHEM_MMFF94_PARTIAL_CHARGES>
22
1 -0.56
10 0.28
11 0.28
12 0.34
13 0.28
14 0.34
15 0.45
17 0.66
2 -0.68
25 0.4
26 0.06
27 0.4
3 -0.68
31 0.4
32 0.4
33 0.5
4 -0.68
5 -0.68
6 -0.57
7 -0.65
8 -0.57
9 0.28

> <PUBCHEM_EFFECTIVE_ROTOR_COUNT>
8

> <PUBCHEM_PHARMACOPHORE_FEATURES>
13
1 1 acceptor
1 2 acceptor
1 2 donor
1 3 acceptor
1 3 donor
1 4 acceptor
1 4 donor
1 5 acceptor
1 5 donor
1 6 acceptor
1 7 acceptor
1 8 acceptor
3 7 8 17 anion

> <PUBCHEM_HEAVY_ATOM_COUNT>
17

> <PUBCHEM_ATOM_DEF_STEREO_COUNT>
4

> <PUBCHEM_ATOM_UDEF_STEREO_COUNT>
1

> <PUBCHEM_BOND_DEF_STEREO_COUNT>
0

> <PUBCHEM_BOND_UDEF_STEREO_COUNT>
0

> <PUBCHEM_ISOTOPIC_ATOM_COUNT>
0

> <PUBCHEM_COMPONENT_COUNT>
1

> <PUBCHEM_CACTVS_TAUTO_COUNT>
4

> <PUBCHEM_CONFORMER_ID>
07BDC84700000001

> <PUBCHEM_MMFF94_ENERGY>
33.5826

> <PUBCHEM_FEATURE_SELFOVERLAP>
66.066

> <PUBCHEM_SHAPE_FINGERPRINT>
1 1 17832988621516049421
108231 29 18334857238086800482
10989021 7 18409730685513313228
12382932 28 18268994189300874338
14787075 74 18041845142222341330
14817 1 16814826320079196688
15852999 172 17326589433340027782
16945 1 18131911563611696831
18186145 218 8141803945255624754
20097449 115 18334294279453273447
20559304 39 18199765789421670875
20645477 70 18191584375319493879
20711985 327 18341896307190514087
20871998 184 18199467658134707086
21041028 32 18411991264625422953
21061003 4 18409444795547995535
21296965 67 18333448737868665143
21524375 3 17475527538861044421
22112679 90 18268733669459090324
23419403 2 18046033142793709037
23557571 272 18267585693773780950
2748010 2 18268967878690045076
305870 269 17908421707951582157
3071541 236 17685758143426148524
458136 41 17540839603429685217
5845 1 18266476311968293004
58554843 112 17903645420744885859
5902787 121 18261113006149520043
7364860 26 18196379336325704609
81228 2 18121219766445736565
9981440 41 17049869926256237314

> <PUBCHEM_SHAPE_MULTIPOLES>
302.9
5.14
3.62
1.24
0.63
3.25
0.07
-5.64
-1.66
-0.07
0.12
-0.16
0.2
0.11

> <PUBCHEM_SHAPE_SELFOVERLAP>
589.172

> <PUBCHEM_SHAPE_VOLUME>
181.8

> <PUBCHEM_COORDINATE_TYPE>
2
5
10

$$$$
