129846908
  -OEChem-03292013293D

 48 48  0     1  0  0  0  0  0999 V2000
    2.7114    1.1212   -0.2991 O   0  0  0  0  0  0  0  0  0  0  0  0
    4.3146   -2.6585   -0.6629 O   0  0  0  0  0  0  0  0  0  0  0  0
    5.9838   -0.4775    0.1982 O   0  0  0  0  0  0  0  0  0  0  0  0
    1.5753   -2.3139    0.2621 O   0  0  0  0  0  0  0  0  0  0  0  0
    4.1589    3.3860    0.2414 O   0  0  0  0  0  0  0  0  0  0  0  0
   -0.6132   -0.6348    1.4594 O   0  0  0  0  0  0  0  0  0  0  0  0
    0.5333    0.3497   -0.3052 N   0  0  0  0  0  0  0  0  0  0  0  0
    3.8286   -1.5016    0.0208 C   0  0  1  0  0  0  0  0  0  0  0  0
    4.6848   -0.2915   -0.3568 C   0  0  1  0  0  0  0  0  0  0  0  0
    2.3579   -1.2846   -0.3403 C   0  0  2  0  0  0  0  0  0  0  0  0
    4.0544    1.0001    0.1765 C   0  0  1  0  0  0  0  0  0  0  0  0
    1.8675    0.0714    0.1651 C   0  0  1  0  0  0  0  0  0  0  0  0
    4.8096    2.2431   -0.2834 C   0  0  0  0  0  0  0  0  0  0  0  0
   -0.6053   -0.0315    0.3899 C   0  0  0  0  0  0  0  0  0  0  0  0
   -1.8701    0.3878   -0.3384 C   0  0  2  0  0  0  0  0  0  0  0  0
   -3.1371   -0.0218    0.4090 C   0  0  0  0  0  0  0  0  0  0  0  0
   -4.3939    0.3780   -0.3648 C   0  0  0  0  0  0  0  0  0  0  0  0
   -5.6631   -0.0625    0.3684 C   0  0  0  0  0  0  0  0  0  0  0  0
   -6.9178    0.3061   -0.4264 C   0  0  0  0  0  0  0  0  0  0  0  0
   -8.2169   -0.1334    0.2524 C   0  0  0  0  0  0  0  0  0  0  0  0
   -9.4628    0.1681   -0.5657 C   0  0  0  0  0  0  0  0  0  0  0  0
    3.9309   -1.7239    1.0900 H   0  0  0  0  0  0  0  0  0  0  0  0
    4.7957   -0.2449   -1.4468 H   0  0  0  0  0  0  0  0  0  0  0  0
    2.2243   -1.3666   -1.4259 H   0  0  0  0  0  0  0  0  0  0  0  0
    4.0357    1.0025    1.2749 H   0  0  0  0  0  0  0  0  0  0  0  0
    1.8412    0.0895    1.2625 H   0  0  0  0  0  0  0  0  0  0  0  0
    4.7984    2.3244   -1.3755 H   0  0  0  0  0  0  0  0  0  0  0  0
    5.8457    2.2339    0.0682 H   0  0  0  0  0  0  0  0  0  0  0  0
    0.4380    0.8335   -1.1930 H   0  0  0  0  0  0  0  0  0  0  0  0
    4.2427   -2.4943   -1.6187 H   0  0  0  0  0  0  0  0  0  0  0  0
    5.8994   -0.4798    1.1670 H   0  0  0  0  0  0  0  0  0  0  0  0
    1.6776   -2.2454    1.2267 H   0  0  0  0  0  0  0  0  0  0  0  0
   -1.8575   -0.0717   -1.3340 H   1  0  0  0  0  0  0  0  0  0  0  0
   -1.8474    1.4763   -0.4684 H   0  0  0  0  0  0  0  0  0  0  0  0
   -3.1485    0.4452    1.4017 H   0  0  0  0  0  0  0  0  0  0  0  0
   -3.1341   -1.1070    0.5707 H   0  0  0  0  0  0  0  0  0  0  0  0
   -4.4089    1.4654   -0.5069 H   0  0  0  0  0  0  0  0  0  0  0  0
   -4.3702   -0.0784   -1.3620 H   0  0  0  0  0  0  0  0  0  0  0  0
   -5.7025    0.4103    1.3571 H   0  0  0  0  0  0  0  0  0  0  0  0
   -5.6386   -1.1471    0.5286 H   0  0  0  0  0  0  0  0  0  0  0  0
   -6.9443    1.3917   -0.5826 H   0  0  0  0  0  0  0  0  0  0  0  0
   -6.8618   -0.1550   -1.4204 H   0  0  0  0  0  0  0  0  0  0  0  0
    4.6539    4.1645   -0.0659 H   0  0  0  0  0  0  0  0  0  0  0  0
   -8.3022    0.3618    1.2269 H   0  0  0  0  0  0  0  0  0  0  0  0
   -8.1778   -1.2119    0.4468 H   0  0  0  0  0  0  0  0  0  0  0  0
   -9.4295   -0.3461   -1.5314 H   0  0  0  0  0  0  0  0  0  0  0  0
  -10.3584   -0.1652   -0.0323 H   0  0  0  0  0  0  0  0  0  0  0  0
   -9.5562    1.2427   -0.7518 H   0  0  0  0  0  0  0  0  0  0  0  0
  1 11  1  0  0  0  0
  1 12  1  0  0  0  0
  2  8  1  0  0  0  0
  2 30  1  0  0  0  0
  3  9  1  0  0  0  0
  3 31  1  0  0  0  0
  4 10  1  0  0  0  0
  4 32  1  0  0  0  0
  5 13  1  0  0  0  0
  5 43  1  0  0  0  0
  6 14  2  0  0  0  0
  7 12  1  0  0  0  0
  7 14  1  0  0  0  0
  7 29  1  0  0  0  0
  8  9  1  0  0  0  0
  8 10  1  0  0  0  0
  8 22  1  0  0  0  0
  9 11  1  0  0  0  0
  9 23  1  0  0  0  0
 10 12  1  0  0  0  0
 10 24  1  0  0  0  0
 11 13  1  0  0  0  0
 11 25  1  0  0  0  0
 12 26  1  0  0  0  0
 13 27  1  0  0  0  0
 13 28  1  0  0  0  0
 14 15  1  0  0  0  0
 15 16  1  0  0  0  0
 15 33  1  0  0  0  0
 15 34  1  0  0  0  0
 16 17  1  0  0  0  0
 16 35  1  0  0  0  0
 16 36  1  0  0  0  0
 17 18  1  0  0  0  0
 17 37  1  0  0  0  0
 17 38  1  0  0  0  0
 18 19  1  0  0  0  0
 18 39  1  0  0  0  0
 18 40  1  0  0  0  0
 19 20  1  0  0  0  0
 19 41  1  0  0  0  0
 19 42  1  0  0  0  0
 20 21  1  0  0  0  0
 20 44  1  0  0  0  0
 20 45  1  0  0  0  0
 21 46  1  0  0  0  0
 21 47  1  0  0  0  0
 21 48  1  0  0  0  0
M  ISO  1  33   2
M  END
> <PUBCHEM_COMPOUND_CID>
129846908

> <PUBCHEM_CONFORMER_RMSD>
1.2

> <PUBCHEM_CONFORMER_DIVERSEORDER>
1
27
57
85
75
28
24
94
76
48
50
10
36
66
100
16
84
35
42
5
15
77
22
56
58
81
99
19
88
91
2
101
95
83
29
60
26
3
53
9
23
8
43
4
54
86
25
93
39
87
12
32
49
69
68
63
33
98
7
37
51
70
103
96
59
20
52
64
31
67
17
6
41
89
73
79
47
78
14
102
38
30
71
21
74
11
61
46
90
65
40
44
13
45
18
92
62
80
55
72
97
82
34

> <PUBCHEM_MMFF94_PARTIAL_CHARGES>
20
1 -0.56
10 0.28
11 0.28
12 0.58
13 0.28
14 0.57
15 0.06
2 -0.68
29 0.37
3 -0.68
30 0.4
31 0.4
32 0.4
4 -0.68
43 0.4
5 -0.68
6 -0.57
7 -0.73
8 0.28
9 0.28

> <PUBCHEM_EFFECTIVE_ROTOR_COUNT>
10.2

> <PUBCHEM_PHARMACOPHORE_FEATURES>
15
1 1 acceptor
1 2 acceptor
1 2 donor
1 21 hydrophobe
1 3 acceptor
1 3 donor
1 4 acceptor
1 4 donor
1 5 acceptor
1 5 donor
1 6 acceptor
1 7 donor
3 15 16 17 hydrophobe
3 18 19 20 hydrophobe
6 1 8 9 10 11 12 rings

> <PUBCHEM_HEAVY_ATOM_COUNT>
21

> <PUBCHEM_ATOM_DEF_STEREO_COUNT>
4

> <PUBCHEM_ATOM_UDEF_STEREO_COUNT>
2

> <PUBCHEM_BOND_DEF_STEREO_COUNT>
0

> <PUBCHEM_BOND_UDEF_STEREO_COUNT>
0

> <PUBCHEM_ISOTOPIC_ATOM_COUNT>
1

> <PUBCHEM_COMPONENT_COUNT>
1

> <PUBCHEM_CACTVS_TAUTO_COUNT>
2

> <PUBCHEM_CONFORMER_ID>
07BD4E7C00000001

> <PUBCHEM_MMFF94_ENERGY>
30.1542

> <PUBCHEM_FEATURE_SELFOVERLAP>
76.152

> <PUBCHEM_SHAPE_FINGERPRINT>
10299344 5 17989204846606641599
10411042 1 18123190092322499918
10595046 47 18343865520153048945
10638233 991 17988929994142915401
10835480 77 18336829792528493537
12236239 1 17632580413724846770
12730499 353 18333171669386072995
13533116 47 18272932704613415363
14170010 4 18187366549635373741
14251764 18 17704355464452050057
14251764 46 18410854360616553523
14933364 13 18408323264419328493
15510794 2 18187086166519242683
16120349 18 18412539938593043893
17844677 252 18339367366375677517
19427546 62 18337111284389673982
20157964 124 18411702092682072388
20554085 129 16298098801051205897
20645477 70 18340770342933112518
21150785 3 18130785677560212853
21315763 28 18412262814265034737
21344244 78 18130212750017871298
21521721 280 18410579504986345291
220451 1 17704069608487527847
221357 26 18408886204775402509
23081809 10 17703794704736927009
23522609 53 17559980817191587761
23536379 177 18343585114786485017
23557571 272 17023182691136656764
255183 451 17843414986004742854
29717793 49 17989492896144210247
335352 9 18410863153533096622
34797466 226 18343868810034506069
4073 2 18114748243422284131
42630746 31 18411700980813225854
4325135 7 18344145886727380599
445580 126 18271799181599149896
59755656 215 17676206836688049835
6025842 7 18342461439251014038

> <PUBCHEM_SHAPE_MULTIPOLES>
391.97
22.24
2.11
0.78
55.79
0.62
-0.09
2.59
2.76
-5.8
0.1
0.26
-0.08
0.49

> <PUBCHEM_SHAPE_SELFOVERLAP>
763.042

> <PUBCHEM_SHAPE_VOLUME>
235.4

> <PUBCHEM_COORDINATE_TYPE>
2
5
10

$$$$
