129856
  -OEChem-03292013323D

 59 59  0     1  0  0  0  0  0999 V2000
    3.0591   -2.0288    0.6618 O   0  0  0  0  0  0  0  0  0  0  0  0
   -2.3802   -1.7869    0.9102 O   0  0  0  0  0  0  0  0  0  0  0  0
    0.0349    0.2106    1.3397 O   0  0  0  0  0  0  0  0  0  0  0  0
    3.6321    1.8122    1.0883 O   0  0  0  0  0  0  0  0  0  0  0  0
   -1.8385   -2.2798   -1.2548 O   0  0  0  0  0  0  0  0  0  0  0  0
   -0.1654   -2.1714    0.3580 N   0  0  0  0  0  0  0  0  0  0  0  0
    2.1762    0.0893    0.5187 N   0  0  0  0  0  0  0  0  0  0  0  0
   -0.6644    2.3724   -0.0165 N   0  0  0  0  0  0  0  0  0  0  0  0
    4.0743    0.8443   -1.8488 N   0  0  0  0  0  0  0  0  0  0  0  0
    0.9483   -1.8483   -0.5049 C   0  0  0  0  0  0  0  0  0  0  0  0
    2.1170   -1.2950    0.3415 C   0  0  0  0  0  0  0  0  0  0  0  0
    0.7797    2.1618    0.1252 C   0  0  0  0  0  0  0  0  0  0  0  0
    1.4165   -3.1357   -1.1978 C   0  0  0  0  0  0  0  0  0  0  0  0
    0.5121   -0.8349   -1.5659 C   0  0  0  0  0  0  0  0  0  0  0  0
    0.9780    0.7628    0.7580 C   0  0  0  0  0  0  0  0  0  0  0  0
    3.3973    0.7780    0.4583 C   0  0  0  0  0  0  0  0  0  0  0  0
    0.1668   -2.5838    1.7231 C   0  0  0  0  0  0  0  0  0  0  0  0
    1.4608    2.3968   -1.2243 C   0  0  0  0  0  0  0  0  0  0  0  0
    1.3052    3.2132    1.1195 C   0  0  0  0  0  0  0  0  0  0  0  0
    4.4038    0.2387   -0.5604 C   0  0  2  0  0  0  0  0  0  0  0  0
   -1.4944   -2.0940   -0.0887 C   0  0  0  0  0  0  0  0  0  0  0  0
    5.8233    0.6305   -0.1638 C   0  0  0  0  0  0  0  0  0  0  0  0
   -3.7568   -1.6900    0.5261 C   0  0  0  0  0  0  0  0  0  0  0  0
   -4.0545   -0.2755    0.1236 C   0  0  0  0  0  0  0  0  0  0  0  0
   -4.4923    0.6436    1.0772 C   0  0  0  0  0  0  0  0  0  0  0  0
   -3.8931    0.1207   -1.2043 C   0  0  0  0  0  0  0  0  0  0  0  0
   -4.7688    1.9587    0.7033 C   0  0  0  0  0  0  0  0  0  0  0  0
   -4.1696    1.4358   -1.5781 C   0  0  0  0  0  0  0  0  0  0  0  0
   -4.6074    2.3547   -0.6243 C   0  0  0  0  0  0  0  0  0  0  0  0
    1.7241   -3.9047   -0.4797 H   0  0  0  0  0  0  0  0  0  0  0  0
    2.2733   -2.9398   -1.8533 H   0  0  0  0  0  0  0  0  0  0  0  0
    0.6211   -3.5758   -1.8105 H   0  0  0  0  0  0  0  0  0  0  0  0
   -0.0008   -1.3366   -2.3972 H   0  0  0  0  0  0  0  0  0  0  0  0
   -0.1818   -0.0697   -1.2313 H   0  0  0  0  0  0  0  0  0  0  0  0
    1.3830   -0.3899   -2.0447 H   0  0  0  0  0  0  0  0  0  0  0  0
    0.8433   -3.4431    1.6817 H   0  0  0  0  0  0  0  0  0  0  0  0
   -0.7341   -2.9113    2.2506 H   0  0  0  0  0  0  0  0  0  0  0  0
    0.6274   -1.7899    2.3120 H   0  0  0  0  0  0  0  0  0  0  0  0
    2.5279    2.5943   -1.1381 H   0  0  0  0  0  0  0  0  0  0  0  0
    1.0607    3.3157   -1.6773 H   0  0  0  0  0  0  0  0  0  0  0  0
    1.2807    1.6164   -1.9572 H   0  0  0  0  0  0  0  0  0  0  0  0
    2.2831    3.6229    0.8507 H   0  0  0  0  0  0  0  0  0  0  0  0
    1.3498    2.8324    2.1464 H   0  0  0  0  0  0  0  0  0  0  0  0
    0.6469    4.0926    1.1432 H   0  0  0  0  0  0  0  0  0  0  0  0
    4.3827   -0.8427   -0.6767 H   0  0  0  0  0  0  0  0  0  0  0  0
   -1.1347    2.2213    0.8748 H   0  0  0  0  0  0  0  0  0  0  0  0
   -1.0652    1.7128   -0.6792 H   0  0  0  0  0  0  0  0  0  0  0  0
    6.0699    0.2298    0.8258 H   0  0  0  0  0  0  0  0  0  0  0  0
    6.5542    0.2348   -0.8777 H   0  0  0  0  0  0  0  0  0  0  0  0
    5.9539    1.7181   -0.1202 H   0  0  0  0  0  0  0  0  0  0  0  0
    4.8128    0.6422   -2.5220 H   0  0  0  0  0  0  0  0  0  0  0  0
    3.2351    0.4121   -2.2266 H   0  0  0  0  0  0  0  0  0  0  0  0
   -4.0182   -2.4039   -0.2650 H   0  0  0  0  0  0  0  0  0  0  0  0
   -4.3603   -1.9737    1.3961 H   0  0  0  0  0  0  0  0  0  0  0  0
   -4.6193    0.3482    2.1152 H   0  0  0  0  0  0  0  0  0  0  0  0
   -3.5701   -0.5817   -1.9661 H   0  0  0  0  0  0  0  0  0  0  0  0
   -5.1087    2.6746    1.4459 H   0  0  0  0  0  0  0  0  0  0  0  0
   -4.0469    1.7437   -2.6123 H   0  0  0  0  0  0  0  0  0  0  0  0
   -4.8226    3.3786   -0.9155 H   0  0  0  0  0  0  0  0  0  0  0  0
  1 11  2  0  0  0  0
  2 21  1  0  0  0  0
  2 23  1  0  0  0  0
  3 15  2  0  0  0  0
  4 16  2  0  0  0  0
  5 21  2  0  0  0  0
  6 10  1  0  0  0  0
  6 17  1  0  0  0  0
  6 21  1  0  0  0  0
  7 11  1  0  0  0  0
  7 15  1  0  0  0  0
  7 16  1  0  0  0  0
  8 12  1  0  0  0  0
  8 46  1  0  0  0  0
  8 47  1  0  0  0  0
  9 20  1  0  0  0  0
  9 51  1  0  0  0  0
  9 52  1  0  0  0  0
 10 11  1  0  0  0  0
 10 13  1  0  0  0  0
 10 14  1  0  0  0  0
 12 15  1  0  0  0  0
 12 18  1  0  0  0  0
 12 19  1  0  0  0  0
 13 30  1  0  0  0  0
 13 31  1  0  0  0  0
 13 32  1  0  0  0  0
 14 33  1  0  0  0  0
 14 34  1  0  0  0  0
 14 35  1  0  0  0  0
 16 20  1  0  0  0  0
 17 36  1  0  0  0  0
 17 37  1  0  0  0  0
 17 38  1  0  0  0  0
 18 39  1  0  0  0  0
 18 40  1  0  0  0  0
 18 41  1  0  0  0  0
 19 42  1  0  0  0  0
 19 43  1  0  0  0  0
 19 44  1  0  0  0  0
 20 22  1  0  0  0  0
 20 45  1  0  0  0  0
 22 48  1  0  0  0  0
 22 49  1  0  0  0  0
 22 50  1  0  0  0  0
 23 24  1  0  0  0  0
 23 53  1  0  0  0  0
 23 54  1  0  0  0  0
 24 25  2  0  0  0  0
 24 26  1  0  0  0  0
 25 27  1  0  0  0  0
 25 55  1  0  0  0  0
 26 28  2  0  0  0  0
 26 56  1  0  0  0  0
 27 29  2  0  0  0  0
 27 57  1  0  0  0  0
 28 29  1  0  0  0  0
 28 58  1  0  0  0  0
 29 59  1  0  0  0  0
M  END
> <PUBCHEM_COMPOUND_CID>
129856

> <PUBCHEM_CONFORMER_RMSD>
1

> <PUBCHEM_CONFORMER_DIVERSEORDER>
15
9
11
21
20
1
28
13
5
22
26
27
12
25
3
7
14
16
19
6
4
24
23
2
10
18
17
8

> <PUBCHEM_MMFF94_PARTIAL_CHARGES>
33
1 -0.57
10 0.36
11 0.57
12 0.33
15 0.57
16 0.57
17 0.3
2 -0.43
20 0.33
21 0.78
23 0.42
24 -0.14
25 -0.15
26 -0.15
27 -0.15
28 -0.15
29 -0.15
3 -0.57
4 -0.57
46 0.36
47 0.36
5 -0.57
51 0.36
52 0.36
55 0.15
56 0.15
57 0.15
58 0.15
59 0.15
6 -0.66
7 -0.18
8 -0.99
9 -0.99

> <PUBCHEM_EFFECTIVE_ROTOR_COUNT>
11

> <PUBCHEM_PHARMACOPHORE_FEATURES>
11
1 1 acceptor
1 3 acceptor
1 4 acceptor
1 5 acceptor
1 8 cation
1 8 donor
1 9 cation
1 9 donor
3 10 13 14 hydrophobe
3 12 18 19 hydrophobe
6 24 25 26 27 28 29 rings

> <PUBCHEM_HEAVY_ATOM_COUNT>
29

> <PUBCHEM_ATOM_DEF_STEREO_COUNT>
1

> <PUBCHEM_ATOM_UDEF_STEREO_COUNT>
0

> <PUBCHEM_BOND_DEF_STEREO_COUNT>
0

> <PUBCHEM_BOND_UDEF_STEREO_COUNT>
0

> <PUBCHEM_ISOTOPIC_ATOM_COUNT>
0

> <PUBCHEM_COMPONENT_COUNT>
1

> <PUBCHEM_CACTVS_TAUTO_COUNT>
1

> <PUBCHEM_CONFORMER_ID>
0001FB400000000F

> <PUBCHEM_MMFF94_ENERGY>
125.4211

> <PUBCHEM_FEATURE_SELFOVERLAP>
55.821

> <PUBCHEM_SHAPE_FINGERPRINT>
10675989 125 17109299508880213021
10759866 29 18041278777390085466
11513181 2 17773877493749012095
12422481 6 18192404451841973192
12788726 201 17844249523656467153
13140716 1 18267020737875680881
13402501 40 18335417946526066581
13464514 151 18411419496888046923
14251751 93 18268987760146210911
14251757 17 18059307525153117087
144659 39 16009580258131543733
14466204 15 18410569617517890488
14713325 29 17031364427984898792
14790565 3 18264774440342609892
15081414 286 18341906138238577977
1601671 61 18409166619306407232
17093844 170 18265606581228224033
18608769 82 18335988649317223075
18769570 83 18334294288554923808
20567600 299 18201992210221136169
21033648 29 17988352792949416328
21279426 13 18339930324987417070
22393880 68 17917704738405947039
23559900 14 18198060270625467986
238 59 18123719098848005949
350125 39 18337396041132849067
5081480 168 17414184350833975863
508706 21 18260827112094047341
7226269 152 18412265051795517296

> <PUBCHEM_SHAPE_MULTIPOLES>
547.54
9.85
3.73
1.51
2.36
0.32
-0.24
-4.81
-0.99
0.16
0.19
0.11
0.06
0.48

> <PUBCHEM_SHAPE_SELFOVERLAP>
1134.627

> <PUBCHEM_SHAPE_VOLUME>
309.5

> <PUBCHEM_COORDINATE_TYPE>
2
5
10

$$$$
