129847812
  -OEChem-03292013293D

 60 62  0     1  0  0  0  0  0999 V2000
    4.1437    1.1968   -1.4541 O   0  0  0  0  0  0  0  0  0  0  0  0
    6.8115    0.5802   -1.9431 O   0  0  0  0  0  0  0  0  0  0  0  0
   -0.8693   -2.5964    0.4149 O   0  0  0  0  0  0  0  0  0  0  0  0
    1.7100    1.5099    0.1541 O   0  0  0  0  0  0  0  0  0  0  0  0
    3.8155   -2.6659    1.0824 O   0  0  0  0  0  0  0  0  0  0  0  0
   -0.8539    1.4488   -0.1989 O   0  0  0  0  0  0  0  0  0  0  0  0
   -5.7001   -0.1221   -0.6405 O   0  0  0  0  0  0  0  0  0  0  0  0
   -5.5568   -2.8422   -0.2050 O   0  0  0  0  0  0  0  0  0  0  0  0
    4.8034    0.1960   -0.6680 C   0  0  1  0  0  0  0  0  0  0  0  0
    6.3153    0.5292   -0.5965 C   0  0  0  0  0  0  0  0  0  0  0  0
    4.0828    0.1316    0.6950 C   0  0  0  0  0  0  0  0  0  0  0  0
    2.7607   -0.5637    0.6151 C   0  0  0  0  0  0  0  0  0  0  0  0
    7.1164   -0.5520    0.1356 C   0  0  0  0  0  0  0  0  0  0  0  0
    6.5986    1.9006    0.0221 C   0  0  0  0  0  0  0  0  0  0  0  0
    0.3737   -0.4992    0.2707 C   0  0  0  0  0  0  0  0  0  0  0  0
    1.6018    0.1635    0.3424 C   0  0  0  0  0  0  0  0  0  0  0  0
    2.6918   -1.9427    0.8146 C   0  0  0  0  0  0  0  0  0  0  0  0
    0.2994   -1.8775    0.4694 C   0  0  0  0  0  0  0  0  0  0  0  0
   -2.1057   -0.5469   -0.0699 C   0  0  0  0  0  0  0  0  0  0  0  0
   -0.8648    0.2410   -0.0153 C   0  0  0  0  0  0  0  0  0  0  0  0
    1.4630   -2.5999    0.7422 C   0  0  0  0  0  0  0  0  0  0  0  0
   -3.3318    0.0683   -0.3356 C   0  0  0  0  0  0  0  0  0  0  0  0
   -2.0358   -1.9224    0.1489 C   0  0  0  0  0  0  0  0  0  0  0  0
   -3.4709    1.5388   -0.5790 C   0  0  0  0  0  0  0  0  0  0  0  0
   -4.4929   -0.7035   -0.3813 C   0  0  0  0  0  0  0  0  0  0  0  0
   -3.2016   -2.6897    0.1018 C   0  0  0  0  0  0  0  0  0  0  0  0
   -4.4283   -2.0798   -0.1631 C   0  0  0  0  0  0  0  0  0  0  0  0
   -3.3622    2.3519    0.6853 C   0  0  0  0  0  0  0  0  0  0  0  0
   -2.9235    3.6178    0.8225 C   0  0  0  0  0  0  0  0  0  0  0  0
   -6.0957   -0.0373   -2.0072 C   0  0  0  0  0  0  0  0  0  0  0  0
   -2.4531    4.3950   -0.3783 C   0  0  0  0  0  0  0  0  0  0  0  0
   -2.8410    4.3718    2.1192 C   0  0  0  0  0  0  0  0  0  0  0  0
    4.6801   -0.7468   -1.2153 H   0  0  0  0  0  0  0  0  0  0  0  0
    3.9464    1.1394    1.1077 H   0  0  0  0  0  0  0  0  0  0  0  0
    4.7030   -0.3855    1.4349 H   0  0  0  0  0  0  0  0  0  0  0  0
    7.6756    2.1072    0.0307 H   0  0  0  0  0  0  0  0  0  0  0  0
    6.9207   -1.5387   -0.2993 H   0  0  0  0  0  0  0  0  0  0  0  0
    6.2371    1.9669    1.0527 H   0  0  0  0  0  0  0  0  0  0  0  0
    6.1457    2.7081   -0.5629 H   0  0  0  0  0  0  0  0  0  0  0  0
    8.1942   -0.3793    0.0320 H   0  0  0  0  0  0  0  0  0  0  0  0
    6.8852   -0.5905    1.2038 H   0  0  0  0  0  0  0  0  0  0  0  0
    1.4054   -3.6747    0.8973 H   0  0  0  0  0  0  0  0  0  0  0  0
    4.0942    2.0156   -0.9332 H   0  0  0  0  0  0  0  0  0  0  0  0
    7.7605    0.7903   -1.9100 H   0  0  0  0  0  0  0  0  0  0  0  0
   -2.7708    1.8398   -1.3646 H   0  0  0  0  0  0  0  0  0  0  0  0
   -4.4460    1.7923   -1.0074 H   0  0  0  0  0  0  0  0  0  0  0  0
   -3.1476   -3.7623    0.2724 H   0  0  0  0  0  0  0  0  0  0  0  0
    0.8424    1.9045   -0.0206 H   0  0  0  0  0  0  0  0  0  0  0  0
   -3.7080    1.8548    1.5919 H   0  0  0  0  0  0  0  0  0  0  0  0
    3.5736   -3.6018    1.1894 H   0  0  0  0  0  0  0  0  0  0  0  0
   -5.3202   -3.7695   -0.0318 H   0  0  0  0  0  0  0  0  0  0  0  0
   -6.9160    0.6817   -2.0828 H   0  0  0  0  0  0  0  0  0  0  0  0
   -6.4543   -1.0128   -2.3499 H   0  0  0  0  0  0  0  0  0  0  0  0
   -5.2748    0.2983   -2.6495 H   0  0  0  0  0  0  0  0  0  0  0  0
   -2.8987    5.3963   -0.3713 H   0  0  0  0  0  0  0  0  0  0  0  0
   -1.3644    4.5081   -0.3484 H   0  0  0  0  0  0  0  0  0  0  0  0
   -1.8092    4.6806    2.3155 H   0  0  0  0  0  0  0  0  0  0  0  0
   -3.4742    5.2640    2.0843 H   0  0  0  0  0  0  0  0  0  0  0  0
   -3.1728    3.7586    2.9634 H   0  0  0  0  0  0  0  0  0  0  0  0
   -2.7244    3.9495   -1.3377 H   0  0  0  0  0  0  0  0  0  0  0  0
  1  9  1  0  0  0  0
  1 43  1  0  0  0  0
  2 10  1  0  0  0  0
  2 44  1  0  0  0  0
  3 18  1  0  0  0  0
  3 23  1  0  0  0  0
  4 16  1  0  0  0  0
  4 48  1  0  0  0  0
  5 17  1  0  0  0  0
  5 50  1  0  0  0  0
  6 20  2  0  0  0  0
  7 25  1  0  0  0  0
  7 30  1  0  0  0  0
  8 27  1  0  0  0  0
  8 51  1  0  0  0  0
  9 10  1  0  0  0  0
  9 11  1  0  0  0  0
  9 33  1  0  0  0  0
 10 13  1  0  0  0  0
 10 14  1  0  0  0  0
 11 12  1  0  0  0  0
 11 34  1  0  0  0  0
 11 35  1  0  0  0  0
 12 16  2  0  0  0  0
 12 17  1  0  0  0  0
 13 37  1  0  0  0  0
 13 40  1  0  0  0  0
 13 41  1  0  0  0  0
 14 36  1  0  0  0  0
 14 38  1  0  0  0  0
 14 39  1  0  0  0  0
 15 16  1  0  0  0  0
 15 18  2  0  0  0  0
 15 20  1  0  0  0  0
 17 21  2  0  0  0  0
 18 21  1  0  0  0  0
 19 20  1  0  0  0  0
 19 22  1  0  0  0  0
 19 23  2  0  0  0  0
 21 42  1  0  0  0  0
 22 24  1  0  0  0  0
 22 25  2  0  0  0  0
 23 26  1  0  0  0  0
 24 28  1  0  0  0  0
 24 45  1  0  0  0  0
 24 46  1  0  0  0  0
 25 27  1  0  0  0  0
 26 27  2  0  0  0  0
 26 47  1  0  0  0  0
 28 29  2  0  0  0  0
 28 49  1  0  0  0  0
 29 31  1  0  0  0  0
 29 32  1  0  0  0  0
 30 52  1  0  0  0  0
 30 53  1  0  0  0  0
 30 54  1  0  0  0  0
 31 55  1  0  0  0  0
 31 56  1  0  0  0  0
 31 60  1  0  0  0  0
 32 57  1  0  0  0  0
 32 58  1  0  0  0  0
 32 59  1  0  0  0  0
M  END
> <PUBCHEM_COMPOUND_CID>
129847812

> <PUBCHEM_CONFORMER_RMSD>
0.8

> <PUBCHEM_CONFORMER_DIVERSEORDER>
6
110
109
113
108
115
34
104
86
51
125
126
38
120
58
40
99
118
30
43
19
124
90
79
119
80
53
98
13
70
35
116
121
16
61
122
87
112
105
52
5
56
32
49
107
71
15
10
123
17
9
106
96
54
23
64
100
78
12
85
29
50
75
73
18
1
69
111
39
59
31
114
83
3
21
44
103
25
97
4
41
74
55
26
33
37
82
91
48
46
22
92
42
94
65
63
28
77
45
76
93
84
36
60
14
68
72
81
102
62
117
95
24
101
11
2
88
47
27
67
57
20
7
8
66
89

> <PUBCHEM_MMFF94_PARTIAL_CHARGES>
38
1 -0.68
10 0.28
11 0.14
12 -0.14
15 0.09
16 0.08
17 0.08
18 0.08
19 0.09
2 -0.68
20 0.4
21 -0.15
22 -0.14
23 0.08
24 0.28
25 0.08
26 -0.15
27 0.08
28 -0.29
29 -0.28
3 -0.17
30 0.28
31 0.14
32 0.14
4 -0.53
42 0.15
43 0.4
44 0.4
47 0.15
48 0.45
49 0.15
5 -0.53
50 0.45
51 0.45
6 -0.57
7 -0.36
8 -0.53
9 0.28

> <PUBCHEM_EFFECTIVE_ROTOR_COUNT>
6

> <PUBCHEM_PHARMACOPHORE_FEATURES>
15
1 1 acceptor
1 1 donor
1 2 acceptor
1 2 donor
1 3 acceptor
1 4 donor
1 5 donor
1 6 acceptor
1 7 acceptor
1 8 donor
3 10 13 14 hydrophobe
3 29 31 32 hydrophobe
6 12 15 16 17 18 21 rings
6 19 22 23 25 26 27 rings
6 3 15 18 19 20 23 rings

> <PUBCHEM_HEAVY_ATOM_COUNT>
32

> <PUBCHEM_ATOM_DEF_STEREO_COUNT>
0

> <PUBCHEM_ATOM_UDEF_STEREO_COUNT>
1

> <PUBCHEM_BOND_DEF_STEREO_COUNT>
0

> <PUBCHEM_BOND_UDEF_STEREO_COUNT>
0

> <PUBCHEM_ISOTOPIC_ATOM_COUNT>
0

> <PUBCHEM_COMPONENT_COUNT>
1

> <PUBCHEM_CACTVS_TAUTO_COUNT>
258

> <PUBCHEM_CONFORMER_ID>
07BD520400000006

> <PUBCHEM_MMFF94_ENERGY>
111.8088

> <PUBCHEM_FEATURE_SELFOVERLAP>
76.19

> <PUBCHEM_SHAPE_FINGERPRINT>
10050765 1 18338516310126933858
10190206 1 18336558183128786604
10411042 1 18122906692846954251
10595046 47 18408040715336790434
10670039 82 18411700963580758500
11513181 2 18128820733294322975
11578080 2 16199048106362104109
11607047 403 12041146105420425556
11607047 74 16337760573972791101
12107183 9 17759797053296740866
12236239 1 17676200308242866070
12390115 104 18270409278062034856
12788726 201 18342172250576141963
12954195 1 18342747303404537668
13540713 5 18194394485898980739
13631057 29 18412542132635270081
13782708 43 17275385434543496086
13911987 19 18336250289992880807
14068700 675 18263924500283852813
14394314 77 18412268299208103009
14790565 3 17978516329988879376
14856354 85 18339650043822093959
14931854 50 18339632374458019981
15183329 4 18114184134223058774
15289351 153 18341322359134155608
15348495 7 11314314983746333638
16087824 20 18410856543910802001
18608769 82 18188494708758701043
19611394 137 17753059577076491115
20775438 99 16830319801416616183
21033650 10 18194993831953634652
21049683 271 18335132151334359549
21236236 1 18411703175214421088
21267235 1 18264491861728200099
21796203 349 17903667368698318715
22122407 14 15719399446962175916
23516275 100 17912623985575387960
23559900 14 18267575987026619385
249057 25 18113621175616516132
25147074 1 18261387785641260786
283562 15 18410293618772461259
335352 9 18409721899318812927
350125 39 18408038532844291249
3633792 109 18040986294617865599
3918712 181 18263353845734699492
4058900 60 17894916196422476778
497634 4 18334574616279800165
5104073 3 18187926123580860282
550186 7 18130506344833414029
59755656 215 18409442613672889230
6058803 2 18192418676589729459
6371009 1 18260827137853977244
6608658 132 18342728620708146909
7808743 9 18339362946458704392
9980921 221 18267893656415595956

> <PUBCHEM_SHAPE_MULTIPOLES>
611.59
15.79
4.44
1.24
20.01
4.02
-0.18
1.41
-5.93
-5.99
1.87
-0.09
0.67
-2.23

> <PUBCHEM_SHAPE_SELFOVERLAP>
1323.775

> <PUBCHEM_SHAPE_VOLUME>
338.1

> <PUBCHEM_COORDINATE_TYPE>
2
5
10

$$$$
