129868
  -OEChem-03292013323D

 48 53  0     1  0  0  0  0  0999 V2000
    1.0898   -0.7217    1.4828 O   0  0  0  0  0  0  0  0  0  0  0  0
   -1.5152    2.7715    0.0503 O   0  0  0  0  0  0  0  0  0  0  0  0
    2.9725    2.6542    1.2389 O   0  0  0  0  0  0  0  0  0  0  0  0
    1.4799   -3.5935    1.1072 O   0  0  0  0  0  0  0  0  0  0  0  0
    4.3869   -0.9022   -1.2746 O   0  0  0  0  0  0  0  0  0  0  0  0
   -3.6275    1.0204    0.2213 N   0  0  2  0  0  0  0  0  0  0  0  0
    2.2681    0.0000   -0.8839 N   0  0  0  0  0  0  0  0  0  0  0  0
    4.0270    0.9405    0.0939 N   0  0  0  0  0  0  0  0  0  0  0  0
   -0.7883    0.5295    0.6111 C   0  0  1  0  0  0  0  0  0  0  0  0
   -1.3116    1.4549   -0.4950 C   0  0  1  0  0  0  0  0  0  0  0  0
    0.7016    0.6213    1.0084 C   0  0  2  0  0  0  0  0  0  0  0  0
   -2.7006    0.8799   -0.9327 C   0  0  1  0  0  0  0  0  0  0  0  0
    1.6685    1.0879   -0.1245 C   0  0  2  0  0  0  0  0  0  0  0  0
   -1.7440    0.6048    1.8297 C   0  0  0  0  0  0  0  0  0  0  0  0
   -0.3007    1.6304   -1.6375 C   0  0  0  0  0  0  0  0  0  0  0  0
   -0.7557   -0.8826    0.1417 C   0  0  0  0  0  0  0  0  0  0  0  0
    1.0501    2.1097   -1.0866 C   0  0  0  0  0  0  0  0  0  0  0  0
   -2.5895   -0.5767   -1.5052 C   0  0  0  0  0  0  0  0  0  0  0  0
   -3.2068    0.3168    1.4377 C   0  0  0  0  0  0  0  0  0  0  0  0
   -1.6054   -1.4579   -0.7825 C   0  0  0  0  0  0  0  0  0  0  0  0
    0.2836   -1.5620    0.7466 C   0  0  0  0  0  0  0  0  0  0  0  0
    2.9431    1.6783    0.5003 C   0  0  0  0  0  0  0  0  0  0  0  0
   -5.0199    0.7360   -0.1073 C   0  0  0  0  0  0  0  0  0  0  0  0
   -1.4233   -2.8166   -1.0392 C   0  0  0  0  0  0  0  0  0  0  0  0
    0.4696   -2.9063    0.5211 C   0  0  0  0  0  0  0  0  0  0  0  0
    3.6519   -0.0802   -0.7452 C   0  0  0  0  0  0  0  0  0  0  0  0
   -0.4043   -3.5365   -0.3769 C   0  0  0  0  0  0  0  0  0  0  0  0
    0.7991    1.2986    1.8665 H   0  0  0  0  0  0  0  0  0  0  0  0
   -3.0960    1.5263   -1.7282 H   0  0  0  0  0  0  0  0  0  0  0  0
   -1.6836    1.6039    2.2808 H   0  0  0  0  0  0  0  0  0  0  0  0
   -1.4491   -0.0996    2.6187 H   0  0  0  0  0  0  0  0  0  0  0  0
   -0.6679    2.3853   -2.3442 H   0  0  0  0  0  0  0  0  0  0  0  0
   -0.1600    0.7064   -2.2077 H   0  0  0  0  0  0  0  0  0  0  0  0
    1.7272    2.3016   -1.9297 H   0  0  0  0  0  0  0  0  0  0  0  0
    0.9237    3.0755   -0.5810 H   0  0  0  0  0  0  0  0  0  0  0  0
   -2.2512   -0.4992   -2.5469 H   0  0  0  0  0  0  0  0  0  0  0  0
   -3.5676   -1.0666   -1.5373 H   0  0  0  0  0  0  0  0  0  0  0  0
   -3.3520   -0.7652    1.3292 H   0  0  0  0  0  0  0  0  0  0  0  0
   -3.8427    0.6262    2.2768 H   0  0  0  0  0  0  0  0  0  0  0  0
   -1.9457    3.3125   -0.6335 H   0  0  0  0  0  0  0  0  0  0  0  0
    1.7370   -0.6366   -1.4699 H   0  0  0  0  0  0  0  0  0  0  0  0
   -5.6747    1.0642    0.7079 H   0  0  0  0  0  0  0  0  0  0  0  0
   -5.2076   -0.3289   -0.2769 H   0  0  0  0  0  0  0  0  0  0  0  0
   -5.3330    1.2908   -0.9984 H   0  0  0  0  0  0  0  0  0  0  0  0
   -2.0551   -3.3292   -1.7596 H   0  0  0  0  0  0  0  0  0  0  0  0
    4.9832    1.1291    0.3722 H   0  0  0  0  0  0  0  0  0  0  0  0
   -0.2824   -4.5953   -0.5951 H   0  0  0  0  0  0  0  0  0  0  0  0
    1.9762   -2.9808    1.6775 H   0  0  0  0  0  0  0  0  0  0  0  0
  1 11  1  0  0  0  0
  1 21  1  0  0  0  0
  2 10  1  0  0  0  0
  2 40  1  0  0  0  0
  3 22  2  0  0  0  0
  4 25  1  0  0  0  0
  4 48  1  0  0  0  0
  5 26  2  0  0  0  0
  6 12  1  0  0  0  0
  6 19  1  0  0  0  0
  6 23  1  0  0  0  0
  7 13  1  0  0  0  0
  7 26  1  0  0  0  0
  7 41  1  0  0  0  0
  8 22  1  0  0  0  0
  8 26  1  0  0  0  0
  8 46  1  0  0  0  0
  9 10  1  0  0  0  0
  9 11  1  0  0  0  0
  9 14  1  0  0  0  0
  9 16  1  0  0  0  0
 10 12  1  0  0  0  0
 10 15  1  0  0  0  0
 11 13  1  0  0  0  0
 11 28  1  0  0  0  0
 12 18  1  0  0  0  0
 12 29  1  0  0  0  0
 13 17  1  0  0  0  0
 13 22  1  0  0  0  0
 14 19  1  0  0  0  0
 14 30  1  0  0  0  0
 14 31  1  0  0  0  0
 15 17  1  0  0  0  0
 15 32  1  0  0  0  0
 15 33  1  0  0  0  0
 16 20  2  0  0  0  0
 16 21  1  0  0  0  0
 17 34  1  0  0  0  0
 17 35  1  0  0  0  0
 18 20  1  0  0  0  0
 18 36  1  0  0  0  0
 18 37  1  0  0  0  0
 19 38  1  0  0  0  0
 19 39  1  0  0  0  0
 20 24  1  0  0  0  0
 21 25  2  0  0  0  0
 23 42  1  0  0  0  0
 23 43  1  0  0  0  0
 23 44  1  0  0  0  0
 24 27  2  0  0  0  0
 24 45  1  0  0  0  0
 25 27  1  0  0  0  0
 27 47  1  0  0  0  0
M  END
> <PUBCHEM_COMPOUND_CID>
129868

> <PUBCHEM_CONFORMER_RMSD>
0.6

> <PUBCHEM_CONFORMER_DIVERSEORDER>
1
9
5
12
2
7
10
4
11
8
3
6

> <PUBCHEM_MMFF94_PARTIAL_CHARGES>
30
1 -0.36
10 0.28
11 0.28
12 0.27
13 0.36
16 -0.14
18 0.14
19 0.27
2 -0.68
20 -0.14
21 0.08
22 0.57
23 0.27
24 -0.15
25 0.08
26 0.69
27 -0.15
3 -0.57
4 -0.53
40 0.4
41 0.37
45 0.15
46 0.37
47 0.15
48 0.45
5 -0.57
6 -0.81
7 -0.73
8 -0.49
9 0.14

> <PUBCHEM_EFFECTIVE_ROTOR_COUNT>
1.8

> <PUBCHEM_PHARMACOPHORE_FEATURES>
15
1 1 acceptor
1 2 acceptor
1 2 donor
1 3 acceptor
1 4 donor
1 5 acceptor
1 6 cation
1 7 donor
1 8 donor
5 1 9 11 16 21 rings
5 7 8 13 22 26 rings
6 16 20 21 24 25 27 rings
6 6 9 10 12 14 19 rings
6 9 10 11 13 15 17 rings
6 9 10 12 16 18 20 rings

> <PUBCHEM_HEAVY_ATOM_COUNT>
27

> <PUBCHEM_ATOM_DEF_STEREO_COUNT>
1

> <PUBCHEM_ATOM_UDEF_STEREO_COUNT>
4

> <PUBCHEM_BOND_DEF_STEREO_COUNT>
0

> <PUBCHEM_BOND_UDEF_STEREO_COUNT>
0

> <PUBCHEM_ISOTOPIC_ATOM_COUNT>
0

> <PUBCHEM_COMPONENT_COUNT>
1

> <PUBCHEM_CACTVS_TAUTO_COUNT>
15

> <PUBCHEM_CONFORMER_ID>
0001FB4C00000001

> <PUBCHEM_MMFF94_ENERGY>
100.8108

> <PUBCHEM_FEATURE_SELFOVERLAP>
78.242

> <PUBCHEM_SHAPE_FINGERPRINT>
10863032 1 17774723185325392756
10948715 1 18202004326376560421
11578080 2 17198838680178237576
12035759 4 18339342141927195055
12422481 6 17899678086307284248
12592029 89 18335141947215797131
12633257 1 18340190999648737536
12788726 201 17688311604531304063
12969540 114 18335967732325669813
13140716 1 18336819892080237170
14790565 3 18410298021077652749
14955137 171 18335999648317323241
15209289 33 18271815579356426372
15309172 13 18409452487876458289
16945 1 18267848532818659777
17980427 23 17609201700612670588
19591789 44 18410295856297662203
19930381 70 17340433435669561982
20197701 30 18341613746040504679
20600515 1 16607110182689775843
20642791 13 17909819178292222455
20775438 99 14957961630269691966
20905425 154 17828207592902789614
21033648 29 18412818092737777889
2334 1 18120652689086649046
23419403 2 17264752006030853103
23557571 272 17909545400297599016
23559900 14 18130784625082696784
238 59 17975950121257077693
2748010 2 18262242247366358304
3060560 45 18408040688896813861
3380486 77 17107295541168107306
404807 14 14469695398420513334
4340502 62 18270977799452669635
5265222 85 18261122868348778854
57527306 92 16588315990107923668
70251023 43 17829588588709672951
7364860 26 18193552264149706939
81228 2 17904766935347772658
9709674 26 18129100211643574558

> <PUBCHEM_SHAPE_MULTIPOLES>
511.36
6.1
3.5
1.51
0.92
3.04
-0.11
-2.61
0.57
0.59
-0.06
-0.21
-0.1
-0.13

> <PUBCHEM_SHAPE_SELFOVERLAP>
1171.63

> <PUBCHEM_SHAPE_VOLUME>
261

> <PUBCHEM_COORDINATE_TYPE>
2
5
10

$$$$
