129838
  -OEChem-03292013323D

 52 54  0     1  0  0  0  0  0999 V2000
    2.1649   -0.8921   -1.8151 O   0  0  0  0  0  0  0  0  0  0  0  0
    3.9455   -1.8918    0.6253 O   0  0  0  0  0  0  0  0  0  0  0  0
   -0.9367   -1.4397    1.3322 O   0  0  0  0  0  0  0  0  0  0  0  0
   -4.4213   -3.6404    1.5700 O   0  0  0  0  0  0  0  0  0  0  0  0
   -4.3867    4.0931    0.8921 O   0  0  0  0  0  0  0  0  0  0  0  0
    2.9112    0.4027   -0.0479 N   0  0  0  0  0  0  0  0  0  0  0  0
   -0.2382   -0.9348   -0.8319 N   0  0  0  0  0  0  0  0  0  0  0  0
   -2.2778   -3.5278    0.6346 N   0  0  0  0  0  0  0  0  0  0  0  0
    6.0727   -1.3841   -0.0895 N   0  0  0  0  0  0  0  0  0  0  0  0
    4.3340    0.2649   -0.3296 C   0  0  1  0  0  0  0  0  0  0  0  0
    5.0013    1.3509    0.5062 C   0  0  0  0  0  0  0  0  0  0  0  0
    2.6823    1.2996    1.0821 C   0  0  0  0  0  0  0  0  0  0  0  0
    4.0578    1.5135    1.6955 C   0  0  0  0  0  0  0  0  0  0  0  0
    0.5156    0.2478   -0.5309 C   0  0  1  0  0  0  0  0  0  0  0  0
    1.9337   -0.1372   -0.8690 C   0  0  0  0  0  0  0  0  0  0  0  0
   -1.6338   -2.8528   -0.4565 C   0  0  1  0  0  0  0  0  0  0  0  0
    4.7414   -1.1080    0.1138 C   0  0  0  0  0  0  0  0  0  0  0  0
    0.0862    1.4532   -1.3566 C   0  0  0  0  0  0  0  0  0  0  0  0
   -2.7840   -2.4379   -1.3542 C   0  0  0  0  0  0  0  0  0  0  0  0
   -0.9059   -1.6853    0.1291 C   0  0  0  0  0  0  0  0  0  0  0  0
   -3.9729   -2.2977   -0.4041 C   0  0  0  0  0  0  0  0  0  0  0  0
   -1.1067    2.1570   -0.7575 C   0  0  0  0  0  0  0  0  0  0  0  0
   -3.6360   -3.2424    0.7235 C   0  0  0  0  0  0  0  0  0  0  0  0
   -2.3978    1.7776   -1.1245 C   0  0  0  0  0  0  0  0  0  0  0  0
   -0.9178    3.1871    0.1638 C   0  0  0  0  0  0  0  0  0  0  0  0
   -3.5001    2.4283   -0.5703 C   0  0  0  0  0  0  0  0  0  0  0  0
   -2.0200    3.8379    0.7181 C   0  0  0  0  0  0  0  0  0  0  0  0
   -3.3111    3.4585    0.3510 C   0  0  0  0  0  0  0  0  0  0  0  0
    4.5273    0.3715   -1.4024 H   0  0  0  0  0  0  0  0  0  0  0  0
    6.0232    1.1264    0.8242 H   0  0  0  0  0  0  0  0  0  0  0  0
    5.0235    2.2888   -0.0626 H   0  0  0  0  0  0  0  0  0  0  0  0
    2.2685    2.2372    0.6985 H   0  0  0  0  0  0  0  0  0  0  0  0
    1.9899    0.8601    1.8046 H   0  0  0  0  0  0  0  0  0  0  0  0
    4.1529    2.4863    2.1859 H   0  0  0  0  0  0  0  0  0  0  0  0
    4.2626    0.7349    2.4401 H   0  0  0  0  0  0  0  0  0  0  0  0
    0.4043    0.4510    0.5352 H   0  0  0  0  0  0  0  0  0  0  0  0
   -0.9287   -3.5299   -0.9475 H   0  0  0  0  0  0  0  0  0  0  0  0
   -0.1409    1.1615   -2.3911 H   0  0  0  0  0  0  0  0  0  0  0  0
    0.9074    2.1779   -1.4391 H   0  0  0  0  0  0  0  0  0  0  0  0
   -0.2472   -1.2587   -1.7955 H   0  0  0  0  0  0  0  0  0  0  0  0
   -2.9967   -3.2457   -2.0664 H   0  0  0  0  0  0  0  0  0  0  0  0
   -2.6151   -1.5268   -1.9342 H   0  0  0  0  0  0  0  0  0  0  0  0
   -4.9127   -2.5799   -0.8848 H   0  0  0  0  0  0  0  0  0  0  0  0
   -4.0457   -1.2820   -0.0026 H   0  0  0  0  0  0  0  0  0  0  0  0
   -1.7900   -4.1204    1.2993 H   0  0  0  0  0  0  0  0  0  0  0  0
    6.4663   -2.2800    0.1786 H   0  0  0  0  0  0  0  0  0  0  0  0
    6.7060   -0.7212   -0.5251 H   0  0  0  0  0  0  0  0  0  0  0  0
   -2.5584    0.9791   -1.8433 H   0  0  0  0  0  0  0  0  0  0  0  0
    0.0823    3.4923    0.4588 H   0  0  0  0  0  0  0  0  0  0  0  0
   -4.5033    2.1281   -0.8602 H   0  0  0  0  0  0  0  0  0  0  0  0
   -1.8594    4.6387    1.4349 H   0  0  0  0  0  0  0  0  0  0  0  0
   -4.0721    4.7769    1.5081 H   0  0  0  0  0  0  0  0  0  0  0  0
  1 15  2  0  0  0  0
  2 17  2  0  0  0  0
  3 20  2  0  0  0  0
  4 23  2  0  0  0  0
  5 28  1  0  0  0  0
  5 52  1  0  0  0  0
  6 10  1  0  0  0  0
  6 12  1  0  0  0  0
  6 15  1  0  0  0  0
  7 14  1  0  0  0  0
  7 20  1  0  0  0  0
  7 40  1  0  0  0  0
  8 16  1  0  0  0  0
  8 23  1  0  0  0  0
  8 45  1  0  0  0  0
  9 17  1  0  0  0  0
  9 46  1  0  0  0  0
  9 47  1  0  0  0  0
 10 11  1  0  0  0  0
 10 17  1  0  0  0  0
 10 29  1  0  0  0  0
 11 13  1  0  0  0  0
 11 30  1  0  0  0  0
 11 31  1  0  0  0  0
 12 13  1  0  0  0  0
 12 32  1  0  0  0  0
 12 33  1  0  0  0  0
 13 34  1  0  0  0  0
 13 35  1  0  0  0  0
 14 15  1  0  0  0  0
 14 18  1  0  0  0  0
 14 36  1  0  0  0  0
 16 19  1  0  0  0  0
 16 20  1  0  0  0  0
 16 37  1  0  0  0  0
 18 22  1  0  0  0  0
 18 38  1  0  0  0  0
 18 39  1  0  0  0  0
 19 21  1  0  0  0  0
 19 41  1  0  0  0  0
 19 42  1  0  0  0  0
 21 23  1  0  0  0  0
 21 43  1  0  0  0  0
 21 44  1  0  0  0  0
 22 24  2  0  0  0  0
 22 25  1  0  0  0  0
 24 26  1  0  0  0  0
 24 48  1  0  0  0  0
 25 27  2  0  0  0  0
 25 49  1  0  0  0  0
 26 28  2  0  0  0  0
 26 50  1  0  0  0  0
 27 28  1  0  0  0  0
 27 51  1  0  0  0  0
M  END
> <PUBCHEM_COMPOUND_CID>
129838

> <PUBCHEM_CONFORMER_RMSD>
1

> <PUBCHEM_CONFORMER_DIVERSEORDER>
1
66
103
97
60
104
13
38
98
116
69
113
75
46
111
37
84
17
114
112
95
90
105
7
20
79
87
50
28
93
23
31
91
62
29
85
89
117
68
18
54
86
96
110
76
21
100
33
102
51
59
72
4
92
56
16
109
106
35
61
71
44
82
67
88
65
42
25
45
57
15
10
81
48
32
107
64
12
11
83
40
52
55
3
2
39
63
5
101
115
53
27
94
78
6
9
43
77
58
19
24
47
73
99
41
49
34
70
108
36
26
80
14
30
74
22
8

> <PUBCHEM_MMFF94_PARTIAL_CHARGES>
34
1 -0.57
10 0.36
12 0.3
14 0.36
15 0.57
16 0.36
17 0.57
18 0.14
2 -0.57
20 0.57
21 0.06
22 -0.14
23 0.57
24 -0.15
25 -0.15
26 -0.15
27 -0.15
28 0.08
3 -0.57
4 -0.57
40 0.37
45 0.37
46 0.37
47 0.37
48 0.15
49 0.15
5 -0.53
50 0.15
51 0.15
52 0.45
6 -0.66
7 -0.73
8 -0.73
9 -0.8

> <PUBCHEM_EFFECTIVE_ROTOR_COUNT>
9.8

> <PUBCHEM_PHARMACOPHORE_FEATURES>
11
1 1 acceptor
1 2 acceptor
1 3 acceptor
1 4 acceptor
1 5 donor
1 7 donor
1 8 donor
1 9 donor
5 6 10 11 12 13 rings
5 8 16 19 21 23 rings
6 22 24 25 26 27 28 rings

> <PUBCHEM_HEAVY_ATOM_COUNT>
28

> <PUBCHEM_ATOM_DEF_STEREO_COUNT>
3

> <PUBCHEM_ATOM_UDEF_STEREO_COUNT>
0

> <PUBCHEM_BOND_DEF_STEREO_COUNT>
0

> <PUBCHEM_BOND_UDEF_STEREO_COUNT>
0

> <PUBCHEM_ISOTOPIC_ATOM_COUNT>
0

> <PUBCHEM_COMPONENT_COUNT>
1

> <PUBCHEM_CACTVS_TAUTO_COUNT>
24

> <PUBCHEM_CONFORMER_ID>
0001FB2E00000001

> <PUBCHEM_MMFF94_ENERGY>
72.5222

> <PUBCHEM_FEATURE_SELFOVERLAP>
55.824

> <PUBCHEM_SHAPE_FINGERPRINT>
10006869 2 18338507531582883423
10074138 170 18337375063747567921
1100329 8 17905602199239769146
11646440 116 18044658834926898715
12293681 25 17630343947472059606
12293681 4 18059011658179380168
12422481 6 18269295572126378691
12549972 3 17916564502441362720
12788726 201 18191037891557873172
13004483 165 18339918345885960214
13052359 8 18335139739813460813
13134695 92 17907572885032650167
13140716 1 18265621077375447989
13690498 29 18341346547888826406
13692114 37 18199167517831358791
14866123 147 18191581956635741010
15042514 8 18408325484199762021
15295992 7 17845920867324620344
15775530 1 17986415311622268550
15927050 60 18123750846461021358
17980427 23 17055844998748472359
21041028 32 18193279826295799199
21049683 118 18051946191984983241
21344244 78 17907582780711309131
23557571 272 18412545444186878948
23558518 356 18412818088463409316
23559900 14 18336814365063806748
23845131 108 18121502350241713753
244849 19 17702681938365419966
3380486 145 17984124135722220247
392239 28 18128542570238810353
4058900 60 17836934395165818609
4073 2 18340760469652085794
469060 322 16805314496621314175
5104073 3 18337654366525751344
59755656 520 18193555571353964692
6004065 56 17762324113232990407
79837 15 18267586806107214841
81228 2 18260548952183379052
9658208 31 18196951979930973957
9777508 108 18340205193871812177

> <PUBCHEM_SHAPE_MULTIPOLES>
526.96
10.37
5.66
1.36
11.26
1.48
0.03
-2.69
2.49
-10.33
1.71
-0.18
-0.17
1.03

> <PUBCHEM_SHAPE_SELFOVERLAP>
1122.137

> <PUBCHEM_SHAPE_VOLUME>
293.7

> <PUBCHEM_COORDINATE_TYPE>
2
5
10

$$$$
