129892407
  -OEChem-03292013293D

 52 54  0     1  0  0  0  0  0999 V2000
    1.5745    2.2869    0.1533 O   0  0  0  0  0  0  0  0  0  0  0  0
    0.7249   -1.9382   -0.1397 O   0  0  0  0  0  0  0  0  0  0  0  0
    0.4140    4.8141   -0.5550 O   0  0  0  0  0  0  0  0  0  0  0  0
    0.1330   -0.3405   -1.6997 O   0  0  0  0  0  0  0  0  0  0  0  0
    5.4720   -1.8844    1.8265 O   0  0  0  0  0  0  0  0  0  0  0  0
    6.3605   -1.6493   -0.7966 O   0  0  0  0  0  0  0  0  0  0  0  0
   -5.9275   -1.1156   -0.1648 O   0  0  0  0  0  0  0  0  0  0  0  0
   -4.3438   -2.0075    1.2612 O   0  0  0  0  0  0  0  0  0  0  0  0
    0.3477    0.2398    0.6280 C   0  0  1  0  0  0  0  0  0  0  0  0
    1.6683    1.0134    0.8537 C   0  0  1  0  0  0  0  0  0  0  0  0
   -0.5445    1.3990    0.3687 C   0  0  0  0  0  0  0  0  0  0  0  0
    0.2234    2.5192    0.0808 C   0  0  0  0  0  0  0  0  0  0  0  0
    2.9083    0.3098    0.4211 C   0  0  0  0  0  0  0  0  0  0  0  0
   -1.9263    1.4600    0.3324 C   0  0  0  0  0  0  0  0  0  0  0  0
    0.3810   -0.6850   -0.5522 C   0  0  0  0  0  0  0  0  0  0  0  0
   -0.3459    3.7291   -0.2644 C   0  0  0  0  0  0  0  0  0  0  0  0
   -2.5247    2.6783   -0.0003 C   0  0  0  0  0  0  0  0  0  0  0  0
    3.6234   -0.4671    1.3326 C   0  0  0  0  0  0  0  0  0  0  0  0
    3.3536    0.4271   -0.8955 C   0  0  0  0  0  0  0  0  0  0  0  0
   -1.7394    3.8045   -0.2991 C   0  0  0  0  0  0  0  0  0  0  0  0
   -2.7548    0.3018    0.6230 C   0  0  0  0  0  0  0  0  0  0  0  0
    4.7838   -1.1268    0.9275 C   0  0  0  0  0  0  0  0  0  0  0  0
    4.5141   -0.2325   -1.3006 C   0  0  0  0  0  0  0  0  0  0  0  0
    5.2292   -1.0095   -0.3891 C   0  0  0  0  0  0  0  0  0  0  0  0
    0.7951   -2.9274   -1.1715 C   0  0  0  0  0  0  0  0  0  0  0  0
   -3.9851    0.0726    0.1108 C   0  0  0  0  0  0  0  0  0  0  0  0
    1.1858   -4.2544   -0.5566 C   0  0  0  0  0  0  0  0  0  0  0  0
   -4.7370   -1.1441    0.4928 C   0  0  0  0  0  0  0  0  0  0  0  0
   -6.7953   -2.2261    0.0860 C   0  0  0  0  0  0  0  0  0  0  0  0
   -8.0686   -2.0472   -0.7131 C   0  0  0  0  0  0  0  0  0  0  0  0
    0.0578   -0.3063    1.5323 H   0  0  0  0  0  0  0  0  0  0  0  0
    1.7580    1.2785    1.9185 H   0  0  0  0  0  0  0  0  0  0  0  0
   -3.6050    2.7984   -0.0277 H   0  0  0  0  0  0  0  0  0  0  0  0
    3.2733   -0.5608    2.3579 H   0  0  0  0  0  0  0  0  0  0  0  0
    2.8114    1.0189   -1.6280 H   0  0  0  0  0  0  0  0  0  0  0  0
   -2.2344    4.7378   -0.5562 H   0  0  0  0  0  0  0  0  0  0  0  0
   -2.3244   -0.4238    1.3089 H   0  0  0  0  0  0  0  0  0  0  0  0
    4.8486   -0.1344   -2.3299 H   0  0  0  0  0  0  0  0  0  0  0  0
   -0.1826   -3.0177   -1.6578 H   0  0  0  0  0  0  0  0  0  0  0  0
    1.5444   -2.6282   -1.9129 H   0  0  0  0  0  0  0  0  0  0  0  0
   -0.1720    5.5600   -0.7699 H   0  0  0  0  0  0  0  0  0  0  0  0
   -4.4553    0.7509   -0.5934 H   0  0  0  0  0  0  0  0  0  0  0  0
    1.2498   -5.0354   -1.3194 H   0  0  0  0  0  0  0  0  0  0  0  0
    0.4557   -4.5581    0.2008 H   0  0  0  0  0  0  0  0  0  0  0  0
    2.1537   -4.1736   -0.0507 H   0  0  0  0  0  0  0  0  0  0  0  0
    5.0165   -1.8498    2.6852 H   0  0  0  0  0  0  0  0  0  0  0  0
    6.5136   -1.4538   -1.7370 H   0  0  0  0  0  0  0  0  0  0  0  0
   -6.2966   -3.1543   -0.2147 H   0  0  0  0  0  0  0  0  0  0  0  0
   -7.0320   -2.2703    1.1550 H   0  0  0  0  0  0  0  0  0  0  0  0
   -8.5694   -1.1137   -0.4360 H   0  0  0  0  0  0  0  0  0  0  0  0
   -7.8460   -1.9828   -1.7834 H   0  0  0  0  0  0  0  0  0  0  0  0
   -8.7564   -2.8805   -0.5448 H   0  0  0  0  0  0  0  0  0  0  0  0
  1 10  1  0  0  0  0
  1 12  1  0  0  0  0
  2 15  1  0  0  0  0
  2 25  1  0  0  0  0
  3 16  1  0  0  0  0
  3 41  1  0  0  0  0
  4 15  2  0  0  0  0
  5 22  1  0  0  0  0
  5 46  1  0  0  0  0
  6 24  1  0  0  0  0
  6 47  1  0  0  0  0
  7 28  1  0  0  0  0
  7 29  1  0  0  0  0
  8 28  2  0  0  0  0
  9 10  1  0  0  0  0
  9 11  1  0  0  0  0
  9 15  1  0  0  0  0
  9 31  1  0  0  0  0
 10 13  1  0  0  0  0
 10 32  1  0  0  0  0
 11 12  1  0  0  0  0
 11 14  2  0  0  0  0
 12 16  2  0  0  0  0
 13 18  2  0  0  0  0
 13 19  1  0  0  0  0
 14 17  1  0  0  0  0
 14 21  1  0  0  0  0
 16 20  1  0  0  0  0
 17 20  2  0  0  0  0
 17 33  1  0  0  0  0
 18 22  1  0  0  0  0
 18 34  1  0  0  0  0
 19 23  2  0  0  0  0
 19 35  1  0  0  0  0
 20 36  1  0  0  0  0
 21 26  2  0  0  0  0
 21 37  1  0  0  0  0
 22 24  2  0  0  0  0
 23 24  1  0  0  0  0
 23 38  1  0  0  0  0
 25 27  1  0  0  0  0
 25 39  1  0  0  0  0
 25 40  1  0  0  0  0
 26 28  1  0  0  0  0
 26 42  1  0  0  0  0
 27 43  1  0  0  0  0
 27 44  1  0  0  0  0
 27 45  1  0  0  0  0
 29 30  1  0  0  0  0
 29 48  1  0  0  0  0
 29 49  1  0  0  0  0
 30 50  1  0  0  0  0
 30 51  1  0  0  0  0
 30 52  1  0  0  0  0
M  END
> <PUBCHEM_COMPOUND_CID>
129892407

> <PUBCHEM_CONFORMER_RMSD>
1

> <PUBCHEM_CONFORMER_DIVERSEORDER>
2
7
13
12
10
8
5
14
3
4
9
11
15
1
6

> <PUBCHEM_MMFF94_PARTIAL_CHARGES>
38
1 -0.36
10 0.42
11 -0.14
12 0.08
13 -0.14
14 0.03
15 0.66
16 0.08
17 -0.15
18 -0.15
19 -0.15
2 -0.43
20 -0.15
21 -0.18
22 0.08
23 -0.15
24 0.08
25 0.28
26 -0.14
28 0.71
29 0.28
3 -0.53
33 0.15
34 0.15
35 0.15
36 0.15
37 0.15
38 0.15
4 -0.57
41 0.45
42 0.15
46 0.45
47 0.45
5 -0.53
6 -0.53
7 -0.43
8 -0.57
9 0.2

> <PUBCHEM_EFFECTIVE_ROTOR_COUNT>
8.6

> <PUBCHEM_PHARMACOPHORE_FEATURES>
9
1 1 acceptor
1 3 donor
1 4 acceptor
1 5 donor
1 6 donor
1 8 acceptor
5 1 9 10 11 12 rings
6 11 12 14 16 17 20 rings
6 13 18 19 22 23 24 rings

> <PUBCHEM_HEAVY_ATOM_COUNT>
30

> <PUBCHEM_ATOM_DEF_STEREO_COUNT>
2

> <PUBCHEM_ATOM_UDEF_STEREO_COUNT>
0

> <PUBCHEM_BOND_DEF_STEREO_COUNT>
1

> <PUBCHEM_BOND_UDEF_STEREO_COUNT>
0

> <PUBCHEM_ISOTOPIC_ATOM_COUNT>
0

> <PUBCHEM_COMPONENT_COUNT>
1

> <PUBCHEM_CACTVS_TAUTO_COUNT>
210

> <PUBCHEM_CONFORMER_ID>
07BE003700000002

> <PUBCHEM_MMFF94_ENERGY>
75.329

> <PUBCHEM_FEATURE_SELFOVERLAP>
45.778

> <PUBCHEM_SHAPE_FINGERPRINT>
10076449 9 17417546756761382022
10190108 129 18271815601063904191
10411042 1 18410011044041678833
10622 236 17533481362284401762
11227688 84 18198897024759275727
11578080 2 16738051671049980556
11963148 33 18337667508551579411
12166972 35 17894914061791322101
12236239 1 17969228833506361786
12422481 6 17561368387284073847
12788726 201 18260274023275086426
12839892 36 18268140972968631882
13140716 1 18128248081220561379
13782708 43 17917711241366403934
13862211 1 18412547612966339755
14068700 675 18272653472126747577
14117953 113 18343018905116962487
15324884 4 18125687219750540489
15475509 35 15122417401059088749
17492 89 18192993725650522698
18222031 100 18340490057809756617
19591789 44 18413110563109411796
20028762 73 18060139885758316751
22956985 138 18049440344904029970
23559900 14 17331958327270715226
3380486 145 18122367704241706409
4340502 62 13973976419335634253
465052 167 18339929306673992259
469060 322 18340783541204011817
5265222 85 18270680858747879030
5309563 4 18411136935621889105
563151 248 16271926043174463607
59755656 215 18266740173394730381
6669772 16 17832719236994337212
7970288 3 18409445908081967763

> <PUBCHEM_SHAPE_MULTIPOLES>
570.43
13.96
4.88
1.18
16.35
3.03
-0.06
-15.54
-0.26
1.91
1.12
-1.08
-0.48
-0.14

> <PUBCHEM_SHAPE_SELFOVERLAP>
1232.342

> <PUBCHEM_SHAPE_VOLUME>
312.1

> <PUBCHEM_COORDINATE_TYPE>
2
5
10

$$$$
