129829
  -OEChem-03292013323D

 39 39  0     1  0  0  0  0  0999 V2000
    0.6730    3.5896   -0.6289 Cl  0  0  0  0  0  0  0  0  0  0  0  0
   -5.8365    1.1511    1.1225 Cl  0  0  0  0  0  0  0  0  0  0  0  0
    2.0325   -2.2069   -0.2436 S   0  0  0  0  0  0  0  0  0  0  0  0
   -1.8013   -0.4076   -0.8876 P   0  0  1  0  0  0  0  0  0  0  0  0
   -2.5776   -1.7556   -0.3950 O   0  0  0  0  0  0  0  0  0  0  0  0
   -2.4000    0.0907   -2.1805 O   0  0  0  0  0  0  0  0  0  0  0  0
    6.4217    0.4553    0.2450 O   0  0  0  0  0  0  0  0  0  0  0  0
    4.4888    1.5474    0.7224 O   0  0  0  0  0  0  0  0  0  0  0  0
   -1.9096    0.6672    0.3735 N   0  0  0  0  0  0  0  0  0  0  0  0
   -0.2057   -0.8767   -0.9952 N   0  0  0  0  0  0  0  0  0  0  0  0
    0.3232   -1.6828    0.1079 C   0  0  1  0  0  0  0  0  0  0  0  0
   -0.5677   -2.9128    0.3409 C   0  0  0  0  0  0  0  0  0  0  0  0
   -2.0084   -2.5142    0.6681 C   0  0  0  0  0  0  0  0  0  0  0  0
   -0.8188    1.6303    0.5084 C   0  0  0  0  0  0  0  0  0  0  0  0
   -3.1926    1.3448    0.5480 C   0  0  0  0  0  0  0  0  0  0  0  0
    2.8624   -0.6521    0.1517 C   0  0  0  0  0  0  0  0  0  0  0  0
   -0.6665    2.4271   -0.7780 C   0  0  0  0  0  0  0  0  0  0  0  0
   -4.2661    0.3365    0.9272 C   0  0  0  0  0  0  0  0  0  0  0  0
    4.3750   -0.7613    0.0196 C   0  0  0  0  0  0  0  0  0  0  0  0
    5.0742    0.5299    0.3735 C   0  0  0  0  0  0  0  0  0  0  0  0
    0.3372   -1.1000    1.0344 H   0  0  0  0  0  0  0  0  0  0  0  0
   -0.5756   -3.5414   -0.5598 H   0  0  0  0  0  0  0  0  0  0  0  0
   -0.1751   -3.5190    1.1663 H   0  0  0  0  0  0  0  0  0  0  0  0
    0.4738   -0.1638   -1.2499 H   0  0  0  0  0  0  0  0  0  0  0  0
   -2.0561   -1.9312    1.5935 H   0  0  0  0  0  0  0  0  0  0  0  0
   -2.6218   -3.4100    0.8048 H   0  0  0  0  0  0  0  0  0  0  0  0
   -0.9829    2.2980    1.3642 H   0  0  0  0  0  0  0  0  0  0  0  0
    0.1176    1.1140    0.7401 H   0  0  0  0  0  0  0  0  0  0  0  0
   -3.1371    2.0883    1.3536 H   0  0  0  0  0  0  0  0  0  0  0  0
   -3.4799    1.8777   -0.3662 H   0  0  0  0  0  0  0  0  0  0  0  0
    2.4982    0.1373   -0.5140 H   0  0  0  0  0  0  0  0  0  0  0  0
    2.6056   -0.3646    1.1775 H   0  0  0  0  0  0  0  0  0  0  0  0
   -0.4301    1.8140   -1.6488 H   0  0  0  0  0  0  0  0  0  0  0  0
   -1.5618    3.0128   -1.0050 H   0  0  0  0  0  0  0  0  0  0  0  0
   -4.0333   -0.1729    1.8671 H   0  0  0  0  0  0  0  0  0  0  0  0
   -4.4343   -0.4066    0.1475 H   0  0  0  0  0  0  0  0  0  0  0  0
    4.6464   -1.0134   -1.0121 H   0  0  0  0  0  0  0  0  0  0  0  0
    4.7588   -1.5382    0.6911 H   0  0  0  0  0  0  0  0  0  0  0  0
    6.8587    1.3045    0.4692 H   0  0  0  0  0  0  0  0  0  0  0  0
  1 17  1  0  0  0  0
  2 18  1  0  0  0  0
  3 11  1  0  0  0  0
  3 16  1  0  0  0  0
  4  5  1  0  0  0  0
  4  6  2  0  0  0  0
  4  9  1  0  0  0  0
  4 10  1  0  0  0  0
  5 13  1  0  0  0  0
  7 20  1  0  0  0  0
  7 39  1  0  0  0  0
  8 20  2  0  0  0  0
  9 14  1  0  0  0  0
  9 15  1  0  0  0  0
 10 11  1  0  0  0  0
 10 24  1  0  0  0  0
 11 12  1  0  0  0  0
 11 21  1  0  0  0  0
 12 13  1  0  0  0  0
 12 22  1  0  0  0  0
 12 23  1  0  0  0  0
 13 25  1  0  0  0  0
 13 26  1  0  0  0  0
 14 17  1  0  0  0  0
 14 27  1  0  0  0  0
 14 28  1  0  0  0  0
 15 18  1  0  0  0  0
 15 29  1  0  0  0  0
 15 30  1  0  0  0  0
 16 19  1  0  0  0  0
 16 31  1  0  0  0  0
 16 32  1  0  0  0  0
 17 33  1  0  0  0  0
 17 34  1  0  0  0  0
 18 35  1  0  0  0  0
 18 36  1  0  0  0  0
 19 20  1  0  0  0  0
 19 37  1  0  0  0  0
 19 38  1  0  0  0  0
M  END
> <PUBCHEM_COMPOUND_CID>
129829

> <PUBCHEM_CONFORMER_RMSD>
1

> <PUBCHEM_CONFORMER_DIVERSEORDER>
1
4
119
149
54
81
65
77
111
60
74
100
73
26
178
5
167
21
46
11
131
39
7
82
19
15
48
161
67
93
71
155
27
31
94
35
45
18
143
151
41
179
55
184
9
16
181
128
171
79
64
2
141
57
14
148
63
165
20
13
124
32
150
104
92
30
108
120
34
44
99
62
153
175
98
3
123
25
166
6
75
33
176
169
156
23
134
43
68
12
106
152
97
89
84
102
80
76
183
112
107
42
136
53
88
37
51
113
50
29
115
110
61
86
163
133
72
125
78
127
10
159
117
137
140
49
95
103
154
116
47
129
70
40
24
142
38
96
56
85
177
28
172
139
118
122
138
59
144
121
8
132
83
126
58
114
162
17
101
170
146
22
130
160
69
145
90
109
66
105
52
36
158
164
174
173
157
87
147
180
91
182
168
135

> <PUBCHEM_MMFF94_PARTIAL_CHARGES>
21
1 -0.29
10 -0.9
11 0.5
13 0.28
14 0.27
15 0.27
16 0.23
17 0.29
18 0.29
19 0.06
2 -0.29
20 0.66
24 0.36
3 -0.46
39 0.5
4 1.51
5 -0.55
6 -0.7
7 -0.65
8 -0.57
9 -0.81

> <PUBCHEM_EFFECTIVE_ROTOR_COUNT>
10

> <PUBCHEM_PHARMACOPHORE_FEATURES>
4
1 7 acceptor
1 8 acceptor
3 7 8 20 anion
6 4 5 10 11 12 13 rings

> <PUBCHEM_HEAVY_ATOM_COUNT>
20

> <PUBCHEM_ATOM_DEF_STEREO_COUNT>
0

> <PUBCHEM_ATOM_UDEF_STEREO_COUNT>
2

> <PUBCHEM_BOND_DEF_STEREO_COUNT>
0

> <PUBCHEM_BOND_UDEF_STEREO_COUNT>
0

> <PUBCHEM_ISOTOPIC_ATOM_COUNT>
0

> <PUBCHEM_COMPONENT_COUNT>
1

> <PUBCHEM_CACTVS_TAUTO_COUNT>
2

> <PUBCHEM_CONFORMER_ID>
0001FB2500000001

> <PUBCHEM_MMFF94_ENERGY>
14.9753

> <PUBCHEM_FEATURE_SELFOVERLAP>
20.355

> <PUBCHEM_SHAPE_FINGERPRINT>
10006869 2 18120930612499861475
10493431 412 18412549790793957131
10498660 4 18335972121871494484
1100329 8 18337961189550467209
12553582 1 18336815442842589784
13140716 1 18265901434917252880
14787075 74 18272930488842800955
15163728 17 15050352011860473539
18785283 64 18043549385098162245
21623110 236 18264205992630349292
21652331 79 18410573942729298936
22079108 93 18410860932259713211
23227448 37 18413671313723020950
23402539 116 18341886433292958686
23419403 2 17682385189892955319
23557571 272 18270972353039096974
5104073 3 18335414682330232666

> <PUBCHEM_SHAPE_MULTIPOLES>
389.59
10.59
3.55
1.15
8.76
0.72
-0.41
3.78
4.31
-0.02
-0.25
-0.96
0.16
-0.03

> <PUBCHEM_SHAPE_SELFOVERLAP>
711.194

> <PUBCHEM_SHAPE_VOLUME>
249.3

> <PUBCHEM_COORDINATE_TYPE>
2
5
10

$$$$
