129818854
  -OEChem-03292013293D

 48 49  0     1  0  0  0  0  0999 V2000
    1.8822    4.7967    0.8124 S   0  0  0  0  0  0  0  0  0  0  0  0
    1.3929   -0.9714    1.4404 O   0  0  0  0  0  0  0  0  0  0  0  0
   -2.2484    0.0012   -0.2724 O   0  0  0  0  0  0  0  0  0  0  0  0
   -0.6423   -0.5866   -1.8052 O   0  0  0  0  0  0  0  0  0  0  0  0
    2.9928   -0.9484   -0.2319 N   0  0  0  0  0  0  0  0  0  0  0  0
   -0.1221    0.6532    0.0874 N   0  0  0  0  0  0  0  0  0  0  0  0
    5.1116   -1.9324    2.2874 N   0  0  0  0  0  0  0  0  0  0  0  0
    3.6297   -2.2152    0.1311 C   0  0  1  0  0  0  0  0  0  0  0  0
    4.4773   -2.5629   -1.0939 C   0  0  0  0  0  0  0  0  0  0  0  0
    4.8616   -1.1974   -1.6567 C   0  0  0  0  0  0  0  0  0  0  0  0
    3.6083   -0.3673   -1.4232 C   0  0  0  0  0  0  0  0  0  0  0  0
    1.8841   -0.4525    0.4366 C   0  0  0  0  0  0  0  0  0  0  0  0
    1.2873    0.8068   -0.1394 C   0  0  2  0  0  0  0  0  0  0  0  0
    1.8322    2.0544    0.5422 C   0  0  0  0  0  0  0  0  0  0  0  0
    4.4582   -2.0571    1.3367 C   0  0  0  0  0  0  0  0  0  0  0  0
    1.2107    3.3306   -0.0238 C   0  0  0  0  0  0  0  0  0  0  0  0
   -0.9734   -0.0306   -0.7630 C   0  0  0  0  0  0  0  0  0  0  0  0
   -3.2371   -0.6729   -1.0591 C   0  0  0  0  0  0  0  0  0  0  0  0
    3.4657    4.8894   -0.0536 C   0  0  0  0  0  0  0  0  0  0  0  0
   -4.5714   -0.5434   -0.3850 C   0  0  0  0  0  0  0  0  0  0  0  0
   -4.9822   -1.5039    0.5394 C   0  0  0  0  0  0  0  0  0  0  0  0
   -5.4010    0.5375   -0.6830 C   0  0  0  0  0  0  0  0  0  0  0  0
   -6.2228   -1.3834    1.1657 C   0  0  0  0  0  0  0  0  0  0  0  0
   -6.6414    0.6581   -0.0567 C   0  0  0  0  0  0  0  0  0  0  0  0
   -7.0524   -0.3024    0.8677 C   0  0  0  0  0  0  0  0  0  0  0  0
    2.8585   -2.9724    0.3109 H   0  0  0  0  0  0  0  0  0  0  0  0
    3.8601   -3.0913   -1.8317 H   0  0  0  0  0  0  0  0  0  0  0  0
    5.3492   -3.1863   -0.8719 H   0  0  0  0  0  0  0  0  0  0  0  0
    5.7017   -0.7809   -1.0883 H   0  0  0  0  0  0  0  0  0  0  0  0
    5.1493   -1.2362   -2.7109 H   0  0  0  0  0  0  0  0  0  0  0  0
    3.8299    0.6931   -1.2793 H   0  0  0  0  0  0  0  0  0  0  0  0
    2.9066   -0.4818   -2.2567 H   0  0  0  0  0  0  0  0  0  0  0  0
    1.4363    0.8642   -1.2208 H   0  0  0  0  0  0  0  0  0  0  0  0
    2.9216    2.0732    0.4260 H   0  0  0  0  0  0  0  0  0  0  0  0
    1.6396    1.9975    1.6227 H   0  0  0  0  0  0  0  0  0  0  0  0
   -0.5194    1.0243    0.9457 H   0  0  0  0  0  0  0  0  0  0  0  0
    0.1290    3.3344    0.1447 H   0  0  0  0  0  0  0  0  0  0  0  0
    1.3727    3.4102   -1.1038 H   0  0  0  0  0  0  0  0  0  0  0  0
   -2.9676   -1.7312   -1.1646 H   0  0  0  0  0  0  0  0  0  0  0  0
   -3.2757   -0.2314   -2.0627 H   0  0  0  0  0  0  0  0  0  0  0  0
    3.9907    5.7945    0.2642 H   0  0  0  0  0  0  0  0  0  0  0  0
    3.3121    4.9452   -1.1345 H   0  0  0  0  0  0  0  0  0  0  0  0
    4.0964    4.0306    0.1869 H   0  0  0  0  0  0  0  0  0  0  0  0
   -4.3438   -2.3494    0.7814 H   0  0  0  0  0  0  0  0  0  0  0  0
   -5.0911    1.2933   -1.3998 H   0  0  0  0  0  0  0  0  0  0  0  0
   -6.5426   -2.1309    1.8859 H   0  0  0  0  0  0  0  0  0  0  0  0
   -7.2873    1.5001   -0.2882 H   0  0  0  0  0  0  0  0  0  0  0  0
   -8.0182   -0.2084    1.3555 H   0  0  0  0  0  0  0  0  0  0  0  0
  1 16  1  0  0  0  0
  1 19  1  0  0  0  0
  2 12  2  0  0  0  0
  3 17  1  0  0  0  0
  3 18  1  0  0  0  0
  4 17  2  0  0  0  0
  5  8  1  0  0  0  0
  5 11  1  0  0  0  0
  5 12  1  0  0  0  0
  6 13  1  0  0  0  0
  6 17  1  0  0  0  0
  6 36  1  0  0  0  0
  7 15  3  0  0  0  0
  8  9  1  0  0  0  0
  8 15  1  0  0  0  0
  8 26  1  0  0  0  0
  9 10  1  0  0  0  0
  9 27  1  0  0  0  0
  9 28  1  0  0  0  0
 10 11  1  0  0  0  0
 10 29  1  0  0  0  0
 10 30  1  0  0  0  0
 11 31  1  0  0  0  0
 11 32  1  0  0  0  0
 12 13  1  0  0  0  0
 13 14  1  0  0  0  0
 13 33  1  0  0  0  0
 14 16  1  0  0  0  0
 14 34  1  0  0  0  0
 14 35  1  0  0  0  0
 16 37  1  0  0  0  0
 16 38  1  0  0  0  0
 18 20  1  0  0  0  0
 18 39  1  0  0  0  0
 18 40  1  0  0  0  0
 19 41  1  0  0  0  0
 19 42  1  0  0  0  0
 19 43  1  0  0  0  0
 20 21  2  0  0  0  0
 20 22  1  0  0  0  0
 21 23  1  0  0  0  0
 21 44  1  0  0  0  0
 22 24  2  0  0  0  0
 22 45  1  0  0  0  0
 23 25  2  0  0  0  0
 23 46  1  0  0  0  0
 24 25  1  0  0  0  0
 24 47  1  0  0  0  0
 25 48  1  0  0  0  0
M  END
> <PUBCHEM_COMPOUND_CID>
129818854

> <PUBCHEM_CONFORMER_RMSD>
1

> <PUBCHEM_CONFORMER_DIVERSEORDER>
1
136
77
58
148
37
22
132
127
72
63
34
146
113
118
142
48
92
89
41
75
112
131
109
147
101
82
33
122
40
68
121
110
123
53
32
114
51
20
129
50
88
54
102
99
29
128
18
21
98
67
138
90
139
145
120
44
4
115
46
78
111
91
47
107
83
9
13
27
87
96
7
23
140
19
94
150
97
143
16
52
35
45
73
74
134
69
60
103
42
56
8
57
62
119
130
84
64
93
31
117
30
10
125
81
126
95
55
104
141
133
36
61
26
149
108
79
71
137
17
76
116
39
43
135
12
105
86
85
14
38
15
49
65
80
144
70
6
28
59
106
124
100
2
24
5
151
66
25
11
3

> <PUBCHEM_MMFF94_PARTIAL_CHARGES>
28
1 -0.46
11 0.3
12 0.57
13 0.36
15 0.36
16 0.23
17 0.78
18 0.42
19 0.23
2 -0.57
20 -0.14
21 -0.15
22 -0.15
23 -0.15
24 -0.15
25 -0.15
3 -0.43
36 0.37
4 -0.57
44 0.15
45 0.15
46 0.15
47 0.15
48 0.15
5 -0.66
6 -0.73
7 -0.56
8 0.5

> <PUBCHEM_EFFECTIVE_ROTOR_COUNT>
11

> <PUBCHEM_PHARMACOPHORE_FEATURES>
7
1 19 hydrophobe
1 2 acceptor
1 4 acceptor
1 6 donor
1 7 acceptor
5 5 8 9 10 11 rings
6 20 21 22 23 24 25 rings

> <PUBCHEM_HEAVY_ATOM_COUNT>
25

> <PUBCHEM_ATOM_DEF_STEREO_COUNT>
2

> <PUBCHEM_ATOM_UDEF_STEREO_COUNT>
0

> <PUBCHEM_BOND_DEF_STEREO_COUNT>
0

> <PUBCHEM_BOND_UDEF_STEREO_COUNT>
0

> <PUBCHEM_ISOTOPIC_ATOM_COUNT>
0

> <PUBCHEM_COMPONENT_COUNT>
1

> <PUBCHEM_CACTVS_TAUTO_COUNT>
2

> <PUBCHEM_CONFORMER_ID>
07BCE0E600000001

> <PUBCHEM_MMFF94_ENERGY>
51.4065

> <PUBCHEM_FEATURE_SELFOVERLAP>
35.522

> <PUBCHEM_SHAPE_FINGERPRINT>
10074138 170 17618759385229290368
10369192 42 17756424120731994460
10721379 63 18269848647844880764
11405975 8 18342457080249546447
12166972 35 17989208136161343321
12553582 1 18343293739499233622
12616971 3 17988924496763507223
12788726 201 18263933129374108454
13540713 5 17843385530696468471
13673619 4 18040437664080264039
13955234 65 18339643472268702552
14251758 9 17989204816167441111
14341114 176 18412832391342242893
15183329 4 18260554377344616091
15664445 248 18201453458466525086
15842332 3 17558531754795686013
15927050 60 17982173627816909022
17844677 252 18412832400090666901
1813 80 18201434740698413534
18785283 64 18339637957540795652
20832881 197 18333731282540250099
21033648 29 17202466811373963195
21049683 271 18261119599372803628
21315759 148 17969793063080566971
21344244 78 18131624591061251129
22849341 161 18201726136954879165
22950370 63 17530687585169531511
23522609 53 17387722430337326541
23559900 14 18411980282610091035
249999 5 18267302208684310560
3004659 81 17968664822032179334
3411729 13 18267583688034973100
394071 54 18131067160504385600
465052 167 18342184349283211351
5385378 56 18268146646457341328
57724786 102 18272657887453555617
7495541 125 18261109673180876271
8509985 295 15913324693461596363
8863177 126 18187373181260304627
9841814 1 18410565198102089872

> <PUBCHEM_SHAPE_MULTIPOLES>
485.79
16.14
4.62
1.51
29.13
8.98
-0.21
-8.28
-2.49
-9.83
-1.04
-1.5
-0.97
0.39

> <PUBCHEM_SHAPE_SELFOVERLAP>
982.765

> <PUBCHEM_SHAPE_VOLUME>
284.3

> <PUBCHEM_COORDINATE_TYPE>
2
5
10

$$$$
