129847451
  -OEChem-03292013293D

 59 63  0     0  0  0  0  0  0999 V2000
   -0.8660   -2.1155    2.6477 O   0  0  0  0  0  0  0  0  0  0  0  0
    0.0701   -1.3096   -2.0051 O   0  0  0  0  0  0  0  0  0  0  0  0
    0.3416   -5.5067   -0.1870 O   0  0  0  0  0  0  0  0  0  0  0  0
    5.5345   -0.9299   -1.0642 O   0  5  0  0  0  0  0  0  0  0  0  0
    4.6572    0.4018   -2.5728 O   0  0  0  0  0  0  0  0  0  0  0  0
    0.6169   -0.5249    0.7199 N   0  0  0  0  0  0  0  0  0  0  0  0
    3.0711    0.8983    0.3872 N   0  0  0  0  0  0  0  0  0  0  0  0
    0.1965   -3.3903   -1.0620 N   0  0  0  0  0  0  0  0  0  0  0  0
   -0.2594   -3.7835    1.2038 N   0  0  0  0  0  0  0  0  0  0  0  0
    5.1516    0.2032   -1.4384 N   0  3  0  0  0  0  0  0  0  0  0  0
   -0.4386   -1.4691    0.3554 C   0  0  0  0  0  0  0  0  0  0  0  0
    0.7304    0.5353   -0.2891 C   0  0  0  0  0  0  0  0  0  0  0  0
    1.9027   -1.2193    0.8615 C   0  0  0  0  0  0  0  0  0  0  0  0
    1.7938    1.5620    0.1087 C   0  0  0  0  0  0  0  0  0  0  0  0
    3.0043   -0.2511    1.2985 C   0  0  0  0  0  0  0  0  0  0  0  0
   -1.7446   -0.7456    0.2146 C   0  0  0  0  0  0  0  0  0  0  0  0
   -0.5432   -2.4646    1.5099 C   0  0  0  0  0  0  0  0  0  0  0  0
   -0.0386   -2.0277   -1.0085 C   0  0  0  0  0  0  0  0  0  0  0  0
    4.2600    1.6350    0.3442 C   0  0  0  0  0  0  0  0  0  0  0  0
   -2.6679   -1.1538   -0.7481 C   0  0  0  0  0  0  0  0  0  0  0  0
   -2.0362    0.3353    1.0467 C   0  0  0  0  0  0  0  0  0  0  0  0
    0.1089   -4.3072   -0.0258 C   0  0  0  0  0  0  0  0  0  0  0  0
    5.2825    1.3024   -0.5442 C   0  0  0  0  0  0  0  0  0  0  0  0
    4.4135    2.7174    1.2106 C   0  0  0  0  0  0  0  0  0  0  0  0
   -3.8828   -0.4810   -0.8785 C   0  0  0  0  0  0  0  0  0  0  0  0
   -3.2511    1.0079    0.9163 C   0  0  0  0  0  0  0  0  0  0  0  0
   -4.1744    0.5998   -0.0463 C   0  0  0  0  0  0  0  0  0  0  0  0
    6.4585    2.0521   -0.5663 C   0  0  0  0  0  0  0  0  0  0  0  0
    5.5897    3.4670    1.1886 C   0  0  0  0  0  0  0  0  0  0  0  0
   -5.4343    1.2980   -0.1822 C   0  0  0  0  0  0  0  0  0  0  0  0
    6.6122    3.1344    0.3001 C   0  0  0  0  0  0  0  0  0  0  0  0
   -6.0196    1.9031    0.9300 C   0  0  0  0  0  0  0  0  0  0  0  0
   -6.0636    1.3663   -1.4251 C   0  0  0  0  0  0  0  0  0  0  0  0
   -7.2342    2.5764    0.7994 C   0  0  0  0  0  0  0  0  0  0  0  0
   -7.2781    2.0395   -1.5558 C   0  0  0  0  0  0  0  0  0  0  0  0
   -7.8636    2.6445   -0.4435 C   0  0  0  0  0  0  0  0  0  0  0  0
   -0.1863    1.0957   -0.4884 H   0  0  0  0  0  0  0  0  0  0  0  0
    1.1336    0.2019   -1.2456 H   0  0  0  0  0  0  0  0  0  0  0  0
    2.2324   -1.6905   -0.0731 H   0  0  0  0  0  0  0  0  0  0  0  0
    1.8664   -2.0019    1.6267 H   0  0  0  0  0  0  0  0  0  0  0  0
    3.9598   -0.7891    1.3185 H   0  0  0  0  0  0  0  0  0  0  0  0
    1.4616    2.1174    0.9950 H   0  0  0  0  0  0  0  0  0  0  0  0
    2.8107    0.1053    2.3185 H   0  0  0  0  0  0  0  0  0  0  0  0
    1.9143    2.2854   -0.7079 H   0  0  0  0  0  0  0  0  0  0  0  0
   -2.4984   -2.0133   -1.3900 H   0  0  0  0  0  0  0  0  0  0  0  0
   -1.3515    0.6705    1.8213 H   0  0  0  0  0  0  0  0  0  0  0  0
    0.4645   -3.7632   -1.9686 H   0  0  0  0  0  0  0  0  0  0  0  0
   -0.3286   -4.4467    1.9707 H   0  0  0  0  0  0  0  0  0  0  0  0
    3.6306    2.9879    1.9146 H   0  0  0  0  0  0  0  0  0  0  0  0
   -4.5862   -0.8572   -1.6163 H   0  0  0  0  0  0  0  0  0  0  0  0
   -3.4233    1.8592    1.5690 H   0  0  0  0  0  0  0  0  0  0  0  0
    7.2645    1.8050   -1.2531 H   0  0  0  0  0  0  0  0  0  0  0  0
    5.7100    4.3088    1.8642 H   0  0  0  0  0  0  0  0  0  0  0  0
    7.5280    3.7179    0.2833 H   0  0  0  0  0  0  0  0  0  0  0  0
   -5.5827    1.8501    1.9234 H   0  0  0  0  0  0  0  0  0  0  0  0
   -5.6311    0.9371   -2.3247 H   0  0  0  0  0  0  0  0  0  0  0  0
   -7.6939    3.0419    1.6664 H   0  0  0  0  0  0  0  0  0  0  0  0
   -7.7654    2.0988   -2.5247 H   0  0  0  0  0  0  0  0  0  0  0  0
   -8.8093    3.1687   -0.5454 H   0  0  0  0  0  0  0  0  0  0  0  0
  1 17  2  0  0  0  0
  2 18  2  0  0  0  0
  3 22  2  0  0  0  0
  4 10  1  0  0  0  0
  5 10  2  0  0  0  0
  6 11  1  0  0  0  0
  6 12  1  0  0  0  0
  6 13  1  0  0  0  0
  7 14  1  0  0  0  0
  7 15  1  0  0  0  0
  7 19  1  0  0  0  0
  8 18  1  0  0  0  0
  8 22  1  0  0  0  0
  8 47  1  0  0  0  0
  9 17  1  0  0  0  0
  9 22  1  0  0  0  0
  9 48  1  0  0  0  0
 10 23  1  0  0  0  0
 11 16  1  0  0  0  0
 11 17  1  0  0  0  0
 11 18  1  0  0  0  0
 12 14  1  0  0  0  0
 12 37  1  0  0  0  0
 12 38  1  0  0  0  0
 13 15  1  0  0  0  0
 13 39  1  0  0  0  0
 13 40  1  0  0  0  0
 14 42  1  0  0  0  0
 14 44  1  0  0  0  0
 15 41  1  0  0  0  0
 15 43  1  0  0  0  0
 16 20  2  0  0  0  0
 16 21  1  0  0  0  0
 19 23  1  0  0  0  0
 19 24  2  0  0  0  0
 20 25  1  0  0  0  0
 20 45  1  0  0  0  0
 21 26  2  0  0  0  0
 21 46  1  0  0  0  0
 23 28  2  0  0  0  0
 24 29  1  0  0  0  0
 24 49  1  0  0  0  0
 25 27  2  0  0  0  0
 25 50  1  0  0  0  0
 26 27  1  0  0  0  0
 26 51  1  0  0  0  0
 27 30  1  0  0  0  0
 28 31  1  0  0  0  0
 28 52  1  0  0  0  0
 29 31  2  0  0  0  0
 29 53  1  0  0  0  0
 30 32  2  0  0  0  0
 30 33  1  0  0  0  0
 31 54  1  0  0  0  0
 32 34  1  0  0  0  0
 32 55  1  0  0  0  0
 33 35  2  0  0  0  0
 33 56  1  0  0  0  0
 34 36  2  0  0  0  0
 34 57  1  0  0  0  0
 35 36  1  0  0  0  0
 35 58  1  0  0  0  0
 36 59  1  0  0  0  0
M  CHG  2   4  -1  10   1
M  END
> <PUBCHEM_COMPOUND_CID>
129847451

> <PUBCHEM_CONFORMER_RMSD>
1

> <PUBCHEM_CONFORMER_DIVERSEORDER>
1
9
4
13
3
6
11
10
5
7
12
8
2

> <PUBCHEM_MMFF94_PARTIAL_CHARGES>
49
1 -0.57
10 0.91
11 0.54
12 0.27
13 0.27
14 0.37
15 0.37
16 -0.14
17 0.57
18 0.57
19 0.1
2 -0.57
20 -0.15
21 -0.15
22 0.69
23 0.13
24 -0.15
25 -0.15
26 -0.15
28 -0.15
29 -0.15
3 -0.57
31 -0.15
32 -0.15
33 -0.15
34 -0.15
35 -0.15
36 -0.15
4 -0.52
45 0.15
46 0.15
47 0.37
48 0.37
49 0.15
5 -0.52
50 0.15
51 0.15
52 0.15
53 0.15
54 0.15
55 0.15
56 0.15
57 0.15
58 0.15
59 0.15
6 -0.81
7 -0.84
8 -0.49
9 -0.49

> <PUBCHEM_EFFECTIVE_ROTOR_COUNT>
6.8

> <PUBCHEM_PHARMACOPHORE_FEATURES>
15
1 1 acceptor
1 2 acceptor
1 3 acceptor
1 4 acceptor
1 4 anion
1 5 acceptor
1 6 cation
1 7 cation
1 8 donor
1 9 donor
6 16 20 21 25 26 27 rings
6 19 23 24 28 29 31 rings
6 30 32 33 34 35 36 rings
6 6 7 12 13 14 15 rings
6 8 9 11 17 18 22 rings

> <PUBCHEM_HEAVY_ATOM_COUNT>
36

> <PUBCHEM_ATOM_DEF_STEREO_COUNT>
0

> <PUBCHEM_ATOM_UDEF_STEREO_COUNT>
0

> <PUBCHEM_BOND_DEF_STEREO_COUNT>
0

> <PUBCHEM_BOND_UDEF_STEREO_COUNT>
0

> <PUBCHEM_ISOTOPIC_ATOM_COUNT>
0

> <PUBCHEM_COMPONENT_COUNT>
1

> <PUBCHEM_CACTVS_TAUTO_COUNT>
5

> <PUBCHEM_CONFORMER_ID>
07BD509B00000001

> <PUBCHEM_MMFF94_ENERGY>
154.5634

> <PUBCHEM_FEATURE_SELFOVERLAP>
76.249

> <PUBCHEM_SHAPE_FINGERPRINT>
10006869 2 18261660485799741040
10369192 42 18334294288671364989
10675989 125 18342740672423360688
11505856 67 17610079118779235790
12166972 35 12247678304957075321
12293681 160 17917712422213320649
12788726 201 17906152298424506178
13150687 139 18131636677019944660
13673619 4 12103841272686915113
13782708 43 12391503192600215605
14117953 113 17988934323954740038
14150023 79 18336827490299610407
15131766 46 18268130021519874245
15183329 4 17203614774064165881
15198563 99 17765710613394294895
15219462 58 14782041483036823866
15439362 3 18411981321602299614
15510800 12 10807929405684467125
15803439 3 17060057094259710494
15980000 95 17620758280389430574
17349148 13 13182477598356772708
17980427 23 16732991959432033631
19301679 30 8718835305196142969
21033648 144 18114449120535353493
21033648 29 17967255312079952753
21424621 283 18411135861521667857
27425 322 18342451582074138764
2838139 119 18340481180102130997
3411729 13 18188205391160554059
3627633 1 17617938479614254803
4015057 19 16988009426418938160
4058900 60 18412267212052875563
4516262 110 18410285879769291373
504843 32 18261108638363075747
5219985 13 18334288781890067701
563151 97 18339630218732837343
57527293 21 14418136248746112664
59682541 52 16845292730944493268
6376802 90 18126005103834217486
6697151 62 17105343518041543675
70251023 43 10015589428117919942
77188 2 17546160801437646155
9896288 288 17969786482331703954

> <PUBCHEM_SHAPE_MULTIPOLES>
686.61
18.31
5.03
1.69
11.79
5.77
-0.17
-28.09
-4.27
-1.76
0.84
-0.32
0.36
1.15

> <PUBCHEM_SHAPE_SELFOVERLAP>
1525.647

> <PUBCHEM_SHAPE_VOLUME>
362.6

> <PUBCHEM_COORDINATE_TYPE>
2
5
10

$$$$
