129862
  -OEChem-03292013323D

 35 37  0     1  0  0  0  0  0999 V2000
   -4.3594   -1.8945    0.3931 S   0  0  0  0  0  0  0  0  0  0  0  0
    2.4918   -0.4882   -0.9748 O   0  0  0  0  0  0  0  0  0  0  0  0
    1.6483    2.1116    1.3597 O   0  0  0  0  0  0  0  0  0  0  0  0
    3.8399    2.1481   -0.2467 O   0  0  0  0  0  0  0  0  0  0  0  0
    4.3242   -2.5710   -0.5660 O   0  0  0  0  0  0  0  0  0  0  0  0
    0.2753   -0.3344   -0.1418 N   0  0  0  0  0  0  0  0  0  0  0  0
   -1.1155   -2.0320    0.2610 N   0  0  0  0  0  0  0  0  0  0  0  0
   -1.3348    1.4634   -0.4193 N   0  0  0  0  0  0  0  0  0  0  0  0
   -3.6222    0.6569   -0.1483 N   0  0  0  0  0  0  0  0  0  0  0  0
   -3.1665    2.9062   -0.6170 N   0  0  0  0  0  0  0  0  0  0  0  0
   -5.7920   -1.0631    0.2985 N   0  0  0  0  0  0  0  0  0  0  0  0
    2.1820    0.8730    0.9383 C   0  0  1  0  0  0  0  0  0  0  0  0
    1.5318    0.3828   -0.3464 C   0  0  1  0  0  0  0  0  0  0  0  0
    3.6375    0.9637    0.5241 C   0  0  1  0  0  0  0  0  0  0  0  0
    3.7922   -0.2491   -0.3882 C   0  0  1  0  0  0  0  0  0  0  0  0
    4.2191   -1.5041    0.3603 C   0  0  0  0  0  0  0  0  0  0  0  0
   -0.9865    0.1895   -0.1841 C   0  0  0  0  0  0  0  0  0  0  0  0
    0.1441   -1.6721    0.1283 C   0  0  0  0  0  0  0  0  0  0  0  0
   -1.8331   -0.8781    0.0685 C   0  0  0  0  0  0  0  0  0  0  0  0
   -3.1981   -0.6091    0.0819 C   0  0  0  0  0  0  0  0  0  0  0  0
   -2.6782    1.6005   -0.3811 C   0  0  0  0  0  0  0  0  0  0  0  0
    2.0611    0.1449    1.7488 H   0  0  0  0  0  0  0  0  0  0  0  0
    1.3187    1.2022   -1.0439 H   0  0  0  0  0  0  0  0  0  0  0  0
    4.3294    0.9925    1.3706 H   0  0  0  0  0  0  0  0  0  0  0  0
    4.4803   -0.0596   -1.2198 H   0  0  0  0  0  0  0  0  0  0  0  0
    3.4909   -1.7967    1.1231 H   0  0  0  0  0  0  0  0  0  0  0  0
    5.1932   -1.3654    0.8384 H   0  0  0  0  0  0  0  0  0  0  0  0
    1.8072    2.7628    0.6553 H   0  0  0  0  0  0  0  0  0  0  0  0
    4.7689    2.1513   -0.5345 H   0  0  0  0  0  0  0  0  0  0  0  0
    0.9938   -2.3345    0.2222 H   0  0  0  0  0  0  0  0  0  0  0  0
    3.4538   -2.6816   -0.9857 H   0  0  0  0  0  0  0  0  0  0  0  0
   -2.5128    3.6557   -0.7971 H   0  0  0  0  0  0  0  0  0  0  0  0
   -4.1630    3.0739   -0.6017 H   0  0  0  0  0  0  0  0  0  0  0  0
   -5.9464   -0.7275   -0.6514 H   0  0  0  0  0  0  0  0  0  0  0  0
   -6.5729   -1.6839    0.5061 H   0  0  0  0  0  0  0  0  0  0  0  0
  1 11  1  0  0  0  0
  1 20  1  0  0  0  0
  2 13  1  0  0  0  0
  2 15  1  0  0  0  0
  3 12  1  0  0  0  0
  3 28  1  0  0  0  0
  4 14  1  0  0  0  0
  4 29  1  0  0  0  0
  5 16  1  0  0  0  0
  5 31  1  0  0  0  0
  6 13  1  0  0  0  0
  6 17  1  0  0  0  0
  6 18  1  0  0  0  0
  7 18  2  0  0  0  0
  7 19  1  0  0  0  0
  8 17  1  0  0  0  0
  8 21  2  0  0  0  0
  9 20  2  0  0  0  0
  9 21  1  0  0  0  0
 10 21  1  0  0  0  0
 10 32  1  0  0  0  0
 10 33  1  0  0  0  0
 11 34  1  0  0  0  0
 11 35  1  0  0  0  0
 12 13  1  0  0  0  0
 12 14  1  0  0  0  0
 12 22  1  0  0  0  0
 13 23  1  0  0  0  0
 14 15  1  0  0  0  0
 14 24  1  0  0  0  0
 15 16  1  0  0  0  0
 15 25  1  0  0  0  0
 16 26  1  0  0  0  0
 16 27  1  0  0  0  0
 17 19  2  0  0  0  0
 18 30  1  0  0  0  0
 19 20  1  0  0  0  0
M  END
> <PUBCHEM_COMPOUND_CID>
129862

> <PUBCHEM_CONFORMER_RMSD>
0.6

> <PUBCHEM_CONFORMER_DIVERSEORDER>
3
28
65
42
23
48
52
8
10
57
38
7
53
56
59
4
25
35
16
58
6
41
27
49
39
61
2
15
31
54
32
66
19
55
36
12
1
26
50
63
20
13
64
21
30
34
62
17
9
47
46
24
11
45
43
60
5
33
40
29
18
22
37
14
51
44

> <PUBCHEM_MMFF94_PARTIAL_CHARGES>
29
1 -0.08
10 -0.9
11 -0.74
12 0.28
13 0.54
14 0.28
15 0.28
16 0.28
17 0.11
18 0.04
19 0.23
2 -0.56
20 0.41
21 0.72
28 0.4
29 0.4
3 -0.68
30 0.15
31 0.4
32 0.4
33 0.4
34 0.36
35 0.36
4 -0.68
5 -0.68
6 0.05
7 -0.57
8 -0.57
9 -0.62

> <PUBCHEM_EFFECTIVE_ROTOR_COUNT>
4

> <PUBCHEM_PHARMACOPHORE_FEATURES>
14
1 10 donor
1 2 acceptor
1 3 acceptor
1 3 donor
1 4 acceptor
1 4 donor
1 5 acceptor
1 5 donor
1 9 acceptor
3 6 7 18 cation
4 8 9 10 21 cation
5 2 12 13 14 15 rings
5 6 7 17 18 19 rings
6 8 9 17 19 20 21 rings

> <PUBCHEM_HEAVY_ATOM_COUNT>
21

> <PUBCHEM_ATOM_DEF_STEREO_COUNT>
4

> <PUBCHEM_ATOM_UDEF_STEREO_COUNT>
0

> <PUBCHEM_BOND_DEF_STEREO_COUNT>
0

> <PUBCHEM_BOND_UDEF_STEREO_COUNT>
0

> <PUBCHEM_ISOTOPIC_ATOM_COUNT>
0

> <PUBCHEM_COMPONENT_COUNT>
1

> <PUBCHEM_CACTVS_TAUTO_COUNT>
3

> <PUBCHEM_CONFORMER_ID>
0001FB4600000003

> <PUBCHEM_MMFF94_ENERGY>
49.6394

> <PUBCHEM_FEATURE_SELFOVERLAP>
71.198

> <PUBCHEM_SHAPE_FINGERPRINT>
10498660 4 18260259746571932525
10608611 8 18412259558221037868
10646746 165 18409727327028398340
1100329 8 16395777961946705912
11405975 8 18341051809129711729
11578080 2 13901067661648588450
12236239 1 17022897981996778540
12403259 226 18412258445798011073
12403259 415 18413385440736995313
12403260 363 18410847746419756255
12507560 40 18411976966816282040
12916754 54 18411705365589615843
13134695 92 17345739799481739752
13140716 1 18341613651008236840
13675066 3 18200865202302232850
13862211 1 18335982077796285611
14866123 147 16759169896659793114
15196674 1 18409729543052012485
17492 89 18409448085466979598
17804303 29 18409732828929029262
18186145 218 18201164264958984912
19049666 15 18413103970408400680
19141452 34 18058453265492247391
19591789 44 18410011009587027347
20510252 161 18411419535764240401
20645477 70 18059864965222972238
21065199 12 18411695495981655456
21267235 1 18409455782232639554
221357 26 18413952788704980383
22182937 141 18199473169237618105
23402539 116 18340199812874116791
23559900 14 18410289203429795820
3004659 81 18043820776119760294
3286 77 18342458140325480508
335352 9 18194399979162074420
350125 39 18409452453416363055
4214541 1 18336827502693577188
5104073 3 18411698764103550360
5374978 207 18335136544004351554
59755656 215 18261109626384986191
69090 78 18201999983985497159
9709674 26 18409452505156904886

> <PUBCHEM_SHAPE_MULTIPOLES>
382.66
9.85
2.65
0.83
2.51
0.53
-0.11
-2.7
-0.25
0.14
0.08
-0.38
0.16
1.15

> <PUBCHEM_SHAPE_SELFOVERLAP>
815.636

> <PUBCHEM_SHAPE_VOLUME>
215.9

> <PUBCHEM_COORDINATE_TYPE>
2
5
10

$$$$
