129876
  -OEChem-03292013323D

 34 35  0     1  0  0  0  0  0999 V2000
    2.0238   -0.0952   -1.1282 O   0  0  0  0  0  0  0  0  0  0  0  0
    2.7740    2.6419    0.3681 O   0  0  0  0  0  0  0  0  0  0  0  0
    4.0067    0.6566    1.7723 O   0  0  0  0  0  0  0  0  0  0  0  0
    3.8975   -2.1511   -1.6170 O   0  0  0  0  0  0  0  0  0  0  0  0
   -4.6129    0.2460    0.0868 O   0  0  0  0  0  0  0  0  0  0  0  0
   -3.6403   -1.9418    0.5942 O   0  0  0  0  0  0  0  0  0  0  0  0
   -0.1139    0.6138   -0.3785 N   0  0  0  0  0  0  0  0  0  0  0  0
   -0.3907   -0.6464    0.0015 N   0  0  0  0  0  0  0  0  0  0  0  0
   -3.9532    2.3246   -0.5768 N   0  0  0  0  0  0  0  0  0  0  0  0
   -1.6168   -2.9782    0.7586 N   0  0  0  0  0  0  0  0  0  0  0  0
    1.9847    1.4928    0.6709 C   0  0  2  0  0  0  0  0  0  0  0  0
    2.8583    0.3056    1.0304 C   0  0  1  0  0  0  0  0  0  0  0  0
    1.2750    1.0200   -0.5991 C   0  0  1  0  0  0  0  0  0  0  0  0
    3.2098   -0.2613   -0.3341 C   0  0  1  0  0  0  0  0  0  0  0  0
    3.6028   -1.7273   -0.2974 C   0  0  0  0  0  0  0  0  0  0  0  0
   -1.2217    1.3996   -0.5192 C   0  0  0  0  0  0  0  0  0  0  0  0
   -2.2940    0.5988   -0.2101 C   0  0  0  0  0  0  0  0  0  0  0  0
   -1.7226   -0.6492    0.1026 C   0  0  0  0  0  0  0  0  0  0  0  0
   -3.6673    1.0036   -0.2219 C   0  0  0  0  0  0  0  0  0  0  0  0
   -2.3992   -1.8530    0.4968 C   0  0  0  0  0  0  0  0  0  0  0  0
    1.3102    1.7710    1.4871 H   0  0  0  0  0  0  0  0  0  0  0  0
    2.2652   -0.4153    1.6068 H   0  0  0  0  0  0  0  0  0  0  0  0
    1.2522    1.7945   -1.3748 H   0  0  0  0  0  0  0  0  0  0  0  0
    4.0097    0.3172   -0.8144 H   0  0  0  0  0  0  0  0  0  0  0  0
    2.7870   -2.3532    0.0791 H   0  0  0  0  0  0  0  0  0  0  0  0
    4.4887   -1.8900    0.3229 H   0  0  0  0  0  0  0  0  0  0  0  0
    2.1633    3.3527    0.1081 H   0  0  0  0  0  0  0  0  0  0  0  0
    4.5233   -0.1535    1.9192 H   0  0  0  0  0  0  0  0  0  0  0  0
   -1.1368    2.4353   -0.8192 H   0  0  0  0  0  0  0  0  0  0  0  0
    3.1038   -1.9996   -2.1583 H   0  0  0  0  0  0  0  0  0  0  0  0
   -3.2439    3.0029   -0.8320 H   0  0  0  0  0  0  0  0  0  0  0  0
   -4.9130    2.6543   -0.5903 H   0  0  0  0  0  0  0  0  0  0  0  0
   -0.6045   -2.9601    0.6848 H   0  0  0  0  0  0  0  0  0  0  0  0
   -2.0427   -3.8571    1.0332 H   0  0  0  0  0  0  0  0  0  0  0  0
  1 13  1  0  0  0  0
  1 14  1  0  0  0  0
  2 11  1  0  0  0  0
  2 27  1  0  0  0  0
  3 12  1  0  0  0  0
  3 28  1  0  0  0  0
  4 15  1  0  0  0  0
  4 30  1  0  0  0  0
  5 19  2  0  0  0  0
  6 20  2  0  0  0  0
  7  8  1  0  0  0  0
  7 13  1  0  0  0  0
  7 16  1  0  0  0  0
  8 18  2  0  0  0  0
  9 19  1  0  0  0  0
  9 31  1  0  0  0  0
  9 32  1  0  0  0  0
 10 20  1  0  0  0  0
 10 33  1  0  0  0  0
 10 34  1  0  0  0  0
 11 12  1  0  0  0  0
 11 13  1  0  0  0  0
 11 21  1  0  0  0  0
 12 14  1  0  0  0  0
 12 22  1  0  0  0  0
 13 23  1  0  0  0  0
 14 15  1  0  0  0  0
 14 24  1  0  0  0  0
 15 25  1  0  0  0  0
 15 26  1  0  0  0  0
 16 17  2  0  0  0  0
 16 29  1  0  0  0  0
 17 18  1  0  0  0  0
 17 19  1  0  0  0  0
 18 20  1  0  0  0  0
M  END
> <PUBCHEM_COMPOUND_CID>
129876

> <PUBCHEM_CONFORMER_RMSD>
0.8

> <PUBCHEM_CONFORMER_DIVERSEORDER>
1
59
29
50
25
12
37
45
46
14
33
7
36
57
61
13
62
11
32
19
6
54
52
34
24
4
56
42
23
5
21
44
53
35
17
43
39
40
8
49
20
9
63
60
26
3
22
10
51
27
55
2
58
18
28
47
48
38
41
30
31
15
16

> <PUBCHEM_MMFF94_PARTIAL_CHARGES>
28
1 -0.56
10 -0.8
11 0.28
12 0.28
13 0.54
14 0.28
15 0.28
16 -0.3
17 -0.09
18 0.2
19 0.72
2 -0.68
20 0.72
27 0.4
28 0.4
29 0.15
3 -0.68
30 0.4
31 0.37
32 0.37
33 0.37
34 0.37
4 -0.68
5 -0.57
6 -0.57
7 0.31
8 -0.71
9 -0.8

> <PUBCHEM_EFFECTIVE_ROTOR_COUNT>
5

> <PUBCHEM_PHARMACOPHORE_FEATURES>
14
1 1 acceptor
1 10 donor
1 2 acceptor
1 2 donor
1 3 acceptor
1 3 donor
1 4 acceptor
1 4 donor
1 5 acceptor
1 6 acceptor
1 8 acceptor
1 9 donor
5 1 11 12 13 14 rings
5 7 8 16 17 18 rings

> <PUBCHEM_HEAVY_ATOM_COUNT>
20

> <PUBCHEM_ATOM_DEF_STEREO_COUNT>
4

> <PUBCHEM_ATOM_UDEF_STEREO_COUNT>
0

> <PUBCHEM_BOND_DEF_STEREO_COUNT>
0

> <PUBCHEM_BOND_UDEF_STEREO_COUNT>
0

> <PUBCHEM_ISOTOPIC_ATOM_COUNT>
0

> <PUBCHEM_COMPONENT_COUNT>
1

> <PUBCHEM_CACTVS_TAUTO_COUNT>
4

> <PUBCHEM_CONFORMER_ID>
0001FB5400000001

> <PUBCHEM_MMFF94_ENERGY>
44.3411

> <PUBCHEM_FEATURE_SELFOVERLAP>
71.099

> <PUBCHEM_SHAPE_FINGERPRINT>
10366900 7 17912924173432909921
10608611 8 18411416258498568865
10616163 171 18047756184914677986
1100329 8 16538486887187417433
12346177 29 18334564768288814911
12403259 415 18335983065374902893
12500047 106 18408039610881102092
12507560 40 18342736351411993224
12633257 1 18189593052091698856
13134695 92 17274534343987611760
13296908 3 18412547647183341551
13533116 47 17917714561106935643
13544592 145 18339925905075562278
13583140 156 17131255999802331179
13675066 3 18342171155085343401
14115302 16 18189067425187405588
14178342 30 18115013216648937522
14223421 5 18194966480905704176
14289901 80 17916862551085009457
14866123 147 17046839547344804578
15219456 202 18343302603931475532
15375358 24 18342447154052500896
17804303 29 18336552616117519020
18186145 218 18341047402894393789
19049666 15 18342739615307556992
20510252 161 18339364183952351265
20645477 70 17632576020342477582
20832881 197 17911520900269556226
21065199 12 18340203093527283609
21521239 73 18200573827927013623
22943178 12 18412543240594433477
23402539 116 18337657712147051605
23557571 272 18337391651064284576
23559900 14 18413109433728165964
495365 180 17774427318097733570
5104073 3 18410856572603865609
59755656 215 18190178989121096541
633830 44 18269543962796136101
69090 78 18341324561576294935
7364860 26 18341615958022820596
74978 22 18408326592021970196
81228 2 17970067949308341777
8809292 202 18410017602213730974
9709674 26 18411980303568313583

> <PUBCHEM_SHAPE_MULTIPOLES>
356.45
8.38
2.67
1.08
1.07
0.87
0.05
0.34
0.2
0.54
0.14
-1.18
0.14
1.91

> <PUBCHEM_SHAPE_SELFOVERLAP>
757.43

> <PUBCHEM_SHAPE_VOLUME>
197.3

> <PUBCHEM_COORDINATE_TYPE>
2
5
10

$$$$
