129837
  -OEChem-03292013323D

 40 40  0     1  0  0  0  0  0999 V2000
    2.0013    0.9098   -0.5016 S   0  0  0  0  0  0  0  0  0  0  0  0
   -0.3258    2.5915   -0.2963 O   0  0  0  0  0  0  0  0  0  0  0  0
    5.6044    1.3638    0.1838 O   0  0  0  0  0  0  0  0  0  0  0  0
    4.7968   -0.1532    1.6646 O   0  0  0  0  0  0  0  0  0  0  0  0
   -2.0375    1.0152   -0.0442 N   0  0  0  0  0  0  0  0  0  0  0  0
    5.0319   -1.8300   -0.7434 N   0  0  0  0  0  0  0  0  0  0  0  0
   -3.1313    1.9940    0.0498 C   0  0  0  0  0  0  0  0  0  0  0  0
   -2.3469   -0.4003    0.0397 C   0  0  0  0  0  0  0  0  0  0  0  0
   -3.8259    1.8837    1.4007 C   0  0  0  0  0  0  0  0  0  0  0  0
   -4.1182    1.8047   -1.0955 C   0  0  0  0  0  0  0  0  0  0  0  0
   -0.6929    1.4166   -0.2139 C   0  0  0  0  0  0  0  0  0  0  0  0
    0.3160    0.2830   -0.3271 C   0  0  0  0  0  0  0  0  0  0  0  0
    2.8637   -0.6914   -0.6020 C   0  0  0  0  0  0  0  0  0  0  0  0
   -2.3444   -0.9852    1.2761 C   0  0  0  0  0  0  0  0  0  0  0  0
   -2.6237   -1.0666   -1.1224 C   0  0  0  0  0  0  0  0  0  0  0  0
    4.3813   -0.5193   -0.6896 C   0  0  1  0  0  0  0  0  0  0  0  0
   -2.6421   -2.3455    1.3570 C   0  0  0  0  0  0  0  0  0  0  0  0
   -2.9216   -2.4269   -1.0414 C   0  0  0  0  0  0  0  0  0  0  0  0
   -2.9308   -3.0663    0.1983 C   0  0  0  0  0  0  0  0  0  0  0  0
    4.9458    0.2223    0.5075 C   0  0  0  0  0  0  0  0  0  0  0  0
   -2.7024    2.9991   -0.0324 H   0  0  0  0  0  0  0  0  0  0  0  0
   -4.5479    2.6991    1.5210 H   0  0  0  0  0  0  0  0  0  0  0  0
   -4.3812    0.9469    1.5128 H   0  0  0  0  0  0  0  0  0  0  0  0
   -3.1055    1.9565    2.2227 H   0  0  0  0  0  0  0  0  0  0  0  0
   -3.6066    1.8203   -2.0639 H   0  0  0  0  0  0  0  0  0  0  0  0
   -4.8545    2.6160   -1.0970 H   0  0  0  0  0  0  0  0  0  0  0  0
   -4.6767    0.8663   -1.0177 H   0  0  0  0  0  0  0  0  0  0  0  0
    0.2830   -0.3296    0.5772 H   0  0  0  0  0  0  0  0  0  0  0  0
    0.0878   -0.3205   -1.2094 H   0  0  0  0  0  0  0  0  0  0  0  0
    2.5984   -1.2739    0.2882 H   0  0  0  0  0  0  0  0  0  0  0  0
    2.4944   -1.2281   -1.4831 H   0  0  0  0  0  0  0  0  0  0  0  0
   -2.1111   -0.4315    2.1796 H   0  0  0  0  0  0  0  0  0  0  0  0
   -2.6089   -0.5764   -2.0903 H   0  0  0  0  0  0  0  0  0  0  0  0
    4.6383    0.0299   -1.6037 H   0  0  0  0  0  0  0  0  0  0  0  0
   -2.6468   -2.8439    2.3219 H   0  0  0  0  0  0  0  0  0  0  0  0
   -3.1441   -2.9887   -1.9438 H   0  0  0  0  0  0  0  0  0  0  0  0
   -3.1615   -4.1257    0.2611 H   0  0  0  0  0  0  0  0  0  0  0  0
    4.6766   -2.3554   -1.5414 H   0  0  0  0  0  0  0  0  0  0  0  0
    6.0310   -1.7089   -0.9064 H   0  0  0  0  0  0  0  0  0  0  0  0
    5.9433    1.8286    0.9784 H   0  0  0  0  0  0  0  0  0  0  0  0
  1 12  1  0  0  0  0
  1 13  1  0  0  0  0
  2 11  2  0  0  0  0
  3 20  1  0  0  0  0
  3 40  1  0  0  0  0
  4 20  2  0  0  0  0
  5  7  1  0  0  0  0
  5  8  1  0  0  0  0
  5 11  1  0  0  0  0
  6 16  1  0  0  0  0
  6 38  1  0  0  0  0
  6 39  1  0  0  0  0
  7  9  1  0  0  0  0
  7 10  1  0  0  0  0
  7 21  1  0  0  0  0
  8 14  2  0  0  0  0
  8 15  1  0  0  0  0
  9 22  1  0  0  0  0
  9 23  1  0  0  0  0
  9 24  1  0  0  0  0
 10 25  1  0  0  0  0
 10 26  1  0  0  0  0
 10 27  1  0  0  0  0
 11 12  1  0  0  0  0
 12 28  1  0  0  0  0
 12 29  1  0  0  0  0
 13 16  1  0  0  0  0
 13 30  1  0  0  0  0
 13 31  1  0  0  0  0
 14 17  1  0  0  0  0
 14 32  1  0  0  0  0
 15 18  2  0  0  0  0
 15 33  1  0  0  0  0
 16 20  1  0  0  0  0
 16 34  1  0  0  0  0
 17 19  2  0  0  0  0
 17 35  1  0  0  0  0
 18 19  1  0  0  0  0
 18 36  1  0  0  0  0
 19 37  1  0  0  0  0
M  END
> <PUBCHEM_COMPOUND_CID>
129837

> <PUBCHEM_CONFORMER_RMSD>
0.8

> <PUBCHEM_CONFORMER_DIVERSEORDER>
1
133
36
7
183
132
168
96
72
206
213
177
124
108
217
190
38
221
142
202
83
219
44
176
196
105
137
62
140
104
209
148
11
185
78
107
147
65
30
122
150
151
180
12
31
159
155
40
50
220
169
214
145
88
19
17
218
167
118
71
175
97
119
216
174
187
146
33
106
131
128
157
82
188
184
37
212
112
211
197
8
53
4
115
70
43
109
192
208
94
117
9
18
194
135
42
170
200
99
67
111
61
116
2
16
35
80
92
27
156
203
68
210
57
130
149
120
79
199
15
141
24
181
123
73
32
179
91
101
58
110
186
75
66
152
207
204
103
165
127
14
114
84
34
46
10
222
195
23
60
86
178
126
158
47
90
76
81
87
20
161
49
26
56
25
129
160
143
205
166
6
45
64
59
95
125
201
102
138
13
89
69
171
172
198
41
191
189
162
139
21
51
163
136
154
215
77
134
113
173
144
55
28
22
39
5
121
93
63
182
52
54
48
100
193
85
98
29
164
153
3
74

> <PUBCHEM_MMFF94_PARTIAL_CHARGES>
26
1 -0.46
11 0.57
12 0.29
13 0.23
14 -0.15
15 -0.15
16 0.33
17 -0.15
18 -0.15
19 -0.15
2 -0.57
20 0.66
3 -0.65
32 0.15
33 0.15
35 0.15
36 0.15
37 0.15
38 0.36
39 0.36
4 -0.57
40 0.5
5 -0.48
6 -0.99
7 0.3
8 0.12

> <PUBCHEM_EFFECTIVE_ROTOR_COUNT>
8

> <PUBCHEM_PHARMACOPHORE_FEATURES>
8
1 2 acceptor
1 3 acceptor
1 4 acceptor
1 6 cation
1 6 donor
3 3 4 20 anion
3 7 9 10 hydrophobe
6 8 14 15 17 18 19 rings

> <PUBCHEM_HEAVY_ATOM_COUNT>
20

> <PUBCHEM_ATOM_DEF_STEREO_COUNT>
1

> <PUBCHEM_ATOM_UDEF_STEREO_COUNT>
0

> <PUBCHEM_BOND_DEF_STEREO_COUNT>
0

> <PUBCHEM_BOND_UDEF_STEREO_COUNT>
0

> <PUBCHEM_ISOTOPIC_ATOM_COUNT>
0

> <PUBCHEM_COMPONENT_COUNT>
1

> <PUBCHEM_CACTVS_TAUTO_COUNT>
1

> <PUBCHEM_CONFORMER_ID>
0001FB2D00000001

> <PUBCHEM_MMFF94_ENERGY>
67.5891

> <PUBCHEM_FEATURE_SELFOVERLAP>
40.653

> <PUBCHEM_SHAPE_FINGERPRINT>
10366900 7 17846489297471617080
11370993 144 17488478403004423722
11405975 8 18270683065632575146
11552529 35 17846218903373314882
12346177 29 18408601465760307253
12616971 3 17022906744516137084
13583140 156 17489297620887371056
15042514 8 18336558170233036033
15342168 16 9510093325325316971
15375358 24 18272651199550808836
15537594 2 17604159125385518970
18927931 339 18410016546253416366
19141452 34 18410578353144137148
20681651 13 17346598568985864478
23557571 272 18272944820795148902
23559900 14 18340757255951743513
23728640 28 18410863135799417211
312423 11 18042983140440120756
4015057 19 17916852560970590776
5104073 3 18413386536686561146
5364581 5 18270667801451259272
53917941 68 18187911860157883165
559249 180 18260543373047345567
5924683 9 18271805760987542615
90127 26 16917352524364177992
9709674 26 18342462491502119022

> <PUBCHEM_SHAPE_MULTIPOLES>
387.87
11.28
3.1
1.29
19.28
0.93
-0.31
0.31
-1.06
-4.08
0
-0.5
0.24
0.41

> <PUBCHEM_SHAPE_SELFOVERLAP>
771.223

> <PUBCHEM_SHAPE_VOLUME>
230.6

> <PUBCHEM_COORDINATE_TYPE>
2
5
10

$$$$
