129937
  -OEChem-03292013323D

 31 32  0     1  0  0  0  0  0999 V2000
   -1.4891   -2.1065    0.3993 S   0  0  0  0  0  0  0  0  0  0  0  0
    2.9699   -0.7555    0.1169 S   0  0  0  0  0  0  0  0  0  0  0  0
    5.4067   -0.2512   -0.5834 F   0  0  0  0  0  0  0  0  0  0  0  0
    3.8923    0.9123   -1.6381 F   0  0  0  0  0  0  0  0  0  0  0  0
    4.3890    1.3888    0.4334 F   0  0  0  0  0  0  0  0  0  0  0  0
    1.7949    0.3558    0.3536 O   0  0  0  0  0  0  0  0  0  0  0  0
   -0.6296    1.9964    1.7556 O   0  0  0  0  0  0  0  0  0  0  0  0
   -4.8326    1.1795   -0.3272 O   0  0  0  0  0  0  0  0  0  0  0  0
   -2.9590    2.0575   -1.2838 O   0  0  0  0  0  0  0  0  0  0  0  0
    3.3875   -1.2914    1.3964 O   0  0  0  0  0  0  0  0  0  0  0  0
    2.6047   -1.6099   -0.9944 O   0  0  0  0  0  0  0  0  0  0  0  0
   -1.3543    0.4677    0.1100 N   0  0  0  0  0  0  0  0  0  0  0  0
   -0.4901   -0.6828   -0.1702 C   0  0  1  0  0  0  0  0  0  0  0  0
   -3.0689   -1.2244   -0.0435 C   0  0  0  0  0  0  0  0  0  0  0  0
   -2.7733    0.2500    0.3060 C   0  0  2  0  0  0  0  0  0  0  0  0
    0.5098   -0.0941    0.8344 C   0  0  2  0  0  0  0  0  0  0  0  0
   -0.5139    1.0440    1.0180 C   0  0  0  0  0  0  0  0  0  0  0  0
   -3.3530   -1.4822   -1.5295 C   0  0  0  0  0  0  0  0  0  0  0  0
   -4.2071   -1.7831    0.8123 C   0  0  0  0  0  0  0  0  0  0  0  0
   -3.4943    1.2615   -0.5268 C   0  0  0  0  0  0  0  0  0  0  0  0
    4.2103    0.3677   -0.4389 C   0  0  0  0  0  0  0  0  0  0  0  0
   -0.1685   -0.7158   -1.2151 H   0  0  0  0  0  0  0  0  0  0  0  0
   -2.9912    0.4681    1.3602 H   0  0  0  0  0  0  0  0  0  0  0  0
    0.6292   -0.6665    1.7637 H   0  0  0  0  0  0  0  0  0  0  0  0
   -2.5769   -1.0622   -2.1793 H   0  0  0  0  0  0  0  0  0  0  0  0
   -3.4238   -2.5556   -1.7432 H   0  0  0  0  0  0  0  0  0  0  0  0
   -4.3076   -1.0386   -1.8337 H   0  0  0  0  0  0  0  0  0  0  0  0
   -4.3557   -2.8545    0.6332 H   0  0  0  0  0  0  0  0  0  0  0  0
   -4.0164   -1.6471    1.8832 H   0  0  0  0  0  0  0  0  0  0  0  0
   -5.1551   -1.2846    0.5841 H   0  0  0  0  0  0  0  0  0  0  0  0
   -5.3243    1.8353   -0.8662 H   0  0  0  0  0  0  0  0  0  0  0  0
  1 13  1  0  0  0  0
  1 14  1  0  0  0  0
  2  6  1  0  0  0  0
  2 10  2  0  0  0  0
  2 11  2  0  0  0  0
  2 21  1  0  0  0  0
  3 21  1  0  0  0  0
  4 21  1  0  0  0  0
  5 21  1  0  0  0  0
  6 16  1  0  0  0  0
  7 17  2  0  0  0  0
  8 20  1  0  0  0  0
  8 31  1  0  0  0  0
  9 20  2  0  0  0  0
 12 13  1  0  0  0  0
 12 15  1  0  0  0  0
 12 17  1  0  0  0  0
 13 16  1  0  0  0  0
 13 22  1  0  0  0  0
 14 15  1  0  0  0  0
 14 18  1  0  0  0  0
 14 19  1  0  0  0  0
 15 20  1  0  0  0  0
 15 23  1  0  0  0  0
 16 17  1  0  0  0  0
 16 24  1  0  0  0  0
 18 25  1  0  0  0  0
 18 26  1  0  0  0  0
 18 27  1  0  0  0  0
 19 28  1  0  0  0  0
 19 29  1  0  0  0  0
 19 30  1  0  0  0  0
M  END
> <PUBCHEM_COMPOUND_CID>
129937

> <PUBCHEM_CONFORMER_RMSD>
0.8

> <PUBCHEM_CONFORMER_DIVERSEORDER>
3
27
5
15
2
12
16
10
18
22
9
32
6
4
13
1
20
14
30
24
34
23
11
19
28
17
31
8
33
21
29
25
26
7

> <PUBCHEM_MMFF94_PARTIAL_CHARGES>
20
1 -0.45
10 -0.65
11 -0.65
12 -0.59
13 0.44
14 0.23
15 0.36
16 0.31
17 0.58
2 1.38
20 0.66
21 1.13
3 -0.34
31 0.5
4 -0.34
5 -0.34
6 -0.44
7 -0.57
8 -0.65
9 -0.57

> <PUBCHEM_EFFECTIVE_ROTOR_COUNT>
4.8

> <PUBCHEM_PHARMACOPHORE_FEATURES>
9
1 10 acceptor
1 11 acceptor
1 7 acceptor
1 8 acceptor
1 9 acceptor
3 14 18 19 hydrophobe
3 8 9 20 anion
4 12 13 16 17 rings
7 1 12 13 14 15 16 17 rings

> <PUBCHEM_HEAVY_ATOM_COUNT>
21

> <PUBCHEM_ATOM_DEF_STEREO_COUNT>
0

> <PUBCHEM_ATOM_UDEF_STEREO_COUNT>
3

> <PUBCHEM_BOND_DEF_STEREO_COUNT>
0

> <PUBCHEM_BOND_UDEF_STEREO_COUNT>
0

> <PUBCHEM_ISOTOPIC_ATOM_COUNT>
0

> <PUBCHEM_COMPONENT_COUNT>
1

> <PUBCHEM_CACTVS_TAUTO_COUNT>
1

> <PUBCHEM_CONFORMER_ID>
0001FB9100000003

> <PUBCHEM_MMFF94_ENERGY>
38.741

> <PUBCHEM_FEATURE_SELFOVERLAP>
49.478

> <PUBCHEM_SHAPE_FINGERPRINT>
10498660 4 18130791170206141014
11543360 7 17895194423844014472
121448 382 14779547941457706385
12173636 292 18187077326410722799
12236239 1 18259984877718776322
12403814 3 18041000609854853261
12553582 1 18060416949497223547
12670546 177 18413384341219911261
12707595 3 17489866059539991128
12714826 92 18412824715998483787
12788726 201 18058168328022563649
128620 24 18409453621858561586
13224815 77 17847057800717291298
13760787 19 18260545610667388643
14004511 7 12757140299342415090
14790565 3 18055924191000785593
15375358 24 18201716258477305418
16752209 62 18339909481121064131
16945 1 18194664081513193203
17959699 21 18260267438757983236
1813 80 15554459525598987616
18186145 218 18335424521672311530
19862831 5 18410577275486777040
19930381 70 17393335720396393717
200 152 18412266155496351082
20281475 54 17561084695993682474
20645477 56 18260830367399942501
20645477 70 17846218787477952142
20871999 31 18411976979595766943
21709351 56 18334576850274450948
22079108 93 15719402711396016633
22094290 60 18260828232885501395
23175994 123 17703795846744787585
23402539 116 18260827099066713980
23557571 272 18409457993971557036
23558518 356 17553772759190944523
23559900 14 18272930493216993306
2748010 2 18198600294480553457
3004659 81 18336826395077766202
4175511 318 18412261718652644805
4214541 1 18334576836693177278
474 4 16661215883214708644
5104073 3 18334573529668697554
58051976 100 18334575758962419149
58051976 378 17989210305040550438
633830 44 16515965865483253104
9709674 26 18341620317145802070

> <PUBCHEM_SHAPE_MULTIPOLES>
377.85
9.84
2.09
1.3
7.83
0.03
-0.07
0.25
-2.38
-1.67
0.07
0.03
0.15
0.2

> <PUBCHEM_SHAPE_SELFOVERLAP>
767.289

> <PUBCHEM_SHAPE_VOLUME>
222.7

> <PUBCHEM_COORDINATE_TYPE>
2
5
10

$$$$
