129966
  -OEChem-03292013323D

 58 60  0     1  0  0  0  0  0999 V2000
    1.0779   -1.7070   -0.4434 O   0  0  0  0  0  0  0  0  0  0  0  0
   -2.3737    1.6155   -0.2629 O   0  0  0  0  0  0  0  0  0  0  0  0
    0.4424   -3.9146   -0.6803 O   0  0  0  0  0  0  0  0  0  0  0  0
   -1.2708   -2.1622    1.8290 O   0  0  0  0  0  0  0  0  0  0  0  0
   -2.3014   -4.0305    1.0768 O   0  0  0  0  0  0  0  0  0  0  0  0
   -4.0749    0.3019   -1.0723 O   0  0  0  0  0  0  0  0  0  0  0  0
   -2.1797   -0.6196   -0.1002 N   0  0  0  0  0  0  0  0  0  0  0  0
    2.7498   -0.8156    1.0117 C   0  0  0  0  0  0  0  0  0  0  0  0
    3.3648   -0.0223   -0.1324 C   0  0  0  0  0  0  0  0  0  0  0  0
    1.7995    0.2081    1.6165 C   0  0  0  0  0  0  0  0  0  0  0  0
    2.8403    1.2897   -0.1602 C   0  0  0  0  0  0  0  0  0  0  0  0
    1.8799    1.4310    0.9129 C   0  0  0  0  0  0  0  0  0  0  0  0
    2.0333   -2.0732    0.5363 C   0  0  0  0  0  0  0  0  0  0  0  0
    4.3182   -0.4348   -1.0491 C   0  0  0  0  0  0  0  0  0  0  0  0
    0.9571    0.0598    2.7063 C   0  0  0  0  0  0  0  0  0  0  0  0
    3.2630    2.1981   -1.1171 C   0  0  0  0  0  0  0  0  0  0  0  0
    1.1059    2.5154    1.2930 C   0  0  0  0  0  0  0  0  0  0  0  0
    4.7438    0.4807   -2.0133 C   0  0  0  0  0  0  0  0  0  0  0  0
    0.1773    1.1527    3.0889 C   0  0  0  0  0  0  0  0  0  0  0  0
    4.2208    1.7841   -2.0475 C   0  0  0  0  0  0  0  0  0  0  0  0
    0.2503    2.3683    2.3885 C   0  0  0  0  0  0  0  0  0  0  0  0
   -2.0735   -2.5905   -1.5767 C   0  0  0  0  0  0  0  0  0  0  0  0
   -0.6517   -2.2007   -1.9803 C   0  0  0  0  0  0  0  0  0  0  0  0
   -2.5292   -2.0098   -0.2332 C   0  0  1  0  0  0  0  0  0  0  0  0
    0.3415   -2.7314   -0.9775 C   0  0  0  0  0  0  0  0  0  0  0  0
   -3.0975    2.7862   -0.6583 C   0  0  0  0  0  0  0  0  0  0  0  0
   -3.3051    2.7418   -2.1715 C   0  0  0  0  0  0  0  0  0  0  0  0
   -2.2579    4.0003   -0.2668 C   0  0  0  0  0  0  0  0  0  0  0  0
   -4.4378    2.8001    0.0753 C   0  0  0  0  0  0  0  0  0  0  0  0
   -2.0317   -2.8423    0.9381 C   0  0  0  0  0  0  0  0  0  0  0  0
   -2.9809    0.4209   -0.5304 C   0  0  0  0  0  0  0  0  0  0  0  0
    3.5292   -1.0556    1.7447 H   0  0  0  0  0  0  0  0  0  0  0  0
    1.5332   -2.5714    1.3751 H   0  0  0  0  0  0  0  0  0  0  0  0
    2.7538   -2.7729    0.0954 H   0  0  0  0  0  0  0  0  0  0  0  0
    4.7278   -1.4386   -1.0237 H   0  0  0  0  0  0  0  0  0  0  0  0
    0.9043   -0.8737    3.2554 H   0  0  0  0  0  0  0  0  0  0  0  0
    2.8699    3.2085   -1.1551 H   0  0  0  0  0  0  0  0  0  0  0  0
    1.1519    3.4610    0.7631 H   0  0  0  0  0  0  0  0  0  0  0  0
    5.4895    0.1837   -2.7460 H   0  0  0  0  0  0  0  0  0  0  0  0
   -0.4936    1.0642    3.9393 H   0  0  0  0  0  0  0  0  0  0  0  0
    4.5676    2.4796   -2.8073 H   0  0  0  0  0  0  0  0  0  0  0  0
   -0.3663    3.2054    2.7054 H   0  0  0  0  0  0  0  0  0  0  0  0
   -2.7466   -2.2196   -2.3608 H   0  0  0  0  0  0  0  0  0  0  0  0
   -2.1756   -3.6828   -1.5732 H   0  0  0  0  0  0  0  0  0  0  0  0
   -0.3997   -2.6314   -2.9558 H   0  0  0  0  0  0  0  0  0  0  0  0
   -0.5487   -1.1151   -2.0841 H   0  0  0  0  0  0  0  0  0  0  0  0
   -3.6241   -2.0739   -0.1830 H   0  0  0  0  0  0  0  0  0  0  0  0
   -1.2888   -0.3834    0.3270 H   0  0  0  0  0  0  0  0  0  0  0  0
   -2.3788    2.4592   -2.6852 H   0  0  0  0  0  0  0  0  0  0  0  0
   -4.0811    2.0483   -2.5046 H   0  0  0  0  0  0  0  0  0  0  0  0
   -3.6087    3.7270   -2.5451 H   0  0  0  0  0  0  0  0  0  0  0  0
   -1.2713    3.9604   -0.7426 H   0  0  0  0  0  0  0  0  0  0  0  0
   -2.0816    4.0180    0.8144 H   0  0  0  0  0  0  0  0  0  0  0  0
   -2.7423    4.9399   -0.5519 H   0  0  0  0  0  0  0  0  0  0  0  0
   -5.1880    2.1189   -0.3339 H   0  0  0  0  0  0  0  0  0  0  0  0
   -4.8895    3.7981    0.0262 H   0  0  0  0  0  0  0  0  0  0  0  0
   -4.3089    2.5424    1.1331 H   0  0  0  0  0  0  0  0  0  0  0  0
   -0.9719   -2.7335    2.5683 H   0  0  0  0  0  0  0  0  0  0  0  0
  1 13  1  0  0  0  0
  1 25  1  0  0  0  0
  2 26  1  0  0  0  0
  2 31  1  0  0  0  0
  3 25  2  0  0  0  0
  4 30  1  0  0  0  0
  4 58  1  0  0  0  0
  5 30  2  0  0  0  0
  6 31  2  0  0  0  0
  7 24  1  0  0  0  0
  7 31  1  0  0  0  0
  7 48  1  0  0  0  0
  8  9  1  0  0  0  0
  8 10  1  0  0  0  0
  8 13  1  0  0  0  0
  8 32  1  0  0  0  0
  9 11  1  0  0  0  0
  9 14  2  0  0  0  0
 10 12  1  0  0  0  0
 10 15  2  0  0  0  0
 11 12  1  0  0  0  0
 11 16  2  0  0  0  0
 12 17  2  0  0  0  0
 13 33  1  0  0  0  0
 13 34  1  0  0  0  0
 14 18  1  0  0  0  0
 14 35  1  0  0  0  0
 15 19  1  0  0  0  0
 15 36  1  0  0  0  0
 16 20  1  0  0  0  0
 16 37  1  0  0  0  0
 17 21  1  0  0  0  0
 17 38  1  0  0  0  0
 18 20  2  0  0  0  0
 18 39  1  0  0  0  0
 19 21  2  0  0  0  0
 19 40  1  0  0  0  0
 20 41  1  0  0  0  0
 21 42  1  0  0  0  0
 22 23  1  0  0  0  0
 22 24  1  0  0  0  0
 22 43  1  0  0  0  0
 22 44  1  0  0  0  0
 23 25  1  0  0  0  0
 23 45  1  0  0  0  0
 23 46  1  0  0  0  0
 24 30  1  0  0  0  0
 24 47  1  0  0  0  0
 26 27  1  0  0  0  0
 26 28  1  0  0  0  0
 26 29  1  0  0  0  0
 27 49  1  0  0  0  0
 27 50  1  0  0  0  0
 27 51  1  0  0  0  0
 28 52  1  0  0  0  0
 28 53  1  0  0  0  0
 28 54  1  0  0  0  0
 29 55  1  0  0  0  0
 29 56  1  0  0  0  0
 29 57  1  0  0  0  0
M  END
> <PUBCHEM_COMPOUND_CID>
129966

> <PUBCHEM_CONFORMER_RMSD>
1.2

> <PUBCHEM_CONFORMER_DIVERSEORDER>
1
12
75
30
116
27
122
21
128
35
92
110
22
79
38
13
101
97
44
81
111
34
24
113
102
33
57
129
120
45
70
80
106
18
123
46
56
112
69
54
7
41
53
86
26
4
47
63
9
68
107
74
72
104
64
90
23
55
48
94
39
117
25
10
125
83
119
89
19
29
118
121
43
71
82
73
49
2
11
36
114
87
32
62
93
108
124
16
78
59
8
58
15
37
50
77
88
98
76
96
6
85
95
91
28
115
5
61
20
52
103
105
60
14
126
100
109
17
127
65
51
31
42
84
130
67
66
99
3
40

> <PUBCHEM_MMFF94_PARTIAL_CHARGES>
35
1 -0.43
10 -0.14
13 0.28
14 -0.15
15 -0.15
16 -0.15
17 -0.15
18 -0.15
19 -0.15
2 -0.43
20 -0.15
21 -0.15
23 0.06
24 0.36
25 0.66
26 0.28
3 -0.57
30 0.66
31 0.78
35 0.15
36 0.15
37 0.15
38 0.15
39 0.15
4 -0.65
40 0.15
41 0.15
42 0.15
48 0.37
5 -0.57
58 0.5
6 -0.57
7 -0.73
8 0.29
9 -0.14

> <PUBCHEM_EFFECTIVE_ROTOR_COUNT>
11.2

> <PUBCHEM_PHARMACOPHORE_FEATURES>
10
1 3 acceptor
1 4 acceptor
1 5 acceptor
1 6 acceptor
1 7 donor
3 4 5 30 anion
4 26 27 28 29 hydrophobe
5 8 9 10 11 12 rings
6 10 12 15 17 19 21 rings
6 9 11 14 16 18 20 rings

> <PUBCHEM_HEAVY_ATOM_COUNT>
31

> <PUBCHEM_ATOM_DEF_STEREO_COUNT>
1

> <PUBCHEM_ATOM_UDEF_STEREO_COUNT>
0

> <PUBCHEM_BOND_DEF_STEREO_COUNT>
0

> <PUBCHEM_BOND_UDEF_STEREO_COUNT>
0

> <PUBCHEM_ISOTOPIC_ATOM_COUNT>
0

> <PUBCHEM_COMPONENT_COUNT>
1

> <PUBCHEM_CACTVS_TAUTO_COUNT>
2

> <PUBCHEM_CONFORMER_ID>
0001FBAE00000001

> <PUBCHEM_MMFF94_ENERGY>
81.3213

> <PUBCHEM_FEATURE_SELFOVERLAP>
50.968

> <PUBCHEM_SHAPE_FINGERPRINT>
10577160 183 18115609067354671606
10675989 125 17840855279294913464
11578080 2 15649912442928716998
12788726 201 18188195628784402891
13761468 95 17911278067562274268
14114207 22 13107078459216563189
14114211 80 18059027098602366941
14251751 93 18335709368335636412
14251757 17 18059296569161478340
14713325 29 18116169915877048682
151778 21 18191305970753575261
15664445 248 16899034960575982223
15840311 113 17128181856604734399
17809404 112 17346305034115052274
17921350 177 16666250267384936116
17977149 70 18196937892427875100
19930381 70 16749603651017129767
20764821 26 18198881691879008973
22907989 373 18336540637891619805
23536364 44 18057908908182666750
238 59 17342906516260669013
27425 322 17023195868476648301
3298306 158 18199458879754447077
338550 245 16976465305424989889
35225 105 18196911435650625149
3797600 57 16230809977388675162

> <PUBCHEM_SHAPE_MULTIPOLES>
597.77
7.63
5.1
2.59
1.17
1.84
-1.12
-4.6
4.98
-4.7
0.54
0.91
-0.79
0.46

> <PUBCHEM_SHAPE_SELFOVERLAP>
1279.171

> <PUBCHEM_SHAPE_VOLUME>
331

> <PUBCHEM_COORDINATE_TYPE>
2
5
10

$$$$
