129976
  -OEChem-03292013323D

 47 46  0     1  0  0  0  0  0999 V2000
    5.3274    0.0876   -0.0294 O   0  0  0  0  0  0  0  0  0  0  0  0
   -3.4727   -0.8609    0.6496 O   0  0  0  0  0  0  0  0  0  0  0  0
   -7.1493    0.1216    0.7929 O   0  0  0  0  0  0  0  0  0  0  0  0
   -1.0901    0.9834   -1.3625 O   0  0  0  0  0  0  0  0  0  0  0  0
    1.3000    0.1745    1.2564 O   0  0  0  0  0  0  0  0  0  0  0  0
    3.8194   -1.0907    1.2407 O   0  0  0  0  0  0  0  0  0  0  0  0
   -3.5813    1.2221   -0.3715 N   0  0  0  0  0  0  0  0  0  0  0  0
   -4.5066   -0.9867   -2.3166 N   0  0  0  0  0  0  0  0  0  0  0  0
   -0.1558    2.2592    0.3407 N   0  0  0  0  0  0  0  0  0  0  0  0
    3.2295    0.8820    0.1533 N   0  0  0  0  0  0  0  0  0  0  0  0
   -7.8094   -2.0653    1.0463 N   0  0  0  0  0  0  0  0  0  0  0  0
   -5.1285   -0.5005   -1.0833 C   0  0  1  0  0  0  0  0  0  0  0  0
   -5.9945   -1.6049   -0.4679 C   0  0  0  0  0  0  0  0  0  0  0  0
   -3.9724   -0.0946   -0.1717 C   0  0  0  0  0  0  0  0  0  0  0  0
    7.6274   -0.4883   -0.4227 C   0  0  0  0  0  0  0  0  0  0  0  0
    8.7420   -1.4966   -0.1588 C   0  0  0  0  0  0  0  0  0  0  0  0
   -2.5207    1.8566    0.3776 C   0  0  0  0  0  0  0  0  0  0  0  0
    6.3322   -0.8880    0.2698 C   0  0  0  0  0  0  0  0  0  0  0  0
   -7.0260   -1.0661    0.5090 C   0  0  0  0  0  0  0  0  0  0  0  0
   -1.2020    1.6497   -0.3365 C   0  0  0  0  0  0  0  0  0  0  0  0
   10.0211   -1.1166   -0.8872 C   0  0  0  0  0  0  0  0  0  0  0  0
    1.2213    2.1804   -0.0912 C   0  0  0  0  0  0  0  0  0  0  0  0
    1.8905    0.9765    0.5378 C   0  0  0  0  0  0  0  0  0  0  0  0
    4.0986   -0.1343    0.5253 C   0  0  0  0  0  0  0  0  0  0  0  0
   -5.7419    0.3760   -1.3222 H   0  0  0  0  0  0  0  0  0  0  0  0
   -6.5618   -2.1166   -1.2574 H   0  0  0  0  0  0  0  0  0  0  0  0
   -5.3902   -2.3651    0.0414 H   0  0  0  0  0  0  0  0  0  0  0  0
    7.9292    0.5104   -0.0831 H   0  0  0  0  0  0  0  0  0  0  0  0
    7.4465   -0.3956   -1.5010 H   0  0  0  0  0  0  0  0  0  0  0  0
    8.9430   -1.5562    0.9171 H   0  0  0  0  0  0  0  0  0  0  0  0
    8.4271   -2.4945   -0.4858 H   0  0  0  0  0  0  0  0  0  0  0  0
   -2.7434    2.9258    0.4400 H   0  0  0  0  0  0  0  0  0  0  0  0
   -2.4656    1.4280    1.3831 H   0  0  0  0  0  0  0  0  0  0  0  0
   -4.0389    1.7714   -1.0931 H   0  0  0  0  0  0  0  0  0  0  0  0
    5.9998   -1.8691   -0.0890 H   0  0  0  0  0  0  0  0  0  0  0  0
    6.4828   -0.9310    1.3548 H   0  0  0  0  0  0  0  0  0  0  0  0
   -5.2303   -1.2705   -2.9761 H   0  0  0  0  0  0  0  0  0  0  0  0
   -3.9991   -0.2253   -2.7664 H   0  0  0  0  0  0  0  0  0  0  0  0
   10.3810   -0.1354   -0.5616 H   0  0  0  0  0  0  0  0  0  0  0  0
   10.8062   -1.8514   -0.6829 H   0  0  0  0  0  0  0  0  0  0  0  0
    9.8612   -1.0824   -1.9696 H   0  0  0  0  0  0  0  0  0  0  0  0
    1.7287    3.0944    0.2313 H   0  0  0  0  0  0  0  0  0  0  0  0
    1.2651    2.0964   -1.1817 H   0  0  0  0  0  0  0  0  0  0  0  0
   -0.3521    2.7683    1.1978 H   0  0  0  0  0  0  0  0  0  0  0  0
    3.6092    1.6069   -0.4501 H   0  0  0  0  0  0  0  0  0  0  0  0
   -8.5411   -1.8514    1.7159 H   0  0  0  0  0  0  0  0  0  0  0  0
   -7.6895   -3.0422    0.7977 H   0  0  0  0  0  0  0  0  0  0  0  0
  1 18  1  0  0  0  0
  1 24  1  0  0  0  0
  2 14  2  0  0  0  0
  3 19  2  0  0  0  0
  4 20  2  0  0  0  0
  5 23  2  0  0  0  0
  6 24  2  0  0  0  0
  7 14  1  0  0  0  0
  7 17  1  0  0  0  0
  7 34  1  0  0  0  0
  8 12  1  0  0  0  0
  8 37  1  0  0  0  0
  8 38  1  0  0  0  0
  9 20  1  0  0  0  0
  9 22  1  0  0  0  0
  9 44  1  0  0  0  0
 10 23  1  0  0  0  0
 10 24  1  0  0  0  0
 10 45  1  0  0  0  0
 11 19  1  0  0  0  0
 11 46  1  0  0  0  0
 11 47  1  0  0  0  0
 12 13  1  0  0  0  0
 12 14  1  0  0  0  0
 12 25  1  0  0  0  0
 13 19  1  0  0  0  0
 13 26  1  0  0  0  0
 13 27  1  0  0  0  0
 15 16  1  0  0  0  0
 15 18  1  0  0  0  0
 15 28  1  0  0  0  0
 15 29  1  0  0  0  0
 16 21  1  0  0  0  0
 16 30  1  0  0  0  0
 16 31  1  0  0  0  0
 17 20  1  0  0  0  0
 17 32  1  0  0  0  0
 17 33  1  0  0  0  0
 18 35  1  0  0  0  0
 18 36  1  0  0  0  0
 21 39  1  0  0  0  0
 21 40  1  0  0  0  0
 21 41  1  0  0  0  0
 22 23  1  0  0  0  0
 22 42  1  0  0  0  0
 22 43  1  0  0  0  0
M  END
> <PUBCHEM_COMPOUND_CID>
129976

> <PUBCHEM_CONFORMER_RMSD>
1.2

> <PUBCHEM_CONFORMER_DIVERSEORDER>
2
15
32
36
16
34
22
39
33
64
4
59
12
14
11
37
29
25
28
55
45
19
6
3
9
66
53
26
40
68
21
67
30
24
50
61
58
60
13
17
63
8
57
38
10
5
62
56
7
46
43
44
27
1
47
49
23
48
70
54
41
52
42
69
65
20
18
31
35
51

> <PUBCHEM_MMFF94_PARTIAL_CHARGES>
28
1 -0.43
10 -0.49
11 -0.8
12 0.33
13 0.06
14 0.57
17 0.36
18 0.28
19 0.57
2 -0.57
20 0.57
22 0.36
23 0.57
24 0.78
3 -0.57
34 0.37
37 0.36
38 0.36
4 -0.57
44 0.37
45 0.37
46 0.37
47 0.37
5 -0.57
6 -0.57
7 -0.73
8 -0.99
9 -0.73

> <PUBCHEM_EFFECTIVE_ROTOR_COUNT>
15

> <PUBCHEM_PHARMACOPHORE_FEATURES>
12
1 10 donor
1 11 donor
1 2 acceptor
1 21 hydrophobe
1 3 acceptor
1 4 acceptor
1 5 acceptor
1 6 acceptor
1 7 donor
1 8 cation
1 8 donor
1 9 donor

> <PUBCHEM_HEAVY_ATOM_COUNT>
24

> <PUBCHEM_ATOM_DEF_STEREO_COUNT>
1

> <PUBCHEM_ATOM_UDEF_STEREO_COUNT>
0

> <PUBCHEM_BOND_DEF_STEREO_COUNT>
0

> <PUBCHEM_BOND_UDEF_STEREO_COUNT>
0

> <PUBCHEM_ISOTOPIC_ATOM_COUNT>
0

> <PUBCHEM_COMPONENT_COUNT>
1

> <PUBCHEM_CACTVS_TAUTO_COUNT>
24

> <PUBCHEM_CONFORMER_ID>
0001FBB800000002

> <PUBCHEM_MMFF94_ENERGY>
31.3227

> <PUBCHEM_FEATURE_SELFOVERLAP>
60.904

> <PUBCHEM_SHAPE_FINGERPRINT>
10 15 12319740258824294266
10299344 5 18413673504668064264
12596602 18 16128083559351062115
13673619 4 18273493468771842256
13685833 64 18334292102316505969
13690498 29 18187638090231526661
14123256 10 17967251988323664394
14123256 34 18411417319170471925
14428016 86 8502378844813935788
14729087 3 11169917178332634308
15716309 27 17917709115146381116
1818759 1 18342181055570607750
18335252 98 18343586218909942046
18643901 69 18333454226852635405
195137 95 11240007732445636514
21130990 3 18115314505223155091
21150785 3 16225766315614412550
21267235 1 18410576188749482808
21403212 168 12679464170700701748
21585481 151 18343585178995502651
21591340 7 9799687078462140832
22288116 15 13984670282465396553
23424782 7 18342735218442824256
246663 6 18201721743577686902
3004659 81 17967246520334755760
351380 3 18412257363808942449
465052 167 18411702131758979325
54039377 194 18409452500761321151
5470011 282 17894631453149181486
636775 72 9295296040805857871
636775 8 18260835907681186730
9995097 26 18343023294762851566
999808 66 18060416906916510750

> <PUBCHEM_SHAPE_MULTIPOLES>
433.79
28.51
2.09
1.19
38.59
0.65
-0.36
-23.27
-1.72
-1.46
0.05
-1.19
-0.35
0.56

> <PUBCHEM_SHAPE_SELFOVERLAP>
844.275

> <PUBCHEM_SHAPE_VOLUME>
258.7

> <PUBCHEM_COORDINATE_TYPE>
2
5
10

$$$$
