129905
  -OEChem-03292013323D

 31 32  0     0  0  0  0  0  0999 V2000
   -3.2780   -2.9406   -0.0459 Br  0  0  0  0  0  0  0  0  0  0  0  0
    2.1111   -0.4677    0.0337 O   0  0  0  0  0  0  0  0  0  0  0  0
    4.0382   -1.7266    1.5720 O   0  0  0  0  0  0  0  0  0  0  0  0
    3.2380    2.0875    0.0011 O   0  0  0  0  0  0  0  0  0  0  0  0
   -0.0709   -0.5670   -0.7244 N   0  0  0  0  0  0  0  0  0  0  0  0
   -0.6635    1.7143   -0.2156 N   0  0  0  0  0  0  0  0  0  0  0  0
   -2.9642    1.9512    0.5449 N   0  0  0  0  0  0  0  0  0  0  0  0
   -4.4544    0.1135    0.7568 N   0  0  0  0  0  0  0  0  0  0  0  0
    3.4879   -0.2970   -0.2741 C   0  0  0  0  0  0  0  0  0  0  0  0
    1.3006   -0.3510   -1.1276 C   0  0  0  0  0  0  0  0  0  0  0  0
   -0.9450    0.4032   -0.3114 C   0  0  0  0  0  0  0  0  0  0  0  0
   -2.1564   -0.2094   -0.0149 C   0  0  0  0  0  0  0  0  0  0  0  0
   -0.6963   -1.7872   -0.6986 C   0  0  0  0  0  0  0  0  0  0  0  0
   -1.9903   -1.5960   -0.2629 C   0  0  0  0  0  0  0  0  0  0  0  0
    4.2795   -0.4367    1.0197 C   0  0  0  0  0  0  0  0  0  0  0  0
    3.6823    1.0791   -0.9005 C   0  0  0  0  0  0  0  0  0  0  0  0
   -3.1849    0.6215    0.4271 C   0  0  0  0  0  0  0  0  0  0  0  0
   -1.7339    2.4089    0.2205 C   0  0  0  0  0  0  0  0  0  0  0  0
    3.7936   -1.0869   -0.9712 H   0  0  0  0  0  0  0  0  0  0  0  0
    1.5650   -1.1126   -1.8698 H   0  0  0  0  0  0  0  0  0  0  0  0
    1.3237    0.6395   -1.5864 H   0  0  0  0  0  0  0  0  0  0  0  0
   -0.1699   -2.6868   -0.9901 H   0  0  0  0  0  0  0  0  0  0  0  0
    3.9596    0.2972    1.7664 H   0  0  0  0  0  0  0  0  0  0  0  0
    5.3535   -0.3266    0.8403 H   0  0  0  0  0  0  0  0  0  0  0  0
    3.1950    1.2202   -1.8676 H   0  0  0  0  0  0  0  0  0  0  0  0
    4.7500    1.2524   -1.0756 H   0  0  0  0  0  0  0  0  0  0  0  0
   -1.5894    3.4788    0.3257 H   0  0  0  0  0  0  0  0  0  0  0  0
   -4.6485   -0.8753    0.6786 H   0  0  0  0  0  0  0  0  0  0  0  0
   -5.1722    0.7512    1.0733 H   0  0  0  0  0  0  0  0  0  0  0  0
    4.5575   -1.7870    2.3919 H   0  0  0  0  0  0  0  0  0  0  0  0
    2.2961    1.9274    0.1808 H   0  0  0  0  0  0  0  0  0  0  0  0
  1 14  1  0  0  0  0
  2  9  1  0  0  0  0
  2 10  1  0  0  0  0
  3 15  1  0  0  0  0
  3 30  1  0  0  0  0
  4 16  1  0  0  0  0
  4 31  1  0  0  0  0
  5 10  1  0  0  0  0
  5 11  1  0  0  0  0
  5 13  1  0  0  0  0
  6 11  2  0  0  0  0
  6 18  1  0  0  0  0
  7 17  1  0  0  0  0
  7 18  2  0  0  0  0
  8 17  1  0  0  0  0
  8 28  1  0  0  0  0
  8 29  1  0  0  0  0
  9 15  1  0  0  0  0
  9 16  1  0  0  0  0
  9 19  1  0  0  0  0
 10 20  1  0  0  0  0
 10 21  1  0  0  0  0
 11 12  1  0  0  0  0
 12 14  1  0  0  0  0
 12 17  2  0  0  0  0
 13 14  2  0  0  0  0
 13 22  1  0  0  0  0
 15 23  1  0  0  0  0
 15 24  1  0  0  0  0
 16 25  1  0  0  0  0
 16 26  1  0  0  0  0
 18 27  1  0  0  0  0
M  END
> <PUBCHEM_COMPOUND_CID>
129905

> <PUBCHEM_CONFORMER_RMSD>
0.6

> <PUBCHEM_CONFORMER_DIVERSEORDER>
1
32
27
46
18
45
23
34
24
49
12
48
51
16
50
19
35
15
26
33
39
5
20
47
9
40
21
30
7
42
14
8
41
17
10
13
11
3
43
22
6
44
37
2
25
29
38
31
36
4
28

> <PUBCHEM_MMFF94_PARTIAL_CHARGES>
23
1 -0.06
10 0.54
11 0.11
13 -0.3
14 0.06
15 0.28
16 0.28
17 0.41
18 0.47
2 -0.56
22 0.15
27 0.15
28 0.4
29 0.4
3 -0.68
30 0.4
31 0.4
4 -0.68
5 0.05
6 -0.57
7 -0.62
8 -0.9
9 0.28

> <PUBCHEM_EFFECTIVE_ROTOR_COUNT>
5

> <PUBCHEM_PHARMACOPHORE_FEATURES>
12
1 1 hydrophobe
1 2 acceptor
1 3 acceptor
1 3 donor
1 4 acceptor
1 4 donor
1 8 cation
1 8 donor
3 5 6 11 cation
3 6 7 18 cation
5 5 11 12 13 14 rings
6 6 7 11 12 17 18 rings

> <PUBCHEM_HEAVY_ATOM_COUNT>
18

> <PUBCHEM_ATOM_DEF_STEREO_COUNT>
0

> <PUBCHEM_ATOM_UDEF_STEREO_COUNT>
0

> <PUBCHEM_BOND_DEF_STEREO_COUNT>
0

> <PUBCHEM_BOND_UDEF_STEREO_COUNT>
0

> <PUBCHEM_ISOTOPIC_ATOM_COUNT>
0

> <PUBCHEM_COMPONENT_COUNT>
1

> <PUBCHEM_CACTVS_TAUTO_COUNT>
4

> <PUBCHEM_CONFORMER_ID>
0001FB7100000001

> <PUBCHEM_MMFF94_ENERGY>
39.6657

> <PUBCHEM_FEATURE_SELFOVERLAP>
61.181

> <PUBCHEM_SHAPE_FINGERPRINT>
11132069 177 18130790036065814581
11578080 2 17751897315306276309
12251169 10 18409164377338584686
12553582 1 17982732170886529919
12633257 1 18343869896170803480
13140716 1 18269845375189810979
13583140 156 17530970172215704381
14420673 8 18051693240366697514
14787075 74 17469041519863719822
15042514 8 18411705400361297991
15669948 3 18341896333055094742
16945 1 18268731462542031255
17492 89 18410012156665490406
17846911 113 18201156559708612573
19050596 39 18408320016848903306
19422 9 18333729147968013810
20510252 161 18200886182821951699
20645477 70 15068621587283271018
21650355 55 18411415142007291683
23366157 5 17829051253629981893
23402539 116 18343293761353449287
23419403 2 17906142386171698045
23557571 272 17916605239620901335
23559900 14 18201451229146721062
23598294 1 18340768246946834854
2748010 2 18127136496951114063
2838139 119 14403520290739522347
312423 11 18334016129287989990
5104073 3 18341332292338158210
5374978 207 18410014342417942800
5706482 22 18268985397866751287
58807428 26 18122354484395100971
7097593 13 18189888721998684418
90316 7 18261954059345753764
9709674 26 18272378529072893614

> <PUBCHEM_SHAPE_MULTIPOLES>
338.84
8.31
2.73
1.01
5.78
0.06
-0.13
1.13
-2.42
-2.22
-0.25
0.82
0.27
-1.21

> <PUBCHEM_SHAPE_SELFOVERLAP>
702.101

> <PUBCHEM_SHAPE_VOLUME>
199.4

> <PUBCHEM_COORDINATE_TYPE>
2
5
10

$$$$
