129903012
  -OEChem-03292013293D

 46 47  0     0  0  0  0  0  0999 V2000
    0.1720   -0.0391    0.5449 O   0  0  0  0  0  0  0  0  0  0  0  0
   -4.2532    1.7752    1.1096 O   0  0  0  0  0  0  0  0  0  0  0  0
    2.3434   -1.7700   -0.0815 O   0  0  0  0  0  0  0  0  0  0  0  0
   -5.9434    0.4455   -0.7715 O   0  0  0  0  0  0  0  0  0  0  0  0
    6.3436    0.8499    0.1962 O   0  0  0  0  0  0  0  0  0  0  0  0
    0.2119    0.8853   -1.5951 O   0  0  0  0  0  0  0  0  0  0  0  0
   -6.1019   -1.4181    0.5703 O   0  0  0  0  0  0  0  0  0  0  0  0
    6.0784   -1.9052   -0.6338 O   0  0  0  0  0  0  0  0  0  0  0  0
    4.9560   -2.4630    1.2624 O   0  0  0  0  0  0  0  0  0  0  0  0
   -2.0536    0.8866    0.8359 C   0  0  0  0  0  0  0  0  0  0  0  0
   -1.2158   -0.1495    0.4235 C   0  0  0  0  0  0  0  0  0  0  0  0
   -3.1437   -1.4418   -0.2472 C   0  0  0  0  0  0  0  0  0  0  0  0
   -3.9815   -0.4057    0.1651 C   0  0  0  0  0  0  0  0  0  0  0  0
   -3.4366    0.7585    0.7066 C   0  0  0  0  0  0  0  0  0  0  0  0
   -1.7607   -1.3137   -0.1181 C   0  0  0  0  0  0  0  0  0  0  0  0
    2.2371    0.6009   -0.3690 C   0  0  0  0  0  0  0  0  0  0  0  0
    2.8809    1.8373   -0.4180 C   0  0  0  0  0  0  0  0  0  0  0  0
    2.9730   -0.5596   -0.1294 C   0  0  0  0  0  0  0  0  0  0  0  0
   -1.4672    2.1344    1.4143 C   0  0  0  0  0  0  0  0  0  0  0  0
    0.7941    0.5177   -0.5682 C   0  0  0  0  0  0  0  0  0  0  0  0
    4.3527   -0.4836    0.0613 C   0  0  0  0  0  0  0  0  0  0  0  0
    4.2605    1.9134   -0.2271 C   0  0  0  0  0  0  0  0  0  0  0  0
   -3.6984   -2.7007   -0.8306 C   0  0  0  0  0  0  0  0  0  0  0  0
    4.9964    0.7528    0.0125 C   0  0  0  0  0  0  0  0  0  0  0  0
    2.1192    3.0972   -0.6728 C   0  0  0  0  0  0  0  0  0  0  0  0
   -5.4283   -0.5347    0.0294 C   0  0  0  0  0  0  0  0  0  0  0  0
    5.1245   -1.6958    0.3121 C   0  0  0  0  0  0  0  0  0  0  0  0
   -7.3593    0.4258   -0.9820 C   0  0  0  0  0  0  0  0  0  0  0  0
   -1.0985   -2.1159   -0.4346 H   0  0  0  0  0  0  0  0  0  0  0  0
   -1.3113    2.8753    0.6238 H   0  0  0  0  0  0  0  0  0  0  0  0
   -0.5098    1.9449    1.9107 H   0  0  0  0  0  0  0  0  0  0  0  0
   -2.1202    2.5691    2.1786 H   0  0  0  0  0  0  0  0  0  0  0  0
    4.7651    2.8759   -0.2659 H   0  0  0  0  0  0  0  0  0  0  0  0
   -4.2015   -3.2907   -0.0579 H   0  0  0  0  0  0  0  0  0  0  0  0
   -4.4033   -2.4803   -1.6392 H   0  0  0  0  0  0  0  0  0  0  0  0
   -2.9100   -3.3272   -1.2626 H   0  0  0  0  0  0  0  0  0  0  0  0
    1.7578    3.1242   -1.7057 H   0  0  0  0  0  0  0  0  0  0  0  0
    1.2713    3.1867    0.0140 H   0  0  0  0  0  0  0  0  0  0  0  0
    2.7429    3.9851   -0.5198 H   0  0  0  0  0  0  0  0  0  0  0  0
   -5.1865    1.5410    0.9849 H   0  0  0  0  0  0  0  0  0  0  0  0
    2.9779   -2.4846    0.0870 H   0  0  0  0  0  0  0  0  0  0  0  0
    6.6084    1.7831    0.1273 H   0  0  0  0  0  0  0  0  0  0  0  0
   -7.6175    1.2607   -1.6386 H   0  0  0  0  0  0  0  0  0  0  0  0
   -7.8834    0.5508   -0.0298 H   0  0  0  0  0  0  0  0  0  0  0  0
   -7.6555   -0.5091   -1.4668 H   0  0  0  0  0  0  0  0  0  0  0  0
    6.5933   -2.7217   -0.4589 H   0  0  0  0  0  0  0  0  0  0  0  0
  1 11  1  0  0  0  0
  1 20  1  0  0  0  0
  2 14  1  0  0  0  0
  2 40  1  0  0  0  0
  3 18  1  0  0  0  0
  3 41  1  0  0  0  0
  4 26  1  0  0  0  0
  4 28  1  0  0  0  0
  5 24  1  0  0  0  0
  5 42  1  0  0  0  0
  6 20  2  0  0  0  0
  7 26  2  0  0  0  0
  8 27  1  0  0  0  0
  8 46  1  0  0  0  0
  9 27  2  0  0  0  0
 10 11  2  0  0  0  0
 10 14  1  0  0  0  0
 10 19  1  0  0  0  0
 11 15  1  0  0  0  0
 12 13  1  0  0  0  0
 12 15  2  0  0  0  0
 12 23  1  0  0  0  0
 13 14  2  0  0  0  0
 13 26  1  0  0  0  0
 15 29  1  0  0  0  0
 16 17  1  0  0  0  0
 16 18  2  0  0  0  0
 16 20  1  0  0  0  0
 17 22  2  0  0  0  0
 17 25  1  0  0  0  0
 18 21  1  0  0  0  0
 19 30  1  0  0  0  0
 19 31  1  0  0  0  0
 19 32  1  0  0  0  0
 21 24  2  0  0  0  0
 21 27  1  0  0  0  0
 22 24  1  0  0  0  0
 22 33  1  0  0  0  0
 23 34  1  0  0  0  0
 23 35  1  0  0  0  0
 23 36  1  0  0  0  0
 25 37  1  0  0  0  0
 25 38  1  0  0  0  0
 25 39  1  0  0  0  0
 28 43  1  0  0  0  0
 28 44  1  0  0  0  0
 28 45  1  0  0  0  0
M  END
> <PUBCHEM_COMPOUND_CID>
129903012

> <PUBCHEM_CONFORMER_RMSD>
0.8

> <PUBCHEM_CONFORMER_DIVERSEORDER>
1
87
106
99
73
6
30
22
56
65
116
20
66
13
60
119
98
113
103
72
123
9
124
52
68
69
64
97
107
53
41
43
128
75
109
67
55
76
105
95
35
112
47
118
16
91
54
83
104
48
122
63
27
130
86
85
80
3
74
46
23
50
93
82
111
96
21
28
42
34
79
40
59
126
108
127
2
78
110
38
4
120
90
61
88
44
94
121
33
10
125
81
37
45
114
5
18
29
19
62
70
101
51
77
115
15
24
58
129
39
57
7
92
31
71
89
117
102
49
100
32
11
36
25
12
17
14
84
8
26

> <PUBCHEM_MMFF94_PARTIAL_CHARGES>
34
1 -0.23
10 -0.14
11 0.08
12 -0.14
13 0.09
14 0.08
15 -0.15
16 0.09
17 -0.14
18 0.08
19 0.14
2 -0.53
20 0.63
21 0.09
22 -0.15
23 0.14
24 0.08
25 0.14
26 0.63
27 0.63
28 0.28
29 0.15
3 -0.53
33 0.15
4 -0.43
40 0.45
41 0.45
42 0.45
46 0.5
5 -0.53
6 -0.57
7 -0.57
8 -0.65
9 -0.57

> <PUBCHEM_EFFECTIVE_ROTOR_COUNT>
6

> <PUBCHEM_PHARMACOPHORE_FEATURES>
10
1 2 donor
1 3 donor
1 5 donor
1 6 acceptor
1 7 acceptor
1 8 acceptor
1 9 acceptor
3 8 9 27 anion
6 10 11 12 13 14 15 rings
6 16 17 18 21 22 24 rings

> <PUBCHEM_HEAVY_ATOM_COUNT>
28

> <PUBCHEM_ATOM_DEF_STEREO_COUNT>
0

> <PUBCHEM_ATOM_UDEF_STEREO_COUNT>
0

> <PUBCHEM_BOND_DEF_STEREO_COUNT>
0

> <PUBCHEM_BOND_UDEF_STEREO_COUNT>
0

> <PUBCHEM_ISOTOPIC_ATOM_COUNT>
0

> <PUBCHEM_COMPONENT_COUNT>
1

> <PUBCHEM_CACTVS_TAUTO_COUNT>
468

> <PUBCHEM_CONFORMER_ID>
07BE29A400000001

> <PUBCHEM_MMFF94_ENERGY>
103.326

> <PUBCHEM_FEATURE_SELFOVERLAP>
50.805

> <PUBCHEM_SHAPE_FINGERPRINT>
10595046 47 18340488992309746325
10622 236 18199169840866250270
11796584 16 18129947887442443742
12107183 9 18051417266693473568
12166972 35 18334862731365900085
12236239 1 18408041818921696579
12467345 10 18412265051235971339
12788726 201 17917717881295757329
13167823 11 18412265060068810866
13533116 47 18411701010825113176
13914758 101 18261390001939492893
14117953 113 18271244924136939175
14341114 176 18413394241509879246
15183329 4 18335420132358146735
15250474 111 18270109240358425478
15420108 30 17619916058597901129
17349148 13 18131074826567523052
17492 89 18266465475908730186
17857418 61 18413387648344683282
1813 80 17312827069844692060
18222031 100 18409170974756608354
18335252 114 18261097575049437717
18681886 176 18343580763647277058
200 152 18341895207736687561
20028762 73 18343018857508805678
20511986 3 18340192102684718031
21065198 48 18342182150481261224
21133410 221 14895515936448181345
21267235 1 18412273838850147083
21859007 373 17896300468492192309
23402539 116 18060137609710044113
23522609 53 17973477371884977164
23557571 272 17131847442431878224
23559900 14 18270956955312016849
23569943 247 17897443879076017034
3004659 81 18409446985764791778
34797466 226 17060347352909043176
3633792 109 18337384947226886477
404807 14 17193215365550774966
4073 2 17896604066655312930
4214541 1 18341616996792710169
439807 62 18267866267451405071
504579 68 18339933692273504092
5104073 3 18342464741727145080
559249 180 18339361860185120331
57724786 102 16226335944331975901
67856867 119 18268992162266597904
7495541 125 17632857555243131961

> <PUBCHEM_SHAPE_MULTIPOLES>
523.4
16.43
2.66
1.03
6.14
0.02
0.03
3.96
-1.13
-1.84
0.01
0.47
-0.21
-1.26

> <PUBCHEM_SHAPE_SELFOVERLAP>
1137.1

> <PUBCHEM_SHAPE_VOLUME>
286.9

> <PUBCHEM_COORDINATE_TYPE>
2
5
10

$$$$
