129916
  -OEChem-03292013323D

 25 25  0     1  0  0  0  0  0999 V2000
   -0.0663   -1.5589    0.9991 F   0  0  0  0  0  0  0  0  0  0  0  0
    2.5251   -1.9902    0.2402 O   0  0  0  0  0  0  0  0  0  0  0  0
   -1.8505   -1.2133   -1.4477 O   0  0  0  0  0  0  0  0  0  0  0  0
    4.0568    0.1406   -0.6709 O   0  0  0  0  0  0  0  0  0  0  0  0
   -3.5501   -1.2528    0.0542 O   0  0  0  0  0  0  0  0  0  0  0  0
   -3.5449    1.4915    0.0717 N   0  0  0  0  0  0  0  0  0  0  0  0
   -1.2967    0.9770    0.9058 C   0  0  0  0  0  0  0  0  0  0  0  0
   -2.2931    0.8110   -0.2521 C   0  0  1  0  0  0  0  0  0  0  0  0
    0.1366    0.7467    0.4849 C   0  0  0  0  0  0  0  0  0  0  0  0
    0.6710   -0.5289    0.5589 C   0  0  0  0  0  0  0  0  0  0  0  0
    0.8870    1.8193    0.0326 C   0  0  0  0  0  0  0  0  0  0  0  0
    1.9941   -0.7378    0.1694 C   0  0  0  0  0  0  0  0  0  0  0  0
   -2.6425   -0.6463   -0.5008 C   0  0  0  0  0  0  0  0  0  0  0  0
    2.2098    1.6103   -0.3569 C   0  0  0  0  0  0  0  0  0  0  0  0
    2.7635    0.3318   -0.2885 C   0  0  0  0  0  0  0  0  0  0  0  0
   -1.5486    0.3045    1.7371 H   0  0  0  0  0  0  0  0  0  0  0  0
   -1.3639    1.9912    1.3242 H   0  0  0  0  0  0  0  0  0  0  0  0
   -1.9127    1.2461   -1.1835 H   0  0  0  0  0  0  0  0  0  0  0  0
    0.4642    2.8180   -0.0270 H   0  0  0  0  0  0  0  0  0  0  0  0
    2.8037    2.4476   -0.7132 H   0  0  0  0  0  0  0  0  0  0  0  0
   -3.3682    2.4871    0.2024 H   0  0  0  0  0  0  0  0  0  0  0  0
   -3.9017    1.1537    0.9654 H   0  0  0  0  0  0  0  0  0  0  0  0
    1.8428   -2.5954    0.5791 H   0  0  0  0  0  0  0  0  0  0  0  0
   -2.0907   -2.1500   -1.6120 H   0  0  0  0  0  0  0  0  0  0  0  0
    4.2731   -0.8013   -0.5582 H   0  0  0  0  0  0  0  0  0  0  0  0
  1 10  1  0  0  0  0
  2 12  1  0  0  0  0
  2 23  1  0  0  0  0
  3 13  1  0  0  0  0
  3 24  1  0  0  0  0
  4 15  1  0  0  0  0
  4 25  1  0  0  0  0
  5 13  2  0  0  0  0
  6  8  1  0  0  0  0
  6 21  1  0  0  0  0
  6 22  1  0  0  0  0
  7  8  1  0  0  0  0
  7  9  1  0  0  0  0
  7 16  1  0  0  0  0
  7 17  1  0  0  0  0
  8 13  1  0  0  0  0
  8 18  1  0  0  0  0
  9 10  2  0  0  0  0
  9 11  1  0  0  0  0
 10 12  1  0  0  0  0
 11 14  2  0  0  0  0
 11 19  1  0  0  0  0
 12 15  2  0  0  0  0
 14 15  1  0  0  0  0
 14 20  1  0  0  0  0
M  END
> <PUBCHEM_COMPOUND_CID>
129916

> <PUBCHEM_CONFORMER_RMSD>
0.6

> <PUBCHEM_CONFORMER_DIVERSEORDER>
1
7
10
12
5
13
4
11
9
8
6
2
3

> <PUBCHEM_MMFF94_PARTIAL_CHARGES>
22
1 -0.19
10 0.19
11 -0.15
12 0.08
13 0.66
14 -0.15
15 0.08
19 0.15
2 -0.53
20 0.15
21 0.36
22 0.36
23 0.45
24 0.5
25 0.45
3 -0.65
4 -0.53
5 -0.57
6 -0.99
7 0.14
8 0.33
9 -0.14

> <PUBCHEM_EFFECTIVE_ROTOR_COUNT>
3

> <PUBCHEM_PHARMACOPHORE_FEATURES>
8
1 2 donor
1 3 acceptor
1 4 donor
1 5 acceptor
1 6 cation
1 6 donor
3 3 5 13 anion
6 9 10 11 12 14 15 rings

> <PUBCHEM_HEAVY_ATOM_COUNT>
15

> <PUBCHEM_ATOM_DEF_STEREO_COUNT>
1

> <PUBCHEM_ATOM_UDEF_STEREO_COUNT>
0

> <PUBCHEM_BOND_DEF_STEREO_COUNT>
0

> <PUBCHEM_BOND_UDEF_STEREO_COUNT>
0

> <PUBCHEM_ISOTOPIC_ATOM_COUNT>
0

> <PUBCHEM_COMPONENT_COUNT>
1

> <PUBCHEM_CACTVS_TAUTO_COUNT>
18

> <PUBCHEM_CONFORMER_ID>
0001FB7C00000001

> <PUBCHEM_MMFF94_ENERGY>
26.84

> <PUBCHEM_FEATURE_SELFOVERLAP>
40.658

> <PUBCHEM_SHAPE_FINGERPRINT>
10062212 137 18410002217899443538
11401426 45 18409727348957006352
12932764 1 17845930831310734041
13221675 6 18271243927820368935
14128692 85 18201435908565748456
15375462 189 18200880672658271755
15775835 57 18335144159023747293
16945 1 18267013041140876656
18186145 218 18259701190158616580
18619055 16 18340762624797506797
19422 9 18411983546605998203
20645476 183 18341894078355558903
23402539 116 18408319961336068940
23402655 69 18335985276755448629
23552423 10 18410287038639729953
23559900 14 18131912646813841456
23598291 2 18265329513040478569
25 1 18113900412123818833
2748010 2 17902810883146006368
2871803 45 18264479762625505095
528886 8 18261392230383818144
63268167 104 18336828602215929960
7832392 63 18411980230638564289
90525 40 18130788936796838639

> <PUBCHEM_SHAPE_MULTIPOLES>
272.96
5.78
1.9
0.91
0.82
0.09
-0.06
0.34
-1.23
-0.07
0.07
0.17
0.15
-0.51

> <PUBCHEM_SHAPE_SELFOVERLAP>
573.141

> <PUBCHEM_SHAPE_VOLUME>
153.8

> <PUBCHEM_COORDINATE_TYPE>
2
5
10

$$$$
