129974
  -OEChem-03292013323D

 31 33  0     0  0  0  0  0  0999 V2000
   -3.8473   -1.1999   -0.1069 O   0  0  0  0  0  0  0  0  0  0  0  0
   -3.8473    1.2001    0.1066 O   0  0  0  0  0  0  0  0  0  0  0  0
   -1.4871   -2.7604   -0.2466 O   0  0  0  0  0  0  0  0  0  0  0  0
   -1.4870    2.7606    0.2462 O   0  0  0  0  0  0  0  0  0  0  0  0
    3.4749   -1.4331   -0.1297 O   0  0  0  0  0  0  0  0  0  0  0  0
    3.4750    1.4327    0.1318 O   0  0  0  0  0  0  0  0  0  0  0  0
    1.1044   -2.6624   -0.2426 O   0  0  0  0  0  0  0  0  0  0  0  0
    1.1045    2.6629    0.2374 O   0  0  0  0  0  0  0  0  0  0  0  0
   -0.2072   -0.7004   -0.0628 C   0  0  0  0  0  0  0  0  0  0  0  0
   -0.2072    0.7005    0.0625 C   0  0  0  0  0  0  0  0  0  0  0  0
   -2.5883   -0.6846   -0.0610 C   0  0  0  0  0  0  0  0  0  0  0  0
   -2.5882    0.6847    0.0611 C   0  0  0  0  0  0  0  0  0  0  0  0
   -1.4155   -1.4092   -0.1259 C   0  0  0  0  0  0  0  0  0  0  0  0
   -1.4156    1.4094    0.1258 C   0  0  0  0  0  0  0  0  0  0  0  0
    1.0659   -1.4422   -0.1304 C   0  0  0  0  0  0  0  0  0  0  0  0
    1.0659    1.4424    0.1289 C   0  0  0  0  0  0  0  0  0  0  0  0
    2.3284   -0.6661   -0.0595 C   0  0  0  0  0  0  0  0  0  0  0  0
    2.3285    0.6659    0.0601 C   0  0  0  0  0  0  0  0  0  0  0  0
   -4.6399   -0.0001    0.0024 C   0  0  0  0  0  0  0  0  0  0  0  0
    3.8904   -1.8314    1.1616 C   0  0  0  0  0  0  0  0  0  0  0  0
    3.8926    1.8307   -1.1589 C   0  0  0  0  0  0  0  0  0  0  0  0
   -5.2813    0.0787   -0.8829 H   0  0  0  0  0  0  0  0  0  0  0  0
   -5.2757   -0.0792    0.8917 H   0  0  0  0  0  0  0  0  0  0  0  0
   -0.5999   -3.1489   -0.2769 H   0  0  0  0  0  0  0  0  0  0  0  0
   -0.5997    3.1488    0.2795 H   0  0  0  0  0  0  0  0  0  0  0  0
    4.7875   -2.4488    1.0551 H   0  0  0  0  0  0  0  0  0  0  0  0
    3.1259   -2.4340    1.6642 H   0  0  0  0  0  0  0  0  0  0  0  0
    4.1508   -0.9656    1.7804 H   0  0  0  0  0  0  0  0  0  0  0  0
    3.1290    2.4332   -1.6630 H   0  0  0  0  0  0  0  0  0  0  0  0
    4.1541    0.9646   -1.7771 H   0  0  0  0  0  0  0  0  0  0  0  0
    4.7895    2.4481   -1.0511 H   0  0  0  0  0  0  0  0  0  0  0  0
  1 11  1  0  0  0  0
  1 19  1  0  0  0  0
  2 12  1  0  0  0  0
  2 19  1  0  0  0  0
  3 13  1  0  0  0  0
  3 24  1  0  0  0  0
  4 14  1  0  0  0  0
  4 25  1  0  0  0  0
  5 17  1  0  0  0  0
  5 20  1  0  0  0  0
  6 18  1  0  0  0  0
  6 21  1  0  0  0  0
  7 15  2  0  0  0  0
  8 16  2  0  0  0  0
  9 10  2  0  0  0  0
  9 13  1  0  0  0  0
  9 15  1  0  0  0  0
 10 14  1  0  0  0  0
 10 16  1  0  0  0  0
 11 12  1  0  0  0  0
 11 13  2  0  0  0  0
 12 14  2  0  0  0  0
 15 17  1  0  0  0  0
 16 18  1  0  0  0  0
 17 18  2  0  0  0  0
 19 22  1  0  0  0  0
 19 23  1  0  0  0  0
 20 26  1  0  0  0  0
 20 27  1  0  0  0  0
 20 28  1  0  0  0  0
 21 29  1  0  0  0  0
 21 30  1  0  0  0  0
 21 31  1  0  0  0  0
M  END
> <PUBCHEM_COMPOUND_CID>
129974

> <PUBCHEM_CONFORMER_RMSD>
0.6

> <PUBCHEM_CONFORMER_DIVERSEORDER>
1
2

> <PUBCHEM_MMFF94_PARTIAL_CHARGES>
23
1 -0.36
10 0.09
11 0.08
12 0.08
13 0.08
14 0.08
15 0.47
16 0.47
17 0.09
18 0.09
19 0.56
2 -0.36
20 0.28
21 0.28
24 0.45
25 0.45
3 -0.53
4 -0.53
5 -0.36
6 -0.36
7 -0.57
8 -0.57
9 0.09

> <PUBCHEM_EFFECTIVE_ROTOR_COUNT>
2.6

> <PUBCHEM_PHARMACOPHORE_FEATURES>
11
1 1 acceptor
1 2 acceptor
1 3 donor
1 4 donor
1 5 acceptor
1 6 acceptor
1 7 acceptor
1 8 acceptor
5 1 2 11 12 19 rings
6 9 10 11 12 13 14 rings
6 9 10 15 16 17 18 rings

> <PUBCHEM_HEAVY_ATOM_COUNT>
21

> <PUBCHEM_ATOM_DEF_STEREO_COUNT>
0

> <PUBCHEM_ATOM_UDEF_STEREO_COUNT>
0

> <PUBCHEM_BOND_DEF_STEREO_COUNT>
0

> <PUBCHEM_BOND_UDEF_STEREO_COUNT>
0

> <PUBCHEM_ISOTOPIC_ATOM_COUNT>
0

> <PUBCHEM_COMPONENT_COUNT>
1

> <PUBCHEM_CACTVS_TAUTO_COUNT>
8

> <PUBCHEM_CONFORMER_ID>
0001FBB600000001

> <PUBCHEM_MMFF94_ENERGY>
72.8128

> <PUBCHEM_FEATURE_SELFOVERLAP>
56.019

> <PUBCHEM_SHAPE_FINGERPRINT>
10062212 137 18341040853026939435
10411042 1 17762903165182367071
10616163 171 18266744768930862527
10759866 29 18187652439885528044
10967382 1 18339642342618067105
10980938 120 18410857667778320738
11132069 177 18272645697634561275
11471102 20 18411414021004834389
11578080 2 17386829665439397884
12403260 363 18337944585159278527
12553582 1 18341891926255189861
12644460 14 18334585649992579352
12788726 201 17988375788178549257
13140716 1 18411131480512724858
13221675 6 18412545435407020381
14178342 30 17979897630273295178
14790565 3 18340222833540503809
15196674 1 18410855460518493445
15442244 35 18410572842964444114
15536298 74 18343019990767267462
16945 1 18412826884656105735
17804303 29 18342175527451559202
1813 80 17386273287392411954
19591789 44 18411702045464098279
20510252 161 18129658578297393408
20645477 70 18408884018694908735
20715895 44 17973995160030440621
20739085 24 18120683286682138081
21267235 1 18411427176120838483
21501502 16 18411138034621781472
2334 1 17979916330386886639
23402539 116 18198890449079903447
23463225 33 18409164381559685930
23559900 14 18199468771027316710
2748010 2 17980478193681985513
335352 9 18339360743298269391
34934 24 18340763866127386396
350125 39 18337675191846684124
4409770 3 16670197450299636910
474 4 17531817994770962020
5104073 3 18410857659578692721
7364860 26 18342175565842410244
8809292 202 18333735706246002971
9709674 26 18340492170707352031
9981440 41 17828483901619717824

> <PUBCHEM_SHAPE_MULTIPOLES>
385.22
7.3
2.91
0.74
1.45
0
0
0
0
-1.15
0
-0.52
0
-0.89

> <PUBCHEM_SHAPE_SELFOVERLAP>
865.302

> <PUBCHEM_SHAPE_VOLUME>
203.3

> <PUBCHEM_COORDINATE_TYPE>
2
5
10

$$$$
