129977
  -OEChem-03292013323D

 62 67  0     1  0  0  0  0  0999 V2000
   -2.5051    2.4024    0.7924 O   0  0  0  0  0  0  0  0  0  0  0  0
   -2.9887   -0.1833    1.9284 O   0  0  0  0  0  0  0  0  0  0  0  0
   -3.2963   -2.9808   -0.9787 O   0  0  0  0  0  0  0  0  0  0  0  0
    3.1798    2.8950   -0.9927 O   0  0  0  0  0  0  0  0  0  0  0  0
   -0.6507    2.5001   -1.1468 O   0  0  0  0  0  0  0  0  0  0  0  0
    0.1182   -1.6237    0.1219 O   0  0  0  0  0  0  0  0  0  0  0  0
   -0.8263    0.1295    2.6312 O   0  0  0  0  0  0  0  0  0  0  0  0
    2.5379   -0.8545    1.2272 O   0  0  0  0  0  0  0  0  0  0  0  0
   -0.4542    3.8916    0.6866 O   0  0  0  0  0  0  0  0  0  0  0  0
    3.1117   -3.0669    0.8912 O   0  0  0  0  0  0  0  0  0  0  0  0
   -1.6436    1.2621    0.6715 C   0  0  1  0  0  0  0  0  0  0  0  0
   -3.0219    1.2740    0.0788 C   0  0  1  0  0  0  0  0  0  0  0  0
   -3.8268    0.2813    0.8456 C   0  0  1  0  0  0  0  0  0  0  0  0
   -0.4903    1.3547   -0.3001 C   0  0  2  0  0  0  0  0  0  0  0  0
   -3.1577   -1.5771   -0.7396 C   0  0  1  0  0  0  0  0  0  0  0  0
   -4.2775   -0.9337    0.0221 C   0  0  0  0  0  0  0  0  0  0  0  0
    2.0225    0.8043   -0.5086 C   0  0  1  0  0  0  0  0  0  0  0  0
    0.8965    1.4414    0.3610 C   0  0  0  0  0  0  0  0  0  0  0  0
   -1.7287    0.3484    1.8390 C   0  0  0  0  0  0  0  0  0  0  0  0
   -2.2326   -2.5913   -0.0936 C   0  0  2  0  0  0  0  0  0  0  0  0
    3.2906    1.6261   -0.3651 C   0  0  1  0  0  0  0  0  0  0  0  0
    2.3387   -0.6832   -0.1744 C   0  0  2  0  0  0  0  0  0  0  0  0
    4.0729    1.9435   -1.5859 C   0  0  0  0  0  0  0  0  0  0  0  0
   -2.7963   -0.9042   -2.0295 C   0  0  0  0  0  0  0  0  0  0  0  0
   -0.7478   -2.4709   -0.4963 C   0  0  0  0  0  0  0  0  0  0  0  0
    3.8966    1.6413    0.9701 C   0  0  0  0  0  0  0  0  0  0  0  0
    1.2738   -1.6320   -0.5981 C   0  0  0  0  0  0  0  0  0  0  0  0
   -0.1260   -3.1032   -1.5492 C   0  0  0  0  0  0  0  0  0  0  0  0
    1.1816   -2.5582   -1.6168 C   0  0  0  0  0  0  0  0  0  0  0  0
   -0.6108    3.7055   -0.5124 C   0  0  0  0  0  0  0  0  0  0  0  0
    2.2291   -2.9037   -2.5971 C   0  0  0  0  0  0  0  0  0  0  0  0
    2.9254   -2.1037    1.6225 C   0  0  0  0  0  0  0  0  0  0  0  0
   -0.7902    4.8041   -1.5160 C   0  0  0  0  0  0  0  0  0  0  0  0
    3.0961   -2.1348    3.1112 C   0  0  0  0  0  0  0  0  0  0  0  0
   -3.2742    1.4472   -0.9507 H   0  0  0  0  0  0  0  0  0  0  0  0
   -4.7019    0.7644    1.2939 H   0  0  0  0  0  0  0  0  0  0  0  0
   -0.5032    0.4901   -0.9549 H   0  0  0  0  0  0  0  0  0  0  0  0
   -4.7251   -1.6705    0.7016 H   0  0  0  0  0  0  0  0  0  0  0  0
   -5.0672   -0.6278   -0.6749 H   0  0  0  0  0  0  0  0  0  0  0  0
    1.7118    0.8539   -1.5622 H   0  0  0  0  0  0  0  0  0  0  0  0
    0.8948    0.9363    1.3272 H   0  0  0  0  0  0  0  0  0  0  0  0
    1.1929    2.4642    0.5933 H   0  0  0  0  0  0  0  0  0  0  0  0
   -2.3808   -2.8211    0.9554 H   0  0  0  0  0  0  0  0  0  0  0  0
    3.2759   -0.9491   -0.6834 H   0  0  0  0  0  0  0  0  0  0  0  0
    5.1354    2.1302   -1.4917 H   0  0  0  0  0  0  0  0  0  0  0  0
    3.7825    1.5059   -2.5325 H   0  0  0  0  0  0  0  0  0  0  0  0
   -2.0471   -0.1297   -1.9357 H   0  0  0  0  0  0  0  0  0  0  0  0
   -2.4099   -1.6199   -2.7658 H   0  0  0  0  0  0  0  0  0  0  0  0
   -3.6807   -0.4538   -2.4949 H   0  0  0  0  0  0  0  0  0  0  0  0
    3.1652    1.7243    1.7793 H   0  0  0  0  0  0  0  0  0  0  0  0
    4.5018    0.7447    1.1394 H   0  0  0  0  0  0  0  0  0  0  0  0
    4.5782    2.4933    1.0841 H   0  0  0  0  0  0  0  0  0  0  0  0
   -0.5706   -3.8320   -2.2123 H   0  0  0  0  0  0  0  0  0  0  0  0
    3.1005   -3.3355   -2.0947 H   0  0  0  0  0  0  0  0  0  0  0  0
    1.8666   -3.6338   -3.3281 H   0  0  0  0  0  0  0  0  0  0  0  0
    2.5535   -2.0132   -3.1452 H   0  0  0  0  0  0  0  0  0  0  0  0
   -1.7590    4.6992   -2.0108 H   0  0  0  0  0  0  0  0  0  0  0  0
    0.0218    4.7741   -2.2468 H   0  0  0  0  0  0  0  0  0  0  0  0
   -0.7632    5.7703   -1.0042 H   0  0  0  0  0  0  0  0  0  0  0  0
    2.1460   -1.8985    3.5969 H   0  0  0  0  0  0  0  0  0  0  0  0
    3.8692   -1.4225    3.4099 H   0  0  0  0  0  0  0  0  0  0  0  0
    3.4063   -3.1370    3.4202 H   0  0  0  0  0  0  0  0  0  0  0  0
  1 11  1  0  0  0  0
  1 12  1  0  0  0  0
  2 13  1  0  0  0  0
  2 19  1  0  0  0  0
  3 15  1  0  0  0  0
  3 20  1  0  0  0  0
  4 21  1  0  0  0  0
  4 23  1  0  0  0  0
  5 14  1  0  0  0  0
  5 30  1  0  0  0  0
  6 25  1  0  0  0  0
  6 27  1  0  0  0  0
  7 19  2  0  0  0  0
  8 22  1  0  0  0  0
  8 32  1  0  0  0  0
  9 30  2  0  0  0  0
 10 32  2  0  0  0  0
 11 12  1  0  0  0  0
 11 14  1  0  0  0  0
 11 19  1  0  0  0  0
 12 13  1  0  0  0  0
 12 35  1  0  0  0  0
 13 16  1  0  0  0  0
 13 36  1  0  0  0  0
 14 18  1  0  0  0  0
 14 37  1  0  0  0  0
 15 16  1  0  0  0  0
 15 20  1  0  0  0  0
 15 24  1  0  0  0  0
 16 38  1  0  0  0  0
 16 39  1  0  0  0  0
 17 18  1  0  0  0  0
 17 21  1  0  0  0  0
 17 22  1  0  0  0  0
 17 40  1  0  0  0  0
 18 41  1  0  0  0  0
 18 42  1  0  0  0  0
 20 25  1  0  0  0  0
 20 43  1  0  0  0  0
 21 23  1  0  0  0  0
 21 26  1  0  0  0  0
 22 27  1  0  0  0  0
 22 44  1  0  0  0  0
 23 45  1  0  0  0  0
 23 46  1  0  0  0  0
 24 47  1  0  0  0  0
 24 48  1  0  0  0  0
 24 49  1  0  0  0  0
 25 28  2  0  0  0  0
 26 50  1  0  0  0  0
 26 51  1  0  0  0  0
 26 52  1  0  0  0  0
 27 29  2  0  0  0  0
 28 29  1  0  0  0  0
 28 53  1  0  0  0  0
 29 31  1  0  0  0  0
 30 33  1  0  0  0  0
 31 54  1  0  0  0  0
 31 55  1  0  0  0  0
 31 56  1  0  0  0  0
 32 34  1  0  0  0  0
 33 57  1  0  0  0  0
 33 58  1  0  0  0  0
 33 59  1  0  0  0  0
 34 60  1  0  0  0  0
 34 61  1  0  0  0  0
 34 62  1  0  0  0  0
M  END
> <PUBCHEM_COMPOUND_CID>
129977

> <PUBCHEM_CONFORMER_RMSD>
1

> <PUBCHEM_CONFORMER_DIVERSEORDER>
1
4
13
11
3
8
7
10
2
12
6
9
5

> <PUBCHEM_MMFF94_PARTIAL_CHARGES>
38
1 -0.3
10 -0.57
11 0.05
12 -0.05
13 0.38
14 0.38
15 -0.04
16 0.09
17 0.09
19 0.72
2 -0.43
20 0.13
21 -0.04
22 0.46
23 -0.05
24 0.09
25 0.05
26 0.09
27 -0.04
28 -0.15
29 -0.18
3 -0.3
30 0.66
31 0.18
32 0.66
33 0.06
34 0.06
35 0.1
4 -0.3
43 0.1
45 0.1
46 0.1
5 -0.43
53 0.15
6 -0.28
7 -0.57
8 -0.43
9 -0.57

> <PUBCHEM_EFFECTIVE_ROTOR_COUNT>
7.2

> <PUBCHEM_PHARMACOPHORE_FEATURES>
9
1 1 acceptor
1 10 acceptor
1 3 acceptor
1 4 acceptor
1 6 acceptor
1 7 acceptor
1 9 acceptor
5 6 25 27 28 29 rings
6 1 2 11 12 13 19 rings

> <PUBCHEM_HEAVY_ATOM_COUNT>
34

> <PUBCHEM_ATOM_DEF_STEREO_COUNT>
6

> <PUBCHEM_ATOM_UDEF_STEREO_COUNT>
3

> <PUBCHEM_BOND_DEF_STEREO_COUNT>
0

> <PUBCHEM_BOND_UDEF_STEREO_COUNT>
0

> <PUBCHEM_ISOTOPIC_ATOM_COUNT>
0

> <PUBCHEM_COMPONENT_COUNT>
1

> <PUBCHEM_CACTVS_TAUTO_COUNT>
1

> <PUBCHEM_CONFORMER_ID>
0001FBB900000001

> <PUBCHEM_MMFF94_ENERGY>
85.7837

> <PUBCHEM_FEATURE_SELFOVERLAP>
45.694

> <PUBCHEM_SHAPE_FINGERPRINT>
11578080 2 15719952411311714742
12035759 4 18195527218940301486
12156800 1 16392036534325455013
12553582 1 18340490083653569133
13140716 1 18339642235476006443
13583140 156 17749391433890854203
13965767 371 18343029852234031176
14114207 22 16039911630222983803
14117953 113 18340486639021194045
14725015 67 17901108521334453753
14840074 17 18266194991990336537
14955137 171 17908462308161159657
15219462 58 17387720244029836000
15297060 5 17702680980387375746
17492 54 18265046023808528527
19319366 153 17755570887239973894
20600515 1 17628060515087036656
20715895 44 18049424969294578629
20764821 26 17329718613098953134
23559900 14 17844815784760374951
25222932 49 17970361514560839667
35225 105 17560791134878566212
469060 322 17535464052173646783
508706 21 17908702830667141359
6287921 2 18130523936908785887

> <PUBCHEM_SHAPE_MULTIPOLES>
641.01
6.68
5.36
2.29
0.22
3.28
0.78
-0.78
0.86
0.85
-2.34
1.16
-1.28
-1.56

> <PUBCHEM_SHAPE_SELFOVERLAP>
1394.933

> <PUBCHEM_SHAPE_VOLUME>
348

> <PUBCHEM_COORDINATE_TYPE>
2
5
10

$$$$
