129912
  -OEChem-03292013323D

 27 28  0     1  0  0  0  0  0999 V2000
    0.7544   -0.0062    0.1576 O   0  0  0  0  0  0  0  0  0  0  0  0
   -0.0574    2.7451   -0.1152 O   0  0  0  0  0  0  0  0  0  0  0  0
    3.3845   -0.6030   -0.4226 O   0  0  0  0  0  0  0  0  0  0  0  0
   -1.1301   -1.9347    0.2671 O   0  0  0  0  0  0  0  0  0  0  0  0
   -5.0689   -0.9954   -0.0867 O   0  5  0  0  0  0  0  0  0  0  0  0
   -3.5057   -2.5187    0.1846 O   0  0  0  0  0  0  0  0  0  0  0  0
    5.2885   -0.3233    0.6796 O   0  5  0  0  0  0  0  0  0  0  0  0
    5.0419   -2.1515   -0.5729 O   0  0  0  0  0  0  0  0  0  0  0  0
   -3.8669   -1.3287    0.0314 N   0  3  0  0  0  0  0  0  0  0  0  0
    4.6836   -1.0781   -0.0829 N   0  3  0  0  0  0  0  0  0  0  0  0
    1.6523    1.0333   -0.2550 C   0  0  1  0  0  0  0  0  0  0  0  0
    1.2304    2.3553    0.3724 C   0  0  0  0  0  0  0  0  0  0  0  0
   -0.5576    0.3741    0.0546 C   0  0  0  0  0  0  0  0  0  0  0  0
    3.0542    0.6351    0.1826 C   0  0  0  0  0  0  0  0  0  0  0  0
   -0.9505    1.7066   -0.0888 C   0  0  0  0  0  0  0  0  0  0  0  0
   -1.5186   -0.6359    0.1090 C   0  0  0  0  0  0  0  0  0  0  0  0
   -2.3019    2.0261   -0.2225 C   0  0  0  0  0  0  0  0  0  0  0  0
   -2.8708   -0.3142   -0.0107 C   0  0  0  0  0  0  0  0  0  0  0  0
   -3.2614    1.0142   -0.1817 C   0  0  0  0  0  0  0  0  0  0  0  0
    1.6094    1.0837   -1.3517 H   0  0  0  0  0  0  0  0  0  0  0  0
    1.1823    2.2927    1.4672 H   0  0  0  0  0  0  0  0  0  0  0  0
    1.9344    3.1516    0.1090 H   0  0  0  0  0  0  0  0  0  0  0  0
    3.0694    0.5218    1.2745 H   0  0  0  0  0  0  0  0  0  0  0  0
    3.7630    1.4137   -0.1254 H   0  0  0  0  0  0  0  0  0  0  0  0
   -2.6150    3.0592   -0.3471 H   0  0  0  0  0  0  0  0  0  0  0  0
   -4.3047    1.3029   -0.2830 H   0  0  0  0  0  0  0  0  0  0  0  0
   -1.7806   -2.5331   -0.1315 H   0  0  0  0  0  0  0  0  0  0  0  0
  1 11  1  0  0  0  0
  1 13  1  0  0  0  0
  2 12  1  0  0  0  0
  2 15  1  0  0  0  0
  3 10  1  0  0  0  0
  3 14  1  0  0  0  0
  4 16  1  0  0  0  0
  4 27  1  0  0  0  0
  5  9  1  0  0  0  0
  6  9  2  0  0  0  0
  7 10  1  0  0  0  0
  8 10  2  0  0  0  0
  9 18  1  0  0  0  0
 11 12  1  0  0  0  0
 11 14  1  0  0  0  0
 11 20  1  0  0  0  0
 12 21  1  0  0  0  0
 12 22  1  0  0  0  0
 13 15  2  0  0  0  0
 13 16  1  0  0  0  0
 14 23  1  0  0  0  0
 14 24  1  0  0  0  0
 15 17  1  0  0  0  0
 16 18  2  0  0  0  0
 17 19  2  0  0  0  0
 17 25  1  0  0  0  0
 18 19  1  0  0  0  0
 19 26  1  0  0  0  0
M  CHG  4   5  -1   7  -1   9   1  10   1
M  END
> <PUBCHEM_COMPOUND_CID>
129912

> <PUBCHEM_CONFORMER_RMSD>
0.6

> <PUBCHEM_CONFORMER_DIVERSEORDER>
1
5
6
4
10
14
17
3
13
11
16
2
8
9
20
19
18
7
15
12

> <PUBCHEM_MMFF94_PARTIAL_CHARGES>
22
1 -0.36
10 1.03
11 0.28
12 0.28
13 0.08
14 0.28
15 0.08
16 0.08
17 -0.15
18 0.13
19 -0.15
2 -0.36
25 0.15
26 0.15
27 0.45
3 -0.27
4 -0.53
5 -0.52
6 -0.52
7 -0.52
8 -0.52
9 0.91

> <PUBCHEM_EFFECTIVE_ROTOR_COUNT>
4.8

> <PUBCHEM_PHARMACOPHORE_FEATURES>
10
1 1 acceptor
1 2 acceptor
1 4 donor
1 5 acceptor
1 5 anion
1 6 acceptor
1 7 acceptor
1 8 acceptor
6 1 2 11 12 13 15 rings
6 13 15 16 17 18 19 rings

> <PUBCHEM_HEAVY_ATOM_COUNT>
19

> <PUBCHEM_ATOM_DEF_STEREO_COUNT>
0

> <PUBCHEM_ATOM_UDEF_STEREO_COUNT>
1

> <PUBCHEM_BOND_DEF_STEREO_COUNT>
0

> <PUBCHEM_BOND_UDEF_STEREO_COUNT>
0

> <PUBCHEM_ISOTOPIC_ATOM_COUNT>
0

> <PUBCHEM_COMPONENT_COUNT>
1

> <PUBCHEM_CACTVS_TAUTO_COUNT>
4

> <PUBCHEM_CONFORMER_ID>
0001FB7800000001

> <PUBCHEM_MMFF94_ENERGY>
67.0262

> <PUBCHEM_FEATURE_SELFOVERLAP>
50.941

> <PUBCHEM_SHAPE_FINGERPRINT>
10693767 8 18055896918137953695
11458722 379 18334296426953057498
12032990 46 18410856576883235113
12403259 226 18339356469922289229
13140716 1 18341618126680871761
13288520 33 18411139121311875996
13690532 89 18410011056868123081
13862211 1 18410006645974029643
14115302 16 17749395917773212774
14790565 3 17475518270227265137
14866123 147 18197222438690947833
15042514 8 18338241466384419401
15196674 1 18410292518875815164
15352361 1 18411138039244030294
16945 1 17905328782011816509
17804303 29 18411702084129372893
1813 80 17676203580928746836
19141452 34 18202283645374796599
193927 3 18259994789796420338
200 152 17774995782857793285
20281475 54 18411426111269707396
20374829 77 18407755941155030075
20403669 9 18413394232550972182
20645477 70 18191861438979104543
20871998 22 18339359781004529376
21267235 1 18409174311181436283
221490 88 18191310578941792779
2297311 6 18270973353934703972
23366157 5 17969502796000670852
23402539 116 18341324513983690069
23403322 49 18410575050572430950
23557571 272 18200320918171068110
23559900 14 18269269081000035992
2748010 2 18264756822471040821
3004659 81 18186804673713549910
3286 77 17417529237078091553
335352 9 18410292502434320733
3421961 26 18269273628716443848
4214541 1 18410292476221391892
4416823 128 18410574010995406752
5104073 3 18413108372523396720
559249 180 18188203178957094786
59755656 215 18335417916324256071
7364860 26 18124314058618353040
76465 3 18271239538437658671
8809292 202 18407762538261798033
9709674 26 18191306189606730491

> <PUBCHEM_SHAPE_MULTIPOLES>
334.09
9.43
2.69
0.63
8.26
0.25
0
-6.96
-0.17
-0.63
-0.03
0.18
0.02
0.56

> <PUBCHEM_SHAPE_SELFOVERLAP>
716.949

> <PUBCHEM_SHAPE_VOLUME>
183.5

> <PUBCHEM_COORDINATE_TYPE>
2
5
10

$$$$
