129991
  -OEChem-03292013323D

 39 39  0     0  0  0  0  0  0999 V2000
   -0.0001   -2.3665   -0.0009 Cl  0  0  0  0  0  0  0  0  0  0  0  0
    6.0640   -0.4547    0.0002 O   0  0  0  0  0  0  0  0  0  0  0  0
   -6.0641   -0.4547    0.0013 O   0  0  0  0  0  0  0  0  0  0  0  0
    4.0133    1.1548   -0.0014 O   0  0  0  0  0  0  0  0  0  0  0  0
   -4.0135    1.1549    0.0024 O   0  0  0  0  0  0  0  0  0  0  0  0
    7.1331   -2.5028    0.0038 O   0  0  0  0  0  0  0  0  0  0  0  0
   -7.1331   -2.5028   -0.0030 O   0  0  0  0  0  0  0  0  0  0  0  0
    2.4388   -0.5976    0.0019 N   0  0  0  0  0  0  0  0  0  0  0  0
   -2.4389   -0.5973   -0.0040 N   0  0  0  0  0  0  0  0  0  0  0  0
    0.0004    4.7487    0.0007 N   0  0  0  0  0  0  0  0  0  0  0  0
    1.2079    0.0666    0.0007 C   0  0  0  0  0  0  0  0  0  0  0  0
   -1.2080    0.0669   -0.0035 C   0  0  0  0  0  0  0  0  0  0  0  0
   -0.0001   -0.6306   -0.0017 C   0  0  0  0  0  0  0  0  0  0  0  0
    1.2081    1.4615    0.0013 C   0  0  0  0  0  0  0  0  0  0  0  0
   -1.2078    1.4618   -0.0028 C   0  0  0  0  0  0  0  0  0  0  0  0
    0.0002    2.1591   -0.0004 C   0  0  0  0  0  0  0  0  0  0  0  0
    3.7208   -0.0371    0.0036 C   0  0  0  0  0  0  0  0  0  0  0  0
   -3.7209   -0.0370   -0.0040 C   0  0  0  0  0  0  0  0  0  0  0  0
    4.8042   -1.0937    0.0045 C   0  0  0  0  0  0  0  0  0  0  0  0
   -4.8042   -1.0935   -0.0047 C   0  0  0  0  0  0  0  0  0  0  0  0
    0.0003    3.5881    0.0002 C   0  0  0  0  0  0  0  0  0  0  0  0
    7.1599   -1.2795    0.0004 C   0  0  0  0  0  0  0  0  0  0  0  0
   -7.1599   -1.2794    0.0015 C   0  0  0  0  0  0  0  0  0  0  0  0
    8.4195   -0.4676   -0.0049 C   0  0  0  0  0  0  0  0  0  0  0  0
   -8.4196   -0.4677    0.0088 C   0  0  0  0  0  0  0  0  0  0  0  0
    2.1019    2.0683    0.0037 H   0  0  0  0  0  0  0  0  0  0  0  0
   -2.1016    2.0687   -0.0049 H   0  0  0  0  0  0  0  0  0  0  0  0
    2.3804   -1.6138    0.0025 H   0  0  0  0  0  0  0  0  0  0  0  0
   -2.3805   -1.6134   -0.0054 H   0  0  0  0  0  0  0  0  0  0  0  0
    4.6920   -1.7135   -0.8922 H   0  0  0  0  0  0  0  0  0  0  0  0
    4.6952   -1.7081    0.9052 H   0  0  0  0  0  0  0  0  0  0  0  0
   -4.6910   -1.7140    0.8914 H   0  0  0  0  0  0  0  0  0  0  0  0
   -4.6961   -1.7071   -0.9061 H   0  0  0  0  0  0  0  0  0  0  0  0
    9.2837   -1.1381   -0.0035 H   0  0  0  0  0  0  0  0  0  0  0  0
    8.4611    0.1565    0.8912 H   0  0  0  0  0  0  0  0  0  0  0  0
    8.4582    0.1492   -0.9061 H   0  0  0  0  0  0  0  0  0  0  0  0
   -8.4621    0.1573   -0.8866 H   0  0  0  0  0  0  0  0  0  0  0  0
   -9.2837   -1.1382    0.0076 H   0  0  0  0  0  0  0  0  0  0  0  0
   -8.4575    0.1482    0.9108 H   0  0  0  0  0  0  0  0  0  0  0  0
  1 13  1  0  0  0  0
  2 19  1  0  0  0  0
  2 22  1  0  0  0  0
  3 20  1  0  0  0  0
  3 23  1  0  0  0  0
  4 17  2  0  0  0  0
  5 18  2  0  0  0  0
  6 22  2  0  0  0  0
  7 23  2  0  0  0  0
  8 11  1  0  0  0  0
  8 17  1  0  0  0  0
  8 28  1  0  0  0  0
  9 12  1  0  0  0  0
  9 18  1  0  0  0  0
  9 29  1  0  0  0  0
 10 21  3  0  0  0  0
 11 13  2  0  0  0  0
 11 14  1  0  0  0  0
 12 13  1  0  0  0  0
 12 15  2  0  0  0  0
 14 16  2  0  0  0  0
 14 26  1  0  0  0  0
 15 16  1  0  0  0  0
 15 27  1  0  0  0  0
 16 21  1  0  0  0  0
 17 19  1  0  0  0  0
 18 20  1  0  0  0  0
 19 30  1  0  0  0  0
 19 31  1  0  0  0  0
 20 32  1  0  0  0  0
 20 33  1  0  0  0  0
 22 24  1  0  0  0  0
 23 25  1  0  0  0  0
 24 34  1  0  0  0  0
 24 35  1  0  0  0  0
 24 36  1  0  0  0  0
 25 37  1  0  0  0  0
 25 38  1  0  0  0  0
 25 39  1  0  0  0  0
M  END
> <PUBCHEM_COMPOUND_CID>
129991

> <PUBCHEM_CONFORMER_RMSD>
1

> <PUBCHEM_CONFORMER_DIVERSEORDER>
1
10
13
11
14
21
7
22
9
6
4
16
20
18
12
15
17
3
8
5
19
2

> <PUBCHEM_MMFF94_PARTIAL_CHARGES>
29
1 -0.18
10 -0.56
11 0.12
12 0.12
13 0.18
14 -0.15
15 -0.15
16 0.07
17 0.57
18 0.57
19 0.34
2 -0.43
20 0.34
21 0.48
22 0.66
23 0.66
24 0.06
25 0.06
26 0.15
27 0.15
28 0.37
29 0.37
3 -0.43
4 -0.57
5 -0.57
6 -0.57
7 -0.57
8 -0.55
9 -0.55

> <PUBCHEM_EFFECTIVE_ROTOR_COUNT>
10

> <PUBCHEM_PHARMACOPHORE_FEATURES>
8
1 10 acceptor
1 4 acceptor
1 5 acceptor
1 6 acceptor
1 7 acceptor
1 8 donor
1 9 donor
6 11 12 13 14 15 16 rings

> <PUBCHEM_HEAVY_ATOM_COUNT>
25

> <PUBCHEM_ATOM_DEF_STEREO_COUNT>
0

> <PUBCHEM_ATOM_UDEF_STEREO_COUNT>
0

> <PUBCHEM_BOND_DEF_STEREO_COUNT>
0

> <PUBCHEM_BOND_UDEF_STEREO_COUNT>
0

> <PUBCHEM_ISOTOPIC_ATOM_COUNT>
0

> <PUBCHEM_COMPONENT_COUNT>
1

> <PUBCHEM_CACTVS_TAUTO_COUNT>
3

> <PUBCHEM_CONFORMER_ID>
0001FBC700000001

> <PUBCHEM_MMFF94_ENERGY>
55.8868

> <PUBCHEM_FEATURE_SELFOVERLAP>
40.599

> <PUBCHEM_SHAPE_FINGERPRINT>
10050765 1 17978229357881323498
10411042 1 18410856563940668229
12166972 35 17966972733629021900
13617811 41 18337685152629939086
13685833 64 18412545414011565034
13862211 1 18410858758663298470
14251764 18 18272937128424487938
14251764 46 17418094317330321839
15131766 46 15623942141578811024
15849732 13 18272368689423858303
15927050 60 17692815208342878821
16087824 20 18410855418075443653
17492 89 18121778327507635938
18006028 8 18410011039498271892
18335252 98 18342457028994872902
18681886 176 18340761633156024963
20238998 120 18342737407864055489
21150785 3 16515684442157315870
21267235 1 18410576188469699974
21304303 172 18271530810430567529
21792934 111 18342449357160130232
21792961 116 18188481385595464831
22224240 67 15985382291609843166
23402539 116 18342734096680640230
23559900 14 18265328590287232921
283562 15 18264209114976387832
3004659 81 18040151825448272896
3178227 256 18337684113216431891
335352 9 18410012164880352807
350125 39 18339924810618894800
5219985 9 18410855460133832816
6138700 20 18409167692663369339
77188 2 18410856589827062308

> <PUBCHEM_SHAPE_MULTIPOLES>
466.2
21.83
3.38
0.58
0
4.48
0
-18.91
-0.02
0
0
0
0
0

> <PUBCHEM_SHAPE_SELFOVERLAP>
953.282

> <PUBCHEM_SHAPE_VOLUME>
265.8

> <PUBCHEM_COORDINATE_TYPE>
2
5
10

$$$$
