12997926
  -OEChem-03292013303D

 44 47  0     1  0  0  0  0  0999 V2000
   -2.9339   -0.7964   -1.0038 O   0  0  0  0  0  0  0  0  0  0  0  0
   -1.3142   -2.5451    1.2429 O   0  0  0  0  0  0  0  0  0  0  0  0
   -4.1769   -0.4189    1.6984 O   0  0  0  0  0  0  0  0  0  0  0  0
   -5.3885   -1.5565   -2.1278 O   0  0  0  0  0  0  0  0  0  0  0  0
   -1.3618    0.7472   -0.1275 N   0  0  0  0  0  0  0  0  0  0  0  0
   -1.5846    2.9629   -0.0203 N   0  0  0  0  0  0  0  0  0  0  0  0
    1.0602    0.5690   -0.0767 N   0  0  0  0  0  0  0  0  0  0  0  0
    2.1081    2.7687    0.0621 N   0  0  0  0  0  0  0  0  0  0  0  0
    3.3869    0.8073   -0.0046 N   0  0  0  0  0  0  0  0  0  0  0  0
    0.8372    4.7952    0.1352 N   0  0  0  0  0  0  0  0  0  0  0  0
   -2.0125   -1.3054    1.1542 C   0  0  1  0  0  0  0  0  0  0  0  0
   -1.7407   -0.6647   -0.2101 C   0  0  1  0  0  0  0  0  0  0  0  0
   -3.5096   -1.5515    1.1561 C   0  0  2  0  0  0  0  0  0  0  0  0
   -3.8240   -1.6994   -0.3277 C   0  0  1  0  0  0  0  0  0  0  0  0
   -5.2546   -1.3855   -0.7260 C   0  0  0  0  0  0  0  0  0  0  0  0
   -0.0941    1.2524   -0.0702 C   0  0  0  0  0  0  0  0  0  0  0  0
   -2.2217    1.8130   -0.0954 C   0  0  0  0  0  0  0  0  0  0  0  0
   -0.2540    2.6273   -0.0037 C   0  0  0  0  0  0  0  0  0  0  0  0
    0.9056    3.3929    0.0644 C   0  0  0  0  0  0  0  0  0  0  0  0
    2.1107    1.4155   -0.0072 C   0  0  0  0  0  0  0  0  0  0  0  0
    3.8000   -0.5356   -0.0616 C   0  0  0  0  0  0  0  0  0  0  0  0
    5.0211   -0.8700   -0.6523 C   0  0  0  0  0  0  0  0  0  0  0  0
    2.9908   -1.5418    0.4718 C   0  0  0  0  0  0  0  0  0  0  0  0
    5.4303   -2.2022   -0.7094 C   0  0  0  0  0  0  0  0  0  0  0  0
    3.4002   -2.8741    0.4149 C   0  0  0  0  0  0  0  0  0  0  0  0
    4.6201   -3.2042   -0.1758 C   0  0  0  0  0  0  0  0  0  0  0  0
   -1.6759   -0.6837    1.9901 H   0  0  0  0  0  0  0  0  0  0  0  0
   -0.9339   -1.1738   -0.7507 H   0  0  0  0  0  0  0  0  0  0  0  0
   -3.8161   -2.4385    1.7194 H   0  0  0  0  0  0  0  0  0  0  0  0
   -3.5557   -2.7048   -0.6766 H   0  0  0  0  0  0  0  0  0  0  0  0
   -5.5244   -0.3489   -0.5003 H   0  0  0  0  0  0  0  0  0  0  0  0
   -5.9609   -2.0533   -0.2246 H   0  0  0  0  0  0  0  0  0  0  0  0
   -1.5878   -3.1060    0.4976 H   0  0  0  0  0  0  0  0  0  0  0  0
   -3.9086   -0.3408    2.6297 H   0  0  0  0  0  0  0  0  0  0  0  0
   -3.2967    1.6982   -0.1265 H   0  0  0  0  0  0  0  0  0  0  0  0
   -4.7499   -0.9623   -2.5579 H   0  0  0  0  0  0  0  0  0  0  0  0
    4.1393    1.4841   -0.0884 H   0  0  0  0  0  0  0  0  0  0  0  0
    1.6941    5.3292    0.1840 H   0  0  0  0  0  0  0  0  0  0  0  0
   -0.0588    5.2634    0.1371 H   0  0  0  0  0  0  0  0  0  0  0  0
    5.6620   -0.0991   -1.0729 H   0  0  0  0  0  0  0  0  0  0  0  0
    2.0566   -1.3297    0.9814 H   0  0  0  0  0  0  0  0  0  0  0  0
    6.3803   -2.4594   -1.1690 H   0  0  0  0  0  0  0  0  0  0  0  0
    2.7743   -3.6536    0.8395 H   0  0  0  0  0  0  0  0  0  0  0  0
    4.9398   -4.2412   -0.2180 H   0  0  0  0  0  0  0  0  0  0  0  0
  1 12  1  0  0  0  0
  1 14  1  0  0  0  0
  2 11  1  0  0  0  0
  2 33  1  0  0  0  0
  3 13  1  0  0  0  0
  3 34  1  0  0  0  0
  4 15  1  0  0  0  0
  4 36  1  0  0  0  0
  5 12  1  0  0  0  0
  5 16  1  0  0  0  0
  5 17  1  0  0  0  0
  6 17  2  0  0  0  0
  6 18  1  0  0  0  0
  7 16  2  0  0  0  0
  7 20  1  0  0  0  0
  8 19  1  0  0  0  0
  8 20  2  0  0  0  0
  9 20  1  0  0  0  0
  9 21  1  0  0  0  0
  9 37  1  0  0  0  0
 10 19  1  0  0  0  0
 10 38  1  0  0  0  0
 10 39  1  0  0  0  0
 11 12  1  0  0  0  0
 11 13  1  0  0  0  0
 11 27  1  0  0  0  0
 12 28  1  0  0  0  0
 13 14  1  0  0  0  0
 13 29  1  0  0  0  0
 14 15  1  0  0  0  0
 14 30  1  0  0  0  0
 15 31  1  0  0  0  0
 15 32  1  0  0  0  0
 16 18  1  0  0  0  0
 17 35  1  0  0  0  0
 18 19  2  0  0  0  0
 21 22  2  0  0  0  0
 21 23  1  0  0  0  0
 22 24  1  0  0  0  0
 22 40  1  0  0  0  0
 23 25  2  0  0  0  0
 23 41  1  0  0  0  0
 24 26  2  0  0  0  0
 24 42  1  0  0  0  0
 25 26  1  0  0  0  0
 25 43  1  0  0  0  0
 26 44  1  0  0  0  0
M  END
> <PUBCHEM_COMPOUND_CID>
12997926

> <PUBCHEM_CONFORMER_RMSD>
0.8

> <PUBCHEM_CONFORMER_DIVERSEORDER>
1
16
17
35
49
6
52
15
40
8
27
51
3
12
22
43
13
20
7
24
55
18
45
46
29
28
39
53
25
10
47
54
19
37
56
9
31
26
48
21
34
50
44
23
32
33
2
42
4
41
11
36
38
30
5
14

> <PUBCHEM_MMFF94_PARTIAL_CHARGES>
38
1 -0.56
10 -0.9
11 0.28
12 0.54
13 0.28
14 0.28
15 0.28
16 0.11
17 0.04
18 0.23
19 0.41
2 -0.68
20 0.72
21 0.1
22 -0.15
23 -0.15
24 -0.15
25 -0.15
26 -0.15
3 -0.68
33 0.4
34 0.4
35 0.15
36 0.4
37 0.4
38 0.4
39 0.4
4 -0.68
40 0.15
41 0.15
42 0.15
43 0.15
44 0.15
5 0.05
6 -0.57
7 -0.57
8 -0.62
9 -0.6

> <PUBCHEM_EFFECTIVE_ROTOR_COUNT>
5

> <PUBCHEM_PHARMACOPHORE_FEATURES>
16
1 1 acceptor
1 10 cation
1 10 donor
1 2 acceptor
1 2 donor
1 3 acceptor
1 3 donor
1 4 acceptor
1 4 donor
1 9 donor
3 5 6 17 cation
4 7 8 9 20 cation
5 1 11 12 13 14 rings
5 5 6 16 17 18 rings
6 21 22 23 24 25 26 rings
6 7 8 16 18 19 20 rings

> <PUBCHEM_HEAVY_ATOM_COUNT>
26

> <PUBCHEM_ATOM_DEF_STEREO_COUNT>
4

> <PUBCHEM_ATOM_UDEF_STEREO_COUNT>
0

> <PUBCHEM_BOND_DEF_STEREO_COUNT>
0

> <PUBCHEM_BOND_UDEF_STEREO_COUNT>
0

> <PUBCHEM_ISOTOPIC_ATOM_COUNT>
0

> <PUBCHEM_COMPONENT_COUNT>
1

> <PUBCHEM_CACTVS_TAUTO_COUNT>
9

> <PUBCHEM_CONFORMER_ID>
00C6552600000001

> <PUBCHEM_MMFF94_ENERGY>
76.0963

> <PUBCHEM_FEATURE_SELFOVERLAP>
81.337

> <PUBCHEM_SHAPE_FINGERPRINT>
10411042 1 18411417289201016774
10616163 171 18122910828879114534
10622 236 17629741617022141055
10693767 8 18198883968581454903
1100329 8 18265897947783863665
11135926 11 18118978116120196700
114674 6 18263358252101223938
11578080 2 17631432579694876641
12107183 9 18270979959663269777
12363563 72 18411426098426776398
12553582 1 18408608063014963266
12623949 98 17030814646739214459
12760667 363 18410577249458919630
12788726 201 18047185246258757064
13140716 1 18268435642016297544
13533116 47 18198346367461041515
13544653 18 18408608067188429230
1361 2 18341604979591092095
13631057 29 18340771434687956558
13690498 29 18196670501408402142
138480 1 14734511455484025352
14363568 33 18048342181973872306
14767858 380 18262537974099514766
14790565 3 17545606651998957816
14866123 147 18194968444196284641
14931854 50 18114464462016831206
15042514 8 18194410987021231656
15352361 1 18410293588654974758
17818456 19 17774740674954462177
1813 80 18201452371449493198
20645477 70 18118955030470007149
20775438 99 17693341814658374175
20775530 9 18335144146460390810
20832881 197 18335417959352770811
21279426 13 18261943082189560549
21478907 32 18411416172641362597
23536364 44 18190721069527883109
23559900 14 18263920119285179265
3421961 26 18340487875892562592
46194498 28 17169279345263367551
463206 1 18336831991140928750
5104073 3 18269271258643401402
5309563 4 18410019865667478842
59682541 52 18124009456028452127
613672 6 18336537300633874530
70251023 43 18339355366178614587
7970288 3 18412823573400923118
9709674 26 18336263539069884250

> <PUBCHEM_SHAPE_MULTIPOLES>
481.7
10.84
4.81
1.09
2.17
4.84
-0.06
-12.29
-2.9
1.89
0.27
-1.48
-0.75
-0.15

> <PUBCHEM_SHAPE_SELFOVERLAP>
1055.214

> <PUBCHEM_SHAPE_VOLUME>
255.4

> <PUBCHEM_COORDINATE_TYPE>
2
5
10

$$$$
