129982
  -OEChem-03292013323D

 54 56  0     1  0  0  0  0  0999 V2000
   -0.6793    0.6641   -1.1314 O   0  0  0  0  0  0  0  0  0  0  0  0
    2.6392   -0.8036   -0.7089 O   0  0  0  0  0  0  0  0  0  0  0  0
   -1.2973    3.1053    1.3629 O   0  0  0  0  0  0  0  0  0  0  0  0
   -7.1347    0.5089   -0.3979 O   0  0  0  0  0  0  0  0  0  0  0  0
   -4.5265   -3.2428    0.7189 O   0  0  0  0  0  0  0  0  0  0  0  0
    9.9349    1.0702    0.8561 O   0  0  0  0  0  0  0  0  0  0  0  0
    9.7849   -0.7800   -0.4524 O   0  0  0  0  0  0  0  0  0  0  0  0
   -2.6945    1.0933   -0.0501 N   0  0  0  0  0  0  0  0  0  0  0  0
   -3.4360   -1.2126    0.3837 N   0  0  0  0  0  0  0  0  0  0  0  0
   -5.8456   -1.3896    0.1626 N   0  0  0  0  0  0  0  0  0  0  0  0
   -4.6687    2.0455   -0.4747 N   0  0  0  0  0  0  0  0  0  0  0  0
   -1.2377    1.0238    0.1221 C   0  0  2  0  0  0  0  0  0  0  0  0
    0.7500    0.5906   -1.1491 C   0  0  2  0  0  0  0  0  0  0  0  0
   -3.6336    0.1120    0.0674 C   0  0  0  0  0  0  0  0  0  0  0  0
   -4.8288    0.7163   -0.1960 C   0  0  0  0  0  0  0  0  0  0  0  0
    1.2380   -0.7133   -0.5262 C   0  0  0  0  0  0  0  0  0  0  0  0
   -0.6673    2.3350    0.6422 C   0  0  0  0  0  0  0  0  0  0  0  0
    1.3850    1.7946   -0.5136 C   0  0  0  0  0  0  0  0  0  0  0  0
   -3.3687    2.2426   -0.3787 C   0  0  0  0  0  0  0  0  0  0  0  0
    4.6645   -2.0879   -0.4225 C   0  0  0  0  0  0  0  0  0  0  0  0
    0.7394    2.6377    0.2977 C   0  0  0  0  0  0  0  0  0  0  0  0
    5.4888   -0.9453    0.1825 C   0  0  0  0  0  0  0  0  0  0  0  0
    3.1676   -2.0010   -0.1501 C   0  0  0  0  0  0  0  0  0  0  0  0
   -6.0551   -0.0232   -0.1641 C   0  0  0  0  0  0  0  0  0  0  0  0
   -4.5856   -2.0386    0.4436 C   0  0  0  0  0  0  0  0  0  0  0  0
    6.9829   -0.9575   -0.1522 C   0  0  0  0  0  0  0  0  0  0  0  0
   -2.1036   -1.7422    0.6452 C   0  0  0  0  0  0  0  0  0  0  0  0
    7.7643    0.1726    0.5170 C   0  0  0  0  0  0  0  0  0  0  0  0
   -7.0237   -2.2479    0.2266 C   0  0  0  0  0  0  0  0  0  0  0  0
    9.2471    0.0734    0.2394 C   0  0  0  0  0  0  0  0  0  0  0  0
   -0.9991    0.3122    0.9058 H   0  0  0  0  0  0  0  0  0  0  0  0
    1.0391    0.5981   -2.2073 H   0  0  0  0  0  0  0  0  0  0  0  0
    0.7449   -1.5619   -1.0150 H   0  0  0  0  0  0  0  0  0  0  0  0
    0.9989   -0.7577    0.5429 H   0  0  0  0  0  0  0  0  0  0  0  0
    2.4279    1.9935   -0.7464 H   0  0  0  0  0  0  0  0  0  0  0  0
   -2.8816    3.1880   -0.5755 H   0  0  0  0  0  0  0  0  0  0  0  0
    5.0436   -3.0446   -0.0447 H   0  0  0  0  0  0  0  0  0  0  0  0
    4.8226   -2.0822   -1.5082 H   0  0  0  0  0  0  0  0  0  0  0  0
    1.2144    3.5100    0.7277 H   0  0  0  0  0  0  0  0  0  0  0  0
    5.0721    0.0137   -0.1501 H   0  0  0  0  0  0  0  0  0  0  0  0
    5.3688   -0.9715    1.2730 H   0  0  0  0  0  0  0  0  0  0  0  0
    2.9837   -2.0136    0.9304 H   0  0  0  0  0  0  0  0  0  0  0  0
    2.6688   -2.8669   -0.6007 H   0  0  0  0  0  0  0  0  0  0  0  0
    7.4051   -1.9234    0.1535 H   0  0  0  0  0  0  0  0  0  0  0  0
    7.1104   -0.8963   -1.2404 H   0  0  0  0  0  0  0  0  0  0  0  0
   -1.7322   -1.3625    1.5994 H   0  0  0  0  0  0  0  0  0  0  0  0
   -1.4501   -1.5586   -0.2051 H   0  0  0  0  0  0  0  0  0  0  0  0
   -2.1567   -2.8308    0.7550 H   0  0  0  0  0  0  0  0  0  0  0  0
    7.4073    1.1397    0.1469 H   0  0  0  0  0  0  0  0  0  0  0  0
    7.6198    0.1292    1.6021 H   0  0  0  0  0  0  0  0  0  0  0  0
   -6.9028   -3.0655   -0.4912 H   0  0  0  0  0  0  0  0  0  0  0  0
   -7.9460   -1.7064    0.0041 H   0  0  0  0  0  0  0  0  0  0  0  0
   -7.0910   -2.6784    1.2309 H   0  0  0  0  0  0  0  0  0  0  0  0
   10.8980    1.0139    0.6780 H   0  0  0  0  0  0  0  0  0  0  0  0
  1 12  1  0  0  0  0
  1 13  1  0  0  0  0
  2 16  1  0  0  0  0
  2 23  1  0  0  0  0
  3 17  2  0  0  0  0
  4 24  2  0  0  0  0
  5 25  2  0  0  0  0
  6 30  1  0  0  0  0
  6 54  1  0  0  0  0
  7 30  2  0  0  0  0
  8 12  1  0  0  0  0
  8 14  1  0  0  0  0
  8 19  1  0  0  0  0
  9 14  1  0  0  0  0
  9 25  1  0  0  0  0
  9 27  1  0  0  0  0
 10 24  1  0  0  0  0
 10 25  1  0  0  0  0
 10 29  1  0  0  0  0
 11 15  1  0  0  0  0
 11 19  2  0  0  0  0
 12 17  1  0  0  0  0
 12 31  1  0  0  0  0
 13 16  1  0  0  0  0
 13 18  1  0  0  0  0
 13 32  1  0  0  0  0
 14 15  2  0  0  0  0
 15 24  1  0  0  0  0
 16 33  1  0  0  0  0
 16 34  1  0  0  0  0
 17 21  1  0  0  0  0
 18 21  2  0  0  0  0
 18 35  1  0  0  0  0
 19 36  1  0  0  0  0
 20 22  1  0  0  0  0
 20 23  1  0  0  0  0
 20 37  1  0  0  0  0
 20 38  1  0  0  0  0
 21 39  1  0  0  0  0
 22 26  1  0  0  0  0
 22 40  1  0  0  0  0
 22 41  1  0  0  0  0
 23 42  1  0  0  0  0
 23 43  1  0  0  0  0
 26 28  1  0  0  0  0
 26 44  1  0  0  0  0
 26 45  1  0  0  0  0
 27 46  1  0  0  0  0
 27 47  1  0  0  0  0
 27 48  1  0  0  0  0
 28 30  1  0  0  0  0
 28 49  1  0  0  0  0
 28 50  1  0  0  0  0
 29 51  1  0  0  0  0
 29 52  1  0  0  0  0
 29 53  1  0  0  0  0
M  END
> <PUBCHEM_COMPOUND_CID>
129982

> <PUBCHEM_CONFORMER_RMSD>
1

> <PUBCHEM_CONFORMER_DIVERSEORDER>
1
87
94
93
96
54
35
49
12
57
69
42
68
16
29
39
98
78
91
3
99
27
40
89
66
17
41
30
31
19
76
97
92
24
45
77
37
61
62
6
28
84
79
5
13
72
59
58
20
65
26
64
60
74
4
14
33
46
44
70
36
10
85
71
32
53
15
82
48
56
67
81
80
9
90
38
95
86
25
2
55
22
100
52
63
50
23
43
83
73
7
8
51
75
47
11
21
18
34
88

> <PUBCHEM_MMFF94_PARTIAL_CHARGES>
31
1 -0.56
10 -0.42
11 -0.57
12 0.6
13 0.42
14 -0.09
15 0.14
16 0.28
17 0.49
18 -0.29
19 0.04
2 -0.56
21 -0.14
23 0.28
24 0.72
25 0.69
27 0.3
28 0.06
29 0.3
3 -0.57
30 0.66
35 0.15
36 0.15
39 0.15
4 -0.57
5 -0.57
54 0.5
6 -0.65
7 -0.57
8 0.05
9 -0.42

> <PUBCHEM_EFFECTIVE_ROTOR_COUNT>
9.6

> <PUBCHEM_PHARMACOPHORE_FEATURES>
13
1 1 acceptor
1 2 acceptor
1 3 acceptor
1 4 acceptor
1 5 acceptor
1 6 acceptor
1 7 acceptor
3 6 7 30 anion
3 8 11 19 cation
4 20 22 26 28 hydrophobe
5 8 11 14 15 19 rings
6 1 12 13 17 18 21 rings
6 9 10 14 15 24 25 rings

> <PUBCHEM_HEAVY_ATOM_COUNT>
30

> <PUBCHEM_ATOM_DEF_STEREO_COUNT>
2

> <PUBCHEM_ATOM_UDEF_STEREO_COUNT>
0

> <PUBCHEM_BOND_DEF_STEREO_COUNT>
0

> <PUBCHEM_BOND_UDEF_STEREO_COUNT>
0

> <PUBCHEM_ISOTOPIC_ATOM_COUNT>
0

> <PUBCHEM_COMPONENT_COUNT>
1

> <PUBCHEM_CACTVS_TAUTO_COUNT>
2

> <PUBCHEM_CONFORMER_ID>
0001FBBE00000001

> <PUBCHEM_MMFF94_ENERGY>
57.3972

> <PUBCHEM_FEATURE_SELFOVERLAP>
66.154

> <PUBCHEM_SHAPE_FINGERPRINT>
10 15 18272646840797624982
10391435 84 18334573547107444434
10939801 23 18410008845583204906
11315181 36 18060419093297431217
12516196 113 18342458118945810470
13631057 29 18408886226445196986
14168556 18 18412542141910863822
14394314 77 18261675857107644921
14461889 52 18412260619816776306
150020 25 18342739590529458478
15338160 23 16988009275662839312
15728490 51 18411980269752082734
15927050 60 17695064792760625860
18335252 98 18272371958743452214
18608769 82 18342734135931542058
19611394 137 18342179990492435146
20567600 70 18409731776482732602
21223535 225 14562805508946530111
21365058 27 16056879131087134070
23559900 14 18336826498415470245
2747138 104 18272651247417993344
3004659 81 18114181942850552333
335352 9 18408881816457802437
3383291 50 18260274074804846307
4149490 64 17459486604735595489
4325135 7 18259985964403414070
437795 51 17917703635543396776
5104073 3 18130516297095714657
59682541 35 18272366495460149066
70634741 139 18410573946518455120

> <PUBCHEM_SHAPE_MULTIPOLES>
556.38
25.57
3.13
0.87
62.83
0.28
0
-8.76
2.59
-3.56
0.66
0.16
0.19
1.4

> <PUBCHEM_SHAPE_SELFOVERLAP>
1168.142

> <PUBCHEM_SHAPE_VOLUME>
310.9

> <PUBCHEM_COORDINATE_TYPE>
2
5
10

$$$$
