129905127
  -OEChem-03292013293D

 45 47  0     0  0  0  0  0  0999 V2000
    4.2923    0.4261   -2.1976 O   0  0  0  0  0  0  0  0  0  0  0  0
   -3.0681    4.3334    1.3452 O   0  0  0  0  0  0  0  0  0  0  0  0
   -2.2627   -4.9496   -0.5215 O   0  0  0  0  0  0  0  0  0  0  0  0
   -2.5574    3.0046   -2.4909 O   0  0  0  0  0  0  0  0  0  0  0  0
   -4.4151   -3.8419    0.4403 O   0  0  0  0  0  0  0  0  0  0  0  0
    6.4101    0.4292    1.3044 O   0  0  0  0  0  0  0  0  0  0  0  0
   -2.6303    4.9440   -1.3077 O   0  0  0  0  0  0  0  0  0  0  0  0
   -4.6956   -1.6919   -0.2873 O   0  0  0  0  0  0  0  0  0  0  0  0
    6.5827   -0.2941   -0.8436 O   0  0  0  0  0  0  0  0  0  0  0  0
    0.1526   -0.1765    0.3038 C   0  0  0  0  0  0  0  0  0  0  0  0
   -0.6981    1.0125    0.5726 C   0  0  0  0  0  0  0  0  0  0  0  0
    1.6373   -0.1267    0.2504 C   0  0  0  0  0  0  0  0  0  0  0  0
   -0.4523   -1.3584    0.0991 C   0  0  0  0  0  0  0  0  0  0  0  0
   -1.1462    1.8033   -0.4855 C   0  0  0  0  0  0  0  0  0  0  0  0
    2.2847    0.1292   -0.9583 C   0  0  0  0  0  0  0  0  0  0  0  0
   -1.9045   -1.4566    0.1438 C   0  0  0  0  0  0  0  0  0  0  0  0
    2.3831   -0.3353    1.4105 C   0  0  0  0  0  0  0  0  0  0  0  0
   -1.0468    1.3385    1.8832 C   0  0  0  0  0  0  0  0  0  0  0  0
    0.3403   -2.5473   -0.1672 C   0  0  0  0  0  0  0  0  0  0  0  0
   -1.9431    2.9199   -0.2330 C   0  0  0  0  0  0  0  0  0  0  0  0
    3.6779    0.1771   -1.0069 C   0  0  0  0  0  0  0  0  0  0  0  0
   -2.5236   -2.6302   -0.0573 C   0  0  0  0  0  0  0  0  0  0  0  0
    4.4236   -0.0312    0.1534 C   0  0  0  0  0  0  0  0  0  0  0  0
    3.7762   -0.2875    1.3621 C   0  0  0  0  0  0  0  0  0  0  0  0
   -1.8435    2.4551    2.1359 C   0  0  0  0  0  0  0  0  0  0  0  0
   -2.2918    3.2458    1.0777 C   0  0  0  0  0  0  0  0  0  0  0  0
   -0.2447   -3.7339   -0.3725 C   0  0  0  0  0  0  0  0  0  0  0  0
   -1.7268   -3.8623   -0.3327 C   0  0  0  0  0  0  0  0  0  0  0  0
   -2.4010    3.7322   -1.3519 C   0  0  0  0  0  0  0  0  0  0  0  0
   -3.9882   -2.6375    0.0076 C   0  0  0  0  0  0  0  0  0  0  0  0
    5.8791    0.0096    0.1240 C   0  0  0  0  0  0  0  0  0  0  0  0
   -0.8547    1.5438   -1.5012 H   0  0  0  0  0  0  0  0  0  0  0  0
    1.7041    0.2918   -1.8639 H   0  0  0  0  0  0  0  0  0  0  0  0
   -2.5159   -0.5853    0.3485 H   0  0  0  0  0  0  0  0  0  0  0  0
    1.8931   -0.5387    2.3597 H   0  0  0  0  0  0  0  0  0  0  0  0
   -0.7051    0.7324    2.7188 H   0  0  0  0  0  0  0  0  0  0  0  0
    1.4226   -2.5309   -0.2118 H   0  0  0  0  0  0  0  0  0  0  0  0
    4.3293   -0.4673    2.2803 H   0  0  0  0  0  0  0  0  0  0  0  0
   -2.1072    2.6972    3.1620 H   0  0  0  0  0  0  0  0  0  0  0  0
    0.3370   -4.6265   -0.5719 H   0  0  0  0  0  0  0  0  0  0  0  0
    3.6158    0.5429   -2.8866 H   0  0  0  0  0  0  0  0  0  0  0  0
   -3.2034    4.3987    2.3061 H   0  0  0  0  0  0  0  0  0  0  0  0
   -2.8653    3.5594   -3.2391 H   0  0  0  0  0  0  0  0  0  0  0  0
   -5.3933   -3.8876    0.4979 H   0  0  0  0  0  0  0  0  0  0  0  0
    7.3903    0.4536    1.2756 H   0  0  0  0  0  0  0  0  0  0  0  0
  1 21  1  0  0  0  0
  1 41  1  0  0  0  0
  2 26  1  0  0  0  0
  2 42  1  0  0  0  0
  3 28  2  0  0  0  0
  4 29  1  0  0  0  0
  4 43  1  0  0  0  0
  5 30  1  0  0  0  0
  5 44  1  0  0  0  0
  6 31  1  0  0  0  0
  6 45  1  0  0  0  0
  7 29  2  0  0  0  0
  8 30  2  0  0  0  0
  9 31  2  0  0  0  0
 10 11  1  0  0  0  0
 10 12  1  0  0  0  0
 10 13  2  0  0  0  0
 11 14  2  0  0  0  0
 11 18  1  0  0  0  0
 12 15  2  0  0  0  0
 12 17  1  0  0  0  0
 13 16  1  0  0  0  0
 13 19  1  0  0  0  0
 14 20  1  0  0  0  0
 14 32  1  0  0  0  0
 15 21  1  0  0  0  0
 15 33  1  0  0  0  0
 16 22  2  0  0  0  0
 16 34  1  0  0  0  0
 17 24  2  0  0  0  0
 17 35  1  0  0  0  0
 18 25  2  0  0  0  0
 18 36  1  0  0  0  0
 19 27  2  0  0  0  0
 19 37  1  0  0  0  0
 20 26  2  0  0  0  0
 20 29  1  0  0  0  0
 21 23  2  0  0  0  0
 22 28  1  0  0  0  0
 22 30  1  0  0  0  0
 23 24  1  0  0  0  0
 23 31  1  0  0  0  0
 24 38  1  0  0  0  0
 25 26  1  0  0  0  0
 25 39  1  0  0  0  0
 27 28  1  0  0  0  0
 27 40  1  0  0  0  0
M  END
> <PUBCHEM_COMPOUND_CID>
129905127

> <PUBCHEM_CONFORMER_RMSD>
0.8

> <PUBCHEM_CONFORMER_DIVERSEORDER>
1
10
9
5
7
2
6
8
4
3

> <PUBCHEM_MMFF94_PARTIAL_CHARGES>
44
1 -0.53
10 -0.06
11 0.03
12 0.03
14 -0.15
15 -0.15
16 -0.15
17 -0.15
18 -0.15
19 -0.15
2 -0.53
20 0.09
21 0.08
22 0.03
23 0.09
24 -0.15
25 -0.15
26 0.08
27 -0.14
28 0.54
29 0.63
3 -0.57
30 0.71
31 0.63
32 0.15
33 0.15
34 0.15
35 0.15
36 0.15
37 0.15
38 0.15
39 0.15
4 -0.65
40 0.15
41 0.45
42 0.45
43 0.5
44 0.5
45 0.5
5 -0.65
6 -0.65
7 -0.57
8 -0.57
9 -0.57

> <PUBCHEM_EFFECTIVE_ROTOR_COUNT>
5

> <PUBCHEM_PHARMACOPHORE_FEATURES>
16
1 1 donor
1 2 donor
1 22 anion
1 3 acceptor
1 4 acceptor
1 5 acceptor
1 6 acceptor
1 7 acceptor
1 8 acceptor
1 9 acceptor
3 4 7 29 anion
3 5 8 30 anion
3 6 9 31 anion
6 11 14 18 20 25 26 rings
6 12 15 17 21 23 24 rings
6 13 16 19 22 27 28 rings

> <PUBCHEM_HEAVY_ATOM_COUNT>
31

> <PUBCHEM_ATOM_DEF_STEREO_COUNT>
0

> <PUBCHEM_ATOM_UDEF_STEREO_COUNT>
0

> <PUBCHEM_BOND_DEF_STEREO_COUNT>
1

> <PUBCHEM_BOND_UDEF_STEREO_COUNT>
0

> <PUBCHEM_ISOTOPIC_ATOM_COUNT>
0

> <PUBCHEM_COMPONENT_COUNT>
1

> <PUBCHEM_CACTVS_TAUTO_COUNT>
20

> <PUBCHEM_CONFORMER_ID>
07BE31E700000001

> <PUBCHEM_MMFF94_ENERGY>
114.4969

> <PUBCHEM_FEATURE_SELFOVERLAP>
81.715

> <PUBCHEM_SHAPE_FINGERPRINT>
10165383 225 17766599813241844936
102385 1 18195245512331853783
105312 117 18267024955950309812
10721379 63 17186738649604944479
10930396 42 17981856913002696418
11045515 52 18191865849567535267
11421498 54 18114172077316611659
11582403 64 16808962513199836773
12160290 23 18265360376559475370
12236239 1 17895469358145358458
12788726 201 18265064685441708498
13004483 165 18194965368788729854
13140716 1 18125439971494279450
13911987 19 18194399992090057300
14068700 675 18189891105784349654
14294032 229 18336557005796330057
14955137 171 18050863409339591123
15324884 4 17104841045153228793
15439362 3 17689428287796902452
15664445 248 17544196438178678764
19319366 153 17267515989089505497
19958102 18 18340489958925574654
20600515 1 17985284090482800483
20642791 105 18336252475503181152
20642791 239 17468216860114335445
21285901 2 18058750098612652062
21304303 282 18194656229663844166
2132832 1 17968937625733378052
22907989 373 18410292523123193220
23559900 14 18056197110518134594
255183 313 18270702886695448897
283562 15 18412261739990772915
3178227 256 18049458212584907171
350125 39 18196947564678434043
4409770 3 18337092524046436759
469060 322 18336559278097176513
5080951 261 17917413325043861326
57527358 35 15216079166543599541
59755656 520 18127700331251391672
6677587 24 16090043498310231037
7226269 152 18339640152285557714
9962374 69 17335056149716967455
9981440 41 17975130937956038040

> <PUBCHEM_SHAPE_MULTIPOLES>
585.14
10.05
6.44
1.66
18.68
0.17
0.14
0.58
0.56
-13.01
1.29
0.09
-1.83
0.25

> <PUBCHEM_SHAPE_SELFOVERLAP>
1300.959

> <PUBCHEM_SHAPE_VOLUME>
308.6

> <PUBCHEM_COORDINATE_TYPE>
2
5
10

$$$$
