129903
  -OEChem-03292013323D

 31 32  0     1  0  0  0  0  0999 V2000
    3.9312    1.5261   -0.1912 S   0  0  0  0  0  0  0  0  0  0  0  0
    0.4301   -0.7073    1.0551 O   0  0  0  0  0  0  0  0  0  0  0  0
    0.5608   -3.7164    0.5796 O   0  0  0  0  0  0  0  0  0  0  0  0
   -1.4807   -2.9254   -1.0303 O   0  0  0  0  0  0  0  0  0  0  0  0
    2.9365    0.4004    0.4603 O   0  0  0  0  0  0  0  0  0  0  0  0
    5.1293    0.8606   -0.6692 O   0  0  0  0  0  0  0  0  0  0  0  0
    3.1370    2.3326   -1.1002 O   0  0  0  0  0  0  0  0  0  0  0  0
   -1.6844   -0.0124    0.2330 N   0  0  0  0  0  0  0  0  0  0  0  0
   -3.0170   -0.1061    0.3547 N   0  0  0  0  0  0  0  0  0  0  0  0
   -2.3772    1.9894   -0.3029 N   0  0  0  0  0  0  0  0  0  0  0  0
    4.3658    2.5175    1.1386 N   0  0  0  0  0  0  0  0  0  0  0  0
   -5.8843    1.8366   -0.0103 N   0  0  0  0  0  0  0  0  0  0  0  0
    0.8315   -2.6240   -0.2986 C   0  0  1  0  0  0  0  0  0  0  0  0
   -0.4743   -1.9821   -0.7242 C   0  0  2  0  0  0  0  0  0  0  0  0
    1.4988   -1.5068    0.4974 C   0  0  1  0  0  0  0  0  0  0  0  0
   -0.8229   -1.1602    0.5074 C   0  0  1  0  0  0  0  0  0  0  0  0
    2.3735   -0.6058   -0.3631 C   0  0  0  0  0  0  0  0  0  0  0  0
   -1.3120    1.2357   -0.1584 C   0  0  0  0  0  0  0  0  0  0  0  0
   -3.3892    1.1310    0.0193 C   0  0  0  0  0  0  0  0  0  0  0  0
   -4.7524    1.5166    0.0030 C   0  0  0  0  0  0  0  0  0  0  0  0
    1.4214   -3.0060   -1.1367 H   0  0  0  0  0  0  0  0  0  0  0  0
   -0.3169   -1.3407   -1.5990 H   0  0  0  0  0  0  0  0  0  0  0  0
    2.0791   -1.8887    1.3450 H   0  0  0  0  0  0  0  0  0  0  0  0
   -1.3310   -1.7555    1.2764 H   0  0  0  0  0  0  0  0  0  0  0  0
    1.7831   -0.1191   -1.1468 H   0  0  0  0  0  0  0  0  0  0  0  0
    3.1771   -1.1856   -0.8293 H   0  0  0  0  0  0  0  0  0  0  0  0
    1.4172   -4.0743    0.8694 H   0  0  0  0  0  0  0  0  0  0  0  0
   -1.5728   -3.5245   -0.2700 H   0  0  0  0  0  0  0  0  0  0  0  0
   -0.2868    1.5366   -0.3229 H   0  0  0  0  0  0  0  0  0  0  0  0
    3.6182    3.0928    1.5473 H   0  0  0  0  0  0  0  0  0  0  0  0
    4.9670    2.0897    1.8545 H   0  0  0  0  0  0  0  0  0  0  0  0
  1  5  1  0  0  0  0
  1  6  2  0  0  0  0
  1  7  2  0  0  0  0
  1 11  1  0  0  0  0
  2 15  1  0  0  0  0
  2 16  1  0  0  0  0
  3 13  1  0  0  0  0
  3 27  1  0  0  0  0
  4 14  1  0  0  0  0
  4 28  1  0  0  0  0
  5 17  1  0  0  0  0
  8  9  1  0  0  0  0
  8 16  1  0  0  0  0
  8 18  1  0  0  0  0
  9 19  2  0  0  0  0
 10 18  2  0  0  0  0
 10 19  1  0  0  0  0
 11 30  1  0  0  0  0
 11 31  1  0  0  0  0
 12 20  3  0  0  0  0
 13 14  1  0  0  0  0
 13 15  1  0  0  0  0
 13 21  1  0  0  0  0
 14 16  1  0  0  0  0
 14 22  1  0  0  0  0
 15 17  1  0  0  0  0
 15 23  1  0  0  0  0
 16 24  1  0  0  0  0
 17 25  1  0  0  0  0
 17 26  1  0  0  0  0
 18 29  1  0  0  0  0
 19 20  1  0  0  0  0
M  END
> <PUBCHEM_COMPOUND_CID>
129903

> <PUBCHEM_CONFORMER_RMSD>
0.8

> <PUBCHEM_CONFORMER_DIVERSEORDER>
12
63
44
55
14
57
11
41
19
64
69
43
62
18
48
23
4
45
49
32
67
42
66
16
28
54
27
56
39
71
70
24
3
51
33
47
31
5
22
20
59
40
58
13
34
10
61
53
52
2
36
6
68
26
46
15
25
60
9
30
50
17
29
7
38
65
1
35
8
21
37

> <PUBCHEM_MMFF94_PARTIAL_CHARGES>
25
1 1.62
10 -0.57
11 -0.98
12 -0.56
13 0.28
14 0.28
15 0.28
16 0.54
17 0.28
18 0.04
19 0.54
2 -0.56
20 0.54
27 0.4
28 0.4
29 0.15
3 -0.68
30 0.42
31 0.42
4 -0.68
5 -0.46
6 -0.65
7 -0.65
8 0.31
9 -0.71

> <PUBCHEM_EFFECTIVE_ROTOR_COUNT>
5

> <PUBCHEM_PHARMACOPHORE_FEATURES>
13
1 11 donor
1 12 acceptor
1 2 acceptor
1 3 acceptor
1 3 donor
1 4 acceptor
1 4 donor
1 6 acceptor
1 7 acceptor
3 8 10 18 cation
3 9 10 19 cation
5 2 13 14 15 16 rings
5 8 9 10 18 19 rings

> <PUBCHEM_HEAVY_ATOM_COUNT>
20

> <PUBCHEM_ATOM_DEF_STEREO_COUNT>
4

> <PUBCHEM_ATOM_UDEF_STEREO_COUNT>
0

> <PUBCHEM_BOND_DEF_STEREO_COUNT>
0

> <PUBCHEM_BOND_UDEF_STEREO_COUNT>
0

> <PUBCHEM_ISOTOPIC_ATOM_COUNT>
0

> <PUBCHEM_COMPONENT_COUNT>
1

> <PUBCHEM_CACTVS_TAUTO_COUNT>
1

> <PUBCHEM_CONFORMER_ID>
0001FB6F0000000C

> <PUBCHEM_MMFF94_ENERGY>
30.0209

> <PUBCHEM_FEATURE_SELFOVERLAP>
68.753

> <PUBCHEM_SHAPE_FINGERPRINT>
10498660 4 18412545413964144161
12173636 292 18267861864518699982
122479 349 18261679263274731762
12403259 327 15864360163580001296
12730499 353 18337402539038449603
13583140 156 17024287653120323787
13955234 65 18193279590004494155
14123255 52 18411698794316124032
14142880 1 18117829117424983934
14251764 38 17838043068391412264
14251764 75 18340782493348685497
14528608 73 18342172237876155085
146900 427 18270690775141173841
14774955 27 18335698313279889245
15342168 16 18409448064197326133
17134986 127 18411703153834712142
17834072 32 18410575127982413260
1798214 55 18410855473324800304
20645477 56 18198632223235562440
20671657 1 18267305335446544294
21524375 3 18409450263114982514
2255824 54 18053100619112162211
22620623 9 17059201717464056439
23227448 37 18198059377166125980
23557571 272 17912931870710974304
23558518 356 17612027479438756032
23559900 14 17315374539402079363
3060560 45 18268714905021527934
31174 14 17900538978342625151
43658 37 18413105052328858321
44154327 71 18410573955234665557
449060 62 18338800009616667705
474 4 18335707109008894873
5104073 3 18043540408996199065
621550 34 18115868499784102837
6327066 14 18336545010100404676
7364860 26 18194120711730157050
7808743 9 18119533382583054924
9999458 23 18262802839552208366

> <PUBCHEM_SHAPE_MULTIPOLES>
355.32
9.35
3.69
0.89
3.3
2.33
0
-10.94
-0.28
-1.22
-0.21
-0.49
0.02
-0.12

> <PUBCHEM_SHAPE_SELFOVERLAP>
728.846

> <PUBCHEM_SHAPE_VOLUME>
206.5

> <PUBCHEM_COORDINATE_TYPE>
2
5
10

$$$$
