129935
  -OEChem-03292013323D

 28 29  0     1  0  0  0  0  0999 V2000
    0.2817   -2.2042    0.3421 S   0  0  0  0  0  0  0  0  0  0  0  0
   -4.0036   -1.3600    0.2640 O   0  0  0  0  0  0  0  0  0  0  0  0
   -0.9848    1.9071   -0.9673 O   0  0  0  0  0  0  0  0  0  0  0  0
    1.6214    2.3704    1.0358 O   0  0  0  0  0  0  0  0  0  0  0  0
    3.0746    1.4285   -0.4579 O   0  0  0  0  0  0  0  0  0  0  0  0
   -0.1137    0.3789    0.6106 N   0  0  0  0  0  0  0  0  0  0  0  0
    3.2182   -1.7071   -1.4059 N   0  0  0  0  0  0  0  0  0  0  0  0
   -1.8702   -0.3714   -0.2089 C   0  0  2  0  0  0  0  0  0  0  0  0
   -0.8624   -0.8658    0.8437 C   0  0  1  0  0  0  0  0  0  0  0  0
   -0.9947    0.9025   -0.2921 C   0  0  0  0  0  0  0  0  0  0  0  0
   -3.3113   -0.1158    0.1707 C   0  0  1  0  0  0  0  0  0  0  0  0
    1.2278    0.1970    0.3926 C   0  0  0  0  0  0  0  0  0  0  0  0
    1.6327   -1.0785    0.2655 C   0  0  0  0  0  0  0  0  0  0  0  0
   -4.0042    0.7645   -0.8622 C   0  0  0  0  0  0  0  0  0  0  0  0
    3.0013   -1.6168    0.0132 C   0  0  0  0  0  0  0  0  0  0  0  0
    2.0871    1.3708    0.2560 C   0  0  0  0  0  0  0  0  0  0  0  0
   -1.8235   -0.9303   -1.1564 H   0  0  0  0  0  0  0  0  0  0  0  0
   -1.2360   -0.9367    1.8706 H   0  0  0  0  0  0  0  0  0  0  0  0
   -3.3808    0.3724    1.1497 H   0  0  0  0  0  0  0  0  0  0  0  0
   -5.0734    0.8433   -0.6372 H   0  0  0  0  0  0  0  0  0  0  0  0
   -3.5866    1.7743   -0.8901 H   0  0  0  0  0  0  0  0  0  0  0  0
   -3.9243    0.3294   -1.8647 H   0  0  0  0  0  0  0  0  0  0  0  0
    3.1311   -2.6001    0.4793 H   0  0  0  0  0  0  0  0  0  0  0  0
    3.7632   -0.9711    0.4630 H   0  0  0  0  0  0  0  0  0  0  0  0
   -3.5704   -1.8832    0.9600 H   0  0  0  0  0  0  0  0  0  0  0  0
    3.1305   -0.7919   -1.8448 H   0  0  0  0  0  0  0  0  0  0  0  0
    2.5232   -2.3131   -1.8393 H   0  0  0  0  0  0  0  0  0  0  0  0
    2.1749    3.1776    0.9696 H   0  0  0  0  0  0  0  0  0  0  0  0
  1  9  1  0  0  0  0
  1 13  1  0  0  0  0
  2 11  1  0  0  0  0
  2 25  1  0  0  0  0
  3 10  2  0  0  0  0
  4 16  1  0  0  0  0
  4 28  1  0  0  0  0
  5 16  2  0  0  0  0
  6  9  1  0  0  0  0
  6 10  1  0  0  0  0
  6 12  1  0  0  0  0
  7 15  1  0  0  0  0
  7 26  1  0  0  0  0
  7 27  1  0  0  0  0
  8  9  1  0  0  0  0
  8 10  1  0  0  0  0
  8 11  1  0  0  0  0
  8 17  1  0  0  0  0
  9 18  1  0  0  0  0
 11 14  1  0  0  0  0
 11 19  1  0  0  0  0
 12 13  2  0  0  0  0
 12 16  1  0  0  0  0
 13 15  1  0  0  0  0
 14 20  1  0  0  0  0
 14 21  1  0  0  0  0
 14 22  1  0  0  0  0
 15 23  1  0  0  0  0
 15 24  1  0  0  0  0
M  END
> <PUBCHEM_COMPOUND_CID>
129935

> <PUBCHEM_CONFORMER_RMSD>
0.6

> <PUBCHEM_CONFORMER_DIVERSEORDER>
1
4
5
6
2
3

> <PUBCHEM_MMFF94_PARTIAL_CHARGES>
19
1 -0.32
10 0.58
11 0.28
12 0.12
13 -0.04
15 0.41
16 0.71
2 -0.68
25 0.4
26 0.36
27 0.36
28 0.5
3 -0.57
4 -0.65
5 -0.57
6 -0.39
7 -0.99
8 0.05
9 0.44

> <PUBCHEM_EFFECTIVE_ROTOR_COUNT>
3.4

> <PUBCHEM_PHARMACOPHORE_FEATURES>
9
1 2 acceptor
1 2 donor
1 3 acceptor
1 4 acceptor
1 5 acceptor
1 7 cation
1 7 donor
3 4 5 16 anion
7 1 6 8 9 10 12 13 rings

> <PUBCHEM_HEAVY_ATOM_COUNT>
16

> <PUBCHEM_ATOM_DEF_STEREO_COUNT>
3

> <PUBCHEM_ATOM_UDEF_STEREO_COUNT>
0

> <PUBCHEM_BOND_DEF_STEREO_COUNT>
0

> <PUBCHEM_BOND_UDEF_STEREO_COUNT>
0

> <PUBCHEM_ISOTOPIC_ATOM_COUNT>
0

> <PUBCHEM_COMPONENT_COUNT>
1

> <PUBCHEM_CACTVS_TAUTO_COUNT>
1

> <PUBCHEM_CONFORMER_ID>
0001FB8F00000001

> <PUBCHEM_MMFF94_ENERGY>
51.5849

> <PUBCHEM_FEATURE_SELFOVERLAP>
45.725

> <PUBCHEM_SHAPE_FINGERPRINT>
10608611 8 18334849524636448137
11206711 2 18189900798876670735
11471102 20 18411129217328216397
12032990 46 18334581243794152099
12138202 78 18410009940029056512
12524768 44 18262796388273296762
13296908 3 18260826012440117859
13380535 21 18266748058828345059
13380535 76 18266173010368639514
13897977 150 18338514260920598755
14251717 144 18412821391351028455
15219456 202 18335416881015136715
15536298 74 18412543219277781139
161256 15 18408037398946570776
16945 1 18191017911454563899
18175812 5 18333446526282384615
18186145 218 18333730191644761391
19422 9 18060140942493740099
20588541 1 18265053707399701144
20645477 70 18343012290455694407
20871999 31 18195542397856158750
21029758 11 18341329981767162618
21501502 16 18337957792025614217
221490 88 18409454699600395707
2334 1 18264205996735445067
23402539 116 18188194503159885204
23493267 7 17385724750299696920
23557571 272 17749663078246294909
23559900 14 18335981970348146362
25 1 18341050829988009424
2748010 2 18262806296879302483
3060560 45 18268981016821248895
3071541 250 18271815579409095890
3323516 105 18411425032984665103
7364860 26 18201434809433812048

> <PUBCHEM_SHAPE_MULTIPOLES>
299.68
5.98
2.32
0.96
3.72
0.27
0.13
-0.79
1.48
-1.39
-0.09
-0.25
0.03
0.89

> <PUBCHEM_SHAPE_SELFOVERLAP>
620.072

> <PUBCHEM_SHAPE_VOLUME>
174.6

> <PUBCHEM_COORDINATE_TYPE>
2
5
10

$$$$
