13009229
  -OEChem-03292013303D

 33 35  0     1  0  0  0  0  0999 V2000
   -2.5742   -0.3020    0.8913 O   0  0  0  0  0  0  0  0  0  0  0  0
   -4.1591    2.1572   -0.0943 O   0  0  0  0  0  0  0  0  0  0  0  0
   -4.2192   -2.5349    0.6253 O   0  0  0  0  0  0  0  0  0  0  0  0
    5.3765   -0.5857   -0.1599 O   0  5  0  0  0  0  0  0  0  0  0  0
    3.8182   -2.1235   -0.3217 O   0  0  0  0  0  0  0  0  0  0  0  0
   -0.3580    0.0288    0.1123 N   0  0  0  0  0  0  0  0  0  0  0  0
   -0.2427   -1.2992   -0.0759 N   0  0  0  0  0  0  0  0  0  0  0  0
    4.1673   -0.9265   -0.1676 N   0  3  0  0  0  0  0  0  0  0  0  0
   -1.6850    0.6204    0.2380 C   0  0  1  0  0  0  0  0  0  0  0  0
   -3.8026    0.9339   -0.7345 C   0  0  1  0  0  0  0  0  0  0  0  0
   -2.3340    0.9901   -1.0880 C   0  0  0  0  0  0  0  0  0  0  0  0
   -3.8747   -0.2093    0.2723 C   0  0  1  0  0  0  0  0  0  0  0  0
   -4.1820   -1.5491   -0.3822 C   0  0  0  0  0  0  0  0  0  0  0  0
    0.8448    0.6872    0.1645 C   0  0  0  0  0  0  0  0  0  0  0  0
    1.8131   -0.2964   -0.0034 C   0  0  0  0  0  0  0  0  0  0  0  0
    1.0763   -1.4919   -0.1454 C   0  0  0  0  0  0  0  0  0  0  0  0
    1.1537    2.0376    0.3417 C   0  0  0  0  0  0  0  0  0  0  0  0
    3.1704    0.0658    0.0028 C   0  0  0  0  0  0  0  0  0  0  0  0
    2.5094    2.3825    0.3455 C   0  0  0  0  0  0  0  0  0  0  0  0
    3.5020    1.4149    0.1792 C   0  0  0  0  0  0  0  0  0  0  0  0
   -1.5936    1.4920    0.8958 H   0  0  0  0  0  0  0  0  0  0  0  0
   -4.4570    0.8091   -1.6011 H   0  0  0  0  0  0  0  0  0  0  0  0
   -2.1040    0.2426   -1.8566 H   0  0  0  0  0  0  0  0  0  0  0  0
   -1.9975    1.9690   -1.4431 H   0  0  0  0  0  0  0  0  0  0  0  0
   -4.5951   -0.0104    1.0740 H   0  0  0  0  0  0  0  0  0  0  0  0
   -3.4039   -1.8304   -1.0991 H   0  0  0  0  0  0  0  0  0  0  0  0
   -5.1508   -1.5237   -0.8906 H   0  0  0  0  0  0  0  0  0  0  0  0
   -3.6925    2.2167    0.7559 H   0  0  0  0  0  0  0  0  0  0  0  0
    1.4193   -2.5045   -0.2971 H   0  0  0  0  0  0  0  0  0  0  0  0
    0.3869    2.7936    0.4682 H   0  0  0  0  0  0  0  0  0  0  0  0
   -4.4186   -3.3826    0.1928 H   0  0  0  0  0  0  0  0  0  0  0  0
    2.7936    3.4233    0.4797 H   0  0  0  0  0  0  0  0  0  0  0  0
    4.5389    1.7436    0.1908 H   0  0  0  0  0  0  0  0  0  0  0  0
  1  9  1  0  0  0  0
  1 12  1  0  0  0  0
  2 10  1  0  0  0  0
  2 28  1  0  0  0  0
  3 13  1  0  0  0  0
  3 31  1  0  0  0  0
  4  8  1  0  0  0  0
  5  8  2  0  0  0  0
  6  7  1  0  0  0  0
  6  9  1  0  0  0  0
  6 14  1  0  0  0  0
  7 16  2  0  0  0  0
  8 18  1  0  0  0  0
  9 11  1  0  0  0  0
  9 21  1  0  0  0  0
 10 11  1  0  0  0  0
 10 12  1  0  0  0  0
 10 22  1  0  0  0  0
 11 23  1  0  0  0  0
 11 24  1  0  0  0  0
 12 13  1  0  0  0  0
 12 25  1  0  0  0  0
 13 26  1  0  0  0  0
 13 27  1  0  0  0  0
 14 15  2  0  0  0  0
 14 17  1  0  0  0  0
 15 16  1  0  0  0  0
 15 18  1  0  0  0  0
 16 29  1  0  0  0  0
 17 19  2  0  0  0  0
 17 30  1  0  0  0  0
 18 20  2  0  0  0  0
 19 20  1  0  0  0  0
 19 32  1  0  0  0  0
 20 33  1  0  0  0  0
M  CHG  2   4  -1   8   1
M  END
> <PUBCHEM_COMPOUND_CID>
13009229

> <PUBCHEM_CONFORMER_RMSD>
0.6

> <PUBCHEM_CONFORMER_DIVERSEORDER>
1
8
12
2
11
7
10
5
6
9
4
3

> <PUBCHEM_MMFF94_PARTIAL_CHARGES>
24
1 -0.56
10 0.28
12 0.28
13 0.28
14 -0.15
16 0.14
17 -0.15
18 0.13
19 -0.15
2 -0.68
20 -0.15
28 0.4
29 0.15
3 -0.68
30 0.15
31 0.4
32 0.15
33 0.15
4 -0.52
5 -0.52
6 0.31
7 -0.71
8 0.91
9 0.54

> <PUBCHEM_EFFECTIVE_ROTOR_COUNT>
4

> <PUBCHEM_PHARMACOPHORE_FEATURES>
12
1 1 acceptor
1 2 acceptor
1 2 donor
1 3 acceptor
1 3 donor
1 4 acceptor
1 4 anion
1 5 acceptor
1 7 acceptor
5 1 9 10 11 12 rings
5 6 7 14 15 16 rings
6 14 15 17 18 19 20 rings

> <PUBCHEM_HEAVY_ATOM_COUNT>
20

> <PUBCHEM_ATOM_DEF_STEREO_COUNT>
3

> <PUBCHEM_ATOM_UDEF_STEREO_COUNT>
0

> <PUBCHEM_BOND_DEF_STEREO_COUNT>
0

> <PUBCHEM_BOND_UDEF_STEREO_COUNT>
0

> <PUBCHEM_ISOTOPIC_ATOM_COUNT>
0

> <PUBCHEM_COMPONENT_COUNT>
1

> <PUBCHEM_CACTVS_TAUTO_COUNT>
1

> <PUBCHEM_CONFORMER_ID>
00C6814D00000001

> <PUBCHEM_MMFF94_ENERGY>
51.9222

> <PUBCHEM_FEATURE_SELFOVERLAP>
61.082

> <PUBCHEM_SHAPE_FINGERPRINT>
10366900 7 17603302665397718041
10608611 8 18408880750509808373
11405975 8 18411700967770101225
11471102 20 18412822474009847716
11615757 297 18201722872610753961
12032990 46 18412266112441027062
12236239 1 17275100617707487253
12403259 226 18338230565556955529
12403259 415 18409445916349875825
12507557 5 18342737407694516312
12916754 54 18340207492074681611
13134695 92 17703496728026938360
13167823 11 18411416232649591887
13675066 3 18059848472105287768
13862211 1 18340484474837880062
13944108 23 16097104441619897861
14341114 176 18410017649996597265
15196674 1 18411136956733014536
15219456 202 18408601478724577105
17492 89 18411698824392055235
18186145 218 18187356610695896141
19591789 44 18410572928642776566
200 152 18060693983936354677
20645477 56 18188207594811255093
20645477 70 18343022194576152934
21065198 57 18410573985547401833
21267235 1 18412552028092499735
21709351 56 18410849962591278372
221490 88 18410295855975545067
22393880 68 18260255344240717567
23402539 116 18272364235785105404
23557571 272 17894346666541676013
23559900 14 18410847754972800161
2871803 45 18261663887703697251
3286 77 18409729598902645765
335352 9 18339923688814584421
350125 39 18339084907370933903
3545911 37 18408884006422001525
4214541 1 18410573972730928817
4990 188 18343025475804534150
5104073 3 18412824702691576393
5281201 14 18335139812390431669
633830 44 17603586335076563625
77779 3 18410574002579480565
9709674 26 18262520424024677971

> <PUBCHEM_SHAPE_MULTIPOLES>
367.3
9.8
2.4
0.76
0.53
0
0.05
-2.37
0.46
0.13
-0.1
0.42
0.05
0.89

> <PUBCHEM_SHAPE_SELFOVERLAP>
800.408

> <PUBCHEM_SHAPE_VOLUME>
201.3

> <PUBCHEM_COORDINATE_TYPE>
2
5
10

$$$$
