130034
  -OEChem-03292013323D

 45 46  0     0  0  0  0  0  0999 V2000
   -1.3122   -0.1043   -0.5510 S   0  0  0  0  0  0  0  0  0  0  0  0
    2.4707   -2.4582    0.6755 O   0  0  0  0  0  0  0  0  0  0  0  0
   -4.7523   -1.9101   -0.1069 O   0  0  0  0  0  0  0  0  0  0  0  0
    3.9292    3.8866    0.3550 O   0  0  0  0  0  0  0  0  0  0  0  0
    4.8734   -1.0419   -0.2640 N   0  0  0  0  0  0  0  0  0  0  0  0
    1.2154   -0.6648   -0.1389 N   0  0  0  0  0  0  0  0  0  0  0  0
   -4.2247    0.1869   -0.8840 N   0  0  0  0  0  0  0  0  0  0  0  0
   -0.4308   -2.3349    0.4135 N   0  0  0  0  0  0  0  0  0  0  0  0
    5.7127    2.4060   -0.1351 N   0  0  0  0  0  0  0  0  0  0  0  0
   -4.5836    2.4142    1.3982 N   0  0  0  0  0  0  0  0  0  0  0  0
   -5.8763    3.6123   -0.1720 N   0  0  0  0  0  0  0  0  0  0  0  0
    3.6407   -0.5211    0.0322 C   0  0  0  0  0  0  0  0  0  0  0  0
    5.1309    1.1597   -0.1244 C   0  0  0  0  0  0  0  0  0  0  0  0
    3.7718    0.8470    0.1248 C   0  0  0  0  0  0  0  0  0  0  0  0
    5.7891   -0.0268   -0.3618 C   0  0  0  0  0  0  0  0  0  0  0  0
    2.4161   -1.3209    0.2133 C   0  0  0  0  0  0  0  0  0  0  0  0
   -5.5823    0.5659   -1.1709 C   0  0  0  0  0  0  0  0  0  0  0  0
   -2.4596   -1.3137   -0.1482 C   0  0  0  0  0  0  0  0  0  0  0  0
    5.1778   -2.4433   -0.4516 C   0  0  0  0  0  0  0  0  0  0  0  0
   -1.8076   -2.4232    0.3474 C   0  0  0  0  0  0  0  0  0  0  0  0
   -0.0587   -1.1562   -0.0341 C   0  0  0  0  0  0  0  0  0  0  0  0
   -6.2598    1.2346    0.0178 C   0  0  0  0  0  0  0  0  0  0  0  0
   -3.8928   -1.0627   -0.3559 C   0  0  0  0  0  0  0  0  0  0  0  0
   -2.4455   -3.6749    0.8045 C   0  0  0  0  0  0  0  0  0  0  0  0
   -5.5390    2.5083    0.4206 C   0  0  0  0  0  0  0  0  0  0  0  0
    5.0976    3.6355    0.0960 C   0  0  0  0  0  0  0  0  0  0  0  0
    2.9715    1.5362    0.3553 H   0  0  0  0  0  0  0  0  0  0  0  0
    6.8273   -0.2298   -0.5904 H   0  0  0  0  0  0  0  0  0  0  0  0
   -6.1524   -0.3186   -1.4744 H   0  0  0  0  0  0  0  0  0  0  0  0
   -5.5454    1.2512   -2.0247 H   0  0  0  0  0  0  0  0  0  0  0  0
    6.1917   -2.5443   -0.8480 H   0  0  0  0  0  0  0  0  0  0  0  0
    4.4677   -2.8667   -1.1664 H   0  0  0  0  0  0  0  0  0  0  0  0
    5.1099   -2.9443    0.5170 H   0  0  0  0  0  0  0  0  0  0  0  0
   -6.2889    0.5543    0.8769 H   0  0  0  0  0  0  0  0  0  0  0  0
   -7.2952    1.4843   -0.2410 H   0  0  0  0  0  0  0  0  0  0  0  0
    1.2716    0.2759   -0.5198 H   0  0  0  0  0  0  0  0  0  0  0  0
   -3.4869    0.8578   -1.0782 H   0  0  0  0  0  0  0  0  0  0  0  0
    6.7096    2.4203   -0.3367 H   0  0  0  0  0  0  0  0  0  0  0  0
   -3.0003   -4.1481   -0.0118 H   0  0  0  0  0  0  0  0  0  0  0  0
   -1.6972   -4.3918    1.1583 H   0  0  0  0  0  0  0  0  0  0  0  0
   -3.1359   -3.4795    1.6311 H   0  0  0  0  0  0  0  0  0  0  0  0
    5.8469    4.4415    0.0133 H   0  0  0  0  0  0  0  0  0  0  0  0
   -4.0723    3.2318    1.7126 H   0  0  0  0  0  0  0  0  0  0  0  0
   -4.3482    1.5283    1.8331 H   0  0  0  0  0  0  0  0  0  0  0  0
   -5.3092    4.3774    0.2094 H   0  0  0  0  0  0  0  0  0  0  0  0
  1 18  1  0  0  0  0
  1 21  1  0  0  0  0
  2 16  2  0  0  0  0
  3 23  2  0  0  0  0
  4 26  2  0  0  0  0
  5 12  1  0  0  0  0
  5 15  1  0  0  0  0
  5 19  1  0  0  0  0
  6 16  1  0  0  0  0
  6 21  1  0  0  0  0
  6 36  1  0  0  0  0
  7 17  1  0  0  0  0
  7 23  1  0  0  0  0
  7 37  1  0  0  0  0
  8 20  1  0  0  0  0
  8 21  2  0  0  0  0
  9 13  1  0  0  0  0
  9 26  1  0  0  0  0
  9 38  1  0  0  0  0
 10 25  1  0  0  0  0
 10 43  1  0  0  0  0
 10 44  1  0  0  0  0
 11 25  2  0  0  0  0
 11 45  1  0  0  0  0
 12 14  2  0  0  0  0
 12 16  1  0  0  0  0
 13 14  1  0  0  0  0
 13 15  2  0  0  0  0
 14 27  1  0  0  0  0
 15 28  1  0  0  0  0
 17 22  1  0  0  0  0
 17 29  1  0  0  0  0
 17 30  1  0  0  0  0
 18 20  2  0  0  0  0
 18 23  1  0  0  0  0
 19 31  1  0  0  0  0
 19 32  1  0  0  0  0
 19 33  1  0  0  0  0
 20 24  1  0  0  0  0
 22 25  1  0  0  0  0
 22 34  1  0  0  0  0
 22 35  1  0  0  0  0
 24 39  1  0  0  0  0
 24 40  1  0  0  0  0
 24 41  1  0  0  0  0
 26 42  1  0  0  0  0
M  END
> <PUBCHEM_COMPOUND_CID>
130034

> <PUBCHEM_CONFORMER_RMSD>
1

> <PUBCHEM_CONFORMER_DIVERSEORDER>
1
61
37
81
70
85
64
43
47
80
45
84
78
58
83
88
74
75
62
23
87
35
71
77
86
46
79
63
49
69
34
82
76
38
19
89
67
50
54
28
55
59
41
40
73
21
65
68
72
53
15
31
44
60
14
32
12
25
18
8
22
29
66
11
10
4
33
7
52
20
27
24
6
57
30
56
13
42
5
51
17
48
39
2
3
26
9
36
16

> <PUBCHEM_MMFF94_PARTIAL_CHARGES>
35
1 -0.08
10 -0.85
11 -0.85
12 -0.24
13 0.06
14 -0.15
15 -0.3
16 0.71
17 0.3
18 -0.05
19 0.26
2 -0.57
20 0.05
21 0.44
22 0.06
23 0.71
24 0.18
25 0.44
26 0.57
27 0.15
28 0.15
3 -0.57
36 0.37
37 0.37
38 0.37
4 -0.57
42 0.06
43 0.4
44 0.4
45 0.4
5 0.05
6 -0.49
7 -0.73
8 -0.57
9 -0.49

> <PUBCHEM_EFFECTIVE_ROTOR_COUNT>
10

> <PUBCHEM_PHARMACOPHORE_FEATURES>
12
1 10 donor
1 11 donor
1 2 acceptor
1 3 acceptor
1 4 acceptor
1 5 cation
1 6 donor
1 7 donor
1 9 donor
3 10 11 25 cation
5 1 8 18 20 21 rings
5 5 12 13 14 15 rings

> <PUBCHEM_HEAVY_ATOM_COUNT>
26

> <PUBCHEM_ATOM_DEF_STEREO_COUNT>
0

> <PUBCHEM_ATOM_UDEF_STEREO_COUNT>
0

> <PUBCHEM_BOND_DEF_STEREO_COUNT>
0

> <PUBCHEM_BOND_UDEF_STEREO_COUNT>
0

> <PUBCHEM_ISOTOPIC_ATOM_COUNT>
0

> <PUBCHEM_COMPONENT_COUNT>
1

> <PUBCHEM_CACTVS_TAUTO_COUNT>
14

> <PUBCHEM_CONFORMER_ID>
0001FBF200000001

> <PUBCHEM_MMFF94_ENERGY>
37.7416

> <PUBCHEM_FEATURE_SELFOVERLAP>
60.936

> <PUBCHEM_SHAPE_FINGERPRINT>
10835480 77 18410288155473547964
12107183 9 18191015717032744442
12390115 104 18409456851990713191
12925494 130 18338232773365590977
13167372 99 18411135814519354346
13885169 86 18411143511370248545
14251764 30 8286201643268449759
14429114 114 18340764965507905665
14790565 3 18337673006087729329
15183329 4 18341612590135028922
17844677 252 18339650039373814222
20058555 10 18410293640078999077
20281389 69 18261392209362350405
20691028 202 18411981322056305281
21304253 335 18260833725869007838
22122407 14 18412269440676892888
23559900 14 18410571782619997850
2748736 6 18409718569505990957
2838139 119 18411979122852870167
34797466 226 18058742440896868646
4073 2 18114747143947696378
4144715 1 18262529207306963082
5104073 3 17968089850317357162
550186 72 17546165667492641654
59682541 35 18114476596132113033
636775 72 18340482382846357616

> <PUBCHEM_SHAPE_MULTIPOLES>
486.44
17.96
4.68
0.84
2.05
2.77
-0.01
14.32
1.46
-0.12
-1.14
0.73
0.04
0.12

> <PUBCHEM_SHAPE_SELFOVERLAP>
1006.771

> <PUBCHEM_SHAPE_VOLUME>
280.5

> <PUBCHEM_COORDINATE_TYPE>
2
5
10

$$$$
