130081
  -OEChem-03292013323D

 31 33  0     0  0  0  0  0  0999 V2000
    0.8429   -2.2816    0.1884 S   0  0  0  0  0  0  0  0  0  0  0  0
    6.4549    1.1710    0.0146 O   0  0  0  0  0  0  0  0  0  0  0  0
   -3.7175   -1.8684    0.0862 O   0  0  0  0  0  0  0  0  0  0  0  0
    0.0931    0.1845   -0.0089 N   0  0  0  0  0  0  0  0  0  0  0  0
   -2.2943   -0.0160   -0.0308 N   0  0  0  0  0  0  0  0  0  0  0  0
   -5.9310   -0.2237   -0.0254 N   0  0  0  0  0  0  0  0  0  0  0  0
   -4.5659    1.5812   -0.1074 N   0  0  0  0  0  0  0  0  0  0  0  0
   -6.5784    0.9487   -0.0815 N   0  0  0  0  0  0  0  0  0  0  0  0
   -5.8094    2.0452   -0.1311 N   0  0  0  0  0  0  0  0  0  0  0  0
    2.5170   -0.1409    0.0532 C   0  0  0  0  0  0  0  0  0  0  0  0
    1.1485   -0.5968    0.0664 C   0  0  0  0  0  0  0  0  0  0  0  0
    2.8138    1.1841    0.3724 C   0  0  0  0  0  0  0  0  0  0  0  0
    3.5434   -1.0250   -0.2790 C   0  0  0  0  0  0  0  0  0  0  0  0
   -1.0454   -0.5965    0.0321 C   0  0  0  0  0  0  0  0  0  0  0  0
    5.1636    0.7408    0.0273 C   0  0  0  0  0  0  0  0  0  0  0  0
    4.1372    1.6249    0.3594 C   0  0  0  0  0  0  0  0  0  0  0  0
    4.8668   -0.5841   -0.2919 C   0  0  0  0  0  0  0  0  0  0  0  0
   -0.8402   -1.9562    0.1377 C   0  0  0  0  0  0  0  0  0  0  0  0
   -3.5466   -0.6560   -0.0022 C   0  0  0  0  0  0  0  0  0  0  0  0
   -4.7069    0.2503   -0.0454 C   0  0  0  0  0  0  0  0  0  0  0  0
    7.4545    0.2146   -0.3340 C   0  0  0  0  0  0  0  0  0  0  0  0
    2.0316    1.8913    0.6377 H   0  0  0  0  0  0  0  0  0  0  0  0
    3.3778   -2.0598   -0.5630 H   0  0  0  0  0  0  0  0  0  0  0  0
    4.3626    2.6580    0.6096 H   0  0  0  0  0  0  0  0  0  0  0  0
    5.6148   -1.3210   -0.5644 H   0  0  0  0  0  0  0  0  0  0  0  0
   -1.5390   -2.7767    0.1886 H   0  0  0  0  0  0  0  0  0  0  0  0
   -2.2803    0.9986   -0.1007 H   0  0  0  0  0  0  0  0  0  0  0  0
    7.3276   -0.1440   -1.3611 H   0  0  0  0  0  0  0  0  0  0  0  0
    7.4963   -0.6061    0.3902 H   0  0  0  0  0  0  0  0  0  0  0  0
    8.4211    0.7273   -0.2919 H   0  0  0  0  0  0  0  0  0  0  0  0
   -7.5914    1.0031   -0.0859 H   0  0  0  0  0  0  0  0  0  0  0  0
  1 11  1  0  0  0  0
  1 18  1  0  0  0  0
  2 15  1  0  0  0  0
  2 21  1  0  0  0  0
  3 19  2  0  0  0  0
  4 11  2  0  0  0  0
  4 14  1  0  0  0  0
  5 14  1  0  0  0  0
  5 19  1  0  0  0  0
  5 27  1  0  0  0  0
  6  8  1  0  0  0  0
  6 20  2  0  0  0  0
  7  9  2  0  0  0  0
  7 20  1  0  0  0  0
  8  9  1  0  0  0  0
  8 31  1  0  0  0  0
 10 11  1  0  0  0  0
 10 12  2  0  0  0  0
 10 13  1  0  0  0  0
 12 16  1  0  0  0  0
 12 22  1  0  0  0  0
 13 17  2  0  0  0  0
 13 23  1  0  0  0  0
 14 18  2  0  0  0  0
 15 16  2  0  0  0  0
 15 17  1  0  0  0  0
 16 24  1  0  0  0  0
 17 25  1  0  0  0  0
 18 26  1  0  0  0  0
 19 20  1  0  0  0  0
 21 28  1  0  0  0  0
 21 29  1  0  0  0  0
 21 30  1  0  0  0  0
M  END
> <PUBCHEM_COMPOUND_CID>
130081

> <PUBCHEM_CONFORMER_RMSD>
0.8

> <PUBCHEM_CONFORMER_DIVERSEORDER>
1

> <PUBCHEM_MMFF94_PARTIAL_CHARGES>
28
1 -0.08
10 0.05
11 0.33
12 -0.15
13 -0.15
14 0.29
15 0.08
16 -0.15
17 -0.15
18 -0.11
19 0.72
2 -0.36
20 0.43
21 0.28
22 0.15
23 0.15
24 0.15
25 0.15
26 0.15
27 0.37
3 -0.57
31 0.27
4 -0.57
5 -0.49
6 -0.71
7 -0.23
8 0.57
9 -0.42

> <PUBCHEM_EFFECTIVE_ROTOR_COUNT>
5

> <PUBCHEM_PHARMACOPHORE_FEATURES>
8
1 2 acceptor
1 3 acceptor
1 4 acceptor
1 5 donor
3 6 7 20 cation
5 1 4 11 14 18 rings
5 6 7 8 9 20 rings
6 10 12 13 15 16 17 rings

> <PUBCHEM_HEAVY_ATOM_COUNT>
21

> <PUBCHEM_ATOM_DEF_STEREO_COUNT>
0

> <PUBCHEM_ATOM_UDEF_STEREO_COUNT>
0

> <PUBCHEM_BOND_DEF_STEREO_COUNT>
0

> <PUBCHEM_BOND_UDEF_STEREO_COUNT>
0

> <PUBCHEM_ISOTOPIC_ATOM_COUNT>
0

> <PUBCHEM_COMPONENT_COUNT>
1

> <PUBCHEM_CACTVS_TAUTO_COUNT>
7

> <PUBCHEM_CONFORMER_ID>
0001FC2100000001

> <PUBCHEM_MMFF94_ENERGY>
52.385

> <PUBCHEM_FEATURE_SELFOVERLAP>
40.597

> <PUBCHEM_SHAPE_FINGERPRINT>
10 15 18113340804187619585
10411042 1 17761213615749134931
106641 1 9367345896139919748
10730089 173 18342458136347388073
11719270 70 18060135411008938622
12091667 2 18410294739748369139
12403259 415 18201435942941175162
12596602 18 15068632607763417485
12633257 1 15936413372519149107
13167372 99 18411418367316870952
13533116 47 17561085757526045758
13785724 45 17832981646980654938
13968360 50 16200156461047715558
14251757 52 17676779768609788732
14251764 18 18186516618229971098
14528608 73 18342172271956065135
14556957 393 15769508615424349136
14933364 13 18410577287981321261
15048467 5 18408885131012109181
15183329 4 18202004304643131504
15196674 1 18411136960906656075
15716309 27 11169912792474861632
15778101 99 18410857668316475387
15927050 60 18335419088824883314
17780758 139 11891328739006678839
17834072 8 18060139842776215092
18222031 100 12607403286865687146
20281389 69 18259701185768904965
20554085 129 17846482743979531194
20621476 66 18408045112766006109
21033648 29 18341323509066773240
21150785 3 16487251088642605437
21709351 56 18340761641276188373
220451 1 16732979847571336154
221357 26 17988925548614224416
22224240 67 14129060344105905328
22289505 5 18130788958472355792
23402539 116 18272085036977674294
23402655 69 18272366481768469862
23559900 14 18201997767971867416
2838139 119 18343015618554188685
2916195 48 18340483460375837168
293599 30 18411136939405328898
29717793 49 16773806891954049292
335352 9 18411702106542784300
350125 39 18408884023517520092
3545911 37 18412545418148107865
4073 2 18041565840367616762
4325135 7 18343579668878899207
4340502 62 16081367449734260338
465052 167 10881398725654900776
5104073 3 18115312168602008547
5385378 56 18187360987768939026
59682541 35 10737286892576211964
59682541 52 17703524207744124366
59755656 215 18341336613302104350
59755656 520 18113894987501554938
6328613 192 18261681479937403236
633830 44 18410847785037928663

> <PUBCHEM_SHAPE_MULTIPOLES>
394.39
17.88
1.97
0.62
2.62
0.33
0.01
-9.08
-1.5
0.95
0.11
-0.21
0.02
0.41

> <PUBCHEM_SHAPE_SELFOVERLAP>
848.676

> <PUBCHEM_SHAPE_VOLUME>
219.1

> <PUBCHEM_COORDINATE_TYPE>
2
5
10

$$$$
