130048
  -OEChem-03292013323D

 26 27  0     1  0  0  0  0  0999 V2000
    2.7207    0.1188    0.4895 O   0  0  0  0  0  0  0  0  0  0  0  0
   -3.3312   -1.9745    0.6455 O   0  0  0  0  0  0  0  0  0  0  0  0
    1.0307   -0.8643   -0.7673 O   0  0  0  0  0  0  0  0  0  0  0  0
    4.8995    0.0569    0.1568 O   0  0  0  0  0  0  0  0  0  0  0  0
    3.5807   -1.0498   -1.3265 O   0  0  0  0  0  0  0  0  0  0  0  0
   -2.9344    0.8808   -1.1956 N   0  0  0  0  0  0  0  0  0  0  0  0
   -3.6421   -0.2522   -0.9282 N   0  0  0  0  0  0  0  0  0  0  0  0
    0.5153    0.4303    1.1927 C   0  0  1  0  0  0  0  0  0  0  0  0
    0.1683    1.8685    0.7615 C   0  0  0  0  0  0  0  0  0  0  0  0
   -0.7299   -0.4494    1.4202 C   0  0  0  0  0  0  0  0  0  0  0  0
   -0.7681    1.9440   -0.4602 C   0  0  0  0  0  0  0  0  0  0  0  0
   -1.7997   -0.1338    0.4474 C   0  0  0  0  0  0  0  0  0  0  0  0
   -1.8330    0.9089   -0.3924 C   0  0  0  0  0  0  0  0  0  0  0  0
   -3.0059   -0.9312    0.1062 C   0  0  0  0  0  0  0  0  0  0  0  0
    1.4283   -0.1933    0.1753 C   0  0  0  0  0  0  0  0  0  0  0  0
    3.7009   -0.3599   -0.3250 C   0  0  0  0  0  0  0  0  0  0  0  0
    1.0622    0.4611    2.1450 H   0  0  0  0  0  0  0  0  0  0  0  0
    1.0800    2.4395    0.5476 H   0  0  0  0  0  0  0  0  0  0  0  0
   -0.3217    2.3706    1.6067 H   0  0  0  0  0  0  0  0  0  0  0  0
   -1.1201   -0.2618    2.4281 H   0  0  0  0  0  0  0  0  0  0  0  0
   -0.4703   -1.5133    1.3692 H   0  0  0  0  0  0  0  0  0  0  0  0
   -0.1878    1.8026   -1.3797 H   0  0  0  0  0  0  0  0  0  0  0  0
   -1.2108    2.9456   -0.5078 H   0  0  0  0  0  0  0  0  0  0  0  0
   -2.9837    1.3521   -2.0877 H   0  0  0  0  0  0  0  0  0  0  0  0
   -4.4924   -0.4716   -1.4297 H   0  0  0  0  0  0  0  0  0  0  0  0
    5.6460   -0.2615   -0.3944 H   0  0  0  0  0  0  0  0  0  0  0  0
  1 15  1  0  0  0  0
  1 16  1  0  0  0  0
  2 14  2  0  0  0  0
  3 15  2  0  0  0  0
  4 16  1  0  0  0  0
  4 26  1  0  0  0  0
  5 16  2  0  0  0  0
  6  7  1  0  0  0  0
  6 13  1  0  0  0  0
  6 24  1  0  0  0  0
  7 14  1  0  0  0  0
  7 25  1  0  0  0  0
  8  9  1  0  0  0  0
  8 10  1  0  0  0  0
  8 15  1  0  0  0  0
  8 17  1  0  0  0  0
  9 11  1  0  0  0  0
  9 18  1  0  0  0  0
  9 19  1  0  0  0  0
 10 12  1  0  0  0  0
 10 20  1  0  0  0  0
 10 21  1  0  0  0  0
 11 13  1  0  0  0  0
 11 22  1  0  0  0  0
 11 23  1  0  0  0  0
 12 13  2  0  0  0  0
 12 14  1  0  0  0  0
M  END
> <PUBCHEM_COMPOUND_CID>
130048

> <PUBCHEM_CONFORMER_RMSD>
0.6

> <PUBCHEM_CONFORMER_DIVERSEORDER>
1
34
20
37
4
5
25
36
15
35
10
8
21
6
22
9
29
31
32
13
30
33
11
16
12
14
3
28
24
7
27
23
19
17
18
26
2

> <PUBCHEM_MMFF94_PARTIAL_CHARGES>
18
1 -0.3
10 0.14
11 0.14
12 -0.12
13 -0.04
14 0.62
15 0.66
16 0.87
2 -0.57
24 0.4
25 0.37
26 0.5
3 -0.57
4 -0.65
5 -0.57
6 -0.52
7 -0.41
8 0.06

> <PUBCHEM_EFFECTIVE_ROTOR_COUNT>
3.8

> <PUBCHEM_PHARMACOPHORE_FEATURES>
9
1 2 acceptor
1 3 acceptor
1 4 acceptor
1 5 acceptor
1 6 donor
1 7 donor
3 4 5 16 anion
5 6 7 12 13 14 rings
6 8 9 10 11 12 13 rings

> <PUBCHEM_HEAVY_ATOM_COUNT>
16

> <PUBCHEM_ATOM_DEF_STEREO_COUNT>
0

> <PUBCHEM_ATOM_UDEF_STEREO_COUNT>
1

> <PUBCHEM_BOND_DEF_STEREO_COUNT>
0

> <PUBCHEM_BOND_UDEF_STEREO_COUNT>
0

> <PUBCHEM_ISOTOPIC_ATOM_COUNT>
0

> <PUBCHEM_COMPONENT_COUNT>
1

> <PUBCHEM_CACTVS_TAUTO_COUNT>
5

> <PUBCHEM_CONFORMER_ID>
0001FC0000000001

> <PUBCHEM_MMFF94_ENERGY>
34.4529

> <PUBCHEM_FEATURE_SELFOVERLAP>
47.404

> <PUBCHEM_SHAPE_FINGERPRINT>
10465860 71 18186802495505864701
11127187 94 18333449837644017591
11543360 7 17749115521223560166
12032990 46 18272092712042066474
12119455 92 12757143589276853520
12251169 10 11815892379341881283
12491281 212 15574720174824037756
12892183 10 11815891258445153164
13024252 1 16660657232323174705
13296908 3 18342455954303197474
13571099 52 8214152853971409617
14943859 89 13118002205795645296
15375462 189 15554727776555847410
15775835 57 15864068737089582685
16945 1 18261383404373750369
17134986 127 16962935819224407133
17844478 74 17989208122817329724
1813 80 16630259077300114092
18186145 218 18040997340888927192
19422 9 14189567576693363208
19489759 90 17967246491018733224
200 152 17632573821456300048
20201158 50 18412542093890932471
20300324 65 17967253104640601948
20645476 183 16515677853882978731
20653085 51 14562824256415128120
20871999 31 18113891672366414599
21061003 4 17847062202979570745
21079973 296 18411133671314856042
22213442 358 18339079396991300605
23382010 3 16588590927695918472
23402539 116 17967526874609507398
23419403 2 15722528742975751105
23557571 272 18408887334314683129
23559900 14 18334848386781176026
25 1 12107778605880921548
2748010 2 17971456641121412017
305870 269 10159715580987261357
4663303 62 18126837429277325289
77492 1 16226314958963244945
83771 10 16988841674631280688
84936 31 17630031896333433616

> <PUBCHEM_SHAPE_MULTIPOLES>
289.96
6.93
1.58
1.18
5.76
0.39
0.05
-2.55
-1.9
-0.97
0.03
-0.1
-0.03
0.83

> <PUBCHEM_SHAPE_SELFOVERLAP>
621.524

> <PUBCHEM_SHAPE_VOLUME>
158.4

> <PUBCHEM_COORDINATE_TYPE>
2
5
10

$$$$
