130098
  -OEChem-03292013323D

 37 39  0     1  0  0  0  0  0999 V2000
    3.0292   -0.6600    1.1892 S   0  0  0  0  0  0  0  0  0  0  0  0
   -6.8100   -1.1086   -0.9124 F   0  0  0  0  0  0  0  0  0  0  0  0
   -2.2769    1.7795    0.2750 O   0  0  0  0  0  0  0  0  0  0  0  0
    3.7893    0.2566    2.0320 O   0  0  0  0  0  0  0  0  0  0  0  0
    2.8484   -2.0342    1.6440 O   0  0  0  0  0  0  0  0  0  0  0  0
   -1.9562   -2.2908    0.0022 O   0  0  0  0  0  0  0  0  0  0  0  0
    6.2781    1.5809   -1.6373 O   0  0  0  0  0  0  0  0  0  0  0  0
    6.3988   -0.6014   -1.0063 O   0  0  0  0  0  0  0  0  0  0  0  0
    3.7383   -0.6835   -0.3886 N   0  0  2  0  0  0  0  0  0  0  0  0
    1.4509    0.0347    0.9133 C   0  0  0  0  0  0  0  0  0  0  0  0
   -0.8917   -0.2279    0.3997 C   0  0  0  0  0  0  0  0  0  0  0  0
    0.3676   -0.7928    0.6175 C   0  0  0  0  0  0  0  0  0  0  0  0
   -1.0718    1.1529    0.4762 C   0  0  0  0  0  0  0  0  0  0  0  0
    1.2760    1.4166    0.9908 C   0  0  0  0  0  0  0  0  0  0  0  0
   -2.0523   -1.0753    0.0855 C   0  0  0  0  0  0  0  0  0  0  0  0
   -3.3341   -0.3853   -0.1253 C   0  0  0  0  0  0  0  0  0  0  0  0
    0.0165    1.9763    0.7727 C   0  0  0  0  0  0  0  0  0  0  0  0
   -3.3721    1.0046   -0.0180 C   0  0  0  0  0  0  0  0  0  0  0  0
    4.2830    0.5937   -0.9153 C   0  0  0  0  0  0  0  0  0  0  0  0
    3.0449   -1.4680   -1.4417 C   0  0  0  0  0  0  0  0  0  0  0  0
   -4.4925   -1.1061   -0.4270 C   0  0  0  0  0  0  0  0  0  0  0  0
   -4.5784    1.6800   -0.2143 C   0  0  0  0  0  0  0  0  0  0  0  0
   -5.6947   -0.4257   -0.6218 C   0  0  0  0  0  0  0  0  0  0  0  0
   -5.7378    0.9646   -0.5157 C   0  0  0  0  0  0  0  0  0  0  0  0
    5.7480    0.4191   -1.1746 C   0  0  0  0  0  0  0  0  0  0  0  0
    0.5005   -1.8690    0.5514 H   0  0  0  0  0  0  0  0  0  0  0  0
    2.1073    2.0785    1.2164 H   0  0  0  0  0  0  0  0  0  0  0  0
   -0.1088    3.0540    0.8346 H   0  0  0  0  0  0  0  0  0  0  0  0
    4.1599    1.4058   -0.1936 H   0  0  0  0  0  0  0  0  0  0  0  0
    3.7795    0.8801   -1.8445 H   0  0  0  0  0  0  0  0  0  0  0  0
    2.7173   -2.4336   -1.0466 H   0  0  0  0  0  0  0  0  0  0  0  0
    3.7393   -1.6741   -2.2626 H   0  0  0  0  0  0  0  0  0  0  0  0
    2.1835   -0.9227   -1.8373 H   0  0  0  0  0  0  0  0  0  0  0  0
   -4.4784   -2.1888   -0.5139 H   0  0  0  0  0  0  0  0  0  0  0  0
   -4.6232    2.7629   -0.1340 H   0  0  0  0  0  0  0  0  0  0  0  0
   -6.6755    1.4908   -0.6683 H   0  0  0  0  0  0  0  0  0  0  0  0
    7.2388    1.4983   -1.8173 H   0  0  0  0  0  0  0  0  0  0  0  0
  1  4  2  0  0  0  0
  1  5  2  0  0  0  0
  1  9  1  0  0  0  0
  1 10  1  0  0  0  0
  2 23  1  0  0  0  0
  3 13  1  0  0  0  0
  3 18  1  0  0  0  0
  6 15  2  0  0  0  0
  7 25  1  0  0  0  0
  7 37  1  0  0  0  0
  8 25  2  0  0  0  0
  9 19  1  0  0  0  0
  9 20  1  0  0  0  0
 10 12  2  0  0  0  0
 10 14  1  0  0  0  0
 11 12  1  0  0  0  0
 11 13  2  0  0  0  0
 11 15  1  0  0  0  0
 12 26  1  0  0  0  0
 13 17  1  0  0  0  0
 14 17  2  0  0  0  0
 14 27  1  0  0  0  0
 15 16  1  0  0  0  0
 16 18  2  0  0  0  0
 16 21  1  0  0  0  0
 17 28  1  0  0  0  0
 18 22  1  0  0  0  0
 19 25  1  0  0  0  0
 19 29  1  0  0  0  0
 19 30  1  0  0  0  0
 20 31  1  0  0  0  0
 20 32  1  0  0  0  0
 20 33  1  0  0  0  0
 21 23  2  0  0  0  0
 21 34  1  0  0  0  0
 22 24  2  0  0  0  0
 22 35  1  0  0  0  0
 23 24  1  0  0  0  0
 24 36  1  0  0  0  0
M  END
> <PUBCHEM_COMPOUND_CID>
130098

> <PUBCHEM_CONFORMER_RMSD>
0.8

> <PUBCHEM_CONFORMER_DIVERSEORDER>
1
2
10
4
15
17
14
19
8
18
5
13
6
12
7
16
3
9
11

> <PUBCHEM_MMFF94_PARTIAL_CHARGES>
32
1 1.45
10 -0.01
11 0.09
12 -0.15
13 0.08
14 -0.15
15 0.4
16 0.09
17 -0.15
18 0.08
19 0.42
2 -0.19
20 0.36
21 -0.15
22 -0.15
23 0.19
24 -0.15
25 0.66
26 0.15
27 0.15
28 0.15
3 -0.17
34 0.15
35 0.15
36 0.15
37 0.5
4 -0.65
5 -0.65
6 -0.57
7 -0.65
8 -0.57
9 -0.85

> <PUBCHEM_EFFECTIVE_ROTOR_COUNT>
4

> <PUBCHEM_PHARMACOPHORE_FEATURES>
10
1 3 acceptor
1 4 acceptor
1 5 acceptor
1 6 acceptor
1 7 acceptor
1 8 acceptor
3 7 8 25 anion
6 10 11 12 13 14 17 rings
6 16 18 21 22 23 24 rings
6 3 11 13 15 16 18 rings

> <PUBCHEM_HEAVY_ATOM_COUNT>
25

> <PUBCHEM_ATOM_DEF_STEREO_COUNT>
0

> <PUBCHEM_ATOM_UDEF_STEREO_COUNT>
0

> <PUBCHEM_BOND_DEF_STEREO_COUNT>
0

> <PUBCHEM_BOND_UDEF_STEREO_COUNT>
0

> <PUBCHEM_ISOTOPIC_ATOM_COUNT>
0

> <PUBCHEM_COMPONENT_COUNT>
1

> <PUBCHEM_CACTVS_TAUTO_COUNT>
1

> <PUBCHEM_CONFORMER_ID>
0001FC3200000001

> <PUBCHEM_MMFF94_ENERGY>
54.7516

> <PUBCHEM_FEATURE_SELFOVERLAP>
50.882

> <PUBCHEM_SHAPE_FINGERPRINT>
10319926 262 8574713511482042124
10366900 7 17346322574719297482
10554248 39 17751899373233725719
11961588 58 18187369865481559560
12011746 2 17988926669120283567
12236239 1 17894911810664176906
12670546 177 18410016528872996140
12788726 201 18271808952011139512
13533116 47 15357686454274636048
13544592 145 17703785942101744890
13668630 136 15769777970134828829
13685833 64 16272211890285059686
13690498 29 18266741479577264527
14251757 5 18411985784057320479
14528608 73 18187083966414519740
14617045 38 17775289360862648327
15183329 4 18407761430165640476
15196674 1 18340192043388775321
17844677 252 16917348134559351497
18335252 98 17240773904134278755
18608769 82 18262808492225152691
18681886 176 18343300392667104176
19319366 153 17822283574392390723
20871999 31 18413112748915352185
21150785 3 17967532406859778679
21267235 1 18342738559837560103
21637258 2 15051457072659855006
2215653 11 17775562022840546437
2297311 6 17988926669700733417
23522609 53 18267888115116791873
23559900 14 18059569243201651704
239999 70 17988917886487085216
25147074 1 18191587454399037040
2838139 119 16298387976450337852
3004659 81 18410571799113753004
335352 9 18413383243027042989
3472631 163 17967822686519342460
465052 167 12823294628314759348
474 4 17022913384372065852
543368 44 17822014241551397741
6823239 73 17988918998830841698
9709674 26 18199176472896232043

> <PUBCHEM_SHAPE_MULTIPOLES>
470.87
15.05
1.93
1.39
1.04
0.03
0.15
-0.12
-7.95
-0.59
0.09
2.34
-0.08
-0.72

> <PUBCHEM_SHAPE_SELFOVERLAP>
1018.034

> <PUBCHEM_SHAPE_VOLUME>
262

> <PUBCHEM_COORDINATE_TYPE>
2
5
10

$$$$
