13009364
  -OEChem-03292013303D

 39 40  0     1  0  0  0  0  0999 V2000
   -1.5906    0.9499   -1.3201 O   0  0  0  0  0  0  0  0  0  0  0  0
   -3.1690   -1.0279    1.2208 O   0  0  0  0  0  0  0  0  0  0  0  0
   -4.4113    0.8587   -0.3075 O   0  0  0  0  0  0  0  0  0  0  0  0
   -0.5546    3.5231   -0.9743 O   0  0  0  0  0  0  0  0  0  0  0  0
   -1.3105   -3.0847   -0.6024 O   0  0  0  0  0  0  0  0  0  0  0  0
    3.2285   -2.5785   -0.0594 O   0  0  0  0  0  0  0  0  0  0  0  0
   -0.4592   -0.9139   -0.4771 N   0  0  0  0  0  0  0  0  0  0  0  0
    0.9513   -2.8178   -0.3313 N   0  0  0  0  0  0  0  0  0  0  0  0
    5.7125    1.7940    1.5302 N   0  0  0  0  0  0  0  0  0  0  0  0
   -2.3859    0.0339    0.7155 C   0  0  2  0  0  0  0  0  0  0  0  0
   -3.2195    1.2507    0.3733 C   0  0  1  0  0  0  0  0  0  0  0  0
   -1.7466   -0.2965   -0.6222 C   0  0  1  0  0  0  0  0  0  0  0  0
   -2.3277    1.9784   -0.6233 C   0  0  1  0  0  0  0  0  0  0  0  0
   -1.3252    2.9149    0.0379 C   0  0  0  0  0  0  0  0  0  0  0  0
    0.6769   -0.1239   -0.3341 C   0  0  0  0  0  0  0  0  0  0  0  0
   -0.3491   -2.3226   -0.4798 C   0  0  0  0  0  0  0  0  0  0  0  0
   -3.8607   -0.6570    2.4090 C   0  0  0  0  0  0  0  0  0  0  0  0
    1.9179   -0.6037   -0.1928 C   0  0  0  0  0  0  0  0  0  0  0  0
    2.1145   -2.0766   -0.1855 C   0  0  0  0  0  0  0  0  0  0  0  0
    3.0289    0.2717   -0.0521 C   0  0  0  0  0  0  0  0  0  0  0  0
    3.9674    1.0114    0.0672 C   0  0  0  0  0  0  0  0  0  0  0  0
    5.1121    1.9165    0.2079 C   0  0  0  0  0  0  0  0  0  0  0  0
   -1.6170    0.2998    1.4533 H   0  0  0  0  0  0  0  0  0  0  0  0
   -3.5077    1.8613    1.2332 H   0  0  0  0  0  0  0  0  0  0  0  0
   -2.3929   -0.9458   -1.2249 H   0  0  0  0  0  0  0  0  0  0  0  0
   -2.9047    2.5214   -1.3806 H   0  0  0  0  0  0  0  0  0  0  0  0
   -0.6541    2.3986    0.7284 H   0  0  0  0  0  0  0  0  0  0  0  0
   -1.8506    3.7000    0.5915 H   0  0  0  0  0  0  0  0  0  0  0  0
   -4.1709    0.4149   -1.1377 H   0  0  0  0  0  0  0  0  0  0  0  0
    0.5316    0.9470   -0.3416 H   0  0  0  0  0  0  0  0  0  0  0  0
   -4.6940    0.0168    2.1929 H   0  0  0  0  0  0  0  0  0  0  0  0
   -3.1802   -0.2053    3.1378 H   0  0  0  0  0  0  0  0  0  0  0  0
   -4.2777   -1.5670    2.8502 H   0  0  0  0  0  0  0  0  0  0  0  0
    0.0723    4.1247   -0.5378 H   0  0  0  0  0  0  0  0  0  0  0  0
    1.0530   -3.8289   -0.3304 H   0  0  0  0  0  0  0  0  0  0  0  0
    5.8683    1.6913   -0.5511 H   0  0  0  0  0  0  0  0  0  0  0  0
    4.7963    2.9532    0.0525 H   0  0  0  0  0  0  0  0  0  0  0  0
    6.0149    0.8337    1.6889 H   0  0  0  0  0  0  0  0  0  0  0  0
    5.0208    2.0040    2.2487 H   0  0  0  0  0  0  0  0  0  0  0  0
  1 12  1  0  0  0  0
  1 13  1  0  0  0  0
  2 10  1  0  0  0  0
  2 17  1  0  0  0  0
  3 11  1  0  0  0  0
  3 29  1  0  0  0  0
  4 14  1  0  0  0  0
  4 34  1  0  0  0  0
  5 16  2  0  0  0  0
  6 19  2  0  0  0  0
  7 12  1  0  0  0  0
  7 15  1  0  0  0  0
  7 16  1  0  0  0  0
  8 16  1  0  0  0  0
  8 19  1  0  0  0  0
  8 35  1  0  0  0  0
  9 22  1  0  0  0  0
  9 38  1  0  0  0  0
  9 39  1  0  0  0  0
 10 11  1  0  0  0  0
 10 12  1  0  0  0  0
 10 23  1  0  0  0  0
 11 13  1  0  0  0  0
 11 24  1  0  0  0  0
 12 25  1  0  0  0  0
 13 14  1  0  0  0  0
 13 26  1  0  0  0  0
 14 27  1  0  0  0  0
 14 28  1  0  0  0  0
 15 18  2  0  0  0  0
 15 30  1  0  0  0  0
 17 31  1  0  0  0  0
 17 32  1  0  0  0  0
 17 33  1  0  0  0  0
 18 19  1  0  0  0  0
 18 20  1  0  0  0  0
 20 21  3  0  0  0  0
 21 22  1  0  0  0  0
 22 36  1  0  0  0  0
 22 37  1  0  0  0  0
M  END
> <PUBCHEM_COMPOUND_CID>
13009364

> <PUBCHEM_CONFORMER_RMSD>
0.6

> <PUBCHEM_CONFORMER_DIVERSEORDER>
1
8
15
16
11
10
17
13
3
6
5
9
7
12
2
14
4

> <PUBCHEM_MMFF94_PARTIAL_CHARGES>
28
1 -0.56
10 0.28
11 0.28
12 0.58
13 0.28
14 0.28
15 -0.04
16 0.69
17 0.28
18 0.08
19 0.62
2 -0.56
20 -0.06
21 -0.2
22 0.47
29 0.4
3 -0.68
30 0.15
34 0.4
35 0.37
38 0.36
39 0.36
4 -0.68
5 -0.57
6 -0.57
7 -0.47
8 -0.49
9 -0.99

> <PUBCHEM_EFFECTIVE_ROTOR_COUNT>
4

> <PUBCHEM_PHARMACOPHORE_FEATURES>
13
1 1 acceptor
1 2 acceptor
1 3 acceptor
1 3 donor
1 4 acceptor
1 4 donor
1 5 acceptor
1 6 acceptor
1 8 donor
1 9 cation
1 9 donor
5 1 10 11 12 13 rings
6 7 8 15 16 18 19 rings

> <PUBCHEM_HEAVY_ATOM_COUNT>
22

> <PUBCHEM_ATOM_DEF_STEREO_COUNT>
4

> <PUBCHEM_ATOM_UDEF_STEREO_COUNT>
0

> <PUBCHEM_BOND_DEF_STEREO_COUNT>
0

> <PUBCHEM_BOND_UDEF_STEREO_COUNT>
0

> <PUBCHEM_ISOTOPIC_ATOM_COUNT>
0

> <PUBCHEM_COMPONENT_COUNT>
1

> <PUBCHEM_CACTVS_TAUTO_COUNT>
3

> <PUBCHEM_CONFORMER_ID>
00C681D400000001

> <PUBCHEM_MMFF94_ENERGY>
53.4105

> <PUBCHEM_FEATURE_SELFOVERLAP>
65.985

> <PUBCHEM_SHAPE_FINGERPRINT>
10366900 7 18046078064088766199
10608611 8 18048317747577773685
10670039 82 18261688030005201300
1100329 8 17834397100528288895
12035758 1 18041296409001456697
12390115 104 18127985302684623216
12403260 363 18123737669659021399
12633257 1 17901396593074852771
13140716 1 17906179794814709969
13544592 271 18334018263955249157
13583140 156 17023724798104523748
14026960 21 18337678520361760654
14142880 1 18129379478458786903
14223421 5 18263933133014759653
19049666 15 17470743100197056847
20645477 56 18341613759030953660
21756936 100 17131563811613518418
23559900 14 17823149916535007887
27216 239 18335419079822354873
2748010 2 18264496091600385487
3380486 145 18335153020379769739
350125 39 18194686964829784420
469060 322 18193838373396507083
5104073 3 18263088725623258809
633830 44 17488481679863938999
9709674 26 17977390438930453639
9862522 239 18339908412159003806
9981440 41 18264468620974008737

> <PUBCHEM_SHAPE_MULTIPOLES>
402.59
8.67
3.68
1.24
8.87
0.09
-0.7
-4.78
-4.16
0.85
0.82
-1
-0.1
1.45

> <PUBCHEM_SHAPE_SELFOVERLAP>
839.438

> <PUBCHEM_SHAPE_VOLUME>
228.1

> <PUBCHEM_COORDINATE_TYPE>
2
5
10

$$$$
