130082
  -OEChem-03292013323D

 48 48  0     1  0  0  0  0  0999 V2000
    1.8650   -0.6537    1.6183 O   0  0  0  0  0  0  0  0  0  0  0  0
   -0.3939   -0.6766   -1.6469 O   0  0  0  0  0  0  0  0  0  0  0  0
   -4.4225   -0.8983    1.4912 O   0  0  0  0  0  0  0  0  0  0  0  0
   -6.3293   -0.5256   -0.3841 O   0  0  0  0  0  0  0  0  0  0  0  0
    4.3438   -1.1746    1.0325 N   0  0  0  0  0  0  0  0  0  0  0  0
    1.5026    0.7028   -0.2393 N   0  0  0  0  0  0  0  0  0  0  0  0
   -1.8273   -0.4062    0.1599 N   0  0  0  0  0  0  0  0  0  0  0  0
   -5.0204   -0.8784   -0.7382 N   0  0  0  0  0  0  0  0  0  0  0  0
    3.6554   -0.2938    0.0887 C   0  0  1  0  0  0  0  0  0  0  0  0
    3.7093   -0.9996   -1.2632 C   0  0  0  0  0  0  0  0  0  0  0  0
    4.4773   -2.2861   -0.9990 C   0  0  0  0  0  0  0  0  0  0  0  0
    5.2814   -1.9678    0.2438 C   0  0  0  0  0  0  0  0  0  0  0  0
    0.1198    1.0180    0.0098 C   0  0  1  0  0  0  0  0  0  0  0  0
   -0.2832    2.3731   -0.5854 C   0  0  0  0  0  0  0  0  0  0  0  0
    2.2607   -0.1102    0.5904 C   0  0  0  0  0  0  0  0  0  0  0  0
    0.5304    3.5758   -0.0654 C   0  0  0  0  0  0  0  0  0  0  0  0
   -0.7139   -0.0992   -0.6099 C   0  0  0  0  0  0  0  0  0  0  0  0
    0.1222    4.8887   -0.7349 C   0  0  0  0  0  0  0  0  0  0  0  0
    0.3613    3.6961    1.4518 C   0  0  0  0  0  0  0  0  0  0  0  0
   -2.7566   -1.4609   -0.1756 C   0  0  1  0  0  0  0  0  0  0  0  0
   -2.3439   -2.7832    0.4521 C   0  0  0  0  0  0  0  0  0  0  0  0
   -4.1384   -1.0405    0.3037 C   0  0  0  0  0  0  0  0  0  0  0  0
    4.1540    0.6813    0.0449 H   0  0  0  0  0  0  0  0  0  0  0  0
    2.7313   -1.2216   -1.7026 H   0  0  0  0  0  0  0  0  0  0  0  0
    4.2675   -0.3828   -1.9778 H   0  0  0  0  0  0  0  0  0  0  0  0
    5.1081   -2.5734   -1.8453 H   0  0  0  0  0  0  0  0  0  0  0  0
    3.7756   -3.1060   -0.8017 H   0  0  0  0  0  0  0  0  0  0  0  0
    6.1699   -1.3736    0.0018 H   0  0  0  0  0  0  0  0  0  0  0  0
    5.6021   -2.8688    0.7745 H   0  0  0  0  0  0  0  0  0  0  0  0
    3.6717   -1.8183    1.4531 H   0  0  0  0  0  0  0  0  0  0  0  0
   -0.0410    1.0098    1.0934 H   0  0  0  0  0  0  0  0  0  0  0  0
   -0.1758    2.3308   -1.6783 H   0  0  0  0  0  0  0  0  0  0  0  0
   -1.3517    2.5452   -0.3982 H   0  0  0  0  0  0  0  0  0  0  0  0
    1.5934    3.4145   -0.2823 H   0  0  0  0  0  0  0  0  0  0  0  0
    1.9207    1.0535   -1.0966 H   0  0  0  0  0  0  0  0  0  0  0  0
    0.2566    4.8259   -1.8198 H   0  0  0  0  0  0  0  0  0  0  0  0
    0.7325    5.7212   -0.3693 H   0  0  0  0  0  0  0  0  0  0  0  0
   -0.9290    5.1243   -0.5372 H   0  0  0  0  0  0  0  0  0  0  0  0
    0.8182    2.8529    1.9782 H   0  0  0  0  0  0  0  0  0  0  0  0
    0.8520    4.6026    1.8236 H   0  0  0  0  0  0  0  0  0  0  0  0
   -0.6958    3.7486    1.7338 H   0  0  0  0  0  0  0  0  0  0  0  0
   -1.9960    0.1187    1.0136 H   0  0  0  0  0  0  0  0  0  0  0  0
   -2.7572   -1.5840   -1.2652 H   0  0  0  0  0  0  0  0  0  0  0  0
   -2.2847   -2.7065    1.5438 H   0  0  0  0  0  0  0  0  0  0  0  0
   -3.0663   -3.5707    0.2128 H   0  0  0  0  0  0  0  0  0  0  0  0
   -1.3593   -3.0984    0.0902 H   0  0  0  0  0  0  0  0  0  0  0  0
   -4.7953   -0.8713   -1.7264 H   0  0  0  0  0  0  0  0  0  0  0  0
   -6.7479   -1.4031   -0.3769 H   0  0  0  0  0  0  0  0  0  0  0  0
  1 15  2  0  0  0  0
  2 17  2  0  0  0  0
  3 22  2  0  0  0  0
  4  8  1  0  0  0  0
  4 48  1  0  0  0  0
  5  9  1  0  0  0  0
  5 12  1  0  0  0  0
  5 30  1  0  0  0  0
  6 13  1  0  0  0  0
  6 15  1  0  0  0  0
  6 35  1  0  0  0  0
  7 17  1  0  0  0  0
  7 20  1  0  0  0  0
  7 42  1  0  0  0  0
  8 22  1  0  0  0  0
  8 47  1  0  0  0  0
  9 10  1  0  0  0  0
  9 15  1  0  0  0  0
  9 23  1  0  0  0  0
 10 11  1  0  0  0  0
 10 24  1  0  0  0  0
 10 25  1  0  0  0  0
 11 12  1  0  0  0  0
 11 26  1  0  0  0  0
 11 27  1  0  0  0  0
 12 28  1  0  0  0  0
 12 29  1  0  0  0  0
 13 14  1  0  0  0  0
 13 17  1  0  0  0  0
 13 31  1  0  0  0  0
 14 16  1  0  0  0  0
 14 32  1  0  0  0  0
 14 33  1  0  0  0  0
 16 18  1  0  0  0  0
 16 19  1  0  0  0  0
 16 34  1  0  0  0  0
 18 36  1  0  0  0  0
 18 37  1  0  0  0  0
 18 38  1  0  0  0  0
 19 39  1  0  0  0  0
 19 40  1  0  0  0  0
 19 41  1  0  0  0  0
 20 21  1  0  0  0  0
 20 22  1  0  0  0  0
 20 43  1  0  0  0  0
 21 44  1  0  0  0  0
 21 45  1  0  0  0  0
 21 46  1  0  0  0  0
M  END
> <PUBCHEM_COMPOUND_CID>
130082

> <PUBCHEM_CONFORMER_RMSD>
1.2

> <PUBCHEM_CONFORMER_DIVERSEORDER>
1
90
79
50
32
11
62
2
83
31
48
59
53
8
76
5
46
84
57
82
94
63
41
78
85
91
14
37
13
10
93
56
33
28
42
3
60
67
23
86
49
68
35
65
61
25
92
9
26
34
58
16
87
89
7
95
70
72
4
22
64
39
47
80
44
74
81
75
52
88
24
17
21
6
30
51
38
12
55
71
45
73
18
29
77
15
19
54
20
27
66
36
40
69
43

> <PUBCHEM_MMFF94_PARTIAL_CHARGES>
20
1 -0.57
12 0.27
13 0.36
15 0.57
17 0.57
2 -0.57
20 0.36
22 0.57
3 -0.57
30 0.36
35 0.37
4 -0.44
42 0.37
47 0.37
48 0.4
5 -0.9
6 -0.73
7 -0.73
8 -0.39
9 0.33

> <PUBCHEM_EFFECTIVE_ROTOR_COUNT>
11

> <PUBCHEM_PHARMACOPHORE_FEATURES>
10
1 1 acceptor
1 2 acceptor
1 3 acceptor
1 5 cation
1 5 donor
1 6 donor
1 7 donor
1 8 donor
3 16 18 19 hydrophobe
5 5 9 10 11 12 rings

> <PUBCHEM_HEAVY_ATOM_COUNT>
22

> <PUBCHEM_ATOM_DEF_STEREO_COUNT>
3

> <PUBCHEM_ATOM_UDEF_STEREO_COUNT>
0

> <PUBCHEM_BOND_DEF_STEREO_COUNT>
0

> <PUBCHEM_BOND_UDEF_STEREO_COUNT>
0

> <PUBCHEM_ISOTOPIC_ATOM_COUNT>
0

> <PUBCHEM_COMPONENT_COUNT>
1

> <PUBCHEM_CACTVS_TAUTO_COUNT>
12

> <PUBCHEM_CONFORMER_ID>
0001FC2200000001

> <PUBCHEM_MMFF94_ENERGY>
40.4677

> <PUBCHEM_FEATURE_SELFOVERLAP>
50.747

> <PUBCHEM_SHAPE_FINGERPRINT>
10764073 3 16196242061707658033
11809386 21 18046911468618529026
12516196 113 18410008853397159779
12553582 1 18335690642130935290
12596602 18 14764340544468650302
12714826 92 17822280267393549183
12760667 363 18337106761599649014
12788726 201 18188491259746507378
13004483 165 18411974746159889002
13134695 92 18339359781357951117
13533116 47 18048879890742741427
14347329 18 16227705790476741781
14466204 15 18337954481433971601
14863182 85 16458277058733446126
15042514 8 18267306421862306100
15664445 248 18126306331302453468
15885798 251 18412265021382320286
17349148 13 17775011236603993399
17492 89 18051972812488065495
17980427 23 17704081694177638089
1813 80 18342746216830455652
18222031 100 18272655653215629918
192875 21 18060142085297783169
19784866 34 8430319030536287927
20286276 3 18047757289201834227
20600515 1 18341911678946681045
20832881 197 18259984877228224611
21285901 2 18059021575026615510
212916 134 9222944821291172870
21478907 32 18266178336006689002
22849341 161 18267607791449129793
23175994 123 18408321094943639095
23557571 272 18411131404015189872
23559900 14 18268423710844763747
23845131 108 17190391802479044401
3004659 81 17967816037852536742
3091708 16 9209549526732658136
314173 41 18336269036802460186
314173 85 18412829070847505786
4409770 3 18045496409626929309
621550 34 18201706372121745960
7097593 13 18126848424198034119
7164475 11 18264215721116033060
7364860 26 18052258684946284464
77188 2 18410012152127689868
81228 2 18198045998617571728
9971528 1 18271520987570608345

> <PUBCHEM_SHAPE_MULTIPOLES>
409.35
10.33
4.69
1.26
4.92
8.33
-0.14
-11.96
0.09
-0.39
0.1
-0.32
0.06
0.51

> <PUBCHEM_SHAPE_SELFOVERLAP>
809.845

> <PUBCHEM_SHAPE_VOLUME>
244.3

> <PUBCHEM_COORDINATE_TYPE>
2
5
10

$$$$
