130096
  -OEChem-03292013323D

 35 35  0     1  0  0  0  0  0999 V2000
    0.1959    2.4603    2.3648 O   0  0  0  0  0  0  0  0  0  0  0  0
   -1.1020    1.4928   -2.3191 O   0  0  0  0  0  0  0  0  0  0  0  0
    4.0386   -0.6400   -1.3174 O   0  5  0  0  0  0  0  0  0  0  0  0
   -1.8523    1.0287   -0.3985 N   0  0  0  0  0  0  0  0  0  0  0  0
   -2.1141    1.4851   -1.6083 N   0  0  0  0  0  0  0  0  0  0  0  0
    2.5982   -2.3218    0.3791 N   0  3  0  0  0  0  0  0  0  0  0  0
    2.8362   -3.3717    0.5264 N   0  0  0  0  0  0  0  0  0  0  0  0
   -1.3355    2.0549    0.5221 C   0  0  0  0  0  0  0  0  0  0  0  0
   -0.2930    1.4576    1.4751 C   0  0  1  0  0  0  0  0  0  0  0  0
   -3.0015    0.3620    0.2023 C   0  0  0  0  0  0  0  0  0  0  0  0
   -3.0755   -1.0910   -0.2638 C   0  0  0  0  0  0  0  0  0  0  0  0
    0.8840    0.8821    0.7185 C   0  0  0  0  0  0  0  0  0  0  0  0
   -4.2626   -1.8155    0.3719 C   0  0  0  0  0  0  0  0  0  0  0  0
    1.2098   -0.4524    0.8885 C   0  0  0  0  0  0  0  0  0  0  0  0
    1.6101    1.7026   -0.1274 C   0  0  0  0  0  0  0  0  0  0  0  0
   -4.3641   -3.2524   -0.1143 C   0  0  0  0  0  0  0  0  0  0  0  0
    2.2949   -0.9829    0.1910 C   0  0  0  0  0  0  0  0  0  0  0  0
    2.6953    1.1722   -0.8250 C   0  0  0  0  0  0  0  0  0  0  0  0
    3.0377   -0.1707   -0.6658 C   0  0  0  0  0  0  0  0  0  0  0  0
   -0.8804    2.8956   -0.0224 H   0  0  0  0  0  0  0  0  0  0  0  0
   -2.1443    2.5327    1.0948 H   0  0  0  0  0  0  0  0  0  0  0  0
   -0.7537    0.6845    2.1017 H   0  0  0  0  0  0  0  0  0  0  0  0
   -3.9426    0.8911   -0.0059 H   0  0  0  0  0  0  0  0  0  0  0  0
   -2.9118    0.3338    1.2969 H   0  0  0  0  0  0  0  0  0  0  0  0
   -2.1468   -1.6143   -0.0021 H   0  0  0  0  0  0  0  0  0  0  0  0
   -3.1735   -1.1355   -1.3558 H   0  0  0  0  0  0  0  0  0  0  0  0
   -5.1934   -1.2893    0.1300 H   0  0  0  0  0  0  0  0  0  0  0  0
   -4.1612   -1.8110    1.4634 H   0  0  0  0  0  0  0  0  0  0  0  0
    0.6315   -1.0876    1.5544 H   0  0  0  0  0  0  0  0  0  0  0  0
    1.3692    2.7536   -0.2539 H   0  0  0  0  0  0  0  0  0  0  0  0
   -5.2180   -3.7516    0.3543 H   0  0  0  0  0  0  0  0  0  0  0  0
   -4.5019   -3.2908   -1.1996 H   0  0  0  0  0  0  0  0  0  0  0  0
   -3.4603   -3.8164    0.1379 H   0  0  0  0  0  0  0  0  0  0  0  0
   -0.5685    2.8249    2.8426 H   0  0  0  0  0  0  0  0  0  0  0  0
    3.2594    1.8297   -1.4848 H   0  0  0  0  0  0  0  0  0  0  0  0
  1  9  1  0  0  0  0
  1 34  1  0  0  0  0
  2  5  2  0  0  0  0
  3 19  1  0  0  0  0
  4  5  1  0  0  0  0
  4  8  1  0  0  0  0
  4 10  1  0  0  0  0
  6  7  3  0  0  0  0
  6 17  1  0  0  0  0
  8  9  1  0  0  0  0
  8 20  1  0  0  0  0
  8 21  1  0  0  0  0
  9 12  1  0  0  0  0
  9 22  1  0  0  0  0
 10 11  1  0  0  0  0
 10 23  1  0  0  0  0
 10 24  1  0  0  0  0
 11 13  1  0  0  0  0
 11 25  1  0  0  0  0
 11 26  1  0  0  0  0
 12 14  2  0  0  0  0
 12 15  1  0  0  0  0
 13 16  1  0  0  0  0
 13 27  1  0  0  0  0
 13 28  1  0  0  0  0
 14 17  1  0  0  0  0
 14 29  1  0  0  0  0
 15 18  2  0  0  0  0
 15 30  1  0  0  0  0
 16 31  1  0  0  0  0
 16 32  1  0  0  0  0
 16 33  1  0  0  0  0
 17 19  2  0  0  0  0
 18 19  1  0  0  0  0
 18 35  1  0  0  0  0
M  CHG  2   3  -1   6   1
M  END
> <PUBCHEM_COMPOUND_CID>
130096

> <PUBCHEM_CONFORMER_RMSD>
0.8

> <PUBCHEM_CONFORMER_DIVERSEORDER>
3
172
56
181
58
146
121
106
71
94
100
26
79
82
218
122
116
43
192
169
166
80
32
134
33
154
136
66
184
139
167
25
90
125
189
137
188
83
176
222
41
55
145
174
40
4
86
195
115
124
99
200
38
162
10
68
50
150
128
81
47
186
67
198
35
62
221
178
23
153
130
215
197
54
39
1
175
85
179
34
92
158
203
105
93
183
104
78
204
2
76
152
117
151
74
20
19
170
30
11
13
24
129
147
163
69
208
60
72
211
29
59
212
194
109
213
114
185
111
45
36
148
28
161
77
87
31
201
220
8
107
53
207
112
120
73
173
51
17
191
103
126
210
16
127
27
159
18
5
138
9
206
44
65
225
96
140
133
101
84
108
48
149
7
156
171
102
223
89
216
157
119
97
22
214
141
46
193
6
164
209
131
37
224
227
180
70
95
205
143
42
165
57
196
21
135
91
190
15
64
113
75
49
61
160
202
12
182
226
98
88
63
144
219
14
187
118
110
217
52
177
132
142
199
123
155
168

> <PUBCHEM_MMFF94_PARTIAL_CHARGES>
20
1 -0.68
10 0.27
12 -0.14
14 -0.15
15 -0.15
17 0.14
18 -0.15
19 -0.17
2 -0.16
29 0.15
3 -0.83
30 0.15
34 0.4
35 0.15
4 -0.36
5 -0.01
6 1.35
7 -0.49
8 0.27
9 0.42

> <PUBCHEM_EFFECTIVE_ROTOR_COUNT>
7

> <PUBCHEM_PHARMACOPHORE_FEATURES>
4
1 1 acceptor
1 1 donor
1 16 hydrophobe
6 12 14 15 17 18 19 rings

> <PUBCHEM_HEAVY_ATOM_COUNT>
19

> <PUBCHEM_ATOM_DEF_STEREO_COUNT>
1

> <PUBCHEM_ATOM_UDEF_STEREO_COUNT>
0

> <PUBCHEM_BOND_DEF_STEREO_COUNT>
0

> <PUBCHEM_BOND_UDEF_STEREO_COUNT>
0

> <PUBCHEM_ISOTOPIC_ATOM_COUNT>
0

> <PUBCHEM_COMPONENT_COUNT>
1

> <PUBCHEM_CACTVS_TAUTO_COUNT>
1

> <PUBCHEM_CONFORMER_ID>
0001FC3000000003

> <PUBCHEM_MMFF94_ENERGY>
44.9435

> <PUBCHEM_FEATURE_SELFOVERLAP>
20.297

> <PUBCHEM_SHAPE_FINGERPRINT>
114674 6 17979627159077345067
12202030 40 18338217337268550513
12506688 2 18342458179328423891
12633257 1 17631753624821885339
12824470 246 18412833481894755601
14115302 16 18123182412008026881
14863182 85 17544192040400582451
15238133 3 11239732889388599402
15664445 248 17605264284805884949
17492 54 17026570483967228149
18522851 268 18040711424757575972
20775530 9 18335979783714245267
21713013 43 18407761447545781565
21731516 1 17917980690065219093
23379529 103 18130244708411455166
23402539 116 16443066084478322364
23598288 3 17846228695740877529
238078 22 18271821102473236064
2871803 45 18262517116963260831
3737641 26 18337689606057908979
46194498 28 16954774596131942071

> <PUBCHEM_SHAPE_MULTIPOLES>
353.48
7.24
3.41
1.55
5.64
2.31
-0.15
6.8
-1.52
0.42
0.76
-0.18
-1.2
0.14

> <PUBCHEM_SHAPE_SELFOVERLAP>
720.38

> <PUBCHEM_SHAPE_VOLUME>
205.7

> <PUBCHEM_COORDINATE_TYPE>
2
5
10

$$$$
