130080
  -OEChem-03292013323D

 65 70  0     1  0  0  0  0  0999 V2000
   -1.6090   -1.8544    0.1459 O   0  0  0  0  0  0  0  0  0  0  0  0
   -0.7483   -1.3728    1.2424 O   0  0  0  0  0  0  0  0  0  0  0  0
   -1.8214    0.3805    2.4414 O   0  0  0  0  0  0  0  0  0  0  0  0
    3.6012    1.9117   -1.9719 O   0  0  0  0  0  0  0  0  0  0  0  0
    2.9552   -1.5280   -0.9023 O   0  0  0  0  0  0  0  0  0  0  0  0
    4.3757    1.9714    0.8742 O   0  0  0  0  0  0  0  0  0  0  0  0
    2.0602   -0.3738   -2.7477 O   0  0  0  0  0  0  0  0  0  0  0  0
    3.0619   -0.3628    1.7799 O   0  0  0  0  0  0  0  0  0  0  0  0
    3.6788   -4.0418   -0.1030 O   0  0  0  0  0  0  0  0  0  0  0  0
   -2.4260   -0.6521    0.2322 C   0  0  0  0  0  0  0  0  0  0  0  0
   -3.7871   -0.9493    0.8857 C   0  0  0  0  0  0  0  0  0  0  0  0
   -2.5976    0.0109   -1.1431 C   0  0  0  0  0  0  0  0  0  0  0  0
   -4.7337    1.0664   -0.3057 C   0  0  0  0  0  0  0  0  0  0  0  0
   -4.7988   -1.1958   -1.4151 C   0  0  0  0  0  0  0  0  0  0  0  0
   -4.5361    0.3849    1.0618 C   0  0  0  0  0  0  0  0  0  0  0  0
   -4.5966   -1.8697   -0.0461 C   0  0  0  0  0  0  0  0  0  0  0  0
   -3.3564    1.3356   -0.9423 C   0  0  0  0  0  0  0  0  0  0  0  0
   -3.4229   -0.9216   -2.0480 C   0  0  0  0  0  0  0  0  0  0  0  0
   -5.5438    0.1355   -1.2228 C   0  0  0  0  0  0  0  0  0  0  0  0
   -1.3414   -0.0581    1.1468 C   0  0  2  0  0  0  0  0  0  0  0  0
   -0.3132    0.9546    0.6079 C   0  0  0  0  0  0  0  0  0  0  0  0
    0.9008    0.5117    0.0701 C   0  0  0  0  0  0  0  0  0  0  0  0
   -0.5834    2.3272    0.6509 C   0  0  0  0  0  0  0  0  0  0  0  0
   -0.7522    0.4783    3.3573 C   0  0  0  0  0  0  0  0  0  0  0  0
    1.8318    1.4289   -0.4177 C   0  0  0  0  0  0  0  0  0  0  0  0
    3.1604    0.9348   -1.0071 C   0  0  2  0  0  0  0  0  0  0  0  0
    0.3475    3.2444    0.1631 C   0  0  0  0  0  0  0  0  0  0  0  0
    1.5551    2.7953   -0.3712 C   0  0  0  0  0  0  0  0  0  0  0  0
    4.2935    0.8148    0.0475 C   0  0  2  0  0  0  0  0  0  0  0  0
    3.1096   -0.4121   -1.7802 C   0  0  1  0  0  0  0  0  0  0  0  0
    4.1854   -0.4497    0.9066 C   0  0  2  0  0  0  0  0  0  0  0  0
    4.0500   -1.6845    0.0073 C   0  0  1  0  0  0  0  0  0  0  0  0
    3.8011   -2.9602    0.8033 C   0  0  0  0  0  0  0  0  0  0  0  0
   -3.6629   -1.4409    1.8576 H   0  0  0  0  0  0  0  0  0  0  0  0
   -1.6344    0.1989   -1.6292 H   0  0  0  0  0  0  0  0  0  0  0  0
   -5.2717    2.0120   -0.1737 H   0  0  0  0  0  0  0  0  0  0  0  0
   -5.3812   -1.8548   -2.0687 H   0  0  0  0  0  0  0  0  0  0  0  0
   -4.0034    1.0674    1.7304 H   0  0  0  0  0  0  0  0  0  0  0  0
   -5.5132    0.1986    1.5250 H   0  0  0  0  0  0  0  0  0  0  0  0
   -5.5704   -2.0939    0.4063 H   0  0  0  0  0  0  0  0  0  0  0  0
   -4.0788   -2.8275   -0.1780 H   0  0  0  0  0  0  0  0  0  0  0  0
   -3.4944    1.8244   -1.9153 H   0  0  0  0  0  0  0  0  0  0  0  0
   -2.8266    2.0473   -0.3215 H   0  0  0  0  0  0  0  0  0  0  0  0
   -2.8917   -1.8685   -2.2035 H   0  0  0  0  0  0  0  0  0  0  0  0
   -3.5523   -0.4632   -3.0361 H   0  0  0  0  0  0  0  0  0  0  0  0
   -6.5340   -0.0493   -0.7885 H   0  0  0  0  0  0  0  0  0  0  0  0
   -5.7075    0.6168   -2.1949 H   0  0  0  0  0  0  0  0  0  0  0  0
    1.0926   -0.5510    0.0279 H   0  0  0  0  0  0  0  0  0  0  0  0
   -1.4912    2.7062    1.1116 H   0  0  0  0  0  0  0  0  0  0  0  0
   -1.1827    0.4860    4.3639 H   0  0  0  0  0  0  0  0  0  0  0  0
   -0.2043    1.4176    3.2422 H   0  0  0  0  0  0  0  0  0  0  0  0
   -0.0627   -0.3706    3.3127 H   0  0  0  0  0  0  0  0  0  0  0  0
    0.1384    4.3090    0.2138 H   0  0  0  0  0  0  0  0  0  0  0  0
    2.2645    3.5361   -0.7281 H   0  0  0  0  0  0  0  0  0  0  0  0
    5.2507    0.7692   -0.4911 H   0  0  0  0  0  0  0  0  0  0  0  0
    4.0408   -0.5417   -2.3488 H   0  0  0  0  0  0  0  0  0  0  0  0
    5.0700   -0.5463    1.5467 H   0  0  0  0  0  0  0  0  0  0  0  0
    4.9601   -1.8178   -0.5924 H   0  0  0  0  0  0  0  0  0  0  0  0
    4.2188    2.5244   -1.5377 H   0  0  0  0  0  0  0  0  0  0  0  0
    5.1141    1.8395    1.4929 H   0  0  0  0  0  0  0  0  0  0  0  0
    2.8697   -2.9101    1.3765 H   0  0  0  0  0  0  0  0  0  0  0  0
    4.6274   -3.1686    1.4893 H   0  0  0  0  0  0  0  0  0  0  0  0
    2.3079   -0.9833   -3.4636 H   0  0  0  0  0  0  0  0  0  0  0  0
    3.1656    0.4474    2.3075 H   0  0  0  0  0  0  0  0  0  0  0  0
    2.9438   -3.8382   -0.7064 H   0  0  0  0  0  0  0  0  0  0  0  0
  1  2  1  0  0  0  0
  1 10  1  0  0  0  0
  2 20  1  0  0  0  0
  3 20  1  0  0  0  0
  3 24  1  0  0  0  0
  4 26  1  0  0  0  0
  4 59  1  0  0  0  0
  5 30  1  0  0  0  0
  5 32  1  0  0  0  0
  6 29  1  0  0  0  0
  6 60  1  0  0  0  0
  7 30  1  0  0  0  0
  7 63  1  0  0  0  0
  8 31  1  0  0  0  0
  8 64  1  0  0  0  0
  9 33  1  0  0  0  0
  9 65  1  0  0  0  0
 10 11  1  0  0  0  0
 10 12  1  0  0  0  0
 10 20  1  0  0  0  0
 11 15  1  0  0  0  0
 11 16  1  0  0  0  0
 11 34  1  0  0  0  0
 12 17  1  0  0  0  0
 12 18  1  0  0  0  0
 12 35  1  0  0  0  0
 13 15  1  0  0  0  0
 13 17  1  0  0  0  0
 13 19  1  0  0  0  0
 13 36  1  0  0  0  0
 14 16  1  0  0  0  0
 14 18  1  0  0  0  0
 14 19  1  0  0  0  0
 14 37  1  0  0  0  0
 15 38  1  0  0  0  0
 15 39  1  0  0  0  0
 16 40  1  0  0  0  0
 16 41  1  0  0  0  0
 17 42  1  0  0  0  0
 17 43  1  0  0  0  0
 18 44  1  0  0  0  0
 18 45  1  0  0  0  0
 19 46  1  0  0  0  0
 19 47  1  0  0  0  0
 20 21  1  0  0  0  0
 21 22  1  0  0  0  0
 21 23  2  0  0  0  0
 22 25  2  0  0  0  0
 22 48  1  0  0  0  0
 23 27  1  0  0  0  0
 23 49  1  0  0  0  0
 24 50  1  0  0  0  0
 24 51  1  0  0  0  0
 24 52  1  0  0  0  0
 25 26  1  0  0  0  0
 25 28  1  0  0  0  0
 26 29  1  0  0  0  0
 26 30  1  0  0  0  0
 27 28  2  0  0  0  0
 27 53  1  0  0  0  0
 28 54  1  0  0  0  0
 29 31  1  0  0  0  0
 29 55  1  0  0  0  0
 30 56  1  0  0  0  0
 31 32  1  0  0  0  0
 31 57  1  0  0  0  0
 32 33  1  0  0  0  0
 32 58  1  0  0  0  0
 33 61  1  0  0  0  0
 33 62  1  0  0  0  0
M  END
> <PUBCHEM_COMPOUND_CID>
130080

> <PUBCHEM_CONFORMER_RMSD>
1

> <PUBCHEM_CONFORMER_DIVERSEORDER>
1
23
22
3
17
5
12
8
33
21
18
27
24
26
9
6
16
28
36
38
13
10
15
35
32
37
30
39
11
7
14
25
4
31
19
29
20
2
34

> <PUBCHEM_MMFF94_PARTIAL_CHARGES>
33
1 -0.26
10 0.26
2 -0.26
20 0.62
21 -0.11
22 -0.15
23 -0.15
24 0.28
25 -0.14
26 0.42
27 -0.15
28 -0.15
29 0.28
3 -0.54
30 0.56
31 0.28
32 0.28
33 0.28
4 -0.68
48 0.15
49 0.15
5 -0.56
53 0.15
54 0.15
59 0.4
6 -0.68
60 0.4
63 0.4
64 0.4
65 0.4
7 -0.68
8 -0.68
9 -0.68

> <PUBCHEM_EFFECTIVE_ROTOR_COUNT>
6.8

> <PUBCHEM_PHARMACOPHORE_FEATURES>
19
1 3 acceptor
1 4 acceptor
1 4 donor
1 5 acceptor
1 6 acceptor
1 6 donor
1 7 acceptor
1 7 donor
1 8 acceptor
1 8 donor
1 9 acceptor
1 9 donor
4 1 2 10 20 rings
6 10 11 12 13 15 17 rings
6 10 11 12 14 16 18 rings
6 11 13 14 15 16 19 rings
6 12 13 14 17 18 19 rings
6 21 22 23 25 27 28 rings
6 5 26 29 30 31 32 rings

> <PUBCHEM_HEAVY_ATOM_COUNT>
33

> <PUBCHEM_ATOM_DEF_STEREO_COUNT>
4

> <PUBCHEM_ATOM_UDEF_STEREO_COUNT>
2

> <PUBCHEM_BOND_DEF_STEREO_COUNT>
0

> <PUBCHEM_BOND_UDEF_STEREO_COUNT>
0

> <PUBCHEM_ISOTOPIC_ATOM_COUNT>
0

> <PUBCHEM_COMPONENT_COUNT>
1

> <PUBCHEM_CACTVS_TAUTO_COUNT>
1

> <PUBCHEM_CONFORMER_ID>
0001FC2000000001

> <PUBCHEM_MMFF94_ENERGY>
104.6818

> <PUBCHEM_FEATURE_SELFOVERLAP>
109.09

> <PUBCHEM_SHAPE_FINGERPRINT>
11135926 11 18261122906602772052
11578080 2 17169852186574503060
11595378 159 15338850758658670273
12422481 6 17629490691962409763
12553582 1 18267607804323546664
12788726 201 18200606799468518904
13224815 77 17632302284622514356
13692114 37 17337886928449359097
13782708 43 17386019377315678907
13911987 19 17900284171145241316
14068700 675 18192703463397350466
14114206 34 16882188888456585238
14251757 17 18041267786304939857
14347332 77 18270392915138541831
14429115 67 18201716202722027302
14840074 17 17703789275223382540
15183329 4 18060701685314175493
15788980 27 18334292076303920645
17349148 13 17846225478862418697
17809404 112 17894920641723742570
1813 80 18131915974738372881
19315092 285 17917700280573026138
20511986 3 17774426269993935500
20626108 58 17988065790249600823
20775530 9 17906740194133447402
21033650 10 17749682774550096372
21285901 2 17749096790728693092
21756936 100 7780929862596406086
23559900 14 18334296474677466180
23569914 152 17832948748063599967
25222932 49 18198059377150691998
2637199 183 13551185576287597793
3004659 81 18186515488948743826
339767 52 17632576063070617253
3459 83 18265892463268479265
404807 14 17405427706976397271
460360 51 18261684683608167241
463206 1 18409443704473691746
5161694 15 17167864179219325104
57527295 17 18259711094268707473
633830 44 17095516301791128385
7399639 24 17179135509344866353
9981440 41 17327449732523079217

> <PUBCHEM_SHAPE_MULTIPOLES>
626.3
10.99
3.01
2.18
3.36
0.65
0.56
3.76
-2.59
-3.28
0.01
0.21
-0.04
-0.73

> <PUBCHEM_SHAPE_SELFOVERLAP>
1378.908

> <PUBCHEM_SHAPE_VOLUME>
325.7

> <PUBCHEM_COORDINATE_TYPE>
2
5
10

$$$$
