13018150
  -OEChem-03292013303D

 59 62  0     1  0  0  0  0  0999 V2000
    2.2819    0.0730   -1.8130 O   0  0  0  0  0  0  0  0  0  0  0  0
   -1.6740    2.7151   -0.2440 O   0  0  0  0  0  0  0  0  0  0  0  0
    3.4429    1.6000    0.5532 O   0  0  0  0  0  0  0  0  0  0  0  0
    5.9215    0.6120   -0.1198 O   0  0  0  0  0  0  0  0  0  0  0  0
   -7.0791    0.2294   -1.5324 O   0  0  0  0  0  0  0  0  0  0  0  0
    7.4185   -1.1473   -0.1548 O   0  0  0  0  0  0  0  0  0  0  0  0
    0.9887    0.1107    0.2724 C   0  0  1  0  0  0  0  0  0  0  0  0
    0.1054   -1.0594   -0.2132 C   0  0  2  0  0  0  0  0  0  0  0  0
   -1.2959   -1.0505    0.4085 C   0  0  1  0  0  0  0  0  0  0  0  0
   -2.0342    0.2881    0.0415 C   0  0  2  0  0  0  0  0  0  0  0  0
    2.3229   -0.2595   -0.4282 C   0  0  1  0  0  0  0  0  0  0  0  0
    0.3039    1.4030   -0.1831 C   0  0  0  0  0  0  0  0  0  0  0  0
    0.9868   -2.2868    0.0097 C   0  0  0  0  0  0  0  0  0  0  0  0
   -1.1386    1.5324    0.3501 C   0  0  1  0  0  0  0  0  0  0  0  0
   -3.4982    0.3200    0.6579 C   0  0  1  0  0  0  0  0  0  0  0  0
    2.4188   -1.7922   -0.2710 C   0  0  0  0  0  0  0  0  0  0  0  0
   -2.1093   -2.2733   -0.0455 C   0  0  0  0  0  0  0  0  0  0  0  0
    1.1857    0.1404    1.8136 C   0  0  0  0  0  0  0  0  0  0  0  0
   -3.5144   -2.2648    0.5432 C   0  0  0  0  0  0  0  0  0  0  0  0
   -4.2091   -0.9680    0.2160 C   0  0  0  0  0  0  0  0  0  0  0  0
    3.5283    0.4621    0.0938 C   0  0  0  0  0  0  0  0  0  0  0  0
   -3.4768    0.3865    2.2031 C   0  0  0  0  0  0  0  0  0  0  0  0
   -4.2832    1.5468    0.2137 C   0  0  0  0  0  0  0  0  0  0  0  0
   -5.3556   -0.9886   -0.4825 C   0  0  0  0  0  0  0  0  0  0  0  0
    4.8419   -0.2870    0.0208 C   0  0  0  0  0  0  0  0  0  0  0  0
   -5.4239    1.5330   -0.4824 C   0  0  0  0  0  0  0  0  0  0  0  0
   -6.0373    0.2565   -0.8863 C   0  0  0  0  0  0  0  0  0  0  0  0
    7.1706    0.0502   -0.1972 C   0  0  0  0  0  0  0  0  0  0  0  0
    8.2117    1.1181   -0.3441 C   0  0  0  0  0  0  0  0  0  0  0  0
   -0.0334   -0.9715   -1.3031 H   0  0  0  0  0  0  0  0  0  0  0  0
   -1.1982   -1.1250    1.4960 H   0  0  0  0  0  0  0  0  0  0  0  0
   -2.1714    0.2857   -1.0529 H   0  0  0  0  0  0  0  0  0  0  0  0
    0.2607    1.4583   -1.2786 H   0  0  0  0  0  0  0  0  0  0  0  0
    0.8827    2.2835    0.1227 H   0  0  0  0  0  0  0  0  0  0  0  0
    0.7159   -3.1112   -0.6580 H   0  0  0  0  0  0  0  0  0  0  0  0
    0.9061   -2.6551    1.0388 H   0  0  0  0  0  0  0  0  0  0  0  0
   -1.1066    1.7104    1.4286 H   0  0  0  0  0  0  0  0  0  0  0  0
    3.0520   -2.1068    0.5650 H   0  0  0  0  0  0  0  0  0  0  0  0
    2.8010   -2.2662   -1.1825 H   0  0  0  0  0  0  0  0  0  0  0  0
   -1.6085   -3.1981    0.2635 H   0  0  0  0  0  0  0  0  0  0  0  0
   -2.1684   -2.2959   -1.1416 H   0  0  0  0  0  0  0  0  0  0  0  0
    1.7067    1.0474    2.1361 H   0  0  0  0  0  0  0  0  0  0  0  0
    0.2397    0.1365    2.3610 H   0  0  0  0  0  0  0  0  0  0  0  0
    1.7635   -0.7146    2.1790 H   0  0  0  0  0  0  0  0  0  0  0  0
   -3.4722   -2.4016    1.6297 H   0  0  0  0  0  0  0  0  0  0  0  0
   -4.0666   -3.1272    0.1500 H   0  0  0  0  0  0  0  0  0  0  0  0
   -3.0475    1.3285    2.5633 H   0  0  0  0  0  0  0  0  0  0  0  0
   -4.4922    0.3206    2.6153 H   0  0  0  0  0  0  0  0  0  0  0  0
   -2.8991   -0.4228    2.6583 H   0  0  0  0  0  0  0  0  0  0  0  0
   -3.9196    2.5217    0.5281 H   0  0  0  0  0  0  0  0  0  0  0  0
    2.2553    1.0409   -1.8994 H   0  0  0  0  0  0  0  0  0  0  0  0
   -1.7547    2.5597   -1.2005 H   0  0  0  0  0  0  0  0  0  0  0  0
   -5.8174   -1.9193   -0.7954 H   0  0  0  0  0  0  0  0  0  0  0  0
    4.8360   -0.9452   -0.8540 H   0  0  0  0  0  0  0  0  0  0  0  0
    4.9575   -0.8707    0.9402 H   0  0  0  0  0  0  0  0  0  0  0  0
   -5.9348    2.4517   -0.7462 H   0  0  0  0  0  0  0  0  0  0  0  0
    8.1877    1.7800    0.5252 H   0  0  0  0  0  0  0  0  0  0  0  0
    8.0354    1.6825   -1.2631 H   0  0  0  0  0  0  0  0  0  0  0  0
    9.2009    0.6552   -0.4030 H   0  0  0  0  0  0  0  0  0  0  0  0
  1 11  1  0  0  0  0
  1 51  1  0  0  0  0
  2 14  1  0  0  0  0
  2 52  1  0  0  0  0
  3 21  2  0  0  0  0
  4 25  1  0  0  0  0
  4 28  1  0  0  0  0
  5 27  2  0  0  0  0
  6 28  2  0  0  0  0
  7  8  1  0  0  0  0
  7 11  1  0  0  0  0
  7 12  1  0  0  0  0
  7 18  1  0  0  0  0
  8  9  1  0  0  0  0
  8 13  1  0  0  0  0
  8 30  1  0  0  0  0
  9 10  1  0  0  0  0
  9 17  1  0  0  0  0
  9 31  1  0  0  0  0
 10 14  1  0  0  0  0
 10 15  1  0  0  0  0
 10 32  1  0  0  0  0
 11 16  1  0  0  0  0
 11 21  1  0  0  0  0
 12 14  1  0  0  0  0
 12 33  1  0  0  0  0
 12 34  1  0  0  0  0
 13 16  1  0  0  0  0
 13 35  1  0  0  0  0
 13 36  1  0  0  0  0
 14 37  1  0  0  0  0
 15 20  1  0  0  0  0
 15 22  1  0  0  0  0
 15 23  1  0  0  0  0
 16 38  1  0  0  0  0
 16 39  1  0  0  0  0
 17 19  1  0  0  0  0
 17 40  1  0  0  0  0
 17 41  1  0  0  0  0
 18 42  1  0  0  0  0
 18 43  1  0  0  0  0
 18 44  1  0  0  0  0
 19 20  1  0  0  0  0
 19 45  1  0  0  0  0
 19 46  1  0  0  0  0
 20 24  2  0  0  0  0
 21 25  1  0  0  0  0
 22 47  1  0  0  0  0
 22 48  1  0  0  0  0
 22 49  1  0  0  0  0
 23 26  2  0  0  0  0
 23 50  1  0  0  0  0
 24 27  1  0  0  0  0
 24 53  1  0  0  0  0
 25 54  1  0  0  0  0
 25 55  1  0  0  0  0
 26 27  1  0  0  0  0
 26 56  1  0  0  0  0
 28 29  1  0  0  0  0
 29 57  1  0  0  0  0
 29 58  1  0  0  0  0
 29 59  1  0  0  0  0
M  END
> <PUBCHEM_COMPOUND_CID>
13018150

> <PUBCHEM_CONFORMER_RMSD>
0.8

> <PUBCHEM_CONFORMER_DIVERSEORDER>
1
15
12
7
2
17
5
8
4
14
16
10
6
9
13
3
11

> <PUBCHEM_MMFF94_PARTIAL_CHARGES>
24
1 -0.68
11 0.34
14 0.28
15 0.28
19 0.14
2 -0.68
20 -0.28
21 0.45
23 -0.29
24 -0.14
25 0.34
26 -0.14
27 0.54
28 0.66
29 0.06
3 -0.57
4 -0.43
5 -0.57
50 0.15
51 0.4
52 0.4
53 0.15
56 0.15
6 -0.57

> <PUBCHEM_EFFECTIVE_ROTOR_COUNT>
5.4

> <PUBCHEM_PHARMACOPHORE_FEATURES>
11
1 1 acceptor
1 1 donor
1 2 acceptor
1 2 donor
1 3 acceptor
1 5 acceptor
1 6 acceptor
5 7 8 11 13 16 rings
6 15 20 23 24 26 27 rings
6 7 8 9 10 12 14 rings
6 9 10 15 17 19 20 rings

> <PUBCHEM_HEAVY_ATOM_COUNT>
29

> <PUBCHEM_ATOM_DEF_STEREO_COUNT>
6

> <PUBCHEM_ATOM_UDEF_STEREO_COUNT>
1

> <PUBCHEM_BOND_DEF_STEREO_COUNT>
0

> <PUBCHEM_BOND_UDEF_STEREO_COUNT>
0

> <PUBCHEM_ISOTOPIC_ATOM_COUNT>
0

> <PUBCHEM_COMPONENT_COUNT>
1

> <PUBCHEM_CACTVS_TAUTO_COUNT>
6

> <PUBCHEM_CONFORMER_ID>
00C6A42600000001

> <PUBCHEM_MMFF94_ENERGY>
91.1927

> <PUBCHEM_FEATURE_SELFOVERLAP>
55.923

> <PUBCHEM_SHAPE_FINGERPRINT>
10366900 7 17775000185383816963
10411042 1 17905611352327085283
10498660 4 18410013230559320867
11315181 36 17988646315367433465
11578080 2 17024573500310360783
11719270 70 18272647923145545694
12011746 2 18342734126745443481
12107698 1 15841552985373627043
12236239 1 17821449075800760402
12788726 201 18114171979123258961
12838862 33 18337374002874860045
13140716 1 18266754656209250921
13224815 77 18273218582290306987
13914758 101 17458339715608413796
14117953 113 18260547805532827653
15183329 4 18411140226010040634
15238133 3 14996284674315926223
15461852 350 18202282541103971871
15788980 27 17458347459223321921
15849732 13 18040436607729163038
16087824 20 18336544907786301453
17093844 174 17894631491028303466
18681886 176 18339354266297923216
200 152 17632854227460953131
21150785 3 16845852399516007094
21236236 1 18341897402496578954
21267235 1 18337677520172496467
21521721 280 12324251581335684750
21792961 116 17918001551728690934
23402539 116 18334013908510043582
23559900 14 18341326781489233984
23569943 247 14116147589771729724
335352 9 18410572907120038932
34934 24 18334854992071884811
350125 39 18410012144080593332
4073 2 17968383437645310730
4325135 7 17703789223504102036
5104073 3 18337400339883702547
59755656 215 18410857629714764294
59755656 520 17095239241461115178
6328613 192 18187933927942618348
7226269 152 18259704497199084001

> <PUBCHEM_SHAPE_MULTIPOLES>
561.59
17.54
2.15
1.16
23.61
0.33
-0.31
-3.19
4.5
-1.19
0.01
-1.01
-0.13
0.26

> <PUBCHEM_SHAPE_SELFOVERLAP>
1206.879

> <PUBCHEM_SHAPE_VOLUME>
306.2

> <PUBCHEM_COORDINATE_TYPE>
2
5
10

$$$$
