130154
  -OEChem-03292013323D

 41 44  0     0  0  0  0  0  0999 V2000
    1.4348   -1.8106   -0.0244 O   0  0  0  0  0  0  0  0  0  0  0  0
   -1.8599   -1.5580    0.0213 O   0  0  0  0  0  0  0  0  0  0  0  0
    2.2446    0.3965   -0.0298 N   0  0  0  0  0  0  0  0  0  0  0  0
    0.2813    4.5698    0.0059 N   0  0  0  0  0  0  0  0  0  0  0  0
   -0.1356    0.5690    0.0024 N   0  0  0  0  0  0  0  0  0  0  0  0
   -1.2828    2.7216    0.0232 N   0  0  0  0  0  0  0  0  0  0  0  0
   -2.4661    0.7113    0.0350 N   0  0  0  0  0  0  0  0  0  0  0  0
    1.6082    4.7948   -0.0121 N   0  0  0  0  0  0  0  0  0  0  0  0
    1.1512    2.5554   -0.0107 C   0  0  0  0  0  0  0  0  0  0  0  0
    1.0801    1.1663   -0.0129 C   0  0  0  0  0  0  0  0  0  0  0  0
   -0.0474    3.2467    0.0075 C   0  0  0  0  0  0  0  0  0  0  0  0
   -1.2260    1.3722    0.0193 C   0  0  0  0  0  0  0  0  0  0  0  0
    2.1325    3.5643   -0.0219 C   0  0  0  0  0  0  0  0  0  0  0  0
    2.3548   -0.9998   -0.0343 C   0  0  0  0  0  0  0  0  0  0  0  0
    3.7439   -1.5288   -0.0246 C   0  0  0  0  0  0  0  0  0  0  0  0
   -4.1321   -1.0597    0.0246 C   0  0  0  0  0  0  0  0  0  0  0  0
   -2.6993   -0.6640    0.0350 C   0  0  0  0  0  0  0  0  0  0  0  0
    3.9871   -2.7690   -0.5764 C   0  0  0  0  0  0  0  0  0  0  0  0
    4.7439   -0.7619    0.5355 C   0  0  0  0  0  0  0  0  0  0  0  0
   -4.4910   -2.2732    0.5724 C   0  0  0  0  0  0  0  0  0  0  0  0
   -5.0555   -0.1999   -0.5321 C   0  0  0  0  0  0  0  0  0  0  0  0
    5.2906   -3.2654   -0.5675 C   0  0  0  0  0  0  0  0  0  0  0  0
    6.0474   -1.2584    0.5442 C   0  0  0  0  0  0  0  0  0  0  0  0
    6.3207   -2.5101   -0.0073 C   0  0  0  0  0  0  0  0  0  0  0  0
   -5.8355   -2.6444    0.5630 C   0  0  0  0  0  0  0  0  0  0  0  0
   -6.4001   -0.5711   -0.5414 C   0  0  0  0  0  0  0  0  0  0  0  0
   -6.7900   -1.7935    0.0061 C   0  0  0  0  0  0  0  0  0  0  0  0
    3.0973    0.9456   -0.0857 H   0  0  0  0  0  0  0  0  0  0  0  0
    3.2083    3.4602   -0.0368 H   0  0  0  0  0  0  0  0  0  0  0  0
   -0.3423    5.3672    0.0162 H   0  0  0  0  0  0  0  0  0  0  0  0
   -3.2512    1.3528    0.0909 H   0  0  0  0  0  0  0  0  0  0  0  0
    3.1980   -3.3672   -1.0219 H   0  0  0  0  0  0  0  0  0  0  0  0
    4.5708    0.1971    1.0121 H   0  0  0  0  0  0  0  0  0  0  0  0
   -3.7616   -2.9447    1.0154 H   0  0  0  0  0  0  0  0  0  0  0  0
   -4.7932    0.7400   -1.0056 H   0  0  0  0  0  0  0  0  0  0  0  0
    5.5039   -4.2396   -0.9978 H   0  0  0  0  0  0  0  0  0  0  0  0
    6.8484   -0.6750    0.9888 H   0  0  0  0  0  0  0  0  0  0  0  0
    7.3353   -2.8975    0.0012 H   0  0  0  0  0  0  0  0  0  0  0  0
   -6.1395   -3.5956    0.9902 H   0  0  0  0  0  0  0  0  0  0  0  0
   -7.1427    0.0867   -0.9834 H   0  0  0  0  0  0  0  0  0  0  0  0
   -7.8367   -2.0833   -0.0029 H   0  0  0  0  0  0  0  0  0  0  0  0
  1 14  2  0  0  0  0
  2 17  2  0  0  0  0
  3 10  1  0  0  0  0
  3 14  1  0  0  0  0
  3 28  1  0  0  0  0
  4  8  1  0  0  0  0
  4 11  1  0  0  0  0
  4 30  1  0  0  0  0
  5 10  2  0  0  0  0
  5 12  1  0  0  0  0
  6 11  1  0  0  0  0
  6 12  2  0  0  0  0
  7 12  1  0  0  0  0
  7 17  1  0  0  0  0
  7 31  1  0  0  0  0
  8 13  2  0  0  0  0
  9 10  1  0  0  0  0
  9 11  2  0  0  0  0
  9 13  1  0  0  0  0
 13 29  1  0  0  0  0
 14 15  1  0  0  0  0
 15 18  2  0  0  0  0
 15 19  1  0  0  0  0
 16 17  1  0  0  0  0
 16 20  2  0  0  0  0
 16 21  1  0  0  0  0
 18 22  1  0  0  0  0
 18 32  1  0  0  0  0
 19 23  2  0  0  0  0
 19 33  1  0  0  0  0
 20 25  1  0  0  0  0
 20 34  1  0  0  0  0
 21 26  2  0  0  0  0
 21 35  1  0  0  0  0
 22 24  2  0  0  0  0
 22 36  1  0  0  0  0
 23 24  1  0  0  0  0
 23 37  1  0  0  0  0
 24 38  1  0  0  0  0
 25 27  2  0  0  0  0
 25 39  1  0  0  0  0
 26 27  1  0  0  0  0
 26 40  1  0  0  0  0
 27 41  1  0  0  0  0
M  END
> <PUBCHEM_COMPOUND_CID>
130154

> <PUBCHEM_CONFORMER_RMSD>
0.8

> <PUBCHEM_CONFORMER_DIVERSEORDER>
1
12
5
10
13
4
9
11
8
14
7
6
15
3
2

> <PUBCHEM_MMFF94_PARTIAL_CHARGES>
40
1 -0.57
10 0.43
11 0.11
12 0.74
13 0.14
14 0.54
15 0.09
16 0.09
17 0.54
18 -0.15
19 -0.15
2 -0.57
20 -0.15
21 -0.15
22 -0.15
23 -0.15
24 -0.15
25 -0.15
26 -0.15
27 -0.15
28 0.37
29 0.15
3 -0.55
30 0.27
31 0.37
32 0.15
33 0.15
34 0.15
35 0.15
36 0.15
37 0.15
38 0.15
39 0.15
4 0.3
40 0.15
41 0.15
5 -0.62
6 -0.57
7 -0.55
8 -0.71

> <PUBCHEM_EFFECTIVE_ROTOR_COUNT>
6

> <PUBCHEM_PHARMACOPHORE_FEATURES>
10
1 1 acceptor
1 2 acceptor
1 3 donor
1 4 donor
1 7 donor
1 8 acceptor
5 4 8 9 11 13 rings
6 15 18 19 22 23 24 rings
6 16 20 21 25 26 27 rings
6 5 6 9 10 11 12 rings

> <PUBCHEM_HEAVY_ATOM_COUNT>
27

> <PUBCHEM_ATOM_DEF_STEREO_COUNT>
0

> <PUBCHEM_ATOM_UDEF_STEREO_COUNT>
0

> <PUBCHEM_BOND_DEF_STEREO_COUNT>
0

> <PUBCHEM_BOND_UDEF_STEREO_COUNT>
0

> <PUBCHEM_ISOTOPIC_ATOM_COUNT>
0

> <PUBCHEM_COMPONENT_COUNT>
1

> <PUBCHEM_CACTVS_TAUTO_COUNT>
55

> <PUBCHEM_CONFORMER_ID>
0001FC6A00000001

> <PUBCHEM_MMFF94_ENERGY>
74.0809

> <PUBCHEM_FEATURE_SELFOVERLAP>
50.862

> <PUBCHEM_SHAPE_FINGERPRINT>
10050765 1 18410011026614480845
10411042 1 18410856534155017294
10622 236 17485905730801529855
11135926 11 18123177172179743580
11265709 11 18410855434369089464
11719270 70 18050844713215011080
12107183 9 18341907243058140329
12166972 35 17894353267648116110
12516196 113 18410572872887407422
12788726 201 18043809784153159962
13248334 5 18266460004321050048
13533116 47 18269275841315256009
13540713 5 18267888158034984873
13631057 29 18265333915920455986
13673619 4 17967816055153394135
13785724 45 18341906168487991359
138480 1 18410857706528199252
13955234 65 18053947526422505073
13989917 61 18266742574303509171
14117953 113 18271807887423811103
14866123 147 18196095435299334921
15042514 8 18267868268046023092
15352361 1 18410575067536373011
15400415 2 17402049397602829633
15927050 60 17764310939628858054
16087824 20 18122063092856855573
16992752 21 18339655447417843166
17492 89 18266460000563776251
1979834 28 18198610220039406560
20238998 120 18341890766756860744
20567600 70 18335418001949288962
21033650 10 16370996379033579133
21049683 271 18261400008902128276
21130935 74 18122071060300596163
21133410 32 16155717581240348290
23559900 14 18337946892073454003
24771750 20 17827933045930484676
249999 5 18196650924409610632
3004659 81 18040152916096133710
3103668 31 18116710700011444269
329604 57 18335424543506130190
335352 9 18409727319298307125
3421961 26 18339642346997638433
3627633 1 18267023856133233508
4144715 1 18188773972169365995
437815 12 18408600353796541319
46194498 28 17604146042350828389
5309563 4 18411419479613466071
613672 6 18266998623025620670
6697151 62 18266995368036282109
6700243 42 17555204384161309612
77188 2 18411138034902142468
7970288 3 18410855434390928999
9962374 69 18268985561519341375

> <PUBCHEM_SHAPE_MULTIPOLES>
514.02
15.72
5.55
0.69
8.6
7.32
0
-21.16
-0.07
-4.32
0.11
0.02
-0.2
0.9

> <PUBCHEM_SHAPE_SELFOVERLAP>
1145.305

> <PUBCHEM_SHAPE_VOLUME>
270.9

> <PUBCHEM_COORDINATE_TYPE>
2
5
10

$$$$
