130183
  -OEChem-03292013323D

 38 39  0     1  0  0  0  0  0999 V2000
   -1.6650   -1.2708    0.2041 O   0  0  0  0  0  0  0  0  0  0  0  0
   -1.4824   -0.0823   -1.8342 O   0  0  0  0  0  0  0  0  0  0  0  0
   -2.3800    2.2430   -0.6081 O   0  0  0  0  0  0  0  0  0  0  0  0
   -4.9476    1.2666    0.3287 O   0  0  0  0  0  0  0  0  0  0  0  0
   -4.0615   -0.8986    1.7733 O   0  0  0  0  0  0  0  0  0  0  0  0
    0.9457   -0.4138   -0.4051 N   0  0  0  0  0  0  0  0  0  0  0  0
   -1.4564    0.0107   -0.4063 C   0  0  1  0  0  0  0  0  0  0  0  0
   -2.5486    0.9941    0.0580 C   0  0  2  0  0  0  0  0  0  0  0  0
   -3.9417    0.4305   -0.2366 C   0  0  1  0  0  0  0  0  0  0  0  0
   -4.0830   -0.9754    0.3458 C   0  0  1  0  0  0  0  0  0  0  0  0
   -2.9301   -1.8633   -0.1077 C   0  0  0  0  0  0  0  0  0  0  0  0
   -0.0705    0.4982    0.0209 C   0  0  0  0  0  0  0  0  0  0  0  0
    2.3077   -0.2307   -0.1760 C   0  0  0  0  0  0  0  0  0  0  0  0
    2.7707    0.9021    0.5114 C   0  0  0  0  0  0  0  0  0  0  0  0
    3.2418   -1.1759   -0.6279 C   0  0  0  0  0  0  0  0  0  0  0  0
    4.1343    1.0854    0.7409 C   0  0  0  0  0  0  0  0  0  0  0  0
    4.6054   -0.9925   -0.3982 C   0  0  0  0  0  0  0  0  0  0  0  0
    5.0516    0.1381    0.2863 C   0  0  0  0  0  0  0  0  0  0  0  0
    6.5096    0.3346    0.5308 C   0  0  0  0  0  0  0  0  0  0  0  0
   -2.4637    1.1831    1.1360 H   0  0  0  0  0  0  0  0  0  0  0  0
   -4.1191    0.4119   -1.3181 H   0  0  0  0  0  0  0  0  0  0  0  0
   -5.0431   -1.4203    0.0622 H   0  0  0  0  0  0  0  0  0  0  0  0
   -2.9648   -2.8223    0.4196 H   0  0  0  0  0  0  0  0  0  0  0  0
   -2.9822   -2.0690   -1.1826 H   0  0  0  0  0  0  0  0  0  0  0  0
   -0.0432    0.5932    1.1135 H   0  0  0  0  0  0  0  0  0  0  0  0
    0.1284    1.4788   -0.4263 H   0  0  0  0  0  0  0  0  0  0  0  0
    0.6690   -1.2878   -0.8396 H   0  0  0  0  0  0  0  0  0  0  0  0
   -0.5884   -0.2950   -2.1487 H   0  0  0  0  0  0  0  0  0  0  0  0
   -1.6262    2.6998   -0.1990 H   0  0  0  0  0  0  0  0  0  0  0  0
   -4.7195    1.4307    1.2591 H   0  0  0  0  0  0  0  0  0  0  0  0
   -4.8778   -0.4513    2.0537 H   0  0  0  0  0  0  0  0  0  0  0  0
    2.0908    1.6638    0.8829 H   0  0  0  0  0  0  0  0  0  0  0  0
    2.9099   -2.0623   -1.1636 H   0  0  0  0  0  0  0  0  0  0  0  0
    4.4703    1.9710    1.2738 H   0  0  0  0  0  0  0  0  0  0  0  0
    5.3106   -1.7365   -0.7592 H   0  0  0  0  0  0  0  0  0  0  0  0
    6.9578    0.8910   -0.2983 H   0  0  0  0  0  0  0  0  0  0  0  0
    6.6834    0.8882    1.4597 H   0  0  0  0  0  0  0  0  0  0  0  0
    7.0267   -0.6260    0.6293 H   0  0  0  0  0  0  0  0  0  0  0  0
  1  7  1  0  0  0  0
  1 11  1  0  0  0  0
  2  7  1  0  0  0  0
  2 28  1  0  0  0  0
  3  8  1  0  0  0  0
  3 29  1  0  0  0  0
  4  9  1  0  0  0  0
  4 30  1  0  0  0  0
  5 10  1  0  0  0  0
  5 31  1  0  0  0  0
  6 12  1  0  0  0  0
  6 13  1  0  0  0  0
  6 27  1  0  0  0  0
  7  8  1  0  0  0  0
  7 12  1  0  0  0  0
  8  9  1  0  0  0  0
  8 20  1  0  0  0  0
  9 10  1  0  0  0  0
  9 21  1  0  0  0  0
 10 11  1  0  0  0  0
 10 22  1  0  0  0  0
 11 23  1  0  0  0  0
 11 24  1  0  0  0  0
 12 25  1  0  0  0  0
 12 26  1  0  0  0  0
 13 14  2  0  0  0  0
 13 15  1  0  0  0  0
 14 16  1  0  0  0  0
 14 32  1  0  0  0  0
 15 17  2  0  0  0  0
 15 33  1  0  0  0  0
 16 18  2  0  0  0  0
 16 34  1  0  0  0  0
 17 18  1  0  0  0  0
 17 35  1  0  0  0  0
 18 19  1  0  0  0  0
 19 36  1  0  0  0  0
 19 37  1  0  0  0  0
 19 38  1  0  0  0  0
M  END
> <PUBCHEM_COMPOUND_CID>
130183

> <PUBCHEM_CONFORMER_RMSD>
0.6

> <PUBCHEM_CONFORMER_DIVERSEORDER>
1
31
33
5
14
29
24
7
21
43
44
16
4
38
10
8
9
13
23
26
3
42
27
40
11
25
12
15
34
36
17
32
19
39
30
22
41
35
37
6
2
18
20
28

> <PUBCHEM_MMFF94_PARTIAL_CHARGES>
28
1 -0.56
10 0.28
11 0.28
12 0.37
13 0.1
14 -0.15
15 -0.15
16 -0.15
17 -0.15
18 -0.14
19 0.14
2 -0.68
27 0.4
28 0.4
29 0.4
3 -0.68
30 0.4
31 0.4
32 0.15
33 0.15
34 0.15
35 0.15
4 -0.68
5 -0.68
6 -0.87
7 0.56
8 0.28
9 0.28

> <PUBCHEM_EFFECTIVE_ROTOR_COUNT>
4.2

> <PUBCHEM_PHARMACOPHORE_FEATURES>
13
1 1 acceptor
1 2 acceptor
1 2 donor
1 3 acceptor
1 3 donor
1 4 acceptor
1 4 donor
1 5 acceptor
1 5 donor
1 6 cation
1 6 donor
6 1 7 8 9 10 11 rings
6 13 14 15 16 17 18 rings

> <PUBCHEM_HEAVY_ATOM_COUNT>
19

> <PUBCHEM_ATOM_DEF_STEREO_COUNT>
3

> <PUBCHEM_ATOM_UDEF_STEREO_COUNT>
1

> <PUBCHEM_BOND_DEF_STEREO_COUNT>
0

> <PUBCHEM_BOND_UDEF_STEREO_COUNT>
0

> <PUBCHEM_ISOTOPIC_ATOM_COUNT>
0

> <PUBCHEM_COMPONENT_COUNT>
1

> <PUBCHEM_CACTVS_TAUTO_COUNT>
1

> <PUBCHEM_CONFORMER_ID>
0001FC8700000001

> <PUBCHEM_MMFF94_ENERGY>
60.3741

> <PUBCHEM_FEATURE_SELFOVERLAP>
66.038

> <PUBCHEM_SHAPE_FINGERPRINT>
10 15 18340757244163652888
10680689 15 18408322193969982967
11089746 13 15339115749999285546
11315181 36 17967532406173989212
11370993 144 18130240254524502851
11552529 35 17345187998836605703
12107183 9 17613144179720297384
12236239 1 16370443358864788222
12507557 5 18130786780565260360
12507560 40 18343303635040085988
12596602 18 16950566622939248288
12616971 3 15936418839796213446
128620 24 16660642960178472414
13167823 11 18113331990804231250
13214271 11 18343580759230724151
13675066 3 18272930531518180028
14341114 176 18341900679841468824
15375358 24 18272653441481799054
15788980 27 17846493738704729596
17349148 13 15285354024978405512
17844677 252 18411142450307591432
1813 80 17022908942916848982
19433438 28 18410570704313635824
200 152 17346874550704002583
20645477 56 18341890792489136884
20645477 70 17417813877667427694
21033648 29 17987783151405727768
21065198 57 18342175570406480842
21065199 12 18412263917691750246
21637258 2 15936985149347542329
22646028 1 15864068780329425238
22854114 59 18273216408751979518
2297311 6 18409459080540364556
23402539 116 18187640327571455078
23402655 69 17704068495858856876
23557571 272 18040428867797513316
23559900 14 18413106152320293632
26918003 58 18343580750719949674
29717793 49 14346069803192349162
3545911 37 18343864407582367908
42 15 18409730660133854182
4214541 1 18412544305899342712
5104073 3 18339923702147619786
542803 24 17894632561034277180
5924683 9 18058444469030057647
7495541 125 17968096469362853104
77779 3 18413671318366102374
9709674 26 18412549820706448918

> <PUBCHEM_SHAPE_MULTIPOLES>
356.68
13.04
1.57
1
10.17
0.09
0.01
0.65
2.79
-1.09
-0.06
-0.62
-0.08
0.99

> <PUBCHEM_SHAPE_SELFOVERLAP>
744.632

> <PUBCHEM_SHAPE_VOLUME>
200.8

> <PUBCHEM_COORDINATE_TYPE>
2
5
10

$$$$
