130198
  -OEChem-03292013323D

 54 57  0     1  0  0  0  0  0999 V2000
    2.4315   -1.2334   -1.2003 O   0  0  0  0  0  0  0  0  0  0  0  0
    4.0798   -1.7834    1.9478 O   0  0  0  0  0  0  0  0  0  0  0  0
    4.1173   -3.5095   -0.1697 O   0  0  0  0  0  0  0  0  0  0  0  0
   -0.0998   -2.2003   -1.9072 O   0  0  0  0  0  0  0  0  0  0  0  0
    2.8916    0.6648    0.0985 N   0  0  0  0  0  0  0  0  0  0  0  0
    3.1606    2.8250    0.5794 N   0  0  0  0  0  0  0  0  0  0  0  0
    0.5209    0.6476   -0.4306 N   0  0  0  0  0  0  0  0  0  0  0  0
   -1.7466    1.0335   -0.8604 N   0  0  0  0  0  0  0  0  0  0  0  0
   -0.4521    2.8751   -0.2127 N   0  0  0  0  0  0  0  0  0  0  0  0
    0.8368    4.7818    0.4433 N   0  0  0  0  0  0  0  0  0  0  0  0
    3.0008   -1.7365    1.0369 C   0  0  1  0  0  0  0  0  0  0  0  0
    3.2281   -0.7424   -0.0999 C   0  0  1  0  0  0  0  0  0  0  0  0
    2.8459   -3.0396    0.2777 C   0  0  1  0  0  0  0  0  0  0  0  0
    2.0487   -2.6016   -0.9426 C   0  0  1  0  0  0  0  0  0  0  0  0
    0.5425   -2.6340   -0.7211 C   0  0  0  0  0  0  0  0  0  0  0  0
    1.6646    1.2433   -0.0610 C   0  0  0  0  0  0  0  0  0  0  0  0
    3.7564    1.6547    0.4840 C   0  0  0  0  0  0  0  0  0  0  0  0
    1.8528    2.5825    0.2414 C   0  0  0  0  0  0  0  0  0  0  0  0
   -4.7298    0.3315    1.0786 C   0  0  0  0  0  0  0  0  0  0  0  0
   -4.4023   -0.1106   -0.3261 C   0  0  0  0  0  0  0  0  0  0  0  0
   -5.2894   -0.7889    1.9592 C   0  0  0  0  0  0  0  0  0  0  0  0
   -4.5101   -2.0843    1.7663 C   0  0  0  0  0  0  0  0  0  0  0  0
   -4.5456   -2.5343    0.3057 C   0  0  0  0  0  0  0  0  0  0  0  0
   -4.1503    0.9830   -1.3215 C   0  0  0  0  0  0  0  0  0  0  0  0
   -4.3378   -1.4098   -0.6654 C   0  0  0  0  0  0  0  0  0  0  0  0
   -2.9406    1.8398   -0.9685 C   0  0  0  0  0  0  0  0  0  0  0  0
    0.7374    3.4096    0.1547 C   0  0  0  0  0  0  0  0  0  0  0  0
   -0.5114    1.5366   -0.4864 C   0  0  0  0  0  0  0  0  0  0  0  0
    2.0855   -1.4964    1.5891 H   0  0  0  0  0  0  0  0  0  0  0  0
    4.2748   -0.7538   -0.4310 H   0  0  0  0  0  0  0  0  0  0  0  0
    2.3746   -3.8394    0.8561 H   0  0  0  0  0  0  0  0  0  0  0  0
    2.3089   -3.1767   -1.8384 H   0  0  0  0  0  0  0  0  0  0  0  0
    0.2040   -3.6514   -0.5034 H   0  0  0  0  0  0  0  0  0  0  0  0
    0.2219   -1.9822    0.0963 H   0  0  0  0  0  0  0  0  0  0  0  0
    4.9029   -1.8895    1.4418 H   0  0  0  0  0  0  0  0  0  0  0  0
    4.6099   -3.8012    0.6163 H   0  0  0  0  0  0  0  0  0  0  0  0
    4.8026    1.4644    0.6816 H   0  0  0  0  0  0  0  0  0  0  0  0
   -5.4595    1.1495    1.0542 H   0  0  0  0  0  0  0  0  0  0  0  0
   -3.8190    0.7234    1.5477 H   0  0  0  0  0  0  0  0  0  0  0  0
   -6.3446   -0.9590    1.7098 H   0  0  0  0  0  0  0  0  0  0  0  0
   -5.2572   -0.4824    3.0109 H   0  0  0  0  0  0  0  0  0  0  0  0
   -3.4690   -1.9319    2.0789 H   0  0  0  0  0  0  0  0  0  0  0  0
   -4.9223   -2.8726    2.4061 H   0  0  0  0  0  0  0  0  0  0  0  0
   -5.5108   -3.0061    0.0863 H   0  0  0  0  0  0  0  0  0  0  0  0
   -3.7732   -3.2961    0.1495 H   0  0  0  0  0  0  0  0  0  0  0  0
   -5.0402    1.6209   -1.3886 H   0  0  0  0  0  0  0  0  0  0  0  0
   -4.0043    0.5602   -2.3243 H   0  0  0  0  0  0  0  0  0  0  0  0
   -4.1167   -1.6917   -1.6915 H   0  0  0  0  0  0  0  0  0  0  0  0
   -3.1224    2.3788   -0.0309 H   0  0  0  0  0  0  0  0  0  0  0  0
   -2.8046    2.5944   -1.7528 H   0  0  0  0  0  0  0  0  0  0  0  0
    0.2042   -1.2947   -2.0901 H   0  0  0  0  0  0  0  0  0  0  0  0
   -1.7806    0.0486   -1.0974 H   0  0  0  0  0  0  0  0  0  0  0  0
    1.7233    5.1831    0.7179 H   0  0  0  0  0  0  0  0  0  0  0  0
    0.0119    5.3618    0.3732 H   0  0  0  0  0  0  0  0  0  0  0  0
  1 12  1  0  0  0  0
  1 14  1  0  0  0  0
  2 11  1  0  0  0  0
  2 35  1  0  0  0  0
  3 13  1  0  0  0  0
  3 36  1  0  0  0  0
  4 15  1  0  0  0  0
  4 51  1  0  0  0  0
  5 12  1  0  0  0  0
  5 16  1  0  0  0  0
  5 17  1  0  0  0  0
  6 17  2  0  0  0  0
  6 18  1  0  0  0  0
  7 16  2  0  0  0  0
  7 28  1  0  0  0  0
  8 26  1  0  0  0  0
  8 28  1  0  0  0  0
  8 52  1  0  0  0  0
  9 27  1  0  0  0  0
  9 28  2  0  0  0  0
 10 27  1  0  0  0  0
 10 53  1  0  0  0  0
 10 54  1  0  0  0  0
 11 12  1  0  0  0  0
 11 13  1  0  0  0  0
 11 29  1  0  0  0  0
 12 30  1  0  0  0  0
 13 14  1  0  0  0  0
 13 31  1  0  0  0  0
 14 15  1  0  0  0  0
 14 32  1  0  0  0  0
 15 33  1  0  0  0  0
 15 34  1  0  0  0  0
 16 18  1  0  0  0  0
 17 37  1  0  0  0  0
 18 27  2  0  0  0  0
 19 20  1  0  0  0  0
 19 21  1  0  0  0  0
 19 38  1  0  0  0  0
 19 39  1  0  0  0  0
 20 24  1  0  0  0  0
 20 25  2  0  0  0  0
 21 22  1  0  0  0  0
 21 40  1  0  0  0  0
 21 41  1  0  0  0  0
 22 23  1  0  0  0  0
 22 42  1  0  0  0  0
 22 43  1  0  0  0  0
 23 25  1  0  0  0  0
 23 44  1  0  0  0  0
 23 45  1  0  0  0  0
 24 26  1  0  0  0  0
 24 46  1  0  0  0  0
 24 47  1  0  0  0  0
 25 48  1  0  0  0  0
 26 49  1  0  0  0  0
 26 50  1  0  0  0  0
M  END
> <PUBCHEM_COMPOUND_CID>
130198

> <PUBCHEM_CONFORMER_RMSD>
1

> <PUBCHEM_CONFORMER_DIVERSEORDER>
1
45
95
66
83
15
85
108
82
33
121
97
10
30
111
4
71
40
92
122
116
77
100
69
50
43
127
36
99
72
84
47
94
68
101
60
123
13
42
103
126
64
112
67
98
41
115
58
75
89
3
23
70
51
55
107
90
19
6
87
46
54
18
106
79
5
7
21
53
102
24
39
78
14
38
48
80
16
109
8
86
11
20
74
63
9
22
114
56
65
25
117
59
52
29
2
73
57
113
61
37
32
104
88
31
125
91
96
81
34
28
110
118
49
93
27
26
44
17
120
12
124
119
35
76
62
105

> <PUBCHEM_MMFF94_PARTIAL_CHARGES>
34
1 -0.56
10 -0.9
11 0.28
12 0.54
13 0.28
14 0.28
15 0.28
16 0.11
17 0.04
18 0.23
19 0.14
2 -0.68
20 -0.28
23 0.14
24 0.14
25 -0.29
26 0.37
27 0.41
28 0.72
3 -0.68
35 0.4
36 0.4
37 0.15
4 -0.68
48 0.15
5 0.05
51 0.4
52 0.4
53 0.4
54 0.4
6 -0.57
7 -0.57
8 -0.87
9 -0.62

> <PUBCHEM_EFFECTIVE_ROTOR_COUNT>
7.8

> <PUBCHEM_PHARMACOPHORE_FEATURES>
16
1 1 acceptor
1 10 cation
1 10 donor
1 2 acceptor
1 2 donor
1 3 acceptor
1 3 donor
1 4 acceptor
1 4 donor
1 8 donor
3 5 6 17 cation
4 7 8 9 28 cation
5 1 11 12 13 14 rings
5 5 6 16 17 18 rings
6 19 20 21 22 23 25 rings
6 7 9 16 18 27 28 rings

> <PUBCHEM_HEAVY_ATOM_COUNT>
28

> <PUBCHEM_ATOM_DEF_STEREO_COUNT>
4

> <PUBCHEM_ATOM_UDEF_STEREO_COUNT>
0

> <PUBCHEM_BOND_DEF_STEREO_COUNT>
0

> <PUBCHEM_BOND_UDEF_STEREO_COUNT>
0

> <PUBCHEM_ISOTOPIC_ATOM_COUNT>
0

> <PUBCHEM_COMPONENT_COUNT>
1

> <PUBCHEM_CACTVS_TAUTO_COUNT>
9

> <PUBCHEM_CONFORMER_ID>
0001FC9600000001

> <PUBCHEM_MMFF94_ENERGY>
55.8359

> <PUBCHEM_FEATURE_SELFOVERLAP>
81.345

> <PUBCHEM_SHAPE_FINGERPRINT>
10675989 125 16317224457243854757
10928967 22 18114755854036072835
1100329 8 18052809545163184800
11370993 144 18409735054402823897
11445158 3 17534610805666266940
12107183 9 18198637532058253633
12422481 6 18194937791067629442
12553582 1 18198066876242094685
12633257 1 18339366275638509667
13140716 1 18268144271097105829
13583140 156 18338791329815077013
14251757 17 18114184146622547539
14790565 3 17905047302476713100
19315092 285 16411774056850929429
19611394 137 18265321812887616202
20429552 37 18338811022635462337
20739085 24 18343312460834051221
21197605 99 17689162631254107315
21796203 349 18339657705964089888
221490 88 18408322159610166782
23559900 14 18335972082568553037
2747138 104 18267854009830657122
3117164 225 18269571468151886657
3178227 256 18265058118553238544
3737641 26 18411429405219284789
4015057 19 18267562681909020317
5309563 4 18411700993423925141
5486654 36 18123196705695994385
563151 40 17325496995724906876
613672 6 18193820562235552426
6371380 46 18046346324015817405
6433294 58 18336262435421804603
9709674 26 18335132090714200341

> <PUBCHEM_SHAPE_MULTIPOLES>
522.86
10.56
5.15
1.45
11.49
1.92
-0.28
-5.7
-3.81
-4.64
-0.2
1.12
-0.76
1.36

> <PUBCHEM_SHAPE_SELFOVERLAP>
1117.541

> <PUBCHEM_SHAPE_VOLUME>
285.6

> <PUBCHEM_COORDINATE_TYPE>
2
5
10

$$$$
