130164
  -OEChem-03292013323D

 36 37  0     1  0  0  0  0  0999 V2000
    1.9202   -2.2939   -1.9016 O   0  0  0  0  0  0  0  0  0  0  0  0
    3.2103   -1.7283    1.6135 O   0  0  0  0  0  0  0  0  0  0  0  0
   -4.1954    2.4362   -0.5348 O   0  0  0  0  0  0  0  0  0  0  0  0
    5.0146    2.5398    0.4988 O   0  0  0  0  0  0  0  0  0  0  0  0
   -6.1067    0.5120    0.0717 O   0  0  0  0  0  0  0  0  0  0  0  0
    0.0179   -1.2888   -0.8048 C   0  0  0  0  0  0  0  0  0  0  0  0
    1.4914   -1.7118   -0.6680 C   0  0  2  0  0  0  0  0  0  0  0  0
   -0.6154   -0.7221    0.4811 C   0  0  0  0  0  0  0  0  0  0  0  0
    2.4393   -0.5809   -0.3443 C   0  0  0  0  0  0  0  0  0  0  0  0
   -2.0657   -0.3929    0.3719 C   0  0  0  0  0  0  0  0  0  0  0  0
    3.2478   -0.6517    0.7792 C   0  0  0  0  0  0  0  0  0  0  0  0
    2.4782    0.5162   -1.1909 C   0  0  0  0  0  0  0  0  0  0  0  0
   -2.4630    0.8810   -0.0345 C   0  0  0  0  0  0  0  0  0  0  0  0
   -3.0251   -1.3586    0.6767 C   0  0  0  0  0  0  0  0  0  0  0  0
    4.1172    0.4013    1.0638 C   0  0  0  0  0  0  0  0  0  0  0  0
    3.3475    1.5691   -0.9063 C   0  0  0  0  0  0  0  0  0  0  0  0
   -3.8196    1.1891   -0.1361 C   0  0  0  0  0  0  0  0  0  0  0  0
   -4.3815   -1.0506    0.5750 C   0  0  0  0  0  0  0  0  0  0  0  0
    4.1671    1.5117    0.2210 C   0  0  0  0  0  0  0  0  0  0  0  0
   -4.7789    0.2232    0.1686 C   0  0  0  0  0  0  0  0  0  0  0  0
   -0.1040   -0.5696   -1.6252 H   0  0  0  0  0  0  0  0  0  0  0  0
   -0.5615   -2.1658   -1.1267 H   0  0  0  0  0  0  0  0  0  0  0  0
    1.5404   -2.5223    0.0630 H   0  0  0  0  0  0  0  0  0  0  0  0
   -0.0695    0.1770    0.7950 H   0  0  0  0  0  0  0  0  0  0  0  0
   -0.4698   -1.4422    1.2975 H   0  0  0  0  0  0  0  0  0  0  0  0
    1.8563    0.5751   -2.0790 H   0  0  0  0  0  0  0  0  0  0  0  0
   -1.7198    1.6373   -0.2755 H   0  0  0  0  0  0  0  0  0  0  0  0
   -2.7282   -2.3553    0.9923 H   0  0  0  0  0  0  0  0  0  0  0  0
    1.3283   -3.0403   -2.0975 H   0  0  0  0  0  0  0  0  0  0  0  0
    4.7531    0.3509    1.9443 H   0  0  0  0  0  0  0  0  0  0  0  0
    3.3835    2.4306   -1.5676 H   0  0  0  0  0  0  0  0  0  0  0  0
   -5.1184   -1.8126    0.8146 H   0  0  0  0  0  0  0  0  0  0  0  0
    2.2847   -1.9889    1.7501 H   0  0  0  0  0  0  0  0  0  0  0  0
   -5.1677    2.4727   -0.5492 H   0  0  0  0  0  0  0  0  0  0  0  0
    5.5043    2.3334    1.3134 H   0  0  0  0  0  0  0  0  0  0  0  0
   -6.6210   -0.2751    0.3205 H   0  0  0  0  0  0  0  0  0  0  0  0
  1  7  1  0  0  0  0
  1 29  1  0  0  0  0
  2 11  1  0  0  0  0
  2 33  1  0  0  0  0
  3 17  1  0  0  0  0
  3 34  1  0  0  0  0
  4 19  1  0  0  0  0
  4 35  1  0  0  0  0
  5 20  1  0  0  0  0
  5 36  1  0  0  0  0
  6  7  1  0  0  0  0
  6  8  1  0  0  0  0
  6 21  1  0  0  0  0
  6 22  1  0  0  0  0
  7  9  1  0  0  0  0
  7 23  1  0  0  0  0
  8 10  1  0  0  0  0
  8 24  1  0  0  0  0
  8 25  1  0  0  0  0
  9 11  2  0  0  0  0
  9 12  1  0  0  0  0
 10 13  2  0  0  0  0
 10 14  1  0  0  0  0
 11 15  1  0  0  0  0
 12 16  2  0  0  0  0
 12 26  1  0  0  0  0
 13 17  1  0  0  0  0
 13 27  1  0  0  0  0
 14 18  2  0  0  0  0
 14 28  1  0  0  0  0
 15 19  2  0  0  0  0
 15 30  1  0  0  0  0
 16 19  1  0  0  0  0
 16 31  1  0  0  0  0
 17 20  2  0  0  0  0
 18 20  1  0  0  0  0
 18 32  1  0  0  0  0
M  END
> <PUBCHEM_COMPOUND_CID>
130164

> <PUBCHEM_CONFORMER_RMSD>
0.6

> <PUBCHEM_CONFORMER_DIVERSEORDER>
9
128
113
23
48
127
87
11
115
131
59
5
101
121
42
20
3
90
39
136
47
118
35
98
37
61
112
86
18
117
126
6
109
63
91
22
71
45
30
137
17
21
62
125
114
96
134
123
99
60
100
40
64
116
19
41
38
79
124
132
77
46
13
108
97
120
24
85
53
43
31
14
133
54
129
92
72
119
25
15
1
33
52
75
94
67
105
111
84
32
93
130
56
2
68
49
76
26
110
7
69
51
106
44
16
74
80
107
58
104
50
27
78
28
135
82
55
103
65
66
83
10
4
8
34
12
102
57
36
29
88
73
95
89
122
70
81

> <PUBCHEM_MMFF94_PARTIAL_CHARGES>
30
1 -0.68
10 -0.14
11 0.08
12 -0.15
13 -0.15
14 -0.15
15 -0.15
16 -0.15
17 0.08
18 -0.15
19 0.08
2 -0.53
20 0.08
26 0.15
27 0.15
28 0.15
29 0.4
3 -0.53
30 0.15
31 0.15
32 0.15
33 0.45
34 0.45
35 0.45
36 0.45
4 -0.53
5 -0.53
7 0.42
8 0.14
9 -0.14

> <PUBCHEM_EFFECTIVE_ROTOR_COUNT>
4

> <PUBCHEM_PHARMACOPHORE_FEATURES>
8
1 1 acceptor
1 1 donor
1 2 donor
1 3 donor
1 4 donor
1 5 donor
6 10 13 14 17 18 20 rings
6 9 11 12 15 16 19 rings

> <PUBCHEM_HEAVY_ATOM_COUNT>
20

> <PUBCHEM_ATOM_DEF_STEREO_COUNT>
0

> <PUBCHEM_ATOM_UDEF_STEREO_COUNT>
1

> <PUBCHEM_BOND_DEF_STEREO_COUNT>
0

> <PUBCHEM_BOND_UDEF_STEREO_COUNT>
0

> <PUBCHEM_ISOTOPIC_ATOM_COUNT>
0

> <PUBCHEM_COMPONENT_COUNT>
1

> <PUBCHEM_CACTVS_TAUTO_COUNT>
162

> <PUBCHEM_CONFORMER_ID>
0001FC7400000009

> <PUBCHEM_MMFF94_ENERGY>
52.662

> <PUBCHEM_FEATURE_SELFOVERLAP>
40.603

> <PUBCHEM_SHAPE_FINGERPRINT>
10498660 4 17703794772775889162
10646746 165 18261116240212031255
10670039 82 17917165930938918120
11128504 68 15123792898409857849
11405975 8 18268720398464021379
11796584 16 9871483005717218664
12107183 9 17609764310624612121
12363563 72 12324232863182601078
12596602 18 16371008563259835129
12633257 1 16226322737655640808
12670546 56 17894622635164545547
128620 24 16487252158173754107
12892183 10 18040715900277106450
13533116 47 17603864451753119259
13675066 3 16226047773690971811
14251764 38 18268710506943517409
14341114 328 17458625674510116180
14576447 43 11167678589880906692
15188451 53 15647621202229620619
15961568 22 18333736844286139036
1813 80 14201393859527473886
18186145 218 18196950885067786367
19784866 240 8141820399327738900
20281475 54 10375865269256729011
20645477 70 17417819378829671127
20715895 44 18047462336501840557
21065199 12 18113900459294619235
21713013 43 11599731661849371424
21756936 100 18047751792012486124
21859007 373 16807273723774414823
23227448 37 18129099103178002397
23557571 272 18335997384579024869
23559900 14 18197221338863276439
2838139 119 18128529565367974984
3060560 45 14549018784585964148
312423 11 16414370969660332523
341906 21 18113624482034173101
34797466 226 17775293776706031413
351380 180 18259703410793839017
4921388 177 14692284097265306637
5104073 3 18260836964712166585
5281201 14 18129392496710227383
5374978 207 18187086143957462731
7808743 9 18054507178215381088
960060 61 10807928275785424553
9841814 1 13262401064030440966

> <PUBCHEM_SHAPE_MULTIPOLES>
382.24
12.12
2.28
1.2
7.94
0.48
0.16
5.97
-2.21
-1.16
0.34
-1.22
-0.49
0.64

> <PUBCHEM_SHAPE_SELFOVERLAP>
817.421

> <PUBCHEM_SHAPE_VOLUME>
212.1

> <PUBCHEM_COORDINATE_TYPE>
2
5
10

$$$$
