13019100
  -OEChem-03292013303D

 55 56  0     1  0  0  0  0  0999 V2000
   -0.3672   -0.3802   -0.0801 O   0  0  0  0  0  0  0  0  0  0  0  0
   -2.4102   -0.2198    1.1043 O   0  0  0  0  0  0  0  0  0  0  0  0
    3.9813    1.2975   -0.1018 O   0  0  0  0  0  0  0  0  0  0  0  0
    2.4850    0.1358    2.1180 O   0  0  0  0  0  0  0  0  0  0  0  0
    3.8540   -1.5540    0.2607 N   0  0  0  0  0  0  0  0  0  0  0  0
    1.4936    2.7154    0.6819 N   0  0  0  0  0  0  0  0  0  0  0  0
   -0.6326   -3.2304   -0.1731 N   0  0  0  0  0  0  0  0  0  0  0  0
   -5.2013    1.4080   -0.6650 N   0  0  0  0  0  0  0  0  0  0  0  0
    0.5742    0.4024    0.6606 C   0  0  1  0  0  0  0  0  0  0  0  0
    2.6845   -0.7787   -0.1589 C   0  0  1  0  0  0  0  0  0  0  0  0
    1.7716   -0.4815    1.0486 C   0  0  1  0  0  0  0  0  0  0  0  0
    0.9391    1.6556   -0.1626 C   0  0  2  0  0  0  0  0  0  0  0  0
    3.1218    0.4934   -0.9049 C   0  0  1  0  0  0  0  0  0  0  0  0
    1.9038    1.3278   -1.3197 C   0  0  0  0  0  0  0  0  0  0  0  0
   -1.2820   -1.0446    0.7891 C   0  0  1  0  0  0  0  0  0  0  0  0
   -1.7590   -2.3672    0.1716 C   0  0  1  0  0  0  0  0  0  0  0  0
   -2.6260   -2.1071   -1.0630 C   0  0  0  0  0  0  0  0  0  0  0  0
   -3.2100    0.1147   -0.0358 C   0  0  1  0  0  0  0  0  0  0  0  0
   -3.7578   -1.1473   -0.7052 C   0  0  0  0  0  0  0  0  0  0  0  0
   -4.3426    1.0134    0.4431 C   0  0  0  0  0  0  0  0  0  0  0  0
    4.6379   -1.9547   -0.8938 C   0  0  0  0  0  0  0  0  0  0  0  0
    4.4318    2.4426   -0.8104 C   0  0  0  0  0  0  0  0  0  0  0  0
   -6.2899    2.2589   -0.2036 C   0  0  0  0  0  0  0  0  0  0  0  0
    0.0853    0.7633    1.5779 H   0  0  0  0  0  0  0  0  0  0  0  0
    2.0914   -1.3911   -0.8528 H   0  0  0  0  0  0  0  0  0  0  0  0
    1.4162   -1.4405    1.4422 H   0  0  0  0  0  0  0  0  0  0  0  0
    0.0180    2.0507   -0.6111 H   0  0  0  0  0  0  0  0  0  0  0  0
    3.6499    0.2242   -1.8279 H   0  0  0  0  0  0  0  0  0  0  0  0
    2.1710    2.2435   -1.8576 H   0  0  0  0  0  0  0  0  0  0  0  0
    1.3382    0.7346   -2.0529 H   0  0  0  0  0  0  0  0  0  0  0  0
   -0.8006   -1.2862    1.7453 H   0  0  0  0  0  0  0  0  0  0  0  0
   -2.3821   -2.8862    0.9120 H   0  0  0  0  0  0  0  0  0  0  0  0
   -3.0471   -3.0459   -1.4427 H   0  0  0  0  0  0  0  0  0  0  0  0
   -2.0246   -1.6748   -1.8732 H   0  0  0  0  0  0  0  0  0  0  0  0
    4.4309   -1.0024    0.8948 H   0  0  0  0  0  0  0  0  0  0  0  0
   -2.5874    0.6744   -0.7464 H   0  0  0  0  0  0  0  0  0  0  0  0
   -4.3223   -0.9073   -1.6128 H   0  0  0  0  0  0  0  0  0  0  0  0
   -4.4419   -1.6630   -0.0187 H   0  0  0  0  0  0  0  0  0  0  0  0
    1.6170    3.5630    0.1296 H   0  0  0  0  0  0  0  0  0  0  0  0
    0.8293    2.9505    1.4182 H   0  0  0  0  0  0  0  0  0  0  0  0
    2.8381    0.9812    1.7928 H   0  0  0  0  0  0  0  0  0  0  0  0
   -4.9232    0.4875    1.2123 H   0  0  0  0  0  0  0  0  0  0  0  0
   -3.9133    1.8969    0.9333 H   0  0  0  0  0  0  0  0  0  0  0  0
    5.2246   -1.1327   -1.3146 H   0  0  0  0  0  0  0  0  0  0  0  0
    4.0238   -2.4094   -1.6785 H   0  0  0  0  0  0  0  0  0  0  0  0
    5.3586   -2.7163   -0.5772 H   0  0  0  0  0  0  0  0  0  0  0  0
   -0.0911   -3.4394    0.6645 H   0  0  0  0  0  0  0  0  0  0  0  0
   -0.9777   -4.1226   -0.5245 H   0  0  0  0  0  0  0  0  0  0  0  0
    3.7028    3.2549   -0.7929 H   0  0  0  0  0  0  0  0  0  0  0  0
    5.3237    2.8133   -0.2954 H   0  0  0  0  0  0  0  0  0  0  0  0
    4.7225    2.2029   -1.8386 H   0  0  0  0  0  0  0  0  0  0  0  0
   -4.6522    1.9090   -1.3629 H   0  0  0  0  0  0  0  0  0  0  0  0
   -6.9224    2.5335   -1.0534 H   0  0  0  0  0  0  0  0  0  0  0  0
   -5.9140    3.1824    0.2486 H   0  0  0  0  0  0  0  0  0  0  0  0
   -6.9222    1.7358    0.5211 H   0  0  0  0  0  0  0  0  0  0  0  0
  1  9  1  0  0  0  0
  1 15  1  0  0  0  0
  2 15  1  0  0  0  0
  2 18  1  0  0  0  0
  3 13  1  0  0  0  0
  3 22  1  0  0  0  0
  4 11  1  0  0  0  0
  4 41  1  0  0  0  0
  5 10  1  0  0  0  0
  5 21  1  0  0  0  0
  5 35  1  0  0  0  0
  6 12  1  0  0  0  0
  6 39  1  0  0  0  0
  6 40  1  0  0  0  0
  7 16  1  0  0  0  0
  7 47  1  0  0  0  0
  7 48  1  0  0  0  0
  8 20  1  0  0  0  0
  8 23  1  0  0  0  0
  8 52  1  0  0  0  0
  9 11  1  0  0  0  0
  9 12  1  0  0  0  0
  9 24  1  0  0  0  0
 10 11  1  0  0  0  0
 10 13  1  0  0  0  0
 10 25  1  0  0  0  0
 11 26  1  0  0  0  0
 12 14  1  0  0  0  0
 12 27  1  0  0  0  0
 13 14  1  0  0  0  0
 13 28  1  0  0  0  0
 14 29  1  0  0  0  0
 14 30  1  0  0  0  0
 15 16  1  0  0  0  0
 15 31  1  0  0  0  0
 16 17  1  0  0  0  0
 16 32  1  0  0  0  0
 17 19  1  0  0  0  0
 17 33  1  0  0  0  0
 17 34  1  0  0  0  0
 18 19  1  0  0  0  0
 18 20  1  0  0  0  0
 18 36  1  0  0  0  0
 19 37  1  0  0  0  0
 19 38  1  0  0  0  0
 20 42  1  0  0  0  0
 20 43  1  0  0  0  0
 21 44  1  0  0  0  0
 21 45  1  0  0  0  0
 21 46  1  0  0  0  0
 22 49  1  0  0  0  0
 22 50  1  0  0  0  0
 22 51  1  0  0  0  0
 23 53  1  0  0  0  0
 23 54  1  0  0  0  0
 23 55  1  0  0  0  0
M  END
> <PUBCHEM_COMPOUND_CID>
13019100

> <PUBCHEM_CONFORMER_RMSD>
0.8

> <PUBCHEM_CONFORMER_DIVERSEORDER>
1
8
50
14
45
30
18
55
41
51
28
38
7
31
2
47
40
37
35
22
43
27
23
16
33
48
25
15
20
46
4
54
29
5
34
52
9
13
44
26
39
19
21
12
17
36
53
3
24
49
32
11
10
6
42

> <PUBCHEM_MMFF94_PARTIAL_CHARGES>
27
1 -0.56
10 0.27
11 0.28
12 0.27
13 0.28
15 0.56
16 0.27
18 0.28
2 -0.56
20 0.27
21 0.27
22 0.28
23 0.27
3 -0.56
35 0.36
39 0.36
4 -0.68
40 0.36
41 0.4
47 0.36
48 0.36
5 -0.9
52 0.36
6 -0.99
7 -0.99
8 -0.9
9 0.28

> <PUBCHEM_EFFECTIVE_ROTOR_COUNT>
8.4

> <PUBCHEM_PHARMACOPHORE_FEATURES>
15
1 1 acceptor
1 2 acceptor
1 3 acceptor
1 4 acceptor
1 4 donor
1 5 cation
1 5 donor
1 6 cation
1 6 donor
1 7 cation
1 7 donor
1 8 cation
1 8 donor
6 2 15 16 17 18 19 rings
6 9 10 11 12 13 14 rings

> <PUBCHEM_HEAVY_ATOM_COUNT>
23

> <PUBCHEM_ATOM_DEF_STEREO_COUNT>
8

> <PUBCHEM_ATOM_UDEF_STEREO_COUNT>
0

> <PUBCHEM_BOND_DEF_STEREO_COUNT>
0

> <PUBCHEM_BOND_UDEF_STEREO_COUNT>
0

> <PUBCHEM_ISOTOPIC_ATOM_COUNT>
0

> <PUBCHEM_COMPONENT_COUNT>
1

> <PUBCHEM_CACTVS_TAUTO_COUNT>
1

> <PUBCHEM_CONFORMER_ID>
00C6A7DC00000001

> <PUBCHEM_MMFF94_ENERGY>
47.9033

> <PUBCHEM_FEATURE_SELFOVERLAP>
76.165

> <PUBCHEM_SHAPE_FINGERPRINT>
10165383 225 15430613756934426083
10366900 7 16559038189766484553
10447042 23 9799400089005833329
10764073 3 17841109417457822032
11578080 2 17916570072492238616
116883 192 18269845211843903756
12173636 292 18265891548551364759
12500047 106 18340769363458581023
12788726 201 17846229812506234561
13464514 151 18189057667248808808
13583140 156 17131255978232646706
14251764 38 17832140902378481236
14790565 3 18338522924308309541
15099037 51 18337955584618132903
15196674 1 18409168822519024727
1601671 61 18116431449404889591
16752209 62 18268148660743671057
17349148 13 12463577295885384725
18186145 218 17240201058080406154
18335252 114 18267294345342912349
20511986 3 18200863050586901450
21285901 2 18124602972356582118
21307412 95 17914355505950938134
21421861 104 17749937891808019856
22393880 68 18129107899529682460
23402655 69 18409449210647723341
23559900 14 18131349713607629802
335352 9 18338237055141666510
34934 24 18334859458769378668
5104073 3 18041277746397591985
543358 83 18408324397657587908
633830 44 18114177540709910843
7164475 11 18127115601798627703
74978 22 18268430303165947347
7832392 63 18334859471311239812

> <PUBCHEM_SHAPE_MULTIPOLES>
429.93
10.84
3.09
1.2
8.52
0.38
0.24
-5.29
-2.47
0.09
-0.56
-0.56
-0.01
-0.31

> <PUBCHEM_SHAPE_SELFOVERLAP>
858.578

> <PUBCHEM_SHAPE_VOLUME>
250.7

> <PUBCHEM_COORDINATE_TYPE>
2
5
10

$$$$
