13018200
  -OEChem-03292013303D

 34 35  0     1  0  0  0  0  0999 V2000
    2.5636   -0.4769   -1.2347 S   0  0  0  0  0  0  0  0  0  0  0  0
   -4.7885   -0.1366    0.0510 O   0  0  0  0  0  0  0  0  0  0  0  0
   -2.4227    1.9165   -0.3954 O   0  0  0  0  0  0  0  0  0  0  0  0
    0.4340    2.6649    1.1802 O   0  0  0  0  0  0  0  0  0  0  0  0
    1.6863    2.5488   -0.7299 O   0  0  0  0  0  0  0  0  0  0  0  0
   -0.8406    0.3948    0.4718 N   0  0  0  0  0  0  0  0  0  0  0  0
    5.8159   -1.3914    1.0041 N   0  0  0  0  0  0  0  0  0  0  0  0
   -1.1116   -1.0521    0.3240 C   0  0  1  0  0  0  0  0  0  0  0  0
   -2.4702   -0.6377   -0.3035 C   0  0  2  0  0  0  0  0  0  0  0  0
    0.0808   -1.5817   -0.4803 C   0  0  0  0  0  0  0  0  0  0  0  0
   -2.0067    0.8208   -0.0924 C   0  0  0  0  0  0  0  0  0  0  0  0
   -3.7295   -1.0110    0.4413 C   0  0  2  0  0  0  0  0  0  0  0  0
    0.4127    0.6836    0.0111 C   0  0  0  0  0  0  0  0  0  0  0  0
    1.0063   -0.3920   -0.5210 C   0  0  0  0  0  0  0  0  0  0  0  0
   -4.1376   -2.4503    0.1485 C   0  0  0  0  0  0  0  0  0  0  0  0
    0.9260    2.0477    0.0834 C   0  0  0  0  0  0  0  0  0  0  0  0
    3.5598   -0.8879    0.2171 C   0  0  0  0  0  0  0  0  0  0  0  0
    5.0219   -1.0596   -0.1751 C   0  0  0  0  0  0  0  0  0  0  0  0
   -1.1953   -1.5330    1.3079 H   0  0  0  0  0  0  0  0  0  0  0  0
   -2.5415   -0.8698   -1.3756 H   0  0  0  0  0  0  0  0  0  0  0  0
   -0.2182   -1.8904   -1.4874 H   0  0  0  0  0  0  0  0  0  0  0  0
    0.5472   -2.4289    0.0337 H   0  0  0  0  0  0  0  0  0  0  0  0
   -3.5919   -0.8837    1.5214 H   0  0  0  0  0  0  0  0  0  0  0  0
   -3.3491   -3.1531    0.4346 H   0  0  0  0  0  0  0  0  0  0  0  0
   -5.0535   -2.7092    0.6901 H   0  0  0  0  0  0  0  0  0  0  0  0
   -4.3499   -2.5868   -0.9178 H   0  0  0  0  0  0  0  0  0  0  0  0
   -5.5816   -0.3956    0.5506 H   0  0  0  0  0  0  0  0  0  0  0  0
    3.4559   -0.0873    0.9584 H   0  0  0  0  0  0  0  0  0  0  0  0
    3.1753   -1.8125    0.6628 H   0  0  0  0  0  0  0  0  0  0  0  0
    5.1390   -1.8617   -0.9124 H   0  0  0  0  0  0  0  0  0  0  0  0
    5.4202   -0.1394   -0.6171 H   0  0  0  0  0  0  0  0  0  0  0  0
    0.7592    3.5869    1.2608 H   0  0  0  0  0  0  0  0  0  0  0  0
    5.4529   -2.2420    1.4332 H   0  0  0  0  0  0  0  0  0  0  0  0
    5.7115   -0.6582    1.7047 H   0  0  0  0  0  0  0  0  0  0  0  0
  1 14  1  0  0  0  0
  1 17  1  0  0  0  0
  2 12  1  0  0  0  0
  2 27  1  0  0  0  0
  3 11  2  0  0  0  0
  4 16  1  0  0  0  0
  4 32  1  0  0  0  0
  5 16  2  0  0  0  0
  6  8  1  0  0  0  0
  6 11  1  0  0  0  0
  6 13  1  0  0  0  0
  7 18  1  0  0  0  0
  7 33  1  0  0  0  0
  7 34  1  0  0  0  0
  8  9  1  0  0  0  0
  8 10  1  0  0  0  0
  8 19  1  0  0  0  0
  9 11  1  0  0  0  0
  9 12  1  0  0  0  0
  9 20  1  0  0  0  0
 10 14  1  0  0  0  0
 10 21  1  0  0  0  0
 10 22  1  0  0  0  0
 12 15  1  0  0  0  0
 12 23  1  0  0  0  0
 13 14  2  0  0  0  0
 13 16  1  0  0  0  0
 15 24  1  0  0  0  0
 15 25  1  0  0  0  0
 15 26  1  0  0  0  0
 17 18  1  0  0  0  0
 17 28  1  0  0  0  0
 17 29  1  0  0  0  0
 18 30  1  0  0  0  0
 18 31  1  0  0  0  0
M  END
> <PUBCHEM_COMPOUND_CID>
13018200

> <PUBCHEM_CONFORMER_RMSD>
0.8

> <PUBCHEM_CONFORMER_DIVERSEORDER>
1
14
10
20
7
8
21
11
13
3
18
5
6
9
12
2
22
17
19
16
15
4

> <PUBCHEM_MMFF94_PARTIAL_CHARGES>
21
1 -0.33
10 0.14
11 0.58
12 0.28
13 0.12
14 -0.04
16 0.71
17 0.23
18 0.27
2 -0.68
27 0.4
3 -0.57
32 0.5
33 0.36
34 0.36
4 -0.65
5 -0.57
6 -0.39
7 -0.99
8 0.22
9 0.05

> <PUBCHEM_EFFECTIVE_ROTOR_COUNT>
5.4

> <PUBCHEM_PHARMACOPHORE_FEATURES>
9
1 2 acceptor
1 2 donor
1 3 acceptor
1 4 acceptor
1 5 acceptor
1 7 cation
1 7 donor
3 4 5 16 anion
7 6 8 9 10 11 13 14 rings

> <PUBCHEM_HEAVY_ATOM_COUNT>
18

> <PUBCHEM_ATOM_DEF_STEREO_COUNT>
3

> <PUBCHEM_ATOM_UDEF_STEREO_COUNT>
0

> <PUBCHEM_BOND_DEF_STEREO_COUNT>
0

> <PUBCHEM_BOND_UDEF_STEREO_COUNT>
0

> <PUBCHEM_ISOTOPIC_ATOM_COUNT>
0

> <PUBCHEM_COMPONENT_COUNT>
1

> <PUBCHEM_CACTVS_TAUTO_COUNT>
1

> <PUBCHEM_CONFORMER_ID>
00C6A45800000001

> <PUBCHEM_MMFF94_ENERGY>
53.5872

> <PUBCHEM_FEATURE_SELFOVERLAP>
45.725

> <PUBCHEM_SHAPE_FINGERPRINT>
10062212 137 18335421231532378838
10465860 250 18410009914591529626
12236239 1 17822013082305983302
12293681 25 17101445074346692035
12403259 226 18338512066514291165
13140716 1 18342182154459983873
13214271 11 18200588095164746694
13862211 1 18411697694641518262
14178342 30 18057903358531181419
16945 1 18410580561295085583
17804303 29 18409733984327979327
18186145 218 17895467146342215471
200 152 17675928694020547586
20645477 70 18270966872855973831
21029758 11 18342176661053834985
21029758 27 18408889546444211470
21041028 32 18201443579572836457
21267235 1 18409739443532346270
21501502 16 18339656636633504413
221490 88 18264779933331234427
2297311 6 18272099245520962174
23366157 5 18044376269249715828
23402539 116 18343294847231459102
23419403 2 18268403837999995420
23532345 42 18272655628063069558
23557571 272 18129675080020602574
23559900 14 18261389013389704352
23622692 118 17986942141438956223
2748010 2 18122634022389195959
296302 2 11240009944664750839
3286 77 18335140937808721119
335352 9 18410012126831951399
5104073 3 18198919183023076523
5493415 88 18411701001818440493
59554788 191 18408885118211753276
7364860 26 18127695035446010752
76465 3 18337107968448418999
81228 2 17981913868363560480

> <PUBCHEM_SHAPE_MULTIPOLES>
340.84
8.99
2.55
0.9
5.25
1.45
-0.03
-6.56
1.56
-0.25
0.25
0.6
0.05
-0.14

> <PUBCHEM_SHAPE_SELFOVERLAP>
697.656

> <PUBCHEM_SHAPE_VOLUME>
200.4

> <PUBCHEM_COORDINATE_TYPE>
2
5
10

$$$$
