130190
  -OEChem-03292013323D

 30 33  0     0  0  0  0  0  0999 V2000
   -0.4261    2.1192   -1.4109 S   0  0  0  0  0  0  0  0  0  0  0  0
    0.8099    2.5636    0.1795 S   0  0  0  0  0  0  0  0  0  0  0  0
   -1.3917   -1.0054   -1.9728 N   0  0  0  0  0  0  0  0  0  0  0  0
    0.7306   -0.4136    1.6430 N   0  0  0  0  0  0  0  0  0  0  0  0
   -2.9937   -2.1735   -0.9540 N   0  0  0  0  0  0  0  0  0  0  0  0
    2.2233   -2.0648    1.5245 N   0  0  0  0  0  0  0  0  0  0  0  0
   -3.6872   -0.4223    0.5829 N   0  0  0  0  0  0  0  0  0  0  0  0
    3.7821   -0.9316    0.0427 N   0  0  0  0  0  0  0  0  0  0  0  0
   -2.4287    1.6543    0.3458 N   0  0  0  0  0  0  0  0  0  0  0  0
    3.0783    1.3144   -0.5993 N   0  0  0  0  0  0  0  0  0  0  0  0
   -4.1384    1.4356    1.9312 N   0  0  0  0  0  0  0  0  0  0  0  0
    5.0867    0.3942   -1.3764 N   0  0  0  0  0  0  0  0  0  0  0  0
   -1.9248   -0.1655   -1.0370 C   0  0  0  0  0  0  0  0  0  0  0  0
    1.7242    0.0429    0.8245 C   0  0  0  0  0  0  0  0  0  0  0  0
   -2.9171   -0.9134   -0.4177 C   0  0  0  0  0  0  0  0  0  0  0  0
    2.6389   -0.9999    0.7666 C   0  0  0  0  0  0  0  0  0  0  0  0
   -1.6760    1.1369   -0.6509 C   0  0  0  0  0  0  0  0  0  0  0  0
    1.9595    1.2007    0.1319 C   0  0  0  0  0  0  0  0  0  0  0  0
   -2.0641   -2.1957   -1.8853 C   0  0  0  0  0  0  0  0  0  0  0  0
    1.0739   -1.6799    2.0371 C   0  0  0  0  0  0  0  0  0  0  0  0
   -3.3746    0.8543    0.8934 C   0  0  0  0  0  0  0  0  0  0  0  0
    3.9148    0.2493   -0.5990 C   0  0  0  0  0  0  0  0  0  0  0  0
   -0.6383   -0.7915   -2.6127 H   0  0  0  0  0  0  0  0  0  0  0  0
   -0.1061    0.0880    1.9101 H   0  0  0  0  0  0  0  0  0  0  0  0
   -1.8271   -3.0331   -2.5259 H   0  0  0  0  0  0  0  0  0  0  0  0
    0.4442   -2.2631    2.6937 H   0  0  0  0  0  0  0  0  0  0  0  0
   -4.8602    0.8904    2.3818 H   0  0  0  0  0  0  0  0  0  0  0  0
   -3.9520    2.3888    2.2108 H   0  0  0  0  0  0  0  0  0  0  0  0
    5.7518   -0.3655   -1.4182 H   0  0  0  0  0  0  0  0  0  0  0  0
    5.2441    1.2553   -1.8815 H   0  0  0  0  0  0  0  0  0  0  0  0
  1  2  1  0  0  0  0
  1 17  1  0  0  0  0
  2 18  1  0  0  0  0
  3 13  1  0  0  0  0
  3 19  1  0  0  0  0
  3 23  1  0  0  0  0
  4 14  1  0  0  0  0
  4 20  1  0  0  0  0
  4 24  1  0  0  0  0
  5 15  1  0  0  0  0
  5 19  2  0  0  0  0
  6 16  1  0  0  0  0
  6 20  2  0  0  0  0
  7 15  1  0  0  0  0
  7 21  2  0  0  0  0
  8 16  1  0  0  0  0
  8 22  2  0  0  0  0
  9 17  2  0  0  0  0
  9 21  1  0  0  0  0
 10 18  2  0  0  0  0
 10 22  1  0  0  0  0
 11 21  1  0  0  0  0
 11 27  1  0  0  0  0
 11 28  1  0  0  0  0
 12 22  1  0  0  0  0
 12 29  1  0  0  0  0
 12 30  1  0  0  0  0
 13 15  2  0  0  0  0
 13 17  1  0  0  0  0
 14 16  2  0  0  0  0
 14 18  1  0  0  0  0
 19 25  1  0  0  0  0
 20 26  1  0  0  0  0
M  END
> <PUBCHEM_COMPOUND_CID>
130190

> <PUBCHEM_CONFORMER_RMSD>
0.6

> <PUBCHEM_CONFORMER_DIVERSEORDER>
1
78
110
56
109
95
23
130
27
68
37
41
90
70
131
15
34
51
73
9
71
117
79
72
134
92
2
103
80
125
128
104
88
26
76
77
124
63
118
4
91
35
137
105
21
47
120
16
132
62
17
14
94
135
36
38
57
108
86
30
116
52
85
133
31
25
13
138
115
136
12
96
44
89
75
61
114
60
111
59
112
74
24
10
66
81
11
45
82
113
121
84
58
40
67
87
106
55
83
98
29
102
127
123
97
33
8
53
46
49
69
28
50
93
122
54
119
99
100
48
107
18
20
32
5
39
101
43
42
3
22
129
126
19
6
64
7
65

> <PUBCHEM_MMFF94_PARTIAL_CHARGES>
30
1 -0.1
10 -0.62
11 -0.9
12 -0.9
13 -0.15
14 -0.15
15 0.48
16 0.48
17 0.41
18 0.41
19 0.04
2 -0.1
20 0.04
21 0.72
22 0.72
23 0.27
24 0.27
25 0.15
26 0.15
27 0.4
28 0.4
29 0.4
3 0.03
30 0.4
4 0.03
5 -0.57
6 -0.57
7 -0.57
8 -0.57
9 -0.62

> <PUBCHEM_EFFECTIVE_ROTOR_COUNT>
3

> <PUBCHEM_PHARMACOPHORE_FEATURES>
14
1 10 acceptor
1 11 donor
1 12 donor
1 3 donor
1 4 donor
1 9 acceptor
3 3 5 19 cation
3 4 6 20 cation
4 7 9 11 21 cation
4 8 10 12 22 cation
5 3 5 13 15 19 rings
5 4 6 14 16 20 rings
6 7 9 13 15 17 21 rings
6 8 10 14 16 18 22 rings

> <PUBCHEM_HEAVY_ATOM_COUNT>
22

> <PUBCHEM_ATOM_DEF_STEREO_COUNT>
0

> <PUBCHEM_ATOM_UDEF_STEREO_COUNT>
0

> <PUBCHEM_BOND_DEF_STEREO_COUNT>
0

> <PUBCHEM_BOND_UDEF_STEREO_COUNT>
0

> <PUBCHEM_ISOTOPIC_ATOM_COUNT>
0

> <PUBCHEM_COMPONENT_COUNT>
1

> <PUBCHEM_CACTVS_TAUTO_COUNT>
45

> <PUBCHEM_CONFORMER_ID>
0001FC8E00000001

> <PUBCHEM_MMFF94_ENERGY>
36.2621

> <PUBCHEM_FEATURE_SELFOVERLAP>
71.312

> <PUBCHEM_SHAPE_FINGERPRINT>
11578080 2 18052499358050811529
12553582 1 18334847338012836813
12596599 1 18341885346317579238
13224815 77 17458335338746562744
13583140 156 18113907087341961761
15209289 33 18261961837742250400
15375462 189 18334575707270077752
15537594 2 18335148574402965324
16752209 62 17987214725848499615
17349148 13 17822281346258242912
17357779 13 16809272919002407483
18522851 12 18410005516275850254
20291156 8 18339917224862267669
21634736 98 18338514261290130332
21731516 1 18336807745770214525
23402539 116 18114178627953678860
23419403 2 14565674241957638813
23503958 8 17774440602347301327
23598288 3 18191014599876627109
238 59 17170085244220874591
2818148 4 18409443661492110426
469060 322 15431166974761331003
5161694 15 15841548565604560195
6287921 2 17699557349526048280
90525 40 18268984293986231749

> <PUBCHEM_SHAPE_MULTIPOLES>
410.64
7.59
2.57
1.91
2.75
0.2
0.05
-0.47
-0.33
-0.4
-0.1
-0.84
-0.66
-2.05

> <PUBCHEM_SHAPE_SELFOVERLAP>
895.433

> <PUBCHEM_SHAPE_VOLUME>
226.8

> <PUBCHEM_COORDINATE_TYPE>
2
5
10

$$$$
