130245
  -OEChem-03292013323D

 32 34  0     1  0  0  0  0  0999 V2000
   -4.8089   -1.5237    0.1320 O   0  0  0  0  0  0  0  0  0  0  0  0
    0.1919    1.4366    0.0141 N   0  0  0  0  0  0  0  0  0  0  0  0
    2.3465    1.9839    0.1908 N   0  0  0  0  0  0  0  0  0  0  0  0
    0.3880   -0.9798   -0.1403 N   0  0  0  0  0  0  0  0  0  0  0  0
    2.7210   -1.6887   -0.0382 N   0  0  0  0  0  0  0  0  0  0  0  0
    4.5274   -0.1353    0.1871 N   0  0  0  0  0  0  0  0  0  0  0  0
    0.9801   -3.2406   -0.2562 N   0  0  0  0  0  0  0  0  0  0  0  0
   -1.2600    1.6018   -0.0694 C   0  0  2  0  0  0  0  0  0  0  0  0
   -2.0298    0.8536    1.0337 C   0  0  0  0  0  0  0  0  0  0  0  0
   -3.3099    0.3216    0.3671 C   0  0  1  0  0  0  0  0  0  0  0  0
   -1.8580    1.0611   -1.3315 C   0  0  0  0  0  0  0  0  0  0  0  0
   -2.9702    0.3604   -1.0911 C   0  0  0  0  0  0  0  0  0  0  0  0
   -3.6748   -1.0738    0.8528 C   0  0  0  0  0  0  0  0  0  0  0  0
    0.8860    0.2602   -0.0222 C   0  0  0  0  0  0  0  0  0  0  0  0
    1.1134    2.4426    0.1423 C   0  0  0  0  0  0  0  0  0  0  0  0
    2.2192    0.6213    0.0891 C   0  0  0  0  0  0  0  0  0  0  0  0
    3.1530   -0.4099    0.0786 C   0  0  0  0  0  0  0  0  0  0  0  0
    1.3850   -1.8912   -0.1388 C   0  0  0  0  0  0  0  0  0  0  0  0
   -1.4643    2.6784   -0.0110 H   0  0  0  0  0  0  0  0  0  0  0  0
   -2.2790    1.5332    1.8579 H   0  0  0  0  0  0  0  0  0  0  0  0
   -1.4461    0.0405    1.4810 H   0  0  0  0  0  0  0  0  0  0  0  0
   -4.1520    1.0043    0.5374 H   0  0  0  0  0  0  0  0  0  0  0  0
   -1.4607    1.2454   -2.3198 H   0  0  0  0  0  0  0  0  0  0  0  0
   -3.5778   -0.0810   -1.8687 H   0  0  0  0  0  0  0  0  0  0  0  0
   -3.9183   -1.0591    1.9202 H   0  0  0  0  0  0  0  0  0  0  0  0
   -2.8578   -1.7854    0.6885 H   0  0  0  0  0  0  0  0  0  0  0  0
    0.8301    3.4850    0.1955 H   0  0  0  0  0  0  0  0  0  0  0  0
   -5.0247   -2.4121    0.4631 H   0  0  0  0  0  0  0  0  0  0  0  0
    5.1862   -0.9020    0.1763 H   0  0  0  0  0  0  0  0  0  0  0  0
    4.8525    0.8181    0.2735 H   0  0  0  0  0  0  0  0  0  0  0  0
    1.6790   -3.9704   -0.2601 H   0  0  0  0  0  0  0  0  0  0  0  0
   -0.0038   -3.4585   -0.3333 H   0  0  0  0  0  0  0  0  0  0  0  0
  1 13  1  0  0  0  0
  1 28  1  0  0  0  0
  2  8  1  0  0  0  0
  2 14  1  0  0  0  0
  2 15  1  0  0  0  0
  3 15  2  0  0  0  0
  3 16  1  0  0  0  0
  4 14  2  0  0  0  0
  4 18  1  0  0  0  0
  5 17  1  0  0  0  0
  5 18  2  0  0  0  0
  6 17  1  0  0  0  0
  6 29  1  0  0  0  0
  6 30  1  0  0  0  0
  7 18  1  0  0  0  0
  7 31  1  0  0  0  0
  7 32  1  0  0  0  0
  8  9  1  0  0  0  0
  8 11  1  0  0  0  0
  8 19  1  0  0  0  0
  9 10  1  0  0  0  0
  9 20  1  0  0  0  0
  9 21  1  0  0  0  0
 10 12  1  0  0  0  0
 10 13  1  0  0  0  0
 10 22  1  0  0  0  0
 11 12  2  0  0  0  0
 11 23  1  0  0  0  0
 12 24  1  0  0  0  0
 13 25  1  0  0  0  0
 13 26  1  0  0  0  0
 14 16  1  0  0  0  0
 15 27  1  0  0  0  0
 16 17  2  0  0  0  0
M  END
> <PUBCHEM_COMPOUND_CID>
130245

> <PUBCHEM_CONFORMER_RMSD>
0.6

> <PUBCHEM_CONFORMER_DIVERSEORDER>
1
8
9
4
3
6
7
2
5
10
11

> <PUBCHEM_MMFF94_PARTIAL_CHARGES>
25
1 -0.68
10 0.14
11 -0.29
12 -0.29
13 0.28
14 0.11
15 0.04
16 0.23
17 0.41
18 0.72
2 0.05
23 0.15
24 0.15
27 0.15
28 0.4
29 0.4
3 -0.57
30 0.4
31 0.4
32 0.4
4 -0.57
5 -0.62
6 -0.9
7 -0.9
8 0.39

> <PUBCHEM_EFFECTIVE_ROTOR_COUNT>
2.6

> <PUBCHEM_PHARMACOPHORE_FEATURES>
10
1 1 acceptor
1 1 donor
1 6 cation
1 6 donor
1 7 donor
3 2 3 15 cation
4 4 5 7 18 cation
5 2 3 14 15 16 rings
5 8 9 10 11 12 rings
6 4 5 14 16 17 18 rings

> <PUBCHEM_HEAVY_ATOM_COUNT>
18

> <PUBCHEM_ATOM_DEF_STEREO_COUNT>
2

> <PUBCHEM_ATOM_UDEF_STEREO_COUNT>
0

> <PUBCHEM_BOND_DEF_STEREO_COUNT>
0

> <PUBCHEM_BOND_UDEF_STEREO_COUNT>
0

> <PUBCHEM_ISOTOPIC_ATOM_COUNT>
0

> <PUBCHEM_COMPONENT_COUNT>
1

> <PUBCHEM_CACTVS_TAUTO_COUNT>
9

> <PUBCHEM_CONFORMER_ID>
0001FCC500000001

> <PUBCHEM_MMFF94_ENERGY>
40.3412

> <PUBCHEM_FEATURE_SELFOVERLAP>
50.88

> <PUBCHEM_SHAPE_FINGERPRINT>
10967382 1 18339080522293740234
11578080 2 13047884274791401286
11806522 49 18410013238658742488
12032990 46 18339646642312795180
12553582 1 17547575872733580887
13140716 1 18196367237450467242
13583140 156 16880437572338942648
14178342 30 18268989778517297848
14251705 54 18338519633998850775
14251717 144 18411420652397578475
14252887 29 17775291534442796636
15375462 189 17917709140984685297
16945 1 18340200800299674796
19107657 46 18410013204357136807
193761 8 17907011030533336980
19591789 44 18411983529626939950
200 152 18201429286316878941
20028762 73 18058728146950815351
20201158 50 18334857173730362401
20645477 70 18335413617262004391
22112679 90 16844997026846528677
221490 88 18408608045618744442
22445834 79 18201441342015921489
22721475 48 18261402121904276345
2334 1 18123464153356677100
23402539 116 16370722604210329021
23557571 272 17458338637751172333
23559900 14 18046336436705215658
2748010 2 18265616661779945352
2871803 45 18260260872037700739
3286 77 18409450327492220409
33824 294 18337672043862171835
46194498 28 17101690240497875503
474229 33 18410009940667379474
77492 1 17489583472140688605
81228 2 17045128698609199016
8809292 202 18186525422928693947
9709674 26 18266172825700681719

> <PUBCHEM_SHAPE_MULTIPOLES>
334.68
6.97
2.61
0.89
2.43
1.01
-0.11
2.35
0.71
-0.98
-0.06
0.73
-0.14
0.52

> <PUBCHEM_SHAPE_SELFOVERLAP>
731.299

> <PUBCHEM_SHAPE_VOLUME>
180.9

> <PUBCHEM_COORDINATE_TYPE>
2
5
10

$$$$
