130242
  -OEChem-03292013323D

 37 37  0     1  0  0  0  0  0999 V2000
   -3.2929    0.3290    0.7164 S   0  0  0  0  0  0  0  0  0  0  0  0
   -0.2243   -1.0093    1.4289 O   0  0  0  0  0  0  0  0  0  0  0  0
   -5.0444    0.6355   -1.2418 O   0  0  0  0  0  0  0  0  0  0  0  0
    2.5276   -2.2510   -0.4814 O   0  0  0  0  0  0  0  0  0  0  0  0
    2.3831   -4.4374    0.1068 O   0  0  0  0  0  0  0  0  0  0  0  0
   -0.0500   -1.8930   -0.7078 N   0  0  0  0  0  0  0  0  0  0  0  0
   -0.7140    0.4342   -0.4633 C   0  0  2  0  0  0  0  0  0  0  0  0
   -0.1959    1.6391    0.3530 C   0  0  0  0  0  0  0  0  0  0  0  0
   -2.2280    0.4604   -0.7556 C   0  0  0  0  0  0  0  0  0  0  0  0
    1.2856    1.8877    0.2077 C   0  0  0  0  0  0  0  0  0  0  0  0
   -0.3056   -0.8834    0.2086 C   0  0  0  0  0  0  0  0  0  0  0  0
    2.1673    1.2707    1.0815 C   0  0  0  0  0  0  0  0  0  0  0  0
    1.7387    2.7283   -0.7971 C   0  0  0  0  0  0  0  0  0  0  0  0
    0.3467   -3.2252   -0.3150 C   0  0  0  0  0  0  0  0  0  0  0  0
    3.5365    1.5002    0.9472 C   0  0  0  0  0  0  0  0  0  0  0  0
    3.1080    2.9576   -0.9313 C   0  0  0  0  0  0  0  0  0  0  0  0
    4.0069    2.3435   -0.0591 C   0  0  0  0  0  0  0  0  0  0  0  0
   -4.8763    0.4838   -0.0379 C   0  0  0  0  0  0  0  0  0  0  0  0
    1.8413   -3.3840   -0.2048 C   0  0  0  0  0  0  0  0  0  0  0  0
   -6.0102    0.4134    0.9452 C   0  0  0  0  0  0  0  0  0  0  0  0
   -0.2170    0.4701   -1.4439 H   0  0  0  0  0  0  0  0  0  0  0  0
   -0.4405    1.5331    1.4180 H   0  0  0  0  0  0  0  0  0  0  0  0
   -0.7256    2.5461    0.0306 H   0  0  0  0  0  0  0  0  0  0  0  0
   -2.4810   -0.3725   -1.4216 H   0  0  0  0  0  0  0  0  0  0  0  0
   -2.4721    1.3901   -1.2817 H   0  0  0  0  0  0  0  0  0  0  0  0
   -0.1323   -1.6990   -1.7014 H   0  0  0  0  0  0  0  0  0  0  0  0
    1.8167    0.6203    1.8766 H   0  0  0  0  0  0  0  0  0  0  0  0
    1.0470    3.2090   -1.4830 H   0  0  0  0  0  0  0  0  0  0  0  0
   -0.0218   -3.9118   -1.0822 H   0  0  0  0  0  0  0  0  0  0  0  0
   -0.1019   -3.4649    0.6536 H   0  0  0  0  0  0  0  0  0  0  0  0
    4.2363    1.0237    1.6275 H   0  0  0  0  0  0  0  0  0  0  0  0
    3.4745    3.6138   -1.7154 H   0  0  0  0  0  0  0  0  0  0  0  0
    5.0731    2.5223   -0.1636 H   0  0  0  0  0  0  0  0  0  0  0  0
   -5.9366    1.2300    1.6688 H   0  0  0  0  0  0  0  0  0  0  0  0
   -6.0070   -0.5513    1.4602 H   0  0  0  0  0  0  0  0  0  0  0  0
   -6.9588    0.5135    0.4092 H   0  0  0  0  0  0  0  0  0  0  0  0
    3.4968   -2.3788   -0.4004 H   0  0  0  0  0  0  0  0  0  0  0  0
  1  9  1  0  0  0  0
  1 18  1  0  0  0  0
  2 11  2  0  0  0  0
  3 18  2  0  0  0  0
  4 19  1  0  0  0  0
  4 37  1  0  0  0  0
  5 19  2  0  0  0  0
  6 11  1  0  0  0  0
  6 14  1  0  0  0  0
  6 26  1  0  0  0  0
  7  8  1  0  0  0  0
  7  9  1  0  0  0  0
  7 11  1  0  0  0  0
  7 21  1  0  0  0  0
  8 10  1  0  0  0  0
  8 22  1  0  0  0  0
  8 23  1  0  0  0  0
  9 24  1  0  0  0  0
  9 25  1  0  0  0  0
 10 12  2  0  0  0  0
 10 13  1  0  0  0  0
 12 15  1  0  0  0  0
 12 27  1  0  0  0  0
 13 16  2  0  0  0  0
 13 28  1  0  0  0  0
 14 19  1  0  0  0  0
 14 29  1  0  0  0  0
 14 30  1  0  0  0  0
 15 17  2  0  0  0  0
 15 31  1  0  0  0  0
 16 17  1  0  0  0  0
 16 32  1  0  0  0  0
 17 33  1  0  0  0  0
 18 20  1  0  0  0  0
 20 34  1  0  0  0  0
 20 35  1  0  0  0  0
 20 36  1  0  0  0  0
M  END
> <PUBCHEM_COMPOUND_CID>
130242

> <PUBCHEM_CONFORMER_RMSD>
0.8

> <PUBCHEM_CONFORMER_DIVERSEORDER>
3
33
332
348
324
330
300
158
95
75
215
299
356
92
212
265
120
70
57
335
102
82
222
351
291
5
350
353
96
272
116
117
14
30
254
194
27
175
229
317
214
313
228
36
289
190
42
139
213
264
288
21
103
99
72
218
111
255
159
206
178
225
316
90
306
91
240
185
310
121
32
64
312
126
10
81
123
182
189
13
97
56
326
248
113
173
355
145
336
16
86
226
275
192
305
166
52
131
286
235
47
114
282
349
323
205
24
352
109
53
66
74
37
354
141
100
277
267
186
65
98
244
302
342
273
245
15
261
160
183
219
168
269
337
41
241
230
202
187
195
287
176
125
237
200
20
152
156
278
76
331
112
38
321
134
54
341
184
274
308
210
85
297
338
26
87
164
161
7
143
22
31
132
67
127
315
260
234
231
339
128
256
239
204
311
329
163
223
221
45
144
80
180
88
133
29
104
268
58
108
78
188
146
34
270
284
208
59
51
49
179
155
170
198
165
266
257
77
301
318
290
94
142
89
304
153
130
333
12
162
48
83
340
196
327
236
224
181
17
293
39
303
137
325
345
25
296
8
149
343
9
232
252
253
2
216
250
276
4
201
154
79
135
11
105
147
122
280
285
314
110
191
193
319
203
151
197
124
6
115
322
60
169
61
177
136
258
251
174
107
35
307
283
346
263
271
292
238
199
207
84
320
281
171
209
55
217
249
119
295
294
172
138
43
334
247
71
150
233
40
211
28
93
101
157
220
73
279
227
129
298
118
63
106
328
309
246
242
140
19
259
148
69
50
167
18
68
46
344
347
262
62
44
243
1
23

> <PUBCHEM_MMFF94_PARTIAL_CHARGES>
27
1 -0.37
10 -0.14
11 0.57
12 -0.15
13 -0.15
14 0.36
15 -0.15
16 -0.15
17 -0.15
18 0.65
19 0.66
2 -0.57
20 0.06
26 0.37
27 0.15
28 0.15
3 -0.57
31 0.15
32 0.15
33 0.15
37 0.5
4 -0.65
5 -0.57
6 -0.73
7 0.06
8 0.14
9 0.23

> <PUBCHEM_EFFECTIVE_ROTOR_COUNT>
9

> <PUBCHEM_PHARMACOPHORE_FEATURES>
7
1 2 acceptor
1 4 acceptor
1 5 acceptor
1 6 donor
3 4 5 19 anion
4 1 7 8 9 hydrophobe
6 10 12 13 15 16 17 rings

> <PUBCHEM_HEAVY_ATOM_COUNT>
20

> <PUBCHEM_ATOM_DEF_STEREO_COUNT>
0

> <PUBCHEM_ATOM_UDEF_STEREO_COUNT>
1

> <PUBCHEM_BOND_DEF_STEREO_COUNT>
0

> <PUBCHEM_BOND_UDEF_STEREO_COUNT>
0

> <PUBCHEM_ISOTOPIC_ATOM_COUNT>
0

> <PUBCHEM_COMPONENT_COUNT>
1

> <PUBCHEM_CACTVS_TAUTO_COUNT>
2

> <PUBCHEM_CONFORMER_ID>
0001FCC200000003

> <PUBCHEM_MMFF94_ENERGY>
38.9429

> <PUBCHEM_FEATURE_SELFOVERLAP>
35.579

> <PUBCHEM_SHAPE_FINGERPRINT>
10411042 1 17906454324898634695
107951 10 18124332737688911508
11045515 52 17760091717933153798
12592029 89 18412266150869016081
12895836 83 17899716831555986564
133893 2 18196674933049435425
13955234 65 18411142411641972907
15502722 9 18411138013674504781
16752209 62 17909538802821864706
167882 2 18409732854725050806
1813 80 17770788914052632783
18785283 64 18335421253007247811
18915476 22 18335969888467577381
200 152 11239459101865914977
20028762 73 17696476556932353527
20101258 96 17834684790158639779
20600515 1 17121427138981342537
20645477 70 18334573534201170817
23419403 2 17754497574527452475
23598288 3 17538850582726879704
3187 122 17687157822192687610
3421961 26 18267023864891193715
42630746 31 18342458140642050093
458136 41 18410858789207968117
465052 167 17821726152098418993
474 4 18411138069430153101
532947 4 18411987944562949190
5385378 56 18340778082738265897
59755656 215 18410857638025293013
633830 44 17845653793410488045
7364860 26 18341048523859414747
81228 2 17109015263374380065
81539 233 18408601483114327529
8272917 22 18411140225419365649

> <PUBCHEM_SHAPE_MULTIPOLES>
386.98
8.93
4.65
1.09
13.98
6.79
0.09
-6.51
0.61
-6.32
-0.79
0.21
-0.31
-0.1

> <PUBCHEM_SHAPE_SELFOVERLAP>
770.295

> <PUBCHEM_SHAPE_VOLUME>
228.5

> <PUBCHEM_COORDINATE_TYPE>
2
5
10

$$$$
