130210
  -OEChem-03292013323D

 41 42  0     1  0  0  0  0  0999 V2000
   -1.2581   -1.0046    1.3014 O   0  0  0  0  0  0  0  0  0  0  0  0
    0.7103    2.6319    1.3359 O   0  0  0  0  0  0  0  0  0  0  0  0
    5.1318   -1.3630   -1.4474 O   0  5  0  0  0  0  0  0  0  0  0  0
    5.0292   -1.2132    0.7446 O   0  0  0  0  0  0  0  0  0  0  0  0
    2.5780    0.0922    0.5774 N   0  0  0  0  0  0  0  0  0  0  0  0
    1.3909    0.6516   -1.2142 N   0  0  0  0  0  0  0  0  0  0  0  0
    4.5309   -0.9963   -0.3971 N   0  3  0  0  0  0  0  0  0  0  0  0
   -3.7735   -1.3129    0.0124 C   0  0  0  0  0  0  0  0  0  0  0  0
   -2.8867   -0.0708   -0.1757 C   0  0  0  0  0  0  0  0  0  0  0  0
   -1.6849    0.0002    0.4836 C   0  0  0  0  0  0  0  0  0  0  0  0
   -5.0635   -1.1614   -0.8225 C   0  0  0  0  0  0  0  0  0  0  0  0
   -4.1481   -1.4630    1.5028 C   0  0  0  0  0  0  0  0  0  0  0  0
   -3.1000   -2.6337   -0.4239 C   0  0  0  0  0  0  0  0  0  0  0  0
   -0.8943    1.1351    0.3017 C   0  0  0  0  0  0  0  0  0  0  0  0
    0.4224    1.2685    0.9935 C   0  0  1  0  0  0  0  0  0  0  0  0
   -3.3492    0.9213   -1.0060 C   0  0  0  0  0  0  0  0  0  0  0  0
    1.4641    0.6680    0.0786 C   0  0  0  0  0  0  0  0  0  0  0  0
   -1.3313    2.1629   -0.5339 C   0  0  0  0  0  0  0  0  0  0  0  0
   -2.5586    2.0560   -1.1877 C   0  0  0  0  0  0  0  0  0  0  0  0
    3.2989   -0.3412   -0.4993 C   0  0  0  0  0  0  0  0  0  0  0  0
    2.9458   -0.0424    1.9693 C   0  0  0  0  0  0  0  0  0  0  0  0
    2.5461    0.0149   -1.5935 C   0  0  0  0  0  0  0  0  0  0  0  0
   -5.7053   -2.0417   -0.6819 H   0  0  0  0  0  0  0  0  0  0  0  0
   -5.6737   -0.3059   -0.5080 H   0  0  0  0  0  0  0  0  0  0  0  0
   -4.8678   -1.1084   -1.9003 H   0  0  0  0  0  0  0  0  0  0  0  0
   -4.5622   -0.5288    1.9011 H   0  0  0  0  0  0  0  0  0  0  0  0
   -4.9150   -2.2369    1.6309 H   0  0  0  0  0  0  0  0  0  0  0  0
   -3.3120   -1.7540    2.1440 H   0  0  0  0  0  0  0  0  0  0  0  0
   -3.8002   -3.4749   -0.3582 H   0  0  0  0  0  0  0  0  0  0  0  0
   -2.7564   -2.5678   -1.4630 H   0  0  0  0  0  0  0  0  0  0  0  0
   -2.2324   -2.8979    0.1871 H   0  0  0  0  0  0  0  0  0  0  0  0
    0.3578    0.7519    1.9541 H   0  0  0  0  0  0  0  0  0  0  0  0
   -4.2830    0.9194   -1.5508 H   0  0  0  0  0  0  0  0  0  0  0  0
   -0.7300    3.0528   -0.6997 H   0  0  0  0  0  0  0  0  0  0  0  0
   -2.8965    2.8560   -1.8402 H   0  0  0  0  0  0  0  0  0  0  0  0
   -0.2886   -1.0288    1.3309 H   0  0  0  0  0  0  0  0  0  0  0  0
    3.9192    0.4302    2.1255 H   0  0  0  0  0  0  0  0  0  0  0  0
    2.2403    0.4654    2.6253 H   0  0  0  0  0  0  0  0  0  0  0  0
    2.9612   -1.1044    2.2273 H   0  0  0  0  0  0  0  0  0  0  0  0
    1.5698    2.6444    1.7906 H   0  0  0  0  0  0  0  0  0  0  0  0
    2.7714   -0.1511   -2.6375 H   0  0  0  0  0  0  0  0  0  0  0  0
  1 10  1  0  0  0  0
  1 36  1  0  0  0  0
  2 15  1  0  0  0  0
  2 40  1  0  0  0  0
  3  7  1  0  0  0  0
  4  7  2  0  0  0  0
  5 17  1  0  0  0  0
  5 20  1  0  0  0  0
  5 21  1  0  0  0  0
  6 17  2  0  0  0  0
  6 22  1  0  0  0  0
  7 20  1  0  0  0  0
  8  9  1  0  0  0  0
  8 11  1  0  0  0  0
  8 12  1  0  0  0  0
  8 13  1  0  0  0  0
  9 10  1  0  0  0  0
  9 16  2  0  0  0  0
 10 14  2  0  0  0  0
 11 23  1  0  0  0  0
 11 24  1  0  0  0  0
 11 25  1  0  0  0  0
 12 26  1  0  0  0  0
 12 27  1  0  0  0  0
 12 28  1  0  0  0  0
 13 29  1  0  0  0  0
 13 30  1  0  0  0  0
 13 31  1  0  0  0  0
 14 15  1  0  0  0  0
 14 18  1  0  0  0  0
 15 17  1  0  0  0  0
 15 32  1  0  0  0  0
 16 19  1  0  0  0  0
 16 33  1  0  0  0  0
 18 19  2  0  0  0  0
 18 34  1  0  0  0  0
 19 35  1  0  0  0  0
 20 22  2  0  0  0  0
 21 37  1  0  0  0  0
 21 38  1  0  0  0  0
 21 39  1  0  0  0  0
 22 41  1  0  0  0  0
M  CHG  2   3  -1   7   1
M  END
> <PUBCHEM_COMPOUND_CID>
130210

> <PUBCHEM_CONFORMER_RMSD>
0.6

> <PUBCHEM_CONFORMER_DIVERSEORDER>
2
9
33
29
15
8
13
31
22
32
26
17
20
18
28
21
19
36
10
3
5
37
11
16
7
12
23
35
6
24
30
25
14
4
1
27
34

> <PUBCHEM_MMFF94_PARTIAL_CHARGES>
25
1 -0.53
10 0.08
14 -0.14
15 0.6
16 -0.15
17 0.01
18 -0.15
19 -0.15
2 -0.68
20 -0.07
21 0.26
22 0.08
3 -0.52
33 0.15
34 0.15
35 0.15
36 0.45
4 -0.52
40 0.4
41 0.15
5 0.05
6 -0.57
7 0.96
8 0.14
9 -0.14

> <PUBCHEM_EFFECTIVE_ROTOR_COUNT>
4

> <PUBCHEM_PHARMACOPHORE_FEATURES>
10
1 1 donor
1 2 acceptor
1 2 donor
1 3 acceptor
1 3 anion
1 4 acceptor
3 5 6 17 cation
4 8 11 12 13 hydrophobe
5 5 6 17 20 22 rings
6 9 10 14 16 18 19 rings

> <PUBCHEM_HEAVY_ATOM_COUNT>
22

> <PUBCHEM_ATOM_DEF_STEREO_COUNT>
0

> <PUBCHEM_ATOM_UDEF_STEREO_COUNT>
1

> <PUBCHEM_BOND_DEF_STEREO_COUNT>
0

> <PUBCHEM_BOND_UDEF_STEREO_COUNT>
0

> <PUBCHEM_ISOTOPIC_ATOM_COUNT>
0

> <PUBCHEM_COMPONENT_COUNT>
1

> <PUBCHEM_CACTVS_TAUTO_COUNT>
3

> <PUBCHEM_CONFORMER_ID>
0001FCA200000002

> <PUBCHEM_MMFF94_ENERGY>
76.5538

> <PUBCHEM_FEATURE_SELFOVERLAP>
50.825

> <PUBCHEM_SHAPE_FINGERPRINT>
10062212 137 17968082102285720291
10498660 4 10737282459041418159
11046707 91 18409450284431465871
11582403 64 15967282058227092553
11796584 16 18267300929068626478
12251169 10 12391514195920773363
12363563 72 18272375282061318768
12403259 118 14045750317936092051
12553582 1 18260265295822400011
12596602 18 14045736036874453311
12633257 1 17917163796213233447
12707595 3 18343300391986550825
12714826 92 18408608050145761937
12730499 353 11674870053541488865
13296908 3 18201996633662878416
13544592 145 18340760529528537317
13544653 18 18273215330414611865
13994607 96 8790878571629567995
14251764 30 17387434521747708315
14341114 328 13182732667473776794
14386348 63 18131350795374944471
15209294 21 12535343480855850028
15422964 175 17632027372239937044
16752209 62 18186512194487366499
17870717 6 18337117756536091990
1813 80 16988576705472923016
18186145 218 13407079163183329688
19141452 34 18201720712938874055
193927 3 18410302410285607766
19784866 140 17530969111558995875
19862831 5 16370719361821152685
200 152 17675928698441693260
20281475 54 18271533095062453041
20374829 77 18409727378868679783
20403669 9 18342738528923846631
20645477 70 18197768002716747527
20871999 31 18041001725934362052
231179 274 12107791804769089956
23402539 116 17822010882601973213
23557571 272 18412820266132842057
23559900 14 18335976540918673100
23598291 2 16879055352709090024
25 1 13984665819746669696
2838139 119 11602812544864882430
3082319 5 17385443210903647156
312423 11 18115323257342727741
3286 77 17988362680249064905
463206 1 18411699910939919795
474 4 11097849705495781847
559249 180 17969775289677980371
59755656 520 18050854316978045653
633830 44 14057557882606017084
76465 3 18342452694671212583
81228 2 17701264615932167456
9709674 26 18188489206345808216

> <PUBCHEM_SHAPE_MULTIPOLES>
414.33
9.83
2.3
1.56
4.93
0.41
0.24
-6.86
-1.93
-1.66
-0.06
0.79
-0.01
0.94

> <PUBCHEM_SHAPE_SELFOVERLAP>
889.89

> <PUBCHEM_SHAPE_VOLUME>
231.5

> <PUBCHEM_COORDINATE_TYPE>
2
5
10

$$$$
