130214
  -OEChem-03292013323D

 46 49  0     1  0  0  0  0  0999 V2000
    3.6504    0.8076   -0.6066 O   0  0  0  0  0  0  0  0  0  0  0  0
    3.0551   -2.4856    0.6644 O   0  0  0  0  0  0  0  0  0  0  0  0
    5.4018   -0.9516    1.9843 O   0  0  0  0  0  0  0  0  0  0  0  0
   -5.2156   -1.8159    0.1920 O   0  0  0  0  0  0  0  0  0  0  0  0
    5.9182    2.4634   -0.8032 O   0  0  0  0  0  0  0  0  0  0  0  0
    1.4039    0.1760   -0.2116 N   0  0  0  0  0  0  0  0  0  0  0  0
   -3.1662    0.8038   -0.1195 N   0  0  0  0  0  0  0  0  0  0  0  0
   -0.2601    1.5200    0.4166 N   0  0  0  0  0  0  0  0  0  0  0  0
    0.1263   -1.6197   -1.2334 N   0  0  0  0  0  0  0  0  0  0  0  0
   -2.2709   -1.1757   -1.1230 N   0  0  0  0  0  0  0  0  0  0  0  0
   -4.5433    0.4459   -0.3826 C   0  0  1  0  0  0  0  0  0  0  0  0
    2.7682   -0.3130   -0.4007 C   0  0  2  0  0  0  0  0  0  0  0  0
    3.3081   -1.0971    0.7901 C   0  0  2  0  0  0  0  0  0  0  0  0
    4.7877   -0.7848    0.7206 C   0  0  1  0  0  0  0  0  0  0  0  0
   -5.0479   -0.5069    0.7106 C   0  0  1  0  0  0  0  0  0  0  0  0
    4.7714    0.6714    0.2837 C   0  0  1  0  0  0  0  0  0  0  0  0
   -5.4379    1.6893   -0.3037 C   0  0  0  0  0  0  0  0  0  0  0  0
   -6.3805    0.0748    1.1682 C   0  0  0  0  0  0  0  0  0  0  0  0
   -6.1719    1.5712    1.0259 C   0  0  0  0  0  0  0  0  0  0  0  0
    6.0404    1.1003   -0.4308 C   0  0  0  0  0  0  0  0  0  0  0  0
    0.2503   -0.4429   -0.6012 C   0  0  0  0  0  0  0  0  0  0  0  0
   -2.0875    0.0155   -0.4804 C   0  0  0  0  0  0  0  0  0  0  0  0
   -0.7695    0.4066   -0.2030 C   0  0  0  0  0  0  0  0  0  0  0  0
    1.0455    1.3505    0.3953 C   0  0  0  0  0  0  0  0  0  0  0  0
   -1.1762   -1.9031   -1.4522 C   0  0  0  0  0  0  0  0  0  0  0  0
   -4.6310    0.0120   -1.3865 H   0  0  0  0  0  0  0  0  0  0  0  0
    2.7710   -0.9086   -1.3215 H   0  0  0  0  0  0  0  0  0  0  0  0
    2.8839   -0.7614    1.7445 H   0  0  0  0  0  0  0  0  0  0  0  0
    5.2882   -1.4384   -0.0039 H   0  0  0  0  0  0  0  0  0  0  0  0
   -4.3515   -0.5628    1.5565 H   0  0  0  0  0  0  0  0  0  0  0  0
    4.5900    1.3409    1.1344 H   0  0  0  0  0  0  0  0  0  0  0  0
   -6.1727    1.6557   -1.1183 H   0  0  0  0  0  0  0  0  0  0  0  0
   -4.8965    2.6370   -0.3898 H   0  0  0  0  0  0  0  0  0  0  0  0
   -6.6224   -0.2160    2.1951 H   0  0  0  0  0  0  0  0  0  0  0  0
   -7.2008   -0.2716    0.5278 H   0  0  0  0  0  0  0  0  0  0  0  0
   -5.5438    1.9492    1.8412 H   0  0  0  0  0  0  0  0  0  0  0  0
   -7.1142    2.1262    1.0308 H   0  0  0  0  0  0  0  0  0  0  0  0
   -2.9723    1.6480    0.4083 H   0  0  0  0  0  0  0  0  0  0  0  0
    6.1889    0.5187   -1.3465 H   0  0  0  0  0  0  0  0  0  0  0  0
    6.9161    0.9888    0.2156 H   0  0  0  0  0  0  0  0  0  0  0  0
    1.7696    2.0401    0.8076 H   0  0  0  0  0  0  0  0  0  0  0  0
    2.0907   -2.6045    0.6279 H   0  0  0  0  0  0  0  0  0  0  0  0
    6.3267   -0.6639    1.9010 H   0  0  0  0  0  0  0  0  0  0  0  0
   -5.6090   -2.3600    0.8955 H   0  0  0  0  0  0  0  0  0  0  0  0
    6.7411    2.7107   -1.2583 H   0  0  0  0  0  0  0  0  0  0  0  0
   -1.3740   -2.8407   -1.9606 H   0  0  0  0  0  0  0  0  0  0  0  0
  1 12  1  0  0  0  0
  1 16  1  0  0  0  0
  2 13  1  0  0  0  0
  2 42  1  0  0  0  0
  3 14  1  0  0  0  0
  3 43  1  0  0  0  0
  4 15  1  0  0  0  0
  4 44  1  0  0  0  0
  5 20  1  0  0  0  0
  5 45  1  0  0  0  0
  6 12  1  0  0  0  0
  6 21  1  0  0  0  0
  6 24  1  0  0  0  0
  7 11  1  0  0  0  0
  7 22  1  0  0  0  0
  7 38  1  0  0  0  0
  8 23  1  0  0  0  0
  8 24  2  0  0  0  0
  9 21  2  0  0  0  0
  9 25  1  0  0  0  0
 10 22  1  0  0  0  0
 10 25  2  0  0  0  0
 11 15  1  0  0  0  0
 11 17  1  0  0  0  0
 11 26  1  0  0  0  0
 12 13  1  0  0  0  0
 12 27  1  0  0  0  0
 13 14  1  0  0  0  0
 13 28  1  0  0  0  0
 14 16  1  0  0  0  0
 14 29  1  0  0  0  0
 15 18  1  0  0  0  0
 15 30  1  0  0  0  0
 16 20  1  0  0  0  0
 16 31  1  0  0  0  0
 17 19  1  0  0  0  0
 17 32  1  0  0  0  0
 17 33  1  0  0  0  0
 18 19  1  0  0  0  0
 18 34  1  0  0  0  0
 18 35  1  0  0  0  0
 19 36  1  0  0  0  0
 19 37  1  0  0  0  0
 20 39  1  0  0  0  0
 20 40  1  0  0  0  0
 21 23  1  0  0  0  0
 22 23  2  0  0  0  0
 24 41  1  0  0  0  0
 25 46  1  0  0  0  0
M  END
> <PUBCHEM_COMPOUND_CID>
130214

> <PUBCHEM_CONFORMER_RMSD>
0.8

> <PUBCHEM_CONFORMER_DIVERSEORDER>
1
190
186
127
119
42
157
205
75
148
49
175
183
169
27
120
4
52
194
44
109
206
147
173
14
73
93
10
121
108
164
144
56
92
7
63
68
156
107
165
12
77
53
112
170
29
78
178
28
155
16
101
58
30
98
132
97
124
184
166
18
83
162
150
172
110
181
111
129
187
137
67
202
168
17
128
19
81
13
138
105
143
193
43
135
86
140
2
191
195
208
176
196
152
20
94
3
167
145
51
64
154
99
31
45
163
199
134
139
15
201
159
198
153
38
177
126
33
106
136
171
192
21
74
90
200
100
5
48
203
41
141
197
103
47
24
71
130
207
82
84
188
133
11
89
25
96
76
87
115
39
151
66
158
179
114
122
9
118
65
117
204
23
174
95
60
57
26
59
6
123
72
79
80
149
62
46
146
37
160
85
61
131
22
91
36
142
34
180
104
54
32
8
40
69
161
116
113
55
182
88
102
35
185
70
189
125
50

> <PUBCHEM_MMFF94_PARTIAL_CHARGES>
29
1 -0.56
10 -0.62
11 0.37
12 0.54
13 0.28
14 0.28
15 0.28
16 0.28
2 -0.68
20 0.28
21 0.11
22 0.41
23 0.23
24 0.04
25 0.47
3 -0.68
38 0.4
4 -0.68
41 0.15
42 0.4
43 0.4
44 0.4
45 0.4
46 0.15
5 -0.68
6 0.05
7 -0.87
8 -0.57
9 -0.57

> <PUBCHEM_EFFECTIVE_ROTOR_COUNT>
6

> <PUBCHEM_PHARMACOPHORE_FEATURES>
18
1 1 acceptor
1 2 acceptor
1 2 donor
1 3 acceptor
1 3 donor
1 4 acceptor
1 4 donor
1 5 acceptor
1 5 donor
1 7 cation
1 7 donor
3 6 8 24 cation
3 6 9 21 cation
3 9 10 25 cation
5 1 12 13 14 16 rings
5 11 15 17 18 19 rings
5 6 8 21 23 24 rings
6 9 10 21 22 23 25 rings

> <PUBCHEM_HEAVY_ATOM_COUNT>
25

> <PUBCHEM_ATOM_DEF_STEREO_COUNT>
4

> <PUBCHEM_ATOM_UDEF_STEREO_COUNT>
2

> <PUBCHEM_BOND_DEF_STEREO_COUNT>
0

> <PUBCHEM_BOND_UDEF_STEREO_COUNT>
0

> <PUBCHEM_ISOTOPIC_ATOM_COUNT>
0

> <PUBCHEM_COMPONENT_COUNT>
1

> <PUBCHEM_CACTVS_TAUTO_COUNT>
3

> <PUBCHEM_CONFORMER_ID>
0001FCA600000001

> <PUBCHEM_MMFF94_ENERGY>
57.1636

> <PUBCHEM_FEATURE_SELFOVERLAP>
91.959

> <PUBCHEM_SHAPE_FINGERPRINT>
10 15 18411145736352802761
10906281 52 18130801048425349461
11646440 116 16845579729638972115
12236239 1 18408604773138391212
12596602 18 18186239519888219569
12616971 3 18335405869120130854
12788726 201 17703796881578854560
13140716 1 18059003016530509377
13533116 47 17531242821567034538
13782708 43 15719662157279563018
13785724 45 17908144270350157526
13914758 101 12535363271917573742
14251764 18 18412263956831616211
14341114 176 18334300829726890049
14341114 328 18408603660388726051
14466204 15 18059576833068194929
14790565 3 18269838773292593396
15142383 8 17968369044534362957
15475509 8 17131291098539363768
15685185 35 17536047893693067932
1601671 61 18060700584836787101
17844677 252 17385726855261128245
1813 80 15936698073190691279
18222031 100 13045948996924595039
200 152 7925913677584637087
21267235 1 18336829681096759370
21637258 2 16660638544793875859
21781055 127 17489317335309668498
220451 1 18113624481875956267
22079108 93 17458345273301415008
23081809 10 18341606027525208213
23536379 177 17822009787628223993
23559900 14 18126582132110602919
23569943 247 15625119524377779718
2838139 119 13542464267526404203
293599 30 18060140942208799821
312425 54 16877947109745416073
34934 24 18342173388700186294
3663271 9 18186804681907891441
4073 2 17894639183383504123
4340502 62 17603307050844228850
5104073 3 18339629153158773058
5385378 56 17703239399593625607
6328613 192 18201159948306375736
7226269 152 17275108331948766801

> <PUBCHEM_SHAPE_MULTIPOLES>
460.24
16.55
2.04
1.19
4.04
0.2
0.19
-5.54
4.79
-0.55
-0.25
-0.35
0.35
-1.53

> <PUBCHEM_SHAPE_SELFOVERLAP>
993.878

> <PUBCHEM_SHAPE_VOLUME>
251

> <PUBCHEM_COORDINATE_TYPE>
2
5
10

$$$$
