130222
  -OEChem-03292013323D

 41 42  0     1  0  0  0  0  0999 V2000
    4.1275    1.8253    0.4624 S   0  0  0  0  0  0  0  0  0  0  0  0
    0.7468   -1.4420   -1.0840 O   0  0  0  0  0  0  0  0  0  0  0  0
   -3.6255   -0.4041   -0.6065 O   0  0  0  0  0  0  0  0  0  0  0  0
    4.4253   -2.5729   -0.0626 O   0  0  0  0  0  0  0  0  0  0  0  0
    3.4912   -1.3772    1.6384 O   0  0  0  0  0  0  0  0  0  0  0  0
   -2.7729    0.6060    1.2717 O   0  0  0  0  0  0  0  0  0  0  0  0
    2.2104    0.1524   -0.2420 N   0  0  0  0  0  0  0  0  0  0  0  0
   -1.4249    0.0585   -0.5365 N   0  0  0  0  0  0  0  0  0  0  0  0
    2.3605    1.3997    0.4943 C   0  0  2  0  0  0  0  0  0  0  0  0
    1.4996    2.4864   -0.1398 C   0  0  0  0  0  0  0  0  0  0  0  0
    3.4514   -0.5062   -0.6188 C   0  0  1  0  0  0  0  0  0  0  0  0
    0.0666    1.9997   -0.4045 C   0  0  0  0  0  0  0  0  0  0  0  0
   -0.1710    0.5371   -0.0176 C   0  0  2  0  0  0  0  0  0  0  0  0
    0.9498   -0.3645   -0.5284 C   0  0  0  0  0  0  0  0  0  0  0  0
    4.5424    0.5448   -0.7542 C   0  0  0  0  0  0  0  0  0  0  0  0
    3.7729   -1.5040    0.4561 C   0  0  0  0  0  0  0  0  0  0  0  0
   -2.6221    0.1322    0.1503 C   0  0  0  0  0  0  0  0  0  0  0  0
   -4.9289   -0.3932   -0.0135 C   0  0  0  0  0  0  0  0  0  0  0  0
   -5.3205    1.0557    0.2731 C   0  0  0  0  0  0  0  0  0  0  0  0
   -5.8952   -1.0230   -1.0145 C   0  0  0  0  0  0  0  0  0  0  0  0
   -4.8833   -1.2106    1.2766 C   0  0  0  0  0  0  0  0  0  0  0  0
    2.0569    1.2246    1.5325 H   0  0  0  0  0  0  0  0  0  0  0  0
    1.9259    2.8046   -1.1011 H   0  0  0  0  0  0  0  0  0  0  0  0
    1.4772    3.3775    0.4992 H   0  0  0  0  0  0  0  0  0  0  0  0
    3.2923   -1.0486   -1.5582 H   0  0  0  0  0  0  0  0  0  0  0  0
   -0.6443    2.6421    0.1304 H   0  0  0  0  0  0  0  0  0  0  0  0
   -0.1547    2.1421   -1.4712 H   0  0  0  0  0  0  0  0  0  0  0  0
   -0.1959    0.4448    1.0757 H   0  0  0  0  0  0  0  0  0  0  0  0
    5.5482    0.1520   -0.5804 H   0  0  0  0  0  0  0  0  0  0  0  0
    4.5104    1.0056   -1.7467 H   0  0  0  0  0  0  0  0  0  0  0  0
   -1.4420   -0.3448   -1.4689 H   0  0  0  0  0  0  0  0  0  0  0  0
    4.6459   -3.2366    0.6251 H   0  0  0  0  0  0  0  0  0  0  0  0
   -6.3993    1.1308    0.4555 H   0  0  0  0  0  0  0  0  0  0  0  0
   -4.8439    1.4901    1.1554 H   0  0  0  0  0  0  0  0  0  0  0  0
   -5.0789    1.7035   -0.5775 H   0  0  0  0  0  0  0  0  0  0  0  0
   -5.5882   -2.0464   -1.2592 H   0  0  0  0  0  0  0  0  0  0  0  0
   -5.8943   -0.4657   -1.9583 H   0  0  0  0  0  0  0  0  0  0  0  0
   -6.9199   -1.0515   -0.6302 H   0  0  0  0  0  0  0  0  0  0  0  0
   -4.3489   -2.1554    1.1229 H   0  0  0  0  0  0  0  0  0  0  0  0
   -4.4056   -0.7051    2.1194 H   0  0  0  0  0  0  0  0  0  0  0  0
   -5.8990   -1.4508    1.6131 H   0  0  0  0  0  0  0  0  0  0  0  0
  1  9  1  0  0  0  0
  1 15  1  0  0  0  0
  2 14  2  0  0  0  0
  3 17  1  0  0  0  0
  3 18  1  0  0  0  0
  4 16  1  0  0  0  0
  4 32  1  0  0  0  0
  5 16  2  0  0  0  0
  6 17  2  0  0  0  0
  7  9  1  0  0  0  0
  7 11  1  0  0  0  0
  7 14  1  0  0  0  0
  8 13  1  0  0  0  0
  8 17  1  0  0  0  0
  8 31  1  0  0  0  0
  9 10  1  0  0  0  0
  9 22  1  0  0  0  0
 10 12  1  0  0  0  0
 10 23  1  0  0  0  0
 10 24  1  0  0  0  0
 11 15  1  0  0  0  0
 11 16  1  0  0  0  0
 11 25  1  0  0  0  0
 12 13  1  0  0  0  0
 12 26  1  0  0  0  0
 12 27  1  0  0  0  0
 13 14  1  0  0  0  0
 13 28  1  0  0  0  0
 15 29  1  0  0  0  0
 15 30  1  0  0  0  0
 18 19  1  0  0  0  0
 18 20  1  0  0  0  0
 18 21  1  0  0  0  0
 19 33  1  0  0  0  0
 19 34  1  0  0  0  0
 19 35  1  0  0  0  0
 20 36  1  0  0  0  0
 20 37  1  0  0  0  0
 20 38  1  0  0  0  0
 21 39  1  0  0  0  0
 21 40  1  0  0  0  0
 21 41  1  0  0  0  0
M  END
> <PUBCHEM_COMPOUND_CID>
130222

> <PUBCHEM_CONFORMER_RMSD>
0.8

> <PUBCHEM_CONFORMER_DIVERSEORDER>
1
46
53
69
66
54
29
74
60
25
52
68
16
73
22
48
5
51
78
31
57
32
49
77
76
72
75
24
65
36
62
71
12
4
18
55
44
35
33
15
20
63
34
26
45
43
14
61
70
23
59
11
39
42
41
2
13
64
9
21
30
67
58
37
38
10
27
19
28
17
3
47
50
7
56
40
6
8

> <PUBCHEM_MMFF94_PARTIAL_CHARGES>
18
1 -0.46
11 0.36
13 0.36
14 0.57
15 0.23
16 0.66
17 0.78
18 0.28
2 -0.57
3 -0.43
31 0.37
32 0.5
4 -0.65
5 -0.57
6 -0.57
7 -0.66
8 -0.73
9 0.53

> <PUBCHEM_EFFECTIVE_ROTOR_COUNT>
6.2

> <PUBCHEM_PHARMACOPHORE_FEATURES>
9
1 2 acceptor
1 4 acceptor
1 5 acceptor
1 6 acceptor
1 8 donor
3 4 5 16 anion
4 18 19 20 21 hydrophobe
5 1 7 9 11 15 rings
6 7 9 10 12 13 14 rings

> <PUBCHEM_HEAVY_ATOM_COUNT>
21

> <PUBCHEM_ATOM_DEF_STEREO_COUNT>
0

> <PUBCHEM_ATOM_UDEF_STEREO_COUNT>
3

> <PUBCHEM_BOND_DEF_STEREO_COUNT>
0

> <PUBCHEM_BOND_UDEF_STEREO_COUNT>
0

> <PUBCHEM_ISOTOPIC_ATOM_COUNT>
0

> <PUBCHEM_COMPONENT_COUNT>
1

> <PUBCHEM_CACTVS_TAUTO_COUNT>
2

> <PUBCHEM_CONFORMER_ID>
0001FCAE00000001

> <PUBCHEM_MMFF94_ENERGY>
52.0934

> <PUBCHEM_FEATURE_SELFOVERLAP>
45.802

> <PUBCHEM_SHAPE_FINGERPRINT>
10912923 1 17775007916446171187
11405975 8 18410298012877374457
11796584 16 17240480312553711499
12107183 9 17910965638529362433
12236239 1 17704076226425690205
12596602 18 17632858658896648803
12644460 14 18412828014575474128
13167823 11 18411417328245969531
13533116 47 18342174470821214723
13911852 28 18123467185673082294
14252887 29 18334575771826540496
14341114 176 18410864273854818449
14573314 32 17458337529406724365
14790565 3 17832990821030513100
15196674 1 18412826871882395957
15788980 27 18131071541550394825
17349148 13 18059860575618409951
17834072 33 18202565107265885405
17844677 252 18411987974807353889
18222031 100 18273215278922308422
200 152 18131350830547085405
20028762 73 18060695100328094623
20645477 70 18335135380300465694
20739085 24 18412268324344306332
21065198 48 18202286900849068321
21267235 1 18340492180161897806
2215653 11 18113612396476353863
22224240 67 18198050577575001120
22646028 1 18201718453384746847
23402539 116 18343017783829408205
23559900 14 17603873320543586518
239999 70 18186804690788099314
3004659 81 17967533433130368714
31174 14 18411692197721435868
314194 84 18411421721707492963
33824 294 18408884075078012344
3421961 26 18411134715118457546
34934 24 18340203111355869180
4073 2 18115312310019248867
42630746 31 18342454898126689180
4340502 62 17676485086228347024
465052 167 18412831274245032046
4990 188 13406797709338284769
5104073 3 18342744013923845897
54040823 5 18410299129331305856
542803 24 17821731650099422341
7970288 3 18192991513732335442
960060 61 17967256398785494724
9971528 1 18259984890055390037
9999458 23 18262519333572840700

> <PUBCHEM_SHAPE_MULTIPOLES>
396.71
12.9
2.18
1.07
14.27
0.06
-0.21
-3.5
-0.56
-2.62
-0.16
0.25
-0.28
-0.27

> <PUBCHEM_SHAPE_SELFOVERLAP>
807.602

> <PUBCHEM_SHAPE_VOLUME>
233.7

> <PUBCHEM_COORDINATE_TYPE>
2
5
10

$$$$
