130206
  -OEChem-03292013323D

 39 40  0     1  0  0  0  0  0999 V2000
    2.6659    0.1225    0.9930 S   0  0  0  0  0  0  0  0  0  0  0  0
   -2.0344    0.9498    0.0193 O   0  0  0  0  0  0  0  0  0  0  0  0
    0.4314    2.1000    2.2562 O   0  0  0  0  0  0  0  0  0  0  0  0
    0.2289    2.1551   -2.3610 O   0  0  0  0  0  0  0  0  0  0  0  0
    3.8986   -3.3164    0.4666 O   0  0  0  0  0  0  0  0  0  0  0  0
    4.0302   -2.2117   -1.5103 O   0  0  0  0  0  0  0  0  0  0  0  0
   -4.2940   -0.5940   -2.2503 O   0  0  0  0  0  0  0  0  0  0  0  0
   -3.9466   -0.9613    2.3256 O   0  0  0  0  0  0  0  0  0  0  0  0
   -0.0286    2.1376   -0.0349 N   0  0  0  0  0  0  0  0  0  0  0  0
   -3.9545   -0.3474    0.0588 N   0  0  0  0  0  0  0  0  0  0  0  0
    6.3872   -1.1162   -0.1282 N   0  0  0  0  0  0  0  0  0  0  0  0
    2.1902    1.8345    0.6126 C   0  0  1  0  0  0  0  0  0  0  0  0
    2.1375    2.1007   -0.8879 C   0  0  0  0  0  0  0  0  0  0  0  0
    0.7752    2.0507    1.0828 C   0  0  0  0  0  0  0  0  0  0  0  0
    0.6716    2.1186   -1.2214 C   0  0  0  0  0  0  0  0  0  0  0  0
   -1.4722    2.2534    0.0433 C   0  0  0  0  0  0  0  0  0  0  0  0
    4.3485    0.1669    0.3350 C   0  0  0  0  0  0  0  0  0  0  0  0
    5.0392   -1.1942    0.4380 C   0  0  1  0  0  0  0  0  0  0  0  0
   -3.4495    0.9919    0.1267 C   0  0  0  0  0  0  0  0  0  0  0  0
    4.2894   -2.2777   -0.3143 C   0  0  0  0  0  0  0  0  0  0  0  0
   -4.3190   -0.9984   -1.1002 C   0  0  0  0  0  0  0  0  0  0  0  0
   -4.1479   -1.1763    1.1424 C   0  0  0  0  0  0  0  0  0  0  0  0
   -4.7741   -2.3414   -0.7088 C   0  0  0  0  0  0  0  0  0  0  0  0
   -4.6730   -2.4465    0.6169 C   0  0  0  0  0  0  0  0  0  0  0  0
    2.8600    2.5332    1.1233 H   0  0  0  0  0  0  0  0  0  0  0  0
    2.6348    1.3659   -1.5236 H   0  0  0  0  0  0  0  0  0  0  0  0
    2.5420    3.0939   -1.1133 H   0  0  0  0  0  0  0  0  0  0  0  0
   -1.8318    2.8266   -0.8181 H   0  0  0  0  0  0  0  0  0  0  0  0
   -1.7440    2.7602    0.9756 H   0  0  0  0  0  0  0  0  0  0  0  0
    4.9201    0.9144    0.8969 H   0  0  0  0  0  0  0  0  0  0  0  0
    4.3333    0.4788   -0.7128 H   0  0  0  0  0  0  0  0  0  0  0  0
    5.1295   -1.4855    1.4913 H   0  0  0  0  0  0  0  0  0  0  0  0
   -3.8673    1.5756   -0.7008 H   0  0  0  0  0  0  0  0  0  0  0  0
   -3.7334    1.4360    1.0869 H   0  0  0  0  0  0  0  0  0  0  0  0
    6.3389   -0.8691   -1.1159 H   0  0  0  0  0  0  0  0  0  0  0  0
    6.8386   -2.0287   -0.0770 H   0  0  0  0  0  0  0  0  0  0  0  0
   -5.1246   -3.0918   -1.3970 H   0  0  0  0  0  0  0  0  0  0  0  0
   -4.9248   -3.2999    1.2236 H   0  0  0  0  0  0  0  0  0  0  0  0
    3.4031   -3.9918   -0.0439 H   0  0  0  0  0  0  0  0  0  0  0  0
  1 12  1  0  0  0  0
  1 17  1  0  0  0  0
  2 16  1  0  0  0  0
  2 19  1  0  0  0  0
  3 14  2  0  0  0  0
  4 15  2  0  0  0  0
  5 20  1  0  0  0  0
  5 39  1  0  0  0  0
  6 20  2  0  0  0  0
  7 21  2  0  0  0  0
  8 22  2  0  0  0  0
  9 14  1  0  0  0  0
  9 15  1  0  0  0  0
  9 16  1  0  0  0  0
 10 19  1  0  0  0  0
 10 21  1  0  0  0  0
 10 22  1  0  0  0  0
 11 18  1  0  0  0  0
 11 35  1  0  0  0  0
 11 36  1  0  0  0  0
 12 13  1  0  0  0  0
 12 14  1  0  0  0  0
 12 25  1  0  0  0  0
 13 15  1  0  0  0  0
 13 26  1  0  0  0  0
 13 27  1  0  0  0  0
 16 28  1  0  0  0  0
 16 29  1  0  0  0  0
 17 18  1  0  0  0  0
 17 30  1  0  0  0  0
 17 31  1  0  0  0  0
 18 20  1  0  0  0  0
 18 32  1  0  0  0  0
 19 33  1  0  0  0  0
 19 34  1  0  0  0  0
 21 23  1  0  0  0  0
 22 24  1  0  0  0  0
 23 24  2  0  0  0  0
 23 37  1  0  0  0  0
 24 38  1  0  0  0  0
M  END
> <PUBCHEM_COMPOUND_CID>
130206

> <PUBCHEM_CONFORMER_RMSD>
1

> <PUBCHEM_CONFORMER_DIVERSEORDER>
4
223
243
107
183
121
219
135
32
222
227
172
66
69
89
145
76
174
123
67
228
259
79
155
241
14
213
15
253
262
162
156
232
249
2
141
88
59
131
61
37
207
258
234
159
101
203
45
181
128
132
198
239
144
35
143
168
182
11
194
116
68
208
218
111
142
22
199
106
16
171
166
211
235
48
244
263
91
224
7
65
226
178
38
81
149
225
51
261
84
190
12
238
247
74
152
209
5
104
56
264
231
75
125
3
170
196
115
250
255
18
201
240
202
9
242
126
138
187
205
6
52
134
197
180
53
94
248
177
98
195
25
102
245
206
42
41
8
157
103
164
163
124
217
136
97
133
108
62
233
99
85
77
251
20
158
36
191
44
55
49
252
105
17
146
216
100
137
140
210
24
200
260
26
27
40
73
33
112
130
256
47
87
173
220
64
10
150
185
169
221
96
50
29
60
78
188
1
43
151
113
39
176
212
214
153
148
215
160
83
80
167
57
93
34
230
90
21
120
28
109
117
129
13
58
254
229
82
92
186
71
237
54
165
30
19
179
127
119
192
246
236
70
95
193
139
204
63
31
161
72
86
257
110
147
114
118
23
46
184
154
175
122
189

> <PUBCHEM_MMFF94_PARTIAL_CHARGES>
29
1 -0.46
10 -0.42
11 -0.99
12 0.29
13 0.06
14 0.57
15 0.57
16 0.58
17 0.23
18 0.33
19 0.58
2 -0.56
20 0.66
21 0.62
22 0.62
23 -0.14
24 -0.14
3 -0.57
35 0.36
36 0.36
37 0.15
38 0.15
39 0.5
4 -0.57
5 -0.65
6 -0.57
7 -0.57
8 -0.57
9 -0.42

> <PUBCHEM_EFFECTIVE_ROTOR_COUNT>
8.8

> <PUBCHEM_PHARMACOPHORE_FEATURES>
12
1 11 cation
1 11 donor
1 2 acceptor
1 3 acceptor
1 4 acceptor
1 5 acceptor
1 6 acceptor
1 7 acceptor
1 8 acceptor
3 5 6 20 anion
5 10 21 22 23 24 rings
5 9 12 13 14 15 rings

> <PUBCHEM_HEAVY_ATOM_COUNT>
24

> <PUBCHEM_ATOM_DEF_STEREO_COUNT>
1

> <PUBCHEM_ATOM_UDEF_STEREO_COUNT>
1

> <PUBCHEM_BOND_DEF_STEREO_COUNT>
0

> <PUBCHEM_BOND_UDEF_STEREO_COUNT>
0

> <PUBCHEM_ISOTOPIC_ATOM_COUNT>
0

> <PUBCHEM_COMPONENT_COUNT>
1

> <PUBCHEM_CACTVS_TAUTO_COUNT>
4

> <PUBCHEM_CONFORMER_ID>
0001FC9E00000004

> <PUBCHEM_MMFF94_ENERGY>
32.0152

> <PUBCHEM_FEATURE_SELFOVERLAP>
60.96

> <PUBCHEM_SHAPE_FINGERPRINT>
10042902 136 18410013251596366046
10074138 170 17056966156853360536
10928967 22 18128264582643389399
11796584 16 18339641127337864956
12596602 18 16415471688437604826
12633257 1 16558190548343652181
13103583 49 17131840853978069393
13544653 18 18413108342505902760
14251757 17 17967249823143468715
14848178 5 18409724062842528406
14950920 106 16415470575650698050
15163728 17 11098142106705802480
17357779 13 18334295353316494978
193927 3 18408328786839792936
20775530 9 18410294674901892834
22620623 9 17605262991577955108
23559900 14 18187917426614651559
2838139 119 7925908167257634450
314194 84 18342174526661109616
4280585 95 17822280272020793224
4463277 69 18336258011558036532
46194498 28 17096932592857996421
6431902 208 18410854360864928138
7808743 9 8862941675941796421
7970288 3 18123188167781336979
999808 66 16915950557234678822

> <PUBCHEM_SHAPE_MULTIPOLES>
441.73
13.11
3.69
1.78
0.83
0.82
0.14
13.79
0.46
1.91
0.33
-1.23
-0.43
0.47

> <PUBCHEM_SHAPE_SELFOVERLAP>
910.279

> <PUBCHEM_SHAPE_VOLUME>
255.6

> <PUBCHEM_COORDINATE_TYPE>
2
5
10

$$$$
