130208
  -OEChem-03292013323D

 40 42  0     1  0  0  0  0  0999 V2000
   -1.2097    1.4191   -0.6323 S   0  0  0  0  0  0  0  0  0  0  0  0
    1.3731   -2.1481   -0.7659 S   0  0  0  0  0  0  0  0  0  0  0  0
   -5.6279    0.5359   -1.2684 O   0  0  0  0  0  0  0  0  0  0  0  0
   -4.9552   -1.4445   -0.3620 O   0  0  0  0  0  0  0  0  0  0  0  0
    2.7302    2.0328    0.1867 O   0  0  0  0  0  0  0  0  0  0  0  0
   -2.7092   -0.3846    0.6457 N   0  0  1  0  0  0  0  0  0  0  0  0
    1.0335   -0.0566    0.7394 N   0  0  0  0  0  0  0  0  0  0  0  0
   -3.6459    0.5632    0.0057 C   0  0  2  0  0  0  0  0  0  0  0  0
   -1.3880    0.2545    0.7602 C   0  0  1  0  0  0  0  0  0  0  0  0
   -0.2608   -0.7712    0.6976 C   0  0  1  0  0  0  0  0  0  0  0  0
   -2.9028    1.1576   -1.2012 C   0  0  0  0  0  0  0  0  0  0  0  0
   -4.2075    1.6611    0.9249 C   0  0  0  0  0  0  0  0  0  0  0  0
   -0.3337   -1.6099   -0.5713 C   0  0  0  0  0  0  0  0  0  0  0  0
   -3.1643   -0.9334    1.9216 C   0  0  0  0  0  0  0  0  0  0  0  0
   -4.7932   -0.2467   -0.5416 C   0  0  0  0  0  0  0  0  0  0  0  0
    1.9298   -0.7141    0.0737 C   0  0  0  0  0  0  0  0  0  0  0  0
    3.3432   -0.2782   -0.0155 C   0  0  0  0  0  0  0  0  0  0  0  0
    3.6914    1.0771    0.0444 C   0  0  0  0  0  0  0  0  0  0  0  0
    4.3528   -1.2373   -0.1627 C   0  0  0  0  0  0  0  0  0  0  0  0
    5.0279    1.4667   -0.0417 C   0  0  0  0  0  0  0  0  0  0  0  0
    5.6893   -0.8477   -0.2488 C   0  0  0  0  0  0  0  0  0  0  0  0
    6.0270    0.5043   -0.1883 C   0  0  0  0  0  0  0  0  0  0  0  0
   -1.3083    0.8561    1.6741 H   0  0  0  0  0  0  0  0  0  0  0  0
   -0.3085   -1.4218    1.5817 H   0  0  0  0  0  0  0  0  0  0  0  0
   -2.8739    0.4695   -2.0540 H   0  0  0  0  0  0  0  0  0  0  0  0
   -3.3319    2.1047   -1.5436 H   0  0  0  0  0  0  0  0  0  0  0  0
   -4.7904    2.3974    0.3590 H   0  0  0  0  0  0  0  0  0  0  0  0
   -4.8802    1.2457    1.6842 H   0  0  0  0  0  0  0  0  0  0  0  0
   -3.4142    2.2096    1.4437 H   0  0  0  0  0  0  0  0  0  0  0  0
   -1.0025   -2.4683   -0.4580 H   0  0  0  0  0  0  0  0  0  0  0  0
   -0.6121   -1.0734   -1.4800 H   0  0  0  0  0  0  0  0  0  0  0  0
   -4.1659   -1.3687    1.8718 H   0  0  0  0  0  0  0  0  0  0  0  0
   -3.1718   -0.1795    2.7170 H   0  0  0  0  0  0  0  0  0  0  0  0
   -2.5026   -1.7449    2.2427 H   0  0  0  0  0  0  0  0  0  0  0  0
   -6.3816    0.0262   -1.6348 H   0  0  0  0  0  0  0  0  0  0  0  0
    4.1341   -2.3010   -0.1927 H   0  0  0  0  0  0  0  0  0  0  0  0
    5.2979    2.5182    0.0049 H   0  0  0  0  0  0  0  0  0  0  0  0
    6.4680   -1.5970   -0.3580 H   0  0  0  0  0  0  0  0  0  0  0  0
    7.0678    0.8076   -0.2541 H   0  0  0  0  0  0  0  0  0  0  0  0
    1.8452    1.6383    0.1382 H   0  0  0  0  0  0  0  0  0  0  0  0
  1  9  1  0  0  0  0
  1 11  1  0  0  0  0
  2 13  1  0  0  0  0
  2 16  1  0  0  0  0
  3 15  1  0  0  0  0
  3 35  1  0  0  0  0
  4 15  2  0  0  0  0
  5 18  1  0  0  0  0
  5 40  1  0  0  0  0
  6  8  1  0  0  0  0
  6  9  1  0  0  0  0
  6 14  1  0  0  0  0
  7 10  1  0  0  0  0
  7 16  2  0  0  0  0
  8 11  1  0  0  0  0
  8 12  1  0  0  0  0
  8 15  1  0  0  0  0
  9 10  1  0  0  0  0
  9 23  1  0  0  0  0
 10 13  1  0  0  0  0
 10 24  1  0  0  0  0
 11 25  1  0  0  0  0
 11 26  1  0  0  0  0
 12 27  1  0  0  0  0
 12 28  1  0  0  0  0
 12 29  1  0  0  0  0
 13 30  1  0  0  0  0
 13 31  1  0  0  0  0
 14 32  1  0  0  0  0
 14 33  1  0  0  0  0
 14 34  1  0  0  0  0
 16 17  1  0  0  0  0
 17 18  1  0  0  0  0
 17 19  2  0  0  0  0
 18 20  2  0  0  0  0
 19 21  1  0  0  0  0
 19 36  1  0  0  0  0
 20 22  1  0  0  0  0
 20 37  1  0  0  0  0
 21 22  2  0  0  0  0
 21 38  1  0  0  0  0
 22 39  1  0  0  0  0
M  END
> <PUBCHEM_COMPOUND_CID>
130208

> <PUBCHEM_CONFORMER_RMSD>
0.8

> <PUBCHEM_CONFORMER_DIVERSEORDER>
16
110
98
1
113
50
119
91
61
118
58
88
107
51
121
21
120
2
116
97
59
124
8
15
65
94
106
114
77
32
111
60
103
90
25
126
100
122
46
99
40
71
101
93
45
81
34
4
66
23
52
62
117
123
54
68
70
125
79
11
112
9
19
24
84
12
92
13
80
96
7
74
105
35
55
10
38
28
26
3
75
104
42
67
115
17
83
53
30
41
47
48
29
89
64
37
31
20
6
56
14
72
73
85
87
39
63
22
43
76
108
36
44
102
57
95
86
49
27
33
109
18
69
82
78
5

> <PUBCHEM_MMFF94_PARTIAL_CHARGES>
27
1 -0.46
10 0.25
11 0.23
13 0.23
14 0.27
15 0.66
16 0.5
17 0.09
18 0.08
19 -0.15
2 -0.37
20 -0.15
21 -0.15
22 -0.15
3 -0.65
35 0.5
36 0.15
37 0.15
38 0.15
39 0.15
4 -0.57
40 0.45
5 -0.53
6 -0.81
7 -0.7
8 0.33
9 0.5

> <PUBCHEM_EFFECTIVE_ROTOR_COUNT>
4.6

> <PUBCHEM_PHARMACOPHORE_FEATURES>
9
1 3 acceptor
1 4 acceptor
1 5 donor
1 6 cation
1 7 acceptor
3 3 4 15 anion
5 1 6 8 9 11 rings
5 2 7 10 13 16 rings
6 17 18 19 20 21 22 rings

> <PUBCHEM_HEAVY_ATOM_COUNT>
22

> <PUBCHEM_ATOM_DEF_STEREO_COUNT>
0

> <PUBCHEM_ATOM_UDEF_STEREO_COUNT>
3

> <PUBCHEM_BOND_DEF_STEREO_COUNT>
0

> <PUBCHEM_BOND_UDEF_STEREO_COUNT>
0

> <PUBCHEM_ISOTOPIC_ATOM_COUNT>
0

> <PUBCHEM_COMPONENT_COUNT>
1

> <PUBCHEM_CACTVS_TAUTO_COUNT>
4

> <PUBCHEM_CONFORMER_ID>
0001FCA000000010

> <PUBCHEM_MMFF94_ENERGY>
63.9105

> <PUBCHEM_FEATURE_SELFOVERLAP>
45.727

> <PUBCHEM_SHAPE_FINGERPRINT>
10366900 7 17967532367619465208
10595046 47 18343863316169953900
10763959 59 17894909616363618500
11045977 3 18040156240141942272
11089746 13 14634869777495302518
11128504 68 16702300183000329720
11315181 36 18410857667810216169
12011746 2 18186517700408664612
12166972 35 18202565103155840080
12236239 1 17060621079495460208
12670546 56 17531239531121172410
128620 24 17704353260020919495
12969540 114 18115008775816446287
13402501 40 18261107461167405948
13533116 47 17131836426880007046
13583140 156 18040720285423132090
13631057 29 17846210120666731687
14251757 5 17344897723514104287
14341114 176 17749396940471184328
14528608 73 18342454850459685604
15183329 4 18411983529637047632
15196674 1 18411702080145557512
15209289 33 10663817486272972917
15238133 3 8213867045489332783
15788980 27 18409732863341456650
17980427 23 17749117694445318655
1813 80 14045743741918831042
19489759 90 17095240324003336979
200 152 18060419101296567641
20645477 70 18343023247102019022
21033648 29 18334846230233424144
21033650 10 15624568764142832848
21054139 6 17846206774148574102
21424621 283 17169261543557972589
21682296 61 18127981806587259894
21709351 56 18342174444903626980
221357 26 18411413990924804220
22950370 63 8358255943240514962
23227448 37 18340205297114674814
23402539 116 18040432200444156303
23557571 272 17967815994469951229
23559900 14 17675927586303795570
23622692 118 12325111429182491321
335352 9 18413109464547252766
351380 180 18260546727617133892
3545911 37 17676209052347595674
4325135 7 18202281416144169999
474229 33 18413669123363968998
5104073 3 18335423456747211368
5283173 99 17968649428964011517
542803 24 18202283584949465472
59755656 215 18114182991477226390
59755656 520 17313096475710547938
7226269 152 11819262348564934311
7495541 125 17632571695210267898

> <PUBCHEM_SHAPE_MULTIPOLES>
432.88
13.52
1.92
1.13
4.77
0.03
-0.19
-2.12
1.55
0.5
0.2
-1.4
0.09
0.44

> <PUBCHEM_SHAPE_SELFOVERLAP>
901.502

> <PUBCHEM_SHAPE_VOLUME>
249.8

> <PUBCHEM_COORDINATE_TYPE>
2
5
10

$$$$
