130395
  -OEChem-03292013323D

 38 39  0     0  0  0  0  0  0999 V2000
   -0.2936   -0.7328   -0.1609 O   0  0  0  0  0  0  0  0  0  0  0  0
   -0.3927    1.5966   -0.1458 O   0  0  0  0  0  0  0  0  0  0  0  0
   -7.9034    0.5296    0.2318 O   0  0  0  0  0  0  0  0  0  0  0  0
   -5.9208    1.6355    0.2101 O   0  0  0  0  0  0  0  0  0  0  0  0
    5.8889    0.3040   -0.5228 N   0  0  0  0  0  0  0  0  0  0  0  0
    7.9269   -0.3847    0.3868 N   0  0  0  0  0  0  0  0  0  0  0  0
    6.0371   -0.9196    1.5490 N   0  0  0  0  0  0  0  0  0  0  0  0
   -4.4370   -0.7815    0.0800 C   0  0  0  0  0  0  0  0  0  0  0  0
   -5.9255   -0.7993    0.1664 C   0  0  0  0  0  0  0  0  0  0  0  0
   -1.6885   -0.7489   -0.0794 C   0  0  0  0  0  0  0  0  0  0  0  0
   -3.8108   -0.7721   -1.1663 C   0  0  0  0  0  0  0  0  0  0  0  0
   -3.6708   -0.7744    1.2456 C   0  0  0  0  0  0  0  0  0  0  0  0
   -2.4185   -0.7557   -1.2471 C   0  0  0  0  0  0  0  0  0  0  0  0
   -2.2783   -0.7580    1.1650 C   0  0  0  0  0  0  0  0  0  0  0  0
    1.7116    0.4825   -0.2773 C   0  0  0  0  0  0  0  0  0  0  0  0
    2.4874    1.4928    0.2909 C   0  0  0  0  0  0  0  0  0  0  0  0
    2.3268   -0.5875   -0.9271 C   0  0  0  0  0  0  0  0  0  0  0  0
    0.2611    0.5449   -0.1924 C   0  0  0  0  0  0  0  0  0  0  0  0
    4.4940    0.3631   -0.4405 C   0  0  0  0  0  0  0  0  0  0  0  0
    3.8786    1.4332    0.2092 C   0  0  0  0  0  0  0  0  0  0  0  0
    3.7180   -0.6472   -1.0088 C   0  0  0  0  0  0  0  0  0  0  0  0
   -6.5456    0.5838    0.2038 C   0  0  0  0  0  0  0  0  0  0  0  0
    6.5550   -0.3043    0.4296 C   0  0  0  0  0  0  0  0  0  0  0  0
   -6.2409   -1.3388    1.0676 H   0  0  0  0  0  0  0  0  0  0  0  0
   -6.3404   -1.3368   -0.6950 H   0  0  0  0  0  0  0  0  0  0  0  0
   -4.3963   -0.7755   -2.0820 H   0  0  0  0  0  0  0  0  0  0  0  0
   -4.1464   -0.7797    2.2228 H   0  0  0  0  0  0  0  0  0  0  0  0
   -1.9307   -0.7487   -2.2167 H   0  0  0  0  0  0  0  0  0  0  0  0
   -1.6817   -0.7527    2.0717 H   0  0  0  0  0  0  0  0  0  0  0  0
    2.0241    2.3320    0.8033 H   0  0  0  0  0  0  0  0  0  0  0  0
    1.7485   -1.3823   -1.3907 H   0  0  0  0  0  0  0  0  0  0  0  0
    4.4746    2.2252    0.6552 H   0  0  0  0  0  0  0  0  0  0  0  0
    4.1884   -1.4831   -1.5201 H   0  0  0  0  0  0  0  0  0  0  0  0
   -8.3042    1.4246    0.2565 H   0  0  0  0  0  0  0  0  0  0  0  0
    8.4518    0.0236   -0.3790 H   0  0  0  0  0  0  0  0  0  0  0  0
    8.4537   -0.8512    1.1169 H   0  0  0  0  0  0  0  0  0  0  0  0
    6.6441   -1.3639    2.2294 H   0  0  0  0  0  0  0  0  0  0  0  0
    5.0409   -0.9517    1.7348 H   0  0  0  0  0  0  0  0  0  0  0  0
  1 10  1  0  0  0  0
  1 18  1  0  0  0  0
  2 18  2  0  0  0  0
  3 22  1  0  0  0  0
  3 34  1  0  0  0  0
  4 22  2  0  0  0  0
  5 19  1  0  0  0  0
  5 23  2  0  0  0  0
  6 23  1  0  0  0  0
  6 35  1  0  0  0  0
  6 36  1  0  0  0  0
  7 23  1  0  0  0  0
  7 37  1  0  0  0  0
  7 38  1  0  0  0  0
  8  9  1  0  0  0  0
  8 11  2  0  0  0  0
  8 12  1  0  0  0  0
  9 22  1  0  0  0  0
  9 24  1  0  0  0  0
  9 25  1  0  0  0  0
 10 13  2  0  0  0  0
 10 14  1  0  0  0  0
 11 13  1  0  0  0  0
 11 26  1  0  0  0  0
 12 14  2  0  0  0  0
 12 27  1  0  0  0  0
 13 28  1  0  0  0  0
 14 29  1  0  0  0  0
 15 16  2  0  0  0  0
 15 17  1  0  0  0  0
 15 18  1  0  0  0  0
 16 20  1  0  0  0  0
 16 30  1  0  0  0  0
 17 21  2  0  0  0  0
 17 31  1  0  0  0  0
 19 20  2  0  0  0  0
 19 21  1  0  0  0  0
 20 32  1  0  0  0  0
 21 33  1  0  0  0  0
M  END
> <PUBCHEM_COMPOUND_CID>
130395

> <PUBCHEM_CONFORMER_RMSD>
0.8

> <PUBCHEM_CONFORMER_DIVERSEORDER>
1
92
93
60
34
74
55
13
100
3
96
84
56
5
77
35
45
86
15
54
26
88
36
90
4
71
18
105
64
43
58
51
9
65
103
83
72
7
75
17
42
33
59
20
48
10
38
101
29
21
28
68
6
81
12
53
2
40
87
11
8
97
41
70
99
52
24
102
25
94
91
39
14
37
69
19
46
80
23
73
22
16
50
78
62
67
89
104
30
85
76
61
66
95
79
63
98
32
49
47
57
82
44
31
27

> <PUBCHEM_MMFF94_PARTIAL_CHARGES>
36
1 -0.23
10 0.08
11 -0.15
12 -0.15
13 -0.15
14 -0.15
15 0.09
16 -0.15
17 -0.15
18 0.63
19 0.18
2 -0.57
20 -0.15
21 -0.15
22 0.66
23 0.55
26 0.15
27 0.15
28 0.15
29 0.15
3 -0.65
30 0.15
31 0.15
32 0.15
33 0.15
34 0.5
35 0.4
36 0.4
37 0.4
38 0.4
4 -0.57
5 -0.63
6 -0.85
7 -0.85
8 -0.14
9 0.2

> <PUBCHEM_EFFECTIVE_ROTOR_COUNT>
6

> <PUBCHEM_PHARMACOPHORE_FEATURES>
9
1 2 acceptor
1 3 acceptor
1 4 acceptor
1 6 donor
1 7 donor
3 3 4 22 anion
4 5 6 7 23 cation
6 15 16 17 19 20 21 rings
6 8 10 11 12 13 14 rings

> <PUBCHEM_HEAVY_ATOM_COUNT>
23

> <PUBCHEM_ATOM_DEF_STEREO_COUNT>
0

> <PUBCHEM_ATOM_UDEF_STEREO_COUNT>
0

> <PUBCHEM_BOND_DEF_STEREO_COUNT>
0

> <PUBCHEM_BOND_UDEF_STEREO_COUNT>
0

> <PUBCHEM_ISOTOPIC_ATOM_COUNT>
0

> <PUBCHEM_COMPONENT_COUNT>
1

> <PUBCHEM_CACTVS_TAUTO_COUNT>
3

> <PUBCHEM_CONFORMER_ID>
0001FD5B00000001

> <PUBCHEM_MMFF94_ENERGY>
74.9078

> <PUBCHEM_FEATURE_SELFOVERLAP>
45.783

> <PUBCHEM_SHAPE_FINGERPRINT>
10299344 5 17312823779440664050
11089746 13 17275384322046511753
11524674 6 18333733550020063419
11719270 70 18060702775835176070
11796584 16 17822016432475582730
12166972 35 16443066110311280924
12236239 1 17632580482818922007
12516196 113 16917351441351586705
12616971 3 18201151161124541692
12916748 109 14056997226375829894
13533116 47 17967525754103357938
13685833 64 16515682230739483098
13914758 101 18272373040447060785
14123256 10 7997969076699052384
1420 363 12179845009250175541
14251752 14 18413670205975100937
14251764 18 18334575745829525983
14251764 46 17240201036352128043
14429380 56 13542452160144867978
14617045 38 16008463231326181106
15142383 8 18408884014637357316
15183329 4 18409167701674998489
15461852 350 14764342768897258061
15537594 2 13984655992555418593
18335252 98 9439402445525562605
20105231 36 13984666923231512297
20281389 69 18333731329822170669
20511986 3 17203599376606163518
21095086 128 15140681393208082337
21150785 3 10952046758180317538
21267235 1 13767927918520390423
21315759 40 17386009490153133015
21344244 181 15068619345642769944
21859007 373 18059568045090626257
22224240 67 16917064469624060222
2297311 6 15791726408274108799
23035841 295 16588021324990948096
23402539 116 18060418045214647901
23559900 14 17458907162693475676
26918003 58 18412268371451601442
2838139 119 18343580738458157037
28498 318 18260828176966595462
29717793 49 16343715330336254516
300161 21 16988843882102286791
3009799 131 16559031576059953393
347723 3 18113618988628550569
34797466 226 12823302320711768130
3633792 109 17059787607048489847
4073 2 18189057653963214370
4325135 7 10303810986453976849
5104073 3 17986671678594556810
5207 217 9295287244242629212
5385378 56 17749390313384555339
559249 180 18131068277286066767
59755656 520 18040713697513167859
67856867 119 16772944955909352480

> <PUBCHEM_SHAPE_MULTIPOLES>
434.91
20.35
1.32
1.09
1.87
0.45
0.12
0.47
3.74
-0.39
0.01
0.2
-0.33
-0.3

> <PUBCHEM_SHAPE_SELFOVERLAP>
933.137

> <PUBCHEM_SHAPE_VOLUME>
235.5

> <PUBCHEM_COORDINATE_TYPE>
2
5
10

$$$$
