130374
  -OEChem-03292013323D

 25 26  0     1  0  0  0  0  0999 V2000
    0.7610    0.5977   -0.4660 S   0  0  0  0  0  0  0  0  0  0  0  0
    4.2269    1.8441   -0.1635 O   0  0  0  0  0  0  0  0  0  0  0  0
    3.8257    0.4614    1.5896 O   0  0  0  0  0  0  0  0  0  0  0  0
   -2.3352    1.7749   -0.2656 N   0  0  0  0  0  0  0  0  0  0  0  0
    4.2694   -1.5077   -0.5533 N   0  0  0  0  0  0  0  0  0  0  0  0
   -0.7990   -1.5524    0.0410 N   0  0  0  0  0  0  0  0  0  0  0  0
   -4.2263    0.6626    0.1278 N   0  0  0  0  0  0  0  0  0  0  0  0
   -3.2211   -1.5413    0.3325 N   0  0  0  0  0  0  0  0  0  0  0  0
    3.3689   -0.3563   -0.6402 C   0  0  1  0  0  0  0  0  0  0  0  0
    1.9252   -0.8015   -0.3996 C   0  0  0  0  0  0  0  0  0  0  0  0
   -1.9716    0.4669   -0.1161 C   0  0  0  0  0  0  0  0  0  0  0  0
   -0.7947   -0.2278   -0.1556 C   0  0  0  0  0  0  0  0  0  0  0  0
   -3.1628   -0.2035    0.1272 C   0  0  0  0  0  0  0  0  0  0  0  0
    3.8332    0.6651    0.3811 C   0  0  0  0  0  0  0  0  0  0  0  0
   -3.6947    1.8425   -0.1111 C   0  0  0  0  0  0  0  0  0  0  0  0
   -2.0047   -2.1248    0.2717 C   0  0  0  0  0  0  0  0  0  0  0  0
    3.4596    0.0759   -1.6443 H   0  0  0  0  0  0  0  0  0  0  0  0
    1.6347   -1.5372   -1.1586 H   0  0  0  0  0  0  0  0  0  0  0  0
    1.8365   -1.2741    0.5860 H   0  0  0  0  0  0  0  0  0  0  0  0
   -1.7169    2.5526   -0.4555 H   0  0  0  0  0  0  0  0  0  0  0  0
    5.2128   -1.2241   -0.8161 H   0  0  0  0  0  0  0  0  0  0  0  0
    3.9870   -2.2145   -1.2315 H   0  0  0  0  0  0  0  0  0  0  0  0
   -4.2313    2.7776   -0.1845 H   0  0  0  0  0  0  0  0  0  0  0  0
   -1.9900   -3.1980    0.4290 H   0  0  0  0  0  0  0  0  0  0  0  0
    4.5055    2.4887    0.5215 H   0  0  0  0  0  0  0  0  0  0  0  0
  1 10  1  0  0  0  0
  1 12  1  0  0  0  0
  2 14  1  0  0  0  0
  2 25  1  0  0  0  0
  3 14  2  0  0  0  0
  4 11  1  0  0  0  0
  4 15  1  0  0  0  0
  4 20  1  0  0  0  0
  5  9  1  0  0  0  0
  5 21  1  0  0  0  0
  5 22  1  0  0  0  0
  6 12  2  0  0  0  0
  6 16  1  0  0  0  0
  7 13  1  0  0  0  0
  7 15  2  0  0  0  0
  8 13  1  0  0  0  0
  8 16  2  0  0  0  0
  9 10  1  0  0  0  0
  9 14  1  0  0  0  0
  9 17  1  0  0  0  0
 10 18  1  0  0  0  0
 10 19  1  0  0  0  0
 11 12  1  0  0  0  0
 11 13  2  0  0  0  0
 15 23  1  0  0  0  0
 16 24  1  0  0  0  0
M  END
> <PUBCHEM_COMPOUND_CID>
130374

> <PUBCHEM_CONFORMER_RMSD>
0.6

> <PUBCHEM_CONFORMER_DIVERSEORDER>
1
60
61
64
10
71
52
66
27
79
26
55
3
7
56
70
68
2
77
19
58
65
11
49
50
78
63
29
6
76
8
48
23
15
34
37
59
28
75
40
42
67
41
38
72
18
30
46
35
74
24
39
12
4
36
21
45
53
16
9
14
69
44
22
54
31
51
20
25
73
5
13
32
43
33
47
57
17
62

> <PUBCHEM_MMFF94_PARTIAL_CHARGES>
22
1 -0.33
10 0.23
11 -0.15
12 0.41
13 0.48
14 0.66
15 0.04
16 0.47
2 -0.65
20 0.27
21 0.36
22 0.36
23 0.15
24 0.15
25 0.5
3 -0.57
4 0.03
5 -0.99
6 -0.62
7 -0.57
8 -0.57
9 0.33

> <PUBCHEM_EFFECTIVE_ROTOR_COUNT>
4

> <PUBCHEM_PHARMACOPHORE_FEATURES>
11
1 2 acceptor
1 3 acceptor
1 4 donor
1 5 cation
1 5 donor
1 6 acceptor
3 2 3 14 anion
3 4 7 15 cation
3 6 8 16 cation
5 4 7 11 13 15 rings
6 6 8 11 12 13 16 rings

> <PUBCHEM_HEAVY_ATOM_COUNT>
16

> <PUBCHEM_ATOM_DEF_STEREO_COUNT>
1

> <PUBCHEM_ATOM_UDEF_STEREO_COUNT>
0

> <PUBCHEM_BOND_DEF_STEREO_COUNT>
0

> <PUBCHEM_BOND_UDEF_STEREO_COUNT>
0

> <PUBCHEM_ISOTOPIC_ATOM_COUNT>
0

> <PUBCHEM_COMPONENT_COUNT>
1

> <PUBCHEM_CACTVS_TAUTO_COUNT>
4

> <PUBCHEM_CONFORMER_ID>
0001FD4600000001

> <PUBCHEM_MMFF94_ENERGY>
23.3391

> <PUBCHEM_FEATURE_SELFOVERLAP>
56.011

> <PUBCHEM_SHAPE_FINGERPRINT>
10014705 185 18334853914161707133
10608611 8 18413108364001727748
11132069 177 18334295357595663765
11405975 8 18340770356028822690
11543360 7 16343407458490367141
12173636 292 18409445856499532159
122479 349 18342175548662560717
12500047 106 18342453768434050902
12507560 40 18343022207434739438
13296908 3 18413673517436993238
13675066 3 18113908143022701523
14289901 80 18339361971785672138
15196674 1 18410577288002446390
15219456 202 18272934929438129622
15375358 24 18343019986461822342
15536298 74 18412265017192945534
18186145 218 18129954394401844546
20510252 161 18341337751252069067
20528008 55 18343301452896019108
20645477 56 18408609141025263621
20645477 70 17418098672426985310
21065198 57 18411983550953869022
21065199 12 18411701019314879338
22943178 12 18272093798800914702
23402539 116 18412258455063133855
23557571 272 18271821162565959119
23559900 14 18342178830682317094
3545911 37 18413111671411577148
4214541 1 18410295796172901148
495365 180 17774428392061278990
5104073 3 18410295813205181962
573450 72 18114451327531332802
69090 78 18343299258394837695
77779 3 18410578392204647838
90316 7 17458621190163437189
9709674 26 18411706516730983278

> <PUBCHEM_SHAPE_MULTIPOLES>
296.48
9.31
2.01
0.81
5.5
0.18
-0.17
-2.17
-0.76
-0.93
0.01
0.69
-0.04
0.69

> <PUBCHEM_SHAPE_SELFOVERLAP>
618.38

> <PUBCHEM_SHAPE_VOLUME>
169.9

> <PUBCHEM_COORDINATE_TYPE>
2
5
10

$$$$
