130346
  -OEChem-03292013323D

 36 38  0     1  0  0  0  0  0999 V2000
    2.2651   -1.9711   -1.8743 O   0  0  0  0  0  0  0  0  0  0  0  0
    2.1764    1.4655   -0.9196 O   0  0  0  0  0  0  0  0  0  0  0  0
    5.0686    1.1708    0.7086 O   0  0  0  0  0  0  0  0  0  0  0  0
   -0.3985   -1.3186    0.2070 N   0  0  0  0  0  0  0  0  0  0  0  0
   -2.4965   -2.0385    0.4241 N   0  0  0  0  0  0  0  0  0  0  0  0
   -0.8037    1.0510   -0.1401 N   0  0  0  0  0  0  0  0  0  0  0  0
   -3.1908    1.5569   -0.0976 N   0  0  0  0  0  0  0  0  0  0  0  0
   -4.8554   -0.1273    0.2488 N   0  0  0  0  0  0  0  0  0  0  0  0
   -1.5914    3.2342   -0.4367 N   0  0  0  0  0  0  0  0  0  0  0  0
    1.0601   -1.3610    0.1388 C   0  0  2  0  0  0  0  0  0  0  0  0
    3.1030   -0.1829    0.6028 C   0  0  1  0  0  0  0  0  0  0  0  0
    1.7519   -0.5282    1.2297 C   0  0  0  0  0  0  0  0  0  0  0  0
    1.6487   -0.8719   -1.2075 C   0  0  1  0  0  0  0  0  0  0  0  0
    2.7286    0.1555   -0.8455 C   0  0  1  0  0  0  0  0  0  0  0  0
    3.8283    0.9255    1.3496 C   0  0  0  0  0  0  0  0  0  0  0  0
   -1.1916   -0.2149    0.0760 C   0  0  0  0  0  0  0  0  0  0  0  0
   -1.2273   -2.3889    0.4139 C   0  0  0  0  0  0  0  0  0  0  0  0
   -2.4888   -0.6823    0.2142 C   0  0  0  0  0  0  0  0  0  0  0  0
   -3.5096    0.2582    0.1203 C   0  0  0  0  0  0  0  0  0  0  0  0
   -1.8771    1.8680   -0.2126 C   0  0  0  0  0  0  0  0  0  0  0  0
    1.3344   -2.4144    0.2908 H   0  0  0  0  0  0  0  0  0  0  0  0
    3.7352   -1.0819    0.5895 H   0  0  0  0  0  0  0  0  0  0  0  0
    1.8694   -1.1027    2.1551 H   0  0  0  0  0  0  0  0  0  0  0  0
    1.1941    0.3803    1.4820 H   0  0  0  0  0  0  0  0  0  0  0  0
    0.8985   -0.4493   -1.8841 H   0  0  0  0  0  0  0  0  0  0  0  0
    3.5938    0.1024   -1.5151 H   0  0  0  0  0  0  0  0  0  0  0  0
    4.0308    0.6152    2.3803 H   0  0  0  0  0  0  0  0  0  0  0  0
    3.2523    1.8557    1.3833 H   0  0  0  0  0  0  0  0  0  0  0  0
    1.5676   -2.6212   -2.0657 H   0  0  0  0  0  0  0  0  0  0  0  0
    2.9109    2.0982   -0.8470 H   0  0  0  0  0  0  0  0  0  0  0  0
   -0.8545   -3.3950    0.5500 H   0  0  0  0  0  0  0  0  0  0  0  0
    5.5173    1.8716    1.2116 H   0  0  0  0  0  0  0  0  0  0  0  0
   -5.0959   -1.0956    0.4121 H   0  0  0  0  0  0  0  0  0  0  0  0
   -5.5789    0.5750    0.1774 H   0  0  0  0  0  0  0  0  0  0  0  0
   -0.6300    3.5311   -0.5313 H   0  0  0  0  0  0  0  0  0  0  0  0
   -2.3519    3.8967   -0.5007 H   0  0  0  0  0  0  0  0  0  0  0  0
  1 13  1  0  0  0  0
  1 29  1  0  0  0  0
  2 14  1  0  0  0  0
  2 30  1  0  0  0  0
  3 15  1  0  0  0  0
  3 32  1  0  0  0  0
  4 10  1  0  0  0  0
  4 16  1  0  0  0  0
  4 17  1  0  0  0  0
  5 17  2  0  0  0  0
  5 18  1  0  0  0  0
  6 16  2  0  0  0  0
  6 20  1  0  0  0  0
  7 19  1  0  0  0  0
  7 20  2  0  0  0  0
  8 19  1  0  0  0  0
  8 33  1  0  0  0  0
  8 34  1  0  0  0  0
  9 20  1  0  0  0  0
  9 35  1  0  0  0  0
  9 36  1  0  0  0  0
 10 12  1  0  0  0  0
 10 13  1  0  0  0  0
 10 21  1  0  0  0  0
 11 12  1  0  0  0  0
 11 14  1  0  0  0  0
 11 15  1  0  0  0  0
 11 22  1  0  0  0  0
 12 23  1  0  0  0  0
 12 24  1  0  0  0  0
 13 14  1  0  0  0  0
 13 25  1  0  0  0  0
 14 26  1  0  0  0  0
 15 27  1  0  0  0  0
 15 28  1  0  0  0  0
 16 18  1  0  0  0  0
 17 31  1  0  0  0  0
 18 19  2  0  0  0  0
M  END
> <PUBCHEM_COMPOUND_CID>
130346

> <PUBCHEM_CONFORMER_RMSD>
0.6

> <PUBCHEM_CONFORMER_DIVERSEORDER>
1
74
98
52
39
78
133
20
94
43
48
81
115
106
88
144
77
28
110
50
36
156
35
150
117
114
152
111
73
82
31
132
49
41
121
146
127
155
24
5
116
7
16
71
65
124
62
161
3
15
166
69
4
165
85
107
75
157
27
136
67
66
139
84
99
11
113
76
96
18
64
86
162
138
46
37
153
97
122
9
109
125
72
2
92
80
45
6
87
83
32
151
140
118
47
129
154
61
100
159
10
44
105
142
51
14
135
149
21
23
19
68
89
25
26
112
8
134
104
91
57
145
22
29
90
38
137
103
56
30
17
163
34
160
119
158
123
147
59
131
33
13
58
143
164
60
130
12
93
141
79
70
53
102
95
55
148
120
54
126
101
40
63
42
108
128

> <PUBCHEM_MMFF94_PARTIAL_CHARGES>
26
1 -0.68
10 0.26
13 0.28
14 0.28
15 0.28
16 0.11
17 0.04
18 0.23
19 0.41
2 -0.68
20 0.72
29 0.4
3 -0.68
30 0.4
31 0.15
32 0.4
33 0.4
34 0.4
35 0.4
36 0.4
4 0.05
5 -0.57
6 -0.57
7 -0.62
8 -0.9
9 -0.9

> <PUBCHEM_EFFECTIVE_ROTOR_COUNT>
3

> <PUBCHEM_PHARMACOPHORE_FEATURES>
14
1 1 acceptor
1 1 donor
1 2 acceptor
1 2 donor
1 3 acceptor
1 3 donor
1 8 cation
1 8 donor
1 9 donor
3 4 5 17 cation
4 6 7 9 20 cation
5 10 11 12 13 14 rings
5 4 5 16 17 18 rings
6 6 7 16 18 19 20 rings

> <PUBCHEM_HEAVY_ATOM_COUNT>
20

> <PUBCHEM_ATOM_DEF_STEREO_COUNT>
0

> <PUBCHEM_ATOM_UDEF_STEREO_COUNT>
4

> <PUBCHEM_BOND_DEF_STEREO_COUNT>
0

> <PUBCHEM_BOND_UDEF_STEREO_COUNT>
0

> <PUBCHEM_ISOTOPIC_ATOM_COUNT>
0

> <PUBCHEM_COMPONENT_COUNT>
1

> <PUBCHEM_CACTVS_TAUTO_COUNT>
9

> <PUBCHEM_CONFORMER_ID>
0001FD2A00000001

> <PUBCHEM_MMFF94_ENERGY>
52.6474

> <PUBCHEM_FEATURE_SELFOVERLAP>
71.182

> <PUBCHEM_SHAPE_FINGERPRINT>
10498660 4 18263926544994233941
10608611 8 18342174423576281890
10646746 165 18410573972852105288
10871710 139 16181279328242483664
10967382 1 18335708247475583869
11132069 177 18411421734697565147
11640471 11 17024051391396096982
11715629 250 18342737377676984087
11759241 127 18059845203534877573
12173636 292 18264767654246549829
12236239 1 17385439938449719642
12251169 10 18114176458425267624
12596602 18 16950560034501777024
13140716 1 18191871343026139273
13214271 11 18270396217082175287
13538477 17 17894636971533563299
13583140 156 16587739846146791361
13764800 53 18260562099421254507
13965767 371 17391628883033693428
15219456 202 18202568371515091134
16945 1 18261683575543482419
17846911 113 18408319990978775363
17980427 23 18191578860143227316
18186145 218 18196661691971099645
18915476 22 17417826019350179710
20510252 161 18341331085463202465
20559304 39 17894913979807414218
20645477 70 16988853748095839966
20715895 44 17751905936033710877
22802520 49 18128552482527099710
23114952 82 17917159282060011870
2334 1 17975702997697727589
23402539 116 18339631356155371943
23419403 2 17396386856588809647
23557571 272 18270403922221972890
23559900 14 18339372867980760470
2748010 2 18119253852777370061
350125 39 18047758096291299267
3524813 1 18201708596176807960
474 4 16589732259926769028
5104073 3 18264774268479913771
5939293 188 18265337385573731100
633830 44 17985824827134411877
7097593 13 17968361374086743538
7364860 26 18267300924483853202
77492 1 17240486926576662286
81228 2 18337125500725895865
9709674 26 18341898476011803151
9925002 15 16763936846063743502

> <PUBCHEM_SHAPE_MULTIPOLES>
364.1
7.46
2.49
1.14
1.2
0.72
-0.22
2.27
1.55
-1.23
-0.34
1.26
-0.25
0.96

> <PUBCHEM_SHAPE_SELFOVERLAP>
790.021

> <PUBCHEM_SHAPE_VOLUME>
197.9

> <PUBCHEM_COORDINATE_TYPE>
2
5
10

$$$$
