130321
  -OEChem-03292013323D

 34 33  0     1  0  0  0  0  0999 V2000
   -6.2376    1.6571   -1.4865 Cl  0  0  0  0  0  0  0  0  0  0  0  0
    1.4664   -1.7849    0.1679 O   0  0  0  0  0  0  0  0  0  0  0  0
   -1.9481    1.6676    0.7204 O   0  0  0  0  0  0  0  0  0  0  0  0
    4.8707    1.4701    0.4787 O   0  0  0  0  0  0  0  0  0  0  0  0
    6.1899    0.0483   -0.6844 O   0  0  0  0  0  0  0  0  0  0  0  0
   -4.1780   -2.2594   -0.1629 O   0  0  0  0  0  0  0  0  0  0  0  0
    2.6378    0.2045   -0.0669 N   0  0  0  0  0  0  0  0  0  0  0  0
   -0.8022   -0.3261    0.7015 N   0  0  0  0  0  0  0  0  0  0  0  0
   -3.1313   -0.2738    0.2706 N   0  0  0  0  0  0  0  0  0  0  0  0
   -3.0818   -1.7546    0.1023 N   0  0  0  0  0  0  0  0  0  0  0  0
    0.4755    0.2609    1.0086 C   0  0  2  0  0  0  0  0  0  0  0  0
    3.8069   -0.3568   -0.7027 C   0  0  1  0  0  0  0  0  0  0  0  0
    1.5516   -0.5681    0.3198 C   0  0  0  0  0  0  0  0  0  0  0  0
    0.7115    0.3184    2.5099 C   0  0  0  0  0  0  0  0  0  0  0  0
    3.6393   -0.3698   -2.2146 C   0  0  0  0  0  0  0  0  0  0  0  0
   -1.9620    0.4410    0.5745 C   0  0  0  0  0  0  0  0  0  0  0  0
   -4.4127    0.4014    0.1078 C   0  0  0  0  0  0  0  0  0  0  0  0
    5.0714    0.3924   -0.3170 C   0  0  0  0  0  0  0  0  0  0  0  0
   -4.6675    0.8317   -1.3269 C   0  0  0  0  0  0  0  0  0  0  0  0
    0.4944    1.2802    0.6050 H   0  0  0  0  0  0  0  0  0  0  0  0
    3.9269   -1.3837   -0.3371 H   0  0  0  0  0  0  0  0  0  0  0  0
    2.6198    1.2071    0.0968 H   0  0  0  0  0  0  0  0  0  0  0  0
   -0.8455   -1.3354    0.6149 H   0  0  0  0  0  0  0  0  0  0  0  0
    0.6950   -0.6844    2.9520 H   0  0  0  0  0  0  0  0  0  0  0  0
    1.6860    0.7635    2.7369 H   0  0  0  0  0  0  0  0  0  0  0  0
   -0.0612    0.9138    3.0077 H   0  0  0  0  0  0  0  0  0  0  0  0
    3.5275    0.6473   -2.6076 H   0  0  0  0  0  0  0  0  0  0  0  0
    4.5090   -0.8201   -2.7048 H   0  0  0  0  0  0  0  0  0  0  0  0
    2.7513   -0.9395   -2.5084 H   0  0  0  0  0  0  0  0  0  0  0  0
   -5.2215   -0.2350    0.4855 H   0  0  0  0  0  0  0  0  0  0  0  0
   -4.4076    1.2919    0.7490 H   0  0  0  0  0  0  0  0  0  0  0  0
   -3.8924    1.5215   -1.6753 H   0  0  0  0  0  0  0  0  0  0  0  0
   -4.6778   -0.0297   -2.0018 H   0  0  0  0  0  0  0  0  0  0  0  0
    5.7122    1.9196    0.7066 H   0  0  0  0  0  0  0  0  0  0  0  0
  1 19  1  0  0  0  0
  2 13  2  0  0  0  0
  3 16  2  0  0  0  0
  4 18  1  0  0  0  0
  4 34  1  0  0  0  0
  5 18  2  0  0  0  0
  6 10  2  0  0  0  0
  7 12  1  0  0  0  0
  7 13  1  0  0  0  0
  7 22  1  0  0  0  0
  8 11  1  0  0  0  0
  8 16  1  0  0  0  0
  8 23  1  0  0  0  0
  9 10  1  0  0  0  0
  9 16  1  0  0  0  0
  9 17  1  0  0  0  0
 11 13  1  0  0  0  0
 11 14  1  0  0  0  0
 11 20  1  0  0  0  0
 12 15  1  0  0  0  0
 12 18  1  0  0  0  0
 12 21  1  0  0  0  0
 14 24  1  0  0  0  0
 14 25  1  0  0  0  0
 14 26  1  0  0  0  0
 15 27  1  0  0  0  0
 15 28  1  0  0  0  0
 15 29  1  0  0  0  0
 17 19  1  0  0  0  0
 17 30  1  0  0  0  0
 17 31  1  0  0  0  0
 19 32  1  0  0  0  0
 19 33  1  0  0  0  0
M  END
> <PUBCHEM_COMPOUND_CID>
130321

> <PUBCHEM_CONFORMER_RMSD>
1

> <PUBCHEM_CONFORMER_DIVERSEORDER>
1
11
34
16
26
19
6
3
38
53
14
40
59
13
17
24
15
64
20
36
37
31
27
48
30
25
45
41
61
54
23
43
66
8
4
55
39
29
50
7
9
56
32
28
63
65
47
18
44
5
49
2
42
33
46
58
10
57
35
22
52
12
21
62
60
51

> <PUBCHEM_MMFF94_PARTIAL_CHARGES>
20
1 -0.29
10 -0.02
11 0.36
12 0.36
13 0.57
16 0.69
17 0.3
18 0.66
19 0.29
2 -0.57
22 0.37
23 0.37
3 -0.57
34 0.5
4 -0.65
5 -0.57
6 -0.16
7 -0.73
8 -0.73
9 -0.18

> <PUBCHEM_EFFECTIVE_ROTOR_COUNT>
10

> <PUBCHEM_PHARMACOPHORE_FEATURES>
7
1 2 acceptor
1 3 acceptor
1 4 acceptor
1 5 acceptor
1 7 donor
1 8 donor
3 4 5 18 anion

> <PUBCHEM_HEAVY_ATOM_COUNT>
19

> <PUBCHEM_ATOM_DEF_STEREO_COUNT>
2

> <PUBCHEM_ATOM_UDEF_STEREO_COUNT>
0

> <PUBCHEM_BOND_DEF_STEREO_COUNT>
0

> <PUBCHEM_BOND_UDEF_STEREO_COUNT>
0

> <PUBCHEM_ISOTOPIC_ATOM_COUNT>
0

> <PUBCHEM_COMPONENT_COUNT>
1

> <PUBCHEM_CACTVS_TAUTO_COUNT>
4

> <PUBCHEM_CONFORMER_ID>
0001FD1100000001

> <PUBCHEM_MMFF94_ENERGY>
32.6174

> <PUBCHEM_FEATURE_SELFOVERLAP>
35.584

> <PUBCHEM_SHAPE_FINGERPRINT>
10366900 7 17703782601123447883
10498660 4 18410012134968146447
12119455 92 14562525219517669570
12251169 10 8646764482669447683
12596602 18 12031782569772062206
12892183 10 9655583984665647645
12895836 83 18113610158967256365
14251764 30 12679472975732039380
14576447 43 15841549661264137436
1813 80 13829860127448136144
18222031 100 15482664671868903674
19784866 240 14548729630271233013
20281475 54 14692299391617427878
20645477 70 16916768709269436225
20871999 31 18131069282202814961
21637258 2 14548729586635725469
22950370 63 14405192750640404696
23402539 116 17385725811435933550
23402655 69 18186800249316966565
23559900 14 18201991166670742369
300161 21 18260261941020249443
314194 84 16056885736240406150
351380 180 16225769622981882412
351380 3 14045734915808828621
4259306 186 16917071040132511373
57724786 102 14779845883318151974
58051976 378 18201443549549906014
59755656 520 15719395027208511499

> <PUBCHEM_SHAPE_MULTIPOLES>
343.61
14.09
1.71
1.57
0.84
0.17
0.51
8.89
-2.12
0.35
-0.27
1.1
-0.25
-1.6

> <PUBCHEM_SHAPE_SELFOVERLAP>
654.622

> <PUBCHEM_SHAPE_VOLUME>
210.8

> <PUBCHEM_COORDINATE_TYPE>
2
5
10

$$$$
