130332
  -OEChem-03292013323D

 41 42  0     1  0  0  0  0  0999 V2000
   -2.6863    0.0285    0.3462 O   0  0  0  0  0  0  0  0  0  0  0  0
   -3.1957    2.1928   -1.3648 O   0  0  0  0  0  0  0  0  0  0  0  0
   -1.7059   -3.1759    0.9866 O   0  0  0  0  0  0  0  0  0  0  0  0
    2.8031   -2.6435    0.2559 O   0  0  0  0  0  0  0  0  0  0  0  0
   -0.9994   -1.4200   -0.3773 N   0  0  0  0  0  0  0  0  0  0  0  0
    0.5401   -2.8983    0.6143 N   0  0  0  0  0  0  0  0  0  0  0  0
   -5.6496    2.0645    1.1929 N   0  0  0  0  0  0  0  0  0  0  0  0
   -4.0050    0.5248    0.1611 C   0  0  1  0  0  0  0  0  0  0  0  0
    1.3398   -1.0955   -0.7915 C   0  0  0  0  0  0  0  0  0  0  0  0
   -2.3459   -0.9282   -0.6458 C   0  0  0  0  0  0  0  0  0  0  0  0
    2.4823   -0.3653   -1.4209 C   0  0  0  0  0  0  0  0  0  0  0  0
    0.0575   -0.7482   -0.9567 C   0  0  0  0  0  0  0  0  0  0  0  0
   -4.2909    1.5447    1.2658 C   0  0  0  0  0  0  0  0  0  0  0  0
   -4.1141    1.1109   -1.2449 C   0  0  0  0  0  0  0  0  0  0  0  0
    3.0057    0.7470   -0.5531 C   0  0  0  0  0  0  0  0  0  0  0  0
   -0.8013   -2.5381    0.4437 C   0  0  0  0  0  0  0  0  0  0  0  0
    1.6482   -2.2720    0.0643 C   0  0  0  0  0  0  0  0  0  0  0  0
    4.0195    0.4844    0.3583 C   0  0  0  0  0  0  0  0  0  0  0  0
    2.4680    2.0210   -0.6750 C   0  0  0  0  0  0  0  0  0  0  0  0
    4.5048    1.5153    1.1628 C   0  0  0  0  0  0  0  0  0  0  0  0
    2.9533    3.0520    0.1295 C   0  0  0  0  0  0  0  0  0  0  0  0
    3.9717    2.7992    1.0485 C   0  0  0  0  0  0  0  0  0  0  0  0
   -4.7095   -0.3116    0.2603 H   0  0  0  0  0  0  0  0  0  0  0  0
   -3.0477   -1.7693   -0.6031 H   0  0  0  0  0  0  0  0  0  0  0  0
   -2.3298   -0.5281   -1.6615 H   0  0  0  0  0  0  0  0  0  0  0  0
    2.1709    0.0515   -2.3891 H   0  0  0  0  0  0  0  0  0  0  0  0
    3.2952   -1.0560   -1.6801 H   0  0  0  0  0  0  0  0  0  0  0  0
   -0.2028    0.1086   -1.5707 H   0  0  0  0  0  0  0  0  0  0  0  0
   -3.5753    2.3737    1.2210 H   0  0  0  0  0  0  0  0  0  0  0  0
   -4.1359    1.0709    2.2427 H   0  0  0  0  0  0  0  0  0  0  0  0
   -5.1163    1.5249   -1.4011 H   0  0  0  0  0  0  0  0  0  0  0  0
   -3.9642    0.4105   -2.0683 H   0  0  0  0  0  0  0  0  0  0  0  0
    0.7202   -3.7059    1.2043 H   0  0  0  0  0  0  0  0  0  0  0  0
    4.4497   -0.5080    0.4535 H   0  0  0  0  0  0  0  0  0  0  0  0
    1.6744    2.2302   -1.3867 H   0  0  0  0  0  0  0  0  0  0  0  0
   -5.8190    2.6823    1.9854 H   0  0  0  0  0  0  0  0  0  0  0  0
   -6.3156    1.2980    1.2799 H   0  0  0  0  0  0  0  0  0  0  0  0
    5.2989    1.3188    1.8772 H   0  0  0  0  0  0  0  0  0  0  0  0
    2.5382    4.0517    0.0406 H   0  0  0  0  0  0  0  0  0  0  0  0
   -2.3022    1.8376   -1.2209 H   0  0  0  0  0  0  0  0  0  0  0  0
    4.3498    3.6020    1.6747 H   0  0  0  0  0  0  0  0  0  0  0  0
  1  8  1  0  0  0  0
  1 10  1  0  0  0  0
  2 14  1  0  0  0  0
  2 40  1  0  0  0  0
  3 16  2  0  0  0  0
  4 17  2  0  0  0  0
  5 10  1  0  0  0  0
  5 12  1  0  0  0  0
  5 16  1  0  0  0  0
  6 16  1  0  0  0  0
  6 17  1  0  0  0  0
  6 33  1  0  0  0  0
  7 13  1  0  0  0  0
  7 36  1  0  0  0  0
  7 37  1  0  0  0  0
  8 13  1  0  0  0  0
  8 14  1  0  0  0  0
  8 23  1  0  0  0  0
  9 11  1  0  0  0  0
  9 12  2  0  0  0  0
  9 17  1  0  0  0  0
 10 24  1  0  0  0  0
 10 25  1  0  0  0  0
 11 15  1  0  0  0  0
 11 26  1  0  0  0  0
 11 27  1  0  0  0  0
 12 28  1  0  0  0  0
 13 29  1  0  0  0  0
 13 30  1  0  0  0  0
 14 31  1  0  0  0  0
 14 32  1  0  0  0  0
 15 18  2  0  0  0  0
 15 19  1  0  0  0  0
 18 20  1  0  0  0  0
 18 34  1  0  0  0  0
 19 21  2  0  0  0  0
 19 35  1  0  0  0  0
 20 22  2  0  0  0  0
 20 38  1  0  0  0  0
 21 22  1  0  0  0  0
 21 39  1  0  0  0  0
 22 41  1  0  0  0  0
M  END
> <PUBCHEM_COMPOUND_CID>
130332

> <PUBCHEM_CONFORMER_RMSD>
0.8

> <PUBCHEM_CONFORMER_DIVERSEORDER>
2
57
133
151
85
89
100
132
146
161
136
68
27
170
97
159
180
143
81
75
18
182
162
114
74
126
131
62
82
118
29
173
184
134
169
119
83
7
163
116
117
165
178
102
166
42
59
147
8
185
31
13
77
188
67
45
87
41
91
124
16
108
92
69
80
129
12
9
113
127
23
104
111
20
186
171
11
168
66
110
122
145
78
152
98
154
109
33
183
84
72
36
177
54
115
48
71
138
56
76
90
153
175
6
121
142
15
176
172
156
106
58
37
22
95
158
128
86
44
101
32
144
94
17
96
179
60
3
107
125
53
187
157
139
181
61
40
73
5
43
63
14
135
64
141
50
130
19
155
55
160
38
10
47
99
46
120
150
39
51
21
34
112
174
123
167
103
65
148
70
52
105
26
93
149
35
137
140
30
164
25
79
28
1
49
88
4
24

> <PUBCHEM_MMFF94_PARTIAL_CHARGES>
32
1 -0.56
10 0.58
11 0.28
12 -0.04
13 0.27
14 0.28
15 -0.14
16 0.69
17 0.62
18 -0.15
19 -0.15
2 -0.68
20 -0.15
21 -0.15
22 -0.15
28 0.15
3 -0.57
33 0.37
34 0.15
35 0.15
36 0.36
37 0.36
38 0.15
39 0.15
4 -0.57
40 0.4
41 0.15
5 -0.47
6 -0.49
7 -0.99
8 0.28
9 -0.12

> <PUBCHEM_EFFECTIVE_ROTOR_COUNT>
7

> <PUBCHEM_PHARMACOPHORE_FEATURES>
10
1 1 acceptor
1 2 acceptor
1 2 donor
1 3 acceptor
1 4 acceptor
1 6 donor
1 7 cation
1 7 donor
6 15 18 19 20 21 22 rings
6 5 6 9 12 16 17 rings

> <PUBCHEM_HEAVY_ATOM_COUNT>
22

> <PUBCHEM_ATOM_DEF_STEREO_COUNT>
0

> <PUBCHEM_ATOM_UDEF_STEREO_COUNT>
1

> <PUBCHEM_BOND_DEF_STEREO_COUNT>
0

> <PUBCHEM_BOND_UDEF_STEREO_COUNT>
0

> <PUBCHEM_ISOTOPIC_ATOM_COUNT>
0

> <PUBCHEM_COMPONENT_COUNT>
1

> <PUBCHEM_CACTVS_TAUTO_COUNT>
3

> <PUBCHEM_CONFORMER_ID>
0001FD1C00000002

> <PUBCHEM_MMFF94_ENERGY>
49.7594

> <PUBCHEM_FEATURE_SELFOVERLAP>
50.75

> <PUBCHEM_SHAPE_FINGERPRINT>
10928967 22 8141542244008236320
11370993 70 18337663204561280076
11725454 13 17916011533707164974
12107183 9 18336248129687218784
12633257 1 18115288073587434080
12788726 201 17543080424980109302
12925494 130 18048318839281325433
13103583 49 14273728508830887165
13590594 115 17836649626191057346
13878862 14 18117546337401227589
13965767 371 18187074079426236604
14178342 30 18041844055094975078
14251764 30 13479675492529145832
14251764 38 18199467860198889664
14429115 67 11747227883025855321
14466204 15 18339065086804186632
14848178 96 18413387648313437516
15295992 7 18335997375799679851
15475509 84 17324361809628252152
18186145 218 18339932510830332751
19752476 56 18060704957224556560
21033648 29 17895189953179114517
21401589 2 18271526519451634257
21475661 188 18342461469294692372
21864079 5 17916313740612657497
22122407 14 17910409290621819857
22182937 141 18339365287363092771
22749437 52 18340769355000995996
23559900 14 18272374131538169486
23845131 108 18334018277030386963
26353 1 12895078430814299578
2838139 119 17489580208271583480
3187 122 17684646915338436345
474 4 18412541011627641707
5104073 3 18334864875171467587
5895379 119 16627726725563443808
6328613 192 18265898141769723852
633830 44 18058735697977094143
7808743 9 18042987543098364060
9981440 41 18268138941180179754

> <PUBCHEM_SHAPE_MULTIPOLES>
414.33
10
4.02
1.3
6.45
1.05
-0.09
-10.15
2.61
-0.78
1.17
0.44
-0.38
0.49

> <PUBCHEM_SHAPE_SELFOVERLAP>
865.16

> <PUBCHEM_SHAPE_VOLUME>
232.7

> <PUBCHEM_COORDINATE_TYPE>
2
5
10

$$$$
