130417
  -OEChem-03292013323D

 45 47  0     1  0  0  0  0  0999 V2000
   -1.5652    1.2585    2.6292 Br  0  0  0  0  0  0  0  0  0  0  0  0
    0.6500   -1.1707   -0.9774 O   0  0  0  0  0  0  0  0  0  0  0  0
    2.8058    1.0964   -0.7837 O   0  0  0  0  0  0  0  0  0  0  0  0
    3.3145   -0.1528    1.1346 O   0  0  0  0  0  0  0  0  0  0  0  0
   -2.2317   -1.2420   -0.5799 O   0  0  0  0  0  0  0  0  0  0  0  0
    1.0460   -3.8285   -0.1635 O   0  0  0  0  0  0  0  0  0  0  0  0
   -0.9408    2.4700   -2.0048 O   0  0  0  0  0  0  0  0  0  0  0  0
   -4.4083    1.7730    0.9132 O   0  0  0  0  0  0  0  0  0  0  0  0
   -0.7950    0.6137   -0.6090 N   0  0  0  0  0  0  0  0  0  0  0  0
   -2.7065    1.9938   -0.6246 N   0  0  0  0  0  0  0  0  0  0  0  0
    1.5847    0.8291   -0.0898 C   0  0  2  0  0  0  0  0  0  0  0  0
    1.9379   -0.3133    0.8169 C   0  0  1  0  0  0  0  0  0  0  0  0
    0.5353    0.2598   -1.0209 C   0  0  1  0  0  0  0  0  0  0  0  0
    1.6913   -1.5340   -0.0587 C   0  0  1  0  0  0  0  0  0  0  0  0
    3.8354    0.7638    0.1594 C   0  0  0  0  0  0  0  0  0  0  0  0
    1.2602   -2.7545    0.7356 C   0  0  0  0  0  0  0  0  0  0  0  0
   -1.5092   -0.3292    0.2446 C   0  0  1  0  0  0  0  0  0  0  0  0
    4.2931    2.0300    0.8793 C   0  0  0  0  0  0  0  0  0  0  0  0
    4.9959    0.1146   -0.5819 C   0  0  0  0  0  0  0  0  0  0  0  0
   -1.4353    1.7325   -1.1491 C   0  0  0  0  0  0  0  0  0  0  0  0
   -2.4929    0.3539    1.1734 C   0  0  2  0  0  0  0  0  0  0  0  0
   -3.3118    1.4148    0.4846 C   0  0  0  0  0  0  0  0  0  0  0  0
   -2.8971   -2.2251    0.1980 C   0  0  0  0  0  0  0  0  0  0  0  0
   -3.6565   -3.1537   -0.7255 C   0  0  0  0  0  0  0  0  0  0  0  0
    1.2833    1.7426    0.4333 H   0  0  0  0  0  0  0  0  0  0  0  0
    1.3364   -0.3280    1.7307 H   0  0  0  0  0  0  0  0  0  0  0  0
    0.7019    0.5830   -2.0543 H   0  0  0  0  0  0  0  0  0  0  0  0
    2.5691   -1.7938   -0.6615 H   0  0  0  0  0  0  0  0  0  0  0  0
    0.3317   -2.5931    1.2867 H   0  0  0  0  0  0  0  0  0  0  0  0
    2.0417   -3.0455    1.4449 H   0  0  0  0  0  0  0  0  0  0  0  0
   -0.8009   -0.8784    0.8628 H   0  0  0  0  0  0  0  0  0  0  0  0
    5.0790    1.8086    1.6090 H   0  0  0  0  0  0  0  0  0  0  0  0
    4.6606    2.7786    0.1698 H   0  0  0  0  0  0  0  0  0  0  0  0
    3.4638    2.4867    1.4312 H   0  0  0  0  0  0  0  0  0  0  0  0
    5.7892   -0.1894    0.1089 H   0  0  0  0  0  0  0  0  0  0  0  0
    4.6641   -0.7864   -1.1088 H   0  0  0  0  0  0  0  0  0  0  0  0
    5.4137    0.7904   -1.3356 H   0  0  0  0  0  0  0  0  0  0  0  0
   -3.1678   -0.2900    1.7315 H   0  0  0  0  0  0  0  0  0  0  0  0
   -3.2187    2.7546   -1.0626 H   0  0  0  0  0  0  0  0  0  0  0  0
    0.7818   -4.5990    0.3676 H   0  0  0  0  0  0  0  0  0  0  0  0
   -2.1732   -2.7963    0.7889 H   0  0  0  0  0  0  0  0  0  0  0  0
   -3.6648   -1.8163    0.8533 H   0  0  0  0  0  0  0  0  0  0  0  0
   -4.1804   -3.9293   -0.1596 H   0  0  0  0  0  0  0  0  0  0  0  0
   -4.3871   -2.5956   -1.3206 H   0  0  0  0  0  0  0  0  0  0  0  0
   -2.9728   -3.6357   -1.4323 H   0  0  0  0  0  0  0  0  0  0  0  0
  1 21  1  0  0  0  0
  2 13  1  0  0  0  0
  2 14  1  0  0  0  0
  3 11  1  0  0  0  0
  3 15  1  0  0  0  0
  4 12  1  0  0  0  0
  4 15  1  0  0  0  0
  5 17  1  0  0  0  0
  5 23  1  0  0  0  0
  6 16  1  0  0  0  0
  6 40  1  0  0  0  0
  7 20  2  0  0  0  0
  8 22  2  0  0  0  0
  9 13  1  0  0  0  0
  9 17  1  0  0  0  0
  9 20  1  0  0  0  0
 10 20  1  0  0  0  0
 10 22  1  0  0  0  0
 10 39  1  0  0  0  0
 11 12  1  0  0  0  0
 11 13  1  0  0  0  0
 11 25  1  0  0  0  0
 12 14  1  0  0  0  0
 12 26  1  0  0  0  0
 13 27  1  0  0  0  0
 14 16  1  0  0  0  0
 14 28  1  0  0  0  0
 15 18  1  0  0  0  0
 15 19  1  0  0  0  0
 16 29  1  0  0  0  0
 16 30  1  0  0  0  0
 17 21  1  0  0  0  0
 17 31  1  0  0  0  0
 18 32  1  0  0  0  0
 18 33  1  0  0  0  0
 18 34  1  0  0  0  0
 19 35  1  0  0  0  0
 19 36  1  0  0  0  0
 19 37  1  0  0  0  0
 21 22  1  0  0  0  0
 21 38  1  0  0  0  0
 23 24  1  0  0  0  0
 23 41  1  0  0  0  0
 23 42  1  0  0  0  0
 24 43  1  0  0  0  0
 24 44  1  0  0  0  0
 24 45  1  0  0  0  0
M  END
> <PUBCHEM_COMPOUND_CID>
130417

> <PUBCHEM_CONFORMER_RMSD>
0.8

> <PUBCHEM_CONFORMER_DIVERSEORDER>
1
9
11
6
12
3
5
4
7
13
10
8
2

> <PUBCHEM_MMFF94_PARTIAL_CHARGES>
23
1 -0.23
10 -0.49
11 0.28
12 0.28
13 0.58
14 0.28
15 0.56
16 0.28
17 0.58
2 -0.56
20 0.69
21 0.29
22 0.57
23 0.28
3 -0.56
39 0.37
4 -0.56
40 0.4
5 -0.56
6 -0.68
7 -0.57
8 -0.57
9 -0.66

> <PUBCHEM_EFFECTIVE_ROTOR_COUNT>
6

> <PUBCHEM_PHARMACOPHORE_FEATURES>
14
1 1 hydrophobe
1 10 donor
1 2 acceptor
1 3 acceptor
1 4 acceptor
1 5 acceptor
1 6 acceptor
1 6 donor
1 7 acceptor
1 8 acceptor
3 15 18 19 hydrophobe
5 2 11 12 13 14 rings
5 3 4 11 12 15 rings
6 9 10 17 20 21 22 rings

> <PUBCHEM_HEAVY_ATOM_COUNT>
24

> <PUBCHEM_ATOM_DEF_STEREO_COUNT>
6

> <PUBCHEM_ATOM_UDEF_STEREO_COUNT>
0

> <PUBCHEM_BOND_DEF_STEREO_COUNT>
0

> <PUBCHEM_BOND_UDEF_STEREO_COUNT>
0

> <PUBCHEM_ISOTOPIC_ATOM_COUNT>
0

> <PUBCHEM_COMPONENT_COUNT>
1

> <PUBCHEM_CACTVS_TAUTO_COUNT>
3

> <PUBCHEM_CONFORMER_ID>
0001FD7100000001

> <PUBCHEM_MMFF94_ENERGY>
68.986

> <PUBCHEM_FEATURE_SELFOVERLAP>
71.624

> <PUBCHEM_SHAPE_FINGERPRINT>
10366900 7 17894635833462318320
10863032 1 18343300349047369050
11132069 177 18334010609901684020
11552529 35 18201720686456725251
12390115 104 18270127936741142968
12403814 3 18260546702222220817
12633257 1 18337100164481721528
13032168 30 18268712877691365179
13140716 1 18339634556264599650
13583140 156 16343983602931578514
13764800 53 17632298969076664337
14142880 1 18339636841039430029
14178342 30 18336558187112250791
14223421 5 18412260627420039750
14251751 93 18202002153165553830
14787075 74 17627507468948222896
15309172 13 18408603669389831304
16945 1 18261947427868288868
17980427 23 17167867503814332300
19049666 15 17537153649273973484
19591789 44 18409444796070403814
19784866 170 18114474370010049372
20510252 161 18200593742909649266
20600515 1 17909844454628563639
21731228 192 18335419088807662120
23402539 116 18195802096900584447
23419403 2 17626639929195446957
23493267 7 17561091267282829795
23557571 272 17988934396003851607
23559900 14 17916875599333084446
2748010 2 17609773098132954797
283562 15 18268987764209602403
350125 39 18411698798959556322
4340502 62 18272378534026912361
469060 322 18189330341499705593
5104073 3 18341039796870946488
59554788 62 18186516592808041373
633830 44 18131627885833929436
7364860 26 18194403282240032870
81228 2 17831292067085830082

> <PUBCHEM_SHAPE_MULTIPOLES>
448.8
7.67
3.38
1.59
4.43
2.93
-0.51
-1.65
-0.72
-2.23
0.25
-0.67
-1.02
-0.47

> <PUBCHEM_SHAPE_SELFOVERLAP>
930.138

> <PUBCHEM_SHAPE_VOLUME>
263

> <PUBCHEM_COORDINATE_TYPE>
2
5
10

$$$$
