130471
  -OEChem-03292013323D

 44 47  0     1  0  0  0  0  0999 V2000
    0.1949   -2.7961   -1.8341 O   0  0  0  0  0  0  0  0  0  0  0  0
   -0.1073   -2.8581    1.8226 O   0  0  0  0  0  0  0  0  0  0  0  0
   -5.8293    2.1019    0.3257 O   0  0  0  0  0  0  0  0  0  0  0  0
    5.7853    2.1405   -0.3330 O   0  0  0  0  0  0  0  0  0  0  0  0
   -2.6110   -1.5780    0.0433 N   0  0  0  0  0  0  0  0  0  0  0  0
    2.6027   -1.5733   -0.0958 N   0  0  0  0  0  0  0  0  0  0  0  0
   -1.1333   -0.3971   -1.1239 N   0  0  0  0  0  0  0  0  0  0  0  0
    1.1573   -0.4534    1.1678 N   0  0  0  0  0  0  0  0  0  0  0  0
   -0.5215   -2.7534   -0.5815 C   0  0  1  0  0  0  0  0  0  0  0  0
    0.5433   -2.7902    0.5492 C   0  0  1  0  0  0  0  0  0  0  0  0
   -1.3910   -1.5625   -0.5737 C   0  0  0  0  0  0  0  0  0  0  0  0
    1.4270   -1.5614    0.5619 C   0  0  0  0  0  0  0  0  0  0  0  0
   -3.1783   -0.3403   -0.1198 C   0  0  0  0  0  0  0  0  0  0  0  0
    3.1671   -0.3389    0.0994 C   0  0  0  0  0  0  0  0  0  0  0  0
   -2.2367    0.3783   -0.8513 C   0  0  0  0  0  0  0  0  0  0  0  0
    2.2458    0.3414    0.8909 C   0  0  0  0  0  0  0  0  0  0  0  0
   -4.3972    0.1961    0.2967 C   0  0  0  0  0  0  0  0  0  0  0  0
    4.3677    0.2238   -0.3352 C   0  0  0  0  0  0  0  0  0  0  0  0
   -2.5105    1.7127   -1.1963 C   0  0  0  0  0  0  0  0  0  0  0  0
    2.5223    1.6626    1.2814 C   0  0  0  0  0  0  0  0  0  0  0  0
   -4.6533    1.5254   -0.0554 C   0  0  0  0  0  0  0  0  0  0  0  0
    4.6267    1.5395    0.0630 C   0  0  0  0  0  0  0  0  0  0  0  0
   -3.7280    2.2718   -0.7886 C   0  0  0  0  0  0  0  0  0  0  0  0
    3.7216    2.2478    0.8568 C   0  0  0  0  0  0  0  0  0  0  0  0
   -6.7344    1.2918    1.0716 C   0  0  0  0  0  0  0  0  0  0  0  0
    6.6701    1.3691   -1.1416 C   0  0  0  0  0  0  0  0  0  0  0  0
   -1.1296   -3.6646   -0.5245 H   0  0  0  0  0  0  0  0  0  0  0  0
    1.1702   -3.6843    0.4437 H   0  0  0  0  0  0  0  0  0  0  0  0
   -3.0237   -2.3603    0.5339 H   0  0  0  0  0  0  0  0  0  0  0  0
    3.0004   -2.3344   -0.6312 H   0  0  0  0  0  0  0  0  0  0  0  0
   -5.0701   -0.4352    0.8621 H   0  0  0  0  0  0  0  0  0  0  0  0
    5.0253   -0.3783   -0.9483 H   0  0  0  0  0  0  0  0  0  0  0  0
   -0.4657   -2.8822   -2.5429 H   0  0  0  0  0  0  0  0  0  0  0  0
   -0.6691   -3.6519    1.8193 H   0  0  0  0  0  0  0  0  0  0  0  0
   -1.7979    2.3010   -1.7654 H   0  0  0  0  0  0  0  0  0  0  0  0
    1.8253    2.2214    1.8977 H   0  0  0  0  0  0  0  0  0  0  0  0
   -3.9495    3.3039   -1.0504 H   0  0  0  0  0  0  0  0  0  0  0  0
    3.9449    3.2701    1.1534 H   0  0  0  0  0  0  0  0  0  0  0  0
   -7.0838    0.4338    0.4873 H   0  0  0  0  0  0  0  0  0  0  0  0
   -7.6136    1.9070    1.2898 H   0  0  0  0  0  0  0  0  0  0  0  0
   -6.3085    0.9930    2.0355 H   0  0  0  0  0  0  0  0  0  0  0  0
    7.0448    0.4906   -0.6052 H   0  0  0  0  0  0  0  0  0  0  0  0
    7.5374    1.9998   -1.3633 H   0  0  0  0  0  0  0  0  0  0  0  0
    6.2139    1.1068   -2.1023 H   0  0  0  0  0  0  0  0  0  0  0  0
  1  9  1  0  0  0  0
  1 33  1  0  0  0  0
  2 10  1  0  0  0  0
  2 34  1  0  0  0  0
  3 21  1  0  0  0  0
  3 25  1  0  0  0  0
  4 22  1  0  0  0  0
  4 26  1  0  0  0  0
  5 11  1  0  0  0  0
  5 13  1  0  0  0  0
  5 29  1  0  0  0  0
  6 12  1  0  0  0  0
  6 14  1  0  0  0  0
  6 30  1  0  0  0  0
  7 11  2  0  0  0  0
  7 15  1  0  0  0  0
  8 12  2  0  0  0  0
  8 16  1  0  0  0  0
  9 10  1  0  0  0  0
  9 11  1  0  0  0  0
  9 27  1  0  0  0  0
 10 12  1  0  0  0  0
 10 28  1  0  0  0  0
 13 15  2  0  0  0  0
 13 17  1  0  0  0  0
 14 16  2  0  0  0  0
 14 18  1  0  0  0  0
 15 19  1  0  0  0  0
 16 20  1  0  0  0  0
 17 21  2  0  0  0  0
 17 31  1  0  0  0  0
 18 22  2  0  0  0  0
 18 32  1  0  0  0  0
 19 23  2  0  0  0  0
 19 35  1  0  0  0  0
 20 24  2  0  0  0  0
 20 36  1  0  0  0  0
 21 23  1  0  0  0  0
 22 24  1  0  0  0  0
 23 37  1  0  0  0  0
 24 38  1  0  0  0  0
 25 39  1  0  0  0  0
 25 40  1  0  0  0  0
 25 41  1  0  0  0  0
 26 42  1  0  0  0  0
 26 43  1  0  0  0  0
 26 44  1  0  0  0  0
M  END
> <PUBCHEM_COMPOUND_CID>
130471

> <PUBCHEM_CONFORMER_RMSD>
0.8

> <PUBCHEM_CONFORMER_DIVERSEORDER>
1
18
37
30
14
9
25
60
43
15
8
26
67
38
22
47
40
10
7
55
62
61
42
39
34
5
4
35
29
63
32
3
17
20
27
50
58
12
28
24
23
53
49
56
59
66
2
64
52
44
54
33
45
48
11
16
51
65
13
36
31
57
6
21
19
46
41

> <PUBCHEM_MMFF94_PARTIAL_CHARGES>
36
1 -0.68
10 0.46
11 0.01
12 0.01
13 -0.15
14 -0.15
15 0.23
16 0.23
17 -0.15
18 -0.15
19 -0.15
2 -0.68
20 -0.15
21 0.08
22 0.08
23 -0.15
24 -0.15
25 0.28
26 0.28
29 0.27
3 -0.36
30 0.27
31 0.15
32 0.15
33 0.4
34 0.4
35 0.15
36 0.15
37 0.15
38 0.15
4 -0.36
5 0.03
6 0.03
7 -0.57
8 -0.57
9 0.46

> <PUBCHEM_EFFECTIVE_ROTOR_COUNT>
5

> <PUBCHEM_PHARMACOPHORE_FEATURES>
14
1 1 acceptor
1 1 donor
1 2 acceptor
1 2 donor
1 3 acceptor
1 4 acceptor
1 5 donor
1 6 donor
3 5 7 11 cation
3 6 8 12 cation
5 5 7 11 13 15 rings
5 6 8 12 14 16 rings
6 13 15 17 19 21 23 rings
6 14 16 18 20 22 24 rings

> <PUBCHEM_HEAVY_ATOM_COUNT>
26

> <PUBCHEM_ATOM_DEF_STEREO_COUNT>
0

> <PUBCHEM_ATOM_UDEF_STEREO_COUNT>
2

> <PUBCHEM_BOND_DEF_STEREO_COUNT>
0

> <PUBCHEM_BOND_UDEF_STEREO_COUNT>
0

> <PUBCHEM_ISOTOPIC_ATOM_COUNT>
0

> <PUBCHEM_COMPONENT_COUNT>
1

> <PUBCHEM_CACTVS_TAUTO_COUNT>
3

> <PUBCHEM_CONFORMER_ID>
0001FDA700000001

> <PUBCHEM_MMFF94_ENERGY>
66.0049

> <PUBCHEM_FEATURE_SELFOVERLAP>
71.266

> <PUBCHEM_SHAPE_FINGERPRINT>
10165383 225 18410859858180214020
10447042 23 8358246043040048811
10493431 412 18334575758862270349
10498660 4 18263906852268209301
10670039 82 18335414733763870468
10674148 151 17060065809265941536
10681291 71 18410852165893806344
11720765 8 17631174079162233278
11796584 16 12822996604771113613
12363563 72 9439123216394228392
12390115 104 18412270561879465707
13544653 18 8502372260586970542
13583140 156 17537142659301989199
13885169 86 18262807379301231996
13944108 23 17837492955578267161
14114211 68 18263100859000737092
14114211 80 18202291303180029429
14251764 75 18413674608274855745
14257110 125 18408884040227683085
14341114 328 16226056595200305180
1454969 45 18340762733131778935
14617045 38 18410577279523989537
14840074 17 17458346385455807108
151778 21 18340760442858966983
15183329 4 17775295945685666684
15188451 53 10303821947669763860
18785283 64 18194114114581691351
20465049 17 18270125604162165438
21033648 29 18341326807828750112
21315764 371 16298679278671320641
21365058 113 17481439174786870143
21756936 100 18261387918742938066
221357 26 18057600074048106262
23559900 14 17833546791946531743
23845131 108 18260264140692962595
2637199 183 18342735200176167554
3411729 13 18338237046894291563
3610482 184 17896612867776382940
38570 142 18271817799601414688
444735 79 18042983132662803875
474 4 18129374917794121883
5252454 2 18338784676245914701
6442390 28 18259706696444347035
7288768 16 17967530202924559522
7808743 9 18335416915353866972
8988823 20 13262978307666405479

> <PUBCHEM_SHAPE_MULTIPOLES>
491.67
13.44
3.38
1.29
0.61
1.69
0.01
-14
-0.07
-0.08
0
-0.11
0.22
-0.17

> <PUBCHEM_SHAPE_SELFOVERLAP>
1092.65

> <PUBCHEM_SHAPE_VOLUME>
265.9

> <PUBCHEM_COORDINATE_TYPE>
2
5
10

$$$$
