130476800
  -OEChem-03292013293D

 50 53  0     1  0  0  0  0  0999 V2000
   -5.5043    1.8427   -0.2508 O   0  0  0  0  0  0  0  0  0  0  0  0
    1.6785    1.5943   -0.2404 O   0  0  0  0  0  0  0  0  0  0  0  0
    4.6135   -2.1217   -0.3871 O   0  0  0  0  0  0  0  0  0  0  0  0
    4.8111    1.1355    0.3478 O   0  5  0  0  0  0  0  0  0  0  0  0
    4.4807    0.8905   -1.8084 O   0  0  0  0  0  0  0  0  0  0  0  0
    2.1413    1.6783    2.0527 O   0  0  0  0  0  0  0  0  0  0  0  0
    4.1895    0.6373   -0.6176 N   0  3  0  0  0  0  0  0  0  0  0  0
   -3.1232   -0.6030    0.3962 C   0  0  2  0  0  0  0  0  0  0  0  0
   -3.4692    0.5484   -0.5711 C   0  0  2  0  0  0  0  0  0  0  0  0
   -1.7509   -1.1963    0.0815 C   0  0  1  0  0  0  0  0  0  0  0  0
   -0.6779   -0.0836    0.2951 C   0  0  2  0  0  0  0  0  0  0  0  0
   -2.4772    1.6797   -0.3243 C   0  0  0  0  0  0  0  0  0  0  0  0
   -4.3626   -1.4900    0.3786 C   0  0  0  0  0  0  0  0  0  0  0  0
   -1.0242    1.2000   -0.5089 C   0  0  0  0  0  0  0  0  0  0  0  0
   -1.4050   -2.3955    0.9651 C   0  0  0  0  0  0  0  0  0  0  0  0
   -4.9003    0.7858   -0.1243 C   0  0  0  0  0  0  0  0  0  0  0  0
   -5.5087   -0.4716    0.4739 C   0  0  0  0  0  0  0  0  0  0  0  0
    0.7316   -0.6257    0.0747 C   0  0  0  0  0  0  0  0  0  0  0  0
   -3.5304    0.1820   -2.0655 C   0  0  0  0  0  0  0  0  0  0  0  0
   -0.0865   -3.0127    0.5077 C   0  0  0  0  0  0  0  0  0  0  0  0
    0.9997   -2.0044    0.2221 C   0  0  0  0  0  0  0  0  0  0  0  0
    1.8099    0.2367   -0.1913 C   0  0  0  0  0  0  0  0  0  0  0  0
    2.3101   -2.4849    0.0509 C   0  0  0  0  0  0  0  0  0  0  0  0
    3.1080   -0.2532   -0.3507 C   0  0  0  0  0  0  0  0  0  0  0  0
    3.3578   -1.6144   -0.2341 C   0  0  0  0  0  0  0  0  0  0  0  0
    1.8770    2.2317    0.9936 C   0  0  0  0  0  0  0  0  0  0  0  0
    1.7117    3.7141    0.8347 C   0  0  0  0  0  0  0  0  0  0  0  0
   -3.0667   -0.1982    1.4217 H   0  0  0  0  0  0  0  0  0  0  0  0
   -1.7277   -1.5367   -0.9617 H   0  0  0  0  0  0  0  0  0  0  0  0
   -0.7079    0.2040    1.3577 H   0  0  0  0  0  0  0  0  0  0  0  0
   -2.6756    2.5233   -0.9969 H   0  0  0  0  0  0  0  0  0  0  0  0
   -2.6010    2.0728    0.6936 H   0  0  0  0  0  0  0  0  0  0  0  0
   -4.3915   -2.1907    1.2188 H   0  0  0  0  0  0  0  0  0  0  0  0
   -4.4298   -2.0744   -0.5453 H   0  0  0  0  0  0  0  0  0  0  0  0
   -0.8153    1.0425   -1.5738 H   0  0  0  0  0  0  0  0  0  0  0  0
   -0.4362    2.0569   -0.1920 H   0  0  0  0  0  0  0  0  0  0  0  0
   -2.1869   -3.1615    0.9196 H   0  0  0  0  0  0  0  0  0  0  0  0
   -1.3264   -2.0805    2.0137 H   0  0  0  0  0  0  0  0  0  0  0  0
   -5.7740   -0.2740    1.5164 H   0  0  0  0  0  0  0  0  0  0  0  0
   -6.3823   -0.7946   -0.0963 H   0  0  0  0  0  0  0  0  0  0  0  0
   -2.5683   -0.1553   -2.4598 H   0  0  0  0  0  0  0  0  0  0  0  0
   -3.8356    1.0542   -2.6565 H   0  0  0  0  0  0  0  0  0  0  0  0
   -4.2651   -0.6030   -2.2740 H   0  0  0  0  0  0  0  0  0  0  0  0
   -0.2615   -3.5864   -0.4116 H   0  0  0  0  0  0  0  0  0  0  0  0
    0.2543   -3.7182    1.2752 H   0  0  0  0  0  0  0  0  0  0  0  0
    2.5105   -3.5506    0.1435 H   0  0  0  0  0  0  0  0  0  0  0  0
    5.2484   -1.4172   -0.5933 H   0  0  0  0  0  0  0  0  0  0  0  0
    2.2690    4.0591   -0.0403 H   0  0  0  0  0  0  0  0  0  0  0  0
    2.1208    4.2181    1.7150 H   0  0  0  0  0  0  0  0  0  0  0  0
    0.6534    3.9641    0.7379 H   0  0  0  0  0  0  0  0  0  0  0  0
  1 16  2  0  0  0  0
  2 22  1  0  0  0  0
  2 26  1  0  0  0  0
  3 25  1  0  0  0  0
  3 47  1  0  0  0  0
  4  7  1  0  0  0  0
  5  7  2  0  0  0  0
  6 26  2  0  0  0  0
  7 24  1  0  0  0  0
  8  9  1  0  0  0  0
  8 10  1  0  0  0  0
  8 13  1  0  0  0  0
  8 28  1  0  0  0  0
  9 12  1  0  0  0  0
  9 16  1  0  0  0  0
  9 19  1  0  0  0  0
 10 11  1  0  0  0  0
 10 15  1  0  0  0  0
 10 29  1  0  0  0  0
 11 14  1  0  0  0  0
 11 18  1  0  0  0  0
 11 30  1  0  0  0  0
 12 14  1  0  0  0  0
 12 31  1  0  0  0  0
 12 32  1  0  0  0  0
 13 17  1  0  0  0  0
 13 33  1  0  0  0  0
 13 34  1  0  0  0  0
 14 35  1  0  0  0  0
 14 36  1  0  0  0  0
 15 20  1  0  0  0  0
 15 37  1  0  0  0  0
 15 38  1  0  0  0  0
 16 17  1  0  0  0  0
 17 39  1  0  0  0  0
 17 40  1  0  0  0  0
 18 21  1  0  0  0  0
 18 22  2  0  0  0  0
 19 41  1  0  0  0  0
 19 42  1  0  0  0  0
 19 43  1  0  0  0  0
 20 21  1  0  0  0  0
 20 44  1  0  0  0  0
 20 45  1  0  0  0  0
 21 23  2  0  0  0  0
 22 24  1  0  0  0  0
 23 25  1  0  0  0  0
 23 46  1  0  0  0  0
 24 25  2  0  0  0  0
 26 27  1  0  0  0  0
 27 48  1  0  0  0  0
 27 49  1  0  0  0  0
 27 50  1  0  0  0  0
M  CHG  2   4  -1   7   1
M  END
> <PUBCHEM_COMPOUND_CID>
130476800

> <PUBCHEM_CONFORMER_RMSD>
0.8

> <PUBCHEM_CONFORMER_DIVERSEORDER>
1
2

> <PUBCHEM_MMFF94_PARTIAL_CHARGES>
22
1 -0.57
11 0.14
16 0.45
17 0.06
18 -0.14
2 -0.23
20 0.14
21 -0.14
22 0.08
23 -0.15
24 0.13
25 0.08
26 0.66
27 0.06
3 -0.53
4 -0.52
46 0.15
47 0.45
5 -0.52
6 -0.57
7 0.91
9 0.06

> <PUBCHEM_EFFECTIVE_ROTOR_COUNT>
4.2

> <PUBCHEM_PHARMACOPHORE_FEATURES>
10
1 1 acceptor
1 3 donor
1 4 acceptor
1 4 anion
1 5 acceptor
1 6 acceptor
5 8 9 13 16 17 rings
6 10 11 15 18 20 21 rings
6 18 21 22 23 24 25 rings
6 8 9 10 11 12 14 rings

> <PUBCHEM_HEAVY_ATOM_COUNT>
27

> <PUBCHEM_ATOM_DEF_STEREO_COUNT>
4

> <PUBCHEM_ATOM_UDEF_STEREO_COUNT>
0

> <PUBCHEM_BOND_DEF_STEREO_COUNT>
0

> <PUBCHEM_BOND_UDEF_STEREO_COUNT>
0

> <PUBCHEM_ISOTOPIC_ATOM_COUNT>
0

> <PUBCHEM_COMPONENT_COUNT>
1

> <PUBCHEM_CACTVS_TAUTO_COUNT>
56

> <PUBCHEM_CONFORMER_ID>
07C6EB0000000001

> <PUBCHEM_MMFF94_ENERGY>
96.5114

> <PUBCHEM_FEATURE_SELFOVERLAP>
50.928

> <PUBCHEM_SHAPE_FINGERPRINT>
10165383 225 18260556644533122837
10967382 1 18409168809507678106
11112241 14 17058069254920999712
11578080 2 16986580112410245010
11595378 159 15864340329689475813
12035758 1 18339631348040009752
12236239 1 17917711280305653475
12403259 226 18335979796545607047
12403259 415 18040995099200647343
12788726 201 18124318199499310202
13134695 92 18272645727947258772
13140716 1 18121497127070449338
13224815 77 18114454609276749671
13402501 40 18407761434476353807
14790565 3 18337117752605374373
15196674 1 18334860498114541039
1601671 61 18408041831764445836
18186145 218 18271238417440475713
18608769 82 18191596452366428523
19591789 44 18408323276439242435
20832881 197 18271527498656854073
21033648 29 18334850645591471985
21267235 1 18337401421972925614
21279426 13 18337956671044178071
221357 26 18412545375467362989
23227448 37 18341048614043763431
23559900 14 18409445881936961184
238 59 18269253768629255903
2748010 2 17905893926350400890
3004659 81 18260834748614867462
3323516 105 18410009931766111155
335352 9 18335703775998495335
350125 39 18262521385807026382
3680242 22 18189333463793477578
474 4 18270671090910488521
495365 180 17845648273991741594
5104073 3 18334297535276069235
633830 44 18272079548321037549
7808743 9 17969227904917895246
9709674 26 18337674225663756347

> <PUBCHEM_SHAPE_MULTIPOLES>
515.45
10.31
3.29
1.18
4.89
0.44
0.18
1.52
1.77
-2.07
-1.05
-0.17
0.42
1.11

> <PUBCHEM_SHAPE_SELFOVERLAP>
1127.471

> <PUBCHEM_SHAPE_VOLUME>
278.3

> <PUBCHEM_COORDINATE_TYPE>
2
5
10

$$$$
