130444
  -OEChem-03292013323D

 41 44  0     1  0  0  0  0  0999 V2000
    4.8028   -1.1835   -2.7989 Cl  0  0  0  0  0  0  0  0  0  0  0  0
   -3.7001   -1.8393    0.6700 O   0  0  0  0  0  0  0  0  0  0  0  0
   -5.2548    0.7646    0.4160 O   0  0  0  0  0  0  0  0  0  0  0  0
    2.5476    1.4769    1.8990 O   0  0  0  0  0  0  0  0  0  0  0  0
   -1.2334   -3.1665    0.9343 O   0  0  0  0  0  0  0  0  0  0  0  0
    0.6272   -2.1091    1.7405 O   0  0  0  0  0  0  0  0  0  0  0  0
    0.2951    1.5945    2.3623 O   0  0  0  0  0  0  0  0  0  0  0  0
   -1.8710   -1.1830   -0.6661 N   0  0  0  0  0  0  0  0  0  0  0  0
    1.0582    0.4899    0.4322 N   0  0  0  0  0  0  0  0  0  0  0  0
   -2.0211    0.0103   -1.5334 C   0  0  1  0  0  0  0  0  0  0  0  0
   -3.5088    0.0303   -1.0618 C   0  0  1  0  0  0  0  0  0  0  0  0
   -0.8652    0.9406   -1.0996 C   0  0  2  0  0  0  0  0  0  0  0  0
   -3.1452   -1.1891   -0.1869 C   0  0  0  0  0  0  0  0  0  0  0  0
   -0.1032    0.0688   -0.1312 C   0  0  0  0  0  0  0  0  0  0  0  0
   -0.7324   -1.0911    0.0776 C   0  0  0  0  0  0  0  0  0  0  0  0
   -4.0892    1.1898   -0.2925 C   0  0  1  0  0  0  0  0  0  0  0  0
   -1.3047    2.2713   -0.5158 C   0  0  0  0  0  0  0  0  0  0  0  0
   -4.4712    2.3561   -1.1996 C   0  0  0  0  0  0  0  0  0  0  0  0
   -0.3496   -2.1458    1.0064 C   0  0  0  0  0  0  0  0  0  0  0  0
    2.3373    0.2855   -0.0600 C   0  0  0  0  0  0  0  0  0  0  0  0
    1.1942    1.2133    1.6209 C   0  0  0  0  0  0  0  0  0  0  0  0
    3.2029    0.8835    0.8331 C   0  0  0  0  0  0  0  0  0  0  0  0
    2.7898   -0.3625   -1.1925 C   0  0  0  0  0  0  0  0  0  0  0  0
    4.5694    0.8676    0.6446 C   0  0  0  0  0  0  0  0  0  0  0  0
    4.1712   -0.3916   -1.4048 C   0  0  0  0  0  0  0  0  0  0  0  0
    5.0541    0.2185   -0.4936 C   0  0  0  0  0  0  0  0  0  0  0  0
   -1.9250   -0.2661   -2.5932 H   0  0  0  0  0  0  0  0  0  0  0  0
   -4.1915   -0.2757   -1.8697 H   0  0  0  0  0  0  0  0  0  0  0  0
   -0.2296    1.1340   -1.9740 H   0  0  0  0  0  0  0  0  0  0  0  0
   -3.4334    1.5177    0.5055 H   0  0  0  0  0  0  0  0  0  0  0  0
   -0.4164    2.9124   -0.4248 H   0  0  0  0  0  0  0  0  0  0  0  0
   -1.9700    2.8239   -1.1710 H   0  0  0  0  0  0  0  0  0  0  0  0
   -1.6840    2.2066    0.5034 H   0  0  0  0  0  0  0  0  0  0  0  0
   -5.4428    2.1698   -1.6730 H   0  0  0  0  0  0  0  0  0  0  0  0
   -4.5881    3.2722   -0.6112 H   0  0  0  0  0  0  0  0  0  0  0  0
   -3.7603    2.5326   -2.0087 H   0  0  0  0  0  0  0  0  0  0  0  0
   -5.8997    0.4405   -0.2359 H   0  0  0  0  0  0  0  0  0  0  0  0
    2.1014   -0.8294   -1.8889 H   0  0  0  0  0  0  0  0  0  0  0  0
   -1.0044   -3.8957    1.5493 H   0  0  0  0  0  0  0  0  0  0  0  0
    5.2458    1.3385    1.3484 H   0  0  0  0  0  0  0  0  0  0  0  0
    6.1275    0.1911   -0.6666 H   0  0  0  0  0  0  0  0  0  0  0  0
  1 25  1  0  0  0  0
  2 13  2  0  0  0  0
  3 16  1  0  0  0  0
  3 37  1  0  0  0  0
  4 21  1  0  0  0  0
  4 22  1  0  0  0  0
  5 19  1  0  0  0  0
  5 39  1  0  0  0  0
  6 19  2  0  0  0  0
  7 21  2  0  0  0  0
  8 10  1  0  0  0  0
  8 13  1  0  0  0  0
  8 15  1  0  0  0  0
  9 14  1  0  0  0  0
  9 20  1  0  0  0  0
  9 21  1  0  0  0  0
 10 11  1  0  0  0  0
 10 12  1  0  0  0  0
 10 27  1  0  0  0  0
 11 13  1  0  0  0  0
 11 16  1  0  0  0  0
 11 28  1  0  0  0  0
 12 14  1  0  0  0  0
 12 17  1  0  0  0  0
 12 29  1  0  0  0  0
 14 15  2  0  0  0  0
 15 19  1  0  0  0  0
 16 18  1  0  0  0  0
 16 30  1  0  0  0  0
 17 31  1  0  0  0  0
 17 32  1  0  0  0  0
 17 33  1  0  0  0  0
 18 34  1  0  0  0  0
 18 35  1  0  0  0  0
 18 36  1  0  0  0  0
 20 22  2  0  0  0  0
 20 23  1  0  0  0  0
 22 24  1  0  0  0  0
 23 25  2  0  0  0  0
 23 38  1  0  0  0  0
 24 26  2  0  0  0  0
 24 40  1  0  0  0  0
 25 26  1  0  0  0  0
 26 41  1  0  0  0  0
M  END
> <PUBCHEM_COMPOUND_CID>
130444

> <PUBCHEM_CONFORMER_RMSD>
0.8

> <PUBCHEM_CONFORMER_DIVERSEORDER>
1
3
2

> <PUBCHEM_MMFF94_PARTIAL_CHARGES>
29
1 -0.18
10 0.22
11 0.05
12 0.14
13 0.58
14 -0.03
15 0.12
16 0.28
19 0.71
2 -0.57
20 0.12
21 0.78
22 0.08
23 -0.15
24 -0.15
25 0.18
26 -0.15
3 -0.68
37 0.4
38 0.15
39 0.5
4 -0.23
40 0.15
41 0.15
5 -0.65
6 -0.57
7 -0.57
8 -0.39
9 -0.29

> <PUBCHEM_EFFECTIVE_ROTOR_COUNT>
3.4

> <PUBCHEM_PHARMACOPHORE_FEATURES>
10
1 2 acceptor
1 3 acceptor
1 3 donor
1 5 acceptor
1 6 acceptor
1 7 acceptor
3 5 6 19 anion
5 4 9 20 21 22 rings
6 20 22 23 24 25 26 rings
7 8 10 11 12 13 14 15 rings

> <PUBCHEM_HEAVY_ATOM_COUNT>
26

> <PUBCHEM_ATOM_DEF_STEREO_COUNT>
4

> <PUBCHEM_ATOM_UDEF_STEREO_COUNT>
0

> <PUBCHEM_BOND_DEF_STEREO_COUNT>
0

> <PUBCHEM_BOND_UDEF_STEREO_COUNT>
0

> <PUBCHEM_ISOTOPIC_ATOM_COUNT>
0

> <PUBCHEM_COMPONENT_COUNT>
1

> <PUBCHEM_CACTVS_TAUTO_COUNT>
1

> <PUBCHEM_CONFORMER_ID>
0001FD8C00000001

> <PUBCHEM_MMFF94_ENERGY>
118.1962

> <PUBCHEM_FEATURE_SELFOVERLAP>
50.918

> <PUBCHEM_SHAPE_FINGERPRINT>
10165383 225 18334577906662468349
10906281 52 18131069394230771576
11578080 2 18046926036693819184
11796584 16 18408601445040416258
12166972 35 14404891514493103193
12236239 1 16732695052110119284
12592029 89 17240481356299316506
12623949 98 17270614803809385007
12788726 201 17846500271213149248
13134695 92 16558744637384241240
13140716 1 18115868676057246189
13544592 145 18343025475767636950
13583140 156 15266198418929457057
13911987 19 17415280809299738216
14251757 17 17988642939444212116
14341114 328 15791737377736756965
14790565 3 18186524284731426885
14955137 171 17676784110188650421
15238133 3 18055337060159376505
1601671 61 17822287946879671949
16752209 62 17822557421664912175
18186145 218 18412536622060438365
19784866 170 17968653809915049221
200 152 15554446301389070380
20600515 1 18261385715145588908
20645477 70 17418373588909266836
20832881 197 18059298656288529498
21033648 29 18059844091676613065
21279426 13 17773882991144068061
221357 26 17632286853275135121
23175994 123 17846224362049888212
23557571 272 18190746530094149452
23559900 14 18410013243744948942
3027735 51 16341471094044270046
350125 39 17898560978214157838
474 4 14490472045481013630
5265222 85 18262244447466085614
57527295 17 18201993305058092551
633830 44 18340474642908491221
7226269 152 18271232877038529856
7399639 24 16836545269488402802
77492 1 16299211536471419666

> <PUBCHEM_SHAPE_MULTIPOLES>
491.76
9.75
2.38
1.99
1.76
0.79
0.1
-1.81
4.31
-1.69
-0.82
1.73
0.09
2.23

> <PUBCHEM_SHAPE_SELFOVERLAP>
1085.226

> <PUBCHEM_SHAPE_VOLUME>
268.2

> <PUBCHEM_COORDINATE_TYPE>
2
5
10

$$$$
