130440
  -OEChem-03292013323D

 33 35  0     1  0  0  0  0  0999 V2000
    3.2913    2.0228   -0.1106 F   0  0  0  0  0  0  0  0  0  0  0  0
    1.4925    1.6166    1.8183 O   0  0  0  0  0  0  0  0  0  0  0  0
    5.0082   -1.5696    0.0746 O   0  0  0  0  0  0  0  0  0  0  0  0
   -0.3320   -0.2217   -0.0404 N   0  0  0  0  0  0  0  0  0  0  0  0
   -1.7578   -1.8520    0.4842 N   0  0  0  0  0  0  0  0  0  0  0  0
   -1.9031    1.5522   -0.5736 N   0  0  0  0  0  0  0  0  0  0  0  0
   -4.2100    0.8003   -0.3110 N   0  0  0  0  0  0  0  0  0  0  0  0
   -4.7659   -1.4195    0.3893 N   0  0  0  0  0  0  0  0  0  0  0  0
    0.9403    0.4590   -0.2676 C   0  0  2  0  0  0  0  0  0  0  0  0
    3.2583   -0.2086   -0.8147 C   0  0  1  0  0  0  0  0  0  0  0  0
    1.8182   -0.1800   -1.3667 C   0  0  0  0  0  0  0  0  0  0  0  0
    1.8397    0.5342    0.9737 C   0  0  1  0  0  0  0  0  0  0  0  0
    3.2209    0.7490    0.3737 C   0  0  2  0  0  0  0  0  0  0  0  0
    3.6791   -1.6188   -0.4098 C   0  0  0  0  0  0  0  0  0  0  0  0
   -1.5815    0.3076   -0.1899 C   0  0  0  0  0  0  0  0  0  0  0  0
   -0.4892   -1.5201    0.3648 C   0  0  0  0  0  0  0  0  0  0  0  0
   -2.4517   -0.7190    0.1406 C   0  0  0  0  0  0  0  0  0  0  0  0
   -3.8123   -0.4375    0.0700 C   0  0  0  0  0  0  0  0  0  0  0  0
   -3.2450    1.7050   -0.6047 C   0  0  0  0  0  0  0  0  0  0  0  0
    0.6839    1.4788   -0.5852 H   0  0  0  0  0  0  0  0  0  0  0  0
    3.9554    0.1724   -1.5708 H   0  0  0  0  0  0  0  0  0  0  0  0
    1.7795    0.4518   -2.2629 H   0  0  0  0  0  0  0  0  0  0  0  0
    1.4762   -1.1751   -1.6715 H   0  0  0  0  0  0  0  0  0  0  0  0
    1.8090   -0.3863    1.5655 H   0  0  0  0  0  0  0  0  0  0  0  0
    4.0297    0.6278    1.0986 H   0  0  0  0  0  0  0  0  0  0  0  0
    3.6473   -2.3008   -1.2658 H   0  0  0  0  0  0  0  0  0  0  0  0
    3.0413   -2.0342    0.3759 H   0  0  0  0  0  0  0  0  0  0  0  0
    1.5745    2.4384    1.3049 H   0  0  0  0  0  0  0  0  0  0  0  0
    0.3487   -2.1768    0.5558 H   0  0  0  0  0  0  0  0  0  0  0  0
    5.5748   -1.2463   -0.6465 H   0  0  0  0  0  0  0  0  0  0  0  0
   -3.5993    2.6851   -0.9057 H   0  0  0  0  0  0  0  0  0  0  0  0
   -4.4716   -2.3436    0.6749 H   0  0  0  0  0  0  0  0  0  0  0  0
   -5.7489   -1.1904    0.3314 H   0  0  0  0  0  0  0  0  0  0  0  0
  1 13  1  0  0  0  0
  2 12  1  0  0  0  0
  2 28  1  0  0  0  0
  3 14  1  0  0  0  0
  3 30  1  0  0  0  0
  4  9  1  0  0  0  0
  4 15  1  0  0  0  0
  4 16  1  0  0  0  0
  5 16  2  0  0  0  0
  5 17  1  0  0  0  0
  6 15  2  0  0  0  0
  6 19  1  0  0  0  0
  7 18  1  0  0  0  0
  7 19  2  0  0  0  0
  8 18  1  0  0  0  0
  8 32  1  0  0  0  0
  8 33  1  0  0  0  0
  9 11  1  0  0  0  0
  9 12  1  0  0  0  0
  9 20  1  0  0  0  0
 10 11  1  0  0  0  0
 10 13  1  0  0  0  0
 10 14  1  0  0  0  0
 10 21  1  0  0  0  0
 11 22  1  0  0  0  0
 11 23  1  0  0  0  0
 12 13  1  0  0  0  0
 12 24  1  0  0  0  0
 13 25  1  0  0  0  0
 14 26  1  0  0  0  0
 14 27  1  0  0  0  0
 15 17  1  0  0  0  0
 16 29  1  0  0  0  0
 17 18  2  0  0  0  0
 19 31  1  0  0  0  0
M  END
> <PUBCHEM_COMPOUND_CID>
130440

> <PUBCHEM_CONFORMER_RMSD>
0.6

> <PUBCHEM_CONFORMER_DIVERSEORDER>
3
8
17
16
14
18
2
6
15
7
4
12
9
5
1
13
10
11

> <PUBCHEM_MMFF94_PARTIAL_CHARGES>
23
1 -0.34
12 0.28
13 0.34
14 0.28
15 0.11
16 0.04
17 0.23
18 0.41
19 0.47
2 -0.68
28 0.4
29 0.15
3 -0.68
30 0.4
31 0.15
32 0.4
33 0.4
4 0.05
5 -0.57
6 -0.57
7 -0.62
8 -0.9
9 0.26

> <PUBCHEM_EFFECTIVE_ROTOR_COUNT>
3

> <PUBCHEM_PHARMACOPHORE_FEATURES>
12
1 2 acceptor
1 2 donor
1 3 acceptor
1 3 donor
1 8 cation
1 8 donor
3 4 5 16 cation
3 4 6 15 cation
3 6 7 19 cation
5 4 5 15 16 17 rings
5 9 10 11 12 13 rings
6 6 7 15 17 18 19 rings

> <PUBCHEM_HEAVY_ATOM_COUNT>
19

> <PUBCHEM_ATOM_DEF_STEREO_COUNT>
4

> <PUBCHEM_ATOM_UDEF_STEREO_COUNT>
0

> <PUBCHEM_BOND_DEF_STEREO_COUNT>
0

> <PUBCHEM_BOND_UDEF_STEREO_COUNT>
0

> <PUBCHEM_ISOTOPIC_ATOM_COUNT>
0

> <PUBCHEM_COMPONENT_COUNT>
1

> <PUBCHEM_CACTVS_TAUTO_COUNT>
3

> <PUBCHEM_CONFORMER_ID>
0001FD8800000003

> <PUBCHEM_MMFF94_ENERGY>
44.9518

> <PUBCHEM_FEATURE_SELFOVERLAP>
61.502

> <PUBCHEM_SHAPE_FINGERPRINT>
10465860 250 18201152144893617586
10498660 4 18186512198999001445
10608611 8 18411135865705826396
10646746 165 18408601431305772757
1100329 8 16755504107269164034
12236239 1 16877659084547660340
12403259 226 18411976975190166161
12403259 415 18409445873706047645
124424 183 18201436943953352286
12507560 40 18411133654198348700
13134695 92 17560508530853263424
14866123 147 16903004722034103226
15196674 1 18408323293787611437
15219456 202 18343581858441814204
16752209 62 17895183425007860131
16945 1 18187925131722780923
17804303 29 18408605837926355142
18186145 218 18343308032912666413
19049666 15 18343018869849531128
200 152 17203323390766058975
20510252 161 18410294731232385217
20645477 56 18335136539651654104
20645477 70 18060427915002287798
21065201 7 18186794773217859601
21267235 1 18333741203624871467
23175994 123 17917714552574964840
23402539 116 18410288082385225237
23493267 7 17313108519014493481
23559900 14 18410572890414955644
3004659 81 17969510304194334902
3286 77 17988641912999607025
4214541 1 18335985289576598732
43471831 8 17968089803273254683
474 4 14260766461104300306
5104073 3 18409732863235877921
57426455 114 18411976932245715978
59755656 215 18260266309667186375
633830 44 18410285896331384373
69090 78 18272930552956411855
7495541 125 18060137686565599491
77492 1 16805318916074199917
81228 2 17975969083944312603
9709674 26 18335705004390634226

> <PUBCHEM_SHAPE_MULTIPOLES>
347.09
8.78
1.91
1.01
0.68
0.04
-0.13
-1.72
0.48
-0.08
-0.19
-0.54
0.27
0.97

> <PUBCHEM_SHAPE_SELFOVERLAP>
755.867

> <PUBCHEM_SHAPE_VOLUME>
191.7

> <PUBCHEM_COORDINATE_TYPE>
2
5
10

$$$$
