130400
  -OEChem-03292013323D

 57 59  0     1  0  0  0  0  0999 V2000
    0.8694    4.3440   -0.9089 S   0  0  0  0  0  0  0  0  0  0  0  0
    4.2934   -0.9778    0.8605 O   0  0  0  0  0  0  0  0  0  0  0  0
    5.1839   -3.5869    1.2224 O   0  0  0  0  0  0  0  0  0  0  0  0
   -0.1899   -1.6637   -1.5536 O   0  0  0  0  0  0  0  0  0  0  0  0
    0.6554    5.7663   -1.1017 O   0  0  0  0  0  0  0  0  0  0  0  0
    1.0279    3.4618   -2.0479 O   0  0  0  0  0  0  0  0  0  0  0  0
    1.8841   -3.2144   -0.4155 N   0  0  0  0  0  0  0  0  0  0  0  0
    2.1568    4.1349    0.2158 N   0  0  0  0  0  0  0  0  0  0  0  0
   -5.1550   -0.3414    0.5014 N   0  0  0  0  0  0  0  0  0  0  0  0
   -6.7015    0.7028    1.7207 N   0  0  0  0  0  0  0  0  0  0  0  0
    3.7827   -3.3029    1.1744 C   0  0  2  0  0  0  0  0  0  0  0  0
    3.3003   -3.5187   -0.2620 C   0  0  0  0  0  0  0  0  0  0  0  0
    3.5573   -1.8799    1.6807 C   0  0  0  0  0  0  0  0  0  0  0  0
    1.4644   -3.3733   -1.8013 C   0  0  0  0  0  0  0  0  0  0  0  0
   -0.0036   -3.0124   -1.9625 C   0  0  0  0  0  0  0  0  0  0  0  0
    3.7690    0.2771    0.7019 C   0  0  0  0  0  0  0  0  0  0  0  0
   -1.4195   -1.3367   -1.0442 C   0  0  0  0  0  0  0  0  0  0  0  0
    2.7029    2.8259    0.3802 C   0  0  0  0  0  0  0  0  0  0  0  0
    4.0040    0.9789   -0.4756 C   0  0  0  0  0  0  0  0  0  0  0  0
    3.0056    0.8385    1.7199 C   0  0  0  0  0  0  0  0  0  0  0  0
   -3.9143   -0.6720   -0.0122 C   0  0  0  0  0  0  0  0  0  0  0  0
    3.4694    2.2571   -0.6370 C   0  0  0  0  0  0  0  0  0  0  0  0
    2.4709    2.1167    1.5586 C   0  0  0  0  0  0  0  0  0  0  0  0
   -1.5244   -0.3277   -0.0938 C   0  0  0  0  0  0  0  0  0  0  0  0
   -2.5496   -2.0168   -1.4838 C   0  0  0  0  0  0  0  0  0  0  0  0
   -2.7759    0.0058    0.4241 C   0  0  0  0  0  0  0  0  0  0  0  0
   -3.8011   -1.6833   -0.9661 C   0  0  0  0  0  0  0  0  0  0  0  0
   -6.3563   -0.9156    0.1717 C   0  0  0  0  0  0  0  0  0  0  0  0
   -0.4957    3.7436    0.0608 C   0  0  0  0  0  0  0  0  0  0  0  0
   -5.4200    0.6264    1.4376 C   0  0  0  0  0  0  0  0  0  0  0  0
   -7.2907   -0.2562    0.9353 C   0  0  0  0  0  0  0  0  0  0  0  0
    3.2793   -4.0049    1.8497 H   0  0  0  0  0  0  0  0  0  0  0  0
    3.9061   -2.9083   -0.9447 H   0  0  0  0  0  0  0  0  0  0  0  0
    3.4916   -4.5629   -0.5412 H   0  0  0  0  0  0  0  0  0  0  0  0
    3.9556   -1.7972    2.6995 H   0  0  0  0  0  0  0  0  0  0  0  0
    2.4829   -1.6655    1.7069 H   0  0  0  0  0  0  0  0  0  0  0  0
    1.6968   -2.2551   -0.1283 H   0  0  0  0  0  0  0  0  0  0  0  0
    2.0613   -2.7131   -2.4426 H   0  0  0  0  0  0  0  0  0  0  0  0
    1.6184   -4.4063   -2.1336 H   0  0  0  0  0  0  0  0  0  0  0  0
   -0.5940   -3.7130   -1.3566 H   0  0  0  0  0  0  0  0  0  0  0  0
   -0.2921   -3.1131   -3.0151 H   0  0  0  0  0  0  0  0  0  0  0  0
    5.3054   -4.5097    0.9409 H   0  0  0  0  0  0  0  0  0  0  0  0
    4.6019    0.5399   -1.2692 H   0  0  0  0  0  0  0  0  0  0  0  0
    2.8283    0.3347    2.6652 H   0  0  0  0  0  0  0  0  0  0  0  0
    3.6697    2.8019   -1.5558 H   0  0  0  0  0  0  0  0  0  0  0  0
    1.8798    2.5528    2.3598 H   0  0  0  0  0  0  0  0  0  0  0  0
   -0.6381    0.1982    0.2498 H   0  0  0  0  0  0  0  0  0  0  0  0
   -2.5077   -2.7893   -2.2456 H   0  0  0  0  0  0  0  0  0  0  0  0
   -2.7998    0.7996    1.1629 H   0  0  0  0  0  0  0  0  0  0  0  0
   -4.6503   -2.2399   -1.3479 H   0  0  0  0  0  0  0  0  0  0  0  0
    2.0565    4.6582    1.0960 H   0  0  0  0  0  0  0  0  0  0  0  0
   -6.4835   -1.7150   -0.5435 H   0  0  0  0  0  0  0  0  0  0  0  0
   -0.3427    2.6874    0.2833 H   0  0  0  0  0  0  0  0  0  0  0  0
   -1.4068    3.8663   -0.5292 H   0  0  0  0  0  0  0  0  0  0  0  0
   -0.5675    4.3323    0.9773 H   0  0  0  0  0  0  0  0  0  0  0  0
   -4.6737    1.2597    1.8963 H   0  0  0  0  0  0  0  0  0  0  0  0
   -8.3577   -0.4231    0.9591 H   0  0  0  0  0  0  0  0  0  0  0  0
  1  5  2  0  0  0  0
  1  6  2  0  0  0  0
  1  8  1  0  0  0  0
  1 29  1  0  0  0  0
  2 13  1  0  0  0  0
  2 16  1  0  0  0  0
  3 11  1  0  0  0  0
  3 42  1  0  0  0  0
  4 15  1  0  0  0  0
  4 17  1  0  0  0  0
  7 12  1  0  0  0  0
  7 14  1  0  0  0  0
  7 37  1  0  0  0  0
  8 18  1  0  0  0  0
  8 51  1  0  0  0  0
  9 21  1  0  0  0  0
  9 28  1  0  0  0  0
  9 30  1  0  0  0  0
 10 30  2  0  0  0  0
 10 31  1  0  0  0  0
 11 12  1  0  0  0  0
 11 13  1  0  0  0  0
 11 32  1  0  0  0  0
 12 33  1  0  0  0  0
 12 34  1  0  0  0  0
 13 35  1  0  0  0  0
 13 36  1  0  0  0  0
 14 15  1  0  0  0  0
 14 38  1  0  0  0  0
 14 39  1  0  0  0  0
 15 40  1  0  0  0  0
 15 41  1  0  0  0  0
 16 19  2  0  0  0  0
 16 20  1  0  0  0  0
 17 24  2  0  0  0  0
 17 25  1  0  0  0  0
 18 22  2  0  0  0  0
 18 23  1  0  0  0  0
 19 22  1  0  0  0  0
 19 43  1  0  0  0  0
 20 23  2  0  0  0  0
 20 44  1  0  0  0  0
 21 26  2  0  0  0  0
 21 27  1  0  0  0  0
 22 45  1  0  0  0  0
 23 46  1  0  0  0  0
 24 26  1  0  0  0  0
 24 47  1  0  0  0  0
 25 27  2  0  0  0  0
 25 48  1  0  0  0  0
 26 49  1  0  0  0  0
 27 50  1  0  0  0  0
 28 31  2  0  0  0  0
 28 52  1  0  0  0  0
 29 53  1  0  0  0  0
 29 54  1  0  0  0  0
 29 55  1  0  0  0  0
 30 56  1  0  0  0  0
 31 57  1  0  0  0  0
M  END
> <PUBCHEM_COMPOUND_CID>
130400

> <PUBCHEM_CONFORMER_RMSD>
1.2

> <PUBCHEM_CONFORMER_DIVERSEORDER>
1
124
366
46
335
353
29
246
2
237
179
177
106
267
358
110
81
223
6
37
260
204
206
317
27
259
130
11
333
113
281
232
83
178
196
255
339
308
367
52
249
331
65
336
221
132
274
136
303
142
151
362
122
186
322
135
295
125
43
242
56
376
238
19
155
48
7
67
261
304
343
187
372
364
243
209
310
181
128
230
194
137
68
253
184
91
90
311
5
280
207
63
234
99
28
92
301
370
60
167
118
270
329
85
189
21
72
183
190
35
15
4
57
3
291
32
182
217
69
350
324
98
327
123
248
212
374
325
131
197
328
42
330
268
88
12
240
154
23
349
22
40
103
360
24
188
71
100
338
53
302
193
203
33
264
141
269
14
170
25
20
44
256
162
50
102
149
273
150
134
215
319
359
161
145
220
361
73
292
108
293
373
340
272
45
18
62
75
163
180
239
166
356
126
9
114
26
144
214
371
173
78
341
121
115
120
146
66
169
297
368
288
275
101
222
140
210
284
77
61
347
138
355
86
342
228
13
80
89
300
171
314
127
316
312
278
363
156
112
285
168
93
306
96
245
365
305
277
219
10
290
226
231
109
236
172
58
64
213
357
254
265
133
233
218
276
323
82
332
199
157
263
307
289
235
352
55
315
326
283
287
104
39
369
84
354
147
313
247
262
294
258
337
185
119
16
165
318
159
107
174
17
95
211
8
139
348
286
250
54
320
346
321
36
202
375
296
216
158
351
271
51
49
309
41
279
30
164
97
38
334
192
251
344
200
129
31
74
47
176
229
153
116
59
225
70
345
94
266
201
34
282
117
241
298
79
191
195
244
87
224
148
76
205
299
105
143
227
160
252
257
152
111
208
175
198

> <PUBCHEM_MMFF94_PARTIAL_CHARGES>
45
1 1.33
10 -0.57
11 0.28
12 0.27
13 0.28
14 0.27
15 0.28
16 0.08
17 0.08
18 0.2
19 -0.15
2 -0.36
20 -0.15
21 -0.02
22 -0.15
23 -0.15
24 -0.15
25 -0.15
26 -0.15
27 -0.15
28 -0.3
29 0.11
3 -0.68
30 0.04
31 0.08
37 0.36
4 -0.36
42 0.4
43 0.15
44 0.15
45 0.15
46 0.15
47 0.15
48 0.15
49 0.15
5 -0.65
50 0.15
51 0.42
52 0.15
56 0.15
57 0.15
6 -0.65
7 -0.9
8 -0.76
9 0.33

> <PUBCHEM_EFFECTIVE_ROTOR_COUNT>
12

> <PUBCHEM_PHARMACOPHORE_FEATURES>
13
1 2 acceptor
1 3 acceptor
1 3 donor
1 4 acceptor
1 5 acceptor
1 6 acceptor
1 7 cation
1 7 donor
1 8 donor
3 9 10 30 cation
5 9 10 28 30 31 rings
6 16 18 19 20 22 23 rings
6 17 21 24 25 26 27 rings

> <PUBCHEM_HEAVY_ATOM_COUNT>
31

> <PUBCHEM_ATOM_DEF_STEREO_COUNT>
0

> <PUBCHEM_ATOM_UDEF_STEREO_COUNT>
1

> <PUBCHEM_BOND_DEF_STEREO_COUNT>
0

> <PUBCHEM_BOND_UDEF_STEREO_COUNT>
0

> <PUBCHEM_ISOTOPIC_ATOM_COUNT>
0

> <PUBCHEM_COMPONENT_COUNT>
1

> <PUBCHEM_CACTVS_TAUTO_COUNT>
1

> <PUBCHEM_CONFORMER_ID>
0001FD6000000001

> <PUBCHEM_MMFF94_ENERGY>
86.6133

> <PUBCHEM_FEATURE_SELFOVERLAP>
65.994

> <PUBCHEM_SHAPE_FINGERPRINT>
10074138 170 16965728592002536890
10190108 129 18409161139566870280
11059048 146 17544474610335633828
12422481 6 18334574638562037309
12708847 88 18191302887705301375
13785724 45 18339369547854657743
15264996 154 18264790864086488687
17818456 19 18130234873368941561
20465049 17 18270133412924523014
20775530 9 18265318535388919794
21049683 271 17128753292944210846
23559900 14 16988298468991296743
245318 6 18199476626627534789
3493558 16 17557716759266419857
373842 8 18267864987255680237
6609424 69 18127694816212418254

> <PUBCHEM_SHAPE_MULTIPOLES>
592.54
13.48
6.81
1.85
25.44
5.73
0.14
-4.13
-8.04
-9.61
2.84
-0.3
-0.42
-2.42

> <PUBCHEM_SHAPE_SELFOVERLAP>
1235.878

> <PUBCHEM_SHAPE_VOLUME>
337.1

> <PUBCHEM_COORDINATE_TYPE>
2
5
10

$$$$
