130459
  -OEChem-03292013323D

 52 52  0     1  0  0  0  0  0999 V2000
    5.1438   -1.5986    0.0154 S   0  0  0  0  0  0  0  0  0  0  0  0
   -0.4240    2.6171   -1.9747 O   0  0  0  0  0  0  0  0  0  0  0  0
   -2.9224    1.7186   -1.8809 O   0  0  0  0  0  0  0  0  0  0  0  0
   -3.2921   -0.2557    2.3871 O   0  0  0  0  0  0  0  0  0  0  0  0
   -5.3884   -0.8446    1.7783 O   0  0  0  0  0  0  0  0  0  0  0  0
    5.9062   -1.3618   -1.2023 O   0  0  0  0  0  0  0  0  0  0  0  0
    5.8403   -1.7549    1.2851 O   0  0  0  0  0  0  0  0  0  0  0  0
   -2.5053    0.3132   -0.0811 N   0  0  0  0  0  0  0  0  0  0  0  0
   -1.3286    3.4597    0.6350 N   0  0  0  0  0  0  0  0  0  0  0  0
   -4.0372   -1.4518   -0.8858 C   0  0  0  0  0  0  0  0  0  0  0  0
   -0.3953    2.3412    0.4408 C   0  0  1  0  0  0  0  0  0  0  0  0
   -3.8325   -0.2343    0.0284 C   0  0  1  0  0  0  0  0  0  0  0  0
   -2.9617   -2.5615   -0.8557 C   0  0  0  0  0  0  0  0  0  0  0  0
   -0.6981    1.6968   -0.9286 C   0  0  1  0  0  0  0  0  0  0  0  0
    1.0657    2.8330    0.5524 C   0  0  0  0  0  0  0  0  0  0  0  0
   -2.1556    1.2561   -1.0386 C   0  0  0  0  0  0  0  0  0  0  0  0
    2.0852    1.7261    0.4178 C   0  0  0  0  0  0  0  0  0  0  0  0
   -3.2197   -3.6982   -1.8420 C   0  0  0  0  0  0  0  0  0  0  0  0
   -2.8640   -3.1314    0.5646 C   0  0  0  0  0  0  0  0  0  0  0  0
   -4.2554   -0.4947    1.4655 C   0  0  0  0  0  0  0  0  0  0  0  0
    2.5224    1.0394    1.5506 C   0  0  0  0  0  0  0  0  0  0  0  0
    2.5883    1.3899   -0.8389 C   0  0  0  0  0  0  0  0  0  0  0  0
    3.9658   -0.3194    0.1698 C   0  0  0  0  0  0  0  0  0  0  0  0
    3.4626    0.0167    1.4267 C   0  0  0  0  0  0  0  0  0  0  0  0
    3.5286    0.3671   -0.9630 C   0  0  0  0  0  0  0  0  0  0  0  0
    4.1711   -3.0680   -0.2261 C   0  0  0  0  0  0  0  0  0  0  0  0
   -5.0195   -1.8995   -0.6846 H   0  0  0  0  0  0  0  0  0  0  0  0
   -4.0856   -1.0842   -1.9204 H   0  0  0  0  0  0  0  0  0  0  0  0
   -0.5745    1.6155    1.2432 H   0  0  0  0  0  0  0  0  0  0  0  0
   -4.5216    0.5510   -0.3120 H   0  0  0  0  0  0  0  0  0  0  0  0
   -1.9903   -2.1234   -1.1166 H   0  0  0  0  0  0  0  0  0  0  0  0
   -0.0879    0.8033   -1.0943 H   0  0  0  0  0  0  0  0  0  0  0  0
    1.2730    3.6082   -0.1977 H   0  0  0  0  0  0  0  0  0  0  0  0
    1.2129    3.3284    1.5222 H   0  0  0  0  0  0  0  0  0  0  0  0
   -1.7927   -0.0459    0.5470 H   0  0  0  0  0  0  0  0  0  0  0  0
   -2.4146   -4.4399   -1.8081 H   0  0  0  0  0  0  0  0  0  0  0  0
   -3.2774   -3.3130   -2.8654 H   0  0  0  0  0  0  0  0  0  0  0  0
   -4.1631   -4.2081   -1.6197 H   0  0  0  0  0  0  0  0  0  0  0  0
   -2.4046   -2.4190    1.2532 H   0  0  0  0  0  0  0  0  0  0  0  0
   -2.2246   -4.0216    0.5778 H   0  0  0  0  0  0  0  0  0  0  0  0
   -3.8452   -3.4244    0.9526 H   0  0  0  0  0  0  0  0  0  0  0  0
   -2.2823    3.1087    0.7095 H   0  0  0  0  0  0  0  0  0  0  0  0
   -1.1280    3.9187    1.5228 H   0  0  0  0  0  0  0  0  0  0  0  0
    2.1346    1.2898    2.5345 H   0  0  0  0  0  0  0  0  0  0  0  0
    2.2647    1.9204   -1.7299 H   0  0  0  0  0  0  0  0  0  0  0  0
   -0.9162    3.4348   -1.7876 H   0  0  0  0  0  0  0  0  0  0  0  0
    3.7840   -0.5095    2.3211 H   0  0  0  0  0  0  0  0  0  0  0  0
    3.9031    0.1190   -1.9521 H   0  0  0  0  0  0  0  0  0  0  0  0
   -3.6116   -0.4132    3.3011 H   0  0  0  0  0  0  0  0  0  0  0  0
    4.8547   -3.9127   -0.3353 H   0  0  0  0  0  0  0  0  0  0  0  0
    3.5307   -3.2175    0.6452 H   0  0  0  0  0  0  0  0  0  0  0  0
    3.5736   -2.9533   -1.1324 H   0  0  0  0  0  0  0  0  0  0  0  0
  1  6  2  0  0  0  0
  1  7  2  0  0  0  0
  1 23  1  0  0  0  0
  1 26  1  0  0  0  0
  2 14  1  0  0  0  0
  2 46  1  0  0  0  0
  3 16  2  0  0  0  0
  4 20  1  0  0  0  0
  4 49  1  0  0  0  0
  5 20  2  0  0  0  0
  8 12  1  0  0  0  0
  8 16  1  0  0  0  0
  8 35  1  0  0  0  0
  9 11  1  0  0  0  0
  9 42  1  0  0  0  0
  9 43  1  0  0  0  0
 10 12  1  0  0  0  0
 10 13  1  0  0  0  0
 10 27  1  0  0  0  0
 10 28  1  0  0  0  0
 11 14  1  0  0  0  0
 11 15  1  0  0  0  0
 11 29  1  0  0  0  0
 12 20  1  0  0  0  0
 12 30  1  0  0  0  0
 13 18  1  0  0  0  0
 13 19  1  0  0  0  0
 13 31  1  0  0  0  0
 14 16  1  0  0  0  0
 14 32  1  0  0  0  0
 15 17  1  0  0  0  0
 15 33  1  0  0  0  0
 15 34  1  0  0  0  0
 17 21  2  0  0  0  0
 17 22  1  0  0  0  0
 18 36  1  0  0  0  0
 18 37  1  0  0  0  0
 18 38  1  0  0  0  0
 19 39  1  0  0  0  0
 19 40  1  0  0  0  0
 19 41  1  0  0  0  0
 21 24  1  0  0  0  0
 21 44  1  0  0  0  0
 22 25  2  0  0  0  0
 22 45  1  0  0  0  0
 23 24  2  0  0  0  0
 23 25  1  0  0  0  0
 24 47  1  0  0  0  0
 25 48  1  0  0  0  0
 26 50  1  0  0  0  0
 26 51  1  0  0  0  0
 26 52  1  0  0  0  0
M  END
> <PUBCHEM_COMPOUND_CID>
130459

> <PUBCHEM_CONFORMER_RMSD>
1

> <PUBCHEM_CONFORMER_DIVERSEORDER>
1
170
211
175
25
57
76
90
7
107
208
97
53
191
187
99
131
200
150
66
198
213
113
117
125
23
40
55
181
111
152
87
45
164
120
32
165
35
144
178
43
110
124
79
210
17
77
88
42
62
103
158
26
154
59
118
46
85
56
162
28
202
9
140
197
185
81
58
196
49
13
48
159
12
63
209
122
189
199
41
80
146
20
121
86
104
155
212
128
52
142
33
172
34
72
21
102
6
193
133
194
82
123
24
207
192
156
47
27
171
95
135
136
84
3
116
31
115
188
50
71
161
106
132
149
74
129
130
39
108
177
70
143
134
91
73
5
182
96
147
69
138
93
169
65
64
22
148
68
195
8
166
137
67
15
18
179
114
44
186
176
168
100
92
109
173
141
139
206
119
30
163
75
145
151
153
94
157
16
61
180
89
29
167
14
2
101
98
54
112
60
174
4
203
160
190
78
10
183
205
38
11
19
201
127
36
184
204
37
126
105
51
83

> <PUBCHEM_MMFF94_PARTIAL_CHARGES>
31
1 1.2
11 0.27
12 0.36
14 0.34
15 0.14
16 0.57
17 -0.14
2 -0.68
20 0.66
21 -0.15
22 -0.15
23 -0.01
24 -0.15
25 -0.15
26 0.11
3 -0.57
35 0.37
4 -0.65
42 0.36
43 0.36
44 0.15
45 0.15
46 0.4
47 0.15
48 0.15
49 0.5
5 -0.57
6 -0.65
7 -0.65
8 -0.73
9 -0.99

> <PUBCHEM_EFFECTIVE_ROTOR_COUNT>
10

> <PUBCHEM_PHARMACOPHORE_FEATURES>
13
1 2 acceptor
1 2 donor
1 3 acceptor
1 4 acceptor
1 5 acceptor
1 6 acceptor
1 7 acceptor
1 8 donor
1 9 cation
1 9 donor
3 13 18 19 hydrophobe
3 4 5 20 anion
6 17 21 22 23 24 25 rings

> <PUBCHEM_HEAVY_ATOM_COUNT>
26

> <PUBCHEM_ATOM_DEF_STEREO_COUNT>
3

> <PUBCHEM_ATOM_UDEF_STEREO_COUNT>
0

> <PUBCHEM_BOND_DEF_STEREO_COUNT>
0

> <PUBCHEM_BOND_UDEF_STEREO_COUNT>
0

> <PUBCHEM_ISOTOPIC_ATOM_COUNT>
0

> <PUBCHEM_COMPONENT_COUNT>
1

> <PUBCHEM_CACTVS_TAUTO_COUNT>
2

> <PUBCHEM_CONFORMER_ID>
0001FD9B00000001

> <PUBCHEM_MMFF94_ENERGY>
42.4756

> <PUBCHEM_FEATURE_SELFOVERLAP>
66.062

> <PUBCHEM_SHAPE_FINGERPRINT>
10042902 136 18341332296691322838
107951 10 17169262634247140949
10928967 22 18409445916497913258
10968037 57 18340764940101409943
11552529 35 17558546056968488719
12107183 9 18272665549617001665
12553582 1 17968935434914681393
12596599 1 18200878508031749123
12633257 1 18130517400089744071
13103583 49 17846791710054926777
13533116 47 17983011443383137591
13583140 156 15697447766075184763
14114206 34 17168409502642749149
14251751 18 18335130961143127962
14251764 30 17895486920050075235
14950920 106 17489867154614266122
15537594 2 18264220255910439974
20621476 51 18200584925426602519
20775530 9 18333445456682436606
21095088 737 8862942766947697179
21401589 2 10591759917720239885
22907989 373 12758805037942588539
23379529 103 18341333306256557174
235170 7 14851874902622212659
2838139 119 11025795410187506878
325973 47 17189251600473692998
3737641 26 18337961211051696792
44062 13 18041552538394776509
463206 1 18409449227922856522
484985 159 18269552750230359329
508706 21 18334569118621843551
56633871 153 18343305877129604475
7808743 9 8718534039468983900

> <PUBCHEM_SHAPE_MULTIPOLES>
493.74
12.24
4.31
1.85
6.97
1.26
-0.22
10.99
-2.17
-1.09
1.15
-1.42
-0.07
-0.18

> <PUBCHEM_SHAPE_SELFOVERLAP>
987.051

> <PUBCHEM_SHAPE_VOLUME>
292.3

> <PUBCHEM_COORDINATE_TYPE>
2
5
10

$$$$
