130513
  -OEChem-03292013323D

 38 41  0     1  0  0  0  0  0999 V2000
   -0.0962    1.9777    1.4002 O   0  0  0  0  0  0  0  0  0  0  0  0
   -2.3592    1.4673    1.4063 O   0  0  0  0  0  0  0  0  0  0  0  0
   -3.1315   -0.6494    0.2868 O   0  0  0  0  0  0  0  0  0  0  0  0
    0.3073   -2.9497    0.3824 O   0  0  0  0  0  0  0  0  0  0  0  0
    5.6032   -0.3759   -0.4535 O   0  0  0  0  0  0  0  0  0  0  0  0
   -4.0494   -2.0900   -1.2567 O   0  0  0  0  0  0  0  0  0  0  0  0
   -0.5478    1.4845   -1.8907 N   0  0  0  0  0  0  0  0  0  0  0  0
    1.0863    1.8234    0.6605 N   0  0  2  0  0  0  0  0  0  0  0  0
   -5.3841   -0.7938    0.0943 N   0  0  0  0  0  0  0  0  0  0  0  0
   -1.2946    1.8961   -0.7037 C   0  0  2  0  0  0  0  0  0  0  0  0
   -0.1373    2.7174   -1.2422 C   0  0  1  0  0  0  0  0  0  0  0  0
   -1.1333    1.2772    0.6784 C   0  0  1  0  0  0  0  0  0  0  0  0
    1.1403    2.7747   -0.4518 C   0  0  0  0  0  0  0  0  0  0  0  0
   -0.8212   -0.2529    0.7476 C   0  0  2  0  0  0  0  0  0  0  0  0
    0.6486   -0.5548    0.4696 C   0  0  0  0  0  0  0  0  0  0  0  0
    1.5640    0.5205    0.4226 C   0  0  0  0  0  0  0  0  0  0  0  0
   -1.8327   -1.0399   -0.1046 C   0  0  0  0  0  0  0  0  0  0  0  0
    1.1180   -1.8604    0.2730 C   0  0  0  0  0  0  0  0  0  0  0  0
    2.9111    0.2754    0.1264 C   0  0  0  0  0  0  0  0  0  0  0  0
    2.4651   -2.0930   -0.0070 C   0  0  0  0  0  0  0  0  0  0  0  0
    3.3583   -1.0273   -0.0873 C   0  0  0  0  0  0  0  0  0  0  0  0
    4.7611   -1.2751   -0.3803 C   0  0  0  0  0  0  0  0  0  0  0  0
   -4.1761   -1.2519   -0.3703 C   0  0  0  0  0  0  0  0  0  0  0  0
   -2.3004    2.2485   -0.8994 H   0  0  0  0  0  0  0  0  0  0  0  0
   -0.3410    3.6266   -1.7915 H   0  0  0  0  0  0  0  0  0  0  0  0
   -1.0885    1.6907   -2.7298 H   0  0  0  0  0  0  0  0  0  0  0  0
    2.0064    2.6160   -1.1045 H   0  0  0  0  0  0  0  0  0  0  0  0
    1.2427    3.7824   -0.0321 H   0  0  0  0  0  0  0  0  0  0  0  0
   -0.9682   -0.5649    1.7933 H   0  0  0  0  0  0  0  0  0  0  0  0
   -1.7566   -2.1143    0.0722 H   0  0  0  0  0  0  0  0  0  0  0  0
   -1.6844   -0.8631   -1.1752 H   0  0  0  0  0  0  0  0  0  0  0  0
   -2.3780    0.8589    2.1629 H   0  0  0  0  0  0  0  0  0  0  0  0
    3.6062    1.1112    0.0835 H   0  0  0  0  0  0  0  0  0  0  0  0
    2.8219   -3.1097   -0.1578 H   0  0  0  0  0  0  0  0  0  0  0  0
    0.8213   -3.7583    0.2169 H   0  0  0  0  0  0  0  0  0  0  0  0
    5.0562   -2.3263   -0.5389 H   0  0  0  0  0  0  0  0  0  0  0  0
   -5.4372   -0.0979    0.8305 H   0  0  0  0  0  0  0  0  0  0  0  0
   -6.2605   -1.1364   -0.2846 H   0  0  0  0  0  0  0  0  0  0  0  0
  1  8  1  0  0  0  0
  1 12  1  0  0  0  0
  2 12  1  0  0  0  0
  2 32  1  0  0  0  0
  3 17  1  0  0  0  0
  3 23  1  0  0  0  0
  4 18  1  0  0  0  0
  4 35  1  0  0  0  0
  5 22  2  0  0  0  0
  6 23  2  0  0  0  0
  7 10  1  0  0  0  0
  7 11  1  0  0  0  0
  7 26  1  0  0  0  0
  8 13  1  0  0  0  0
  8 16  1  0  0  0  0
  9 23  1  0  0  0  0
  9 37  1  0  0  0  0
  9 38  1  0  0  0  0
 10 11  1  0  0  0  0
 10 12  1  0  0  0  0
 10 24  1  0  0  0  0
 11 13  1  0  0  0  0
 11 25  1  0  0  0  0
 12 14  1  0  0  0  0
 13 27  1  0  0  0  0
 13 28  1  0  0  0  0
 14 15  1  0  0  0  0
 14 17  1  0  0  0  0
 14 29  1  0  0  0  0
 15 16  2  0  0  0  0
 15 18  1  0  0  0  0
 16 19  1  0  0  0  0
 17 30  1  0  0  0  0
 17 31  1  0  0  0  0
 18 20  2  0  0  0  0
 19 21  2  0  0  0  0
 19 33  1  0  0  0  0
 20 21  1  0  0  0  0
 20 34  1  0  0  0  0
 21 22  1  0  0  0  0
 22 36  1  0  0  0  0
M  END
> <PUBCHEM_COMPOUND_CID>
130513

> <PUBCHEM_CONFORMER_RMSD>
0.8

> <PUBCHEM_CONFORMER_DIVERSEORDER>
1
5
4
3
2

> <PUBCHEM_MMFF94_PARTIAL_CHARGES>
33
1 -0.26
10 -0.04
11 -0.04
12 0.65
13 0.46
14 0.14
15 -0.14
16 0.1
17 0.28
18 0.08
19 -0.15
2 -0.68
20 -0.15
21 0.09
22 0.42
23 0.78
24 0.1
25 0.1
26 0.36
3 -0.43
32 0.4
33 0.15
34 0.15
35 0.45
36 0.06
37 0.37
38 0.37
4 -0.53
5 -0.57
6 -0.57
7 -0.68
8 -0.49
9 -0.8

> <PUBCHEM_EFFECTIVE_ROTOR_COUNT>
4.8

> <PUBCHEM_PHARMACOPHORE_FEATURES>
11
1 2 acceptor
1 2 donor
1 4 donor
1 5 acceptor
1 6 acceptor
1 7 cation
1 7 donor
1 9 donor
6 1 8 12 14 15 16 rings
6 15 16 18 19 20 21 rings
7 1 7 8 10 11 12 13 rings

> <PUBCHEM_HEAVY_ATOM_COUNT>
23

> <PUBCHEM_ATOM_DEF_STEREO_COUNT>
4

> <PUBCHEM_ATOM_UDEF_STEREO_COUNT>
0

> <PUBCHEM_BOND_DEF_STEREO_COUNT>
0

> <PUBCHEM_BOND_UDEF_STEREO_COUNT>
0

> <PUBCHEM_ISOTOPIC_ATOM_COUNT>
0

> <PUBCHEM_COMPONENT_COUNT>
1

> <PUBCHEM_CACTVS_TAUTO_COUNT>
6

> <PUBCHEM_CONFORMER_ID>
0001FDD100000001

> <PUBCHEM_MMFF94_ENERGY>
84.5444

> <PUBCHEM_FEATURE_SELFOVERLAP>
56.719

> <PUBCHEM_SHAPE_FINGERPRINT>
10967382 1 18337954626834858858
11135609 187 18191874633203820156
11578080 2 17987494014571566057
11680986 33 18120377819901632266
11806522 49 18343300396376444274
12403259 226 18266453214551748258
12403814 3 17897459301907345896
12553582 1 18337659867640950275
13140716 1 18049994786452365554
13583140 156 15769488721045928402
14347332 77 18194122911418635758
14787075 74 18412266151396465114
167882 2 17898861411308908540
16945 1 18122638407229149448
17357779 13 18261661636692013005
17492 54 17969802928303973724
17980427 26 17270584013278490369
1813 80 18337971020725164407
200 152 18413387622548661722
21160774 45 18121780526139923148
21267235 1 18342466936477044731
221490 88 18121221141057441139
22182313 1 18190997140971978740
2334 1 18410575050599006314
23352939 185 18410017649759317776
23402539 116 18411979148433328406
23557571 272 18271814462934117390
23559900 14 18271518814032320273
2748010 2 18337379487970265696
2871803 45 18408601440069994866
3060560 45 18337944701123791895
3286 77 17988923392387342800
34934 24 18118971291131904593
46194498 28 17679565995272027983
6443956 14 18410854386861474757

> <PUBCHEM_SHAPE_MULTIPOLES>
423.17
7.7
3.15
1.13
0.11
0.86
-0.12
-5.63
-1.52
-0.35
-0.54
-0.52
0.55
-0.38

> <PUBCHEM_SHAPE_SELFOVERLAP>
929.614

> <PUBCHEM_SHAPE_VOLUME>
224.7

> <PUBCHEM_COORDINATE_TYPE>
2
5
10

$$$$
