130611
  -OEChem-03292013323D

 28 29  0     1  0  0  0  0  0999 V2000
    1.3674   -2.7572   -0.5401 O   0  0  0  0  0  0  0  0  0  0  0  0
    1.4871    0.4754    2.3155 O   0  0  0  0  0  0  0  0  0  0  0  0
    2.7937   -0.4232   -0.9775 O   0  0  0  0  0  0  0  0  0  0  0  0
   -0.2015    2.7165   -1.5357 O   0  0  0  0  0  0  0  0  0  0  0  0
   -2.4044    1.4010    0.8484 O   0  0  0  0  0  0  0  0  0  0  0  0
   -3.5715   -1.0509    0.1051 O   0  0  0  0  0  0  0  0  0  0  0  0
   -0.4333    0.4024    0.0032 N   0  0  0  0  0  0  0  0  0  0  0  0
   -1.3755   -1.5898   -0.5684 N   0  0  0  0  0  0  0  0  0  0  0  0
   -0.1261   -0.8730   -0.6088 C   0  0  2  0  0  0  0  0  0  0  0  0
    0.6144    1.3855    0.2726 C   0  0  1  0  0  0  0  0  0  0  0  0
    0.9917   -1.5736    0.1580 C   0  0  2  0  0  0  0  0  0  0  0  0
    1.8253    0.6999    0.9436 C   0  0  2  0  0  0  0  0  0  0  0  0
    2.2130   -0.6467    0.3054 C   0  0  2  0  0  0  0  0  0  0  0  0
    0.9775    2.1417   -1.0042 C   0  0  0  0  0  0  0  0  0  0  0  0
   -1.7651    0.5078    0.3348 C   0  0  0  0  0  0  0  0  0  0  0  0
   -2.3924   -0.8157   -0.0520 C   0  0  0  0  0  0  0  0  0  0  0  0
    0.1291   -0.7224   -1.6639 H   0  0  0  0  0  0  0  0  0  0  0  0
    0.1757    2.1095    0.9724 H   0  0  0  0  0  0  0  0  0  0  0  0
    0.6455   -1.8722    1.1557 H   0  0  0  0  0  0  0  0  0  0  0  0
    2.6797    1.3868    0.9288 H   0  0  0  0  0  0  0  0  0  0  0  0
    2.9714   -1.1520    0.9153 H   0  0  0  0  0  0  0  0  0  0  0  0
   -1.5125   -2.5221   -0.9457 H   0  0  0  0  0  0  0  0  0  0  0  0
    1.4095    1.4973   -1.7740 H   0  0  0  0  0  0  0  0  0  0  0  0
    1.6888    2.9455   -0.7911 H   0  0  0  0  0  0  0  0  0  0  0  0
    0.5769   -3.3191   -0.6090 H   0  0  0  0  0  0  0  0  0  0  0  0
    2.2658    0.0863    2.7487 H   0  0  0  0  0  0  0  0  0  0  0  0
    2.9982   -1.2933   -1.3606 H   0  0  0  0  0  0  0  0  0  0  0  0
   -0.7924    1.9894   -1.7953 H   0  0  0  0  0  0  0  0  0  0  0  0
  1 11  1  0  0  0  0
  1 25  1  0  0  0  0
  2 12  1  0  0  0  0
  2 26  1  0  0  0  0
  3 13  1  0  0  0  0
  3 27  1  0  0  0  0
  4 14  1  0  0  0  0
  4 28  1  0  0  0  0
  5 15  2  0  0  0  0
  6 16  2  0  0  0  0
  7  9  1  0  0  0  0
  7 10  1  0  0  0  0
  7 15  1  0  0  0  0
  8  9  1  0  0  0  0
  8 16  1  0  0  0  0
  8 22  1  0  0  0  0
  9 11  1  0  0  0  0
  9 17  1  0  0  0  0
 10 12  1  0  0  0  0
 10 14  1  0  0  0  0
 10 18  1  0  0  0  0
 11 13  1  0  0  0  0
 11 19  1  0  0  0  0
 12 13  1  0  0  0  0
 12 20  1  0  0  0  0
 13 21  1  0  0  0  0
 14 23  1  0  0  0  0
 14 24  1  0  0  0  0
 15 16  1  0  0  0  0
M  END
> <PUBCHEM_COMPOUND_CID>
130611

> <PUBCHEM_CONFORMER_RMSD>
0.6

> <PUBCHEM_CONFORMER_DIVERSEORDER>
1
3
2

> <PUBCHEM_MMFF94_PARTIAL_CHARGES>
21
1 -0.68
10 0.3
11 0.28
12 0.28
13 0.28
14 0.28
15 0.63
16 0.63
2 -0.68
22 0.37
25 0.4
26 0.4
27 0.4
28 0.4
3 -0.68
4 -0.68
5 -0.57
6 -0.57
7 -0.66
8 -0.73
9 0.6

> <PUBCHEM_EFFECTIVE_ROTOR_COUNT>
2

> <PUBCHEM_PHARMACOPHORE_FEATURES>
13
1 1 acceptor
1 1 donor
1 2 acceptor
1 2 donor
1 3 acceptor
1 3 donor
1 4 acceptor
1 4 donor
1 5 acceptor
1 6 acceptor
1 8 donor
5 7 8 9 15 16 rings
6 7 9 10 11 12 13 rings

> <PUBCHEM_HEAVY_ATOM_COUNT>
16

> <PUBCHEM_ATOM_DEF_STEREO_COUNT>
5

> <PUBCHEM_ATOM_UDEF_STEREO_COUNT>
0

> <PUBCHEM_BOND_DEF_STEREO_COUNT>
0

> <PUBCHEM_BOND_UDEF_STEREO_COUNT>
0

> <PUBCHEM_ISOTOPIC_ATOM_COUNT>
0

> <PUBCHEM_COMPONENT_COUNT>
1

> <PUBCHEM_CACTVS_TAUTO_COUNT>
2

> <PUBCHEM_CONFORMER_ID>
0001FE3300000001

> <PUBCHEM_MMFF94_ENERGY>
33.8675

> <PUBCHEM_FEATURE_SELFOVERLAP>
66.098

> <PUBCHEM_SHAPE_FINGERPRINT>
12326174 3 17532082972314019168
12423570 1 10964532730826801842
12524768 44 18268425724799459431
12716301 132 17396397439230029616
13380536 305 18191879026527219054
14761567 1 15313799082051923511
14817 1 14786895092702643584
15219459 52 18192156107731234892
15775835 57 17631454647104428291
15881359 60 17978749624006321053
16945 1 18201996612182637355
19930374 2 17977906242753112016
20511035 2 18201444632066137887
20559304 39 18339928241780435833
21524375 3 17031911997528727125
23552423 10 18338801242288164391
241688 4 18264488386386858235
2748010 2 18268145353703242519
430814 3 17539977590202554372
5084963 1 18201728395922872259
5255222 1 18125434220437604586
528862 383 17826506961915694413
528886 8 18336552702375534918
53812653 166 18130786707255222266
7364860 26 18126289872254499420
81228 2 18044926879593459293

> <PUBCHEM_SHAPE_MULTIPOLES>
284.09
3.66
2.51
1.27
2.28
0.29
-0.39
-0.93
-0.43
-0.45
1.04
-0.63
0.54
-0.09

> <PUBCHEM_SHAPE_SELFOVERLAP>
599.009

> <PUBCHEM_SHAPE_VOLUME>
157.3

> <PUBCHEM_COORDINATE_TYPE>
2
5
10

$$$$
