130689
  -OEChem-03292013323D

 60 63  0     1  0  0  0  0  0999 V2000
    2.6145    0.0291    1.5337 O   0  0  0  0  0  0  0  0  0  0  0  0
   -1.1919   -2.7270   -0.8168 O   0  0  0  0  0  0  0  0  0  0  0  0
    4.6815   -1.0108   -0.7735 O   0  0  0  0  0  0  0  0  0  0  0  0
    4.7285    1.7282    0.5262 O   0  0  0  0  0  0  0  0  0  0  0  0
    2.9568    3.2013    0.3597 O   0  0  0  0  0  0  0  0  0  0  0  0
    4.8642   -3.0713    1.0491 O   0  0  0  0  0  0  0  0  0  0  0  0
   -6.5105    1.0043    1.8577 O   0  0  0  0  0  0  0  0  0  0  0  0
    1.2140   -0.7604   -0.3507 C   0  0  1  0  0  0  0  0  0  0  0  0
    0.4765    0.5942   -0.4336 C   0  0  2  0  0  0  0  0  0  0  0  0
   -0.9662    0.4805   -0.9509 C   0  0  1  0  0  0  0  0  0  0  0  0
   -1.7803   -0.4448    0.0205 C   0  0  2  0  0  0  0  0  0  0  0  0
    2.6087   -0.2641    0.1405 C   0  0  1  0  0  0  0  0  0  0  0  0
    0.4293   -1.6559    0.6312 C   0  0  0  0  0  0  0  0  0  0  0  0
    1.4591    1.4868   -1.1900 C   0  0  0  0  0  0  0  0  0  0  0  0
   -1.0619   -1.8103    0.2587 C   0  0  2  0  0  0  0  0  0  0  0  0
    2.8500    1.0327   -0.6847 C   0  0  1  0  0  0  0  0  0  0  0  0
   -3.3091   -0.5263   -0.3722 C   0  0  1  0  0  0  0  0  0  0  0  0
   -1.6095    1.8748   -1.0611 C   0  0  0  0  0  0  0  0  0  0  0  0
    1.3820   -1.4581   -1.7303 C   0  0  0  0  0  0  0  0  0  0  0  0
   -3.0816    1.8051   -1.4467 C   0  0  0  0  0  0  0  0  0  0  0  0
   -3.8281    0.9108   -0.4909 C   0  0  0  0  0  0  0  0  0  0  0  0
    3.7221   -1.2555   -0.0435 C   0  0  0  0  0  0  0  0  0  0  0  0
   -3.5896   -1.2413   -1.7127 C   0  0  0  0  0  0  0  0  0  0  0  0
    3.4892    2.1260    0.1201 C   0  0  0  0  0  0  0  0  0  0  0  0
   -4.0782   -1.3025    0.6871 C   0  0  0  0  0  0  0  0  0  0  0  0
   -4.8527    1.3962    0.2276 C   0  0  0  0  0  0  0  0  0  0  0  0
    3.5915   -2.5589    0.7156 C   0  0  0  0  0  0  0  0  0  0  0  0
   -5.0978   -0.8248    1.4074 C   0  0  0  0  0  0  0  0  0  0  0  0
   -5.5655    0.5600    1.2148 C   0  0  0  0  0  0  0  0  0  0  0  0
    5.4550    2.6818    1.3078 C   0  0  0  0  0  0  0  0  0  0  0  0
    0.4059    1.0150    0.5832 H   0  0  0  0  0  0  0  0  0  0  0  0
   -0.9655    0.0464   -1.9554 H   0  0  0  0  0  0  0  0  0  0  0  0
   -1.7476    0.0597    1.0017 H   0  0  0  0  0  0  0  0  0  0  0  0
    0.4772   -1.2327    1.6421 H   0  0  0  0  0  0  0  0  0  0  0  0
    0.8802   -2.6523    0.6791 H   0  0  0  0  0  0  0  0  0  0  0  0
    1.2334    2.5464   -1.0425 H   0  0  0  0  0  0  0  0  0  0  0  0
    1.3818    1.3009   -2.2687 H   0  0  0  0  0  0  0  0  0  0  0  0
   -1.5345   -2.3032    1.1158 H   0  0  0  0  0  0  0  0  0  0  0  0
    3.4731    0.8796   -1.5745 H   0  0  0  0  0  0  0  0  0  0  0  0
   -1.0805    2.4737   -1.8117 H   0  0  0  0  0  0  0  0  0  0  0  0
   -1.5096    2.4067   -0.1055 H   0  0  0  0  0  0  0  0  0  0  0  0
    1.6745   -2.5062   -1.6088 H   0  0  0  0  0  0  0  0  0  0  0  0
    0.4759   -1.4457   -2.3355 H   0  0  0  0  0  0  0  0  0  0  0  0
    2.1516   -0.9856   -2.3500 H   0  0  0  0  0  0  0  0  0  0  0  0
   -3.1876    1.4295   -2.4708 H   0  0  0  0  0  0  0  0  0  0  0  0
   -3.4951    2.8211   -1.4505 H   0  0  0  0  0  0  0  0  0  0  0  0
   -4.6212   -1.0658   -2.0461 H   0  0  0  0  0  0  0  0  0  0  0  0
   -2.9323   -0.8991   -2.5178 H   0  0  0  0  0  0  0  0  0  0  0  0
   -3.4782   -2.3284   -1.6368 H   0  0  0  0  0  0  0  0  0  0  0  0
   -3.7951   -2.3392    0.8557 H   0  0  0  0  0  0  0  0  0  0  0  0
    3.5033    0.3281    1.7903 H   0  0  0  0  0  0  0  0  0  0  0  0
   -1.1986   -2.2330   -1.6504 H   0  0  0  0  0  0  0  0  0  0  0  0
   -5.1871    2.4233    0.1249 H   0  0  0  0  0  0  0  0  0  0  0  0
    3.0802   -3.2919    0.0881 H   0  0  0  0  0  0  0  0  0  0  0  0
    3.0362   -2.4278    1.6467 H   0  0  0  0  0  0  0  0  0  0  0  0
   -5.6101   -1.4406    2.1374 H   0  0  0  0  0  0  0  0  0  0  0  0
    5.2762   -2.4490    1.6726 H   0  0  0  0  0  0  0  0  0  0  0  0
    4.9132    2.9044    2.2320 H   0  0  0  0  0  0  0  0  0  0  0  0
    5.6253    3.5947    0.7292 H   0  0  0  0  0  0  0  0  0  0  0  0
    6.4227    2.2433    1.5652 H   0  0  0  0  0  0  0  0  0  0  0  0
  1 12  1  0  0  0  0
  1 51  1  0  0  0  0
  2 15  1  0  0  0  0
  2 52  1  0  0  0  0
  3 22  2  0  0  0  0
  4 24  1  0  0  0  0
  4 30  1  0  0  0  0
  5 24  2  0  0  0  0
  6 27  1  0  0  0  0
  6 57  1  0  0  0  0
  7 29  2  0  0  0  0
  8  9  1  0  0  0  0
  8 12  1  0  0  0  0
  8 13  1  0  0  0  0
  8 19  1  0  0  0  0
  9 10  1  0  0  0  0
  9 14  1  0  0  0  0
  9 31  1  0  0  0  0
 10 11  1  0  0  0  0
 10 18  1  0  0  0  0
 10 32  1  0  0  0  0
 11 15  1  0  0  0  0
 11 17  1  0  0  0  0
 11 33  1  0  0  0  0
 12 16  1  0  0  0  0
 12 22  1  0  0  0  0
 13 15  1  0  0  0  0
 13 34  1  0  0  0  0
 13 35  1  0  0  0  0
 14 16  1  0  0  0  0
 14 36  1  0  0  0  0
 14 37  1  0  0  0  0
 15 38  1  0  0  0  0
 16 24  1  0  0  0  0
 16 39  1  0  0  0  0
 17 21  1  0  0  0  0
 17 23  1  0  0  0  0
 17 25  1  0  0  0  0
 18 20  1  0  0  0  0
 18 40  1  0  0  0  0
 18 41  1  0  0  0  0
 19 42  1  0  0  0  0
 19 43  1  0  0  0  0
 19 44  1  0  0  0  0
 20 21  1  0  0  0  0
 20 45  1  0  0  0  0
 20 46  1  0  0  0  0
 21 26  2  0  0  0  0
 22 27  1  0  0  0  0
 23 47  1  0  0  0  0
 23 48  1  0  0  0  0
 23 49  1  0  0  0  0
 25 28  2  0  0  0  0
 25 50  1  0  0  0  0
 26 29  1  0  0  0  0
 26 53  1  0  0  0  0
 27 54  1  0  0  0  0
 27 55  1  0  0  0  0
 28 29  1  0  0  0  0
 28 56  1  0  0  0  0
 30 58  1  0  0  0  0
 30 59  1  0  0  0  0
 30 60  1  0  0  0  0
M  END
> <PUBCHEM_COMPOUND_CID>
130689

> <PUBCHEM_CONFORMER_RMSD>
0.8

> <PUBCHEM_CONFORMER_DIVERSEORDER>
1
3
2

> <PUBCHEM_MMFF94_PARTIAL_CHARGES>
27
1 -0.68
12 0.34
15 0.28
16 0.06
17 0.28
2 -0.68
20 0.14
21 -0.28
22 0.45
24 0.66
25 -0.29
26 -0.14
27 0.34
28 -0.14
29 0.54
3 -0.57
30 0.28
4 -0.43
5 -0.57
50 0.15
51 0.4
52 0.4
53 0.15
56 0.15
57 0.4
6 -0.68
7 -0.57

> <PUBCHEM_EFFECTIVE_ROTOR_COUNT>
5.4

> <PUBCHEM_PHARMACOPHORE_FEATURES>
13
1 1 acceptor
1 1 donor
1 2 acceptor
1 2 donor
1 3 acceptor
1 5 acceptor
1 6 acceptor
1 6 donor
1 7 acceptor
5 8 9 12 14 16 rings
6 10 11 17 18 20 21 rings
6 17 21 25 26 28 29 rings
6 8 9 10 11 13 15 rings

> <PUBCHEM_HEAVY_ATOM_COUNT>
30

> <PUBCHEM_ATOM_DEF_STEREO_COUNT>
8

> <PUBCHEM_ATOM_UDEF_STEREO_COUNT>
0

> <PUBCHEM_BOND_DEF_STEREO_COUNT>
0

> <PUBCHEM_BOND_UDEF_STEREO_COUNT>
0

> <PUBCHEM_ISOTOPIC_ATOM_COUNT>
0

> <PUBCHEM_COMPONENT_COUNT>
1

> <PUBCHEM_CACTVS_TAUTO_COUNT>
9

> <PUBCHEM_CONFORMER_ID>
0001FE8100000001

> <PUBCHEM_MMFF94_ENERGY>
98.3834

> <PUBCHEM_FEATURE_SELFOVERLAP>
66.079

> <PUBCHEM_SHAPE_FINGERPRINT>
10076449 9 18265346023654887670
10906281 52 17970073451409751028
1100329 8 16532846397169504047
11135609 201 17559673034811779137
11405975 8 18413106139219302419
11578080 2 17987232412249615810
11595378 159 17313089852543721572
12035758 1 18339912711484902170
12236239 1 18272651260492786127
12403259 226 18188204308369957060
12403259 415 18334575720081178725
12422481 6 18187654561784313277
12596602 18 18272661160160061465
12616971 3 18272086076481319423
12633257 1 18130788936717762687
12788726 201 17131567075651786689
13140716 1 18263642866456648861
13224815 77 18335413591223240389
13583140 156 16661185053712662805
14178342 30 17972033914664366290
14341114 176 18187653461802914217
14739800 52 17774994739376147408
14955137 171 18120938300196630274
15196674 1 18334857216822440813
15238133 3 16916791738699487513
15475509 35 17023179367254164658
15475509 84 18198906903221349920
15788980 27 15267336306206333855
16994733 274 15912472662956877816
17349148 13 18060417980320938614
1813 80 16298109804445714117
18608769 82 17968390025549785178
20739085 24 18261125053601188317
21033648 144 18338226158709156614
21033648 29 17458333127028225479
21033650 10 13686036284226203723
21267235 1 18042694897165274050
21792934 111 18040721325865565985
22122407 14 17702964564778741441
22182313 1 17895175697897653620
23559900 14 18040715827352261934
3411729 13 18341896333725091768
350125 39 18334864870143101308
392239 28 17749947890054093433
4093350 32 17418379087110944422
5104073 3 18410298021124424491
5385378 56 18411698816550700704
57724786 102 18131072640603398728
7495541 125 18334577893671999966

> <PUBCHEM_SHAPE_MULTIPOLES>
576.3
12.49
3.08
1.5
4.61
0.01
-0.01
-2.92
6.16
-3.85
0.36
0.91
-0.06
0.38

> <PUBCHEM_SHAPE_SELFOVERLAP>
1244.732

> <PUBCHEM_SHAPE_VOLUME>
311.8

> <PUBCHEM_COORDINATE_TYPE>
2
5
10

$$$$
