130671
  -OEChem-03292013323D

 37 37  0     1  0  0  0  0  0999 V2000
   -2.7761    0.5934    1.7172 O   0  0  0  0  0  0  0  0  0  0  0  0
    2.7083    0.6621   -1.6870 O   0  0  0  0  0  0  0  0  0  0  0  0
   -2.8116    1.9122   -1.1297 O   0  0  0  0  0  0  0  0  0  0  0  0
    2.8673    1.8580    1.2096 O   0  0  0  0  0  0  0  0  0  0  0  0
   -5.3939   -0.2470    0.1103 O   0  0  0  0  0  0  0  0  0  0  0  0
    5.3892   -0.2486   -0.2294 O   0  0  0  0  0  0  0  0  0  0  0  0
   -5.3760    1.9649   -0.3896 O   0  0  0  0  0  0  0  0  0  0  0  0
    5.3983    1.9399    0.3648 O   0  0  0  0  0  0  0  0  0  0  0  0
   -0.0055   -2.4608   -0.0187 N   0  0  0  0  0  0  0  0  0  0  0  0
   -0.0025    0.3582    0.0481 C   0  0  0  0  0  0  0  0  0  0  0  0
   -1.2455   -0.4728    0.2987 C   0  0  0  0  0  0  0  0  0  0  0  0
    1.2359   -0.4625   -0.2520 C   0  0  0  0  0  0  0  0  0  0  0  0
   -1.2050   -1.8232    0.2611 C   0  0  0  0  0  0  0  0  0  0  0  0
    1.1943   -1.8130   -0.2706 C   0  0  0  0  0  0  0  0  0  0  0  0
   -2.4723    0.2918    0.5616 C   0  0  0  0  0  0  0  0  0  0  0  0
    2.4526    0.3117   -0.5335 C   0  0  0  0  0  0  0  0  0  0  0  0
   -2.3645   -2.7487    0.5113 C   0  0  0  0  0  0  0  0  0  0  0  0
    2.3599   -2.7269   -0.5337 C   0  0  0  0  0  0  0  0  0  0  0  0
   -3.3256    0.6875   -0.6301 C   0  0  1  0  0  0  0  0  0  0  0  0
    3.3564    0.6554    0.6369 C   0  0  1  0  0  0  0  0  0  0  0  0
   -4.7882    0.8941   -0.3055 C   0  0  0  0  0  0  0  0  0  0  0  0
    4.8046    0.8743    0.2600 C   0  0  0  0  0  0  0  0  0  0  0  0
   -0.1874    1.0315   -0.7979 H   0  0  0  0  0  0  0  0  0  0  0  0
    0.1866    0.9787    0.9327 H   0  0  0  0  0  0  0  0  0  0  0  0
   -0.0049   -3.4746   -0.0353 H   0  0  0  0  0  0  0  0  0  0  0  0
   -3.2831   -2.2143    0.7690 H   0  0  0  0  0  0  0  0  0  0  0  0
   -2.1365   -3.4273    1.3402 H   0  0  0  0  0  0  0  0  0  0  0  0
   -2.5689   -3.3490   -0.3816 H   0  0  0  0  0  0  0  0  0  0  0  0
    2.1478   -3.3738   -1.3917 H   0  0  0  0  0  0  0  0  0  0  0  0
    2.5487   -3.3608    0.3393 H   0  0  0  0  0  0  0  0  0  0  0  0
    3.2825   -2.1833   -0.7541 H   0  0  0  0  0  0  0  0  0  0  0  0
   -3.2549   -0.0622   -1.4244 H   0  0  0  0  0  0  0  0  0  0  0  0
    3.3123   -0.1358    1.3935 H   0  0  0  0  0  0  0  0  0  0  0  0
   -2.8915    2.5813   -0.4282 H   0  0  0  0  0  0  0  0  0  0  0  0
    3.2340    1.9239    2.1080 H   0  0  0  0  0  0  0  0  0  0  0  0
   -6.3401   -0.1020    0.3249 H   0  0  0  0  0  0  0  0  0  0  0  0
    6.3259   -0.0954   -0.4772 H   0  0  0  0  0  0  0  0  0  0  0  0
  1 15  2  0  0  0  0
  2 16  2  0  0  0  0
  3 19  1  0  0  0  0
  3 34  1  0  0  0  0
  4 20  1  0  0  0  0
  4 35  1  0  0  0  0
  5 21  1  0  0  0  0
  5 36  1  0  0  0  0
  6 22  1  0  0  0  0
  6 37  1  0  0  0  0
  7 21  2  0  0  0  0
  8 22  2  0  0  0  0
  9 13  1  0  0  0  0
  9 14  1  0  0  0  0
  9 25  1  0  0  0  0
 10 11  1  0  0  0  0
 10 12  1  0  0  0  0
 10 23  1  0  0  0  0
 10 24  1  0  0  0  0
 11 13  2  0  0  0  0
 11 15  1  0  0  0  0
 12 14  2  0  0  0  0
 12 16  1  0  0  0  0
 13 17  1  0  0  0  0
 14 18  1  0  0  0  0
 15 19  1  0  0  0  0
 16 20  1  0  0  0  0
 17 26  1  0  0  0  0
 17 27  1  0  0  0  0
 17 28  1  0  0  0  0
 18 29  1  0  0  0  0
 18 30  1  0  0  0  0
 18 31  1  0  0  0  0
 19 21  1  0  0  0  0
 19 32  1  0  0  0  0
 20 22  1  0  0  0  0
 20 33  1  0  0  0  0
M  END
> <PUBCHEM_COMPOUND_CID>
130671

> <PUBCHEM_CONFORMER_RMSD>
0.8

> <PUBCHEM_CONFORMER_DIVERSEORDER>
2
107
119
128
142
14
84
135
126
95
92
75
164
159
27
145
25
127
33
54
31
139
143
4
136
155
166
167
141
100
93
21
61
124
157
115
147
9
53
76
116
156
109
90
45
99
125
48
56
150
148
91
57
123
133
129
146
38
44
118
103
106
165
152
70
64
34
161
65
158
86
80
46
105
36
169
29
163
77
88
85
30
151
140
138
153
7
73
78
74
26
87
66
10
16
154
160
8
55
130
97
144
114
17
134
149
168
83
132
101
51
22
137
67
131
28
49
59
23
68
35
89
102
5
63
60
20
162
41
40
58
170
96
121
111
112
79
42
19
72
110
120
50
62
15
117
122
82
52
43
69
104
18
37
71
94
39
47
32
98
24
1
113
3
108
11
81
6
13
12

> <PUBCHEM_MMFF94_PARTIAL_CHARGES>
27
1 -0.57
10 0.28
11 -0.12
12 -0.12
13 -0.04
14 -0.04
15 0.49
16 0.49
17 0.14
18 0.14
19 0.4
2 -0.57
20 0.4
21 0.66
22 0.66
25 0.4
3 -0.68
34 0.4
35 0.4
36 0.5
37 0.5
4 -0.68
5 -0.65
6 -0.65
7 -0.57
8 -0.57
9 -0.6

> <PUBCHEM_EFFECTIVE_ROTOR_COUNT>
6.4

> <PUBCHEM_PHARMACOPHORE_FEATURES>
17
1 1 acceptor
1 19 anion
1 2 acceptor
1 20 anion
1 3 acceptor
1 3 donor
1 4 acceptor
1 4 donor
1 5 acceptor
1 6 acceptor
1 7 acceptor
1 8 acceptor
1 9 cation
1 9 donor
3 5 7 21 anion
3 6 8 22 anion
6 9 10 11 12 13 14 rings

> <PUBCHEM_HEAVY_ATOM_COUNT>
22

> <PUBCHEM_ATOM_DEF_STEREO_COUNT>
0

> <PUBCHEM_ATOM_UDEF_STEREO_COUNT>
2

> <PUBCHEM_BOND_DEF_STEREO_COUNT>
0

> <PUBCHEM_BOND_UDEF_STEREO_COUNT>
0

> <PUBCHEM_ISOTOPIC_ATOM_COUNT>
0

> <PUBCHEM_COMPONENT_COUNT>
1

> <PUBCHEM_CACTVS_TAUTO_COUNT>
486

> <PUBCHEM_CONFORMER_ID>
0001FE6F00000002

> <PUBCHEM_MMFF94_ENERGY>
38.9841

> <PUBCHEM_FEATURE_SELFOVERLAP>
86.922

> <PUBCHEM_SHAPE_FINGERPRINT>
12403259 118 17749395909452413933
12403259 415 18410864260516164296
12633257 1 15574710343965767696
12730499 353 18341899580134896075
12788726 201 16486976138259184163
13140716 1 18193847161020887777
13540713 4 18338535082812143818
13740256 8 9727343649944764585
14123255 352 18340206383910036528
14897335 6 18411702079866151559
15238133 3 15574999403485341461
17980427 23 17823134699839938028
1813 80 10953737747071646658
200 152 15626510505302435128
20374829 77 10447928369368974941
20645477 56 18334576841320479989
20645477 70 17561092371606500326
21452121 103 18335979749079349227
21524375 3 18410859862480670411
22182313 1 18267607799818044055
22950370 63 9295288365165744441
23227448 37 18338515360727651869
23402539 116 18410004455709182813
23557571 272 18341054137165626659
23559900 14 18343305873177002382
2748010 2 18338819860655433623
335352 9 18411981335220281942
350125 39 18123476239157401257
351380 180 18131348626770134592
3545911 37 18410859862475187799
4325135 7 18271802445916173711
4340502 62 18410577275682137767
4371632 12 14545054147377587624
474 4 18201718478817356448
495365 180 18059565867789814766
5104073 3 18261681351193249739
59682541 52 17131000775961341540
59755656 215 18410296865788862030
59755656 520 18409442600714290487
7364860 26 18271529676527370662
7970288 3 9223231844833633185
83771 10 11097849692531368778
84936 182 18126280848855018209

> <PUBCHEM_SHAPE_MULTIPOLES>
400.81
10.99
2.65
1.03
0.13
1.67
-0.02
-7.16
0.12
-0.06
0.02
0
-0.3
1.2

> <PUBCHEM_SHAPE_SELFOVERLAP>
831.447

> <PUBCHEM_SHAPE_VOLUME>
226.2

> <PUBCHEM_COORDINATE_TYPE>
2
5
10

$$$$
