130627
  -OEChem-03292013323D

 46 48  0     0  0  0  0  0  0999 V2000
    3.8536   -2.8014    0.9296 O   0  0  0  0  0  0  0  0  0  0  0  0
   -0.5916    3.4044    1.5477 O   0  0  0  0  0  0  0  0  0  0  0  0
   -4.1930   -1.2336    2.3687 O   0  5  0  0  0  0  0  0  0  0  0  0
   -3.5139   -2.8837    1.0852 O   0  0  0  0  0  0  0  0  0  0  0  0
    3.5516   -0.0729    0.1774 N   0  0  0  0  0  0  0  0  0  0  0  0
    0.5274    2.9846   -0.4451 N   0  0  0  0  0  0  0  0  0  0  0  0
   -2.1088    1.1826   -0.2363 N   0  0  0  0  0  0  0  0  0  0  0  0
   -0.8736    0.4421   -2.1651 N   0  0  0  0  0  0  0  0  0  0  0  0
   -3.5577   -1.6573    1.3676 N   0  3  0  0  0  0  0  0  0  0  0  0
    2.8072    1.0296   -0.4276 C   0  0  0  0  0  0  0  0  0  0  0  0
    3.8375   -1.1169   -0.8166 C   0  0  0  0  0  0  0  0  0  0  0  0
    2.8087   -0.6451    1.3089 C   0  0  0  0  0  0  0  0  0  0  0  0
    2.6044    2.1527    0.5908 C   0  0  0  0  0  0  0  0  0  0  0  0
    4.6032   -2.2619   -0.1596 C   0  0  0  0  0  0  0  0  0  0  0  0
    3.5995   -1.8005    1.9160 C   0  0  0  0  0  0  0  0  0  0  0  0
    1.8460    3.3395    0.0035 C   0  0  0  0  0  0  0  0  0  0  0  0
   -1.8464    2.6129   -0.3622 C   0  0  0  0  0  0  0  0  0  0  0  0
   -0.5963    3.0468    0.3729 C   0  0  0  0  0  0  0  0  0  0  0  0
   -1.6442    0.2219   -1.0830 C   0  0  0  0  0  0  0  0  0  0  0  0
   -2.1123   -1.0043   -0.6202 C   0  0  0  0  0  0  0  0  0  0  0  0
   -2.8583    0.6235    0.7555 C   0  0  0  0  0  0  0  0  0  0  0  0
   -2.8801   -0.7383    0.5444 C   0  0  0  0  0  0  0  0  0  0  0  0
   -1.7518   -2.1501   -1.3478 C   0  0  0  0  0  0  0  0  0  0  0  0
   -0.9540   -1.9792   -2.4778 C   0  0  0  0  0  0  0  0  0  0  0  0
   -0.5573   -0.6953   -2.8270 C   0  0  0  0  0  0  0  0  0  0  0  0
    1.8425    0.6789   -0.8138 H   0  0  0  0  0  0  0  0  0  0  0  0
    3.3716    1.4311   -1.2787 H   0  0  0  0  0  0  0  0  0  0  0  0
    2.9021   -1.5018   -1.2435 H   0  0  0  0  0  0  0  0  0  0  0  0
    4.4418   -0.7089   -1.6347 H   0  0  0  0  0  0  0  0  0  0  0  0
    2.6636    0.0713    2.1209 H   0  0  0  0  0  0  0  0  0  0  0  0
    1.8246   -1.0046    0.9810 H   0  0  0  0  0  0  0  0  0  0  0  0
    3.5765    2.5007    0.9614 H   0  0  0  0  0  0  0  0  0  0  0  0
    2.0234    1.8195    1.4557 H   0  0  0  0  0  0  0  0  0  0  0  0
    4.7636   -3.0668   -0.8841 H   0  0  0  0  0  0  0  0  0  0  0  0
    5.5878   -1.9372    0.1987 H   0  0  0  0  0  0  0  0  0  0  0  0
    4.5499   -1.4603    2.3454 H   0  0  0  0  0  0  0  0  0  0  0  0
    3.0212   -2.2669    2.7202 H   0  0  0  0  0  0  0  0  0  0  0  0
    1.7667    4.1332    0.7547 H   0  0  0  0  0  0  0  0  0  0  0  0
    2.3849    3.7478   -0.8581 H   0  0  0  0  0  0  0  0  0  0  0  0
    0.4266    2.6644   -1.4039 H   0  0  0  0  0  0  0  0  0  0  0  0
   -2.7069    3.1500    0.0528 H   0  0  0  0  0  0  0  0  0  0  0  0
   -1.7935    2.8613   -1.4277 H   0  0  0  0  0  0  0  0  0  0  0  0
   -3.3103    1.2354    1.5258 H   0  0  0  0  0  0  0  0  0  0  0  0
   -2.0717   -3.1453   -1.0582 H   0  0  0  0  0  0  0  0  0  0  0  0
   -0.6486   -2.8338   -3.0719 H   0  0  0  0  0  0  0  0  0  0  0  0
    0.0662   -0.5436   -3.7042 H   0  0  0  0  0  0  0  0  0  0  0  0
  1 14  1  0  0  0  0
  1 15  1  0  0  0  0
  2 18  2  0  0  0  0
  3  9  1  0  0  0  0
  4  9  2  0  0  0  0
  5 10  1  0  0  0  0
  5 11  1  0  0  0  0
  5 12  1  0  0  0  0
  6 16  1  0  0  0  0
  6 18  1  0  0  0  0
  6 40  1  0  0  0  0
  7 17  1  0  0  0  0
  7 19  1  0  0  0  0
  7 21  1  0  0  0  0
  8 19  1  0  0  0  0
  8 25  2  0  0  0  0
  9 22  1  0  0  0  0
 10 13  1  0  0  0  0
 10 26  1  0  0  0  0
 10 27  1  0  0  0  0
 11 14  1  0  0  0  0
 11 28  1  0  0  0  0
 11 29  1  0  0  0  0
 12 15  1  0  0  0  0
 12 30  1  0  0  0  0
 12 31  1  0  0  0  0
 13 16  1  0  0  0  0
 13 32  1  0  0  0  0
 13 33  1  0  0  0  0
 14 34  1  0  0  0  0
 14 35  1  0  0  0  0
 15 36  1  0  0  0  0
 15 37  1  0  0  0  0
 16 38  1  0  0  0  0
 16 39  1  0  0  0  0
 17 18  1  0  0  0  0
 17 41  1  0  0  0  0
 17 42  1  0  0  0  0
 19 20  2  0  0  0  0
 20 22  1  0  0  0  0
 20 23  1  0  0  0  0
 21 22  2  0  0  0  0
 21 43  1  0  0  0  0
 23 24  2  0  0  0  0
 23 44  1  0  0  0  0
 24 25  1  0  0  0  0
 24 45  1  0  0  0  0
 25 46  1  0  0  0  0
M  CHG  2   3  -1   9   1
M  END
> <PUBCHEM_COMPOUND_CID>
130627

> <PUBCHEM_CONFORMER_RMSD>
1

> <PUBCHEM_CONFORMER_DIVERSEORDER>
1
139
43
169
65
167
187
182
151
75
42
69
16
112
20
5
188
61
118
105
57
150
78
161
154
143
86
141
162
9
145
18
130
2
140
178
34
185
94
149
121
193
77
85
72
99
37
33
6
87
104
135
71
109
27
7
180
40
153
13
45
122
165
21
10
74
93
179
92
157
177
152
156
41
164
60
95
68
181
53
80
133
59
56
111
15
32
115
131
14
70
110
163
147
123
142
144
98
138
125
38
175
183
19
64
101
88
190
103
107
54
89
62
81
117
176
48
96
171
24
73
126
127
58
119
4
76
46
31
17
114
83
134
148
186
173
174
51
3
66
102
82
160
172
26
113
124
137
23
159
25
36
120
108
11
22
168
44
12
166
50
189
79
129
28
106
97
184
55
128
35
47
8
49
90
67
132
191
30
146
136
63
100
116
84
192
52
158
170
39
29
91
155

> <PUBCHEM_MMFF94_PARTIAL_CHARGES>
28
1 -0.56
10 0.27
11 0.27
12 0.27
14 0.28
15 0.28
16 0.3
17 0.32
18 0.57
19 0.11
2 -0.57
21 -0.3
22 0.08
23 -0.15
24 -0.15
25 0.16
3 -0.52
4 -0.52
40 0.37
43 0.15
44 0.15
45 0.15
46 0.15
5 -0.81
6 -0.73
7 0.05
8 -0.57
9 0.96

> <PUBCHEM_EFFECTIVE_ROTOR_COUNT>
9.2

> <PUBCHEM_PHARMACOPHORE_FEATURES>
12
1 1 acceptor
1 2 acceptor
1 3 acceptor
1 3 anion
1 4 acceptor
1 5 cation
1 6 donor
1 7 cation
1 8 acceptor
5 7 19 20 21 22 rings
6 1 5 11 12 14 15 rings
6 8 19 20 23 24 25 rings

> <PUBCHEM_HEAVY_ATOM_COUNT>
25

> <PUBCHEM_ATOM_DEF_STEREO_COUNT>
0

> <PUBCHEM_ATOM_UDEF_STEREO_COUNT>
0

> <PUBCHEM_BOND_DEF_STEREO_COUNT>
0

> <PUBCHEM_BOND_UDEF_STEREO_COUNT>
0

> <PUBCHEM_ISOTOPIC_ATOM_COUNT>
0

> <PUBCHEM_COMPONENT_COUNT>
1

> <PUBCHEM_CACTVS_TAUTO_COUNT>
2

> <PUBCHEM_CONFORMER_ID>
0001FE4300000001

> <PUBCHEM_MMFF94_ENERGY>
38.227

> <PUBCHEM_FEATURE_SELFOVERLAP>
61.091

> <PUBCHEM_SHAPE_FINGERPRINT>
10064457 181 16894277382389518032
10764073 3 18263654970365565877
12156800 1 16747127112829091088
12553582 1 18342170090334088630
12633257 1 18266191543057361985
13583140 156 17834399299973134775
13726171 33 17911837654789060508
14114207 22 15229027890975782490
15403338 16 18334017190028919603
15475509 35 17392512143780842387
16110190 28 18273219677633613352
17809404 112 17976497794328435170
19930381 70 18190744343396828459
20291156 8 18409166589241733752
20775530 9 17967254199910348138
21315759 227 17967522498243756570
23598288 3 18339079285454123956
23728640 28 17914310412808870772
35225 105 17826236189839151934
445580 42 18118950400754069522
5283178 26 17203337654589852222
7097593 13 18127135405433523221

> <PUBCHEM_SHAPE_MULTIPOLES>
466.11
7.74
4.34
2.23
5.46
3.03
-0.52
-6.18
3.96
0.58
0.66
-1.33
-1.54
-0.09

> <PUBCHEM_SHAPE_SELFOVERLAP>
983.352

> <PUBCHEM_SHAPE_VOLUME>
259.6

> <PUBCHEM_COORDINATE_TYPE>
2
5
10

$$$$
