130628
  -OEChem-03292013323D

 27 26  0     1  0  0  0  0  0999 V2000
    1.5676    1.9354    0.1381 S   0  0  0  0  0  0  0  0  0  0  0  0
    0.5438    0.8058   -0.4414 O   0  0  0  0  0  0  0  0  0  0  0  0
   -0.2595   -1.7451   -1.4748 O   0  0  0  0  0  0  0  0  0  0  0  0
    1.0763   -2.0852    1.7317 O   0  0  0  0  0  0  0  0  0  0  0  0
   -1.7511    0.7091   -1.6377 O   0  0  0  0  0  0  0  0  0  0  0  0
   -3.3818   -0.7847    1.1583 O   0  0  0  0  0  0  0  0  0  0  0  0
    1.6331    3.0440   -1.0568 O   0  0  0  0  0  0  0  0  0  0  0  0
   -3.0976    1.3872    0.5519 O   0  0  0  0  0  0  0  0  0  0  0  0
    2.2354   -2.8652   -0.5417 O   0  0  0  0  0  0  0  0  0  0  0  0
    0.9216    2.5592    1.2779 O   0  0  0  0  0  0  0  0  0  0  0  0
    2.8887    1.3518    0.2782 O   0  0  0  0  0  0  0  0  0  0  0  0
    0.1316   -0.2708    0.4029 C   0  0  1  0  0  0  0  0  0  0  0  0
   -0.8989   -1.1466   -0.3449 C   0  0  1  0  0  0  0  0  0  0  0  0
    1.3903   -1.0427    0.8254 C   0  0  2  0  0  0  0  0  0  0  0  0
   -2.1464   -0.3877   -0.8247 C   0  0  1  0  0  0  0  0  0  0  0  0
   -2.9203    0.1956    0.3413 C   0  0  0  0  0  0  0  0  0  0  0  0
    2.0672   -1.6601   -0.3836 C   0  0  0  0  0  0  0  0  0  0  0  0
   -0.3502    0.1412    1.2979 H   0  0  0  0  0  0  0  0  0  0  0  0
   -1.2039   -1.9678    0.3148 H   0  0  0  0  0  0  0  0  0  0  0  0
    2.1125   -0.4259    1.3550 H   0  0  0  0  0  0  0  0  0  0  0  0
   -2.8025   -1.0276   -1.4239 H   0  0  0  0  0  0  0  0  0  0  0  0
   -0.9079   -2.3298   -1.9027 H   0  0  0  0  0  0  0  0  0  0  0  0
    2.4433   -0.9487   -1.1384 H   0  0  0  0  0  0  0  0  0  0  0  0
    1.9129   -2.4809    2.0310 H   0  0  0  0  0  0  0  0  0  0  0  0
   -2.5577    1.1038   -2.0114 H   0  0  0  0  0  0  0  0  0  0  0  0
   -3.8735   -0.4207    1.9251 H   0  0  0  0  0  0  0  0  0  0  0  0
    1.7757    2.6799   -1.9619 H   0  0  0  0  0  0  0  0  0  0  0  0
  1  2  1  0  0  0  0
  1  7  1  0  0  0  0
  1 10  2  0  0  0  0
  1 11  2  0  0  0  0
  2 12  1  0  0  0  0
  3 13  1  0  0  0  0
  3 22  1  0  0  0  0
  4 14  1  0  0  0  0
  4 24  1  0  0  0  0
  5 15  1  0  0  0  0
  5 25  1  0  0  0  0
  6 16  1  0  0  0  0
  6 26  1  0  0  0  0
  7 27  1  0  0  0  0
  8 16  2  0  0  0  0
  9 17  2  0  0  0  0
 12 13  1  0  0  0  0
 12 14  1  0  0  0  0
 12 18  1  0  0  0  0
 13 15  1  0  0  0  0
 13 19  1  0  0  0  0
 14 17  1  0  0  0  0
 14 20  1  0  0  0  0
 15 16  1  0  0  0  0
 15 21  1  0  0  0  0
 17 23  1  0  0  0  0
M  END
> <PUBCHEM_COMPOUND_CID>
130628

> <PUBCHEM_CONFORMER_RMSD>
0.8

> <PUBCHEM_CONFORMER_DIVERSEORDER>
2
16
12
4
10
14
13
6
15
7
5
9
11
3
1
8

> <PUBCHEM_MMFF94_PARTIAL_CHARGES>
23
1 1.67
10 -0.65
11 -0.65
12 0.28
13 0.28
14 0.34
15 0.34
16 0.66
17 0.45
2 -0.46
22 0.4
23 0.06
24 0.4
25 0.4
26 0.5
27 0.5
3 -0.68
4 -0.68
5 -0.68
6 -0.65
7 -0.68
8 -0.57
9 -0.57

> <PUBCHEM_EFFECTIVE_ROTOR_COUNT>
7

> <PUBCHEM_PHARMACOPHORE_FEATURES>
14
1 10 acceptor
1 11 acceptor
1 3 acceptor
1 3 donor
1 4 acceptor
1 4 donor
1 5 acceptor
1 5 donor
1 6 acceptor
1 7 acceptor
1 8 acceptor
1 9 acceptor
3 6 8 16 anion
4 1 7 10 11 anion

> <PUBCHEM_HEAVY_ATOM_COUNT>
17

> <PUBCHEM_ATOM_DEF_STEREO_COUNT>
4

> <PUBCHEM_ATOM_UDEF_STEREO_COUNT>
0

> <PUBCHEM_BOND_DEF_STEREO_COUNT>
0

> <PUBCHEM_BOND_UDEF_STEREO_COUNT>
0

> <PUBCHEM_ISOTOPIC_ATOM_COUNT>
0

> <PUBCHEM_COMPONENT_COUNT>
1

> <PUBCHEM_CACTVS_TAUTO_COUNT>
4

> <PUBCHEM_CONFORMER_ID>
0001FE4400000002

> <PUBCHEM_MMFF94_ENERGY>
25.2703

> <PUBCHEM_FEATURE_SELFOVERLAP>
71.195

> <PUBCHEM_SHAPE_FINGERPRINT>
1 1 18267860760643299044
10980938 120 18412828005521348312
12326174 3 18335404764907366978
14648413 74 18411423890755557291
15490181 8 18047187733287407610
15775835 57 18198065987168364641
16945 1 18341608269392699950
17357990 137 17274280369559520129
17841504 4 18336832996305038499
19837323 101 17619067678012834352
20339313 130 18129390301802837542
20559304 39 18272929431911554969
20711985 344 17475502881358897762
21041028 32 18270126682030067337
21524375 3 17975966880398684192
23419403 2 16467071828899861447
23557571 272 17481427080760220678
25 1 18337396049332341500
2748010 2 18122042227124171940
305870 269 18271524294421385905
31174 14 18334298660794785819
4175511 71 18196940976213808875
430814 3 18197779010274822021
528862 383 18410570704044369907
5845 1 11828365071854540772
68419 9 17700952573825431671
6992083 37 17701804510716862703
7364860 26 18342459252716878283
81228 2 17403158314849151240

> <PUBCHEM_SHAPE_MULTIPOLES>
295.01
4.29
3.09
1.33
2.93
0.67
-0.01
0.54
-0.61
-2.87
0.14
0.22
-0.16
-0.08

> <PUBCHEM_SHAPE_SELFOVERLAP>
575.977

> <PUBCHEM_SHAPE_VOLUME>
176.3

> <PUBCHEM_COORDINATE_TYPE>
2
5
10

$$$$
