130680
  -OEChem-03292013323D

 35 36  0     1  0  0  0  0  0999 V2000
    2.3241    0.1773    0.9233 O   0  0  0  0  0  0  0  0  0  0  0  0
    3.8819   -2.2505   -0.1020 O   0  0  0  0  0  0  0  0  0  0  0  0
    3.6710    2.5105    0.1513 O   0  0  0  0  0  0  0  0  0  0  0  0
   -1.1411   -2.0184    0.8605 O   0  0  0  0  0  0  0  0  0  0  0  0
   -3.4015    1.9873    0.0281 O   0  0  0  0  0  0  0  0  0  0  0  0
   -4.3939   -0.2799   -1.5245 O   0  0  0  0  0  0  0  0  0  0  0  0
    0.0735   -0.1048    0.3488 N   0  0  0  0  0  0  0  0  0  0  0  0
   -2.3204   -0.0492    0.4581 N   0  0  0  0  0  0  0  0  0  0  0  0
    1.3481   -0.7551    0.4374 C   0  0  1  0  0  0  0  0  0  0  0  0
    3.3407   -1.1197   -0.7813 C   0  0  1  0  0  0  0  0  0  0  0  0
    1.8420   -1.2695   -0.9051 C   0  0  0  0  0  0  0  0  0  0  0  0
    3.4926    0.1249    0.0820 C   0  0  1  0  0  0  0  0  0  0  0  0
    3.5400    1.4102   -0.7339 C   0  0  0  0  0  0  0  0  0  0  0  0
   -1.1290   -0.8165    0.5774 C   0  0  0  0  0  0  0  0  0  0  0  0
    0.0476    1.2434    0.0314 C   0  0  0  0  0  0  0  0  0  0  0  0
   -1.0693    1.9597   -0.0815 C   0  0  0  0  0  0  0  0  0  0  0  0
   -3.5857   -0.7376    0.6880 C   0  0  0  0  0  0  0  0  0  0  0  0
   -2.3789    1.3138    0.1377 C   0  0  0  0  0  0  0  0  0  0  0  0
   -4.1416   -1.3262   -0.5958 C   0  0  0  0  0  0  0  0  0  0  0  0
    1.2974   -1.5775    1.1607 H   0  0  0  0  0  0  0  0  0  0  0  0
    3.8500   -1.0399   -1.7463 H   0  0  0  0  0  0  0  0  0  0  0  0
    1.4753   -0.6431   -1.7273 H   0  0  0  0  0  0  0  0  0  0  0  0
    1.5078   -2.2954   -1.0894 H   0  0  0  0  0  0  0  0  0  0  0  0
    4.3619    0.0672    0.7464 H   0  0  0  0  0  0  0  0  0  0  0  0
    2.6543    1.5569   -1.3561 H   0  0  0  0  0  0  0  0  0  0  0  0
    4.4155    1.4014   -1.3919 H   0  0  0  0  0  0  0  0  0  0  0  0
    0.9823    1.7556   -0.1257 H   0  0  0  0  0  0  0  0  0  0  0  0
    3.7136   -3.0310   -0.6569 H   0  0  0  0  0  0  0  0  0  0  0  0
   -1.0476    3.0146   -0.3279 H   0  0  0  0  0  0  0  0  0  0  0  0
   -4.3054   -0.0231    1.1044 H   0  0  0  0  0  0  0  0  0  0  0  0
   -3.4459   -1.5335    1.4275 H   0  0  0  0  0  0  0  0  0  0  0  0
    3.7148    3.3137   -0.3948 H   0  0  0  0  0  0  0  0  0  0  0  0
   -5.0822   -1.8493   -0.3979 H   0  0  0  0  0  0  0  0  0  0  0  0
   -3.4343   -2.0276   -1.0497 H   0  0  0  0  0  0  0  0  0  0  0  0
   -4.7516   -0.6927   -2.3289 H   0  0  0  0  0  0  0  0  0  0  0  0
  1  9  1  0  0  0  0
  1 12  1  0  0  0  0
  2 10  1  0  0  0  0
  2 28  1  0  0  0  0
  3 13  1  0  0  0  0
  3 32  1  0  0  0  0
  4 14  2  0  0  0  0
  5 18  2  0  0  0  0
  6 19  1  0  0  0  0
  6 35  1  0  0  0  0
  7  9  1  0  0  0  0
  7 14  1  0  0  0  0
  7 15  1  0  0  0  0
  8 14  1  0  0  0  0
  8 17  1  0  0  0  0
  8 18  1  0  0  0  0
  9 11  1  0  0  0  0
  9 20  1  0  0  0  0
 10 11  1  0  0  0  0
 10 12  1  0  0  0  0
 10 21  1  0  0  0  0
 11 22  1  0  0  0  0
 11 23  1  0  0  0  0
 12 13  1  0  0  0  0
 12 24  1  0  0  0  0
 13 25  1  0  0  0  0
 13 26  1  0  0  0  0
 15 16  2  0  0  0  0
 15 27  1  0  0  0  0
 16 18  1  0  0  0  0
 16 29  1  0  0  0  0
 17 19  1  0  0  0  0
 17 30  1  0  0  0  0
 17 31  1  0  0  0  0
 19 33  1  0  0  0  0
 19 34  1  0  0  0  0
M  END
> <PUBCHEM_COMPOUND_CID>
130680

> <PUBCHEM_CONFORMER_RMSD>
0.6

> <PUBCHEM_CONFORMER_DIVERSEORDER>
1
27
81
35
71
54
3
52
39
55
70
73
66
83
57
77
19
65
15
44
78
68
53
46
42
47
7
45
10
59
82
30
31
28
76
38
67
21
74
72
16
61
37
56
60
33
51
26
18
75
40
62
80
25
17
48
79
34
5
58
49
8
22
29
69
12
43
20
63
11
24
36
13
41
4
64
32
50
2
14
23
6
9

> <PUBCHEM_MMFF94_PARTIAL_CHARGES>
23
1 -0.56
10 0.28
12 0.28
13 0.28
14 0.69
15 -0.04
16 -0.14
17 0.3
18 0.62
19 0.28
2 -0.68
27 0.15
28 0.4
29 0.15
3 -0.68
32 0.4
35 0.4
4 -0.57
5 -0.57
6 -0.68
7 -0.47
8 -0.42
9 0.58

> <PUBCHEM_EFFECTIVE_ROTOR_COUNT>
5

> <PUBCHEM_PHARMACOPHORE_FEATURES>
11
1 1 acceptor
1 2 acceptor
1 2 donor
1 3 acceptor
1 3 donor
1 4 acceptor
1 5 acceptor
1 6 acceptor
1 6 donor
5 1 9 10 11 12 rings
6 7 8 14 15 16 18 rings

> <PUBCHEM_HEAVY_ATOM_COUNT>
19

> <PUBCHEM_ATOM_DEF_STEREO_COUNT>
3

> <PUBCHEM_ATOM_UDEF_STEREO_COUNT>
0

> <PUBCHEM_BOND_DEF_STEREO_COUNT>
0

> <PUBCHEM_BOND_UDEF_STEREO_COUNT>
0

> <PUBCHEM_ISOTOPIC_ATOM_COUNT>
0

> <PUBCHEM_COMPONENT_COUNT>
1

> <PUBCHEM_CACTVS_TAUTO_COUNT>
1

> <PUBCHEM_CONFORMER_ID>
0001FE7800000001

> <PUBCHEM_MMFF94_ENERGY>
42.0468

> <PUBCHEM_FEATURE_SELFOVERLAP>
55.831

> <PUBCHEM_SHAPE_FINGERPRINT>
10498660 4 18260264118753557765
10608611 8 18409735045264113720
11132069 177 18339077094857363561
11405975 8 18270122296889446737
11543360 7 18272931652267182999
12403260 363 18410286978578928546
12670546 177 18410004425618135645
12916754 54 18342745091385688467
13296908 3 18412827958302997227
13583140 156 16226047837730567593
14289901 80 18272653441302106689
15196674 1 18409733945430635081
15219456 202 18341618092325784296
15375358 24 18262517112362052674
15375462 6 18411143558377044134
15536298 74 18410862057451473852
16945 1 18336274551381797097
17834072 14 18333728052640382429
18186145 218 17603590703021166075
19422 9 18201723920429773697
200 152 17917705782256962711
20281475 54 18273496788585902299
20510252 161 18411707577656347577
20645477 70 18412831287040483838
21029758 11 18340484564763148625
21501502 16 18341621377896735408
21618674 68 18411139168794159452
221490 88 18410584959283684770
23402539 116 18337388228065124214
23557571 272 18272098179366557844
23559900 14 18340204077586464570
2748010 2 18262247710512050304
2871803 45 18410006620309604071
312423 11 18340499880215300618
3286 77 17489860527506192794
4028521 119 18187080672068972319
474 4 17386295423189930516
5104073 3 18410016511450333168
5281201 14 18341339907214855822
58051976 378 18340771550087545188
633830 44 18335984177596910735
7364860 26 18411706482977373496
9709674 26 18339652161135371606

> <PUBCHEM_SHAPE_MULTIPOLES>
345.83
8.35
2.33
0.96
1.09
0.59
0.17
-0.68
1.85
-0.85
0.04
0.34
-0.21
0.1

> <PUBCHEM_SHAPE_SELFOVERLAP>
719.768

> <PUBCHEM_SHAPE_VOLUME>
196

> <PUBCHEM_COORDINATE_TYPE>
2
5
10

$$$$
