130778
  -OEChem-03292013323D

 57 60  0     1  0  0  0  0  0999 V2000
   -0.0827    1.9219   -1.3236 O   0  0  0  0  0  0  0  0  0  0  0  0
   -3.2957    1.0670   -1.5532 O   0  0  0  0  0  0  0  0  0  0  0  0
    3.8050    0.6735   -2.4878 O   0  0  0  0  0  0  0  0  0  0  0  0
   -5.2011   -0.4024   -0.3875 O   0  0  0  0  0  0  0  0  0  0  0  0
    5.6320    0.3592    2.2279 O   0  0  0  0  0  0  0  0  0  0  0  0
   -6.0906    1.7479    0.9558 O   0  0  0  0  0  0  0  0  0  0  0  0
   -1.9712   -0.1363    0.0295 C   0  0  2  0  0  0  0  0  0  0  0  0
   -0.9817   -1.2873    0.3005 C   0  0  2  0  0  0  0  0  0  0  0  0
    0.3633   -1.1085   -0.4141 C   0  0  1  0  0  0  0  0  0  0  0  0
    1.0258    0.2264    0.0934 C   0  0  1  0  0  0  0  0  0  0  0  0
    2.4643    0.4242   -0.5211 C   0  0  2  0  0  0  0  0  0  0  0  0
   -1.3472    1.1599    0.5756 C   0  0  0  0  0  0  0  0  0  0  0  0
   -3.1799   -0.6540    0.8456 C   0  0  2  0  0  0  0  0  0  0  0  0
    0.0600    1.4463    0.0069 C   0  0  2  0  0  0  0  0  0  0  0  0
   -1.8113   -2.5378    0.0281 C   0  0  0  0  0  0  0  0  0  0  0  0
    1.2767   -2.3286   -0.1681 C   0  0  0  0  0  0  0  0  0  0  0  0
   -3.2076   -2.1715    0.5639 C   0  0  0  0  0  0  0  0  0  0  0  0
   -2.3553    0.0227   -1.4647 C   0  0  0  0  0  0  0  0  0  0  0  0
    3.2485   -0.8354   -0.1270 C   0  0  0  0  0  0  0  0  0  0  0  0
    2.7032   -2.1282   -0.6795 C   0  0  0  0  0  0  0  0  0  0  0  0
    3.1885    1.6922    0.0116 C   0  0  0  0  0  0  0  0  0  0  0  0
    2.4648    0.5609   -2.0657 C   0  0  0  0  0  0  0  0  0  0  0  0
   -4.4790    0.0144    0.5168 C   0  0  0  0  0  0  0  0  0  0  0  0
    3.7063    1.5451    1.4309 C   0  0  0  0  0  0  0  0  0  0  0  0
    4.2692   -0.8552    0.7457 C   0  0  0  0  0  0  0  0  0  0  0  0
    4.6391    0.3631    1.5039 C   0  0  0  0  0  0  0  0  0  0  0  0
   -4.8435    1.2205    1.3561 C   0  0  0  0  0  0  0  0  0  0  0  0
   -0.7590   -1.3042    1.3810 H   0  0  0  0  0  0  0  0  0  0  0  0
    0.1924   -1.0439   -1.4940 H   0  0  0  0  0  0  0  0  0  0  0  0
    1.1724    0.0796    1.1763 H   0  0  0  0  0  0  0  0  0  0  0  0
   -1.2546    1.0790    1.6671 H   0  0  0  0  0  0  0  0  0  0  0  0
   -1.9947    2.0223    0.3883 H   0  0  0  0  0  0  0  0  0  0  0  0
   -2.9984   -0.5244    1.9217 H   0  0  0  0  0  0  0  0  0  0  0  0
    0.4741    2.2768    0.5879 H   0  0  0  0  0  0  0  0  0  0  0  0
   -1.4103   -3.4183    0.5403 H   0  0  0  0  0  0  0  0  0  0  0  0
   -1.8544   -2.7690   -1.0418 H   0  0  0  0  0  0  0  0  0  0  0  0
    0.8507   -3.2164   -0.6505 H   0  0  0  0  0  0  0  0  0  0  0  0
    1.3131   -2.5457    0.9082 H   0  0  0  0  0  0  0  0  0  0  0  0
   -3.9740   -2.4809   -0.1541 H   0  0  0  0  0  0  0  0  0  0  0  0
   -3.4112   -2.7153    1.4941 H   0  0  0  0  0  0  0  0  0  0  0  0
   -2.8515   -0.8760   -1.8448 H   0  0  0  0  0  0  0  0  0  0  0  0
   -1.5375    0.2010   -2.1572 H   0  0  0  0  0  0  0  0  0  0  0  0
    2.7279   -2.1310   -1.7735 H   0  0  0  0  0  0  0  0  0  0  0  0
    3.3126   -2.9848   -0.3658 H   0  0  0  0  0  0  0  0  0  0  0  0
    2.5389    2.5713   -0.0542 H   0  0  0  0  0  0  0  0  0  0  0  0
    4.0618    1.9422   -0.6051 H   0  0  0  0  0  0  0  0  0  0  0  0
    1.9885    1.4899   -2.3841 H   0  0  0  0  0  0  0  0  0  0  0  0
    1.9816   -0.2583   -2.6033 H   0  0  0  0  0  0  0  0  0  0  0  0
    2.8956    1.4062    2.1527 H   0  0  0  0  0  0  0  0  0  0  0  0
    4.2625    2.4467    1.7104 H   0  0  0  0  0  0  0  0  0  0  0  0
    0.0374    1.1841   -1.9386 H   0  0  0  0  0  0  0  0  0  0  0  0
    4.7887   -1.7712    1.0052 H   0  0  0  0  0  0  0  0  0  0  0  0
   -2.8065    1.9052   -1.6066 H   0  0  0  0  0  0  0  0  0  0  0  0
   -4.0915    2.0006    1.2312 H   0  0  0  0  0  0  0  0  0  0  0  0
   -4.9027    0.9333    2.4096 H   0  0  0  0  0  0  0  0  0  0  0  0
    4.2080   -0.2104   -2.4590 H   0  0  0  0  0  0  0  0  0  0  0  0
   -6.7682    1.0789    1.1533 H   0  0  0  0  0  0  0  0  0  0  0  0
  1 14  1  0  0  0  0
  1 51  1  0  0  0  0
  2 18  1  0  0  0  0
  2 53  1  0  0  0  0
  3 22  1  0  0  0  0
  3 56  1  0  0  0  0
  4 23  2  0  0  0  0
  5 26  2  0  0  0  0
  6 27  1  0  0  0  0
  6 57  1  0  0  0  0
  7  8  1  0  0  0  0
  7 12  1  0  0  0  0
  7 13  1  0  0  0  0
  7 18  1  0  0  0  0
  8  9  1  0  0  0  0
  8 15  1  0  0  0  0
  8 28  1  0  0  0  0
  9 10  1  0  0  0  0
  9 16  1  0  0  0  0
  9 29  1  0  0  0  0
 10 11  1  0  0  0  0
 10 14  1  0  0  0  0
 10 30  1  0  0  0  0
 11 19  1  0  0  0  0
 11 21  1  0  0  0  0
 11 22  1  0  0  0  0
 12 14  1  0  0  0  0
 12 31  1  0  0  0  0
 12 32  1  0  0  0  0
 13 17  1  0  0  0  0
 13 23  1  0  0  0  0
 13 33  1  0  0  0  0
 14 34  1  0  0  0  0
 15 17  1  0  0  0  0
 15 35  1  0  0  0  0
 15 36  1  0  0  0  0
 16 20  1  0  0  0  0
 16 37  1  0  0  0  0
 16 38  1  0  0  0  0
 17 39  1  0  0  0  0
 17 40  1  0  0  0  0
 18 41  1  0  0  0  0
 18 42  1  0  0  0  0
 19 20  1  0  0  0  0
 19 25  2  0  0  0  0
 20 43  1  0  0  0  0
 20 44  1  0  0  0  0
 21 24  1  0  0  0  0
 21 45  1  0  0  0  0
 21 46  1  0  0  0  0
 22 47  1  0  0  0  0
 22 48  1  0  0  0  0
 23 27  1  0  0  0  0
 24 26  1  0  0  0  0
 24 49  1  0  0  0  0
 24 50  1  0  0  0  0
 25 26  1  0  0  0  0
 25 52  1  0  0  0  0
 27 54  1  0  0  0  0
 27 55  1  0  0  0  0
M  END
> <PUBCHEM_COMPOUND_CID>
130778

> <PUBCHEM_CONFORMER_RMSD>
0.8

> <PUBCHEM_CONFORMER_DIVERSEORDER>
1
2

> <PUBCHEM_MMFF94_PARTIAL_CHARGES>
23
1 -0.68
11 0.14
13 0.06
14 0.28
18 0.28
19 -0.28
2 -0.68
20 0.14
22 0.28
23 0.45
24 0.06
25 -0.14
26 0.49
27 0.34
3 -0.68
4 -0.57
5 -0.57
51 0.4
52 0.15
53 0.4
56 0.4
57 0.4
6 -0.68

> <PUBCHEM_EFFECTIVE_ROTOR_COUNT>
5.8

> <PUBCHEM_PHARMACOPHORE_FEATURES>
14
1 1 acceptor
1 1 donor
1 2 acceptor
1 2 donor
1 3 acceptor
1 3 donor
1 4 acceptor
1 5 acceptor
1 6 acceptor
1 6 donor
5 7 8 13 15 17 rings
6 11 19 21 24 25 26 rings
6 7 8 9 10 12 14 rings
6 9 10 11 16 19 20 rings

> <PUBCHEM_HEAVY_ATOM_COUNT>
27

> <PUBCHEM_ATOM_DEF_STEREO_COUNT>
7

> <PUBCHEM_ATOM_UDEF_STEREO_COUNT>
0

> <PUBCHEM_BOND_DEF_STEREO_COUNT>
0

> <PUBCHEM_BOND_UDEF_STEREO_COUNT>
0

> <PUBCHEM_ISOTOPIC_ATOM_COUNT>
0

> <PUBCHEM_COMPONENT_COUNT>
1

> <PUBCHEM_CACTVS_TAUTO_COUNT>
20

> <PUBCHEM_CONFORMER_ID>
0001FEDA00000001

> <PUBCHEM_MMFF94_ENERGY>
95.7628

> <PUBCHEM_FEATURE_SELFOVERLAP>
71.181

> <PUBCHEM_SHAPE_FINGERPRINT>
11089746 13 17846779576946317329
11132069 177 18408886256325494603
12035758 1 18259989254269235297
12236239 1 13334742302087641447
12403259 415 18337104571271420516
12403814 3 17676489471353162879
12422481 6 18260542290694384113
12553582 1 18336840769900386661
12616971 3 17530966899297371275
12633257 1 17894914052774372451
12788726 201 17914919563979183665
13140716 1 18337669844633175048
13224815 77 18409732893369324006
13782708 43 15285650906303696025
14178342 30 18339923839059454691
14790565 3 17905617953433174372
15238133 3 18410865338611315744
15375358 24 18130790087558059771
15788980 27 17168137957757001249
15840311 113 17916033352737634681
1601671 61 18262533566360885756
16945 1 18342183266998431462
17349148 13 18334848424718482684
17980427 23 18262508329781738612
1813 80 16878216486126164566
20511986 3 18059560357499332747
20600515 1 18342739654084205672
20715895 44 18263355907075667957
21033648 29 18114460042489617637
21421861 104 17968371239537140250
21452121 103 18202281381758096746
21756936 100 17485351603090482104
21859007 373 17751345189182026517
22149856 69 18198646435736662819
22182313 1 18043808693537025397
23503953 91 18335143102398255075
23559900 14 18200329796127048972
296302 2 16486971816815253930
3004659 81 17967258602299052278
312423 11 11959468772497545230
335352 9 18339649944657752198
34797466 226 16486977293536768993
34934 24 17988921171757323283
350125 39 18410863123040836454
3633792 109 14620245078697409957
3680242 22 18262235521426799154
394222 165 17244157230209255484
4340502 62 18272655627941588019
474 4 17560515218058963960
495365 180 17561085778404477878
5104073 3 18041565852898675241
513532 50 17703799089429233030
58807428 26 18334007281296976282
59755656 215 18271812289907551262
633830 44 18060144266397487956
7064713 232 18411701010355757586

> <PUBCHEM_SHAPE_MULTIPOLES>
520.43
10.97
2.29
1.68
4.57
0.85
-0.51
-3.4
4.37
0.48
0.18
-1.61
-0.61
0.17

> <PUBCHEM_SHAPE_SELFOVERLAP>
1118.266

> <PUBCHEM_SHAPE_VOLUME>
281.3

> <PUBCHEM_COORDINATE_TYPE>
2
5
10

$$$$
