130701
  -OEChem-03292013323D

 52 53  0     1  0  0  0  0  0999 V2000
   -1.3462   -1.5650   -1.7497 O   0  0  0  0  0  0  0  0  0  0  0  0
   -3.9810   -1.7829    0.7730 O   0  0  0  0  0  0  0  0  0  0  0  0
    3.0055    1.4233   -0.3540 N   0  0  3  0  0  0  0  0  0  0  0  0
    4.9601   -4.4602    0.5194 N   0  0  0  0  0  0  0  0  0  0  0  0
   -0.9923   -2.2901    0.4256 N   0  0  0  0  0  0  0  0  0  0  0  0
   -5.0765   -0.4023   -0.7359 N   0  0  0  0  0  0  0  0  0  0  0  0
   -0.6566   -3.5690    0.0250 N   0  0  0  0  0  0  0  0  0  0  0  0
   -6.1159   -1.2950   -0.9140 N   0  0  0  0  0  0  0  0  0  0  0  0
    3.3863    0.1115   -0.8383 C   0  0  0  0  0  0  0  0  0  0  0  0
    3.7516   -0.8139    0.3204 C   0  0  0  0  0  0  0  0  0  0  0  0
    1.6606    1.7032   -0.0327 C   0  0  0  0  0  0  0  0  0  0  0  0
    4.0256    2.4397   -0.1905 C   0  0  0  0  0  0  0  0  0  0  0  0
    4.1637   -2.2135   -0.1536 C   0  0  0  0  0  0  0  0  0  0  0  0
   -0.6574    0.9815    0.1223 C   0  0  0  0  0  0  0  0  0  0  0  0
    0.6855    0.7182   -0.1932 C   0  0  0  0  0  0  0  0  0  0  0  0
   -1.0161    2.2617    0.6077 C   0  0  0  0  0  0  0  0  0  0  0  0
    1.3078    2.9621    0.4444 C   0  0  0  0  0  0  0  0  0  0  0  0
   -1.6521    0.0024   -0.0329 C   0  0  0  0  0  0  0  0  0  0  0  0
   -0.0216    3.2411    0.7631 C   0  0  0  0  0  0  0  0  0  0  0  0
    4.5908   -3.1320    0.9933 C   0  0  0  0  0  0  0  0  0  0  0  0
    4.0134    3.3870   -1.3749 C   0  0  0  0  0  0  0  0  0  0  0  0
   -2.9814    0.2812    0.2861 C   0  0  0  0  0  0  0  0  0  0  0  0
   -2.3590    2.5250    0.9236 C   0  0  0  0  0  0  0  0  0  0  0  0
   -3.3342    1.5401    0.7634 C   0  0  0  0  0  0  0  0  0  0  0  0
   -1.3285   -1.3354   -0.5313 C   0  0  0  0  0  0  0  0  0  0  0  0
   -4.0319   -0.7185    0.1337 C   0  0  0  0  0  0  0  0  0  0  0  0
    4.2805    0.2203   -1.4686 H   0  0  0  0  0  0  0  0  0  0  0  0
    2.6582   -0.3379   -1.5217 H   0  0  0  0  0  0  0  0  0  0  0  0
    2.9046   -0.9073    1.0109 H   0  0  0  0  0  0  0  0  0  0  0  0
    4.5732   -0.3719    0.8982 H   0  0  0  0  0  0  0  0  0  0  0  0
    5.0154    1.9663   -0.1500 H   0  0  0  0  0  0  0  0  0  0  0  0
    3.9435    2.9741    0.7625 H   0  0  0  0  0  0  0  0  0  0  0  0
    4.9896   -2.1207   -0.8705 H   0  0  0  0  0  0  0  0  0  0  0  0
    3.3237   -2.6690   -0.6937 H   0  0  0  0  0  0  0  0  0  0  0  0
    0.9417   -0.2746   -0.5424 H   0  0  0  0  0  0  0  0  0  0  0  0
    2.0157    3.7692    0.5956 H   0  0  0  0  0  0  0  0  0  0  0  0
   -0.2757    4.2315    1.1354 H   0  0  0  0  0  0  0  0  0  0  0  0
    5.4416   -2.6908    1.5245 H   0  0  0  0  0  0  0  0  0  0  0  0
    3.7700   -3.2298    1.7122 H   0  0  0  0  0  0  0  0  0  0  0  0
    4.8108    4.1296   -1.2688 H   0  0  0  0  0  0  0  0  0  0  0  0
    3.0687    3.9271   -1.4808 H   0  0  0  0  0  0  0  0  0  0  0  0
    4.1858    2.8436   -2.3106 H   0  0  0  0  0  0  0  0  0  0  0  0
   -2.6571    3.5015    1.2995 H   0  0  0  0  0  0  0  0  0  0  0  0
   -4.3643    1.7728    1.0219 H   0  0  0  0  0  0  0  0  0  0  0  0
    5.7403   -4.3868   -0.1321 H   0  0  0  0  0  0  0  0  0  0  0  0
    5.2936   -5.0188    1.3038 H   0  0  0  0  0  0  0  0  0  0  0  0
   -0.9755   -2.0790    1.4186 H   0  0  0  0  0  0  0  0  0  0  0  0
   -5.1056    0.4712   -1.2528 H   0  0  0  0  0  0  0  0  0  0  0  0
   -1.2186   -4.2103    0.5832 H   0  0  0  0  0  0  0  0  0  0  0  0
    0.3104   -3.7221    0.3086 H   0  0  0  0  0  0  0  0  0  0  0  0
   -6.1642   -1.4962   -1.9118 H   0  0  0  0  0  0  0  0  0  0  0  0
   -6.9751   -0.7966   -0.6857 H   0  0  0  0  0  0  0  0  0  0  0  0
  1 25  2  0  0  0  0
  2 26  2  0  0  0  0
  3  9  1  0  0  0  0
  3 11  1  0  0  0  0
  3 12  1  0  0  0  0
  4 20  1  0  0  0  0
  4 45  1  0  0  0  0
  4 46  1  0  0  0  0
  5  7  1  0  0  0  0
  5 25  1  0  0  0  0
  5 47  1  0  0  0  0
  6  8  1  0  0  0  0
  6 26  1  0  0  0  0
  6 48  1  0  0  0  0
  7 49  1  0  0  0  0
  7 50  1  0  0  0  0
  8 51  1  0  0  0  0
  8 52  1  0  0  0  0
  9 10  1  0  0  0  0
  9 27  1  0  0  0  0
  9 28  1  0  0  0  0
 10 13  1  0  0  0  0
 10 29  1  0  0  0  0
 10 30  1  0  0  0  0
 11 15  2  0  0  0  0
 11 17  1  0  0  0  0
 12 21  1  0  0  0  0
 12 31  1  0  0  0  0
 12 32  1  0  0  0  0
 13 20  1  0  0  0  0
 13 33  1  0  0  0  0
 13 34  1  0  0  0  0
 14 15  1  0  0  0  0
 14 16  2  0  0  0  0
 14 18  1  0  0  0  0
 15 35  1  0  0  0  0
 16 19  1  0  0  0  0
 16 23  1  0  0  0  0
 17 19  2  0  0  0  0
 17 36  1  0  0  0  0
 18 22  2  0  0  0  0
 18 25  1  0  0  0  0
 19 37  1  0  0  0  0
 20 38  1  0  0  0  0
 20 39  1  0  0  0  0
 21 40  1  0  0  0  0
 21 41  1  0  0  0  0
 21 42  1  0  0  0  0
 22 24  1  0  0  0  0
 22 26  1  0  0  0  0
 23 24  2  0  0  0  0
 23 43  1  0  0  0  0
 24 44  1  0  0  0  0
M  END
> <PUBCHEM_COMPOUND_CID>
130701

> <PUBCHEM_CONFORMER_RMSD>
1

> <PUBCHEM_CONFORMER_DIVERSEORDER>
6
21
22
63
45
23
54
40
58
61
33
62
13
47
39
8
29
12
51
42
43
49
56
26
20
1
10
57
53
18
19
50
59
44
2
35
25
30
38
32
17
52
24
27
46
14
55
28
15
34
60
7
48
3
9
37
16
31
11
41
5
4
36

> <PUBCHEM_MMFF94_PARTIAL_CHARGES>
34
1 -0.57
11 0.1
12 0.37
15 -0.15
17 -0.15
18 0.09
19 -0.15
2 -0.57
20 0.27
22 0.09
23 -0.15
24 -0.15
25 0.54
26 0.54
3 -0.84
35 0.15
36 0.15
37 0.15
4 -0.99
43 0.15
44 0.15
45 0.36
46 0.36
47 0.37
48 0.37
49 0.36
5 -0.42
50 0.36
51 0.36
52 0.36
6 -0.42
7 -0.73
8 -0.73
9 0.37

> <PUBCHEM_EFFECTIVE_ROTOR_COUNT>
10

> <PUBCHEM_PHARMACOPHORE_FEATURES>
11
1 1 acceptor
1 2 acceptor
1 3 cation
1 4 cation
1 4 donor
1 5 donor
1 6 donor
1 7 donor
1 8 donor
6 11 14 15 16 17 19 rings
6 14 16 18 22 23 24 rings

> <PUBCHEM_HEAVY_ATOM_COUNT>
26

> <PUBCHEM_ATOM_DEF_STEREO_COUNT>
0

> <PUBCHEM_ATOM_UDEF_STEREO_COUNT>
0

> <PUBCHEM_BOND_DEF_STEREO_COUNT>
0

> <PUBCHEM_BOND_UDEF_STEREO_COUNT>
0

> <PUBCHEM_ISOTOPIC_ATOM_COUNT>
0

> <PUBCHEM_COMPONENT_COUNT>
1

> <PUBCHEM_CACTVS_TAUTO_COUNT>
6

> <PUBCHEM_CONFORMER_ID>
0001FE8D00000006

> <PUBCHEM_MMFF94_ENERGY>
81.5138

> <PUBCHEM_FEATURE_SELFOVERLAP>
58.859

> <PUBCHEM_SHAPE_FINGERPRINT>
10616163 171 18197789997160153772
10693767 8 18129078174483585447
10906281 52 17842023214520973829
1100329 8 18195252109158235153
12107183 9 18051139090041156328
12403260 363 18341612577440076655
12422481 6 17913796949927531427
12553582 1 18127691736858529292
12788726 201 17988376947650829377
13140716 1 18270970016007305905
13533116 47 18412260666216858427
13540713 5 18269569272664196176
14790565 3 18341347642805273833
14866123 147 17979074881779368571
17492 89 18409732833377016474
1813 80 17968373426102475320
19319366 153 18194687201200757020
19591789 44 18411983529178137849
20600515 1 17768532690944858544
21279426 13 18408600336790596029
21796203 349 17689481163592717962
23559900 14 18341329998973743312
3004659 81 18334011718251088260
345986 75 17846788420379146921
34797466 226 16154001247910178069
34934 24 18127691745485406700
3680242 22 18340499871889019561
4409770 3 17033314468277033788
5104073 3 18201445756973472161
56633871 153 17907866093665107322
59755656 215 18410577327538445068
7097593 13 18410854322753352972
9709674 26 18200610188460881508

> <PUBCHEM_SHAPE_MULTIPOLES>
493.44
10.42
5.09
1.04
1.15
1.94
-0.2
7.04
-0.93
-6.44
0.75
-0.02
-0.06
-2.57

> <PUBCHEM_SHAPE_SELFOVERLAP>
1036.224

> <PUBCHEM_SHAPE_VOLUME>
279.9

> <PUBCHEM_COORDINATE_TYPE>
2
5
10

$$$$
