130713
  -OEChem-03292013323D

 44 47  0     1  0  0  0  0  0999 V2000
    1.3312    1.7587   -0.3766 F   0  0  0  0  0  0  0  0  0  0  0  0
    2.0295   -2.8715    0.1706 F   0  0  0  0  0  0  0  0  0  0  0  0
   -3.0243   -2.3277    0.2058 O   0  0  0  0  0  0  0  0  0  0  0  0
   -5.2664   -1.1564    0.7533 O   0  0  0  0  0  0  0  0  0  0  0  0
   -5.6432    0.6462   -0.6027 O   0  0  0  0  0  0  0  0  0  0  0  0
   -1.5130    1.4271   -0.2767 N   0  0  0  0  0  0  0  0  0  0  0  0
    3.0390   -0.3377   -0.1545 N   0  0  3  0  0  0  0  0  0  0  0  0
    6.1748    1.2034    0.8640 N   0  0  0  0  0  0  0  0  0  0  0  0
   -0.6331   -3.3836    0.2885 N   0  0  0  0  0  0  0  0  0  0  0  0
   -1.0799    2.8301   -0.4561 C   0  0  0  0  0  0  0  0  0  0  0  0
   -1.5521    3.9009    0.4704 C   0  0  0  0  0  0  0  0  0  0  0  0
   -0.1178    3.4604    0.4950 C   0  0  0  0  0  0  0  0  0  0  0  0
   -0.5889    0.3493   -0.1653 C   0  0  0  0  0  0  0  0  0  0  0  0
    5.2415    0.1480    0.5112 C   0  0  1  0  0  0  0  0  0  0  0  0
    3.7765    0.5104    0.7819 C   0  0  0  0  0  0  0  0  0  0  0  0
    3.9235   -0.9317   -1.1561 C   0  0  0  0  0  0  0  0  0  0  0  0
    5.2367   -0.1689   -0.9802 C   0  0  0  0  0  0  0  0  0  0  0  0
    1.6777   -0.5472   -0.1031 C   0  0  0  0  0  0  0  0  0  0  0  0
   -2.8692    1.1714   -0.2180 C   0  0  0  0  0  0  0  0  0  0  0  0
   -1.0720   -0.9664    0.0036 C   0  0  0  0  0  0  0  0  0  0  0  0
    0.8021    0.5363   -0.2164 C   0  0  0  0  0  0  0  0  0  0  0  0
   -0.1937   -2.0512    0.1169 C   0  0  0  0  0  0  0  0  0  0  0  0
    1.1811   -1.8370    0.0631 C   0  0  0  0  0  0  0  0  0  0  0  0
   -3.4308   -0.0336   -0.0609 C   0  0  0  0  0  0  0  0  0  0  0  0
   -2.5369   -1.2132    0.0631 C   0  0  0  0  0  0  0  0  0  0  0  0
   -4.8921   -0.1161   -0.0207 C   0  0  0  0  0  0  0  0  0  0  0  0
   -0.9809    3.0918   -1.5048 H   0  0  0  0  0  0  0  0  0  0  0  0
   -2.1674    3.6339    1.3209 H   0  0  0  0  0  0  0  0  0  0  0  0
   -1.7739    4.8732    0.0477 H   0  0  0  0  0  0  0  0  0  0  0  0
    0.6190    4.1480    0.0970 H   0  0  0  0  0  0  0  0  0  0  0  0
    0.1967    2.9355    1.3895 H   0  0  0  0  0  0  0  0  0  0  0  0
    5.4983   -0.7593    1.0730 H   0  0  0  0  0  0  0  0  0  0  0  0
    3.5054    0.3051    1.8234 H   0  0  0  0  0  0  0  0  0  0  0  0
    3.5778    1.5668    0.5666 H   0  0  0  0  0  0  0  0  0  0  0  0
    3.5328   -0.8128   -2.1720 H   0  0  0  0  0  0  0  0  0  0  0  0
    4.0711   -1.9976   -0.9512 H   0  0  0  0  0  0  0  0  0  0  0  0
    6.1040   -0.7556   -1.2976 H   0  0  0  0  0  0  0  0  0  0  0  0
    5.2106    0.7516   -1.5780 H   0  0  0  0  0  0  0  0  0  0  0  0
   -3.4783    2.0646   -0.3200 H   0  0  0  0  0  0  0  0  0  0  0  0
    5.9416    2.0580    0.3595 H   0  0  0  0  0  0  0  0  0  0  0  0
    7.1128    0.9457    0.5593 H   0  0  0  0  0  0  0  0  0  0  0  0
   -1.6173   -3.6053    0.3327 H   0  0  0  0  0  0  0  0  0  0  0  0
    0.0475   -4.1286    0.3623 H   0  0  0  0  0  0  0  0  0  0  0  0
   -6.2421   -1.2450    0.8052 H   0  0  0  0  0  0  0  0  0  0  0  0
  1 21  1  0  0  0  0
  2 23  1  0  0  0  0
  3 25  2  0  0  0  0
  4 26  1  0  0  0  0
  4 44  1  0  0  0  0
  5 26  2  0  0  0  0
  6 10  1  0  0  0  0
  6 13  1  0  0  0  0
  6 19  1  0  0  0  0
  7 15  1  0  0  0  0
  7 16  1  0  0  0  0
  7 18  1  0  0  0  0
  8 14  1  0  0  0  0
  8 40  1  0  0  0  0
  8 41  1  0  0  0  0
  9 22  1  0  0  0  0
  9 42  1  0  0  0  0
  9 43  1  0  0  0  0
 10 11  1  0  0  0  0
 10 12  1  0  0  0  0
 10 27  1  0  0  0  0
 11 12  1  0  0  0  0
 11 28  1  0  0  0  0
 11 29  1  0  0  0  0
 12 30  1  0  0  0  0
 12 31  1  0  0  0  0
 13 20  1  0  0  0  0
 13 21  2  0  0  0  0
 14 15  1  0  0  0  0
 14 17  1  0  0  0  0
 14 32  1  0  0  0  0
 15 33  1  0  0  0  0
 15 34  1  0  0  0  0
 16 17  1  0  0  0  0
 16 35  1  0  0  0  0
 16 36  1  0  0  0  0
 17 37  1  0  0  0  0
 17 38  1  0  0  0  0
 18 21  1  0  0  0  0
 18 23  2  0  0  0  0
 19 24  2  0  0  0  0
 19 39  1  0  0  0  0
 20 22  2  0  0  0  0
 20 25  1  0  0  0  0
 22 23  1  0  0  0  0
 24 25  1  0  0  0  0
 24 26  1  0  0  0  0
M  END
> <PUBCHEM_COMPOUND_CID>
130713

> <PUBCHEM_CONFORMER_RMSD>
0.8

> <PUBCHEM_CONFORMER_DIVERSEORDER>
1
2

> <PUBCHEM_MMFF94_PARTIAL_CHARGES>
36
1 -0.19
10 0.07
11 -0.2
12 -0.2
13 0.1
14 0.27
15 0.37
16 0.37
18 0.1
19 -0.05
2 -0.19
20 0.09
21 0.19
22 0.1
23 0.19
24 0.03
25 0.47
26 0.71
27 0.1
28 0.1
29 0.1
3 -0.57
30 0.1
31 0.1
39 0.15
4 -0.65
40 0.36
41 0.36
42 0.4
43 0.4
44 0.5
5 -0.57
6 -0.37
7 -0.84
8 -0.99
9 -0.9

> <PUBCHEM_EFFECTIVE_ROTOR_COUNT>
4.6

> <PUBCHEM_PHARMACOPHORE_FEATURES>
14
1 24 anion
1 3 acceptor
1 4 acceptor
1 5 acceptor
1 6 cation
1 7 cation
1 8 cation
1 8 donor
1 9 cation
1 9 donor
3 4 5 26 anion
5 7 14 15 16 17 rings
6 13 18 20 21 22 23 rings
6 6 13 19 20 24 25 rings

> <PUBCHEM_HEAVY_ATOM_COUNT>
26

> <PUBCHEM_ATOM_DEF_STEREO_COUNT>
0

> <PUBCHEM_ATOM_UDEF_STEREO_COUNT>
1

> <PUBCHEM_BOND_DEF_STEREO_COUNT>
0

> <PUBCHEM_BOND_UDEF_STEREO_COUNT>
0

> <PUBCHEM_ISOTOPIC_ATOM_COUNT>
0

> <PUBCHEM_COMPONENT_COUNT>
1

> <PUBCHEM_CACTVS_TAUTO_COUNT>
3

> <PUBCHEM_CONFORMER_ID>
0001FE9900000001

> <PUBCHEM_MMFF94_ENERGY>
100.5872

> <PUBCHEM_FEATURE_SELFOVERLAP>
71.468

> <PUBCHEM_SHAPE_FINGERPRINT>
10006869 2 18267574707331722999
10319926 262 18268691880687901866
10411042 1 18122063375359112047
10498660 4 18337670798131972748
10670039 82 18263098638866765820
10675989 125 17180512695473567061
10906281 52 18338254728837020212
10967382 1 18409730660139304279
1100329 8 18337673147547395481
11112241 14 16914228940140745848
11646440 116 18340217366157022737
12011746 2 18411134727971704509
12035758 1 18338521949080916211
12173636 292 18338516309952360660
12390115 104 18199762349148150824
12516196 113 18413670223392197493
12553582 1 18411128143692075911
12596602 18 17240764021303721632
12788726 201 18335701594117841601
12838862 33 18337370700509395469
12954195 1 18126583227669543718
13140716 1 18192430990170613954
13402501 40 18342734152621112856
138480 1 14951530870115192629
13862211 1 18409163333424492663
14178342 30 18192425265153664832
14787075 74 18187367653199063595
14790565 3 18409739481696772853
14955137 171 18266193879751997779
15042514 8 18335704995927560138
15196674 1 18337110038722557671
17980427 23 17274558589209964265
19591789 44 18265617756822435119
20028762 73 18128820927270029543
20510252 161 18342175514572185584
20600515 1 18271544064593978717
20642791 178 18187942702566397229
21029758 11 18412260632321564589
21267235 1 18337120050760991843
22122407 14 15502959453558220500
221357 26 18202005378880626196
2297311 6 18340780277397910836
2334 1 18049164659146231349
23402539 116 18342450482436033583
23557571 272 18271535199712622516
23558518 356 17973173832985305817
23559900 14 18413114966147352758
23569914 152 16903545681633053517
23845131 108 17619924855013151041
266924 87 18194116326858536125
283562 15 18339643330682474777
3178227 256 18263096538775431395
335352 9 18409167744345155215
34934 24 18410848854859305479
350125 39 18192994812229535282
3680242 22 18333733490037213896
392239 28 18411983580543945281
469060 322 18336841804935316609
5104073 3 18263647251702407891
5486654 2 18409732863177822572
59755656 215 18410012100534964670
6004065 56 18199739405648503413
7226269 152 18334853948389277704

> <PUBCHEM_SHAPE_MULTIPOLES>
482.99
10.63
3.66
0.82
5.33
1.94
-0.05
-0.27
0.26
-1.83
0.59
0.54
0.07
0.74

> <PUBCHEM_SHAPE_SELFOVERLAP>
1064.368

> <PUBCHEM_SHAPE_VOLUME>
260.6

> <PUBCHEM_COORDINATE_TYPE>
2
5
10

$$$$
