13072094
  -OEChem-03292013303D

 41 42  0     1  0  0  0  0  0999 V2000
    1.6617   -0.7993    1.4700 S   0  0  2  0  0  0  0  0  0  0  0  0
   -2.1879    2.0991   -1.4085 O   0  0  0  0  0  0  0  0  0  0  0  0
    1.5367   -1.9925    2.3808 O   0  0  0  0  0  0  0  0  0  0  0  0
    0.1219    3.3485    0.7917 O   0  0  0  0  0  0  0  0  0  0  0  0
   -4.5602   -2.8028   -0.9558 O   0  0  0  0  0  0  0  0  0  0  0  0
    1.7871    1.9847    0.0186 O   0  0  0  0  0  0  0  0  0  0  0  0
    4.5994   -0.3465   -2.3270 O   0  0  0  0  0  0  0  0  0  0  0  0
   -1.5985    1.2801    0.7423 N   0  0  0  0  0  0  0  0  0  0  0  0
    4.3621   -1.1135   -0.1409 N   0  0  0  0  0  0  0  0  0  0  0  0
   -2.3224    0.0820    1.2079 C   0  0  2  0  0  0  0  0  0  0  0  0
   -1.2291   -0.9754    1.4004 C   0  0  0  0  0  0  0  0  0  0  0  0
   -3.0852    0.2033   -0.0932 C   0  0  0  0  0  0  0  0  0  0  0  0
    0.0335   -0.1698    1.2402 C   0  0  0  0  0  0  0  0  0  0  0  0
   -2.2869    1.3860   -0.4309 C   0  0  0  0  0  0  0  0  0  0  0  0
   -0.2484    1.0784    0.8467 C   0  0  0  0  0  0  0  0  0  0  0  0
   -4.0597   -0.4562   -0.7094 C   0  0  0  0  0  0  0  0  0  0  0  0
    0.6773    2.1513    0.5000 C   0  0  0  0  0  0  0  0  0  0  0  0
    1.9207   -1.4176   -0.2118 C   0  0  0  0  0  0  0  0  0  0  0  0
   -4.7463   -1.6762   -0.1100 C   0  0  0  0  0  0  0  0  0  0  0  0
   -4.6055   -0.0503   -2.0710 C   0  0  0  0  0  0  0  0  0  0  0  0
    3.2937   -2.0485   -0.3709 C   0  0  0  0  0  0  0  0  0  0  0  0
    4.9275   -0.3376   -1.1435 C   0  0  0  0  0  0  0  0  0  0  0  0
    6.0086    0.5729   -0.6259 C   0  0  0  0  0  0  0  0  0  0  0  0
   -2.8950    0.2865    2.1215 H   0  0  0  0  0  0  0  0  0  0  0  0
   -1.2883   -1.4129    2.4023 H   0  0  0  0  0  0  0  0  0  0  0  0
   -1.2891   -1.7747    0.6543 H   0  0  0  0  0  0  0  0  0  0  0  0
    1.8053   -0.5834   -0.9113 H   0  0  0  0  0  0  0  0  0  0  0  0
    1.1461   -2.1600   -0.4309 H   0  0  0  0  0  0  0  0  0  0  0  0
   -5.8207   -1.4916   -0.0107 H   0  0  0  0  0  0  0  0  0  0  0  0
   -4.3553   -1.9222    0.8825 H   0  0  0  0  0  0  0  0  0  0  0  0
   -5.6846    0.1231   -2.0041 H   0  0  0  0  0  0  0  0  0  0  0  0
   -4.4244   -0.8431   -2.8037 H   0  0  0  0  0  0  0  0  0  0  0  0
   -4.1483    0.8655   -2.4534 H   0  0  0  0  0  0  0  0  0  0  0  0
    3.3928   -2.4571   -1.3826 H   0  0  0  0  0  0  0  0  0  0  0  0
    3.4296   -2.8733    0.3371 H   0  0  0  0  0  0  0  0  0  0  0  0
    0.7190    4.0947    0.5704 H   0  0  0  0  0  0  0  0  0  0  0  0
   -3.6035   -2.9641   -1.0242 H   0  0  0  0  0  0  0  0  0  0  0  0
    4.7077   -1.0161    0.8096 H   0  0  0  0  0  0  0  0  0  0  0  0
    6.5758    0.9850   -1.4649 H   0  0  0  0  0  0  0  0  0  0  0  0
    5.5542    1.3913   -0.0607 H   0  0  0  0  0  0  0  0  0  0  0  0
    6.6947    0.0195    0.0216 H   0  0  0  0  0  0  0  0  0  0  0  0
  1  3  2  0  0  0  0
  1 13  1  0  0  0  0
  1 18  1  0  0  0  0
  2 14  2  0  0  0  0
  4 17  1  0  0  0  0
  4 36  1  0  0  0  0
  5 19  1  0  0  0  0
  5 37  1  0  0  0  0
  6 17  2  0  0  0  0
  7 22  2  0  0  0  0
  8 10  1  0  0  0  0
  8 14  1  0  0  0  0
  8 15  1  0  0  0  0
  9 21  1  0  0  0  0
  9 22  1  0  0  0  0
  9 38  1  0  0  0  0
 10 11  1  0  0  0  0
 10 12  1  0  0  0  0
 10 24  1  0  0  0  0
 11 13  1  0  0  0  0
 11 25  1  0  0  0  0
 11 26  1  0  0  0  0
 12 14  1  0  0  0  0
 12 16  2  0  0  0  0
 13 15  2  0  0  0  0
 15 17  1  0  0  0  0
 16 19  1  0  0  0  0
 16 20  1  0  0  0  0
 18 21  1  0  0  0  0
 18 27  1  0  0  0  0
 18 28  1  0  0  0  0
 19 29  1  0  0  0  0
 19 30  1  0  0  0  0
 20 31  1  0  0  0  0
 20 32  1  0  0  0  0
 20 33  1  0  0  0  0
 21 34  1  0  0  0  0
 21 35  1  0  0  0  0
 22 23  1  0  0  0  0
 23 39  1  0  0  0  0
 23 40  1  0  0  0  0
 23 41  1  0  0  0  0
M  END
> <PUBCHEM_COMPOUND_CID>
13072094

> <PUBCHEM_CONFORMER_RMSD>
0.8

> <PUBCHEM_CONFORMER_DIVERSEORDER>
1
86
65
47
12
19
79
50
91
99
93
18
83
40
73
66
41
54
58
42
53
46
22
72
17
67
48
101
28
16
75
70
37
81
80
25
71
43
89
32
52
84
31
97
76
100
59
55
57
27
74
92
9
56
14
94
39
69
3
63
34
38
77
33
49
51
35
23
90
85
96
26
24
4
82
87
88
2
30
62
29
45
64
44
78
6
15
60
95
36
68
61
5
7
11
21
10
13
8
98
20

> <PUBCHEM_MMFF94_PARTIAL_CHARGES>
26
1 0.25
10 0.36
11 0.14
12 -0.24
13 -0.08
14 0.7
15 0.12
16 -0.25
17 0.71
18 0.19
19 0.42
2 -0.57
20 0.14
21 0.3
22 0.57
23 0.06
3 -0.5
36 0.5
37 0.4
38 0.37
4 -0.65
5 -0.68
6 -0.57
7 -0.57
8 -0.39
9 -0.73

> <PUBCHEM_EFFECTIVE_ROTOR_COUNT>
7.2

> <PUBCHEM_PHARMACOPHORE_FEATURES>
11
1 2 acceptor
1 20 hydrophobe
1 3 acceptor
1 4 acceptor
1 5 acceptor
1 5 donor
1 6 acceptor
1 7 acceptor
1 9 donor
3 4 6 17 anion
7 8 10 11 12 13 14 15 rings

> <PUBCHEM_HEAVY_ATOM_COUNT>
23

> <PUBCHEM_ATOM_DEF_STEREO_COUNT>
1

> <PUBCHEM_ATOM_UDEF_STEREO_COUNT>
1

> <PUBCHEM_BOND_DEF_STEREO_COUNT>
1

> <PUBCHEM_BOND_UDEF_STEREO_COUNT>
0

> <PUBCHEM_ISOTOPIC_ATOM_COUNT>
0

> <PUBCHEM_COMPONENT_COUNT>
1

> <PUBCHEM_CACTVS_TAUTO_COUNT>
2

> <PUBCHEM_CONFORMER_ID>
00C776DE00000001

> <PUBCHEM_MMFF94_ENERGY>
57.4917

> <PUBCHEM_FEATURE_SELFOVERLAP>
55.878

> <PUBCHEM_SHAPE_FINGERPRINT>
10042902 136 16987704852796951295
10692045 39 11530749384892210496
11725454 13 14129064733161405366
11961588 58 16660923386756005507
12553582 1 18338506440381485947
12633257 1 12895351109755554693
12670546 177 18335420140726704358
12788726 201 17979916016659810472
12892183 10 9726190240941170302
13103583 49 13758361093743801647
13583140 156 14707509009095201960
14251732 17 11097849696752749502
14251757 5 18194394503543274853
14251758 9 11819268945739902894
14251764 30 16271931484929461534
14420673 8 10591774168907375212
14466204 15 10953454141670266678
14787075 74 18334863831246149794
14790565 3 17619919356990924617
14951699 99 11675463875968287406
15209294 21 10809345550584425746
1813 80 17346595266229444460
193927 3 17489871548318440639
20645477 70 18195787765390867239
20775530 9 17415535848278099655
20871999 31 18410854322204642395
212916 134 11025802002403227818
21344244 246 18124034800150456092
21403212 168 8213874630153053490
22393880 68 18335127718004917797
23379529 103 18057887033656538335
23557571 272 18055886867317570009
23559900 14 18200584899909720257
2748010 2 17824546511535451833
2838139 119 15502371231753562750
3117164 225 11600002163047828231
3737641 26 14548474474727356806
6669772 16 17768526445651245900
7097593 13 11382670466077691546
999808 66 13254529613495941092

> <PUBCHEM_SHAPE_MULTIPOLES>
432
10.8
2.68
1.84
6.65
0.88
-0.14
-4.65
-7.6
-0.71
0.25
0.23
-0.43
-0.29

> <PUBCHEM_SHAPE_SELFOVERLAP>
887.584

> <PUBCHEM_SHAPE_VOLUME>
250.6

> <PUBCHEM_COORDINATE_TYPE>
2
5
10

$$$$
