130740
  -OEChem-03292013323D

 34 36  0     1  0  0  0  0  0999 V2000
   -0.2797    1.6106   -0.0249 S   0  0  0  0  0  0  0  0  0  0  0  0
    1.1838   -0.5691    0.4750 O   0  0  0  0  0  0  0  0  0  0  0  0
    4.8408    1.2964    0.2888 O   0  0  0  0  0  0  0  0  0  0  0  0
    4.6762   -1.6268    0.1968 O   0  0  0  0  0  0  0  0  0  0  0  0
    2.5567    2.4995   -0.9983 O   0  0  0  0  0  0  0  0  0  0  0  0
   -1.3421   -0.5036   -1.3344 N   0  0  0  0  0  0  0  0  0  0  0  0
   -3.3606    1.2871    1.1644 N   0  0  0  0  0  0  0  0  0  0  0  0
   -4.9156   -0.2131    0.6166 N   0  0  0  0  0  0  0  0  0  0  0  0
   -3.5899   -1.4040   -1.0371 N   0  0  0  0  0  0  0  0  0  0  0  0
    3.7313    0.5547   -0.2216 C   0  0  1  0  0  0  0  0  0  0  0  0
    3.6007   -0.7604    0.5478 C   0  0  1  0  0  0  0  0  0  0  0  0
    2.4757    1.4191   -0.0693 C   0  0  2  0  0  0  0  0  0  0  0  0
    2.2761   -1.4513    0.2138 C   0  0  1  0  0  0  0  0  0  0  0  0
    1.2111    0.5992   -0.3445 C   0  0  2  0  0  0  0  0  0  0  0  0
    2.0648   -2.7047    1.0570 C   0  0  0  0  0  0  0  0  0  0  0  0
   -1.5734    0.4412   -0.4130 C   0  0  0  0  0  0  0  0  0  0  0  0
   -2.7900    0.4931    0.2108 C   0  0  0  0  0  0  0  0  0  0  0  0
   -3.7748   -0.4304   -0.1133 C   0  0  0  0  0  0  0  0  0  0  0  0
   -4.6332    0.8253    1.3740 C   0  0  0  0  0  0  0  0  0  0  0  0
   -2.3578   -1.3628   -1.5885 C   0  0  0  0  0  0  0  0  0  0  0  0
    3.9485    0.3598   -1.2792 H   0  0  0  0  0  0  0  0  0  0  0  0
    3.6694   -0.5632    1.6250 H   0  0  0  0  0  0  0  0  0  0  0  0
    2.4615    1.8445    0.9429 H   0  0  0  0  0  0  0  0  0  0  0  0
    2.2540   -1.7526   -0.8419 H   0  0  0  0  0  0  0  0  0  0  0  0
    1.1828    0.3088   -1.4023 H   0  0  0  0  0  0  0  0  0  0  0  0
    2.8459   -3.4495    0.8784 H   0  0  0  0  0  0  0  0  0  0  0  0
    2.0491   -2.4601    2.1248 H   0  0  0  0  0  0  0  0  0  0  0  0
    1.0946   -3.1581    0.8257 H   0  0  0  0  0  0  0  0  0  0  0  0
    4.8900    2.1284   -0.2125 H   0  0  0  0  0  0  0  0  0  0  0  0
    5.5043   -1.1552    0.3906 H   0  0  0  0  0  0  0  0  0  0  0  0
    1.7470    3.0288   -0.8982 H   0  0  0  0  0  0  0  0  0  0  0  0
   -2.9263    2.0719    1.6316 H   0  0  0  0  0  0  0  0  0  0  0  0
   -5.2978    1.2891    2.0888 H   0  0  0  0  0  0  0  0  0  0  0  0
   -2.1522   -2.1210   -2.3364 H   0  0  0  0  0  0  0  0  0  0  0  0
  1 14  1  0  0  0  0
  1 16  1  0  0  0  0
  2 13  1  0  0  0  0
  2 14  1  0  0  0  0
  3 10  1  0  0  0  0
  3 29  1  0  0  0  0
  4 11  1  0  0  0  0
  4 30  1  0  0  0  0
  5 12  1  0  0  0  0
  5 31  1  0  0  0  0
  6 16  2  0  0  0  0
  6 20  1  0  0  0  0
  7 17  1  0  0  0  0
  7 19  1  0  0  0  0
  7 32  1  0  0  0  0
  8 18  1  0  0  0  0
  8 19  2  0  0  0  0
  9 18  1  0  0  0  0
  9 20  2  0  0  0  0
 10 11  1  0  0  0  0
 10 12  1  0  0  0  0
 10 21  1  0  0  0  0
 11 13  1  0  0  0  0
 11 22  1  0  0  0  0
 12 14  1  0  0  0  0
 12 23  1  0  0  0  0
 13 15  1  0  0  0  0
 13 24  1  0  0  0  0
 14 25  1  0  0  0  0
 15 26  1  0  0  0  0
 15 27  1  0  0  0  0
 15 28  1  0  0  0  0
 16 17  1  0  0  0  0
 17 18  2  0  0  0  0
 19 33  1  0  0  0  0
 20 34  1  0  0  0  0
M  END
> <PUBCHEM_COMPOUND_CID>
130740

> <PUBCHEM_CONFORMER_RMSD>
0.6

> <PUBCHEM_CONFORMER_DIVERSEORDER>
1
6
12
8
14
23
21
11
4
15
5
17
2
10
22
20
7
3
13
16
18
9
19

> <PUBCHEM_MMFF94_PARTIAL_CHARGES>
25
1 -0.33
10 0.28
11 0.28
12 0.28
13 0.28
14 0.51
16 0.41
17 -0.15
18 0.48
19 0.04
2 -0.56
20 0.47
29 0.4
3 -0.68
30 0.4
31 0.4
32 0.27
33 0.15
34 0.15
4 -0.68
5 -0.68
6 -0.62
7 0.03
8 -0.57
9 -0.57

> <PUBCHEM_EFFECTIVE_ROTOR_COUNT>
3.2

> <PUBCHEM_PHARMACOPHORE_FEATURES>
14
1 2 acceptor
1 3 acceptor
1 3 donor
1 4 acceptor
1 4 donor
1 5 acceptor
1 5 donor
1 6 acceptor
1 7 donor
3 6 9 20 cation
3 7 8 19 cation
5 7 8 17 18 19 rings
6 2 10 11 12 13 14 rings
6 6 9 16 17 18 20 rings

> <PUBCHEM_HEAVY_ATOM_COUNT>
20

> <PUBCHEM_ATOM_DEF_STEREO_COUNT>
5

> <PUBCHEM_ATOM_UDEF_STEREO_COUNT>
0

> <PUBCHEM_BOND_DEF_STEREO_COUNT>
0

> <PUBCHEM_BOND_UDEF_STEREO_COUNT>
0

> <PUBCHEM_ISOTOPIC_ATOM_COUNT>
0

> <PUBCHEM_COMPONENT_COUNT>
1

> <PUBCHEM_CACTVS_TAUTO_COUNT>
4

> <PUBCHEM_CONFORMER_ID>
0001FEB400000001

> <PUBCHEM_MMFF94_ENERGY>
42.1603

> <PUBCHEM_FEATURE_SELFOVERLAP>
71.188

> <PUBCHEM_SHAPE_FINGERPRINT>
10616163 171 18200594820946921455
11578080 2 18055882529385607905
12107183 9 17764313838573540673
12236239 1 18344146994976577433
12251169 10 18272933795724876077
12553582 1 18262790770757091602
12596602 18 18202008737376428995
12670546 56 18131062749393851649
13167823 11 18341896298589724595
13583140 156 18334017211862347961
14341114 328 18341894103845709498
14386348 63 16660365870294663019
15375462 189 18412258415532572274
1813 80 18187657851275335196
19050596 39 18341892999933457035
19422 9 18342737450786393159
20281475 54 18341887523960969965
20645477 70 17968082153519184231
21065198 48 18343864424598576907
212916 134 16845292688316021499
2255824 54 18334577975355506500
23557571 272 14979672260484675527
23598288 3 18130496432017557997
23598291 2 18342453763790781501
474 4 18262237840962300364
5104073 3 18272083916012510906
573450 72 17917709115177802333
602551 16 16486964154641188270
633830 44 18339370785111467540
7064713 232 17917705764723743763
7097593 13 18269551646154836191
7495541 125 15936416667033410932
9981440 41 17045970378834476049

> <PUBCHEM_SHAPE_MULTIPOLES>
372.04
10.08
2.23
1.18
1.45
0.36
-0.12
0.25
2.26
-1.99
0.05
1.03
0.22
-1.74

> <PUBCHEM_SHAPE_SELFOVERLAP>
786.169

> <PUBCHEM_SHAPE_VOLUME>
210.1

> <PUBCHEM_COORDINATE_TYPE>
2
5
10

$$$$
