130783
  -OEChem-03292013323D

 32 33  0     1  0  0  0  0  0999 V2000
   -1.3638   -0.5659    1.0034 O   0  0  0  0  0  0  0  0  0  0  0  0
   -3.4043    1.5942    0.3554 O   0  0  0  0  0  0  0  0  0  0  0  0
   -2.4084   -3.0578    0.2752 O   0  0  0  0  0  0  0  0  0  0  0  0
    1.5829    2.2653    0.7664 O   0  0  0  0  0  0  0  0  0  0  0  0
    0.7190    0.1866    0.2583 N   0  0  0  0  0  0  0  0  0  0  0  0
    3.0834    0.6650    0.1840 N   0  0  0  0  0  0  0  0  0  0  0  0
    4.6155   -0.9787   -0.4151 N   0  0  0  0  0  0  0  0  0  0  0  0
   -1.3632    0.9948   -0.7904 C   0  0  2  0  0  0  0  0  0  0  0  0
   -2.7995    0.6085   -0.4780 C   0  0  1  0  0  0  0  0  0  0  0  0
   -0.6461    0.5657    0.4859 C   0  0  1  0  0  0  0  0  0  0  0  0
   -2.6283   -0.6793    0.3199 C   0  0  1  0  0  0  0  0  0  0  0  0
   -1.1425    2.4583   -1.1429 C   0  0  0  0  0  0  0  0  0  0  0  0
   -2.5794   -1.9238   -0.5568 C   0  0  0  0  0  0  0  0  0  0  0  0
    0.9924   -1.1150   -0.1338 C   0  0  0  0  0  0  0  0  0  0  0  0
    1.7908    1.1008    0.4209 C   0  0  0  0  0  0  0  0  0  0  0  0
    2.2279   -1.5531   -0.3675 C   0  0  0  0  0  0  0  0  0  0  0  0
    3.3236   -0.5658   -0.1848 C   0  0  0  0  0  0  0  0  0  0  0  0
   -1.0230    0.3841   -1.6376 H   0  0  0  0  0  0  0  0  0  0  0  0
   -3.4260    0.4833   -1.3665 H   0  0  0  0  0  0  0  0  0  0  0  0
   -0.6884    1.3518    1.2495 H   0  0  0  0  0  0  0  0  0  0  0  0
   -3.3974   -0.7936    1.0922 H   0  0  0  0  0  0  0  0  0  0  0  0
   -0.1051    2.6298   -1.4471 H   0  0  0  0  0  0  0  0  0  0  0  0
   -1.7858    2.7531   -1.9786 H   0  0  0  0  0  0  0  0  0  0  0  0
   -1.3549    3.1227   -0.2990 H   0  0  0  0  0  0  0  0  0  0  0  0
   -1.7594   -1.8981   -1.2787 H   0  0  0  0  0  0  0  0  0  0  0  0
   -3.5201   -2.0390   -1.1050 H   0  0  0  0  0  0  0  0  0  0  0  0
   -3.6040    2.3661   -0.2009 H   0  0  0  0  0  0  0  0  0  0  0  0
    0.1695   -1.8024   -0.2587 H   0  0  0  0  0  0  0  0  0  0  0  0
   -2.3915   -3.8385   -0.3041 H   0  0  0  0  0  0  0  0  0  0  0  0
    2.4481   -2.5666   -0.6753 H   0  0  0  0  0  0  0  0  0  0  0  0
    5.3944   -0.3384   -0.3034 H   0  0  0  0  0  0  0  0  0  0  0  0
    4.8341   -1.9268   -0.7030 H   0  0  0  0  0  0  0  0  0  0  0  0
  1 10  1  0  0  0  0
  1 11  1  0  0  0  0
  2  9  1  0  0  0  0
  2 27  1  0  0  0  0
  3 13  1  0  0  0  0
  3 29  1  0  0  0  0
  4 15  2  0  0  0  0
  5 10  1  0  0  0  0
  5 14  1  0  0  0  0
  5 15  1  0  0  0  0
  6 15  1  0  0  0  0
  6 17  2  0  0  0  0
  7 17  1  0  0  0  0
  7 31  1  0  0  0  0
  7 32  1  0  0  0  0
  8  9  1  0  0  0  0
  8 10  1  0  0  0  0
  8 12  1  0  0  0  0
  8 18  1  0  0  0  0
  9 11  1  0  0  0  0
  9 19  1  0  0  0  0
 10 20  1  0  0  0  0
 11 13  1  0  0  0  0
 11 21  1  0  0  0  0
 12 22  1  0  0  0  0
 12 23  1  0  0  0  0
 12 24  1  0  0  0  0
 13 25  1  0  0  0  0
 13 26  1  0  0  0  0
 14 16  2  0  0  0  0
 14 28  1  0  0  0  0
 16 17  1  0  0  0  0
 16 30  1  0  0  0  0
M  END
> <PUBCHEM_COMPOUND_CID>
130783

> <PUBCHEM_CONFORMER_RMSD>
0.6

> <PUBCHEM_CONFORMER_DIVERSEORDER>
1
6
14
9
2
10
8
4
12
11
7
3
5
13

> <PUBCHEM_MMFF94_PARTIAL_CHARGES>
21
1 -0.56
10 0.58
11 0.28
13 0.28
14 -0.04
15 0.84
16 -0.14
17 0.49
2 -0.68
27 0.4
28 0.15
29 0.4
3 -0.68
30 0.15
31 0.4
32 0.4
4 -0.57
5 -0.47
6 -0.66
7 -0.85
9 0.28

> <PUBCHEM_EFFECTIVE_ROTOR_COUNT>
3

> <PUBCHEM_PHARMACOPHORE_FEATURES>
10
1 1 acceptor
1 2 acceptor
1 2 donor
1 3 acceptor
1 3 donor
1 4 acceptor
1 6 donor
1 7 donor
5 1 8 9 10 11 rings
6 5 6 14 15 16 17 rings

> <PUBCHEM_HEAVY_ATOM_COUNT>
17

> <PUBCHEM_ATOM_DEF_STEREO_COUNT>
4

> <PUBCHEM_ATOM_UDEF_STEREO_COUNT>
0

> <PUBCHEM_BOND_DEF_STEREO_COUNT>
0

> <PUBCHEM_BOND_UDEF_STEREO_COUNT>
0

> <PUBCHEM_ISOTOPIC_ATOM_COUNT>
0

> <PUBCHEM_COMPONENT_COUNT>
1

> <PUBCHEM_CACTVS_TAUTO_COUNT>
3

> <PUBCHEM_CONFORMER_ID>
0001FEDF00000001

> <PUBCHEM_MMFF94_ENERGY>
49.2159

> <PUBCHEM_FEATURE_SELFOVERLAP>
50.798

> <PUBCHEM_SHAPE_FINGERPRINT>
10608611 8 18411694400490954664
11132069 177 18412541016138951986
12138202 97 18042955493730257765
12500047 106 18337105670619251631
12932764 1 17968086499973424592
12969540 114 17969763213063394661
13024252 1 16009039349986934721
14115302 16 18336839601595552708
14965852 173 18412544322889151887
15219456 202 18412259562336546824
15375462 6 18194399115905179164
15775835 57 18261396581169767083
16945 1 18264191552702152785
18175812 5 18413107281485365988
19868273 325 18260827146000306309
200 152 17703781505410869727
20201158 50 18340486664590348774
20871999 31 18188197763398856943
21501502 16 18409730698456380288
221490 88 18268433602064957354
22721475 48 18411985758155388108
22802520 49 18410007758333291809
2334 1 18193554690769260275
23388829 49 17762053642093503413
23402539 116 17458625597232035222
23557571 272 18412554214378280446
23559900 14 18270389602732189392
238 59 15803794360190816501
25 1 18122620553044662581
2748010 2 18266168616258223933
2871803 45 18265041604208715431
5493415 88 18342737438154776810
6333449 129 18335699416954245101
69090 78 18338511946397332893
74978 22 18342174457793738561
81228 2 18187641470576061833
8809292 202 18409731746544614050
93112 12 18412260636004290317
9709674 26 18343866623469436671

> <PUBCHEM_SHAPE_MULTIPOLES>
311.43
6.16
2.6
0.88
4.04
0.41
0.06
1.53
0.46
-1.55
0.22
-0.21
-0.22
0.63

> <PUBCHEM_SHAPE_SELFOVERLAP>
652.8

> <PUBCHEM_SHAPE_VOLUME>
175.6

> <PUBCHEM_COORDINATE_TYPE>
2
5
10

$$$$
