130796
  -OEChem-03292013323D

 49 50  0     1  0  0  0  0  0999 V2000
    0.1062    0.2043    0.2010 O   0  0  0  0  0  0  0  0  0  0  0  0
   -2.0783    1.0213    0.1330 O   0  0  0  0  0  0  0  0  0  0  0  0
   -0.8974   -2.4336   -0.0052 O   0  0  0  0  0  0  0  0  0  0  0  0
   -3.6236   -2.6618    1.0888 O   0  0  0  0  0  0  0  0  0  0  0  0
   -5.3417   -0.6316   -0.0433 O   0  0  0  0  0  0  0  0  0  0  0  0
   -3.5947    3.1732   -0.6582 O   0  0  0  0  0  0  0  0  0  0  0  0
    5.0788   -0.7767    1.4155 O   0  0  0  0  0  0  0  0  0  0  0  0
    3.0301    1.0676    0.5401 C   0  0  0  0  0  0  0  0  0  0  0  0
    0.8366    0.8893   -0.8101 C   0  0  1  0  0  0  0  0  0  0  0  0
    1.8870    1.8121   -0.2072 C   0  0  0  0  0  0  0  0  0  0  0  0
    1.4780   -0.1310   -1.7444 C   0  0  0  0  0  0  0  0  0  0  0  0
   -1.2305   -0.0703   -0.2170 C   0  0  2  0  0  0  0  0  0  0  0  0
   -1.6888   -1.3502    0.4819 C   0  0  1  0  0  0  0  0  0  0  0  0
    3.4585   -0.2028   -0.2046 C   0  0  0  0  0  0  0  0  0  0  0  0
   -3.1651   -1.6362    0.2065 C   0  0  2  0  0  0  0  0  0  0  0  0
   -4.0228   -0.3926    0.4411 C   0  0  1  0  0  0  0  0  0  0  0  0
    2.7709   -0.7450   -1.2358 C   0  0  0  0  0  0  0  0  0  0  0  0
   -3.4305    0.8197   -0.2815 C   0  0  1  0  0  0  0  0  0  0  0  0
    4.1986    2.0772    0.6512 C   0  0  0  0  0  0  0  0  0  0  0  0
    2.5782    0.6981    1.9699 C   0  0  0  0  0  0  0  0  0  0  0  0
   -4.2030    2.0972    0.0325 C   0  0  0  0  0  0  0  0  0  0  0  0
    3.1449   -1.9866   -2.0112 C   0  0  0  0  0  0  0  0  0  0  0  0
    4.7087   -0.8414    0.2568 C   0  0  0  0  0  0  0  0  0  0  0  0
    0.1489    1.5231   -1.3873 H   0  0  0  0  0  0  0  0  0  0  0  0
    2.3143    2.4093   -1.0252 H   0  0  0  0  0  0  0  0  0  0  0  0
    1.4008    2.5224    0.4740 H   0  0  0  0  0  0  0  0  0  0  0  0
    1.7064    0.3580   -2.7006 H   0  0  0  0  0  0  0  0  0  0  0  0
    0.7652   -0.9353   -1.9592 H   0  0  0  0  0  0  0  0  0  0  0  0
   -1.2664   -0.2250   -1.3044 H   0  0  0  0  0  0  0  0  0  0  0  0
   -1.5155   -1.2864    1.5634 H   0  0  0  0  0  0  0  0  0  0  0  0
   -3.2991   -2.0198   -0.8125 H   0  0  0  0  0  0  0  0  0  0  0  0
   -4.0911   -0.2073    1.5210 H   0  0  0  0  0  0  0  0  0  0  0  0
   -3.4458    0.6736   -1.3701 H   0  0  0  0  0  0  0  0  0  0  0  0
    4.6236    2.3011   -0.3344 H   0  0  0  0  0  0  0  0  0  0  0  0
    3.8549    3.0231    1.0871 H   0  0  0  0  0  0  0  0  0  0  0  0
    5.0129    1.7163    1.2872 H   0  0  0  0  0  0  0  0  0  0  0  0
    1.8956   -0.1583    1.9760 H   0  0  0  0  0  0  0  0  0  0  0  0
    3.4167    0.4490    2.6277 H   0  0  0  0  0  0  0  0  0  0  0  0
    2.0581    1.5380    2.4455 H   0  0  0  0  0  0  0  0  0  0  0  0
   -4.1648    2.3234    1.1033 H   0  0  0  0  0  0  0  0  0  0  0  0
   -5.2468    2.0307   -0.2872 H   0  0  0  0  0  0  0  0  0  0  0  0
    3.4346   -1.7166   -3.0319 H   0  0  0  0  0  0  0  0  0  0  0  0
    2.2900   -2.6699   -2.0660 H   0  0  0  0  0  0  0  0  0  0  0  0
    3.9600   -2.5612   -1.5678 H   0  0  0  0  0  0  0  0  0  0  0  0
    5.2856   -1.4011   -0.4941 H   0  0  0  0  0  0  0  0  0  0  0  0
    0.0334   -2.2198    0.1787 H   0  0  0  0  0  0  0  0  0  0  0  0
   -4.5659   -2.8097    0.8986 H   0  0  0  0  0  0  0  0  0  0  0  0
   -5.9240    0.0515    0.3291 H   0  0  0  0  0  0  0  0  0  0  0  0
   -4.0975    3.9762   -0.4392 H   0  0  0  0  0  0  0  0  0  0  0  0
  1  9  1  0  0  0  0
  1 12  1  0  0  0  0
  2 12  1  0  0  0  0
  2 18  1  0  0  0  0
  3 13  1  0  0  0  0
  3 46  1  0  0  0  0
  4 15  1  0  0  0  0
  4 47  1  0  0  0  0
  5 16  1  0  0  0  0
  5 48  1  0  0  0  0
  6 21  1  0  0  0  0
  6 49  1  0  0  0  0
  7 23  2  0  0  0  0
  8 10  1  0  0  0  0
  8 14  1  0  0  0  0
  8 19  1  0  0  0  0
  8 20  1  0  0  0  0
  9 10  1  0  0  0  0
  9 11  1  0  0  0  0
  9 24  1  0  0  0  0
 10 25  1  0  0  0  0
 10 26  1  0  0  0  0
 11 17  1  0  0  0  0
 11 27  1  0  0  0  0
 11 28  1  0  0  0  0
 12 13  1  0  0  0  0
 12 29  1  0  0  0  0
 13 15  1  0  0  0  0
 13 30  1  0  0  0  0
 14 17  2  0  0  0  0
 14 23  1  0  0  0  0
 15 16  1  0  0  0  0
 15 31  1  0  0  0  0
 16 18  1  0  0  0  0
 16 32  1  0  0  0  0
 17 22  1  0  0  0  0
 18 21  1  0  0  0  0
 18 33  1  0  0  0  0
 19 34  1  0  0  0  0
 19 35  1  0  0  0  0
 19 36  1  0  0  0  0
 20 37  1  0  0  0  0
 20 38  1  0  0  0  0
 20 39  1  0  0  0  0
 21 40  1  0  0  0  0
 21 41  1  0  0  0  0
 22 42  1  0  0  0  0
 22 43  1  0  0  0  0
 22 44  1  0  0  0  0
 23 45  1  0  0  0  0
M  END
> <PUBCHEM_COMPOUND_CID>
130796

> <PUBCHEM_CONFORMER_RMSD>
0.8

> <PUBCHEM_CONFORMER_DIVERSEORDER>
1
51
57
46
26
27
18
54
15
29
56
45
52
44
23
16
47
6
5
12
3
25
59
49
9
39
30
43
42
14
17
24
10
28
19
20
8
41
60
36
4
7
35
38
53
55
33
50
48
34
37
2
58
40
31
11
21
32
13
22

> <PUBCHEM_MMFF94_PARTIAL_CHARGES>
25
1 -0.56
11 0.14
12 0.56
13 0.28
14 -0.12
15 0.28
16 0.28
17 -0.28
18 0.28
2 -0.56
21 0.28
22 0.14
23 0.5
3 -0.68
4 -0.68
45 0.06
46 0.4
47 0.4
48 0.4
49 0.4
5 -0.68
6 -0.68
7 -0.57
8 0.14
9 0.28

> <PUBCHEM_EFFECTIVE_ROTOR_COUNT>
6

> <PUBCHEM_PHARMACOPHORE_FEATURES>
14
1 1 acceptor
1 2 acceptor
1 3 acceptor
1 3 donor
1 4 acceptor
1 4 donor
1 5 acceptor
1 5 donor
1 6 acceptor
1 6 donor
1 7 acceptor
3 8 19 20 hydrophobe
6 2 12 13 15 16 18 rings
6 8 9 10 11 14 17 rings

> <PUBCHEM_HEAVY_ATOM_COUNT>
23

> <PUBCHEM_ATOM_DEF_STEREO_COUNT>
6

> <PUBCHEM_ATOM_UDEF_STEREO_COUNT>
0

> <PUBCHEM_BOND_DEF_STEREO_COUNT>
0

> <PUBCHEM_BOND_UDEF_STEREO_COUNT>
0

> <PUBCHEM_ISOTOPIC_ATOM_COUNT>
0

> <PUBCHEM_COMPONENT_COUNT>
1

> <PUBCHEM_CACTVS_TAUTO_COUNT>
1

> <PUBCHEM_CONFORMER_ID>
0001FEEC00000001

> <PUBCHEM_MMFF94_ENERGY>
62.7217

> <PUBCHEM_FEATURE_SELFOVERLAP>
71.11

> <PUBCHEM_SHAPE_FINGERPRINT>
10366900 7 17560526212853468680
10646746 165 18410576179969553196
1100329 8 16539336809681002052
11370993 70 18342737416295136710
11405975 8 18410857646272082897
12107183 9 18044927970520382440
12236239 1 17240202136053627413
12403259 415 18342184340851311053
12403260 363 18409164437552672461
12507560 40 18341609352115101984
12553582 1 15357693085303161788
12596602 18 17168148995986690289
12633257 1 18337096883590995760
12670546 56 18261104188570806409
128620 24 13326856638572987261
12892183 10 18263637527996584912
13134695 92 17060056982996910384
13224815 77 17703796945844873837
13544592 145 18196944274885907734
13583140 156 17346306137625994989
13675066 3 18344148089771257805
14178342 30 18187363233466849371
14251757 17 18271249313614347715
14251764 38 18130790018844403721
14420673 8 18189896418506498890
14866123 147 16688533979451037238
15042514 8 18190183571851876923
15375358 24 18272651238252941646
15788980 27 17846776291085482284
16752209 62 18260550026405237819
16988056 13 11300610490113473563
17349148 13 18342734143677548949
17492 89 18043815496512482283
1813 80 16370999686004954686
18186145 218 18200041642249449629
19784866 140 13840261434690635874
20600515 1 18335139752693789724
20645477 70 17346325873090469252
21033648 29 17988913466433150304
21065198 57 18410009948840504760
21065199 12 18339642342776381320
21065201 7 18335426750681307767
23402539 116 18412254065479839845
23557571 272 18412263930487306169
23559900 14 18200319810291123406
23598291 2 17386015004252760244
312423 11 17458921442958458165
4214541 1 18408884031616870297
474 4 14117515497652036442
495365 180 17703780393251729756
508706 21 18336551521370519495
5104073 3 18411139159982621032
59755656 215 18334857161336233519
602551 16 18260266309218332388
9709674 26 18342463646647822439

> <PUBCHEM_SHAPE_MULTIPOLES>
432.24
10.7
2.64
1.4
3.21
0.34
0.08
0.3
-1.94
1.66
0.17
-1.46
-0.35
1.93

> <PUBCHEM_SHAPE_SELFOVERLAP>
887.241

> <PUBCHEM_SHAPE_VOLUME>
245.7

> <PUBCHEM_COORDINATE_TYPE>
2
5
10

$$$$
