130835
  -OEChem-03292013323D

 38 38  0     1  0  0  0  0  0999 V2000
   -0.0336   -0.2425   -1.9171 S   0  0  0  0  0  0  0  0  0  0  0  0
   -4.7681    0.2984   -0.2517 O   0  0  0  0  0  0  0  0  0  0  0  0
    2.0524    3.4552    0.8861 O   0  0  0  0  0  0  0  0  0  0  0  0
   -3.6930    2.2929   -0.1743 O   0  0  0  0  0  0  0  0  0  0  0  0
    1.4387    1.5926    2.0304 O   0  0  0  0  0  0  0  0  0  0  0  0
   -2.5873   -1.4254    1.8996 O   0  0  0  0  0  0  0  0  0  0  0  0
   -2.6141   -1.1446   -0.4117 N   0  0  0  0  0  0  0  0  0  0  0  0
    0.7959    0.2469   -0.3891 C   0  0  1  0  0  0  0  0  0  0  0  0
   -1.5794    0.6960   -1.6822 C   0  0  0  0  0  0  0  0  0  0  0  0
   -2.3733    0.2765   -0.4426 C   0  0  1  0  0  0  0  0  0  0  0  0
    2.1639   -0.4008   -0.2923 C   0  0  0  0  0  0  0  0  0  0  0  0
    0.8208    1.7790   -0.2991 C   0  0  0  0  0  0  0  0  0  0  0  0
    2.2713   -1.6666    0.2533 C   0  0  0  0  0  0  0  0  0  0  0  0
    3.2692    0.2903   -0.7527 C   0  0  0  0  0  0  0  0  0  0  0  0
   -3.6575    1.0731   -0.2814 C   0  0  0  0  0  0  0  0  0  0  0  0
    1.4640    2.2384    0.9901 C   0  0  0  0  0  0  0  0  0  0  0  0
    3.5293   -2.2625    0.3421 C   0  0  0  0  0  0  0  0  0  0  0  0
    4.5272   -0.3058   -0.6639 C   0  0  0  0  0  0  0  0  0  0  0  0
    4.6571   -1.5821   -0.1165 C   0  0  0  0  0  0  0  0  0  0  0  0
   -2.7006   -1.8761    0.7626 C   0  0  0  0  0  0  0  0  0  0  0  0
   -2.9827   -3.3330    0.5104 C   0  0  0  0  0  0  0  0  0  0  0  0
    0.2170   -0.1382    0.4583 H   0  0  0  0  0  0  0  0  0  0  0  0
   -2.1882    0.4653   -2.5666 H   0  0  0  0  0  0  0  0  0  0  0  0
   -1.4215    1.7759   -1.7465 H   0  0  0  0  0  0  0  0  0  0  0  0
   -1.8127    0.5239    0.4661 H   0  0  0  0  0  0  0  0  0  0  0  0
   -0.1784    2.2171   -0.2388 H   0  0  0  0  0  0  0  0  0  0  0  0
    1.3320    2.2443   -1.1492 H   0  0  0  0  0  0  0  0  0  0  0  0
    1.3993   -2.2055    0.6123 H   0  0  0  0  0  0  0  0  0  0  0  0
    3.2123    1.2721   -1.2077 H   0  0  0  0  0  0  0  0  0  0  0  0
   -2.7984   -1.6132   -1.2943 H   0  0  0  0  0  0  0  0  0  0  0  0
    3.6306   -3.2566    0.7677 H   0  0  0  0  0  0  0  0  0  0  0  0
    5.4051    0.2211   -1.0261 H   0  0  0  0  0  0  0  0  0  0  0  0
    5.6364   -2.0467   -0.0489 H   0  0  0  0  0  0  0  0  0  0  0  0
   -2.7912   -3.9077    1.4207 H   0  0  0  0  0  0  0  0  0  0  0  0
   -4.0294   -3.4552    0.2193 H   0  0  0  0  0  0  0  0  0  0  0  0
   -2.3359   -3.7142   -0.2851 H   0  0  0  0  0  0  0  0  0  0  0  0
   -5.5842    0.8312   -0.1400 H   0  0  0  0  0  0  0  0  0  0  0  0
    2.4545    3.7412    1.7340 H   0  0  0  0  0  0  0  0  0  0  0  0
  1  8  1  0  0  0  0
  1  9  1  0  0  0  0
  2 15  1  0  0  0  0
  2 37  1  0  0  0  0
  3 16  1  0  0  0  0
  3 38  1  0  0  0  0
  4 15  2  0  0  0  0
  5 16  2  0  0  0  0
  6 20  2  0  0  0  0
  7 10  1  0  0  0  0
  7 20  1  0  0  0  0
  7 30  1  0  0  0  0
  8 11  1  0  0  0  0
  8 12  1  0  0  0  0
  8 22  1  0  0  0  0
  9 10  1  0  0  0  0
  9 23  1  0  0  0  0
  9 24  1  0  0  0  0
 10 15  1  0  0  0  0
 10 25  1  0  0  0  0
 11 13  2  0  0  0  0
 11 14  1  0  0  0  0
 12 16  1  0  0  0  0
 12 26  1  0  0  0  0
 12 27  1  0  0  0  0
 13 17  1  0  0  0  0
 13 28  1  0  0  0  0
 14 18  2  0  0  0  0
 14 29  1  0  0  0  0
 17 19  2  0  0  0  0
 17 31  1  0  0  0  0
 18 19  1  0  0  0  0
 18 32  1  0  0  0  0
 19 33  1  0  0  0  0
 20 21  1  0  0  0  0
 21 34  1  0  0  0  0
 21 35  1  0  0  0  0
 21 36  1  0  0  0  0
M  END
> <PUBCHEM_COMPOUND_CID>
130835

> <PUBCHEM_CONFORMER_RMSD>
0.8

> <PUBCHEM_CONFORMER_DIVERSEORDER>
15
216
169
23
90
260
92
41
250
135
18
235
213
124
205
79
113
241
252
70
185
181
26
218
156
137
102
201
94
225
175
55
9
234
131
38
151
16
30
121
120
224
45
145
222
188
183
104
186
63
29
243
61
244
10
118
272
46
212
168
233
139
267
93
227
125
177
162
150
170
14
251
111
31
112
166
193
119
20
24
236
247
142
66
91
62
82
73
210
197
76
196
203
176
248
165
89
83
223
68
240
171
245
215
209
127
172
108
178
28
49
167
97
77
230
110
87
239
148
199
86
74
143
191
195
11
147
106
217
138
98
78
202
128
72
85
228
57
242
254
163
7
105
101
71
232
249
88
13
268
132
200
187
161
129
194
179
107
146
229
50
173
36
109
99
117
134
67
2
59
182
40
266
12
211
37
157
158
114
53
231
43
75
22
226
238
219
21
52
271
174
144
5
65
47
204
126
140
154
4
103
3
6
265
189
160
246
122
84
27
51
214
58
258
190
95
164
8
153
221
133
69
198
19
149
237
152
35
180
184
255
208
116
256
54
48
207
159
96
34
56
206
42
100
259
141
270
123
192
80
60
17
253
261
32
130
39
269
64
115
155
136
25
1
262
220
33
263
81
264
44
257

> <PUBCHEM_MMFF94_PARTIAL_CHARGES>
29
1 -0.46
10 0.36
11 -0.14
12 0.06
13 -0.15
14 -0.15
15 0.66
16 0.66
17 -0.15
18 -0.15
19 -0.15
2 -0.65
20 0.57
21 0.06
28 0.15
29 0.15
3 -0.65
30 0.37
31 0.15
32 0.15
33 0.15
37 0.5
38 0.5
4 -0.57
5 -0.57
6 -0.57
7 -0.73
8 0.37
9 0.23

> <PUBCHEM_EFFECTIVE_ROTOR_COUNT>
9

> <PUBCHEM_PHARMACOPHORE_FEATURES>
10
1 2 acceptor
1 3 acceptor
1 4 acceptor
1 5 acceptor
1 6 acceptor
1 7 donor
3 2 4 15 anion
3 3 5 16 anion
4 1 8 9 12 hydrophobe
6 11 13 14 17 18 19 rings

> <PUBCHEM_HEAVY_ATOM_COUNT>
21

> <PUBCHEM_ATOM_DEF_STEREO_COUNT>
0

> <PUBCHEM_ATOM_UDEF_STEREO_COUNT>
2

> <PUBCHEM_BOND_DEF_STEREO_COUNT>
0

> <PUBCHEM_BOND_UDEF_STEREO_COUNT>
0

> <PUBCHEM_ISOTOPIC_ATOM_COUNT>
0

> <PUBCHEM_COMPONENT_COUNT>
1

> <PUBCHEM_CACTVS_TAUTO_COUNT>
2

> <PUBCHEM_CONFORMER_ID>
0001FF130000000F

> <PUBCHEM_MMFF94_ENERGY>
49.0174

> <PUBCHEM_FEATURE_SELFOVERLAP>
50.865

> <PUBCHEM_SHAPE_FINGERPRINT>
10366900 7 18409441496970628727
10616163 171 18261117378183855054
12166972 35 16128361684490418125
12293681 4 18270407087691893905
12403259 327 18412269411023435639
12500047 106 18333729096465024477
12506688 2 18408889512348450926
12507560 18 18194680367749500657
12633257 1 17986697985358902651
12788726 201 17909264685646124962
13533116 47 18339919428776596087
13583140 156 18200031888083211045
14223421 5 18195244648947429387
14251745 187 17822010942889933290
14251757 5 18263930946945361004
15238133 3 18270691839565277068
15295992 7 18272937128883502057
17349148 13 15841546388351443077
17804303 29 18408045095923708359
18785283 64 18049155872445672584
192875 21 14692278552325240729
20600515 1 18265627484918229516
20681677 274 18340205318594512783
20681677 76 18198054975119682829
21033648 29 15984244215586598267
21864079 5 15481287091442489177
23503958 8 18186809118477401223
23559900 14 18262795293531623981
238078 22 18335713697989939158
81228 2 17556030091033478056
9709674 26 18339352097814062165

> <PUBCHEM_SHAPE_MULTIPOLES>
401.69
8.61
3.25
1.46
0.34
0.01
-0.08
-2.88
0.13
0.56
-1.52
0.18
0.33
1.28

> <PUBCHEM_SHAPE_SELFOVERLAP>
807.036

> <PUBCHEM_SHAPE_VOLUME>
234.7

> <PUBCHEM_COORDINATE_TYPE>
2
5
10

$$$$
