130842
  -OEChem-03292013323D

 56 58  0     1  0  0  0  0  0999 V2000
   -5.3342   -2.2286    1.3179 O   0  0  0  0  0  0  0  0  0  0  0  0
   -2.3712    0.2076    0.9600 O   0  0  0  0  0  0  0  0  0  0  0  0
   -4.9525   -1.5700   -0.8307 O   0  0  0  0  0  0  0  0  0  0  0  0
   -0.3840    0.3711   -1.9501 O   0  0  0  0  0  0  0  0  0  0  0  0
    0.9890   -1.1271    1.4478 O   0  0  0  0  0  0  0  0  0  0  0  0
   -4.3887    0.9350    0.0898 N   0  0  0  0  0  0  0  0  0  0  0  0
   -0.9165    1.8789   -0.2622 N   0  0  0  0  0  0  0  0  0  0  0  0
    1.8617   -0.3104   -0.5397 N   0  0  0  0  0  0  0  0  0  0  0  0
   -5.2403    0.0833    0.9096 C   0  0  1  0  0  0  0  0  0  0  0  0
   -6.6384    0.6711    0.7564 C   0  0  0  0  0  0  0  0  0  0  0  0
   -6.6090    1.2982   -0.6353 C   0  0  0  0  0  0  0  0  0  0  0  0
   -5.1861    1.8231   -0.7522 C   0  0  0  0  0  0  0  0  0  0  0  0
   -3.0111    0.9749    0.2389 C   0  0  0  0  0  0  0  0  0  0  0  0
   -5.1543   -1.3026    0.3446 C   0  0  0  0  0  0  0  0  0  0  0  0
   -2.3013    2.0362   -0.5633 C   0  0  0  0  0  0  0  0  0  0  0  0
    1.3615    1.0345   -0.4047 C   0  0  2  0  0  0  0  0  0  0  0  0
   -0.0492    1.0511   -0.9825 C   0  0  0  0  0  0  0  0  0  0  0  0
    2.2459    2.0565   -1.1282 C   0  0  0  0  0  0  0  0  0  0  0  0
    3.4832    2.4171   -0.3430 C   0  0  0  0  0  0  0  0  0  0  0  0
    1.6294   -1.2927    0.4130 C   0  0  0  0  0  0  0  0  0  0  0  0
    3.4388    3.4797    0.5460 C   0  0  0  0  0  0  0  0  0  0  0  0
    4.6427    1.6794   -0.5248 C   0  0  0  0  0  0  0  0  0  0  0  0
    2.2353   -2.6212    0.1392 C   0  0  0  0  0  0  0  0  0  0  0  0
    4.5826    3.8131    1.2714 C   0  0  0  0  0  0  0  0  0  0  0  0
    5.7865    2.0126    0.2008 C   0  0  0  0  0  0  0  0  0  0  0  0
    5.7564    3.0794    1.0991 C   0  0  0  0  0  0  0  0  0  0  0  0
    2.5464   -3.4432    1.2024 C   0  0  0  0  0  0  0  0  0  0  0  0
    2.4673   -2.9903   -1.1694 C   0  0  0  0  0  0  0  0  0  0  0  0
    3.1149   -4.6906    0.9451 C   0  0  0  0  0  0  0  0  0  0  0  0
    3.0357   -4.2379   -1.4267 C   0  0  0  0  0  0  0  0  0  0  0  0
    3.3595   -5.0881   -0.3695 C   0  0  0  0  0  0  0  0  0  0  0  0
   -4.8792    0.0886    1.9436 H   0  0  0  0  0  0  0  0  0  0  0  0
   -6.7938    1.4581    1.5045 H   0  0  0  0  0  0  0  0  0  0  0  0
   -7.4401   -0.0660    0.8613 H   0  0  0  0  0  0  0  0  0  0  0  0
   -7.3584    2.0842   -0.7639 H   0  0  0  0  0  0  0  0  0  0  0  0
   -6.7910    0.5292   -1.3954 H   0  0  0  0  0  0  0  0  0  0  0  0
   -5.1017    2.8376   -0.3479 H   0  0  0  0  0  0  0  0  0  0  0  0
   -4.8180    1.8169   -1.7818 H   0  0  0  0  0  0  0  0  0  0  0  0
   -2.4745    1.8907   -1.6326 H   0  0  0  0  0  0  0  0  0  0  0  0
   -2.6174    3.0331   -0.2468 H   0  0  0  0  0  0  0  0  0  0  0  0
    1.3043    1.2700    0.6658 H   0  0  0  0  0  0  0  0  0  0  0  0
   -0.5499    2.3966    0.5313 H   0  0  0  0  0  0  0  0  0  0  0  0
    2.5318    1.6907   -2.1239 H   0  0  0  0  0  0  0  0  0  0  0  0
    1.6769    2.9770   -1.3189 H   0  0  0  0  0  0  0  0  0  0  0  0
   -5.2829   -3.1433    0.9674 H   0  0  0  0  0  0  0  0  0  0  0  0
    2.4243   -0.5080   -1.3597 H   0  0  0  0  0  0  0  0  0  0  0  0
    2.5288    4.0552    0.6893 H   0  0  0  0  0  0  0  0  0  0  0  0
    4.6772    0.8472   -1.2219 H   0  0  0  0  0  0  0  0  0  0  0  0
    4.5591    4.6433    1.9713 H   0  0  0  0  0  0  0  0  0  0  0  0
    6.7004    1.4414    0.0666 H   0  0  0  0  0  0  0  0  0  0  0  0
    6.6468    3.3387    1.6642 H   0  0  0  0  0  0  0  0  0  0  0  0
    2.3670   -3.1469    2.2315 H   0  0  0  0  0  0  0  0  0  0  0  0
    2.1963   -2.3770   -2.0222 H   0  0  0  0  0  0  0  0  0  0  0  0
    3.3680   -5.3525    1.7682 H   0  0  0  0  0  0  0  0  0  0  0  0
    3.2183   -4.5515   -2.4505 H   0  0  0  0  0  0  0  0  0  0  0  0
    3.8005   -6.0603   -0.5697 H   0  0  0  0  0  0  0  0  0  0  0  0
  1 14  1  0  0  0  0
  1 45  1  0  0  0  0
  2 13  2  0  0  0  0
  3 14  2  0  0  0  0
  4 17  2  0  0  0  0
  5 20  2  0  0  0  0
  6  9  1  0  0  0  0
  6 12  1  0  0  0  0
  6 13  1  0  0  0  0
  7 15  1  0  0  0  0
  7 17  1  0  0  0  0
  7 42  1  0  0  0  0
  8 16  1  0  0  0  0
  8 20  1  0  0  0  0
  8 46  1  0  0  0  0
  9 10  1  0  0  0  0
  9 14  1  0  0  0  0
  9 32  1  0  0  0  0
 10 11  1  0  0  0  0
 10 33  1  0  0  0  0
 10 34  1  0  0  0  0
 11 12  1  0  0  0  0
 11 35  1  0  0  0  0
 11 36  1  0  0  0  0
 12 37  1  0  0  0  0
 12 38  1  0  0  0  0
 13 15  1  0  0  0  0
 15 39  1  0  0  0  0
 15 40  1  0  0  0  0
 16 17  1  0  0  0  0
 16 18  1  0  0  0  0
 16 41  1  0  0  0  0
 18 19  1  0  0  0  0
 18 43  1  0  0  0  0
 18 44  1  0  0  0  0
 19 21  2  0  0  0  0
 19 22  1  0  0  0  0
 20 23  1  0  0  0  0
 21 24  1  0  0  0  0
 21 47  1  0  0  0  0
 22 25  2  0  0  0  0
 22 48  1  0  0  0  0
 23 27  2  0  0  0  0
 23 28  1  0  0  0  0
 24 26  2  0  0  0  0
 24 49  1  0  0  0  0
 25 26  1  0  0  0  0
 25 50  1  0  0  0  0
 26 51  1  0  0  0  0
 27 29  1  0  0  0  0
 27 52  1  0  0  0  0
 28 30  2  0  0  0  0
 28 53  1  0  0  0  0
 29 31  2  0  0  0  0
 29 54  1  0  0  0  0
 30 31  1  0  0  0  0
 30 55  1  0  0  0  0
 31 56  1  0  0  0  0
M  END
> <PUBCHEM_COMPOUND_CID>
130842

> <PUBCHEM_CONFORMER_RMSD>
1.2

> <PUBCHEM_CONFORMER_DIVERSEORDER>
1
4
12
32
16
15
28
43
8
13
10
42
36
25
26
31
3
19
44
40
41
38
22
5
6
18
37
24
17
29
33
21
23
2
11
14
9
45
35
20
39
7
34
27
30

> <PUBCHEM_MMFF94_PARTIAL_CHARGES>
42
1 -0.65
12 0.3
13 0.57
14 0.66
15 0.36
16 0.36
17 0.57
18 0.14
19 -0.14
2 -0.57
20 0.54
21 -0.15
22 -0.15
23 0.09
24 -0.15
25 -0.15
26 -0.15
27 -0.15
28 -0.15
29 -0.15
3 -0.57
30 -0.15
31 -0.15
4 -0.57
42 0.37
45 0.5
46 0.37
47 0.15
48 0.15
49 0.15
5 -0.57
50 0.15
51 0.15
52 0.15
53 0.15
54 0.15
55 0.15
56 0.15
6 -0.66
7 -0.73
8 -0.73
9 0.36

> <PUBCHEM_EFFECTIVE_ROTOR_COUNT>
12

> <PUBCHEM_PHARMACOPHORE_FEATURES>
11
1 1 acceptor
1 2 acceptor
1 3 acceptor
1 4 acceptor
1 5 acceptor
1 7 donor
1 8 donor
3 1 3 14 anion
5 6 9 10 11 12 rings
6 19 21 22 24 25 26 rings
6 23 27 28 29 30 31 rings

> <PUBCHEM_HEAVY_ATOM_COUNT>
31

> <PUBCHEM_ATOM_DEF_STEREO_COUNT>
2

> <PUBCHEM_ATOM_UDEF_STEREO_COUNT>
0

> <PUBCHEM_BOND_DEF_STEREO_COUNT>
0

> <PUBCHEM_BOND_UDEF_STEREO_COUNT>
0

> <PUBCHEM_ISOTOPIC_ATOM_COUNT>
0

> <PUBCHEM_COMPONENT_COUNT>
1

> <PUBCHEM_CACTVS_TAUTO_COUNT>
4

> <PUBCHEM_CONFORMER_ID>
0001FF1A00000001

> <PUBCHEM_MMFF94_ENERGY>
80.471

> <PUBCHEM_FEATURE_SELFOVERLAP>
55.879

> <PUBCHEM_SHAPE_FINGERPRINT>
10010297 198 18343011207723217471
10050765 1 18266459794157815877
10074138 170 17691668405526435248
11135926 11 18410566319057003373
11513181 2 18412547630632181735
11719270 70 18335701692992032492
12107183 9 17836657318768116033
12373685 5 18339060654608466183
13073987 5 18410302381160256017
131258 43 17771356271264985638
13533116 47 18337677408503424557
13540713 4 17897153637970600589
13692114 37 18192430994344697186
13955234 65 18412545379778277976
14347424 109 18269000787299387449
14790565 3 18123467451891684004
15183329 4 10879729679536151109
15927050 60 18341331196737064230
16114785 44 17695337467206532344
17913733 40 18411695521461672544
19315958 150 18335424552645009045
19319366 153 18201994465142419112
19611394 137 18117833292930612434
20028762 73 18266462194663745638
20197701 30 18269274732823641248
21033648 29 18125712629378405120
21049683 118 17700950366771567080
21703447 108 18264485092178954368
22956985 138 17968931977962179482
23559900 14 18265608780599229977
238918 7 18118419559770522490
249999 5 18411135810335195796
32027 91 18191302668298063007
4340502 62 18410014376735970284
4403749 210 18048869990062447968
5265222 85 18046922734148863900
5385378 56 18411141324751905464
59755656 215 18334298651957295524
6673363 416 17837220273871683822
6695519 79 18055649544615225187
6703917 75 18265913513225736804
9658208 31 18125163994761587628

> <PUBCHEM_SHAPE_MULTIPOLES>
593.68
15.62
6.57
1.35
23.6
7.54
-0.06
-7.11
2.9
-14.3
0.67
-0.31
0.33
2.11

> <PUBCHEM_SHAPE_SELFOVERLAP>
1262.83

> <PUBCHEM_SHAPE_VOLUME>
328.4

> <PUBCHEM_COORDINATE_TYPE>
2
5
10

$$$$
