130868
  -OEChem-03292013323D

 62 65  0     1  0  0  0  0  0999 V2000
   -2.8762    1.0420    0.2947 O   0  0  0  0  0  0  0  0  0  0  0  0
   -3.5818   -1.1589    0.6143 O   0  0  0  0  0  0  0  0  0  0  0  0
   -6.7152    2.4598    0.6383 O   0  0  0  0  0  0  0  0  0  0  0  0
   -4.6669    4.1263   -0.5380 O   0  0  0  0  0  0  0  0  0  0  0  0
   -6.2308   -0.3753    0.0001 O   0  0  0  0  0  0  0  0  0  0  0  0
    2.3087   -3.5629    0.2798 O   0  0  0  0  0  0  0  0  0  0  0  0
   -0.7331    2.5673   -0.5036 O   0  0  0  0  0  0  0  0  0  0  0  0
   -0.6691   -3.0188   -2.6393 O   0  0  0  0  0  0  0  0  0  0  0  0
    1.5108   -4.1112   -1.7646 O   0  0  0  0  0  0  0  0  0  0  0  0
    5.7360    3.9260   -0.7105 O   0  0  0  0  0  0  0  0  0  0  0  0
   -5.5788    1.9472   -0.0591 C   0  0  1  0  0  0  0  0  0  0  0  0
   -4.4133    2.9114    0.1627 C   0  0  1  0  0  0  0  0  0  0  0  0
   -5.2480    0.5496    0.4648 C   0  0  2  0  0  0  0  0  0  0  0  0
   -3.1017    2.3026   -0.3387 C   0  0  1  0  0  0  0  0  0  0  0  0
   -3.8788    0.0810   -0.0273 C   0  0  1  0  0  0  0  0  0  0  0  0
   -1.9069    3.1966   -0.0225 C   0  0  0  0  0  0  0  0  0  0  0  0
    2.2028   -2.7486    1.4705 C   0  0  2  0  0  0  0  0  0  0  0  0
    0.8004   -2.8372    2.0579 C   0  0  0  0  0  0  0  0  0  0  0  0
   -0.2112   -2.5522    0.9912 C   0  0  0  0  0  0  0  0  0  0  0  0
    2.6619   -1.3255    1.1623 C   0  0  0  0  0  0  0  0  0  0  0  0
   -2.3864   -1.7359    0.3034 C   0  0  0  0  0  0  0  0  0  0  0  0
    0.0636   -2.9123   -0.3327 C   0  0  0  0  0  0  0  0  0  0  0  0
   -1.4456   -1.9728    1.3058 C   0  0  0  0  0  0  0  0  0  0  0  0
    4.0559   -1.3139    0.5351 C   0  0  0  0  0  0  0  0  0  0  0  0
   -2.1039   -2.0862   -1.0157 C   0  0  0  0  0  0  0  0  0  0  0  0
   -0.8821   -2.6782   -1.3368 C   0  0  0  0  0  0  0  0  0  0  0  0
    1.3443   -3.5716   -0.6784 C   0  0  0  0  0  0  0  0  0  0  0  0
    4.5044    0.0861    0.2025 C   0  0  0  0  0  0  0  0  0  0  0  0
    4.2149    0.6160   -1.0460 C   0  0  0  0  0  0  0  0  0  0  0  0
    5.2002    0.8216    1.1503 C   0  0  0  0  0  0  0  0  0  0  0  0
    4.6308    1.9113   -1.3538 C   0  0  0  0  0  0  0  0  0  0  0  0
    5.6161    2.1170    0.8425 C   0  0  0  0  0  0  0  0  0  0  0  0
    5.3314    2.6619   -0.4096 C   0  0  0  0  0  0  0  0  0  0  0  0
    6.4479    4.6380    0.3004 C   0  0  0  0  0  0  0  0  0  0  0  0
   -5.8595    1.9112   -1.1183 H   0  0  0  0  0  0  0  0  0  0  0  0
   -4.3316    3.1554    1.2296 H   0  0  0  0  0  0  0  0  0  0  0  0
   -5.2825    0.5299    1.5612 H   0  0  0  0  0  0  0  0  0  0  0  0
   -3.1313    2.1480   -1.4259 H   0  0  0  0  0  0  0  0  0  0  0  0
   -3.9170   -0.0723   -1.1139 H   0  0  0  0  0  0  0  0  0  0  0  0
   -1.7893    3.3418    1.0565 H   0  0  0  0  0  0  0  0  0  0  0  0
   -1.9947    4.1754   -0.5027 H   0  0  0  0  0  0  0  0  0  0  0  0
    2.8994   -3.1832    2.1980 H   0  0  0  0  0  0  0  0  0  0  0  0
    0.6155   -3.8538    2.4267 H   0  0  0  0  0  0  0  0  0  0  0  0
    0.6971   -2.1452    2.9013 H   0  0  0  0  0  0  0  0  0  0  0  0
    2.6548   -0.7291    2.0833 H   0  0  0  0  0  0  0  0  0  0  0  0
    1.9656   -0.8381    0.4687 H   0  0  0  0  0  0  0  0  0  0  0  0
   -6.5011    2.4868    1.5864 H   0  0  0  0  0  0  0  0  0  0  0  0
   -5.5145    4.4768   -0.2148 H   0  0  0  0  0  0  0  0  0  0  0  0
   -7.0976   -0.0530    0.3011 H   0  0  0  0  0  0  0  0  0  0  0  0
   -1.6746   -1.7015    2.3335 H   0  0  0  0  0  0  0  0  0  0  0  0
    4.7794   -1.7793    1.2169 H   0  0  0  0  0  0  0  0  0  0  0  0
    4.0809   -1.9175   -0.3807 H   0  0  0  0  0  0  0  0  0  0  0  0
   -2.8449   -1.9216   -1.7940 H   0  0  0  0  0  0  0  0  0  0  0  0
   -0.6686    1.6968   -0.0747 H   0  0  0  0  0  0  0  0  0  0  0  0
    3.6677    0.0403   -1.7871 H   0  0  0  0  0  0  0  0  0  0  0  0
    5.4246    0.4057    2.1285 H   0  0  0  0  0  0  0  0  0  0  0  0
   -1.4450   -2.7725   -3.1714 H   0  0  0  0  0  0  0  0  0  0  0  0
    4.4053    2.3307   -2.3305 H   0  0  0  0  0  0  0  0  0  0  0  0
    6.1551    2.6443    1.6221 H   0  0  0  0  0  0  0  0  0  0  0  0
    7.3971    4.1490    0.5443 H   0  0  0  0  0  0  0  0  0  0  0  0
    5.8273    4.8053    1.1874 H   0  0  0  0  0  0  0  0  0  0  0  0
    6.6921    5.6236   -0.1093 H   0  0  0  0  0  0  0  0  0  0  0  0
  1 14  1  0  0  0  0
  1 15  1  0  0  0  0
  2 15  1  0  0  0  0
  2 21  1  0  0  0  0
  3 11  1  0  0  0  0
  3 47  1  0  0  0  0
  4 12  1  0  0  0  0
  4 48  1  0  0  0  0
  5 13  1  0  0  0  0
  5 49  1  0  0  0  0
  6 17  1  0  0  0  0
  6 27  1  0  0  0  0
  7 16  1  0  0  0  0
  7 54  1  0  0  0  0
  8 26  1  0  0  0  0
  8 57  1  0  0  0  0
  9 27  2  0  0  0  0
 10 33  1  0  0  0  0
 10 34  1  0  0  0  0
 11 12  1  0  0  0  0
 11 13  1  0  0  0  0
 11 35  1  0  0  0  0
 12 14  1  0  0  0  0
 12 36  1  0  0  0  0
 13 15  1  0  0  0  0
 13 37  1  0  0  0  0
 14 16  1  0  0  0  0
 14 38  1  0  0  0  0
 15 39  1  0  0  0  0
 16 40  1  0  0  0  0
 16 41  1  0  0  0  0
 17 18  1  0  0  0  0
 17 20  1  0  0  0  0
 17 42  1  0  0  0  0
 18 19  1  0  0  0  0
 18 43  1  0  0  0  0
 18 44  1  0  0  0  0
 19 22  2  0  0  0  0
 19 23  1  0  0  0  0
 20 24  1  0  0  0  0
 20 45  1  0  0  0  0
 20 46  1  0  0  0  0
 21 23  2  0  0  0  0
 21 25  1  0  0  0  0
 22 26  1  0  0  0  0
 22 27  1  0  0  0  0
 23 50  1  0  0  0  0
 24 28  1  0  0  0  0
 24 51  1  0  0  0  0
 24 52  1  0  0  0  0
 25 26  2  0  0  0  0
 25 53  1  0  0  0  0
 28 29  2  0  0  0  0
 28 30  1  0  0  0  0
 29 31  1  0  0  0  0
 29 55  1  0  0  0  0
 30 32  2  0  0  0  0
 30 56  1  0  0  0  0
 31 33  2  0  0  0  0
 31 58  1  0  0  0  0
 32 33  1  0  0  0  0
 32 59  1  0  0  0  0
 34 60  1  0  0  0  0
 34 61  1  0  0  0  0
 34 62  1  0  0  0  0
M  END
> <PUBCHEM_COMPOUND_CID>
130868

> <PUBCHEM_CONFORMER_RMSD>
1

> <PUBCHEM_CONFORMER_DIVERSEORDER>
1
111
203
46
19
360
209
234
214
315
246
278
57
40
231
42
96
262
11
232
27
202
141
321
83
66
258
208
270
189
273
357
147
105
316
168
149
237
49
230
20
338
342
256
163
257
250
88
179
70
43
134
251
228
45
74
335
301
329
103
144
156
4
148
221
64
146
216
196
249
322
235
22
325
347
304
288
280
5
227
95
265
285
349
130
18
87
332
52
129
201
358
200
136
217
354
286
125
294
80
300
47
314
333
362
336
295
82
110
205
263
356
292
215
117
107
293
192
281
303
13
133
10
219
186
218
60
350
123
152
229
252
78
118
224
207
35
39
212
166
287
328
364
312
206
198
79
359
330
173
240
44
121
114
89
138
16
305
363
9
29
241
324
150
157
24
351
174
63
299
109
153
53
326
101
254
48
36
193
184
264
185
37
267
181
197
306
182
242
345
339
31
131
160
233
272
245
213
76
94
243
176
7
137
307
211
308
142
320
139
255
282
38
344
93
169
54
248
2
33
56
220
222
30
291
279
67
334
239
6
260
244
311
313
161
14
59
175
204
91
283
346
223
61
171
259
341
140
165
112
178
236
309
34
8
276
135
302
348
72
180
226
199
158
68
102
343
17
167
41
340
145
331
177
90
269
3
310
113
277
170
55
97
190
86
77
119
12
99
124
187
191
238
28
58
65
162
21
62
122
25
143
268
151
284
85
15
71
128
23
81
188
127
317
69
26
154
32
319
361
51
318
115
274
164
290
289
73
327
261
323
195
225
116
155
297
275
98
253
120
106
172
108
353
194
84
337
126
183
352
266
92
132
210
50
104
100
247
298
159
75
355
271
296

> <PUBCHEM_MMFF94_PARTIAL_CHARGES>
44
1 -0.56
10 -0.36
11 0.28
12 0.28
13 0.28
14 0.28
15 0.56
16 0.28
17 0.28
18 0.14
19 -0.14
2 -0.36
21 0.08
22 0.09
23 -0.15
24 0.14
25 -0.15
26 0.08
27 0.63
28 -0.14
29 -0.15
3 -0.68
30 -0.15
31 -0.15
32 -0.15
33 0.08
34 0.28
4 -0.68
47 0.4
48 0.4
49 0.4
5 -0.68
50 0.15
53 0.15
54 0.4
55 0.15
56 0.15
57 0.45
58 0.15
59 0.15
6 -0.43
7 -0.68
8 -0.53
9 -0.57

> <PUBCHEM_EFFECTIVE_ROTOR_COUNT>
8.8

> <PUBCHEM_PHARMACOPHORE_FEATURES>
17
1 1 acceptor
1 10 acceptor
1 2 acceptor
1 3 acceptor
1 3 donor
1 4 acceptor
1 4 donor
1 5 acceptor
1 5 donor
1 7 acceptor
1 7 donor
1 8 donor
1 9 acceptor
6 1 11 12 13 14 15 rings
6 19 21 22 23 25 26 rings
6 28 29 30 31 32 33 rings
6 6 17 18 19 22 27 rings

> <PUBCHEM_HEAVY_ATOM_COUNT>
34

> <PUBCHEM_ATOM_DEF_STEREO_COUNT>
6

> <PUBCHEM_ATOM_UDEF_STEREO_COUNT>
0

> <PUBCHEM_BOND_DEF_STEREO_COUNT>
0

> <PUBCHEM_BOND_UDEF_STEREO_COUNT>
0

> <PUBCHEM_ISOTOPIC_ATOM_COUNT>
0

> <PUBCHEM_COMPONENT_COUNT>
1

> <PUBCHEM_CACTVS_TAUTO_COUNT>
13

> <PUBCHEM_CONFORMER_ID>
0001FF3400000001

> <PUBCHEM_MMFF94_ENERGY>
114.9861

> <PUBCHEM_FEATURE_SELFOVERLAP>
86.366

> <PUBCHEM_SHAPE_FINGERPRINT>
10673678 19 18341614780742832835
10864689 126 18340775927061146844
10871710 139 18269268148111587198
10939801 23 18191872438354134556
1361 2 18260270741614701392
13617811 41 18262225716634172797
14114211 80 18131081436880907531
14251764 38 18122065304051888681
14251764 75 18411986857656986416
14394314 77 18409172121366144793
14429114 114 18408321103027743160
14739800 52 18188209797401822115
14790565 3 18408885148334656656
14849402 71 18115867404604898594
15001296 14 18333730208777534864
15142526 21 18113618971370229883
15198563 99 17695624439257131871
15320291 9 17906443338557226216
15575132 122 18341334499661424659
15961568 22 18336547097495954781
15979999 66 17767413375065243094
16988056 13 17909271274195178710
20764821 26 18197188504159785960
21223535 225 18411416233561767254
21365058 113 17553215302380025646
21792938 324 17758929582368813898
22122407 14 18260552199384611098
23559900 14 17837773327116881607
245318 6 17968393298204030404
2838139 119 18411133602289930711
3298306 158 18412543184717771289
3388396 114 16611944808526996196
3411729 13 18337112263599935011
44249763 50 17701249481189563536
508180 173 18195833794751031854
5219985 13 18341049709312885314
5265222 85 18267868461388714689
53794403 172 18266744571383394357
550186 72 18409445912856885277
57527293 21 18200882790843092067
5776283 40 18267326287103733982
6036956 94 17396424278729316380
6176135 31 18336540543450578320
6201320 77 12821594899808972221
6608658 132 18124306374942816974
7288768 16 17749389334000065042

> <PUBCHEM_SHAPE_MULTIPOLES>
641.01
15.3
6.78
1.5
2.26
1.72
-0.33
22.82
1.29
2.94
-1.08
0.76
-1.57
-0.89

> <PUBCHEM_SHAPE_SELFOVERLAP>
1379.048

> <PUBCHEM_SHAPE_VOLUME>
350

> <PUBCHEM_COORDINATE_TYPE>
2
5
10

$$$$
