130816
  -OEChem-03292013323D

 51 50  0     1  0  0  0  0  0999 V2000
   -1.3368   -0.5192   -1.4563 O   0  0  0  0  0  0  0  0  0  0  0  0
    0.8955   -0.1694    1.8184 O   0  0  0  0  0  0  0  0  0  0  0  0
    4.7302    0.7177   -0.7217 O   0  0  0  0  0  0  0  0  0  0  0  0
    5.7273   -0.9964    0.3554 O   0  0  0  0  0  0  0  0  0  0  0  0
   -0.5839    4.8719    0.6431 O   0  0  0  0  0  0  0  0  0  0  0  0
   -0.8635    3.6275   -1.2379 O   0  0  0  0  0  0  0  0  0  0  0  0
    2.3051    0.0740   -0.0094 N   0  0  0  0  0  0  0  0  0  0  0  0
   -1.1080    0.9675    0.3122 N   0  0  0  0  0  0  0  0  0  0  0  0
   -4.0151    0.9089   -0.6268 N   0  0  0  0  0  0  0  0  0  0  0  0
   -3.7863   -1.5315   -0.4059 C   0  0  0  0  0  0  0  0  0  0  0  0
   -5.2193   -1.8175    0.0925 C   0  0  0  0  0  0  0  0  0  0  0  0
   -3.2315   -0.1573    0.0027 C   0  0  1  0  0  0  0  0  0  0  0  0
    3.3015   -0.8830    0.4117 C   0  0  1  0  0  0  0  0  0  0  0  0
    2.9285   -2.2954   -0.0876 C   0  0  0  0  0  0  0  0  0  0  0  0
    0.2581    1.3574    0.0479 C   0  0  2  0  0  0  0  0  0  0  0  0
   -1.7974    0.0528   -0.4700 C   0  0  0  0  0  0  0  0  0  0  0  0
    1.1710    0.3532    0.7403 C   0  0  0  0  0  0  0  0  0  0  0  0
    0.5495    2.7766    0.5283 C   0  0  0  0  0  0  0  0  0  0  0  0
   -5.7268   -3.1935   -0.3409 C   0  0  0  0  0  0  0  0  0  0  0  0
   -5.2655   -1.7084    1.6192 C   0  0  0  0  0  0  0  0  0  0  0  0
    3.8269   -3.3788    0.5154 C   0  0  0  0  0  0  0  0  0  0  0  0
    2.9117   -2.4108   -1.6149 C   0  0  0  0  0  0  0  0  0  0  0  0
    4.7004   -0.4223    0.0116 C   0  0  0  0  0  0  0  0  0  0  0  0
   -0.3716    3.7762   -0.1269 C   0  0  0  0  0  0  0  0  0  0  0  0
   -3.7691   -1.6296   -1.5002 H   0  0  0  0  0  0  0  0  0  0  0  0
   -3.1094   -2.3108   -0.0298 H   0  0  0  0  0  0  0  0  0  0  0  0
   -5.9094   -1.0770   -0.3285 H   0  0  0  0  0  0  0  0  0  0  0  0
   -3.2510   -0.0422    1.0909 H   0  0  0  0  0  0  0  0  0  0  0  0
    3.2971   -0.8815    1.5097 H   0  0  0  0  0  0  0  0  0  0  0  0
    1.9068   -2.5088    0.2572 H   0  0  0  0  0  0  0  0  0  0  0  0
    0.4139    1.2955   -1.0367 H   0  0  0  0  0  0  0  0  0  0  0  0
    2.4458    0.5492   -0.8963 H   0  0  0  0  0  0  0  0  0  0  0  0
   -1.5582    1.3462    1.1406 H   0  0  0  0  0  0  0  0  0  0  0  0
    0.4087    2.8342    1.6149 H   0  0  0  0  0  0  0  0  0  0  0  0
    1.5835    3.0621    0.3068 H   0  0  0  0  0  0  0  0  0  0  0  0
   -5.7160   -3.2815   -1.4324 H   0  0  0  0  0  0  0  0  0  0  0  0
   -6.7550   -3.3573   -0.0015 H   0  0  0  0  0  0  0  0  0  0  0  0
   -5.1012   -3.9935    0.0692 H   0  0  0  0  0  0  0  0  0  0  0  0
   -6.2389   -2.0381    1.9995 H   0  0  0  0  0  0  0  0  0  0  0  0
   -5.1341   -0.6765    1.9575 H   0  0  0  0  0  0  0  0  0  0  0  0
   -4.4965   -2.3305    2.0897 H   0  0  0  0  0  0  0  0  0  0  0  0
    3.4192   -4.3727    0.2993 H   0  0  0  0  0  0  0  0  0  0  0  0
    3.8894   -3.2769    1.6037 H   0  0  0  0  0  0  0  0  0  0  0  0
    4.8404   -3.3492    0.1045 H   0  0  0  0  0  0  0  0  0  0  0  0
    3.9019   -2.2215   -2.0422 H   0  0  0  0  0  0  0  0  0  0  0  0
    2.6023   -3.4160   -1.9215 H   0  0  0  0  0  0  0  0  0  0  0  0
    2.2072   -1.7012   -2.0603 H   0  0  0  0  0  0  0  0  0  0  0  0
   -4.9756    0.8786   -0.2889 H   0  0  0  0  0  0  0  0  0  0  0  0
   -3.6507    1.8158   -0.3353 H   0  0  0  0  0  0  0  0  0  0  0  0
    5.6473    0.9905   -0.9377 H   0  0  0  0  0  0  0  0  0  0  0  0
   -1.1775    5.5182    0.2048 H   0  0  0  0  0  0  0  0  0  0  0  0
  1 16  2  0  0  0  0
  2 17  2  0  0  0  0
  3 23  1  0  0  0  0
  3 50  1  0  0  0  0
  4 23  2  0  0  0  0
  5 24  1  0  0  0  0
  5 51  1  0  0  0  0
  6 24  2  0  0  0  0
  7 13  1  0  0  0  0
  7 17  1  0  0  0  0
  7 32  1  0  0  0  0
  8 15  1  0  0  0  0
  8 16  1  0  0  0  0
  8 33  1  0  0  0  0
  9 12  1  0  0  0  0
  9 48  1  0  0  0  0
  9 49  1  0  0  0  0
 10 11  1  0  0  0  0
 10 12  1  0  0  0  0
 10 25  1  0  0  0  0
 10 26  1  0  0  0  0
 11 19  1  0  0  0  0
 11 20  1  0  0  0  0
 11 27  1  0  0  0  0
 12 16  1  0  0  0  0
 12 28  1  0  0  0  0
 13 14  1  0  0  0  0
 13 23  1  0  0  0  0
 13 29  1  0  0  0  0
 14 21  1  0  0  0  0
 14 22  1  0  0  0  0
 14 30  1  0  0  0  0
 15 17  1  0  0  0  0
 15 18  1  0  0  0  0
 15 31  1  0  0  0  0
 18 24  1  0  0  0  0
 18 34  1  0  0  0  0
 18 35  1  0  0  0  0
 19 36  1  0  0  0  0
 19 37  1  0  0  0  0
 19 38  1  0  0  0  0
 20 39  1  0  0  0  0
 20 40  1  0  0  0  0
 20 41  1  0  0  0  0
 21 42  1  0  0  0  0
 21 43  1  0  0  0  0
 21 44  1  0  0  0  0
 22 45  1  0  0  0  0
 22 46  1  0  0  0  0
 22 47  1  0  0  0  0
M  END
> <PUBCHEM_COMPOUND_CID>
130816

> <PUBCHEM_CONFORMER_RMSD>
1

> <PUBCHEM_CONFORMER_DIVERSEORDER>
1
50
55
54
48
10
27
3
66
63
34
39
65
6
79
9
23
13
57
49
73
31
85
76
20
89
64
15
68
19
47
84
28
71
86
4
38
88
69
14
78
44
37
30
70
82
35
59
29
80
41
72
87
52
33
8
56
58
24
83
7
53
81
75
60
61
12
67
16
26
11
74
46
62
5
18
51
77
2
25
17
21
32
22
45
42
43
40
36

> <PUBCHEM_MMFF94_PARTIAL_CHARGES>
23
1 -0.57
12 0.33
13 0.36
15 0.36
16 0.57
17 0.57
18 0.06
2 -0.57
23 0.66
24 0.66
3 -0.65
32 0.37
33 0.37
4 -0.57
48 0.36
49 0.36
5 -0.65
50 0.5
51 0.5
6 -0.57
7 -0.73
8 -0.73
9 -0.99

> <PUBCHEM_EFFECTIVE_ROTOR_COUNT>
12

> <PUBCHEM_PHARMACOPHORE_FEATURES>
14
1 1 acceptor
1 2 acceptor
1 3 acceptor
1 4 acceptor
1 5 acceptor
1 6 acceptor
1 7 donor
1 8 donor
1 9 cation
1 9 donor
3 11 19 20 hydrophobe
3 14 21 22 hydrophobe
3 3 4 23 anion
3 5 6 24 anion

> <PUBCHEM_HEAVY_ATOM_COUNT>
24

> <PUBCHEM_ATOM_DEF_STEREO_COUNT>
3

> <PUBCHEM_ATOM_UDEF_STEREO_COUNT>
0

> <PUBCHEM_BOND_DEF_STEREO_COUNT>
0

> <PUBCHEM_BOND_UDEF_STEREO_COUNT>
0

> <PUBCHEM_ISOTOPIC_ATOM_COUNT>
0

> <PUBCHEM_COMPONENT_COUNT>
1

> <PUBCHEM_CACTVS_TAUTO_COUNT>
4

> <PUBCHEM_CONFORMER_ID>
0001FF0000000001

> <PUBCHEM_MMFF94_ENERGY>
37.8706

> <PUBCHEM_FEATURE_SELFOVERLAP>
71.169

> <PUBCHEM_SHAPE_FINGERPRINT>
11045515 52 18259703380618883053
12107183 9 18342471331330596619
12553582 1 18270103712692719766
12596602 18 16916790742204434011
12633257 1 15482664715040298115
12788726 201 18263358105871771944
13103583 49 17703520956137876411
13533116 47 17982170325826230843
13955234 65 17980201112973751401
14251757 5 18191014604704610757
14363568 33 18267303325291313877
15537594 2 18202562903763657198
15664445 248 18127432217976137036
15927050 60 17405430391520205476
17492 89 18265893550069804714
1813 80 18342751731637029023
20286276 3 18052542063252909814
20645477 70 18046894155567792431
21049683 271 18117846713901377076
22849339 104 17621618115513943606
22950370 63 18410577283929187595
23557571 272 18127967500056081520
23558518 356 18118413834747453760
23566358 27 17977663444299890727
23598288 3 18053932966625302518
25222932 49 18339073890923329766
314173 41 18339365278599611031
314194 84 18336270153641637331
329604 57 18261112993306510578
3421961 26 18340203119602925449
5309563 4 18412261761285793422
53777708 50 18192998106754041120
7164475 11 18263926540841529004
7399639 24 18271225185089771136
9709674 26 17839738167354433382

> <PUBCHEM_SHAPE_MULTIPOLES>
443.75
11.78
4.98
1.19
5.42
5.37
-0.04
-13.85
-0.71
0.63
0.19
0.24
-0.27
0.42

> <PUBCHEM_SHAPE_SELFOVERLAP>
865.689

> <PUBCHEM_SHAPE_VOLUME>
266.1

> <PUBCHEM_COORDINATE_TYPE>
2
5
10

$$$$
