130859
  -OEChem-03292013323D

 33 35  0     0  0  0  0  0  0999 V2000
    1.3353   -2.1098   -0.4524 O   0  0  0  0  0  0  0  0  0  0  0  0
   -2.9172    2.2271    0.3523 O   0  0  0  0  0  0  0  0  0  0  0  0
    1.0357    0.2216   -0.4047 N   0  0  0  0  0  0  0  0  0  0  0  0
   -2.6283   -0.0715    0.3161 N   0  0  0  0  0  0  0  0  0  0  0  0
    2.8999    1.7152    0.0156 N   0  0  0  0  0  0  0  0  0  0  0  0
    4.2099   -1.5504    0.1170 N   0  0  0  0  0  0  0  0  0  0  0  0
    5.0274    0.5074    0.3635 N   0  0  0  0  0  0  0  0  0  0  0  0
    0.8091    2.6256   -0.3379 N   0  0  0  0  0  0  0  0  0  0  0  0
   -2.4832   -2.5091    0.2490 N   0  0  0  0  0  0  0  0  0  0  0  0
   -4.7748    0.9998   -0.0576 N   0  0  0  0  0  0  0  0  0  0  0  0
   -0.3972    0.1330   -0.6807 C   0  0  0  0  0  0  0  0  0  0  0  0
   -1.2213    0.0360    0.5922 C   0  0  0  0  0  0  0  0  0  0  0  0
    1.7822   -0.9750   -0.3169 C   0  0  0  0  0  0  0  0  0  0  0  0
    3.1557   -0.6982   -0.0446 C   0  0  0  0  0  0  0  0  0  0  0  0
    1.6214    1.5168   -0.2350 C   0  0  0  0  0  0  0  0  0  0  0  0
    3.6818    0.5582    0.1113 C   0  0  0  0  0  0  0  0  0  0  0  0
   -3.2172   -1.3491    0.1518 C   0  0  0  0  0  0  0  0  0  0  0  0
   -3.4232    1.1121    0.2091 C   0  0  0  0  0  0  0  0  0  0  0  0
   -4.5332   -1.4347   -0.1069 C   0  0  0  0  0  0  0  0  0  0  0  0
    5.3147   -0.7776    0.3607 C   0  0  0  0  0  0  0  0  0  0  0  0
   -5.2776   -0.1774   -0.2019 C   0  0  0  0  0  0  0  0  0  0  0  0
   -0.7301    0.9564   -1.3198 H   0  0  0  0  0  0  0  0  0  0  0  0
   -0.5671   -0.7700   -1.2810 H   0  0  0  0  0  0  0  0  0  0  0  0
   -0.8821   -0.7803    1.2398 H   0  0  0  0  0  0  0  0  0  0  0  0
   -1.0527    0.9405    1.1903 H   0  0  0  0  0  0  0  0  0  0  0  0
    4.1837   -2.5603    0.0669 H   0  0  0  0  0  0  0  0  0  0  0  0
   -5.0632   -2.3684   -0.2462 H   0  0  0  0  0  0  0  0  0  0  0  0
    6.2906   -1.2113    0.5260 H   0  0  0  0  0  0  0  0  0  0  0  0
    1.2070    3.5532   -0.2316 H   0  0  0  0  0  0  0  0  0  0  0  0
   -0.1969    2.5878   -0.4376 H   0  0  0  0  0  0  0  0  0  0  0  0
   -6.3537   -0.2797   -0.4148 H   0  0  0  0  0  0  0  0  0  0  0  0
   -2.9405   -3.4033    0.1169 H   0  0  0  0  0  0  0  0  0  0  0  0
   -1.4774   -2.4791    0.3381 H   0  0  0  0  0  0  0  0  0  0  0  0
  1 13  2  0  0  0  0
  2 18  2  0  0  0  0
  3 11  1  0  0  0  0
  3 13  1  0  0  0  0
  3 15  1  0  0  0  0
  4 12  1  0  0  0  0
  4 17  1  0  0  0  0
  4 18  1  0  0  0  0
  5 15  2  0  0  0  0
  5 16  1  0  0  0  0
  6 14  1  0  0  0  0
  6 20  1  0  0  0  0
  6 26  1  0  0  0  0
  7 16  1  0  0  0  0
  7 20  2  0  0  0  0
  8 15  1  0  0  0  0
  8 29  1  0  0  0  0
  8 30  1  0  0  0  0
  9 17  1  0  0  0  0
  9 32  1  0  0  0  0
  9 33  1  0  0  0  0
 10 18  1  0  0  0  0
 10 21  2  0  0  0  0
 11 12  1  0  0  0  0
 11 22  1  0  0  0  0
 11 23  1  0  0  0  0
 12 24  1  0  0  0  0
 12 25  1  0  0  0  0
 13 14  1  0  0  0  0
 14 16  2  0  0  0  0
 17 19  2  0  0  0  0
 19 21  1  0  0  0  0
 19 27  1  0  0  0  0
 20 28  1  0  0  0  0
 21 31  1  0  0  0  0
M  END
> <PUBCHEM_COMPOUND_CID>
130859

> <PUBCHEM_CONFORMER_RMSD>
0.6

> <PUBCHEM_CONFORMER_DIVERSEORDER>
1
17
12
14
16
6
4
3
13
11
15
2
7
9
5
10
8

> <PUBCHEM_MMFF94_PARTIAL_CHARGES>
29
1 -0.57
10 -0.66
11 0.3
12 0.3
13 0.71
14 -0.24
15 0.56
16 0.35
17 0.21
18 0.84
19 -0.14
2 -0.57
20 0.04
21 0.38
26 0.27
27 0.15
28 0.15
29 0.4
3 -0.42
30 0.4
31 0.06
32 0.4
33 0.4
4 -0.47
5 -0.57
6 0.03
7 -0.57
8 -0.85
9 -0.9

> <PUBCHEM_EFFECTIVE_ROTOR_COUNT>
3

> <PUBCHEM_PHARMACOPHORE_FEATURES>
12
1 1 acceptor
1 10 acceptor
1 10 donor
1 2 acceptor
1 6 donor
1 8 donor
1 9 cation
1 9 donor
3 6 7 20 cation
5 6 7 14 16 20 rings
6 3 5 13 14 15 16 rings
6 4 10 17 18 19 21 rings

> <PUBCHEM_HEAVY_ATOM_COUNT>
21

> <PUBCHEM_ATOM_DEF_STEREO_COUNT>
0

> <PUBCHEM_ATOM_UDEF_STEREO_COUNT>
0

> <PUBCHEM_BOND_DEF_STEREO_COUNT>
0

> <PUBCHEM_BOND_UDEF_STEREO_COUNT>
0

> <PUBCHEM_ISOTOPIC_ATOM_COUNT>
0

> <PUBCHEM_COMPONENT_COUNT>
1

> <PUBCHEM_CACTVS_TAUTO_COUNT>
32

> <PUBCHEM_CONFORMER_ID>
0001FF2B00000001

> <PUBCHEM_MMFF94_ENERGY>
52.8452

> <PUBCHEM_FEATURE_SELFOVERLAP>
61.083

> <PUBCHEM_SHAPE_FINGERPRINT>
10616163 171 18340490066373726591
11370993 70 18412262835365669159
12107183 9 17689997838629592579
12236239 1 17847059991029104614
12507557 5 18410855477561485505
12633257 1 18339934744403321369
13167823 11 18409165532352705291
13675066 3 17989202655619257068
14341114 176 18410579499926382552
14790565 3 17470172922009414268
15196674 1 18410575110453988200
15256400 18 18411982442372037782
15352361 1 18410292514623013401
15788980 27 18259989274958107427
17349148 13 18343299271253105681
17492 89 18118687853339789443
17834072 33 18408887364632655420
1813 80 17167865249014400580
19489759 90 18272930505706061467
200 152 18202280316758895503
21033648 29 17203030903266355176
21267235 1 18410865360064936199
21421861 104 17607805002674053458
21709351 56 18410287025517399797
221490 88 18190749828006482259
23402539 116 18413383233819923285
23559900 14 18339917212325668273
26918003 58 18412824694122681571
335352 9 18409449172377840973
351380 180 18411135848768329427
3545911 37 18411983550943144013
4214541 1 18410292497659220665
5104073 3 18411421747513935033
559249 180 18335134254997993723
67856867 119 18338234997805105429
9709674 26 18412834594429032975
9971528 1 18040151842470276660
9981440 41 17252590586814863569

> <PUBCHEM_SHAPE_MULTIPOLES>
380.58
11.63
2.28
0.68
0.48
0.27
0.01
-1.79
-0.99
0.49
0.04
0
-0.01
-0.11

> <PUBCHEM_SHAPE_SELFOVERLAP>
830.207

> <PUBCHEM_SHAPE_VOLUME>
200.4

> <PUBCHEM_COORDINATE_TYPE>
2
5
10

$$$$
