130834
  -OEChem-03292013323D

 39 39  0     1  0  0  0  0  0999 V2000
    0.1299   -0.0706   -1.8247 S   0  0  0  0  0  0  0  0  0  0  0  0
    1.2839    3.7552    1.3877 O   0  0  0  0  0  0  0  0  0  0  0  0
   -4.6637    0.1821   -0.2626 O   0  0  0  0  0  0  0  0  0  0  0  0
   -3.6770    2.2122   -0.0489 O   0  0  0  0  0  0  0  0  0  0  0  0
   -2.4656   -1.5653    1.8517 O   0  0  0  0  0  0  0  0  0  0  0  0
   -2.4466   -1.1597   -0.4409 N   0  0  0  0  0  0  0  0  0  0  0  0
    0.8991    0.3681   -0.2506 C   0  0  2  0  0  0  0  0  0  0  0  0
    0.8481    1.8947   -0.0613 C   0  0  0  0  0  0  0  0  0  0  0  0
    2.2885   -0.2313   -0.1624 C   0  0  0  0  0  0  0  0  0  0  0  0
   -1.4600    0.7889   -1.5821 C   0  0  0  0  0  0  0  0  0  0  0  0
   -2.2661    0.2697   -0.3889 C   0  0  1  0  0  0  0  0  0  0  0  0
    1.3892    2.3400    1.2958 C   0  0  0  0  0  0  0  0  0  0  0  0
    2.4349   -1.5256    0.3021 C   0  0  0  0  0  0  0  0  0  0  0  0
    3.3763    0.5303   -0.5490 C   0  0  0  0  0  0  0  0  0  0  0  0
   -3.5868    1.0025   -0.2204 C   0  0  0  0  0  0  0  0  0  0  0  0
    3.7134   -2.0775    0.3831 C   0  0  0  0  0  0  0  0  0  0  0  0
    4.6547   -0.0218   -0.4681 C   0  0  0  0  0  0  0  0  0  0  0  0
    4.8232   -1.3257   -0.0020 C   0  0  0  0  0  0  0  0  0  0  0  0
   -2.5312   -1.9574    0.6896 C   0  0  0  0  0  0  0  0  0  0  0  0
   -2.7443   -3.4086    0.3519 C   0  0  0  0  0  0  0  0  0  0  0  0
    0.3171   -0.0875    0.5588 H   0  0  0  0  0  0  0  0  0  0  0  0
    1.3547    2.4392   -0.8681 H   0  0  0  0  0  0  0  0  0  0  0  0
   -0.1758    2.2756   -0.0668 H   0  0  0  0  0  0  0  0  0  0  0  0
   -2.0355    0.5744   -2.4926 H   0  0  0  0  0  0  0  0  0  0  0  0
   -1.3543    1.8769   -1.5946 H   0  0  0  0  0  0  0  0  0  0  0  0
   -1.7397    0.4899    0.5469 H   0  0  0  0  0  0  0  0  0  0  0  0
    0.7991    1.9052    2.1089 H   0  0  0  0  0  0  0  0  0  0  0  0
    2.4363    2.0743    1.4565 H   0  0  0  0  0  0  0  0  0  0  0  0
    1.5774   -2.1202    0.6037 H   0  0  0  0  0  0  0  0  0  0  0  0
    3.2879    1.5376   -0.9394 H   0  0  0  0  0  0  0  0  0  0  0  0
   -2.5886   -1.5865   -1.3520 H   0  0  0  0  0  0  0  0  0  0  0  0
    3.8446   -3.0929    0.7454 H   0  0  0  0  0  0  0  0  0  0  0  0
    5.5190    0.5611   -0.7732 H   0  0  0  0  0  0  0  0  0  0  0  0
    5.8185   -1.7559    0.0596 H   0  0  0  0  0  0  0  0  0  0  0  0
    1.8371    4.1363    0.6846 H   0  0  0  0  0  0  0  0  0  0  0  0
   -2.5516   -4.0239    1.2351 H   0  0  0  0  0  0  0  0  0  0  0  0
   -3.7771   -3.5578    0.0258 H   0  0  0  0  0  0  0  0  0  0  0  0
   -2.0618   -3.7186   -0.4448 H   0  0  0  0  0  0  0  0  0  0  0  0
   -5.5043    0.6738   -0.1447 H   0  0  0  0  0  0  0  0  0  0  0  0
  1  7  1  0  0  0  0
  1 10  1  0  0  0  0
  2 12  1  0  0  0  0
  2 35  1  0  0  0  0
  3 15  1  0  0  0  0
  3 39  1  0  0  0  0
  4 15  2  0  0  0  0
  5 19  2  0  0  0  0
  6 11  1  0  0  0  0
  6 19  1  0  0  0  0
  6 31  1  0  0  0  0
  7  8  1  0  0  0  0
  7  9  1  0  0  0  0
  7 21  1  0  0  0  0
  8 12  1  0  0  0  0
  8 22  1  0  0  0  0
  8 23  1  0  0  0  0
  9 13  2  0  0  0  0
  9 14  1  0  0  0  0
 10 11  1  0  0  0  0
 10 24  1  0  0  0  0
 10 25  1  0  0  0  0
 11 15  1  0  0  0  0
 11 26  1  0  0  0  0
 12 27  1  0  0  0  0
 12 28  1  0  0  0  0
 13 16  1  0  0  0  0
 13 29  1  0  0  0  0
 14 17  2  0  0  0  0
 14 30  1  0  0  0  0
 16 18  2  0  0  0  0
 16 32  1  0  0  0  0
 17 18  1  0  0  0  0
 17 33  1  0  0  0  0
 18 34  1  0  0  0  0
 19 20  1  0  0  0  0
 20 36  1  0  0  0  0
 20 37  1  0  0  0  0
 20 38  1  0  0  0  0
M  END
> <PUBCHEM_COMPOUND_CID>
130834

> <PUBCHEM_CONFORMER_RMSD>
0.8

> <PUBCHEM_CONFORMER_DIVERSEORDER>
8
60
107
117
71
26
157
17
70
137
54
146
45
28
138
27
72
134
142
50
96
80
141
159
82
110
88
79
143
43
102
151
136
133
106
128
23
18
19
109
63
156
69
75
112
118
15
150
61
100
122
30
111
103
152
76
95
87
131
135
37
85
147
48
7
58
116
11
92
97
51
124
99
140
113
47
34
145
78
39
44
55
101
90
120
41
77
139
126
65
114
13
20
144
83
53
24
121
86
158
64
52
31
33
108
57
73
127
66
89
2
29
14
98
35
25
119
123
115
125
56
93
9
68
32
42
16
59
74
84
132
6
10
154
129
105
155
12
4
49
153
62
104
3
38
22
91
67
81
5
21
40
46
148
36
130
94
149
1

> <PUBCHEM_MMFF94_PARTIAL_CHARGES>
27
1 -0.46
10 0.23
11 0.36
12 0.28
13 -0.15
14 -0.15
15 0.66
16 -0.15
17 -0.15
18 -0.15
19 0.57
2 -0.68
20 0.06
29 0.15
3 -0.65
30 0.15
31 0.37
32 0.15
33 0.15
34 0.15
35 0.4
39 0.5
4 -0.57
5 -0.57
6 -0.73
7 0.37
9 -0.14

> <PUBCHEM_EFFECTIVE_ROTOR_COUNT>
9

> <PUBCHEM_PHARMACOPHORE_FEATURES>
9
1 2 acceptor
1 2 donor
1 3 acceptor
1 4 acceptor
1 5 acceptor
1 6 donor
3 3 4 15 anion
4 1 7 8 10 hydrophobe
6 9 13 14 16 17 18 rings

> <PUBCHEM_HEAVY_ATOM_COUNT>
20

> <PUBCHEM_ATOM_DEF_STEREO_COUNT>
1

> <PUBCHEM_ATOM_UDEF_STEREO_COUNT>
1

> <PUBCHEM_BOND_DEF_STEREO_COUNT>
0

> <PUBCHEM_BOND_UDEF_STEREO_COUNT>
0

> <PUBCHEM_ISOTOPIC_ATOM_COUNT>
0

> <PUBCHEM_COMPONENT_COUNT>
1

> <PUBCHEM_CACTVS_TAUTO_COUNT>
2

> <PUBCHEM_CONFORMER_ID>
0001FF1200000008

> <PUBCHEM_MMFF94_ENERGY>
47.7651

> <PUBCHEM_FEATURE_SELFOVERLAP>
45.73

> <PUBCHEM_SHAPE_FINGERPRINT>
10366900 7 18337101358429934095
10616163 171 18334017206855698534
11552529 35 18410292557504361639
12293681 4 18343026544982722769
12403259 327 18412832378130293861
12500047 106 18334009480451502629
12506688 2 18408887334810444870
12507560 18 18266456503980135129
12633257 1 18057908964001599179
12788726 201 17982165626556463616
13533116 47 18268143335501000263
13583140 156 18200030797061381972
14115302 16 18187936044659810492
14223421 5 18123466348037538049
14251745 187 17822008756804223250
14251757 5 18337113354316153288
14466204 15 18052540972278924129
15238133 3 18269847431883670508
15295992 7 18342184379848849953
17804303 29 18408326592354136935
19141452 34 18186240610820526919
192875 21 13542449982332892803
20281475 54 18187082875408372406
20600515 1 18337964376331876852
20681677 274 18268989976243769091
20681677 76 18198335363395905437
21033648 29 18114444688082352685
23559900 14 18262794211173556533
238078 22 18335992991149474734
3084891 72 18124591981677565729
4921388 177 16660656179808313179
5104073 3 18259700108438690698
633830 44 14490477478187317046
81228 2 17700146395779894368
9709674 26 18268137842042623545

> <PUBCHEM_SHAPE_MULTIPOLES>
386.98
8.76
3.33
1.33
1.56
0.33
-0.05
-2.93
0.05
-1.08
1.79
-0.29
0.37
0.95

> <PUBCHEM_SHAPE_SELFOVERLAP>
768.19

> <PUBCHEM_SHAPE_VOLUME>
229.3

> <PUBCHEM_COORDINATE_TYPE>
2
5
10

$$$$
