130849
  -OEChem-03292013323D

 59 63  0     0  0  0  0  0  0999 V2000
   -5.7578   -1.6283    0.7770 O   0  0  0  0  0  0  0  0  0  0  0  0
   -3.2349    0.5951   -0.5389 O   0  0  0  0  0  0  0  0  0  0  0  0
    3.2797    0.1592   -1.1597 N   0  0  0  0  0  0  0  0  0  0  0  0
    7.1502   -0.2568    0.3944 N   0  0  0  0  0  0  0  0  0  0  0  0
   -8.5202   -0.9885    0.0880 N   0  0  0  0  0  0  0  0  0  0  0  0
   -1.7558    0.3343    1.2734 N   0  0  0  0  0  0  0  0  0  0  0  0
   -5.3986    0.6241    1.0590 N   0  0  0  0  0  0  0  0  0  0  0  0
   -9.8604    1.7014   -1.7617 N   0  0  0  0  0  0  0  0  0  0  0  0
    4.5923    0.0182   -0.6327 C   0  0  0  0  0  0  0  0  0  0  0  0
    5.1428   -1.2578   -0.4757 C   0  0  0  0  0  0  0  0  0  0  0  0
    5.3220    1.1566   -0.2756 C   0  0  0  0  0  0  0  0  0  0  0  0
    6.4430   -1.3500    0.0490 C   0  0  0  0  0  0  0  0  0  0  0  0
    6.6153    0.9699    0.2411 C   0  0  0  0  0  0  0  0  0  0  0  0
    2.0188    0.2030   -0.5506 C   0  0  0  0  0  0  0  0  0  0  0  0
    4.4320   -2.4190   -0.8260 C   0  0  0  0  0  0  0  0  0  0  0  0
    4.7935    2.4510   -0.4226 C   0  0  0  0  0  0  0  0  0  0  0  0
    6.9965   -2.6177    0.2078 C   0  0  0  0  0  0  0  0  0  0  0  0
    7.3468    2.0995    0.5984 C   0  0  0  0  0  0  0  0  0  0  0  0
   -7.4576   -0.1603    0.0225 C   0  0  0  0  0  0  0  0  0  0  0  0
    5.0080   -3.6746   -0.6575 C   0  0  0  0  0  0  0  0  0  0  0  0
    5.5455    3.5638   -0.0577 C   0  0  0  0  0  0  0  0  0  0  0  0
    0.8639    0.3538   -1.3265 C   0  0  0  0  0  0  0  0  0  0  0  0
    1.9016    0.0961    0.8399 C   0  0  0  0  0  0  0  0  0  0  0  0
   -0.5002    0.2904    0.6666 C   0  0  0  0  0  0  0  0  0  0  0  0
    6.2930   -3.7737   -0.1394 C   0  0  0  0  0  0  0  0  0  0  0  0
    6.8247    3.3872    0.4537 C   0  0  0  0  0  0  0  0  0  0  0  0
   -0.3914    0.3980   -0.7197 C   0  0  0  0  0  0  0  0  0  0  0  0
    0.6462    0.1389    1.4465 C   0  0  0  0  0  0  0  0  0  0  0  0
   -7.7732    0.9622   -0.6663 C   0  0  0  0  0  0  0  0  0  0  0  0
   -9.5650   -0.3983   -0.5742 C   0  0  0  0  0  0  0  0  0  0  0  0
   -9.1280    0.8168   -1.0538 C   0  0  0  0  0  0  0  0  0  0  0  0
   -6.1552   -0.4712    0.6284 C   0  0  0  0  0  0  0  0  0  0  0  0
   -4.1227    0.4774    1.6961 C   0  0  0  0  0  0  0  0  0  0  0  0
   -8.5832   -2.2806    0.7350 C   0  0  0  0  0  0  0  0  0  0  0  0
   -3.0117    0.4800    0.6619 C   0  0  0  0  0  0  0  0  0  0  0  0
    3.2707    0.2450   -2.1718 H   0  0  0  0  0  0  0  0  0  0  0  0
    3.4272   -2.3773   -1.2382 H   0  0  0  0  0  0  0  0  0  0  0  0
    3.7985    2.6252   -0.8238 H   0  0  0  0  0  0  0  0  0  0  0  0
    8.0019   -2.7218    0.6116 H   0  0  0  0  0  0  0  0  0  0  0  0
    8.3517    1.9874    1.0016 H   0  0  0  0  0  0  0  0  0  0  0  0
    4.4576   -4.5698   -0.9299 H   0  0  0  0  0  0  0  0  0  0  0  0
    5.1357    4.5625   -0.1732 H   0  0  0  0  0  0  0  0  0  0  0  0
    0.9342    0.4385   -2.4083 H   0  0  0  0  0  0  0  0  0  0  0  0
    2.7775   -0.0221    1.4726 H   0  0  0  0  0  0  0  0  0  0  0  0
    6.7520   -4.7486   -0.0041 H   0  0  0  0  0  0  0  0  0  0  0  0
    7.4201    4.2488    0.7412 H   0  0  0  0  0  0  0  0  0  0  0  0
   -1.2313    0.5171   -1.3896 H   0  0  0  0  0  0  0  0  0  0  0  0
    0.5763    0.0538    2.5280 H   0  0  0  0  0  0  0  0  0  0  0  0
   -7.1267    1.8007   -0.8876 H   0  0  0  0  0  0  0  0  0  0  0  0
  -10.5275   -0.8873   -0.6508 H   0  0  0  0  0  0  0  0  0  0  0  0
   -3.9859    1.3247    2.3751 H   0  0  0  0  0  0  0  0  0  0  0  0
   -4.0887   -0.4554    2.2679 H   0  0  0  0  0  0  0  0  0  0  0  0
   -1.7497    0.2499    2.2879 H   0  0  0  0  0  0  0  0  0  0  0  0
   -5.7578    1.5658    0.9361 H   0  0  0  0  0  0  0  0  0  0  0  0
   -9.6198   -2.6281    0.7503 H   0  0  0  0  0  0  0  0  0  0  0  0
   -7.9694   -2.9831    0.1662 H   0  0  0  0  0  0  0  0  0  0  0  0
   -8.2225   -2.1798    1.7617 H   0  0  0  0  0  0  0  0  0  0  0  0
  -10.8318    1.5352   -2.0076 H   0  0  0  0  0  0  0  0  0  0  0  0
   -9.4819    2.5849   -2.0897 H   0  0  0  0  0  0  0  0  0  0  0  0
  1 32  2  0  0  0  0
  2 35  2  0  0  0  0
  3  9  1  0  0  0  0
  3 14  1  0  0  0  0
  3 36  1  0  0  0  0
  4 12  2  0  0  0  0
  4 13  1  0  0  0  0
  5 19  1  0  0  0  0
  5 30  1  0  0  0  0
  5 34  1  0  0  0  0
  6 24  1  0  0  0  0
  6 35  1  0  0  0  0
  6 53  1  0  0  0  0
  7 32  1  0  0  0  0
  7 33  1  0  0  0  0
  7 54  1  0  0  0  0
  8 31  1  0  0  0  0
  8 58  1  0  0  0  0
  8 59  1  0  0  0  0
  9 10  2  0  0  0  0
  9 11  1  0  0  0  0
 10 12  1  0  0  0  0
 10 15  1  0  0  0  0
 11 13  1  0  0  0  0
 11 16  2  0  0  0  0
 12 17  1  0  0  0  0
 13 18  2  0  0  0  0
 14 22  2  0  0  0  0
 14 23  1  0  0  0  0
 15 20  2  0  0  0  0
 15 37  1  0  0  0  0
 16 21  1  0  0  0  0
 16 38  1  0  0  0  0
 17 25  2  0  0  0  0
 17 39  1  0  0  0  0
 18 26  1  0  0  0  0
 18 40  1  0  0  0  0
 19 29  2  0  0  0  0
 19 32  1  0  0  0  0
 20 25  1  0  0  0  0
 20 41  1  0  0  0  0
 21 26  2  0  0  0  0
 21 42  1  0  0  0  0
 22 27  1  0  0  0  0
 22 43  1  0  0  0  0
 23 28  2  0  0  0  0
 23 44  1  0  0  0  0
 24 27  2  0  0  0  0
 24 28  1  0  0  0  0
 25 45  1  0  0  0  0
 26 46  1  0  0  0  0
 27 47  1  0  0  0  0
 28 48  1  0  0  0  0
 29 31  1  0  0  0  0
 29 49  1  0  0  0  0
 30 31  2  0  0  0  0
 30 50  1  0  0  0  0
 33 35  1  0  0  0  0
 33 51  1  0  0  0  0
 33 52  1  0  0  0  0
 34 55  1  0  0  0  0
 34 56  1  0  0  0  0
 34 57  1  0  0  0  0
M  END
> <PUBCHEM_COMPOUND_CID>
130849

> <PUBCHEM_CONFORMER_RMSD>
1

> <PUBCHEM_CONFORMER_DIVERSEORDER>
4
39
27
10
21
45
17
1
16
44
22
24
31
5
37
48
14
19
42
46
13
41
33
47
25
28
20
8
23
6
26
3
32
40
30
34
43
38
36
29
12
11
35
18
15
2
9
7

> <PUBCHEM_MMFF94_PARTIAL_CHARGES>
52
1 -0.57
12 0.31
13 0.31
14 0.1
15 -0.15
16 -0.15
17 -0.15
18 -0.15
19 -0.24
2 -0.57
20 -0.15
21 -0.15
22 -0.15
23 -0.15
24 0.12
25 -0.15
26 -0.15
27 -0.15
28 -0.15
29 -0.15
3 -0.6
30 -0.3
31 0.08
32 0.71
33 0.36
34 0.26
35 0.57
36 0.4
37 0.15
38 0.15
39 0.15
4 -0.62
40 0.15
41 0.15
42 0.15
43 0.15
44 0.15
45 0.15
46 0.15
47 0.15
48 0.15
49 0.15
5 0.05
50 0.15
53 0.37
54 0.37
58 0.4
59 0.4
6 -0.55
7 -0.73
8 -0.88
9 0.1

> <PUBCHEM_EFFECTIVE_ROTOR_COUNT>
8

> <PUBCHEM_PHARMACOPHORE_FEATURES>
15
1 1 acceptor
1 2 acceptor
1 3 cation
1 3 donor
1 4 acceptor
1 5 cation
1 6 donor
1 7 donor
1 8 cation
1 8 donor
5 5 19 29 30 31 rings
6 10 12 15 17 20 25 rings
6 11 13 16 18 21 26 rings
6 14 22 23 24 27 28 rings
6 4 9 10 11 12 13 rings

> <PUBCHEM_HEAVY_ATOM_COUNT>
35

> <PUBCHEM_ATOM_DEF_STEREO_COUNT>
0

> <PUBCHEM_ATOM_UDEF_STEREO_COUNT>
0

> <PUBCHEM_BOND_DEF_STEREO_COUNT>
0

> <PUBCHEM_BOND_UDEF_STEREO_COUNT>
0

> <PUBCHEM_ISOTOPIC_ATOM_COUNT>
0

> <PUBCHEM_COMPONENT_COUNT>
1

> <PUBCHEM_CACTVS_TAUTO_COUNT>
8

> <PUBCHEM_CONFORMER_ID>
0001FF2100000004

> <PUBCHEM_MMFF94_ENERGY>
121.785

> <PUBCHEM_FEATURE_SELFOVERLAP>
76.184

> <PUBCHEM_SHAPE_FINGERPRINT>
10162869 55 18344144791864089528
10391435 84 18334576888834607363
10677351 14 18334583442669552366
10951579 204 17024030358856859565
11672396 167 18268429027761776578
12082328 90 18412544293985203253
12133447 93 16805878482347624117
12522641 33 18260270772201192154
12758862 11 18186802483576121905
13533116 47 18337121086037579250
13811026 1 18333449842134378133
14251764 18 16774080674448868089
14294032 229 14996836581644523679
14400156 413 18411414042459805956
150020 25 18259703385409020695
15183329 4 13695592148103958047
15328684 2 16916520142111271675
15419008 91 17967522506849872725
15510794 2 18334859433706391827
15554971 5 17703512112815765497
1577012 14 17774736289761392825
15890870 6 18196658609072038664
15979999 66 17917709137207748953
16120349 18 18341610434278055460
19315958 150 18409452522014760903
20157964 124 18413112775582156136
21344244 78 18059570223688091368
21781055 127 15068619332415111853
22164985 6 18410858772655658279
249057 25 18129678421131197353
3044373 193 18333454261698099548
3633792 109 18334014960977420187
4149490 64 18409445899676656018
4516262 110 18269276923748202764
4625314 4 18335137592757216813
4760202 170 18187637025539060485
4874694 18 18410854395435715466
5219985 9 16917068863349295833
5470011 282 18413670219123519569
9937071 3 18041853912994538075
9962374 69 18411978040912196590

> <PUBCHEM_SHAPE_MULTIPOLES>
678.66
34.45
3.46
1.23
76.66
1.22
0.04
1.16
-4.6
-10.83
-0.26
1.56
-0.18
2.36

> <PUBCHEM_SHAPE_SELFOVERLAP>
1512.223

> <PUBCHEM_SHAPE_VOLUME>
360.8

> <PUBCHEM_COORDINATE_TYPE>
2
5
10

$$$$
