130864
  -OEChem-03292013323D

 30 30  0     0  0  0  0  0  0999 V2000
   -0.2719   -1.6842    1.4802 S   0  0  0  0  0  0  0  0  0  0  0  0
    1.4312   -0.6486    1.9835 S   0  0  0  0  0  0  0  0  0  0  0  0
   -5.8469    0.7864   -0.7286 O   0  0  0  0  0  0  0  0  0  0  0  0
    2.6742    2.8719   -0.2852 O   0  5  0  0  0  0  0  0  0  0  0  0
    1.7054    1.9027    1.4298 O   0  0  0  0  0  0  0  0  0  0  0  0
    2.6239   -1.8460   -0.0627 N   0  0  0  0  0  0  0  0  0  0  0  0
   -7.1455    0.2462   -1.0989 N   0  0  0  0  0  0  0  0  0  0  0  0
    2.3299    1.8434    0.3440 N   0  3  0  0  0  0  0  0  0  0  0  0
   -2.7295   -0.8949    0.5298 C   0  0  0  0  0  0  0  0  0  0  0  0
   -3.6643    0.2293    0.0839 C   0  0  0  0  0  0  0  0  0  0  0  0
   -1.3740   -0.3398    0.9568 C   0  0  0  0  0  0  0  0  0  0  0  0
   -5.0346   -0.3025   -0.3119 C   0  0  0  0  0  0  0  0  0  0  0  0
    2.3176   -0.6239    0.4359 C   0  0  0  0  0  0  0  0  0  0  0  0
    2.6580    0.5679   -0.1916 C   0  0  0  0  0  0  0  0  0  0  0  0
    3.3501    0.5012   -1.3957 C   0  0  0  0  0  0  0  0  0  0  0  0
    3.6795   -0.7377   -1.9342 C   0  0  0  0  0  0  0  0  0  0  0  0
    3.2969   -1.8712   -1.2350 C   0  0  0  0  0  0  0  0  0  0  0  0
   -2.6033   -1.6067   -0.2959 H   0  0  0  0  0  0  0  0  0  0  0  0
   -3.1918   -1.4386    1.3634 H   0  0  0  0  0  0  0  0  0  0  0  0
   -3.7814    0.9676    0.8872 H   0  0  0  0  0  0  0  0  0  0  0  0
   -3.2262    0.7735   -0.7621 H   0  0  0  0  0  0  0  0  0  0  0  0
   -1.5043    0.3596    1.7895 H   0  0  0  0  0  0  0  0  0  0  0  0
   -0.9134    0.1953    0.1194 H   0  0  0  0  0  0  0  0  0  0  0  0
   -4.9331   -1.0214   -1.1343 H   0  0  0  0  0  0  0  0  0  0  0  0
   -5.5023   -0.8049    0.5439 H   0  0  0  0  0  0  0  0  0  0  0  0
    3.6507    1.3895   -1.9451 H   0  0  0  0  0  0  0  0  0  0  0  0
    4.2185   -0.8145   -2.8715 H   0  0  0  0  0  0  0  0  0  0  0  0
    3.5296   -2.8615   -1.6124 H   0  0  0  0  0  0  0  0  0  0  0  0
   -7.2358    0.6111   -2.0458 H   0  0  0  0  0  0  0  0  0  0  0  0
   -7.7566    0.8102   -0.5103 H   0  0  0  0  0  0  0  0  0  0  0  0
  1  2  1  0  0  0  0
  1 11  1  0  0  0  0
  2 13  1  0  0  0  0
  3  7  1  0  0  0  0
  3 12  1  0  0  0  0
  4  8  1  0  0  0  0
  5  8  2  0  0  0  0
  6 13  1  0  0  0  0
  6 17  2  0  0  0  0
  7 29  1  0  0  0  0
  7 30  1  0  0  0  0
  8 14  1  0  0  0  0
  9 10  1  0  0  0  0
  9 11  1  0  0  0  0
  9 18  1  0  0  0  0
  9 19  1  0  0  0  0
 10 12  1  0  0  0  0
 10 20  1  0  0  0  0
 10 21  1  0  0  0  0
 11 22  1  0  0  0  0
 11 23  1  0  0  0  0
 12 24  1  0  0  0  0
 12 25  1  0  0  0  0
 13 14  2  0  0  0  0
 14 15  1  0  0  0  0
 15 16  2  0  0  0  0
 15 26  1  0  0  0  0
 16 17  1  0  0  0  0
 16 27  1  0  0  0  0
 17 28  1  0  0  0  0
M  CHG  2   4  -1   8   1
M  END
> <PUBCHEM_COMPOUND_CID>
130864

> <PUBCHEM_CONFORMER_RMSD>
0.8

> <PUBCHEM_CONFORMER_DIVERSEORDER>
1
242
146
190
157
116
239
263
11
74
215
126
115
139
27
162
281
193
219
147
145
83
5
240
158
211
47
32
106
233
92
216
114
54
87
235
200
85
102
220
123
136
137
29
208
221
261
3
112
78
135
272
179
209
282
38
231
151
122
149
223
212
131
22
103
163
268
170
194
2
39
109
132
77
66
89
61
81
148
159
40
182
238
96
93
244
19
31
258
26
192
230
184
133
64
82
207
100
143
248
265
269
156
48
264
43
256
44
196
195
45
154
65
180
227
228
241
75
243
6
199
226
36
7
107
186
69
259
35
84
249
189
175
110
274
129
280
34
95
187
94
49
86
52
188
198
23
166
99
279
213
24
8
105
16
173
225
164
67
20
172
51
191
254
177
260
30
181
25
275
57
70
165
161
218
41
255
224
101
125
142
257
270
58
9
97
245
229
201
217
15
134
273
276
127
73
33
210
150
124
117
237
178
71
271
160
138
144
253
50
17
14
21
232
176
155
167
252
80
79
59
10
234
119
104
13
56
90
197
174
236
251
88
250
203
53
202
183
277
130
62
118
205
72
206
222
111
204
91
171
108
60
140
246
141
120
262
185
98
247
267
153
28
37
12
4
278
121
68
169
113
214
18
46
63
168
266
128
76
152
42
55

> <PUBCHEM_MMFF94_PARTIAL_CHARGES>
20
1 -0.23
11 0.23
12 0.28
13 0.41
14 0.13
15 -0.15
16 -0.15
17 0.16
2 -0.1
26 0.15
27 0.15
28 0.15
29 0.36
3 -0.18
30 0.36
4 -0.52
5 -0.52
6 -0.62
7 -0.82
8 0.91

> <PUBCHEM_EFFECTIVE_ROTOR_COUNT>
8

> <PUBCHEM_PHARMACOPHORE_FEATURES>
6
1 4 acceptor
1 4 anion
1 5 acceptor
1 6 acceptor
5 1 2 9 10 11 hydrophobe
6 6 13 14 15 16 17 rings

> <PUBCHEM_HEAVY_ATOM_COUNT>
17

> <PUBCHEM_ATOM_DEF_STEREO_COUNT>
0

> <PUBCHEM_ATOM_UDEF_STEREO_COUNT>
0

> <PUBCHEM_BOND_DEF_STEREO_COUNT>
0

> <PUBCHEM_BOND_UDEF_STEREO_COUNT>
0

> <PUBCHEM_ISOTOPIC_ATOM_COUNT>
0

> <PUBCHEM_COMPONENT_COUNT>
1

> <PUBCHEM_CACTVS_TAUTO_COUNT>
1

> <PUBCHEM_CONFORMER_ID>
0001FF3000000001

> <PUBCHEM_MMFF94_ENERGY>
33.5174

> <PUBCHEM_FEATURE_SELFOVERLAP>
30.528

> <PUBCHEM_SHAPE_FINGERPRINT>
10378564 45 18271520906346265189
10498660 4 17458636630834193901
12035758 1 8141533324384159500
12363563 72 14476967765679217107
12596602 18 13334750020228431069
12892183 10 8142091948730461283
13965767 371 15068902044162984502
1420 369 13686299058925759311
14251740 57 10015587237679863409
14251751 18 15625944188595761659
14252887 29 10952053351008046267
14341114 328 12829501388459311815
14528608 73 18114175342351163559
15210252 30 17095533902045388700
15342816 4 14908189637449394130
15885798 251 13183022917364306675
18186145 218 18336839657667433147
20397935 70 10087637131131196629
20645477 70 18059305351905108623
212847 35 17530682091368140155
21304303 282 16265419313971476456
221357 26 18411139091621878781
22289505 5 18408044000459140988
23590187 173 17530683216865868883
23590187 302 18409449159123797091
3009799 131 18334590036167135662
3060560 45 18412544297330955310
633830 44 18336256908363169555
7808743 9 16588884510317338038
960060 61 17417811768616633233
9862260 156 17241323556626715610

> <PUBCHEM_SHAPE_MULTIPOLES>
325
11.89
2.12
1.77
28.62
0.8
0.04
3.29
7.45
-2.15
-0.56
-1.61
-0.25
1.23

> <PUBCHEM_SHAPE_SELFOVERLAP>
623.547

> <PUBCHEM_SHAPE_VOLUME>
201.1

> <PUBCHEM_COORDINATE_TYPE>
2
5
10

$$$$
