130979
  -OEChem-03292013323D

 51 52  0     1  0  0  0  0  0999 V2000
   -3.5485   -0.0205    2.5387 O   0  0  0  0  0  0  0  0  0  0  0  0
    5.0514   -2.3794    0.5058 O   0  0  0  0  0  0  0  0  0  0  0  0
    5.1714    2.0897   -1.2119 O   0  0  0  0  0  0  0  0  0  0  0  0
    6.3053   -0.4292   -1.0092 O   0  0  0  0  0  0  0  0  0  0  0  0
   -6.1308   -2.3838   -1.2986 O   0  0  0  0  0  0  0  0  0  0  0  0
   -7.9705   -0.3823   -1.8781 O   0  0  0  0  0  0  0  0  0  0  0  0
   -0.9894    0.7393    1.4561 N   0  0  0  0  0  0  0  0  0  0  0  0
    0.2519    0.4177    0.7683 C   0  0  0  0  0  0  0  0  0  0  0  0
   -2.1431    0.4409    0.6107 C   0  0  0  0  0  0  0  0  0  0  0  0
    1.4624    0.7241    1.6509 C   0  0  0  0  0  0  0  0  0  0  0  0
   -3.4698    0.7505    1.3324 C   0  0  1  0  0  0  0  0  0  0  0  0
    2.7568    0.4161    0.9412 C   0  0  0  0  0  0  0  0  0  0  0  0
   -4.6579    0.4478    0.4834 C   0  0  0  0  0  0  0  0  0  0  0  0
    3.3715    1.4045    0.1878 C   0  0  0  0  0  0  0  0  0  0  0  0
    3.3099   -0.8504    1.0529 C   0  0  0  0  0  0  0  0  0  0  0  0
    4.5067   -1.1356    0.3955 C   0  0  0  0  0  0  0  0  0  0  0  0
    4.5682    1.1194   -0.4698 C   0  0  0  0  0  0  0  0  0  0  0  0
   -4.8461   -0.8395   -0.0196 C   0  0  0  0  0  0  0  0  0  0  0  0
   -5.5812    1.4521    0.1926 C   0  0  0  0  0  0  0  0  0  0  0  0
    5.1359   -0.1506   -0.3658 C   0  0  0  0  0  0  0  0  0  0  0  0
   -5.9577   -1.1227   -0.8133 C   0  0  0  0  0  0  0  0  0  0  0  0
   -6.6926    1.1690   -0.6015 C   0  0  0  0  0  0  0  0  0  0  0  0
   -6.8810   -0.1184   -1.1043 C   0  0  0  0  0  0  0  0  0  0  0  0
    4.6595   -3.3469   -0.4661 C   0  0  0  0  0  0  0  0  0  0  0  0
    4.8049    2.1754   -2.5874 C   0  0  0  0  0  0  0  0  0  0  0  0
    7.5126   -0.1871   -0.2909 C   0  0  0  0  0  0  0  0  0  0  0  0
    0.2646   -0.6456    0.4971 H   0  0  0  0  0  0  0  0  0  0  0  0
    0.3245    0.9923   -0.1642 H   0  0  0  0  0  0  0  0  0  0  0  0
   -2.1019   -0.6234    0.3500 H   0  0  0  0  0  0  0  0  0  0  0  0
   -2.0922    1.0179   -0.3214 H   0  0  0  0  0  0  0  0  0  0  0  0
    1.4563    1.7795    1.9543 H   0  0  0  0  0  0  0  0  0  0  0  0
    1.4089    0.1470    2.5837 H   0  0  0  0  0  0  0  0  0  0  0  0
   -3.4782    1.8059    1.6325 H   0  0  0  0  0  0  0  0  0  0  0  0
   -0.9983    1.7256    1.7138 H   0  0  0  0  0  0  0  0  0  0  0  0
    2.9305    2.3943    0.1038 H   0  0  0  0  0  0  0  0  0  0  0  0
    2.8209   -1.6199    1.6445 H   0  0  0  0  0  0  0  0  0  0  0  0
   -4.1437   -1.6368    0.2091 H   0  0  0  0  0  0  0  0  0  0  0  0
   -5.4489    2.4600    0.5766 H   0  0  0  0  0  0  0  0  0  0  0  0
   -2.7498    0.1742    3.0584 H   0  0  0  0  0  0  0  0  0  0  0  0
   -7.4040    1.9608   -0.8204 H   0  0  0  0  0  0  0  0  0  0  0  0
    4.9363   -3.0168   -1.4723 H   0  0  0  0  0  0  0  0  0  0  0  0
    3.5813   -3.5283   -0.4132 H   0  0  0  0  0  0  0  0  0  0  0  0
    5.1827   -4.2821   -0.2487 H   0  0  0  0  0  0  0  0  0  0  0  0
    5.3751    2.9891   -3.0439 H   0  0  0  0  0  0  0  0  0  0  0  0
    3.7376    2.3970   -2.6867 H   0  0  0  0  0  0  0  0  0  0  0  0
    5.0456    1.2438   -3.1094 H   0  0  0  0  0  0  0  0  0  0  0  0
   -6.9487   -2.3993   -1.8254 H   0  0  0  0  0  0  0  0  0  0  0  0
    7.5990    0.8720   -0.0282 H   0  0  0  0  0  0  0  0  0  0  0  0
    7.5533   -0.8027    0.6133 H   0  0  0  0  0  0  0  0  0  0  0  0
    8.3541   -0.4568   -0.9349 H   0  0  0  0  0  0  0  0  0  0  0  0
   -8.4964    0.4305   -1.9724 H   0  0  0  0  0  0  0  0  0  0  0  0
  1 11  1  0  0  0  0
  1 39  1  0  0  0  0
  2 16  1  0  0  0  0
  2 24  1  0  0  0  0
  3 17  1  0  0  0  0
  3 25  1  0  0  0  0
  4 20  1  0  0  0  0
  4 26  1  0  0  0  0
  5 21  1  0  0  0  0
  5 47  1  0  0  0  0
  6 23  1  0  0  0  0
  6 51  1  0  0  0  0
  7  8  1  0  0  0  0
  7  9  1  0  0  0  0
  7 34  1  0  0  0  0
  8 10  1  0  0  0  0
  8 27  1  0  0  0  0
  8 28  1  0  0  0  0
  9 11  1  0  0  0  0
  9 29  1  0  0  0  0
  9 30  1  0  0  0  0
 10 12  1  0  0  0  0
 10 31  1  0  0  0  0
 10 32  1  0  0  0  0
 11 13  1  0  0  0  0
 11 33  1  0  0  0  0
 12 14  2  0  0  0  0
 12 15  1  0  0  0  0
 13 18  2  0  0  0  0
 13 19  1  0  0  0  0
 14 17  1  0  0  0  0
 14 35  1  0  0  0  0
 15 16  2  0  0  0  0
 15 36  1  0  0  0  0
 16 20  1  0  0  0  0
 17 20  2  0  0  0  0
 18 21  1  0  0  0  0
 18 37  1  0  0  0  0
 19 22  2  0  0  0  0
 19 38  1  0  0  0  0
 21 23  2  0  0  0  0
 22 23  1  0  0  0  0
 22 40  1  0  0  0  0
 24 41  1  0  0  0  0
 24 42  1  0  0  0  0
 24 43  1  0  0  0  0
 25 44  1  0  0  0  0
 25 45  1  0  0  0  0
 25 46  1  0  0  0  0
 26 48  1  0  0  0  0
 26 49  1  0  0  0  0
 26 50  1  0  0  0  0
M  END
> <PUBCHEM_COMPOUND_CID>
130979

> <PUBCHEM_CONFORMER_RMSD>
1

> <PUBCHEM_CONFORMER_DIVERSEORDER>
1
74
57
44
48
88
30
123
81
21
16
3
96
115
69
66
25
56
27
28
6
84
85
58
46
54
55
23
86
99
39
51
36
5
103
22
61
77
108
45
128
124
2
95
9
64
4
104
111
14
13
100
129
110
79
97
83
65
31
70
78
12
42
90
40
49
71
11
112
52
125
15
68
119
94
89
20
82
127
32
73
91
113
122
18
26
50
43
87
7
67
105
92
98
41
114
60
93
116
53
75
80
63
120
76
59
102
109
72
118
126
33
37
35
17
107
101
24
106
34
121
19
62
117
10
29
38
47
8

> <PUBCHEM_MMFF94_PARTIAL_CHARGES>
35
1 -0.68
10 0.14
11 0.42
12 -0.14
13 -0.14
14 -0.15
15 -0.15
16 0.08
17 0.08
18 -0.15
19 -0.15
2 -0.36
20 0.08
21 0.08
22 -0.15
23 0.08
24 0.28
25 0.28
26 0.28
3 -0.36
34 0.36
35 0.15
36 0.15
37 0.15
38 0.15
39 0.4
4 -0.36
40 0.15
47 0.45
5 -0.53
51 0.45
6 -0.53
7 -0.9
8 0.27
9 0.27

> <PUBCHEM_EFFECTIVE_ROTOR_COUNT>
9

> <PUBCHEM_PHARMACOPHORE_FEATURES>
11
1 1 acceptor
1 1 donor
1 2 acceptor
1 3 acceptor
1 4 acceptor
1 5 donor
1 6 donor
1 7 cation
1 7 donor
6 12 14 15 16 17 20 rings
6 13 18 19 21 22 23 rings

> <PUBCHEM_HEAVY_ATOM_COUNT>
26

> <PUBCHEM_ATOM_DEF_STEREO_COUNT>
0

> <PUBCHEM_ATOM_UDEF_STEREO_COUNT>
1

> <PUBCHEM_BOND_DEF_STEREO_COUNT>
0

> <PUBCHEM_BOND_UDEF_STEREO_COUNT>
0

> <PUBCHEM_ISOTOPIC_ATOM_COUNT>
0

> <PUBCHEM_COMPONENT_COUNT>
1

> <PUBCHEM_CACTVS_TAUTO_COUNT>
10

> <PUBCHEM_CONFORMER_ID>
0001FFA300000001

> <PUBCHEM_MMFF94_ENERGY>
90.8118

> <PUBCHEM_FEATURE_SELFOVERLAP>
55.837

> <PUBCHEM_SHAPE_FINGERPRINT>
10 15 11169910568335949389
10693767 8 18126579934084476574
11545043 162 14764353695552093875
12661589 4 16558757789180367222
13668630 136 17561086886658936700
13685833 64 14908184148871566784
13782708 43 15339123433400566929
14251764 18 9439400233321538585
15183329 4 18410853248615649945
15188451 53 16200428070537378577
15348495 7 10375864186782682125
15799311 1 18202294601593716895
16079462 125 15357974586065500641
17857418 61 18060700563488759291
18222031 100 17561083617993996993
19377110 9 8862940559271405137
20281389 69 14129052617496643417
21150785 3 18412262847965494209
220451 1 18273222997479731937
22061861 79 18260830367062228451
221357 26 17968096391816402916
2303208 19 14189304741753794305
23081809 10 18272094872653476393
23198884 109 17967810540663097841
23522609 53 17986702353077542177
25122255 55 16702305685064328469
29717793 49 18334295331836422632
3004659 81 18412259524024576938
3178227 256 11455884742828168438
3383291 50 15985099739271386535
34797466 226 17603595152908140825
44249763 50 16009026263036896209
531348 171 18268709420975778473
59682541 52 18333450937060660784
60123966 16 17676498254613978820
86090 222 14404644133020004620
960060 61 18409450293032255728
9962374 69 15554148367966124465

> <PUBCHEM_SHAPE_MULTIPOLES>
494.87
24.27
2.27
1.81
18.52
1.37
-0.15
3.36
-12.3
-3.17
-1.08
0.7
-0.53
-2.49

> <PUBCHEM_SHAPE_SELFOVERLAP>
1033.116

> <PUBCHEM_SHAPE_VOLUME>
282.4

> <PUBCHEM_COORDINATE_TYPE>
2
5
10

$$$$
