130905
  -OEChem-03292013323D

 38 39  0     1  0  0  0  0  0999 V2000
   -0.2333   -3.1989    0.6602 O   0  0  0  0  0  0  0  0  0  0  0  0
   -2.5583   -1.7299    1.3047 O   0  0  0  0  0  0  0  0  0  0  0  0
    1.0671   -3.1932   -1.4800 O   0  0  0  0  0  0  0  0  0  0  0  0
   -4.4510    0.7079    1.0600 O   0  0  0  0  0  0  0  0  0  0  0  0
    5.3385    0.3579    0.2626 O   0  0  0  0  0  0  0  0  0  0  0  0
    3.6634    1.0361    1.6368 O   0  0  0  0  0  0  0  0  0  0  0  0
    0.7817    0.2417   -0.2217 N   0  0  0  0  0  0  0  0  0  0  0  0
   -2.6999    0.8024   -0.4711 N   0  0  0  0  0  0  0  0  0  0  0  0
   -0.1384    2.2527   -0.1318 N   0  0  0  0  0  0  0  0  0  0  0  0
    0.8790   -1.2099   -0.1657 C   0  0  1  0  0  0  0  0  0  0  0  0
   -0.2277   -1.7759    0.7435 C   0  0  1  0  0  0  0  0  0  0  0  0
   -1.6094   -1.2256    0.3597 C   0  0  2  0  0  0  0  0  0  0  0  0
   -1.6529    0.3111    0.3941 C   0  0  1  0  0  0  0  0  0  0  0  0
   -0.3685    0.9594   -0.0034 C   0  0  0  0  0  0  0  0  0  0  0  0
    0.8694   -1.7980   -1.5813 C   0  0  0  0  0  0  0  0  0  0  0  0
    1.7904    1.1176   -0.4932 C   0  0  0  0  0  0  0  0  0  0  0  0
    1.1952    2.3556   -0.4401 C   0  0  0  0  0  0  0  0  0  0  0  0
    3.1993    0.7748   -0.7393 C   0  0  0  0  0  0  0  0  0  0  0  0
   -4.0134    0.9584   -0.0599 C   0  0  0  0  0  0  0  0  0  0  0  0
    4.0608    0.7454    0.5168 C   0  0  0  0  0  0  0  0  0  0  0  0
   -4.8917    1.5103   -1.1506 C   0  0  0  0  0  0  0  0  0  0  0  0
    1.8382   -1.4589    0.3072 H   0  0  0  0  0  0  0  0  0  0  0  0
   -0.0127   -1.5212    1.7898 H   0  0  0  0  0  0  0  0  0  0  0  0
   -1.9061   -1.6207   -0.6198 H   0  0  0  0  0  0  0  0  0  0  0  0
   -1.8889    0.6398    1.4150 H   0  0  0  0  0  0  0  0  0  0  0  0
    1.6581   -1.3819   -2.2148 H   0  0  0  0  0  0  0  0  0  0  0  0
   -0.0820   -1.6171   -2.0915 H   0  0  0  0  0  0  0  0  0  0  0  0
   -2.4658    1.0084   -1.4389 H   0  0  0  0  0  0  0  0  0  0  0  0
    1.6593    3.3192   -0.5944 H   0  0  0  0  0  0  0  0  0  0  0  0
   -0.9580   -3.5204    1.2234 H   0  0  0  0  0  0  0  0  0  0  0  0
    3.6405    1.5185   -1.4142 H   0  0  0  0  0  0  0  0  0  0  0  0
    3.2930   -0.2005   -1.2253 H   0  0  0  0  0  0  0  0  0  0  0  0
   -3.4397   -1.4347    1.0205 H   0  0  0  0  0  0  0  0  0  0  0  0
    1.9387   -3.3408   -1.0751 H   0  0  0  0  0  0  0  0  0  0  0  0
   -5.9366    1.4900   -0.8288 H   0  0  0  0  0  0  0  0  0  0  0  0
   -4.6027    2.5425   -1.3666 H   0  0  0  0  0  0  0  0  0  0  0  0
   -4.7913    0.9057   -2.0565 H   0  0  0  0  0  0  0  0  0  0  0  0
    5.8845    0.3428    1.0775 H   0  0  0  0  0  0  0  0  0  0  0  0
  1 11  1  0  0  0  0
  1 30  1  0  0  0  0
  2 12  1  0  0  0  0
  2 33  1  0  0  0  0
  3 15  1  0  0  0  0
  3 34  1  0  0  0  0
  4 19  2  0  0  0  0
  5 20  1  0  0  0  0
  5 38  1  0  0  0  0
  6 20  2  0  0  0  0
  7 10  1  0  0  0  0
  7 14  1  0  0  0  0
  7 16  1  0  0  0  0
  8 13  1  0  0  0  0
  8 19  1  0  0  0  0
  8 28  1  0  0  0  0
  9 14  2  0  0  0  0
  9 17  1  0  0  0  0
 10 11  1  0  0  0  0
 10 15  1  0  0  0  0
 10 22  1  0  0  0  0
 11 12  1  0  0  0  0
 11 23  1  0  0  0  0
 12 13  1  0  0  0  0
 12 24  1  0  0  0  0
 13 14  1  0  0  0  0
 13 25  1  0  0  0  0
 15 26  1  0  0  0  0
 15 27  1  0  0  0  0
 16 17  2  0  0  0  0
 16 18  1  0  0  0  0
 17 29  1  0  0  0  0
 18 20  1  0  0  0  0
 18 31  1  0  0  0  0
 18 32  1  0  0  0  0
 19 21  1  0  0  0  0
 21 35  1  0  0  0  0
 21 36  1  0  0  0  0
 21 37  1  0  0  0  0
M  END
> <PUBCHEM_COMPOUND_CID>
130905

> <PUBCHEM_CONFORMER_RMSD>
0.8

> <PUBCHEM_CONFORMER_DIVERSEORDER>
1
65
29
81
88
77
11
84
75
21
7
73
89
30
56
15
62
42
35
83
38
44
82
76
50
23
13
57
16
64
31
43
87
41
17
32
52
59
70
85
20
40
26
2
66
74
80
55
33
48
63
72
3
25
69
47
58
51
6
54
71
61
10
90
28
60
39
68
86
67
18
12
37
49
53
45
78
9
14
22
5
46
79
8
34
36
27
24
19
4

> <PUBCHEM_MMFF94_PARTIAL_CHARGES>
27
1 -0.68
10 0.26
11 0.28
12 0.28
13 0.48
14 0.01
15 0.28
16 -0.33
17 0.08
18 0.24
19 0.57
2 -0.68
20 0.66
21 0.06
28 0.37
29 0.15
3 -0.68
30 0.4
33 0.4
34 0.4
38 0.5
4 -0.57
5 -0.65
6 -0.57
7 0.05
8 -0.73
9 -0.57

> <PUBCHEM_EFFECTIVE_ROTOR_COUNT>
5.8

> <PUBCHEM_PHARMACOPHORE_FEATURES>
14
1 1 acceptor
1 1 donor
1 2 acceptor
1 2 donor
1 3 acceptor
1 3 donor
1 4 acceptor
1 5 acceptor
1 6 acceptor
1 8 donor
3 5 6 20 anion
3 7 9 14 cation
5 7 9 14 16 17 rings
6 7 10 11 12 13 14 rings

> <PUBCHEM_HEAVY_ATOM_COUNT>
21

> <PUBCHEM_ATOM_DEF_STEREO_COUNT>
0

> <PUBCHEM_ATOM_UDEF_STEREO_COUNT>
4

> <PUBCHEM_BOND_DEF_STEREO_COUNT>
0

> <PUBCHEM_BOND_UDEF_STEREO_COUNT>
0

> <PUBCHEM_ISOTOPIC_ATOM_COUNT>
0

> <PUBCHEM_COMPONENT_COUNT>
1

> <PUBCHEM_CACTVS_TAUTO_COUNT>
2

> <PUBCHEM_CONFORMER_ID>
0001FF5900000001

> <PUBCHEM_MMFF94_ENERGY>
35.1704

> <PUBCHEM_FEATURE_SELFOVERLAP>
71.253

> <PUBCHEM_SHAPE_FINGERPRINT>
10906281 52 18337125474561245645
11132069 177 18410575097637904980
11680986 33 18338531745637865918
12011746 2 18412829054200217916
12119455 92 17989485230012689052
12592029 89 18186522085670448953
13140716 1 18265621055410605417
13380535 76 18410014338286343383
13464514 151 18336265639741454277
13544592 271 18411986862057071667
13583140 156 16370721556681576137
14178342 30 18270701821369544233
15375358 24 18411421691679554293
15848702 105 12463566314081250656
15852999 172 18412270540283413886
16752209 62 18264203797696215754
16945 1 18046915049855804138
1813 80 10953738833508280097
20645477 70 18268706100929064197
21054139 6 17987498447050915103
21524375 3 18337952397894622647
22182313 1 18266762254038370399
23402539 116 18335974329152830165
23558518 356 17980775843400603080
23559900 14 18340782515619509508
25 1 18410017624142313157
266924 87 18195243308823428348
2748010 2 18265076694012181451
3084891 72 18408601452875801489
34934 24 18115588291970872572
350125 39 18190469453148067201
352729 6 18337686320238829801
4072396 5 18262784186413990920
42630746 31 18338238168165683297
465052 167 17822019725992649593
58051976 378 18335980887868493501
58807428 26 18334855008961688562
59554788 191 18264772232217190909
59755656 215 18264489490699849126
7364860 26 18128820733299363078
81228 2 17542498788103855657

> <PUBCHEM_SHAPE_MULTIPOLES>
382.01
7.8
2.94
1.22
1.2
2.14
-0.1
-4.77
0.87
-0.03
-0.49
-0.07
0.45
1.12

> <PUBCHEM_SHAPE_SELFOVERLAP>
800.815

> <PUBCHEM_SHAPE_VOLUME>
212

> <PUBCHEM_COORDINATE_TYPE>
2
5
10

$$$$
