130968
  -OEChem-03292013323D

 65 67  0     0  0  0  0  0  0999 V2000
   -3.4757   -0.8365    1.7449 O   0  0  0  0  0  0  0  0  0  0  0  0
    3.9073   -2.5965   -1.2344 O   0  0  0  0  0  0  0  0  0  0  0  0
    2.3500    1.5496    1.2860 O   0  0  0  0  0  0  0  0  0  0  0  0
    7.8440    5.1965   -1.2974 O   0  0  0  0  0  0  0  0  0  0  0  0
    8.4700    4.2210    0.6560 O   0  0  0  0  0  0  0  0  0  0  0  0
    3.5526   -5.9865   -0.1181 O   0  0  0  0  0  0  0  0  0  0  0  0
    1.9914   -4.4918   -0.8365 O   0  0  0  0  0  0  0  0  0  0  0  0
    2.6682   -0.4879    0.1668 N   0  0  0  0  0  0  0  0  0  0  0  0
   -6.7998    0.2178    0.3463 C   0  0  0  0  0  0  0  0  0  0  0  0
   -5.7150   -0.6989    0.9076 C   0  0  0  0  0  0  0  0  0  0  0  0
   -8.0555   -0.5728   -0.0278 C   0  0  0  0  0  0  0  0  0  0  0  0
   -4.4463    0.0721    1.2434 C   0  0  0  0  0  0  0  0  0  0  0  0
   -9.1458    0.3274   -0.5501 C   0  0  0  0  0  0  0  0  0  0  0  0
    6.1565    0.7210   -0.1487 C   0  0  0  0  0  0  0  0  0  0  0  0
    6.9709    1.9093    0.2376 C   0  0  0  0  0  0  0  0  0  0  0  0
    4.0416   -0.4463   -0.1778 C   0  0  0  0  0  0  0  0  0  0  0  0
    4.8030    0.6649    0.1836 C   0  0  0  0  0  0  0  0  0  0  0  0
  -10.0731    0.8834    0.3312 C   0  0  0  0  0  0  0  0  0  0  0  0
   -9.2277    0.6043   -1.9147 C   0  0  0  0  0  0  0  0  0  0  0  0
    4.6336   -1.5018   -0.8715 C   0  0  0  0  0  0  0  0  0  0  0  0
    6.9832    3.0190   -0.8203 C   0  0  0  0  0  0  0  0  0  0  0  0
    6.7486   -0.3346   -0.8423 C   0  0  0  0  0  0  0  0  0  0  0  0
   -2.1602   -0.5172    1.5294 C   0  0  0  0  0  0  0  0  0  0  0  0
    5.9873   -1.4459   -1.2037 C   0  0  0  0  0  0  0  0  0  0  0  0
    0.5165    0.1321    1.0867 C   0  0  0  0  0  0  0  0  0  0  0  0
  -11.0824    1.7162   -0.1520 C   0  0  0  0  0  0  0  0  0  0  0  0
  -10.2369    1.4372   -2.3980 C   0  0  0  0  0  0  0  0  0  0  0  0
    1.9118    0.4709    0.8550 C   0  0  0  0  0  0  0  0  0  0  0  0
   -1.7715    0.8199    1.4458 C   0  0  0  0  0  0  0  0  0  0  0  0
   -1.2106   -1.5296    1.3915 C   0  0  0  0  0  0  0  0  0  0  0  0
   -0.4332    1.1444    1.2244 C   0  0  0  0  0  0  0  0  0  0  0  0
    0.1277   -1.2049    1.1700 C   0  0  0  0  0  0  0  0  0  0  0  0
  -11.1643    1.9930   -1.5166 C   0  0  0  0  0  0  0  0  0  0  0  0
    7.8483    4.1820   -0.3981 C   0  0  0  0  0  0  0  0  0  0  0  0
    4.3336   -3.8561   -0.7197 C   0  0  0  0  0  0  0  0  0  0  0  0
    3.1518   -4.7747   -0.5787 C   0  0  0  0  0  0  0  0  0  0  0  0
   -6.4175    0.7445   -0.5372 H   0  0  0  0  0  0  0  0  0  0  0  0
   -7.0483    0.9866    1.0888 H   0  0  0  0  0  0  0  0  0  0  0  0
   -6.0785   -1.2122    1.8066 H   0  0  0  0  0  0  0  0  0  0  0  0
   -5.4769   -1.4903    0.1858 H   0  0  0  0  0  0  0  0  0  0  0  0
   -8.4268   -1.1266    0.8440 H   0  0  0  0  0  0  0  0  0  0  0  0
   -7.8132   -1.3314   -0.7831 H   0  0  0  0  0  0  0  0  0  0  0  0
   -4.1017    0.5663    0.3256 H   0  0  0  0  0  0  0  0  0  0  0  0
   -4.6578    0.8295    2.0071 H   0  0  0  0  0  0  0  0  0  0  0  0
    8.0005    1.5887    0.4483 H   0  0  0  0  0  0  0  0  0  0  0  0
    6.6043    2.3121    1.1917 H   0  0  0  0  0  0  0  0  0  0  0  0
    4.4086    1.5170    0.7176 H   0  0  0  0  0  0  0  0  0  0  0  0
  -10.0184    0.6766    1.3968 H   0  0  0  0  0  0  0  0  0  0  0  0
   -8.5100    0.1786   -2.6110 H   0  0  0  0  0  0  0  0  0  0  0  0
    7.3732    2.6314   -1.7683 H   0  0  0  0  0  0  0  0  0  0  0  0
    5.9652    3.3897   -0.9849 H   0  0  0  0  0  0  0  0  0  0  0  0
    7.8013   -0.3011   -1.1104 H   0  0  0  0  0  0  0  0  0  0  0  0
    6.4607   -2.2559   -1.7518 H   0  0  0  0  0  0  0  0  0  0  0  0
    2.1968   -1.3202   -0.1771 H   0  0  0  0  0  0  0  0  0  0  0  0
  -11.8042    2.1495    0.5342 H   0  0  0  0  0  0  0  0  0  0  0  0
  -10.3004    1.6534   -3.4604 H   0  0  0  0  0  0  0  0  0  0  0  0
   -2.4743    1.6378    1.5736 H   0  0  0  0  0  0  0  0  0  0  0  0
   -1.5072   -2.5725    1.4634 H   0  0  0  0  0  0  0  0  0  0  0  0
   -0.1510    2.1923    1.1633 H   0  0  0  0  0  0  0  0  0  0  0  0
    0.8353   -2.0264    1.1068 H   0  0  0  0  0  0  0  0  0  0  0  0
  -11.9499    2.6416   -1.8929 H   0  0  0  0  0  0  0  0  0  0  0  0
    4.7916   -3.7381    0.2697 H   0  0  0  0  0  0  0  0  0  0  0  0
    5.0437   -4.3023   -1.4234 H   0  0  0  0  0  0  0  0  0  0  0  0
    8.3999    5.9493   -1.0030 H   0  0  0  0  0  0  0  0  0  0  0  0
    2.7995   -6.6069   -0.0169 H   0  0  0  0  0  0  0  0  0  0  0  0
  1 12  1  0  0  0  0
  1 23  1  0  0  0  0
  2 20  1  0  0  0  0
  2 35  1  0  0  0  0
  3 28  2  0  0  0  0
  4 34  1  0  0  0  0
  4 64  1  0  0  0  0
  5 34  2  0  0  0  0
  6 36  1  0  0  0  0
  6 65  1  0  0  0  0
  7 36  2  0  0  0  0
  8 16  1  0  0  0  0
  8 28  1  0  0  0  0
  8 54  1  0  0  0  0
  9 10  1  0  0  0  0
  9 11  1  0  0  0  0
  9 37  1  0  0  0  0
  9 38  1  0  0  0  0
 10 12  1  0  0  0  0
 10 39  1  0  0  0  0
 10 40  1  0  0  0  0
 11 13  1  0  0  0  0
 11 41  1  0  0  0  0
 11 42  1  0  0  0  0
 12 43  1  0  0  0  0
 12 44  1  0  0  0  0
 13 18  2  0  0  0  0
 13 19  1  0  0  0  0
 14 15  1  0  0  0  0
 14 17  2  0  0  0  0
 14 22  1  0  0  0  0
 15 21  1  0  0  0  0
 15 45  1  0  0  0  0
 15 46  1  0  0  0  0
 16 17  1  0  0  0  0
 16 20  2  0  0  0  0
 17 47  1  0  0  0  0
 18 26  1  0  0  0  0
 18 48  1  0  0  0  0
 19 27  2  0  0  0  0
 19 49  1  0  0  0  0
 20 24  1  0  0  0  0
 21 34  1  0  0  0  0
 21 50  1  0  0  0  0
 21 51  1  0  0  0  0
 22 24  2  0  0  0  0
 22 52  1  0  0  0  0
 23 29  2  0  0  0  0
 23 30  1  0  0  0  0
 24 53  1  0  0  0  0
 25 28  1  0  0  0  0
 25 31  2  0  0  0  0
 25 32  1  0  0  0  0
 26 33  2  0  0  0  0
 26 55  1  0  0  0  0
 27 33  1  0  0  0  0
 27 56  1  0  0  0  0
 29 31  1  0  0  0  0
 29 57  1  0  0  0  0
 30 32  2  0  0  0  0
 30 58  1  0  0  0  0
 31 59  1  0  0  0  0
 32 60  1  0  0  0  0
 33 61  1  0  0  0  0
 35 36  1  0  0  0  0
 35 62  1  0  0  0  0
 35 63  1  0  0  0  0
M  END
> <PUBCHEM_COMPOUND_CID>
130968

> <PUBCHEM_CONFORMER_RMSD>
1.2

> <PUBCHEM_CONFORMER_DIVERSEORDER>
2
29
107
86
26
74
91
108
57
88
97
90
63
66
36
93
87
35
102
68
18
77
7
39
67
53
31
101
78
51
41
76
4
89
32
98
48
106
72
64
105
104
44
34
59
92
14
81
33
50
45
23
9
30
84
69
99
79
65
109
37
27
70
3
103
96
28
17
8
56
46
25
100
85
21
61
43
75
95
6
94
60
24
15
55
80
40
82
58
12
47
10
1
62
52
22
38
83
49
11
71
54
73
16
20
13
5
19
42

> <PUBCHEM_MMFF94_PARTIAL_CHARGES>
49
1 -0.36
11 0.14
12 0.28
13 -0.14
14 -0.14
15 0.14
16 0.12
17 -0.15
18 -0.15
19 -0.15
2 -0.36
20 0.08
21 0.06
22 -0.15
23 0.08
24 -0.15
25 0.09
26 -0.15
27 -0.15
28 0.54
29 -0.15
3 -0.57
30 -0.15
31 -0.15
32 -0.15
33 -0.15
34 0.66
35 0.34
36 0.66
4 -0.65
47 0.15
48 0.15
49 0.15
5 -0.57
52 0.15
53 0.15
54 0.37
55 0.15
56 0.15
57 0.15
58 0.15
59 0.15
6 -0.65
60 0.15
61 0.15
64 0.5
65 0.5
7 -0.57
8 -0.55

> <PUBCHEM_EFFECTIVE_ROTOR_COUNT>
15

> <PUBCHEM_PHARMACOPHORE_FEATURES>
13
1 1 acceptor
1 2 acceptor
1 3 acceptor
1 4 acceptor
1 5 acceptor
1 6 acceptor
1 7 acceptor
1 8 donor
3 4 5 34 anion
3 6 7 36 anion
6 13 18 19 26 27 33 rings
6 14 16 17 20 22 24 rings
6 23 25 29 30 31 32 rings

> <PUBCHEM_HEAVY_ATOM_COUNT>
36

> <PUBCHEM_ATOM_DEF_STEREO_COUNT>
0

> <PUBCHEM_ATOM_UDEF_STEREO_COUNT>
0

> <PUBCHEM_BOND_DEF_STEREO_COUNT>
0

> <PUBCHEM_BOND_UDEF_STEREO_COUNT>
0

> <PUBCHEM_ISOTOPIC_ATOM_COUNT>
0

> <PUBCHEM_COMPONENT_COUNT>
1

> <PUBCHEM_CACTVS_TAUTO_COUNT>
2

> <PUBCHEM_CONFORMER_ID>
0001FF9800000002

> <PUBCHEM_MMFF94_ENERGY>
103.2267

> <PUBCHEM_FEATURE_SELFOVERLAP>
66.096

> <PUBCHEM_SHAPE_FINGERPRINT>
10029044 110 18186802508855769777
10533779 47 8502382134843754997
11061554 47 17749103418528661357
11181472 205 18339362951523629689
11421887 45 17911238640412798392
11456790 92 11458412557712863663
11607047 74 13110382646603751794
11638347 137 9655579612995946033
12098696 120 17675926483140908369
12522641 33 18411420613632421322
12539745 222 10159713395719475995
16991971 28 14836125489976999473
1818759 1 13758357791483591353
19302320 297 11025804192973939531
20105231 36 11815907755679034292
23522609 53 17416151411411572507
2851757 41 12751239247098236237
306946 40 18114457946145306409
3711267 37 16660370243352521589
45270241 37 18412266107824586343
45377200 153 14045741573382898629
4760202 170 18342175630769301256
5470011 282 18341895186889559607
57359948 33 17967540051637984286
5937810 71 18262515889721595717

> <PUBCHEM_SHAPE_MULTIPOLES>
694.8
39.15
5.63
1.69
104.49
3.4
-0.23
-38.61
-21.31
-21.8
-2.4
2.75
-0.22
2.84

> <PUBCHEM_SHAPE_SELFOVERLAP>
1468.055

> <PUBCHEM_SHAPE_VOLUME>
386.2

> <PUBCHEM_COORDINATE_TYPE>
2
5
10

$$$$
