130929
  -OEChem-03292013323D

 26 26  0     1  0  0  0  0  0999 V2000
   -4.6817    1.7310   -0.3428 Br  0  0  0  0  0  0  0  0  0  0  0  0
    0.8105    0.7858    0.6040 S   0  0  0  0  0  0  0  0  0  0  0  0
   -1.7085    2.4197    0.1612 O   0  0  0  0  0  0  0  0  0  0  0  0
    4.4600    0.9558    1.1603 O   0  0  0  0  0  0  0  0  0  0  0  0
   -2.5684   -3.0287    0.0540 O   0  0  0  0  0  0  0  0  0  0  0  0
    3.9047   -1.2178    0.8238 O   0  0  0  0  0  0  0  0  0  0  0  0
    3.8515   -0.2180   -1.9444 N   0  0  0  0  0  0  0  0  0  0  0  0
    3.1795    0.4140   -0.8073 C   0  0  1  0  0  0  0  0  0  0  0  0
    1.6935    0.0502   -0.8091 C   0  0  0  0  0  0  0  0  0  0  0  0
   -0.8527    0.1914    0.3237 C   0  0  0  0  0  0  0  0  0  0  0  0
   -1.9192    1.0703    0.1349 C   0  0  0  0  0  0  0  0  0  0  0  0
   -1.0708   -1.1860    0.2965 C   0  0  0  0  0  0  0  0  0  0  0  0
    3.8831   -0.0494    0.4545 C   0  0  0  0  0  0  0  0  0  0  0  0
   -2.3555   -1.6845    0.0805 C   0  0  0  0  0  0  0  0  0  0  0  0
   -3.2039    0.5718   -0.0812 C   0  0  0  0  0  0  0  0  0  0  0  0
   -3.4220   -0.8056   -0.1084 C   0  0  0  0  0  0  0  0  0  0  0  0
    3.2934    1.5009   -0.9013 H   0  0  0  0  0  0  0  0  0  0  0  0
    1.2198    0.4016   -1.7331 H   0  0  0  0  0  0  0  0  0  0  0  0
    1.5786   -1.0386   -0.7678 H   0  0  0  0  0  0  0  0  0  0  0  0
   -0.2559   -1.8889    0.4541 H   0  0  0  0  0  0  0  0  0  0  0  0
    4.8150    0.1110   -1.9977 H   0  0  0  0  0  0  0  0  0  0  0  0
    3.4038    0.0753   -2.8120 H   0  0  0  0  0  0  0  0  0  0  0  0
   -4.4217   -1.1998   -0.2766 H   0  0  0  0  0  0  0  0  0  0  0  0
   -0.7621    2.5803    0.3192 H   0  0  0  0  0  0  0  0  0  0  0  0
    4.8923    0.6278    1.9775 H   0  0  0  0  0  0  0  0  0  0  0  0
   -3.5130   -3.1957   -0.1064 H   0  0  0  0  0  0  0  0  0  0  0  0
  1 15  1  0  0  0  0
  2  9  1  0  0  0  0
  2 10  1  0  0  0  0
  3 11  1  0  0  0  0
  3 24  1  0  0  0  0
  4 13  1  0  0  0  0
  4 25  1  0  0  0  0
  5 14  1  0  0  0  0
  5 26  1  0  0  0  0
  6 13  2  0  0  0  0
  7  8  1  0  0  0  0
  7 21  1  0  0  0  0
  7 22  1  0  0  0  0
  8  9  1  0  0  0  0
  8 13  1  0  0  0  0
  8 17  1  0  0  0  0
  9 18  1  0  0  0  0
  9 19  1  0  0  0  0
 10 11  2  0  0  0  0
 10 12  1  0  0  0  0
 11 15  1  0  0  0  0
 12 14  2  0  0  0  0
 12 20  1  0  0  0  0
 14 16  1  0  0  0  0
 15 16  2  0  0  0  0
 16 23  1  0  0  0  0
M  END
> <PUBCHEM_COMPOUND_CID>
130929

> <PUBCHEM_CONFORMER_RMSD>
0.6

> <PUBCHEM_CONFORMER_DIVERSEORDER>
2
57
49
54
38
9
58
34
51
62
46
1
24
39
47
5
22
12
63
40
65
48
11
60
13
23
59
28
29
53
35
42
50
15
56
6
25
45
32
61
64
55
31
18
8
17
30
10
20
16
3
44
14
52
7
41
33
36
21
4
37
43
26
19
27

> <PUBCHEM_MMFF94_PARTIAL_CHARGES>
23
1 -0.11
10 0.1
11 0.08
12 -0.15
13 0.66
14 0.08
15 0.11
16 -0.15
2 -0.33
20 0.15
21 0.36
22 0.36
23 0.15
24 0.45
25 0.5
26 0.45
3 -0.53
4 -0.65
5 -0.53
6 -0.57
7 -0.99
8 0.33
9 0.23

> <PUBCHEM_EFFECTIVE_ROTOR_COUNT>
4

> <PUBCHEM_PHARMACOPHORE_FEATURES>
9
1 1 hydrophobe
1 3 donor
1 4 acceptor
1 5 donor
1 6 acceptor
1 7 cation
1 7 donor
3 4 6 13 anion
6 10 11 12 14 15 16 rings

> <PUBCHEM_HEAVY_ATOM_COUNT>
16

> <PUBCHEM_ATOM_DEF_STEREO_COUNT>
1

> <PUBCHEM_ATOM_UDEF_STEREO_COUNT>
0

> <PUBCHEM_BOND_DEF_STEREO_COUNT>
0

> <PUBCHEM_BOND_UDEF_STEREO_COUNT>
0

> <PUBCHEM_ISOTOPIC_ATOM_COUNT>
0

> <PUBCHEM_COMPONENT_COUNT>
1

> <PUBCHEM_CACTVS_TAUTO_COUNT>
7

> <PUBCHEM_CONFORMER_ID>
0001FF7100000002

> <PUBCHEM_MMFF94_ENERGY>
32.1966

> <PUBCHEM_FEATURE_SELFOVERLAP>
45.729

> <PUBCHEM_SHAPE_FINGERPRINT>
10062212 137 18113891667570625323
11615757 297 13902188192603347136
12173636 292 18265892463136669269
12236239 1 17676488337233922160
13296908 3 17418383480208386468
15375358 24 17917991663537764317
17834072 14 18131067151540138276
17870717 6 18200053762589033486
18186145 218 18201167576447400496
19433438 15 17530965791248550124
20279233 1 17846781801865905686
20645476 183 18113622274864152743
20645477 56 18410013213052800261
20645477 70 16558755559886663908
21524375 3 17970067747292333257
23402539 116 18341320124738214109
23526113 38 17489584528744413074
23557571 272 18272088352597559208
23559900 14 18271813402245811932
2748010 2 18125432253738325937
2838139 119 16226872364884105837
4175511 318 18114176420023893421
559249 180 18188202105099408274
573450 72 18260819419301386946
58051976 100 18187368722376784639
67856867 119 18115587188232784292
7615 1 17894918459764213860
81228 2 17559135184642363768
9709674 26 18272373066085248998

> <PUBCHEM_SHAPE_MULTIPOLES>
310.61
9.39
2.16
1.04
5.56
1
0.31
-1.77
0.52
-2.77
-0.16
1.38
-0.08
0.23

> <PUBCHEM_SHAPE_SELFOVERLAP>
612.736

> <PUBCHEM_SHAPE_VOLUME>
189.4

> <PUBCHEM_COORDINATE_TYPE>
2
5
10

$$$$
