130995
  -OEChem-03292013323D

 34 35  0     0  0  0  0  0  0999 V2000
   -3.1737    2.4018    0.0133 S   0  0  0  0  0  0  0  0  0  0  0  0
    0.4228    0.9043    0.7814 O   0  0  0  0  0  0  0  0  0  0  0  0
   -3.4183    3.7002   -0.5866 O   0  0  0  0  0  0  0  0  0  0  0  0
   -4.2480    1.4381    0.1480 O   0  0  0  0  0  0  0  0  0  0  0  0
    5.7157    0.7514   -0.7490 O   0  0  0  0  0  0  0  0  0  0  0  0
   -1.4858   -4.6081   -0.2356 O   0  5  0  0  0  0  0  0  0  0  0  0
    0.2881   -4.0437    0.9333 O   0  0  0  0  0  0  0  0  0  0  0  0
   -1.8060    1.6967   -0.7584 N   0  0  0  0  0  0  0  0  0  0  0  0
   -0.7140   -3.7445    0.2429 N   0  3  0  0  0  0  0  0  0  0  0  0
   -1.5199    0.3204   -0.4980 C   0  0  0  0  0  0  0  0  0  0  0  0
   -0.4114   -0.0425    0.2672 C   0  0  0  0  0  0  0  0  0  0  0  0
   -2.3613   -0.6634   -1.0174 C   0  0  0  0  0  0  0  0  0  0  0  0
   -0.1443   -1.3895    0.5128 C   0  0  0  0  0  0  0  0  0  0  0  0
   -0.9858   -2.3733   -0.0068 C   0  0  0  0  0  0  0  0  0  0  0  0
   -2.0942   -2.0101   -0.7719 C   0  0  0  0  0  0  0  0  0  0  0  0
    1.7520    0.8657    0.3974 C   0  0  0  0  0  0  0  0  0  0  0  0
   -2.5019    2.7001    1.6331 C   0  0  0  0  0  0  0  0  0  0  0  0
    2.0627    0.6777   -0.9376 C   0  0  0  0  0  0  0  0  0  0  0  0
    2.7365    1.0159    1.3579 C   0  0  0  0  0  0  0  0  0  0  0  0
    3.4022    0.6384   -1.3251 C   0  0  0  0  0  0  0  0  0  0  0  0
    4.0759    0.9767    0.9703 C   0  0  0  0  0  0  0  0  0  0  0  0
    4.4086    0.7879   -0.3711 C   0  0  0  0  0  0  0  0  0  0  0  0
   -0.9683    2.2933   -0.7914 H   0  0  0  0  0  0  0  0  0  0  0  0
   -3.2210   -0.3978   -1.6272 H   0  0  0  0  0  0  0  0  0  0  0  0
    0.7175   -1.6527    1.1219 H   0  0  0  0  0  0  0  0  0  0  0  0
   -2.7699   -2.7488   -1.1953 H   0  0  0  0  0  0  0  0  0  0  0  0
   -1.6127    3.3263    1.5403 H   0  0  0  0  0  0  0  0  0  0  0  0
   -3.2609    3.2228    2.2197 H   0  0  0  0  0  0  0  0  0  0  0  0
   -2.2655    1.7466    2.1078 H   0  0  0  0  0  0  0  0  0  0  0  0
    1.2985    0.5779   -1.7023 H   0  0  0  0  0  0  0  0  0  0  0  0
    2.4787    1.1625    2.4024 H   0  0  0  0  0  0  0  0  0  0  0  0
    3.6484    0.4951   -2.3738 H   0  0  0  0  0  0  0  0  0  0  0  0
    4.8555    1.0939    1.7180 H   0  0  0  0  0  0  0  0  0  0  0  0
    5.7618    0.6136   -1.7107 H   0  0  0  0  0  0  0  0  0  0  0  0
  1  3  2  0  0  0  0
  1  4  2  0  0  0  0
  1  8  1  0  0  0  0
  1 17  1  0  0  0  0
  2 11  1  0  0  0  0
  2 16  1  0  0  0  0
  5 22  1  0  0  0  0
  5 34  1  0  0  0  0
  6  9  1  0  0  0  0
  7  9  2  0  0  0  0
  8 10  1  0  0  0  0
  8 23  1  0  0  0  0
  9 14  1  0  0  0  0
 10 11  2  0  0  0  0
 10 12  1  0  0  0  0
 11 13  1  0  0  0  0
 12 15  2  0  0  0  0
 12 24  1  0  0  0  0
 13 14  2  0  0  0  0
 13 25  1  0  0  0  0
 14 15  1  0  0  0  0
 15 26  1  0  0  0  0
 16 18  2  0  0  0  0
 16 19  1  0  0  0  0
 17 27  1  0  0  0  0
 17 28  1  0  0  0  0
 17 29  1  0  0  0  0
 18 20  1  0  0  0  0
 18 30  1  0  0  0  0
 19 21  2  0  0  0  0
 19 31  1  0  0  0  0
 20 22  2  0  0  0  0
 20 32  1  0  0  0  0
 21 22  1  0  0  0  0
 21 33  1  0  0  0  0
M  CHG  2   6  -1   9   1
M  END
> <PUBCHEM_COMPOUND_CID>
130995

> <PUBCHEM_CONFORMER_RMSD>
0.8

> <PUBCHEM_CONFORMER_DIVERSEORDER>
1
13
36
35
46
8
22
12
38
41
37
7
19
39
29
16
32
17
40
43
10
44
27
9
18
28
42
11
45
48
14
2
47
33
34
30
15
5
21
20
25
3
4
24
6
31
26
23

> <PUBCHEM_MMFF94_PARTIAL_CHARGES>
31
1 1.33
10 0.2
11 0.08
12 -0.15
13 -0.15
14 0.13
15 -0.15
16 0.08
17 0.11
18 -0.15
19 -0.15
2 -0.17
20 -0.15
21 -0.15
22 0.08
23 0.42
24 0.15
25 0.15
26 0.15
3 -0.65
30 0.15
31 0.15
32 0.15
33 0.15
34 0.45
4 -0.65
5 -0.53
6 -0.52
7 -0.52
8 -0.76
9 0.91

> <PUBCHEM_EFFECTIVE_ROTOR_COUNT>
5

> <PUBCHEM_PHARMACOPHORE_FEATURES>
10
1 2 acceptor
1 3 acceptor
1 4 acceptor
1 5 donor
1 6 acceptor
1 6 anion
1 7 acceptor
1 8 donor
6 10 11 12 13 14 15 rings
6 16 18 19 20 21 22 rings

> <PUBCHEM_HEAVY_ATOM_COUNT>
22

> <PUBCHEM_ATOM_DEF_STEREO_COUNT>
0

> <PUBCHEM_ATOM_UDEF_STEREO_COUNT>
0

> <PUBCHEM_BOND_DEF_STEREO_COUNT>
0

> <PUBCHEM_BOND_UDEF_STEREO_COUNT>
0

> <PUBCHEM_ISOTOPIC_ATOM_COUNT>
0

> <PUBCHEM_COMPONENT_COUNT>
1

> <PUBCHEM_CACTVS_TAUTO_COUNT>
2

> <PUBCHEM_CONFORMER_ID>
0001FFB300000001

> <PUBCHEM_MMFF94_ENERGY>
72.689

> <PUBCHEM_FEATURE_SELFOVERLAP>
50.846

> <PUBCHEM_SHAPE_FINGERPRINT>
107951 10 18340494391215662798
1100329 8 18124032321849110322
11582403 64 16264259118260113552
11796584 16 18413112745897212878
12173636 292 18410003330216871629
12363563 72 17691124155523497374
12500047 106 18412262835655501284
12532896 13 18341612590267021229
12553582 1 17685777217492507034
12788726 201 18118693359250083110
13140716 1 18266170626324271051
133893 2 17684057237851258247
13681431 1 17185879394009905289
14178342 30 18264469854251686306
14251757 5 18267595774019910772
15042514 8 18193000537352551083
15463212 79 18335696148368510608
16752209 62 18337376244884724867
167882 2 17904194833093421397
18785283 64 17901954041090712907
19591789 44 18339362946722272703
20510252 161 18270110339980166841
20600515 1 17470400434631434565
21452121 199 17472411527144534308
21524375 3 18271526377760034541
22849341 161 17615429377258400099
23366157 5 17756142285409604947
23419403 2 17193535465520987751
23557571 272 17906158908737084632
23559900 14 18202282490614045744
283562 15 18412256268729471039
3091708 16 9484575859087713315
458136 41 18123201108290706361
469060 322 18336842973930948353
59755656 520 18411135809860617957
6442390 28 18339934740192477377
81228 2 18198341964771247529
9709674 26 18056471979581793248

> <PUBCHEM_SHAPE_MULTIPOLES>
411.42
7.75
4.71
1.23
9
5.41
-0.13
-6.42
1.28
-6.01
-0.85
0.4
-0.41
-0.32

> <PUBCHEM_SHAPE_SELFOVERLAP>
869.335

> <PUBCHEM_SHAPE_VOLUME>
232.2

> <PUBCHEM_COORDINATE_TYPE>
2
5
10

$$$$
