131016
  -OEChem-03292013323D

 77 78  0     1  0  0  0  0  0999 V2000
    1.7703    1.1538    0.0232 O   0  0  0  0  0  0  0  0  0  0  0  0
    1.8992   -1.1958   -0.2804 O   0  0  0  0  0  0  0  0  0  0  0  0
    3.6583   -0.5858   -2.5702 O   0  0  0  0  0  0  0  0  0  0  0  0
    4.5367   -2.4836   -0.5475 O   0  0  0  0  0  0  0  0  0  0  0  0
   -2.4907   -2.8527    1.0789 O   0  0  0  0  0  0  0  0  0  0  0  0
    5.8869    0.0051   -0.8996 N   0  0  0  0  0  0  0  0  0  0  0  0
   -2.4111   -0.5825    1.5693 N   0  0  0  0  0  0  0  0  0  0  0  0
    0.3748    1.4732    0.0194 C   0  0  1  0  0  0  0  0  0  0  0  0
   -0.0693    1.9357    1.4310 C   0  0  1  0  0  0  0  0  0  0  0  0
    0.1317    2.4630   -1.1353 C   0  0  0  0  0  0  0  0  0  0  0  0
    2.0621    0.0936   -0.8818 C   0  0  2  0  0  0  0  0  0  0  0  0
   -1.3090    2.9471   -1.3421 C   0  0  0  0  0  0  0  0  0  0  0  0
    0.3797    0.9642    2.5511 C   0  0  0  0  0  0  0  0  0  0  0  0
    3.4823    0.2640   -1.4366 C   0  0  1  0  0  0  0  0  0  0  0  0
   -2.3772    1.8454   -1.4874 C   0  0  2  0  0  0  0  0  0  0  0  0
    4.5304   -0.0482   -0.3551 C   0  0  1  0  0  0  0  0  0  0  0  0
    4.2587   -1.3956    0.3326 C   0  0  1  0  0  0  0  0  0  0  0  0
    0.4687    3.3323    1.7871 C   0  0  0  0  0  0  0  0  0  0  0  0
    2.7975   -1.4536    0.8063 C   0  0  2  0  0  0  0  0  0  0  0  0
   -2.1435    0.9539   -2.7211 C   0  0  0  0  0  0  0  0  0  0  0  0
   -0.1049   -0.4902    2.4663 C   0  0  0  0  0  0  0  0  0  0  0  0
   -2.9700   -0.3429   -2.7568 C   0  0  0  0  0  0  0  0  0  0  0  0
   -2.5965   -1.3314   -1.6421 C   0  0  0  0  0  0  0  0  0  0  0  0
   -3.7654    2.4952   -1.5354 C   0  0  0  0  0  0  0  0  0  0  0  0
   -3.5617   -1.3087   -0.4416 C   0  0  2  0  0  0  0  0  0  0  0  0
   -1.5931   -0.6788    2.7622 C   0  0  0  0  0  0  0  0  0  0  0  0
   -0.0489    3.7917    3.1342 C   0  0  0  0  0  0  0  0  0  0  0  0
    2.4287   -2.8144    1.3869 C   0  0  0  0  0  0  0  0  0  0  0  0
   -2.7826   -1.6878    0.8154 C   0  0  0  0  0  0  0  0  0  0  0  0
   -4.7353   -2.2652   -0.6461 C   0  0  0  0  0  0  0  0  0  0  0  0
   -5.7066   -2.2007    0.5152 C   0  0  0  0  0  0  0  0  0  0  0  0
   -0.1908    0.5582   -0.1932 H   0  0  0  0  0  0  0  0  0  0  0  0
   -1.1642    1.9931    1.4394 H   0  0  0  0  0  0  0  0  0  0  0  0
    0.4915    2.0339   -2.0772 H   0  0  0  0  0  0  0  0  0  0  0  0
    0.7786    3.3398   -0.9995 H   0  0  0  0  0  0  0  0  0  0  0  0
    1.3777    0.1038   -1.7380 H   0  0  0  0  0  0  0  0  0  0  0  0
   -1.5820    3.5940   -0.4995 H   0  0  0  0  0  0  0  0  0  0  0  0
   -1.3296    3.5902   -2.2318 H   0  0  0  0  0  0  0  0  0  0  0  0
    0.0448    1.3252    3.5288 H   0  0  0  0  0  0  0  0  0  0  0  0
    1.4755    0.9604    2.6006 H   0  0  0  0  0  0  0  0  0  0  0  0
    3.6113    1.2973   -1.7827 H   0  0  0  0  0  0  0  0  0  0  0  0
   -2.3351    1.2336   -0.5874 H   0  0  0  0  0  0  0  0  0  0  0  0
    4.4567    0.7358    0.4100 H   0  0  0  0  0  0  0  0  0  0  0  0
    4.9254   -1.5136    1.1950 H   0  0  0  0  0  0  0  0  0  0  0  0
    0.1405    4.0641    1.0426 H   0  0  0  0  0  0  0  0  0  0  0  0
    1.5649    3.3454    1.7853 H   0  0  0  0  0  0  0  0  0  0  0  0
    2.6468   -0.6972    1.5822 H   0  0  0  0  0  0  0  0  0  0  0  0
   -1.0881    0.6688   -2.7886 H   0  0  0  0  0  0  0  0  0  0  0  0
   -2.3587    1.5305   -3.6299 H   0  0  0  0  0  0  0  0  0  0  0  0
    0.1338   -0.9288    1.4979 H   0  0  0  0  0  0  0  0  0  0  0  0
    0.4543   -1.0524    3.2248 H   0  0  0  0  0  0  0  0  0  0  0  0
   -2.7552   -0.8282   -3.7180 H   0  0  0  0  0  0  0  0  0  0  0  0
   -4.0436   -0.1295   -2.7611 H   0  0  0  0  0  0  0  0  0  0  0  0
   -2.5879   -2.3438   -2.0678 H   0  0  0  0  0  0  0  0  0  0  0  0
   -1.5645   -1.1475   -1.3182 H   0  0  0  0  0  0  0  0  0  0  0  0
   -3.8745    3.1312   -2.4204 H   0  0  0  0  0  0  0  0  0  0  0  0
   -4.5611    1.7451   -1.5574 H   0  0  0  0  0  0  0  0  0  0  0  0
   -3.9321    3.1184   -0.6501 H   0  0  0  0  0  0  0  0  0  0  0  0
   -3.9679   -0.3001   -0.3087 H   0  0  0  0  0  0  0  0  0  0  0  0
   -1.7491   -1.6708    3.2008 H   0  0  0  0  0  0  0  0  0  0  0  0
   -1.9600    0.0628    3.4789 H   0  0  0  0  0  0  0  0  0  0  0  0
   -1.1223    3.6085    3.2463 H   0  0  0  0  0  0  0  0  0  0  0  0
    0.4849    3.3241    3.9665 H   0  0  0  0  0  0  0  0  0  0  0  0
    0.1120    4.8708    3.2382 H   0  0  0  0  0  0  0  0  0  0  0  0
    2.5103   -3.6041    0.6320 H   0  0  0  0  0  0  0  0  0  0  0  0
    3.0746   -3.0703    2.2322 H   0  0  0  0  0  0  0  0  0  0  0  0
    1.3897   -2.8327    1.7274 H   0  0  0  0  0  0  0  0  0  0  0  0
    6.0234   -0.7641   -1.5546 H   0  0  0  0  0  0  0  0  0  0  0  0
    6.5588   -0.1523   -0.1489 H   0  0  0  0  0  0  0  0  0  0  0  0
    4.5275   -0.3822   -2.9549 H   0  0  0  0  0  0  0  0  0  0  0  0
   -2.7330    0.3406    1.2997 H   0  0  0  0  0  0  0  0  0  0  0  0
    3.9188   -2.4261   -1.2960 H   0  0  0  0  0  0  0  0  0  0  0  0
   -4.3850   -3.2983   -0.7607 H   0  0  0  0  0  0  0  0  0  0  0  0
   -5.2676   -2.0048   -1.5685 H   0  0  0  0  0  0  0  0  0  0  0  0
   -5.2575   -2.5532    1.4486 H   0  0  0  0  0  0  0  0  0  0  0  0
   -6.0695   -1.1796    0.6717 H   0  0  0  0  0  0  0  0  0  0  0  0
   -6.5753   -2.8353    0.3109 H   0  0  0  0  0  0  0  0  0  0  0  0
  1  8  1  0  0  0  0
  1 11  1  0  0  0  0
  2 11  1  0  0  0  0
  2 19  1  0  0  0  0
  3 14  1  0  0  0  0
  3 70  1  0  0  0  0
  4 17  1  0  0  0  0
  4 72  1  0  0  0  0
  5 29  2  0  0  0  0
  6 16  1  0  0  0  0
  6 68  1  0  0  0  0
  6 69  1  0  0  0  0
  7 26  1  0  0  0  0
  7 29  1  0  0  0  0
  7 71  1  0  0  0  0
  8  9  1  0  0  0  0
  8 10  1  0  0  0  0
  8 32  1  0  0  0  0
  9 13  1  0  0  0  0
  9 18  1  0  0  0  0
  9 33  1  0  0  0  0
 10 12  1  0  0  0  0
 10 34  1  0  0  0  0
 10 35  1  0  0  0  0
 11 14  1  0  0  0  0
 11 36  1  0  0  0  0
 12 15  1  0  0  0  0
 12 37  1  0  0  0  0
 12 38  1  0  0  0  0
 13 21  1  0  0  0  0
 13 39  1  0  0  0  0
 13 40  1  0  0  0  0
 14 16  1  0  0  0  0
 14 41  1  0  0  0  0
 15 20  1  0  0  0  0
 15 24  1  0  0  0  0
 15 42  1  0  0  0  0
 16 17  1  0  0  0  0
 16 43  1  0  0  0  0
 17 19  1  0  0  0  0
 17 44  1  0  0  0  0
 18 27  1  0  0  0  0
 18 45  1  0  0  0  0
 18 46  1  0  0  0  0
 19 28  1  0  0  0  0
 19 47  1  0  0  0  0
 20 22  1  0  0  0  0
 20 48  1  0  0  0  0
 20 49  1  0  0  0  0
 21 26  1  0  0  0  0
 21 50  1  0  0  0  0
 21 51  1  0  0  0  0
 22 23  1  0  0  0  0
 22 52  1  0  0  0  0
 22 53  1  0  0  0  0
 23 25  1  0  0  0  0
 23 54  1  0  0  0  0
 23 55  1  0  0  0  0
 24 56  1  0  0  0  0
 24 57  1  0  0  0  0
 24 58  1  0  0  0  0
 25 29  1  0  0  0  0
 25 30  1  0  0  0  0
 25 59  1  0  0  0  0
 26 60  1  0  0  0  0
 26 61  1  0  0  0  0
 27 62  1  0  0  0  0
 27 63  1  0  0  0  0
 27 64  1  0  0  0  0
 28 65  1  0  0  0  0
 28 66  1  0  0  0  0
 28 67  1  0  0  0  0
 30 31  1  0  0  0  0
 30 73  1  0  0  0  0
 30 74  1  0  0  0  0
 31 75  1  0  0  0  0
 31 76  1  0  0  0  0
 31 77  1  0  0  0  0
M  END
> <PUBCHEM_COMPOUND_CID>
131016

> <PUBCHEM_CONFORMER_RMSD>
1

> <PUBCHEM_CONFORMER_DIVERSEORDER>
4
113
5
66
117
39
52
76
69
111
126
115
121
27
94
8
103
72
56
3
36
74
28
104
120
6
99
91
101
34
44
49
112
89
60
45
98
123
119
122
107
73
33
41
63
80
21
88
62
105
48
38
84
109
75
71
85
70
68
110
79
32
116
1
93
100
125
35
87
54
2
57
64
46
102
24
25
55
19
43
127
20
31
96
95
78
42
51
108
81
10
83
14
124
18
67
53
97
37
17
77
12
90
114
9
65
23
106
118
13
22
15
26
86
61
82
30
40
11
47
7
50
16
29
92
58
59

> <PUBCHEM_MMFF94_PARTIAL_CHARGES>
21
1 -0.56
11 0.56
14 0.28
16 0.27
17 0.28
19 0.28
2 -0.56
25 0.06
26 0.3
29 0.57
3 -0.68
4 -0.68
5 -0.57
6 -0.99
68 0.36
69 0.36
7 -0.73
70 0.4
71 0.37
72 0.4
8 0.28

> <PUBCHEM_EFFECTIVE_ROTOR_COUNT>
7.8

> <PUBCHEM_PHARMACOPHORE_FEATURES>
13
1 1 acceptor
1 2 acceptor
1 27 hydrophobe
1 3 acceptor
1 3 donor
1 31 hydrophobe
1 4 acceptor
1 4 donor
1 5 acceptor
1 6 cation
1 6 donor
1 7 donor
6 2 11 14 16 17 19 rings

> <PUBCHEM_HEAVY_ATOM_COUNT>
31

> <PUBCHEM_ATOM_DEF_STEREO_COUNT>
9

> <PUBCHEM_ATOM_UDEF_STEREO_COUNT>
0

> <PUBCHEM_BOND_DEF_STEREO_COUNT>
0

> <PUBCHEM_BOND_UDEF_STEREO_COUNT>
0

> <PUBCHEM_ISOTOPIC_ATOM_COUNT>
0

> <PUBCHEM_COMPONENT_COUNT>
1

> <PUBCHEM_CACTVS_TAUTO_COUNT>
2

> <PUBCHEM_CONFORMER_ID>
0001FFC800000004

> <PUBCHEM_MMFF94_ENERGY>
67.0673

> <PUBCHEM_FEATURE_SELFOVERLAP>
66.02

> <PUBCHEM_SHAPE_FINGERPRINT>
10764073 3 11167403698598742872
11578080 2 18201424900528087976
12166972 35 16486107635563140349
12633257 1 16844732070545679743
12788726 201 17772178709360866600
131258 38 17129289046684262999
133893 2 17128709569579946305
14251740 79 17095520690709868694
14251757 17 17531238457258204206
1813 80 17632301206580630114
20600515 1 16341129257649908924
21304303 94 17679556984071788557
23419403 2 18270950362463728408
2818148 4 17822837690404289209
3027735 51 17968950690375123810
35225 105 16699499541736501866
469060 322 18339094742893716246
484985 159 17913512158714134135
513532 50 17975386308622098531
6823239 73 17679015156936430939

> <PUBCHEM_SHAPE_MULTIPOLES>
598.66
9.29
4.01
3.2
2.81
2.17
0.91
-8.01
-4.45
-1.66
1.81
-0.93
1.61
1.45

> <PUBCHEM_SHAPE_SELFOVERLAP>
1180.843

> <PUBCHEM_SHAPE_VOLUME>
354

> <PUBCHEM_COORDINATE_TYPE>
2
5
10

$$$$
