131021
  -OEChem-03292013323D

 57 58  0     1  0  0  0  0  0999 V2000
    3.0168    1.6493    0.9583 O   0  0  0  0  0  0  0  0  0  0  0  0
   -1.1872    1.6322   -0.1245 O   0  0  0  0  0  0  0  0  0  0  0  0
    4.3174   -0.8969    0.9028 O   0  0  0  0  0  0  0  0  0  0  0  0
   -2.2081   -0.9174    0.0082 O   0  0  0  0  0  0  0  0  0  0  0  0
   -0.3067   -2.3508   -1.0101 O   0  0  0  0  0  0  0  0  0  0  0  0
    3.2758    3.6997   -0.0561 O   0  0  0  0  0  0  0  0  0  0  0  0
   -2.3752    2.4901    1.6506 O   0  0  0  0  0  0  0  0  0  0  0  0
   -2.6145   -3.1596   -0.3715 O   0  0  0  0  0  0  0  0  0  0  0  0
    1.1073    0.8381   -0.1711 C   0  0  1  0  0  0  0  0  0  0  0  0
    2.3355    0.4040    0.6321 C   0  0  1  0  0  0  0  0  0  0  0  0
   -0.1201    1.1709    0.7095 C   0  0  2  0  0  0  0  0  0  0  0  0
    3.3605   -0.4996   -0.0882 C   0  0  2  0  0  0  0  0  0  0  0  0
    2.8177   -1.7529   -0.8203 C   0  0  2  0  0  0  0  0  0  0  0  0
   -0.6528    0.0346    1.6135 C   0  0  0  0  0  0  0  0  0  0  0  0
   -1.1905   -1.2528    0.9496 C   0  0  2  0  0  0  0  0  0  0  0  0
    2.2797   -2.8960    0.0732 C   0  0  0  0  0  0  0  0  0  0  0  0
    1.6543    2.0762   -0.8093 C   0  0  0  0  0  0  0  0  0  0  0  0
    1.0599   -2.6028    0.9462 C   0  0  0  0  0  0  0  0  0  0  0  0
   -0.1424   -2.0690    0.1798 C   0  0  0  0  0  0  0  0  0  0  0  0
    2.7391    2.6110    0.0325 C   0  0  0  0  0  0  0  0  0  0  0  0
    3.9279   -2.3445   -1.7132 C   0  0  0  0  0  0  0  0  0  0  0  0
   -1.8328   -2.1638    2.0028 C   0  0  0  0  0  0  0  0  0  0  0  0
    1.3170    2.6326   -1.9748 C   0  0  0  0  0  0  0  0  0  0  0  0
   -2.3202    2.0162    0.5246 C   0  0  0  0  0  0  0  0  0  0  0  0
   -2.8409   -1.9753   -0.5791 C   0  0  0  0  0  0  0  0  0  0  0  0
   -3.5025    1.7706   -0.3474 C   0  0  0  0  0  0  0  0  0  0  0  0
   -3.8783   -1.4747   -1.5379 C   0  0  0  0  0  0  0  0  0  0  0  0
   -3.3703    1.8405   -1.8380 C   0  0  0  0  0  0  0  0  0  0  0  0
   -4.6659    1.4900    0.2579 C   0  0  0  0  0  0  0  0  0  0  0  0
    0.8068    0.1285   -0.9425 H   0  0  0  0  0  0  0  0  0  0  0  0
    2.0841   -0.0276    1.5998 H   0  0  0  0  0  0  0  0  0  0  0  0
    0.1571    2.0042    1.3722 H   0  0  0  0  0  0  0  0  0  0  0  0
    3.9129    0.1185   -0.8079 H   0  0  0  0  0  0  0  0  0  0  0  0
    2.0332   -1.4428   -1.5161 H   0  0  0  0  0  0  0  0  0  0  0  0
    0.1263   -0.2277    2.3366 H   0  0  0  0  0  0  0  0  0  0  0  0
   -1.4622    0.4216    2.2426 H   0  0  0  0  0  0  0  0  0  0  0  0
    3.0848   -3.2610    0.7238 H   0  0  0  0  0  0  0  0  0  0  0  0
    2.0202   -3.7421   -0.5784 H   0  0  0  0  0  0  0  0  0  0  0  0
    1.3344   -1.9317    1.7572 H   0  0  0  0  0  0  0  0  0  0  0  0
    0.7392   -3.5370    1.4233 H   0  0  0  0  0  0  0  0  0  0  0  0
    4.3399   -1.5817   -2.3823 H   0  0  0  0  0  0  0  0  0  0  0  0
    4.7490   -2.7614   -1.1213 H   0  0  0  0  0  0  0  0  0  0  0  0
    3.5289   -3.1488   -2.3413 H   0  0  0  0  0  0  0  0  0  0  0  0
   -1.2708   -2.1110    2.9439 H   0  0  0  0  0  0  0  0  0  0  0  0
   -2.8647   -1.8669    2.2233 H   0  0  0  0  0  0  0  0  0  0  0  0
   -1.8308   -3.2273    1.7443 H   0  0  0  0  0  0  0  0  0  0  0  0
    5.0841   -1.2766    0.4423 H   0  0  0  0  0  0  0  0  0  0  0  0
    0.5321    2.2006   -2.5867 H   0  0  0  0  0  0  0  0  0  0  0  0
    1.8092    3.5245   -2.3469 H   0  0  0  0  0  0  0  0  0  0  0  0
   -3.4097   -0.8894   -2.3287 H   0  0  0  0  0  0  0  0  0  0  0  0
   -4.6535   -0.9219   -1.0103 H   0  0  0  0  0  0  0  0  0  0  0  0
   -4.3570   -2.3378   -2.0123 H   0  0  0  0  0  0  0  0  0  0  0  0
   -3.1299    2.8656   -2.1397 H   0  0  0  0  0  0  0  0  0  0  0  0
   -2.5705    1.1893   -2.2016 H   0  0  0  0  0  0  0  0  0  0  0  0
   -4.2958    1.5538   -2.3481 H   0  0  0  0  0  0  0  0  0  0  0  0
   -5.5674    1.3084   -0.3185 H   0  0  0  0  0  0  0  0  0  0  0  0
   -4.7561    1.4329    1.3377 H   0  0  0  0  0  0  0  0  0  0  0  0
  1 10  1  0  0  0  0
  1 20  1  0  0  0  0
  2 11  1  0  0  0  0
  2 24  1  0  0  0  0
  3 12  1  0  0  0  0
  3 47  1  0  0  0  0
  4 15  1  0  0  0  0
  4 25  1  0  0  0  0
  5 19  2  0  0  0  0
  6 20  2  0  0  0  0
  7 24  2  0  0  0  0
  8 25  2  0  0  0  0
  9 10  1  0  0  0  0
  9 11  1  0  0  0  0
  9 17  1  0  0  0  0
  9 30  1  0  0  0  0
 10 12  1  0  0  0  0
 10 31  1  0  0  0  0
 11 14  1  0  0  0  0
 11 32  1  0  0  0  0
 12 13  1  0  0  0  0
 12 33  1  0  0  0  0
 13 16  1  0  0  0  0
 13 21  1  0  0  0  0
 13 34  1  0  0  0  0
 14 15  1  0  0  0  0
 14 35  1  0  0  0  0
 14 36  1  0  0  0  0
 15 19  1  0  0  0  0
 15 22  1  0  0  0  0
 16 18  1  0  0  0  0
 16 37  1  0  0  0  0
 16 38  1  0  0  0  0
 17 20  1  0  0  0  0
 17 23  2  0  0  0  0
 18 19  1  0  0  0  0
 18 39  1  0  0  0  0
 18 40  1  0  0  0  0
 21 41  1  0  0  0  0
 21 42  1  0  0  0  0
 21 43  1  0  0  0  0
 22 44  1  0  0  0  0
 22 45  1  0  0  0  0
 22 46  1  0  0  0  0
 23 48  1  0  0  0  0
 23 49  1  0  0  0  0
 24 26  1  0  0  0  0
 25 27  1  0  0  0  0
 26 28  1  0  0  0  0
 26 29  2  0  0  0  0
 27 50  1  0  0  0  0
 27 51  1  0  0  0  0
 27 52  1  0  0  0  0
 28 53  1  0  0  0  0
 28 54  1  0  0  0  0
 28 55  1  0  0  0  0
 29 56  1  0  0  0  0
 29 57  1  0  0  0  0
M  END
> <PUBCHEM_COMPOUND_CID>
131021

> <PUBCHEM_CONFORMER_RMSD>
0.8

> <PUBCHEM_CONFORMER_DIVERSEORDER>
1
17
10
4
22
16
24
12
14
26
29
18
23
27
5
20
28
15
8
2
3
25
13
7
6
21
19
9
11

> <PUBCHEM_MMFF94_PARTIAL_CHARGES>
29
1 -0.43
10 0.28
11 0.28
12 0.28
15 0.34
17 -0.12
18 0.06
19 0.45
2 -0.43
20 0.71
23 -0.3
24 0.71
25 0.66
26 -0.12
27 0.06
28 0.14
29 -0.3
3 -0.68
4 -0.43
47 0.4
48 0.15
49 0.15
5 -0.57
56 0.15
57 0.15
6 -0.57
7 -0.57
8 -0.57
9 0.14

> <PUBCHEM_EFFECTIVE_ROTOR_COUNT>
6.6

> <PUBCHEM_PHARMACOPHORE_FEATURES>
7
1 3 acceptor
1 3 donor
1 5 acceptor
1 6 acceptor
1 7 acceptor
1 8 acceptor
5 1 9 10 17 20 rings

> <PUBCHEM_HEAVY_ATOM_COUNT>
29

> <PUBCHEM_ATOM_DEF_STEREO_COUNT>
6

> <PUBCHEM_ATOM_UDEF_STEREO_COUNT>
0

> <PUBCHEM_BOND_DEF_STEREO_COUNT>
0

> <PUBCHEM_BOND_UDEF_STEREO_COUNT>
0

> <PUBCHEM_ISOTOPIC_ATOM_COUNT>
0

> <PUBCHEM_COMPONENT_COUNT>
1

> <PUBCHEM_CACTVS_TAUTO_COUNT>
2

> <PUBCHEM_CONFORMER_ID>
0001FFCD00000001

> <PUBCHEM_MMFF94_ENERGY>
94.1265

> <PUBCHEM_FEATURE_SELFOVERLAP>
35.541

> <PUBCHEM_SHAPE_FINGERPRINT>
1100329 8 18411136892155277689
11370993 70 18266730475622716168
11513181 2 17917710201799917166
11578080 2 17345736607999234155
12035758 1 18263082128553628376
12553582 1 18050012090975574080
12788726 201 18051410970044804353
13140716 1 18335990825926976896
13149001 5 18265910076428057582
13583140 156 17822860762562551779
14955137 171 17550137786787354425
15420108 30 17477762386312569489
16752209 62 18194122051643921897
16945 1 18054499210554811267
17492 54 17974576796953367983
17980427 23 18195214863655395264
19591789 44 17762339115278714466
20691752 17 17968086483078489407
20715895 44 18117252917977502511
20905425 154 18199473340376628119
21285901 2 18119233211391671975
23227448 37 18411698751672588231
2334 1 18336838605353102384
23558518 356 18188775070895075049
23559900 14 18272643559236850336
23566358 2 18340758299934180159
2748010 2 18335994133252001304
3027735 51 18123761004326960917
3060560 45 18118395142680828177
338550 245 18409172099848259405
350125 39 18337407009693222705
4280585 95 18197222452093087358
70251023 43 18342189885338306491
9709674 26 18412263956135569746

> <PUBCHEM_SHAPE_MULTIPOLES>
549.85
7.33
4.47
1.64
1.14
0.46
0.18
0.66
1.66
-1.14
0.53
0.45
-0.09
0.18

> <PUBCHEM_SHAPE_SELFOVERLAP>
1146.839

> <PUBCHEM_SHAPE_VOLUME>
308.6

> <PUBCHEM_COORDINATE_TYPE>
2
5
10

$$$$
