131062
  -OEChem-03292013323D

 28 28  0     0  0  0  0  0  0999 V2000
    2.7137    1.6731    0.0209 S   0  0  0  0  0  0  0  0  0  0  0  0
    2.7273   -1.6557   -0.0088 S   0  0  0  0  0  0  0  0  0  0  0  0
   -2.7163    1.6478   -0.0100 S   0  0  0  0  0  0  0  0  0  0  0  0
   -2.7143   -1.6579    0.0173 S   0  0  0  0  0  0  0  0  0  0  0  0
   -0.0044    2.6697   -0.0371 O   0  0  0  0  0  0  0  0  0  0  0  0
    0.0159   -2.6738    0.0088 O   0  0  0  0  0  0  0  0  0  0  0  0
    1.2835    0.6742   -0.0056 C   0  0  0  0  0  0  0  0  0  0  0  0
    1.2892   -0.6683    0.0057 C   0  0  0  0  0  0  0  0  0  0  0  0
   -1.2752    0.6639   -0.0066 C   0  0  0  0  0  0  0  0  0  0  0  0
   -1.2697   -0.6789    0.0047 C   0  0  0  0  0  0  0  0  0  0  0  0
    0.0011    1.4396   -0.0180 C   0  0  0  0  0  0  0  0  0  0  0  0
    0.0131   -1.4437    0.0060 C   0  0  0  0  0  0  0  0  0  0  0  0
    2.9089    1.8546    1.8042 C   0  0  0  0  0  0  0  0  0  0  0  0
    2.9390   -1.8356   -1.7904 C   0  0  0  0  0  0  0  0  0  0  0  0
   -2.9625    1.7968   -1.7899 C   0  0  0  0  0  0  0  0  0  0  0  0
   -2.9494   -1.8060    1.7987 C   0  0  0  0  0  0  0  0  0  0  0  0
    2.0314    2.3384    2.2422 H   0  0  0  0  0  0  0  0  0  0  0  0
    3.7841    2.4771    2.0091 H   0  0  0  0  0  0  0  0  0  0  0  0
    3.0585    0.8821    2.2812 H   0  0  0  0  0  0  0  0  0  0  0  0
    2.0691   -2.3265   -2.2358 H   0  0  0  0  0  0  0  0  0  0  0  0
    3.8209   -2.4510   -1.9879 H   0  0  0  0  0  0  0  0  0  0  0  0
    3.0846   -0.8619   -2.2661 H   0  0  0  0  0  0  0  0  0  0  0  0
   -3.1172    0.8156   -2.2470 H   0  0  0  0  0  0  0  0  0  0  0  0
   -2.1015    2.2801   -2.2601 H   0  0  0  0  0  0  0  0  0  0  0  0
   -3.8481    2.4090   -1.9808 H   0  0  0  0  0  0  0  0  0  0  0  0
   -3.8351   -2.4160    1.9954 H   0  0  0  0  0  0  0  0  0  0  0  0
   -3.0986   -0.8244    2.2567 H   0  0  0  0  0  0  0  0  0  0  0  0
   -2.0863   -2.2914    2.2632 H   0  0  0  0  0  0  0  0  0  0  0  0
  1  7  1  0  0  0  0
  1 13  1  0  0  0  0
  2  8  1  0  0  0  0
  2 14  1  0  0  0  0
  3  9  1  0  0  0  0
  3 15  1  0  0  0  0
  4 10  1  0  0  0  0
  4 16  1  0  0  0  0
  5 11  2  0  0  0  0
  6 12  2  0  0  0  0
  7  8  2  0  0  0  0
  7 11  1  0  0  0  0
  8 12  1  0  0  0  0
  9 10  2  0  0  0  0
  9 11  1  0  0  0  0
 10 12  1  0  0  0  0
 13 17  1  0  0  0  0
 13 18  1  0  0  0  0
 13 19  1  0  0  0  0
 14 20  1  0  0  0  0
 14 21  1  0  0  0  0
 14 22  1  0  0  0  0
 15 23  1  0  0  0  0
 15 24  1  0  0  0  0
 15 25  1  0  0  0  0
 16 26  1  0  0  0  0
 16 27  1  0  0  0  0
 16 28  1  0  0  0  0
M  END
> <PUBCHEM_COMPOUND_CID>
131062

> <PUBCHEM_CONFORMER_RMSD>
0.6

> <PUBCHEM_CONFORMER_DIVERSEORDER>
3
10
8
4
5
6
9
11
7
2
1

> <PUBCHEM_MMFF94_PARTIAL_CHARGES>
16
1 -0.33
10 0.12
11 0.54
12 0.54
13 0.23
14 0.23
15 0.23
16 0.23
2 -0.33
3 -0.33
4 -0.33
5 -0.57
6 -0.57
7 0.12
8 0.12
9 0.12

> <PUBCHEM_EFFECTIVE_ROTOR_COUNT>
4

> <PUBCHEM_PHARMACOPHORE_FEATURES>
7
1 13 hydrophobe
1 14 hydrophobe
1 15 hydrophobe
1 16 hydrophobe
1 5 acceptor
1 6 acceptor
6 7 8 9 10 11 12 rings

> <PUBCHEM_HEAVY_ATOM_COUNT>
16

> <PUBCHEM_ATOM_DEF_STEREO_COUNT>
0

> <PUBCHEM_ATOM_UDEF_STEREO_COUNT>
0

> <PUBCHEM_BOND_DEF_STEREO_COUNT>
0

> <PUBCHEM_BOND_UDEF_STEREO_COUNT>
0

> <PUBCHEM_ISOTOPIC_ATOM_COUNT>
0

> <PUBCHEM_COMPONENT_COUNT>
1

> <PUBCHEM_CACTVS_TAUTO_COUNT>
1

> <PUBCHEM_CONFORMER_ID>
0001FFF600000003

> <PUBCHEM_MMFF94_ENERGY>
45.7917

> <PUBCHEM_FEATURE_SELFOVERLAP>
35.523

> <PUBCHEM_SHAPE_FINGERPRINT>
10967382 1 18122343471603009950
11132069 177 17981321506231262936
11680986 33 18411693258303655272
12730499 353 17464524305876440965
13140716 1 18410573946496752433
13380535 21 18410582785539843404
14115302 16 17898018927592893174
14911166 2 18122343480150727487
15219456 202 18342174483816658784
15852999 172 18044627889824427189
161256 15 18340502156679966198
16945 1 18122344566777446438
18186145 218 18193265300574596565
193761 8 18410573989446418437
20511035 2 18410008810510491782
20588541 1 18050576436424205354
20600515 1 18050566240904911786
20645476 183 17388275445614724999
20871998 184 18193266627307878137
21501502 16 18410575088958046208
22182313 1 18410575097553255709
22802520 49 18271533009083765148
2334 1 18410575119028092036
23526113 38 17986106310637642998
23559900 14 18196379118153447694
25 1 17830449488817445413
2748010 2 18410573989451693309
6049 1 18338529585263872359
7364860 26 18131636707659474622
81228 2 18114466751302230969
8809292 202 18189904123418838499

> <PUBCHEM_SHAPE_MULTIPOLES>
332.93
5.34
3.26
1.42
0.08
0
-0.01
-0.01
0.01
-0.07
0
0.01
0
2.4

> <PUBCHEM_SHAPE_SELFOVERLAP>
625.955

> <PUBCHEM_SHAPE_VOLUME>
210.7

> <PUBCHEM_COORDINATE_TYPE>
2
5
10

$$$$
