131004
  -OEChem-03292013323D

 32 31  0     1  0  0  0  0  0999 V2000
    0.8954    0.4490   -0.3787 O   0  0  0  0  0  0  0  0  0  0  0  0
   -2.2063    0.5648    1.5916 O   0  0  0  0  0  0  0  0  0  0  0  0
   -1.8360    2.8627    0.0453 O   0  0  0  0  0  0  0  0  0  0  0  0
   -0.8816   -1.4240   -1.1941 O   0  0  0  0  0  0  0  0  0  0  0  0
   -2.7413   -3.0303   -0.0886 O   0  0  0  0  0  0  0  0  0  0  0  0
    3.6067   -1.5962    0.7938 O   0  0  0  0  0  0  0  0  0  0  0  0
    2.3577   -1.6822   -1.0996 O   0  0  0  0  0  0  0  0  0  0  0  0
   -0.2042    1.0497    0.3094 C   0  0  2  0  0  0  0  0  0  0  0  0
   -1.1941   -0.0366    0.7842 C   0  0  2  0  0  0  0  0  0  0  0  0
   -0.7910    2.1438   -0.6036 C   0  0  2  0  0  0  0  0  0  0  0  0
   -1.8524   -0.7907   -0.3833 C   0  0  2  0  0  0  0  0  0  0  0  0
    0.2510    3.1532   -1.0647 C   0  0  0  0  0  0  0  0  0  0  0  0
    1.9222    0.0726    0.5242 C   0  0  2  0  0  0  0  0  0  0  0  0
   -2.8295   -1.8272    0.1349 C   0  0  0  0  0  0  0  0  0  0  0  0
    2.8814    1.2424    0.6580 C   0  0  0  0  0  0  0  0  0  0  0  0
    2.6219   -1.1512   -0.0286 C   0  0  0  0  0  0  0  0  0  0  0  0
    0.1429    1.5737    1.2124 H   0  0  0  0  0  0  0  0  0  0  0  0
   -0.6558   -0.7575    1.4115 H   0  0  0  0  0  0  0  0  0  0  0  0
   -1.2151    1.6902   -1.5055 H   0  0  0  0  0  0  0  0  0  0  0  0
   -2.4460   -0.1167   -1.0092 H   0  0  0  0  0  0  0  0  0  0  0  0
    1.5167   -0.2152    1.5017 H   0  0  0  0  0  0  0  0  0  0  0  0
    1.0395    2.6844   -1.6607 H   0  0  0  0  0  0  0  0  0  0  0  0
   -0.2184    3.9344   -1.6730 H   0  0  0  0  0  0  0  0  0  0  0  0
    0.7114    3.6595   -0.2093 H   0  0  0  0  0  0  0  0  0  0  0  0
   -2.6070   -0.1333    2.1362 H   0  0  0  0  0  0  0  0  0  0  0  0
   -1.4668    3.2607    0.8520 H   0  0  0  0  0  0  0  0  0  0  0  0
   -3.6833   -1.4348    0.7130 H   0  0  0  0  0  0  0  0  0  0  0  0
    3.7218    1.0004    1.3164 H   0  0  0  0  0  0  0  0  0  0  0  0
    2.3810    2.1284    1.0607 H   0  0  0  0  0  0  0  0  0  0  0  0
    3.2899    1.5249   -0.3191 H   0  0  0  0  0  0  0  0  0  0  0  0
   -0.3280   -1.9808   -0.6204 H   0  0  0  0  0  0  0  0  0  0  0  0
    4.0625   -2.3831    0.4259 H   0  0  0  0  0  0  0  0  0  0  0  0
  1  8  1  0  0  0  0
  1 13  1  0  0  0  0
  2  9  1  0  0  0  0
  2 25  1  0  0  0  0
  3 10  1  0  0  0  0
  3 26  1  0  0  0  0
  4 11  1  0  0  0  0
  4 31  1  0  0  0  0
  5 14  2  0  0  0  0
  6 16  1  0  0  0  0
  6 32  1  0  0  0  0
  7 16  2  0  0  0  0
  8  9  1  0  0  0  0
  8 10  1  0  0  0  0
  8 17  1  0  0  0  0
  9 11  1  0  0  0  0
  9 18  1  0  0  0  0
 10 12  1  0  0  0  0
 10 19  1  0  0  0  0
 11 14  1  0  0  0  0
 11 20  1  0  0  0  0
 12 22  1  0  0  0  0
 12 23  1  0  0  0  0
 12 24  1  0  0  0  0
 13 15  1  0  0  0  0
 13 16  1  0  0  0  0
 13 21  1  0  0  0  0
 14 27  1  0  0  0  0
 15 28  1  0  0  0  0
 15 29  1  0  0  0  0
 15 30  1  0  0  0  0
M  END
> <PUBCHEM_COMPOUND_CID>
131004

> <PUBCHEM_CONFORMER_RMSD>
0.8

> <PUBCHEM_CONFORMER_DIVERSEORDER>
6
19
34
32
44
54
33
68
30
67
64
37
56
52
66
69
14
40
60
57
65
13
27
61
23
42
46
16
10
18
29
36
31
35
62
55
15
53
47
21
49
41
58
28
59
12
38
45
17
50
4
9
43
48
20
63
51
2
70
24
7
25
26
39
3
11
5
8
22
1

> <PUBCHEM_MMFF94_PARTIAL_CHARGES>
19
1 -0.56
10 0.28
11 0.34
13 0.34
14 0.45
16 0.66
2 -0.68
25 0.4
26 0.4
27 0.06
3 -0.68
31 0.4
32 0.5
4 -0.68
5 -0.57
6 -0.65
7 -0.57
8 0.28
9 0.28

> <PUBCHEM_EFFECTIVE_ROTOR_COUNT>
7

> <PUBCHEM_PHARMACOPHORE_FEATURES>
11
1 1 acceptor
1 2 acceptor
1 2 donor
1 3 acceptor
1 3 donor
1 4 acceptor
1 4 donor
1 5 acceptor
1 6 acceptor
1 7 acceptor
3 6 7 16 anion

> <PUBCHEM_HEAVY_ATOM_COUNT>
16

> <PUBCHEM_ATOM_DEF_STEREO_COUNT>
4

> <PUBCHEM_ATOM_UDEF_STEREO_COUNT>
1

> <PUBCHEM_BOND_DEF_STEREO_COUNT>
0

> <PUBCHEM_BOND_UDEF_STEREO_COUNT>
0

> <PUBCHEM_ISOTOPIC_ATOM_COUNT>
0

> <PUBCHEM_COMPONENT_COUNT>
1

> <PUBCHEM_CACTVS_TAUTO_COUNT>
6

> <PUBCHEM_CONFORMER_ID>
0001FFBC00000006

> <PUBCHEM_MMFF94_ENERGY>
29.7105

> <PUBCHEM_FEATURE_SELFOVERLAP>
55.913

> <PUBCHEM_SHAPE_FINGERPRINT>
1 1 17040627293456974277
11322862 65 18051134687846831583
116883 192 18411694387985575397
15422964 175 18337385075264054507
16945 1 18194404394256429594
20645476 183 17539430738192740430
20645477 70 17614270492029071375
20871998 184 18119540833675690409
20871998 22 18337106894637620459
21501502 16 18336543829231895512
21524375 3 17321824153892651397
23388829 49 18053662761268392269
23419403 2 17414110808077395433
23526113 38 17829004962250660079
23598291 2 17909855432643742413
23728640 28 17757813542741381922
25 1 9150358447711191498
257057 1 18336538416955625211
2748010 2 18413101766778947974
3060560 45 17037815314355237101
6338986 31 18336261353036993115
7364860 26 17760928850209043213
81228 2 18336538339878634465

> <PUBCHEM_SHAPE_MULTIPOLES>
288.19
4.74
3.45
1.09
1.22
1.65
0.04
-3.8
0.88
-0.87
-0.95
-0.06
0.1
-0.23

> <PUBCHEM_SHAPE_SELFOVERLAP>
558.368

> <PUBCHEM_SHAPE_VOLUME>
174

> <PUBCHEM_COORDINATE_TYPE>
2
5
10

$$$$
