131057
  -OEChem-03292013323D

 36 36  0     1  0  0  0  0  0999 V2000
    0.0240   -0.9716    1.7096 O   0  0  0  0  0  0  0  0  0  0  0  0
   -1.0749   -2.5464   -1.3247 O   0  0  0  0  0  0  0  0  0  0  0  0
   -1.4994   -3.0041    0.8599 O   0  0  0  0  0  0  0  0  0  0  0  0
   -0.8400    0.1056   -1.7541 N   0  0  0  0  0  0  0  0  0  0  0  0
    2.9051    0.4621   -1.0761 N   0  0  0  0  0  0  0  0  0  0  0  0
    3.5554    1.4759    0.7899 N   0  0  0  0  0  0  0  0  0  0  0  0
   -0.7492    0.2044   -0.2917 C   0  0  2  0  0  0  0  0  0  0  0  0
   -0.0862   -1.0892    0.2911 C   0  0  1  0  0  0  0  0  0  0  0  0
   -2.1513    0.4954    0.3043 C   0  0  0  0  0  0  0  0  0  0  0  0
   -2.8597    1.7658   -0.2192 C   0  0  0  0  0  0  0  0  0  0  0  0
    1.3415   -1.3060   -0.2813 C   0  0  0  0  0  0  0  0  0  0  0  0
   -0.9604   -2.3113    0.0072 C   0  0  0  0  0  0  0  0  0  0  0  0
   -2.0276    3.0312   -0.0078 C   0  0  0  0  0  0  0  0  0  0  0  0
   -4.2158    1.9202    0.4772 C   0  0  0  0  0  0  0  0  0  0  0  0
    2.2898   -0.1432   -0.0496 C   0  0  0  0  0  0  0  0  0  0  0  0
    2.6774    0.4632    1.0846 C   0  0  0  0  0  0  0  0  0  0  0  0
    3.6713    1.4482   -0.5193 C   0  0  0  0  0  0  0  0  0  0  0  0
   -0.1141    1.0597   -0.0369 H   0  0  0  0  0  0  0  0  0  0  0  0
   -2.8119   -0.3621    0.1221 H   0  0  0  0  0  0  0  0  0  0  0  0
   -2.0607    0.5889    1.3936 H   0  0  0  0  0  0  0  0  0  0  0  0
   -3.0602    1.6576   -1.2915 H   0  0  0  0  0  0  0  0  0  0  0  0
    1.3161   -1.5608   -1.3477 H   0  0  0  0  0  0  0  0  0  0  0  0
    1.7878   -2.1781    0.2182 H   0  0  0  0  0  0  0  0  0  0  0  0
    0.0902    0.0079   -2.1567 H   0  0  0  0  0  0  0  0  0  0  0  0
   -1.2088    0.9732   -2.1394 H   0  0  0  0  0  0  0  0  0  0  0  0
   -2.5932    3.9216   -0.3035 H   0  0  0  0  0  0  0  0  0  0  0  0
   -1.1151    3.0159   -0.6112 H   0  0  0  0  0  0  0  0  0  0  0  0
   -1.7417    3.1472    1.0431 H   0  0  0  0  0  0  0  0  0  0  0  0
   -4.7565    2.7895    0.0879 H   0  0  0  0  0  0  0  0  0  0  0  0
   -4.0962    2.0522    1.5580 H   0  0  0  0  0  0  0  0  0  0  0  0
   -4.8417    1.0372    0.3100 H   0  0  0  0  0  0  0  0  0  0  0  0
   -0.8686   -0.9638    2.0926 H   0  0  0  0  0  0  0  0  0  0  0  0
    2.8275    0.2469   -2.0619 H   0  0  0  0  0  0  0  0  0  0  0  0
    2.3990    0.2508    2.1061 H   0  0  0  0  0  0  0  0  0  0  0  0
   -1.6360   -3.3291   -1.5111 H   0  0  0  0  0  0  0  0  0  0  0  0
    4.2844    2.1063   -1.1184 H   0  0  0  0  0  0  0  0  0  0  0  0
  1  8  1  0  0  0  0
  1 32  1  0  0  0  0
  2 12  1  0  0  0  0
  2 35  1  0  0  0  0
  3 12  2  0  0  0  0
  4  7  1  0  0  0  0
  4 24  1  0  0  0  0
  4 25  1  0  0  0  0
  5 15  1  0  0  0  0
  5 17  1  0  0  0  0
  5 33  1  0  0  0  0
  6 16  1  0  0  0  0
  6 17  2  0  0  0  0
  7  8  1  0  0  0  0
  7  9  1  0  0  0  0
  7 18  1  0  0  0  0
  8 11  1  0  0  0  0
  8 12  1  0  0  0  0
  9 10  1  0  0  0  0
  9 19  1  0  0  0  0
  9 20  1  0  0  0  0
 10 13  1  0  0  0  0
 10 14  1  0  0  0  0
 10 21  1  0  0  0  0
 11 15  1  0  0  0  0
 11 22  1  0  0  0  0
 11 23  1  0  0  0  0
 13 26  1  0  0  0  0
 13 27  1  0  0  0  0
 13 28  1  0  0  0  0
 14 29  1  0  0  0  0
 14 30  1  0  0  0  0
 14 31  1  0  0  0  0
 15 16  2  0  0  0  0
 16 34  1  0  0  0  0
 17 36  1  0  0  0  0
M  END
> <PUBCHEM_COMPOUND_CID>
131057

> <PUBCHEM_CONFORMER_RMSD>
0.8

> <PUBCHEM_CONFORMER_DIVERSEORDER>
1
30
26
16
31
4
19
29
9
24
15
8
20
14
5
25
17
10
12
22
27
21
23
7
11
2
3
18
28
6
13

> <PUBCHEM_MMFF94_PARTIAL_CHARGES>
20
1 -0.68
11 0.18
12 0.66
15 -0.33
16 0.08
17 0.04
2 -0.65
24 0.36
25 0.36
3 -0.57
32 0.4
33 0.27
34 0.15
35 0.5
36 0.15
4 -0.99
5 0.03
6 -0.57
7 0.27
8 0.34

> <PUBCHEM_EFFECTIVE_ROTOR_COUNT>
6

> <PUBCHEM_PHARMACOPHORE_FEATURES>
11
1 1 acceptor
1 1 donor
1 2 acceptor
1 3 acceptor
1 4 cation
1 4 donor
1 5 donor
3 10 13 14 hydrophobe
3 2 3 12 anion
3 5 6 17 cation
5 5 6 15 16 17 rings

> <PUBCHEM_HEAVY_ATOM_COUNT>
17

> <PUBCHEM_ATOM_DEF_STEREO_COUNT>
2

> <PUBCHEM_ATOM_UDEF_STEREO_COUNT>
0

> <PUBCHEM_BOND_DEF_STEREO_COUNT>
0

> <PUBCHEM_BOND_UDEF_STEREO_COUNT>
0

> <PUBCHEM_ISOTOPIC_ATOM_COUNT>
0

> <PUBCHEM_COMPONENT_COUNT>
1

> <PUBCHEM_CACTVS_TAUTO_COUNT>
2

> <PUBCHEM_CONFORMER_ID>
0001FFF100000001

> <PUBCHEM_MMFF94_ENERGY>
23.2703

> <PUBCHEM_FEATURE_SELFOVERLAP>
55.885

> <PUBCHEM_SHAPE_FINGERPRINT>
10922049 32 18339652122406325735
12173636 292 18412539937753981735
122479 349 18408889546349369792
12532896 13 18410291397920986415
13764800 53 18410016575853710328
14142880 1 18189887798195464068
14648413 74 17545603349300280873
15534591 1 18341608213647750517
16945 1 18263651817031285051
1741750 31 18342174470815771024
18186145 218 17987805094213982641
19837323 101 18342449378634687038
201361 129 17908429056714472345
20525323 117 18191298476067129662
20671657 1 18262518083546952850
21041028 32 17758405458355154123
21524375 3 18340484439749751731
22182937 141 18270965755394389088
22620623 9 17774162451807101399
2306618 200 17533755329610376718
23227448 37 18268993270188974584
23419403 2 16982986762682348263
23557571 272 18199191878822739744
25 1 18129383709075283576
430814 3 18262228915740418171
6333272 397 18335143051091158705
633830 44 18129101113439526885
6442390 28 18340216219464291787
7364860 26 17692249638780861285
7808743 9 18335990869314986652
81228 2 18264483069365123027
81539 233 18193555571775990109
9999458 23 18121505644080398047

> <PUBCHEM_SHAPE_MULTIPOLES>
317.3
5.97
3.18
1.21
0.09
1.3
0.07
-5.92
-0.46
-1.85
-0.08
0.24
0.28
-0.03

> <PUBCHEM_SHAPE_SELFOVERLAP>
641.908

> <PUBCHEM_SHAPE_VOLUME>
187.7

> <PUBCHEM_COORDINATE_TYPE>
2
5
10

$$$$
