131072
  -OEChem-03292013323D

 29 30  0     1  0  0  0  0  0999 V2000
   -1.4493    0.5681   -1.0025 O   0  0  0  0  0  0  0  0  0  0  0  0
   -3.9182   -1.1300   -0.2634 O   0  0  0  0  0  0  0  0  0  0  0  0
   -1.8586   -2.3522    1.0455 O   0  0  0  0  0  0  0  0  0  0  0  0
    1.1593   -1.8461   -0.6224 O   0  0  0  0  0  0  0  0  0  0  0  0
   -2.0032    3.2218   -0.2929 O   0  0  0  0  0  0  0  0  0  0  0  0
    4.8628    0.0686    0.2043 O   0  0  0  0  0  0  0  0  0  0  0  0
    1.2688    0.3372   -0.0428 N   0  0  0  0  0  0  0  0  0  0  0  0
    3.5531    1.8962    0.5789 N   0  0  0  0  0  0  0  0  0  0  0  0
   -3.0654   -0.2940    0.5187 C   0  0  1  0  0  0  0  0  0  0  0  0
   -1.7319   -0.9710    0.7733 C   0  0  2  0  0  0  0  0  0  0  0  0
   -2.6630    0.9261   -0.3030 C   0  0  1  0  0  0  0  0  0  0  0  0
   -0.9917   -0.7154   -0.5310 C   0  0  2  0  0  0  0  0  0  0  0  0
   -2.3769    2.1503    0.5554 C   0  0  0  0  0  0  0  0  0  0  0  0
    0.5097   -0.6774   -0.3790 C   0  0  0  0  0  0  0  0  0  0  0  0
    2.5295   -0.2023   -0.0646 C   0  0  0  0  0  0  0  0  0  0  0  0
    2.4676   -1.5278   -0.4161 C   0  0  0  0  0  0  0  0  0  0  0  0
    3.7072    0.5478    0.2419 C   0  0  0  0  0  0  0  0  0  0  0  0
   -3.6074   -0.0467    1.4364 H   0  0  0  0  0  0  0  0  0  0  0  0
   -1.2268   -0.4885    1.6192 H   0  0  0  0  0  0  0  0  0  0  0  0
   -3.4071    1.1720   -1.0689 H   0  0  0  0  0  0  0  0  0  0  0  0
   -1.2537   -1.4614   -1.2917 H   0  0  0  0  0  0  0  0  0  0  0  0
   -1.5463    1.9691    1.2451 H   0  0  0  0  0  0  0  0  0  0  0  0
   -3.2634    2.4451    1.1251 H   0  0  0  0  0  0  0  0  0  0  0  0
   -4.0567   -1.9506    0.2397 H   0  0  0  0  0  0  0  0  0  0  0  0
   -0.9618   -2.7206    1.1185 H   0  0  0  0  0  0  0  0  0  0  0  0
   -1.8285    3.9906    0.2762 H   0  0  0  0  0  0  0  0  0  0  0  0
    3.1840   -2.3236   -0.5561 H   0  0  0  0  0  0  0  0  0  0  0  0
    2.6414    2.3412    0.6164 H   0  0  0  0  0  0  0  0  0  0  0  0
    4.3578    2.4743    0.7974 H   0  0  0  0  0  0  0  0  0  0  0  0
  1 11  1  0  0  0  0
  1 12  1  0  0  0  0
  2  9  1  0  0  0  0
  2 24  1  0  0  0  0
  3 10  1  0  0  0  0
  3 25  1  0  0  0  0
  4 14  1  0  0  0  0
  4 16  1  0  0  0  0
  5 13  1  0  0  0  0
  5 26  1  0  0  0  0
  6 17  2  0  0  0  0
  7 14  2  0  0  0  0
  7 15  1  0  0  0  0
  8 17  1  0  0  0  0
  8 28  1  0  0  0  0
  8 29  1  0  0  0  0
  9 10  1  0  0  0  0
  9 11  1  0  0  0  0
  9 18  1  0  0  0  0
 10 12  1  0  0  0  0
 10 19  1  0  0  0  0
 11 13  1  0  0  0  0
 11 20  1  0  0  0  0
 12 14  1  0  0  0  0
 12 21  1  0  0  0  0
 13 22  1  0  0  0  0
 13 23  1  0  0  0  0
 15 16  2  0  0  0  0
 15 17  1  0  0  0  0
 16 27  1  0  0  0  0
M  END
> <PUBCHEM_COMPOUND_CID>
131072

> <PUBCHEM_CONFORMER_RMSD>
0.6

> <PUBCHEM_CONFORMER_DIVERSEORDER>
1
52
24
60
29
36
27
8
51
59
6
39
31
22
61
20
25
46
9
33
58
15
3
57
62
35
53
17
48
43
13
11
32
40
26
56
38
47
49
34
4
45
16
28
55
41
21
7
44
23
18
37
54
42
5
14
2
50
10
12
30
19

> <PUBCHEM_MMFF94_PARTIAL_CHARGES>
23
1 -0.56
10 0.28
11 0.28
12 0.46
13 0.28
14 0.3
15 0.14
16 -0.01
17 0.72
2 -0.68
24 0.4
25 0.4
26 0.4
27 0.15
28 0.37
29 0.37
3 -0.68
4 -0.28
5 -0.68
6 -0.57
7 -0.57
8 -0.8
9 0.28

> <PUBCHEM_EFFECTIVE_ROTOR_COUNT>
4

> <PUBCHEM_PHARMACOPHORE_FEATURES>
11
1 1 acceptor
1 2 acceptor
1 2 donor
1 3 acceptor
1 3 donor
1 5 acceptor
1 5 donor
1 6 acceptor
1 8 donor
5 1 9 10 11 12 rings
5 4 7 14 15 16 rings

> <PUBCHEM_HEAVY_ATOM_COUNT>
17

> <PUBCHEM_ATOM_DEF_STEREO_COUNT>
4

> <PUBCHEM_ATOM_UDEF_STEREO_COUNT>
0

> <PUBCHEM_BOND_DEF_STEREO_COUNT>
0

> <PUBCHEM_BOND_UDEF_STEREO_COUNT>
0

> <PUBCHEM_ISOTOPIC_ATOM_COUNT>
0

> <PUBCHEM_COMPONENT_COUNT>
1

> <PUBCHEM_CACTVS_TAUTO_COUNT>
2

> <PUBCHEM_CONFORMER_ID>
0002000000000001

> <PUBCHEM_MMFF94_ENERGY>
30.9371

> <PUBCHEM_FEATURE_SELFOVERLAP>
55.839

> <PUBCHEM_SHAPE_FINGERPRINT>
10366900 7 18410295856244551050
10608611 8 18340487759770079548
11615756 256 18340775870703845312
12251169 10 18113901593287304438
14026960 21 18195529414069743760
15219456 202 18340491067058648710
15279308 16 18341334405203649774
16945 1 18262818335878185967
17802600 8 18271802449641539016
18186145 218 17489311919065484622
19049666 15 18266466407874045650
200 152 18271514377869336119
20510252 161 18410577254122756105
20528008 55 18334010626997027167
20645477 56 18336271128604325685
21501502 16 18337953368145943694
21652331 79 18341048635465663744
22182937 141 18128262185883131985
22485316 2 8646772192578822868
22854114 59 18343585174241060178
2306618 200 18059861670476355347
23402539 116 18410004468805301983
23419403 2 17034138508896765927
23557571 272 18410018757739314279
23559900 14 18340201874147130258
27216 239 18413105091031004464
351380 180 18411412929988163218
3524813 1 18130499833816318360
6049 1 18198926750174975358
81228 2 18114196219743908811
90316 7 17168135724427112772
9709674 26 18412549786230561990

> <PUBCHEM_SHAPE_MULTIPOLES>
304.67
7.27
2.45
0.85
5.49
1.3
0.04
1.53
0.86
-1.4
0.2
-0.27
-0.12
0.72

> <PUBCHEM_SHAPE_SELFOVERLAP>
645.123

> <PUBCHEM_SHAPE_VOLUME>
171.1

> <PUBCHEM_COORDINATE_TYPE>
2
5
10

$$$$
