131018
  -OEChem-03292013323D

 64 67  0     1  0  0  0  0  0999 V2000
    3.0158   -0.5603    0.1825 O   0  0  0  0  0  0  0  0  0  0  0  0
    4.7712    1.5202   -0.4996 O   0  0  0  0  0  0  0  0  0  0  0  0
   -1.5397   -1.4905   -0.9815 O   0  0  0  0  0  0  0  0  0  0  0  0
   -0.2879    2.3692    1.6905 O   0  0  0  0  0  0  0  0  0  0  0  0
   -2.7470    1.8524    1.0282 O   0  0  0  0  0  0  0  0  0  0  0  0
    4.9055    3.7991   -2.0846 O   0  0  0  0  0  0  0  0  0  0  0  0
   -8.9050    0.8862   -0.1348 O   0  0  0  0  0  0  0  0  0  0  0  0
    3.5467    0.3367    1.1931 C   0  0  1  0  0  0  0  0  0  0  0  0
    4.9129    0.8297    0.7455 C   0  0  0  0  0  0  0  0  0  0  0  0
    2.5481    1.4841    1.4105 C   0  0  0  0  0  0  0  0  0  0  0  0
    1.3218    0.8287    0.9030 C   0  0  0  0  0  0  0  0  0  0  0  0
    1.6669   -0.3125    0.1950 C   0  0  0  0  0  0  0  0  0  0  0  0
    5.8819   -0.3376    0.5386 C   0  0  0  0  0  0  0  0  0  0  0  0
    5.4904    1.8259    1.7532 C   0  0  0  0  0  0  0  0  0  0  0  0
    0.7229   -1.0924   -0.4444 C   0  0  0  0  0  0  0  0  0  0  0  0
    0.0031    1.2357    1.0007 C   0  0  0  0  0  0  0  0  0  0  0  0
   -0.9720    0.4523    0.3710 C   0  0  0  0  0  0  0  0  0  0  0  0
   -0.6143   -0.7010   -0.3461 C   0  0  0  0  0  0  0  0  0  0  0  0
    1.1287   -2.3084   -1.2043 C   0  0  0  0  0  0  0  0  0  0  0  0
    6.0212    2.0022   -0.9631 C   0  0  0  0  0  0  0  0  0  0  0  0
   -2.3942    0.8372    0.4419 C   0  0  0  0  0  0  0  0  0  0  0  0
   -3.3609   -0.0623   -0.2453 C   0  0  0  0  0  0  0  0  0  0  0  0
    1.1496   -3.5556   -0.3539 C   0  0  0  0  0  0  0  0  0  0  0  0
    5.8154    2.7236   -2.2812 C   0  0  0  0  0  0  0  0  0  0  0  0
   -2.8613   -1.1301   -0.8852 C   0  0  0  0  0  0  0  0  0  0  0  0
   -4.8116    0.1863   -0.2158 C   0  0  0  0  0  0  0  0  0  0  0  0
    2.2003   -4.3476   -0.0660 C   0  0  0  0  0  0  0  0  0  0  0  0
    2.1486   -5.5799    0.7918 C   0  0  0  0  0  0  0  0  0  0  0  0
    3.5638   -4.0366   -0.6239 C   0  0  0  0  0  0  0  0  0  0  0  0
   -5.5930   -0.3454    0.8120 C   0  0  0  0  0  0  0  0  0  0  0  0
   -5.4109    0.9542   -1.2165 C   0  0  0  0  0  0  0  0  0  0  0  0
   -6.9677   -0.1102    0.8391 C   0  0  0  0  0  0  0  0  0  0  0  0
   -6.7855    1.1894   -1.1892 C   0  0  0  0  0  0  0  0  0  0  0  0
   -7.5639    0.6572   -0.1614 C   0  0  0  0  0  0  0  0  0  0  0  0
    3.6377   -0.2496    2.1194 H   0  0  0  0  0  0  0  0  0  0  0  0
    2.7628    2.3721    0.8077 H   0  0  0  0  0  0  0  0  0  0  0  0
    2.4890    1.7588    2.4677 H   0  0  0  0  0  0  0  0  0  0  0  0
    5.8179   -1.0444    1.3745 H   0  0  0  0  0  0  0  0  0  0  0  0
    6.9313   -0.0274    0.4932 H   0  0  0  0  0  0  0  0  0  0  0  0
    5.6608   -0.8858   -0.3844 H   0  0  0  0  0  0  0  0  0  0  0  0
    5.0195    2.8126    1.6765 H   0  0  0  0  0  0  0  0  0  0  0  0
    6.5708    1.9717    1.6429 H   0  0  0  0  0  0  0  0  0  0  0  0
    5.3481    1.4622    2.7780 H   0  0  0  0  0  0  0  0  0  0  0  0
    0.4275   -2.4865   -2.0305 H   0  0  0  0  0  0  0  0  0  0  0  0
    2.0721   -2.1176   -1.7226 H   0  0  0  0  0  0  0  0  0  0  0  0
    6.7363    1.1993   -1.1569 H   0  0  0  0  0  0  0  0  0  0  0  0
    6.4528    2.7343   -0.2757 H   0  0  0  0  0  0  0  0  0  0  0  0
    0.1841   -3.8382    0.0654 H   0  0  0  0  0  0  0  0  0  0  0  0
    0.5278    2.7758    2.0262 H   0  0  0  0  0  0  0  0  0  0  0  0
    6.7572    3.1283   -2.6624 H   0  0  0  0  0  0  0  0  0  0  0  0
    5.3845    2.0559   -3.0340 H   0  0  0  0  0  0  0  0  0  0  0  0
   -3.4704   -1.8529   -1.4142 H   0  0  0  0  0  0  0  0  0  0  0  0
    2.7974   -5.4654    1.6660 H   0  0  0  0  0  0  0  0  0  0  0  0
    2.4773   -6.4551    0.2223 H   0  0  0  0  0  0  0  0  0  0  0  0
    1.1336   -5.7769    1.1522 H   0  0  0  0  0  0  0  0  0  0  0  0
    3.7959   -4.7225   -1.4452 H   0  0  0  0  0  0  0  0  0  0  0  0
    4.3225   -4.1769    0.1551 H   0  0  0  0  0  0  0  0  0  0  0  0
    3.6975   -3.0156   -0.9814 H   0  0  0  0  0  0  0  0  0  0  0  0
   -5.1430   -0.9450    1.5998 H   0  0  0  0  0  0  0  0  0  0  0  0
   -4.8176    1.3766   -2.0240 H   0  0  0  0  0  0  0  0  0  0  0  0
    4.0820    3.4234   -1.7286 H   0  0  0  0  0  0  0  0  0  0  0  0
   -7.5629   -0.5303    1.6454 H   0  0  0  0  0  0  0  0  0  0  0  0
   -7.2443    1.7882   -1.9714 H   0  0  0  0  0  0  0  0  0  0  0  0
   -9.2849    0.4442    0.6440 H   0  0  0  0  0  0  0  0  0  0  0  0
  1  8  1  0  0  0  0
  1 12  1  0  0  0  0
  2  9  1  0  0  0  0
  2 20  1  0  0  0  0
  3 18  1  0  0  0  0
  3 25  1  0  0  0  0
  4 16  1  0  0  0  0
  4 49  1  0  0  0  0
  5 21  2  0  0  0  0
  6 24  1  0  0  0  0
  6 61  1  0  0  0  0
  7 34  1  0  0  0  0
  7 64  1  0  0  0  0
  8  9  1  0  0  0  0
  8 10  1  0  0  0  0
  8 35  1  0  0  0  0
  9 13  1  0  0  0  0
  9 14  1  0  0  0  0
 10 11  1  0  0  0  0
 10 36  1  0  0  0  0
 10 37  1  0  0  0  0
 11 12  1  0  0  0  0
 11 16  2  0  0  0  0
 12 15  2  0  0  0  0
 13 38  1  0  0  0  0
 13 39  1  0  0  0  0
 13 40  1  0  0  0  0
 14 41  1  0  0  0  0
 14 42  1  0  0  0  0
 14 43  1  0  0  0  0
 15 18  1  0  0  0  0
 15 19  1  0  0  0  0
 16 17  1  0  0  0  0
 17 18  2  0  0  0  0
 17 21  1  0  0  0  0
 19 23  1  0  0  0  0
 19 44  1  0  0  0  0
 19 45  1  0  0  0  0
 20 24  1  0  0  0  0
 20 46  1  0  0  0  0
 20 47  1  0  0  0  0
 21 22  1  0  0  0  0
 22 25  2  0  0  0  0
 22 26  1  0  0  0  0
 23 27  2  0  0  0  0
 23 48  1  0  0  0  0
 24 50  1  0  0  0  0
 24 51  1  0  0  0  0
 25 52  1  0  0  0  0
 26 30  2  0  0  0  0
 26 31  1  0  0  0  0
 27 28  1  0  0  0  0
 27 29  1  0  0  0  0
 28 53  1  0  0  0  0
 28 54  1  0  0  0  0
 28 55  1  0  0  0  0
 29 56  1  0  0  0  0
 29 57  1  0  0  0  0
 29 58  1  0  0  0  0
 30 32  1  0  0  0  0
 30 59  1  0  0  0  0
 31 33  2  0  0  0  0
 31 60  1  0  0  0  0
 32 34  2  0  0  0  0
 32 62  1  0  0  0  0
 33 34  1  0  0  0  0
 33 63  1  0  0  0  0
M  END
> <PUBCHEM_COMPOUND_CID>
131018

> <PUBCHEM_CONFORMER_RMSD>
1

> <PUBCHEM_CONFORMER_DIVERSEORDER>
5
58
21
48
61
12
54
34
60
57
49
47
17
22
9
62
35
16
19
45
13
42
50
20
38
63
40
29
15
27
10
30
44
43
18
51
25
14
59
1
52
24
36
37
46
41
55
31
2
32
56
39
28
53
26
64
6
23
8
3
33
7
4
11

> <PUBCHEM_MMFF94_PARTIAL_CHARGES>
41
1 -0.36
10 0.14
11 -0.14
12 0.08
15 -0.14
16 0.08
17 0.09
18 0.08
19 0.28
2 -0.56
20 0.28
21 0.47
22 -0.01
23 -0.29
24 0.28
25 -0.07
26 0.03
27 -0.28
28 0.14
29 0.14
3 -0.16
30 -0.15
31 -0.15
32 -0.15
33 -0.15
34 0.08
4 -0.53
48 0.15
49 0.45
5 -0.57
52 0.15
59 0.15
6 -0.68
60 0.15
61 0.4
62 0.15
63 0.15
64 0.45
7 -0.53
8 0.28
9 0.28

> <PUBCHEM_EFFECTIVE_ROTOR_COUNT>
7.6

> <PUBCHEM_PHARMACOPHORE_FEATURES>
14
1 1 acceptor
1 2 acceptor
1 3 acceptor
1 4 donor
1 5 acceptor
1 6 acceptor
1 6 donor
1 7 donor
3 27 28 29 hydrophobe
3 9 13 14 hydrophobe
5 1 8 10 11 12 rings
6 11 12 15 16 17 18 rings
6 26 30 31 32 33 34 rings
6 3 17 18 21 22 25 rings

> <PUBCHEM_HEAVY_ATOM_COUNT>
34

> <PUBCHEM_ATOM_DEF_STEREO_COUNT>
0

> <PUBCHEM_ATOM_UDEF_STEREO_COUNT>
1

> <PUBCHEM_BOND_DEF_STEREO_COUNT>
0

> <PUBCHEM_BOND_UDEF_STEREO_COUNT>
0

> <PUBCHEM_ISOTOPIC_ATOM_COUNT>
0

> <PUBCHEM_COMPONENT_COUNT>
1

> <PUBCHEM_CACTVS_TAUTO_COUNT>
10

> <PUBCHEM_CONFORMER_ID>
0001FFCA00000005

> <PUBCHEM_MMFF94_ENERGY>
110.3404

> <PUBCHEM_FEATURE_SELFOVERLAP>
71.188

> <PUBCHEM_SHAPE_FINGERPRINT>
10050765 1 18126564510212883481
10411042 1 17767967537357320670
10673678 19 18261683678522783028
10675989 125 18130497622319442168
10906281 52 18338811073615998241
11135926 11 18270946990998472079
11181472 205 18264490590628935585
11578080 2 17899689068506953340
11719270 70 18411132532921968306
11963148 33 18340757218009538575
11991303 11 18336546139312800134
12539765 74 17821450157615769099
12597179 24 18335421291741647051
12838862 33 17987776584495619241
13140716 1 17985536991284567537
13383665 225 18116729434537554661
13533116 47 18200587000148942411
13540713 5 17771638857757030617
13617811 41 18342462555637198724
13782708 43 18116992192574108167
13911987 19 18339372962338372960
14114211 68 18339936973538632662
14118638 360 18130505237607811121
14400156 260 17630346155248923057
14400156 413 18263632984227914517
14675020 138 18129078122743024378
14790565 3 18269832189181666144
15183329 4 17060344036698490069
15927050 60 18343012333311240223
19319366 153 18413666907382611398
20505436 4 17822853225649203920
20771845 171 18334580126891457230
21033648 29 18127392665601144400
21033650 10 16517944892625816917
21641784 216 18271536329010355801
21703447 108 18120366567150984107
21792964 463 18197521570447979273
22311459 1 18343295981503829881
22956985 138 17977940195056046106
23366157 5 18265620866748418866
23522609 53 17844551949778877825
23569943 247 15840453404831280279
25147074 1 17702386152631330259
255183 451 17771348574172323542
27425 322 17604150436714281778
3178227 256 18272937171674796441
335352 9 17989200477670366145
3411729 13 18410570665216350955
34797466 226 17822009796397441525
4058900 60 18410020935103078002
4073 2 18409168827415944035
4093350 32 18040158422196566052
4340502 62 17531238457284435842
5104073 3 18057610867970769843
5265222 85 18120944068147129005
5385378 56 18342731897346570507
59755656 215 18343299245298640137
6669772 16 18408598137662677059
9962374 69 18057873663539722007

> <PUBCHEM_SHAPE_MULTIPOLES>
658.62
18.52
4.72
1.55
29.04
7.81
-0.32
-12.89
-2.93
-9.72
-0.85
-1.77
-1.26
-1.27

> <PUBCHEM_SHAPE_SELFOVERLAP>
1433.141

> <PUBCHEM_SHAPE_VOLUME>
360.5

> <PUBCHEM_COORDINATE_TYPE>
2
5
10

$$$$
