131063
  -OEChem-03292013323D

 35 37  0     0  0  0  0  0  0999 V2000
    4.9469    1.0800   -0.3174 S   0  0  0  0  0  0  0  0  0  0  0  0
   -3.6644   -2.4360   -0.6838 O   0  0  0  0  0  0  0  0  0  0  0  0
   -5.1230    1.9457    0.1647 O   0  0  0  0  0  0  0  0  0  0  0  0
    5.2275    0.9358   -1.9215 O   0  0  0  0  0  0  0  0  0  0  0  0
    4.3446    2.3884   -0.1076 O   0  0  0  0  0  0  0  0  0  0  0  0
    6.1602    0.6998    0.3893 O   0  0  0  0  0  0  0  0  0  0  0  0
   -2.8446    1.4961    0.3147 N   0  0  0  0  0  0  0  0  0  0  0  0
   -0.9210   -1.3961   -0.1378 N   0  0  0  0  0  0  0  0  0  0  0  0
   -4.4227   -0.2479   -0.2636 N   0  0  0  0  0  0  0  0  0  0  0  0
   -0.5080    0.7281    0.3984 N   0  0  0  0  0  0  0  0  0  0  0  0
   -2.1307   -0.7628   -0.1260 C   0  0  0  0  0  0  0  0  0  0  0  0
   -1.8494    0.5347    0.2045 C   0  0  0  0  0  0  0  0  0  0  0  0
    0.0248   -0.4572    0.1840 C   0  0  0  0  0  0  0  0  0  0  0  0
   -3.4400   -1.2658   -0.3885 C   0  0  0  0  0  0  0  0  0  0  0  0
    1.4281   -0.7842    0.2641 C   0  0  0  0  0  0  0  0  0  0  0  0
   -4.1948    1.1334    0.0809 C   0  0  0  0  0  0  0  0  0  0  0  0
   -2.5038    2.8685    0.6684 C   0  0  0  0  0  0  0  0  0  0  0  0
    2.3878    0.1844   -0.0293 C   0  0  0  0  0  0  0  0  0  0  0  0
    3.7442   -0.1321    0.0485 C   0  0  0  0  0  0  0  0  0  0  0  0
    1.8240   -2.0691    0.6351 C   0  0  0  0  0  0  0  0  0  0  0  0
   -5.8061   -0.6409   -0.5094 C   0  0  0  0  0  0  0  0  0  0  0  0
    4.1402   -1.4171    0.4196 C   0  0  0  0  0  0  0  0  0  0  0  0
    3.1801   -2.3856    0.7128 C   0  0  0  0  0  0  0  0  0  0  0  0
   -0.7628   -2.3708   -0.3582 H   0  0  0  0  0  0  0  0  0  0  0  0
    2.0771    1.1827   -0.3286 H   0  0  0  0  0  0  0  0  0  0  0  0
   -3.3906    3.5055    0.7152 H   0  0  0  0  0  0  0  0  0  0  0  0
   -1.8201    3.2700   -0.0859 H   0  0  0  0  0  0  0  0  0  0  0  0
   -2.0148    2.8716    1.6474 H   0  0  0  0  0  0  0  0  0  0  0  0
    1.1024   -2.8434    0.8828 H   0  0  0  0  0  0  0  0  0  0  0  0
   -5.9070   -1.6979   -0.7657 H   0  0  0  0  0  0  0  0  0  0  0  0
   -6.2022   -0.0313   -1.3279 H   0  0  0  0  0  0  0  0  0  0  0  0
   -6.3942   -0.4293    0.3893 H   0  0  0  0  0  0  0  0  0  0  0  0
    5.1901   -1.6892    0.4804 H   0  0  0  0  0  0  0  0  0  0  0  0
    3.4888   -3.3856    1.0030 H   0  0  0  0  0  0  0  0  0  0  0  0
    4.4500    1.1065   -2.5036 H   0  0  0  0  0  0  0  0  0  0  0  0
  1  4  1  0  0  0  0
  1  5  2  0  0  0  0
  1  6  2  0  0  0  0
  1 19  1  0  0  0  0
  2 14  2  0  0  0  0
  3 16  2  0  0  0  0
  4 35  1  0  0  0  0
  7 12  1  0  0  0  0
  7 16  1  0  0  0  0
  7 17  1  0  0  0  0
  8 11  1  0  0  0  0
  8 13  1  0  0  0  0
  8 24  1  0  0  0  0
  9 14  1  0  0  0  0
  9 16  1  0  0  0  0
  9 21  1  0  0  0  0
 10 12  1  0  0  0  0
 10 13  2  0  0  0  0
 11 12  2  0  0  0  0
 11 14  1  0  0  0  0
 13 15  1  0  0  0  0
 15 18  2  0  0  0  0
 15 20  1  0  0  0  0
 17 26  1  0  0  0  0
 17 27  1  0  0  0  0
 17 28  1  0  0  0  0
 18 19  1  0  0  0  0
 18 25  1  0  0  0  0
 19 22  2  0  0  0  0
 20 23  2  0  0  0  0
 20 29  1  0  0  0  0
 21 30  1  0  0  0  0
 21 31  1  0  0  0  0
 21 32  1  0  0  0  0
 22 23  1  0  0  0  0
 22 33  1  0  0  0  0
 23 34  1  0  0  0  0
M  END
> <PUBCHEM_COMPOUND_CID>
131063

> <PUBCHEM_CONFORMER_RMSD>
0.6

> <PUBCHEM_CONFORMER_DIVERSEORDER>
1
6
3
4
5
2

> <PUBCHEM_MMFF94_PARTIAL_CHARGES>
29
1 1.49
10 -0.57
11 -0.24
12 0.29
13 0.13
14 0.71
15 0.05
16 0.69
17 0.3
18 -0.15
19 -0.01
2 -0.57
20 -0.15
21 0.3
22 -0.15
23 -0.15
24 0.27
25 0.15
29 0.15
3 -0.57
33 0.15
34 0.15
35 0.5
4 -0.68
5 -0.65
6 -0.65
7 -0.42
8 0.03
9 -0.42

> <PUBCHEM_EFFECTIVE_ROTOR_COUNT>
2

> <PUBCHEM_PHARMACOPHORE_FEATURES>
11
1 2 acceptor
1 3 acceptor
1 4 acceptor
1 5 acceptor
1 6 acceptor
1 8 donor
3 8 10 13 cation
4 1 4 5 6 anion
5 8 10 11 12 13 rings
6 15 18 19 20 22 23 rings
6 7 9 11 12 14 16 rings

> <PUBCHEM_HEAVY_ATOM_COUNT>
23

> <PUBCHEM_ATOM_DEF_STEREO_COUNT>
0

> <PUBCHEM_ATOM_UDEF_STEREO_COUNT>
0

> <PUBCHEM_BOND_DEF_STEREO_COUNT>
0

> <PUBCHEM_BOND_UDEF_STEREO_COUNT>
0

> <PUBCHEM_ISOTOPIC_ATOM_COUNT>
0

> <PUBCHEM_COMPONENT_COUNT>
1

> <PUBCHEM_CACTVS_TAUTO_COUNT>
3

> <PUBCHEM_CONFORMER_ID>
0001FFF700000001

> <PUBCHEM_MMFF94_ENERGY>
40.5744

> <PUBCHEM_FEATURE_SELFOVERLAP>
55.993

> <PUBCHEM_SHAPE_FINGERPRINT>
10595046 47 18410570703870530370
10616163 171 18342453725490276415
10670039 82 18335433344205564276
10906281 52 18202010881066086975
12107183 9 17689714160493044514
12236239 1 18335417937292501802
12390115 104 17773611429484587985
12788726 201 17632018529350901809
13167823 11 18337950091191612915
13631057 29 18266175209482117883
13760787 19 18412262826490716042
14528608 73 18410012156548471686
14739800 52 18270944822556913880
14790565 3 18410857642193185307
15196674 1 18411135801381368379
15250474 111 18339626889363672791
17492 89 18339642230955121163
17834072 33 18410290315573228182
17844677 252 18340493261633904098
18681886 176 18271518716145358418
19377110 9 18335417967346698083
20511986 3 18263065682738541086
21033648 29 16153703180942326063
21065198 48 18337106774267863938
21267235 1 18339365171146391827
22393880 68 18343586261247516356
23402655 69 18411134727729403438
23557571 272 17988932171068465021
23559900 14 17914897530691602926
245318 6 17171537785672123132
300161 21 18335976506379144678
3004659 81 18339079285976681442
34797466 226 17489030456551981652
3545911 37 18407759248353681494
4073 2 18040721398305166426
4214541 1 18339920411880929955
4325135 7 18410853274026809575
474 4 17822016436543195932
5104073 3 18334012761474305515
542803 24 18040716960970355115
633830 44 17967814907785488690
67856867 119 18336818737245685578
77779 3 18410854326325750811
9709674 26 18339928108267879579

> <PUBCHEM_SHAPE_MULTIPOLES>
427.91
13.53
2.61
0.85
2.37
0.42
-0.22
3.57
-2.22
-0.26
0.32
0.63
0.07
-1.75

> <PUBCHEM_SHAPE_SELFOVERLAP>
927.11

> <PUBCHEM_SHAPE_VOLUME>
237.3

> <PUBCHEM_COORDINATE_TYPE>
2
5
10

$$$$
