131173
  -OEChem-03292013323D

 37 39  0     1  0  0  0  0  0999 V2000
    3.7981   -1.3669   -0.0136 S   0  0  0  0  0  0  0  0  0  0  0  0
   -3.7979   -1.3675   -0.0159 S   0  0  0  0  0  0  0  0  0  0  0  0
    4.4284   -0.3340    1.6413 S   0  0  0  0  0  0  0  0  0  0  0  0
   -4.4253   -0.3360    1.6405 S   0  0  0  0  0  0  0  0  0  0  0  0
    4.0318    1.7017   -0.8501 O   0  0  0  0  0  0  0  0  0  0  0  0
   -4.0420    1.7022   -0.8369 O   0  0  0  0  0  0  0  0  0  0  0  0
    0.0001    0.2457   -0.3752 N   0  0  0  0  0  0  0  0  0  0  0  0
    1.1597   -0.6085   -0.0331 C   0  0  1  0  0  0  0  0  0  0  0  0
   -1.1596   -0.6088   -0.0339 C   0  0  2  0  0  0  0  0  0  0  0  0
    0.7628   -2.0169   -0.4781 C   0  0  0  0  0  0  0  0  0  0  0  0
   -0.7620   -2.0173   -0.4783 C   0  0  0  0  0  0  0  0  0  0  0  0
    2.5246   -0.1837   -0.5647 C   0  0  1  0  0  0  0  0  0  0  0  0
   -2.5245   -0.1842   -0.5666 C   0  0  2  0  0  0  0  0  0  0  0  0
    2.9622    1.1941   -0.0494 C   0  0  1  0  0  0  0  0  0  0  0  0
   -2.9602    1.1953   -0.0524 C   0  0  2  0  0  0  0  0  0  0  0  0
    0.0007    0.7099   -1.7623 C   0  0  0  0  0  0  0  0  0  0  0  0
    3.3913    1.1384    1.4159 C   0  0  0  0  0  0  0  0  0  0  0  0
   -3.3883    1.1363    1.4129 C   0  0  0  0  0  0  0  0  0  0  0  0
    1.2015   -0.6193    1.0662 H   0  0  0  0  0  0  0  0  0  0  0  0
   -1.2019   -0.6198    1.0653 H   0  0  0  0  0  0  0  0  0  0  0  0
    1.1443   -2.7846    0.2041 H   0  0  0  0  0  0  0  0  0  0  0  0
    1.1234   -2.2496   -1.4874 H   0  0  0  0  0  0  0  0  0  0  0  0
   -1.1221   -2.2506   -1.4875 H   0  0  0  0  0  0  0  0  0  0  0  0
   -1.1433   -2.7847    0.2042 H   0  0  0  0  0  0  0  0  0  0  0  0
    2.5460   -0.2054   -1.6601 H   0  0  0  0  0  0  0  0  0  0  0  0
   -2.5435   -0.2097   -1.6618 H   0  0  0  0  0  0  0  0  0  0  0  0
    2.1581    1.9295   -0.1483 H   0  0  0  0  0  0  0  0  0  0  0  0
   -2.1574    1.9335   -0.1479 H   0  0  0  0  0  0  0  0  0  0  0  0
    0.8652    1.3464   -1.9732 H   0  0  0  0  0  0  0  0  0  0  0  0
   -0.8642    1.3454   -1.9741 H   0  0  0  0  0  0  0  0  0  0  0  0
    0.0015   -0.1131   -2.4855 H   0  0  0  0  0  0  0  0  0  0  0  0
    3.9684    2.0231    1.7008 H   0  0  0  0  0  0  0  0  0  0  0  0
    2.5257    1.0580    2.0803 H   0  0  0  0  0  0  0  0  0  0  0  0
   -2.5220    1.0555    2.0764 H   0  0  0  0  0  0  0  0  0  0  0  0
   -3.9649    2.0207    1.7006 H   0  0  0  0  0  0  0  0  0  0  0  0
    4.7747    1.0787   -0.7735 H   0  0  0  0  0  0  0  0  0  0  0  0
   -3.7324    1.7614   -1.7568 H   0  0  0  0  0  0  0  0  0  0  0  0
  1  3  1  0  0  0  0
  1 12  1  0  0  0  0
  2  4  1  0  0  0  0
  2 13  1  0  0  0  0
  3 17  1  0  0  0  0
  4 18  1  0  0  0  0
  5 14  1  0  0  0  0
  5 36  1  0  0  0  0
  6 15  1  0  0  0  0
  6 37  1  0  0  0  0
  7  8  1  0  0  0  0
  7  9  1  0  0  0  0
  7 16  1  0  0  0  0
  8 10  1  0  0  0  0
  8 12  1  0  0  0  0
  8 19  1  0  0  0  0
  9 11  1  0  0  0  0
  9 13  1  0  0  0  0
  9 20  1  0  0  0  0
 10 11  1  0  0  0  0
 10 21  1  0  0  0  0
 10 22  1  0  0  0  0
 11 23  1  0  0  0  0
 11 24  1  0  0  0  0
 12 14  1  0  0  0  0
 12 25  1  0  0  0  0
 13 15  1  0  0  0  0
 13 26  1  0  0  0  0
 14 17  1  0  0  0  0
 14 27  1  0  0  0  0
 15 18  1  0  0  0  0
 15 28  1  0  0  0  0
 16 29  1  0  0  0  0
 16 30  1  0  0  0  0
 16 31  1  0  0  0  0
 17 32  1  0  0  0  0
 17 33  1  0  0  0  0
 18 34  1  0  0  0  0
 18 35  1  0  0  0  0
M  END
> <PUBCHEM_COMPOUND_CID>
131173

> <PUBCHEM_CONFORMER_RMSD>
0.6

> <PUBCHEM_CONFORMER_DIVERSEORDER>
3
71
126
107
25
15
117
66
102
31
62
127
30
76
56
74
70
125
58
94
61
116
67
106
55
65
81
112
54
42
115
22
95
33
111
48
73
40
49
29
99
119
13
45
9
64
44
80
87
39
68
82
90
78
12
85
88
72
79
84
7
96
113
105
32
43
77
19
120
60
123
103
53
34
83
100
46
57
69
91
108
124
47
109
17
5
63
122
50
75
86
93
89
14
41
98
26
35
2
36
118
21
59
101
110
92
38
121
11
4
104
10
51
52
6
37
24
1
97
8
114
16
27
18
28
20
23

> <PUBCHEM_MMFF94_PARTIAL_CHARGES>
18
1 -0.23
12 0.23
13 0.23
14 0.28
15 0.28
16 0.27
17 0.23
18 0.23
2 -0.23
3 -0.23
36 0.4
37 0.4
4 -0.23
5 -0.68
6 -0.68
7 -0.81
8 0.27
9 0.27

> <PUBCHEM_EFFECTIVE_ROTOR_COUNT>
5

> <PUBCHEM_PHARMACOPHORE_FEATURES>
8
1 5 acceptor
1 5 donor
1 6 acceptor
1 6 donor
1 7 cation
5 1 3 12 14 17 rings
5 2 4 13 15 18 rings
5 7 8 9 10 11 rings

> <PUBCHEM_HEAVY_ATOM_COUNT>
18

> <PUBCHEM_ATOM_DEF_STEREO_COUNT>
2

> <PUBCHEM_ATOM_UDEF_STEREO_COUNT>
4

> <PUBCHEM_BOND_DEF_STEREO_COUNT>
0

> <PUBCHEM_BOND_UDEF_STEREO_COUNT>
0

> <PUBCHEM_ISOTOPIC_ATOM_COUNT>
0

> <PUBCHEM_COMPONENT_COUNT>
1

> <PUBCHEM_CACTVS_TAUTO_COUNT>
1

> <PUBCHEM_CONFORMER_ID>
0002006500000003

> <PUBCHEM_MMFF94_ENERGY>
37.3884

> <PUBCHEM_FEATURE_SELFOVERLAP>
40.596

> <PUBCHEM_SHAPE_FINGERPRINT>
10646746 165 17988926669304893234
10980938 120 18413670210201405390
11132069 177 18410849941142711309
11769659 78 12468357972416418447
12173636 292 17917987308562466727
12251169 10 18335695070510911290
12403259 118 18261384542392442561
12403259 415 18341898480327732744
12507557 5 18341324530963196649
12507560 40 18333736805799464749
12553582 1 11097858471144036472
12596602 18 17458628968370179201
12633257 1 18343017834862737200
12644460 14 17895198835498217708
12670546 177 10807932678206225930
12670546 56 18059850679618400371
12892183 10 17603587456020843000
13224815 77 18260832609040301655
13544653 18 13840265892149335751
13583140 156 17917414445708305787
13675066 3 18410854339268564474
14004511 7 18130504158673824402
14178342 30 17604155814023638995
14289901 80 18334295387560208067
15209294 21 18131078129877376339
15238133 3 18060703901337887416
15239154 128 17988926677683805384
15239191 94 13117998885886133048
17349148 13 18041279954280027687
17959699 21 12535362176722298523
18186145 218 17988932153877864398
18222031 100 17603588555738335671
19862831 5 11959741459739092020
20281407 28 13190335781441500271
20281475 54 12973596725185633210
20775530 9 13264613169703876792
20871999 31 9511462242686002059
21524375 3 18272083894279340918
22079108 93 17775573069844688971
22854114 59 18410579491600296027
23184049 59 18334572426083660670
23382010 3 13326561982325723718
23402655 69 10447936083045940050
23526113 38 11671768395268131254
23557571 272 17273995694837546127
23559900 14 18130512933793495222
474 4 17989200447610577784
49207404 50 18408893940037844106
5104073 3 18335139790910067545
59682541 52 9582965571658852489
633830 44 16702029676921615457
90316 7 17313375704181524917
960060 61 8286202738437611514
9882013 296 18114466750843301497

> <PUBCHEM_SHAPE_MULTIPOLES>
369.11
9.61
1.94
1.49
0
0.32
0.31
-2.16
3.71
0
-0.2
-0.01
-0.42
0

> <PUBCHEM_SHAPE_SELFOVERLAP>
710.896

> <PUBCHEM_SHAPE_VOLUME>
228.7

> <PUBCHEM_COORDINATE_TYPE>
2
5
10

$$$$
