131130
  -OEChem-03292013323D

 67 70  0     1  0  0  0  0  0999 V2000
   -1.3087   -0.9247   -0.7427 O   0  0  0  0  0  0  0  0  0  0  0  0
    1.7860   -2.3846   -2.4789 O   0  0  0  0  0  0  0  0  0  0  0  0
    3.2679   -3.4041   -1.0970 O   0  0  0  0  0  0  0  0  0  0  0  0
    0.6542    1.8075    2.5686 O   0  0  0  0  0  0  0  0  0  0  0  0
   -0.6471    3.4994    1.8243 O   0  0  0  0  0  0  0  0  0  0  0  0
   -0.6760   -0.0680    1.3273 N   0  0  0  0  0  0  0  0  0  0  0  0
   -5.0145   -0.7762   -0.2397 N   0  0  0  0  0  0  0  0  0  0  0  0
   -0.0443   -2.3114    0.7454 C   0  0  0  0  0  0  0  0  0  0  0  0
   -0.7051   -2.8798    2.0173 C   0  0  0  0  0  0  0  0  0  0  0  0
   -0.2469   -3.3825   -0.3385 C   0  0  0  0  0  0  0  0  0  0  0  0
    1.4343   -1.9903    0.9521 C   0  0  0  0  0  0  0  0  0  0  0  0
   -1.2754   -4.2418    1.6251 C   0  0  0  0  0  0  0  0  0  0  0  0
   -1.4732   -4.1577    0.1226 C   0  0  0  0  0  0  0  0  0  0  0  0
    2.0934   -1.4132   -0.3129 C   0  0  1  0  0  0  0  0  0  0  0  0
   -0.7543   -1.0423    0.3470 C   0  0  0  0  0  0  0  0  0  0  0  0
    3.3310   -0.5554    0.0124 C   0  0  0  0  0  0  0  0  0  0  0  0
    2.4646   -2.5049   -1.3079 C   0  0  0  0  0  0  0  0  0  0  0  0
   -1.2556    1.2477    1.1823 C   0  0  1  0  0  0  0  0  0  0  0  0
    3.9165    0.2038   -1.1852 C   0  0  0  0  0  0  0  0  0  0  0  0
   -2.6919    1.2903    1.7229 C   0  0  0  0  0  0  0  0  0  0  0  0
    5.0812    1.0699   -0.7731 C   0  0  0  0  0  0  0  0  0  0  0  0
   -0.4043    2.2983    1.8806 C   0  0  0  0  0  0  0  0  0  0  0  0
   -3.6981    0.6902    0.7818 C   0  0  0  0  0  0  0  0  0  0  0  0
   -4.4187    1.3736   -0.2373 C   0  0  0  0  0  0  0  0  0  0  0  0
    4.8625    2.3876   -0.3708 C   0  0  0  0  0  0  0  0  0  0  0  0
    6.3767    0.5531   -0.7941 C   0  0  0  0  0  0  0  0  0  0  0  0
   -4.0860   -0.6296    0.7556 C   0  0  0  0  0  0  0  0  0  0  0  0
   -5.2373    0.4309   -0.8629 C   0  0  0  0  0  0  0  0  0  0  0  0
    5.9391    3.1884    0.0103 C   0  0  0  0  0  0  0  0  0  0  0  0
    7.4533    1.3540   -0.4128 C   0  0  0  0  0  0  0  0  0  0  0  0
   -4.4531    2.7078   -0.6890 C   0  0  0  0  0  0  0  0  0  0  0  0
    7.2343    2.6716   -0.0106 C   0  0  0  0  0  0  0  0  0  0  0  0
   -6.0921    0.7572   -1.9219 C   0  0  0  0  0  0  0  0  0  0  0  0
   -5.3032    3.0487   -1.7473 C   0  0  0  0  0  0  0  0  0  0  0  0
   -6.1093    2.0868   -2.3528 C   0  0  0  0  0  0  0  0  0  0  0  0
    0.0021   -2.9950    2.8464 H   0  0  0  0  0  0  0  0  0  0  0  0
   -1.5269   -2.2548    2.3859 H   0  0  0  0  0  0  0  0  0  0  0  0
   -0.3958   -3.0095   -1.3547 H   0  0  0  0  0  0  0  0  0  0  0  0
    0.5932   -4.0874   -0.3567 H   0  0  0  0  0  0  0  0  0  0  0  0
    1.9669   -2.9008    1.2595 H   0  0  0  0  0  0  0  0  0  0  0  0
    1.5637   -1.2883    1.7846 H   0  0  0  0  0  0  0  0  0  0  0  0
   -2.2050   -4.4700    2.1549 H   0  0  0  0  0  0  0  0  0  0  0  0
   -0.5502   -5.0291    1.8637 H   0  0  0  0  0  0  0  0  0  0  0  0
   -1.5399   -5.1454   -0.3426 H   0  0  0  0  0  0  0  0  0  0  0  0
   -2.3898   -3.6042   -0.1122 H   0  0  0  0  0  0  0  0  0  0  0  0
    1.3988   -0.7337   -0.8203 H   0  0  0  0  0  0  0  0  0  0  0  0
    3.0576    0.1733    0.7876 H   0  0  0  0  0  0  0  0  0  0  0  0
    4.1090   -1.1931    0.4534 H   0  0  0  0  0  0  0  0  0  0  0  0
   -0.2317   -0.2801    2.2151 H   0  0  0  0  0  0  0  0  0  0  0  0
   -1.2355    1.5030    0.1149 H   0  0  0  0  0  0  0  0  0  0  0  0
    4.2439   -0.4966   -1.9631 H   0  0  0  0  0  0  0  0  0  0  0  0
    3.1423    0.8283   -1.6487 H   0  0  0  0  0  0  0  0  0  0  0  0
   -2.7452    0.7714    2.6898 H   0  0  0  0  0  0  0  0  0  0  0  0
   -2.9926    2.3259    1.9279 H   0  0  0  0  0  0  0  0  0  0  0  0
    2.0225   -3.0949   -3.1126 H   0  0  0  0  0  0  0  0  0  0  0  0
    3.8576    2.8007   -0.3482 H   0  0  0  0  0  0  0  0  0  0  0  0
    6.5595   -0.4724   -1.1037 H   0  0  0  0  0  0  0  0  0  0  0  0
   -3.7890   -1.4784    1.3556 H   0  0  0  0  0  0  0  0  0  0  0  0
   -5.4708   -1.6447   -0.4824 H   0  0  0  0  0  0  0  0  0  0  0  0
    1.1755    2.5194    2.9971 H   0  0  0  0  0  0  0  0  0  0  0  0
    5.7688    4.2141    0.3242 H   0  0  0  0  0  0  0  0  0  0  0  0
    8.4620    0.9516   -0.4285 H   0  0  0  0  0  0  0  0  0  0  0  0
   -3.8301    3.4698   -0.2293 H   0  0  0  0  0  0  0  0  0  0  0  0
    8.0726    3.2950    0.2865 H   0  0  0  0  0  0  0  0  0  0  0  0
   -6.7198    0.0089   -2.3940 H   0  0  0  0  0  0  0  0  0  0  0  0
   -5.3336    4.0762   -2.1001 H   0  0  0  0  0  0  0  0  0  0  0  0
   -6.7621    2.3735   -3.1733 H   0  0  0  0  0  0  0  0  0  0  0  0
  1 15  2  0  0  0  0
  2 17  1  0  0  0  0
  2 55  1  0  0  0  0
  3 17  2  0  0  0  0
  4 22  1  0  0  0  0
  4 60  1  0  0  0  0
  5 22  2  0  0  0  0
  6 15  1  0  0  0  0
  6 18  1  0  0  0  0
  6 49  1  0  0  0  0
  7 27  1  0  0  0  0
  7 28  1  0  0  0  0
  7 59  1  0  0  0  0
  8  9  1  0  0  0  0
  8 10  1  0  0  0  0
  8 11  1  0  0  0  0
  8 15  1  0  0  0  0
  9 12  1  0  0  0  0
  9 36  1  0  0  0  0
  9 37  1  0  0  0  0
 10 13  1  0  0  0  0
 10 38  1  0  0  0  0
 10 39  1  0  0  0  0
 11 14  1  0  0  0  0
 11 40  1  0  0  0  0
 11 41  1  0  0  0  0
 12 13  1  0  0  0  0
 12 42  1  0  0  0  0
 12 43  1  0  0  0  0
 13 44  1  0  0  0  0
 13 45  1  0  0  0  0
 14 16  1  0  0  0  0
 14 17  1  0  0  0  0
 14 46  1  0  0  0  0
 16 19  1  0  0  0  0
 16 47  1  0  0  0  0
 16 48  1  0  0  0  0
 18 20  1  0  0  0  0
 18 22  1  0  0  0  0
 18 50  1  0  0  0  0
 19 21  1  0  0  0  0
 19 51  1  0  0  0  0
 19 52  1  0  0  0  0
 20 23  1  0  0  0  0
 20 53  1  0  0  0  0
 20 54  1  0  0  0  0
 21 25  2  0  0  0  0
 21 26  1  0  0  0  0
 23 24  1  0  0  0  0
 23 27  2  0  0  0  0
 24 28  1  0  0  0  0
 24 31  2  0  0  0  0
 25 29  1  0  0  0  0
 25 56  1  0  0  0  0
 26 30  2  0  0  0  0
 26 57  1  0  0  0  0
 27 58  1  0  0  0  0
 28 33  2  0  0  0  0
 29 32  2  0  0  0  0
 29 61  1  0  0  0  0
 30 32  1  0  0  0  0
 30 62  1  0  0  0  0
 31 34  1  0  0  0  0
 31 63  1  0  0  0  0
 32 64  1  0  0  0  0
 33 35  1  0  0  0  0
 33 65  1  0  0  0  0
 34 35  2  0  0  0  0
 34 66  1  0  0  0  0
 35 67  1  0  0  0  0
M  END
> <PUBCHEM_COMPOUND_CID>
131130

> <PUBCHEM_CONFORMER_RMSD>
1.2

> <PUBCHEM_CONFORMER_DIVERSEORDER>
1
39
55
32
115
124
167
170
138
126
110
11
99
181
105
43
120
93
142
122
23
46
95
100
24
135
151
76
92
28
179
175
90
13
47
147
137
188
22
111
173
63
185
34
98
141
112
66
156
191
132
54
27
103
18
48
35
186
106
77
7
113
166
56
15
189
60
8
168
134
102
53
58
128
148
89
116
25
108
50
75
155
143
17
146
73
26
133
29
68
51
178
31
87
139
38
187
61
41
84
140
165
176
91
96
81
49
125
37
80
153
65
4
184
182
192
40
130
79
107
163
114
119
2
86
59
71
150
169
19
14
57
67
82
118
136
5
101
44
117
149
131
161
164
70
94
162
20
183
74
104
152
83
145
12
6
88
127
62
158
64
16
69
172
42
45
52
159
177
33
174
180
121
78
21
190
3
144
9
157
97
85
30
10
123
154
160
109
129
194
36
193
72
171

> <PUBCHEM_MMFF94_PARTIAL_CHARGES>
42
1 -0.57
14 0.06
15 0.57
17 0.66
18 0.36
19 0.14
2 -0.65
20 0.18
21 -0.14
22 0.66
23 -0.18
25 -0.15
26 -0.15
27 -0.3
28 -0.15
29 -0.15
3 -0.57
30 -0.15
31 -0.15
32 -0.15
33 -0.15
34 -0.15
35 -0.15
4 -0.65
49 0.37
5 -0.57
55 0.5
56 0.15
57 0.15
58 0.15
59 0.27
6 -0.73
60 0.5
61 0.15
62 0.15
63 0.15
64 0.15
65 0.15
66 0.15
67 0.15
7 0.03
8 0.06

> <PUBCHEM_EFFECTIVE_ROTOR_COUNT>
13

> <PUBCHEM_PHARMACOPHORE_FEATURES>
15
1 1 acceptor
1 2 acceptor
1 3 acceptor
1 4 acceptor
1 5 acceptor
1 6 donor
1 7 cation
1 7 donor
3 2 3 17 anion
3 4 5 22 anion
4 11 14 16 19 hydrophobe
5 7 23 24 27 28 rings
5 8 9 10 12 13 rings
6 21 25 26 29 30 32 rings
6 24 28 31 33 34 35 rings

> <PUBCHEM_HEAVY_ATOM_COUNT>
35

> <PUBCHEM_ATOM_DEF_STEREO_COUNT>
1

> <PUBCHEM_ATOM_UDEF_STEREO_COUNT>
1

> <PUBCHEM_BOND_DEF_STEREO_COUNT>
0

> <PUBCHEM_BOND_UDEF_STEREO_COUNT>
0

> <PUBCHEM_ISOTOPIC_ATOM_COUNT>
0

> <PUBCHEM_COMPONENT_COUNT>
1

> <PUBCHEM_CACTVS_TAUTO_COUNT>
2

> <PUBCHEM_CONFORMER_ID>
0002003A00000001

> <PUBCHEM_MMFF94_ENERGY>
78.1339

> <PUBCHEM_FEATURE_SELFOVERLAP>
76.333

> <PUBCHEM_SHAPE_FINGERPRINT>
10675989 125 18192994807533323185
11135609 127 17898552199923764029
11720765 8 16742808115819323331
12293681 160 18343864394365332761
12553582 1 17841423744961307907
12633257 1 13118293585062003042
13150687 139 18409169887681834294
13911987 19 18413106152299389705
14415361 192 17253180994403978965
14767858 380 17989486324965995100
15669420 48 18335135428267799495
16989378 47 16558167402812893653
17492 54 18130782348121756091
21033648 29 17677062264728171998
21304303 282 18114178708730590730
2838139 119 18409728504271417918
376196 1 17968945167421961523
4015057 19 17560241460975792384
4112364 45 17024014983238046385
4173938 306 18271226301876713824
5372103 7 18186512190098097309
6371009 1 18268991991100331024
999808 66 9655580708101960372

> <PUBCHEM_SHAPE_MULTIPOLES>
680.97
16.22
5.38
2.1
14.97
3.66
-0.2
-19.37
8.95
-0.03
-0.46
-1.74
-0.42
2.77

> <PUBCHEM_SHAPE_SELFOVERLAP>
1463.229

> <PUBCHEM_SHAPE_VOLUME>
374.7

> <PUBCHEM_COORDINATE_TYPE>
2
5
10

$$$$
