13116524
  -OEChem-03292013303D

 46 48  0     1  0  0  0  0  0999 V2000
    3.2717   -1.4065   -1.2337 S   0  0  0  0  0  0  0  0  0  0  0  0
   -4.0113   -0.5921   -1.1433 O   0  0  0  0  0  0  0  0  0  0  0  0
   -0.0114   -2.9911   -0.6864 O   0  0  0  0  0  0  0  0  0  0  0  0
   -6.0343   -0.2623   -2.1571 O   0  0  0  0  0  0  0  0  0  0  0  0
    0.2432   -1.3275    0.9558 N   0  0  0  0  0  0  0  0  0  0  0  0
    1.7468   -4.3494    1.1548 N   0  0  0  0  0  0  0  0  0  0  0  0
    1.9944   -2.9952    0.6520 C   0  0  1  0  0  0  0  0  0  0  0  0
   -3.2945    0.9398    0.6193 C   0  0  0  0  0  0  0  0  0  0  0  0
    3.0037   -3.0517   -0.4990 C   0  0  0  0  0  0  0  0  0  0  0  0
   -0.9285   -0.5792    0.8410 C   0  0  0  0  0  0  0  0  0  0  0  0
   -3.0648   -0.1775   -0.1849 C   0  0  0  0  0  0  0  0  0  0  0  0
    0.6246   -2.4628    0.2217 C   0  0  0  0  0  0  0  0  0  0  0  0
   -4.5499    1.6835    0.4489 C   0  0  0  0  0  0  0  0  0  0  0  0
   -1.8993   -0.9398   -0.0875 C   0  0  0  0  0  0  0  0  0  0  0  0
   -2.3044    1.2863    1.5485 C   0  0  0  0  0  0  0  0  0  0  0  0
   -1.1305    0.5319    1.6579 C   0  0  0  0  0  0  0  0  0  0  0  0
    3.9694   -0.5880    0.2177 C   0  0  0  0  0  0  0  0  0  0  0  0
   -5.4316    1.2663   -0.4706 C   0  0  0  0  0  0  0  0  0  0  0  0
    4.3183    0.8493   -0.0544 C   0  0  0  0  0  0  0  0  0  0  0  0
   -4.8265    2.8895    1.2984 C   0  0  0  0  0  0  0  0  0  0  0  0
   -5.2042    0.0896   -1.3263 C   0  0  0  0  0  0  0  0  0  0  0  0
    3.3686    1.8383    0.1660 C   0  0  0  0  0  0  0  0  0  0  0  0
    5.5860    1.1700   -0.5223 C   0  0  0  0  0  0  0  0  0  0  0  0
    3.6922    3.1715   -0.0861 C   0  0  0  0  0  0  0  0  0  0  0  0
    5.9095    2.5033   -0.7742 C   0  0  0  0  0  0  0  0  0  0  0  0
    4.9626    3.5039   -0.5562 C   0  0  0  0  0  0  0  0  0  0  0  0
    2.3929   -2.4260    1.4951 H   0  0  0  0  0  0  0  0  0  0  0  0
    3.9660   -3.4551   -0.1648 H   0  0  0  0  0  0  0  0  0  0  0  0
    2.6388   -3.7026   -1.3019 H   0  0  0  0  0  0  0  0  0  0  0  0
   -1.8199   -1.7873   -0.7533 H   0  0  0  0  0  0  0  0  0  0  0  0
    0.8927   -0.9967    1.6657 H   0  0  0  0  0  0  0  0  0  0  0  0
   -2.4209    2.1449    2.2047 H   0  0  0  0  0  0  0  0  0  0  0  0
   -0.3807    0.8269    2.3882 H   0  0  0  0  0  0  0  0  0  0  0  0
    4.8631   -1.1304    0.5475 H   0  0  0  0  0  0  0  0  0  0  0  0
    3.2639   -0.6030    1.0524 H   0  0  0  0  0  0  0  0  0  0  0  0
   -6.3694    1.7919   -0.6235 H   0  0  0  0  0  0  0  0  0  0  0  0
    1.1581   -4.3037    1.9860 H   0  0  0  0  0  0  0  0  0  0  0  0
    2.6265   -4.7690    1.4537 H   0  0  0  0  0  0  0  0  0  0  0  0
   -4.0644    3.6599    1.1401 H   0  0  0  0  0  0  0  0  0  0  0  0
   -4.8455    2.6214    2.3601 H   0  0  0  0  0  0  0  0  0  0  0  0
   -5.7963    3.3418    1.0624 H   0  0  0  0  0  0  0  0  0  0  0  0
    2.3754    1.5912    0.5307 H   0  0  0  0  0  0  0  0  0  0  0  0
    6.3311    0.3987   -0.6965 H   0  0  0  0  0  0  0  0  0  0  0  0
    2.9547    3.9507    0.0832 H   0  0  0  0  0  0  0  0  0  0  0  0
    6.8986    2.7622   -1.1405 H   0  0  0  0  0  0  0  0  0  0  0  0
    5.2144    4.5419   -0.7526 H   0  0  0  0  0  0  0  0  0  0  0  0
  1  9  1  0  0  0  0
  1 17  1  0  0  0  0
  2 11  1  0  0  0  0
  2 21  1  0  0  0  0
  3 12  2  0  0  0  0
  4 21  2  0  0  0  0
  5 10  1  0  0  0  0
  5 12  1  0  0  0  0
  5 31  1  0  0  0  0
  6  7  1  0  0  0  0
  6 37  1  0  0  0  0
  6 38  1  0  0  0  0
  7  9  1  0  0  0  0
  7 12  1  0  0  0  0
  7 27  1  0  0  0  0
  8 11  2  0  0  0  0
  8 13  1  0  0  0  0
  8 15  1  0  0  0  0
  9 28  1  0  0  0  0
  9 29  1  0  0  0  0
 10 14  2  0  0  0  0
 10 16  1  0  0  0  0
 11 14  1  0  0  0  0
 13 18  2  0  0  0  0
 13 20  1  0  0  0  0
 14 30  1  0  0  0  0
 15 16  2  0  0  0  0
 15 32  1  0  0  0  0
 16 33  1  0  0  0  0
 17 19  1  0  0  0  0
 17 34  1  0  0  0  0
 17 35  1  0  0  0  0
 18 21  1  0  0  0  0
 18 36  1  0  0  0  0
 19 22  2  0  0  0  0
 19 23  1  0  0  0  0
 20 39  1  0  0  0  0
 20 40  1  0  0  0  0
 20 41  1  0  0  0  0
 22 24  1  0  0  0  0
 22 42  1  0  0  0  0
 23 25  2  0  0  0  0
 23 43  1  0  0  0  0
 24 26  2  0  0  0  0
 24 44  1  0  0  0  0
 25 26  1  0  0  0  0
 25 45  1  0  0  0  0
 26 46  1  0  0  0  0
M  END
> <PUBCHEM_COMPOUND_CID>
13116524

> <PUBCHEM_CONFORMER_RMSD>
0.8

> <PUBCHEM_CONFORMER_DIVERSEORDER>
1
174
185
3
95
64
161
109
122
102
20
79
15
55
54
92
166
191
135
130
126
38
82
86
4
24
167
25
47
129
164
48
146
112
9
134
163
162
22
133
142
140
32
30
159
184
118
57
12
76
91
39
59
27
83
124
23
155
104
52
137
94
66
177
123
190
37
101
5
10
183
148
181
180
7
93
18
75
14
141
150
116
62
170
156
110
78
84
73
68
158
178
69
74
28
70
53
33
49
72
187
173
87
99
145
19
45
17
13
108
36
138
42
182
143
160
169
107
60
89
139
179
21
113
152
188
88
11
61
189
26
165
90
114
34
132
85
186
157
153
136
121
147
176
35
63
77
120
2
41
65
80
119
44
125
100
131
46
117
151
149
81
40
105
154
96
16
67
58
111
97
172
71
144
6
106
128
51
175
43
168
98
8
29
171
115
50
103
31
56
127

> <PUBCHEM_MMFF94_PARTIAL_CHARGES>
38
1 -0.46
10 0.12
11 0.08
12 0.57
13 -0.17
14 -0.15
15 -0.15
16 -0.15
17 0.37
18 -0.14
19 -0.14
2 -0.23
20 0.14
21 0.71
22 -0.15
23 -0.15
24 -0.15
25 -0.15
26 -0.15
3 -0.57
30 0.15
31 0.37
32 0.15
33 0.15
36 0.15
37 0.36
38 0.36
4 -0.57
42 0.15
43 0.15
44 0.15
45 0.15
46 0.15
5 -0.55
6 -0.99
7 0.33
8 0.03
9 0.23

> <PUBCHEM_EFFECTIVE_ROTOR_COUNT>
7

> <PUBCHEM_PHARMACOPHORE_FEATURES>
8
1 3 acceptor
1 4 acceptor
1 5 donor
1 6 cation
1 6 donor
6 19 22 23 24 25 26 rings
6 2 8 11 13 18 21 rings
6 8 10 11 14 15 16 rings

> <PUBCHEM_HEAVY_ATOM_COUNT>
26

> <PUBCHEM_ATOM_DEF_STEREO_COUNT>
0

> <PUBCHEM_ATOM_UDEF_STEREO_COUNT>
1

> <PUBCHEM_BOND_DEF_STEREO_COUNT>
0

> <PUBCHEM_BOND_UDEF_STEREO_COUNT>
0

> <PUBCHEM_ISOTOPIC_ATOM_COUNT>
0

> <PUBCHEM_COMPONENT_COUNT>
1

> <PUBCHEM_CACTVS_TAUTO_COUNT>
2

> <PUBCHEM_CONFORMER_ID>
00C8246C00000001

> <PUBCHEM_MMFF94_ENERGY>
75.5671

> <PUBCHEM_FEATURE_SELFOVERLAP>
40.623

> <PUBCHEM_SHAPE_FINGERPRINT>
10937287 8 18336830917799414442
11049842 53 15837352640686682267
11135609 187 18338792420510280161
12769317 202 18411981369242267128
13103583 49 11386357128069505284
1361 2 18408882979260432908
14251764 75 18336839679200759192
14528608 73 18341048540796691015
14767858 380 18201429324881849111
14848178 96 18410014351392992664
14931854 50 18202291329187470164
15082195 135 18341879767545406325
15183329 4 18410008857866700592
17138139 8 17774147041300737252
18681886 176 18127123074794387314
20511986 3 17988633073777992620
21033648 144 18113336422661587973
21298829 104 18341614789855169264
21388113 180 18260547831450700804
22122407 14 17906193766913686505
23522609 53 17917444077711340865
23559900 14 16627713527519482775
23569914 2 17025682946805063989
245318 6 18188225293775545876
2838139 119 18334858286042768884
4058900 60 18261118495502430394
44880168 125 13624348219084474048
474 4 18410013221737498834
56633871 153 7997430311670116904
6034566 193 17970926680495488468
6371009 1 18411976949911168168
67856867 119 18269264677909842026
7288768 16 18115025341774513906
7970288 3 9727361203745616052
9981440 41 18265617757265989298

> <PUBCHEM_SHAPE_MULTIPOLES>
511.35
14.6
4.63
1.41
3.93
1.95
-0.14
-12.99
-5.64
-6.34
0.68
1.73
0.12
-2.01

> <PUBCHEM_SHAPE_SELFOVERLAP>
1079.979

> <PUBCHEM_SHAPE_VOLUME>
287.1

> <PUBCHEM_COORDINATE_TYPE>
2
5
10

$$$$
