131158
  -OEChem-03292013323D

 18 18  0     0  0  0  0  0  0999 V2000
    1.6485    3.0615   -0.5103 I   0  0  0  0  0  0  0  0  0  0  0  0
    1.6445   -3.0651   -0.5043 I   0  0  0  0  0  0  0  0  0  0  0  0
   -3.0946    0.0025    0.3282 S   0  0  0  0  0  0  0  0  0  0  0  0
    4.2949    0.0000    1.6059 S   0  0  0  0  0  0  0  0  0  0  0  0
   -3.7903    0.0012   -1.1513 O   0  0  0  0  0  0  0  0  0  0  0  0
   -3.4408   -1.2617    0.9612 O   0  0  0  0  0  0  0  0  0  0  0  0
   -3.4104    1.2667    0.9747 O   0  0  0  0  0  0  0  0  0  0  0  0
    2.7567   -0.0028   -0.6998 N   0  0  0  0  0  0  0  0  0  0  0  0
   -1.3748    0.0011    0.0261 C   0  0  0  0  0  0  0  0  0  0  0  0
   -0.6887   -1.2074   -0.0932 C   0  0  0  0  0  0  0  0  0  0  0  0
   -0.6871    1.2085   -0.0963 C   0  0  0  0  0  0  0  0  0  0  0  0
    0.6868    1.2074   -0.3377 C   0  0  0  0  0  0  0  0  0  0  0  0
    0.6851   -1.2087   -0.3347 C   0  0  0  0  0  0  0  0  0  0  0  0
    1.3730   -0.0013   -0.4570 C   0  0  0  0  0  0  0  0  0  0  0  0
    3.3973   -0.0019    0.2885 C   0  0  0  0  0  0  0  0  0  0  0  0
   -1.2277   -2.1475   -0.0056 H   0  0  0  0  0  0  0  0  0  0  0  0
   -1.2241    2.1500   -0.0117 H   0  0  0  0  0  0  0  0  0  0  0  0
   -3.5903   -0.7851   -1.7118 H   0  0  0  0  0  0  0  0  0  0  0  0
  1 12  1  0  0  0  0
  2 13  1  0  0  0  0
  3  5  1  0  0  0  0
  3  6  2  0  0  0  0
  3  7  2  0  0  0  0
  3  9  1  0  0  0  0
  4 15  2  0  0  0  0
  5 18  1  0  0  0  0
  8 14  1  0  0  0  0
  8 15  2  0  0  0  0
  9 10  2  0  0  0  0
  9 11  1  0  0  0  0
 10 13  1  0  0  0  0
 10 16  1  0  0  0  0
 11 12  2  0  0  0  0
 11 17  1  0  0  0  0
 12 14  1  0  0  0  0
 13 14  2  0  0  0  0
M  END
> <PUBCHEM_COMPOUND_CID>
131158

> <PUBCHEM_CONFORMER_RMSD>
0.6

> <PUBCHEM_CONFORMER_DIVERSEORDER>
2
1

> <PUBCHEM_MMFF94_PARTIAL_CHARGES>
18
1 -0.08
10 -0.15
11 -0.15
12 0.08
13 0.08
14 0.18
15 0.57
16 0.15
17 0.15
18 0.5
2 -0.08
3 1.49
4 -0.27
5 -0.68
6 -0.65
7 -0.65
8 -0.48
9 -0.01

> <PUBCHEM_EFFECTIVE_ROTOR_COUNT>
2

> <PUBCHEM_PHARMACOPHORE_FEATURES>
9
1 1 hydrophobe
1 2 hydrophobe
1 4 acceptor
1 5 acceptor
1 6 acceptor
1 7 acceptor
1 8 acceptor
4 3 5 6 7 anion
6 9 10 11 12 13 14 rings

> <PUBCHEM_HEAVY_ATOM_COUNT>
15

> <PUBCHEM_ATOM_DEF_STEREO_COUNT>
0

> <PUBCHEM_ATOM_UDEF_STEREO_COUNT>
0

> <PUBCHEM_BOND_DEF_STEREO_COUNT>
0

> <PUBCHEM_BOND_UDEF_STEREO_COUNT>
0

> <PUBCHEM_ISOTOPIC_ATOM_COUNT>
0

> <PUBCHEM_COMPONENT_COUNT>
1

> <PUBCHEM_CACTVS_TAUTO_COUNT>
1

> <PUBCHEM_CONFORMER_ID>
0002005600000002

> <PUBCHEM_MMFF94_ENERGY>
30.2441

> <PUBCHEM_FEATURE_SELFOVERLAP>
45.733

> <PUBCHEM_SHAPE_FINGERPRINT>
10130415 120 18113900472490796216
11132069 177 18410569582994803450
11680986 33 17833259823358048062
12251169 10 18337949099438867192
124424 183 17603859001280864173
12644460 14 18042696168306723904
13140716 1 18266743669381986841
13583140 156 17604982783563069297
14178342 30 18413113844396055851
14787075 74 17345458465647865960
15536298 74 18128820754869372390
16945 1 18410582781260297837
18186145 218 18339091487340355709
193761 8 17689720757757872556
200 152 18272927263501800671
20511035 2 17825681215988113518
20645477 70 18335139847261586991
20671657 1 18119255214430436548
21501502 16 18051129499499866580
21524375 3 17612327641612404588
2334 1 17978795940743607012
23402539 116 18270667702212576668
23463225 33 18334014990862836174
23559900 14 18191874431424324606
2748010 2 18122344566962076148
3250762 1 17619057344759298606
352729 6 18197222661554740111
4072396 5 18262781995922394298
5104073 3 18190755309202326305
81228 2 17974014942312039556
90316 7 18115577159051475544

> <PUBCHEM_SHAPE_MULTIPOLES>
317.67
6.52
3.1
1.12
2.63
0.01
0.25
0.01
2.5
-2.05
-0.91
-0.41
0
0

> <PUBCHEM_SHAPE_SELFOVERLAP>
602.031

> <PUBCHEM_SHAPE_VOLUME>
202.6

> <PUBCHEM_COORDINATE_TYPE>
2
5
10

$$$$
