131124
  -OEChem-03292013323D

 49 52  0     0  0  0  0  0  0999 V2000
    0.8369    0.6279   -0.7376 O   0  0  0  0  0  0  0  0  0  0  0  0
    0.0398   -3.6496    0.7924 O   0  0  0  0  0  0  0  0  0  0  0  0
    5.6550    0.3115   -0.6231 O   0  0  0  0  0  0  0  0  0  0  0  0
   -5.6312    0.4321   -0.6765 O   0  0  0  0  0  0  0  0  0  0  0  0
    5.6066    1.0693    1.5627 O   0  0  0  0  0  0  0  0  0  0  0  0
   -5.5839    1.2071    1.5032 O   0  0  0  0  0  0  0  0  0  0  0  0
   -1.7861   -2.3115    0.3118 N   0  0  0  0  0  0  0  0  0  0  0  0
    7.4955    1.4784    0.2686 N   0  0  0  0  0  0  0  0  0  0  0  0
   -7.6270    1.0725    0.3998 N   0  0  0  0  0  0  0  0  0  0  0  0
    0.4481   -1.4712    0.0130 C   0  0  0  0  0  0  0  0  0  0  0  0
   -0.1019   -0.2858   -0.4112 C   0  0  0  0  0  0  0  0  0  0  0  0
    1.8529   -1.2891   -0.0517 C   0  0  0  0  0  0  0  0  0  0  0  0
   -1.5105   -0.0092   -0.5117 C   0  0  0  0  0  0  0  0  0  0  0  0
    2.0407    0.0153   -0.5178 C   0  0  0  0  0  0  0  0  0  0  0  0
   -2.3491   -1.0779   -0.1302 C   0  0  0  0  0  0  0  0  0  0  0  0
   -0.4105   -2.5741    0.4069 C   0  0  0  0  0  0  0  0  0  0  0  0
    2.9899   -2.0688    0.2271 C   0  0  0  0  0  0  0  0  0  0  0  0
   -2.0572    1.1968   -0.9444 C   0  0  0  0  0  0  0  0  0  0  0  0
    3.2910    0.5960   -0.7249 C   0  0  0  0  0  0  0  0  0  0  0  0
   -3.7345   -0.9301   -0.1851 C   0  0  0  0  0  0  0  0  0  0  0  0
    4.4040   -0.2000   -0.4400 C   0  0  0  0  0  0  0  0  0  0  0  0
   -4.2789    0.2799   -0.6196 C   0  0  0  0  0  0  0  0  0  0  0  0
    4.2589   -1.5083    0.0272 C   0  0  0  0  0  0  0  0  0  0  0  0
   -3.4450    1.3369   -0.9970 C   0  0  0  0  0  0  0  0  0  0  0  0
    6.2126    0.9682    0.4965 C   0  0  0  0  0  0  0  0  0  0  0  0
   -6.2383    0.9307    0.4985 C   0  0  0  0  0  0  0  0  0  0  0  0
    8.2019    2.1827    1.3292 C   0  0  0  0  0  0  0  0  0  0  0  0
    8.2070    1.3498   -0.9989 C   0  0  0  0  0  0  0  0  0  0  0  0
   -8.3932    1.5756    1.5310 C   0  0  0  0  0  0  0  0  0  0  0  0
   -8.3934    0.7450   -0.7980 C   0  0  0  0  0  0  0  0  0  0  0  0
   -2.4333   -3.0495    0.5753 H   0  0  0  0  0  0  0  0  0  0  0  0
    2.8970   -3.0876    0.5910 H   0  0  0  0  0  0  0  0  0  0  0  0
   -1.4247    2.0284   -1.2415 H   0  0  0  0  0  0  0  0  0  0  0  0
    3.3912    1.6123   -1.0886 H   0  0  0  0  0  0  0  0  0  0  0  0
   -4.3905   -1.7466    0.1056 H   0  0  0  0  0  0  0  0  0  0  0  0
    5.1400   -2.1090    0.2412 H   0  0  0  0  0  0  0  0  0  0  0  0
   -3.8745    2.2767   -1.3349 H   0  0  0  0  0  0  0  0  0  0  0  0
    9.1339    1.6520    1.5441 H   0  0  0  0  0  0  0  0  0  0  0  0
    7.6060    2.2392    2.2435 H   0  0  0  0  0  0  0  0  0  0  0  0
    8.4277    3.1973    0.9884 H   0  0  0  0  0  0  0  0  0  0  0  0
    9.1398    0.8064   -0.8224 H   0  0  0  0  0  0  0  0  0  0  0  0
    8.4336    2.3514   -1.3758 H   0  0  0  0  0  0  0  0  0  0  0  0
    7.6228    0.8138   -1.7493 H   0  0  0  0  0  0  0  0  0  0  0  0
   -7.7517    1.7963    2.3878 H   0  0  0  0  0  0  0  0  0  0  0  0
   -9.1284    0.8199    1.8223 H   0  0  0  0  0  0  0  0  0  0  0  0
   -8.9090    2.4911    1.2274 H   0  0  0  0  0  0  0  0  0  0  0  0
   -9.1291   -0.0232   -0.5430 H   0  0  0  0  0  0  0  0  0  0  0  0
   -7.7602    0.3735   -1.6059 H   0  0  0  0  0  0  0  0  0  0  0  0
   -8.9103    1.6466   -1.1394 H   0  0  0  0  0  0  0  0  0  0  0  0
  1 11  1  0  0  0  0
  1 14  1  0  0  0  0
  2 16  2  0  0  0  0
  3 21  1  0  0  0  0
  3 25  1  0  0  0  0
  4 22  1  0  0  0  0
  4 26  1  0  0  0  0
  5 25  2  0  0  0  0
  6 26  2  0  0  0  0
  7 15  1  0  0  0  0
  7 16  1  0  0  0  0
  7 31  1  0  0  0  0
  8 25  1  0  0  0  0
  8 27  1  0  0  0  0
  8 28  1  0  0  0  0
  9 26  1  0  0  0  0
  9 29  1  0  0  0  0
  9 30  1  0  0  0  0
 10 11  2  0  0  0  0
 10 12  1  0  0  0  0
 10 16  1  0  0  0  0
 11 13  1  0  0  0  0
 12 14  2  0  0  0  0
 12 17  1  0  0  0  0
 13 15  2  0  0  0  0
 13 18  1  0  0  0  0
 14 19  1  0  0  0  0
 15 20  1  0  0  0  0
 17 23  2  0  0  0  0
 17 32  1  0  0  0  0
 18 24  2  0  0  0  0
 18 33  1  0  0  0  0
 19 21  2  0  0  0  0
 19 34  1  0  0  0  0
 20 22  2  0  0  0  0
 20 35  1  0  0  0  0
 21 23  1  0  0  0  0
 22 24  1  0  0  0  0
 23 36  1  0  0  0  0
 24 37  1  0  0  0  0
 27 38  1  0  0  0  0
 27 39  1  0  0  0  0
 27 40  1  0  0  0  0
 28 41  1  0  0  0  0
 28 42  1  0  0  0  0
 28 43  1  0  0  0  0
 29 44  1  0  0  0  0
 29 45  1  0  0  0  0
 29 46  1  0  0  0  0
 30 47  1  0  0  0  0
 30 48  1  0  0  0  0
 30 49  1  0  0  0  0
M  END
> <PUBCHEM_COMPOUND_CID>
131124

> <PUBCHEM_CONFORMER_RMSD>
0.8

> <PUBCHEM_CONFORMER_DIVERSEORDER>
1
21
33
16
11
44
77
63
52
13
32
15
70
43
22
64
47
67
68
28
42
20
6
62
60
83
17
40
71
35
38
82
39
7
58
24
26
74
69
57
19
75
5
3
23
36
48
27
53
18
10
66
41
9
4
34
76
51
12
73
50
59
46
37
8
30
25
49
56
14
78
79
45
29
61
55
2
81
31
72
65
54
80

> <PUBCHEM_MMFF94_PARTIAL_CHARGES>
36
1 -0.28
10 -0.09
11 0.09
13 0.05
14 0.14
15 0.12
16 0.72
17 -0.15
18 -0.15
19 -0.15
2 -0.57
20 -0.15
21 0.08
22 0.08
23 -0.15
24 -0.15
25 0.78
26 0.78
27 0.3
28 0.3
29 0.3
3 -0.23
30 0.3
31 0.37
32 0.15
33 0.15
34 0.15
35 0.15
36 0.15
37 0.15
4 -0.23
5 -0.57
6 -0.57
7 -0.55
8 -0.66
9 -0.66

> <PUBCHEM_EFFECTIVE_ROTOR_COUNT>
6

> <PUBCHEM_PHARMACOPHORE_FEATURES>
9
1 1 acceptor
1 2 acceptor
1 5 acceptor
1 6 acceptor
1 7 donor
5 1 10 11 12 14 rings
6 12 14 17 19 21 23 rings
6 13 15 18 20 22 24 rings
6 7 10 11 13 15 16 rings

> <PUBCHEM_HEAVY_ATOM_COUNT>
30

> <PUBCHEM_ATOM_DEF_STEREO_COUNT>
0

> <PUBCHEM_ATOM_UDEF_STEREO_COUNT>
0

> <PUBCHEM_BOND_DEF_STEREO_COUNT>
0

> <PUBCHEM_BOND_UDEF_STEREO_COUNT>
0

> <PUBCHEM_ISOTOPIC_ATOM_COUNT>
0

> <PUBCHEM_COMPONENT_COUNT>
1

> <PUBCHEM_CACTVS_TAUTO_COUNT>
2

> <PUBCHEM_CONFORMER_ID>
0002003400000001

> <PUBCHEM_MMFF94_ENERGY>
86.6996

> <PUBCHEM_FEATURE_SELFOVERLAP>
45.901

> <PUBCHEM_SHAPE_FINGERPRINT>
10 15 17749108889509354812
10162869 55 18187078495153433119
10165383 225 18408886234929616989
106641 1 17095246933879131197
11135609 201 18412538808146090345
11181472 205 16629979702577716065
11315181 36 18202562879185362461
11408170 108 12107779684424901625
12166972 35 8069734196945793271
12236239 1 18130506320034105671
12539765 74 18059861636269987902
12741549 16 13479126900050008790
12838862 33 18260815008718315613
13540713 5 17388833160245586774
13668630 136 9295280634884241513
13782708 43 11746940888472759164
14251764 18 18334010618290892247
14556957 393 13542194943064590658
14849402 71 18343582954186645449
15183329 4 15267346210453354305
15690457 1 12251904810469231769
15706992 2 17917444124781777585
1577012 14 18273210877177065423
16126227 98 18410576205660099185
16994733 274 17561081376326601409
17980427 23 17896035611197357910
2026 5 10665765795441106320
20505436 4 18131347484715471047
21033648 29 18129647738881288424
21130935 74 18410293588360193083
21150785 3 15841832253059101421
21267235 1 18115876187237836591
21424621 283 18343868787958373888
21521721 280 18411700959111640259
21792934 111 18041271059038364516
22224240 67 18334858312234455311
23559900 14 18340482378777528764
23576562 1 15912744211931948113
24771293 8 18410293606072338197
25269216 80 16916772038280398949
3178227 256 17894918429298834141
34797466 226 17989208114448811932
3633792 109 15985117292807869652
4073 2 18334580160977616563
4093350 32 17703794691398422758
4340502 62 18334013869713238038
4516262 110 18340763746585551901
5104073 3 17823975628645857841
5385378 56 18334858268778828682
5758199 1 18411138034621774981
59682541 35 18113903779779235689
6081469 158 13110967509021451680
636775 72 18272931647941529208
9980921 177 18339907240181819210

> <PUBCHEM_SHAPE_MULTIPOLES>
567.23
24.33
2.5
1.14
2.67
1.86
0.26
-22.05
5.43
-1.41
0.8
0.24
-0.53
0.08

> <PUBCHEM_SHAPE_SELFOVERLAP>
1249.916

> <PUBCHEM_SHAPE_VOLUME>
305.3

> <PUBCHEM_COORDINATE_TYPE>
2
5
10

$$$$
