13116602
  -OEChem-03292013303D

 43 45  0     1  0  0  0  0  0999 V2000
   -1.1240   -2.2693    0.1371 S   0  0  0  0  0  0  0  0  0  0  0  0
    7.0049    1.0734    1.4129 S   0  0  0  0  0  0  0  0  0  0  0  0
    0.4299    1.9345   -1.0987 O   0  0  0  0  0  0  0  0  0  0  0  0
   -5.5500   -0.6970    0.1504 O   0  0  0  0  0  0  0  0  0  0  0  0
   -3.2964    2.4757   -1.0312 O   0  0  0  0  0  0  0  0  0  0  0  0
    3.2278    0.5049   -1.1213 O   0  0  0  0  0  0  0  0  0  0  0  0
   -2.2216    2.6656    0.9785 O   0  0  0  0  0  0  0  0  0  0  0  0
   -7.1871    0.1476    1.5447 O   0  0  0  0  0  0  0  0  0  0  0  0
   -1.1648    0.2325   -0.7508 N   0  0  0  0  0  0  0  0  0  0  0  0
    1.6157   -1.0416   -0.4947 N   0  0  0  0  0  0  0  0  0  0  0  0
    6.1077   -0.8720   -0.0337 N   0  0  0  0  0  0  0  0  0  0  0  0
    8.3840   -0.3319   -0.3752 N   0  0  0  0  0  0  0  0  0  0  0  0
   -0.8653   -1.1071   -1.2226 C   0  0  1  0  0  0  0  0  0  0  0  0
    0.5806   -0.6063   -1.4319 C   0  0  1  0  0  0  0  0  0  0  0  0
    0.0052    0.8028   -1.1120 C   0  0  0  0  0  0  0  0  0  0  0  0
   -2.3344    0.5787   -0.1542 C   0  0  0  0  0  0  0  0  0  0  0  0
   -3.1953   -0.3576    0.3110 C   0  0  0  0  0  0  0  0  0  0  0  0
   -2.8935   -1.8545    0.3022 C   0  0  0  0  0  0  0  0  0  0  0  0
   -4.5477   -0.0559    0.9107 C   0  0  0  0  0  0  0  0  0  0  0  0
    2.8721   -0.4380   -0.4188 C   0  0  0  0  0  0  0  0  0  0  0  0
   -2.5934    2.0155    0.0224 C   0  0  0  0  0  0  0  0  0  0  0  0
    3.7548   -1.0892    0.6308 C   0  0  0  0  0  0  0  0  0  0  0  0
    5.0844   -0.4154    0.7582 C   0  0  0  0  0  0  0  0  0  0  0  0
   -6.8414   -0.5148    0.5757 C   0  0  0  0  0  0  0  0  0  0  0  0
    5.3611    0.6229    1.6043 C   0  0  0  0  0  0  0  0  0  0  0  0
    7.1783   -0.1555    0.2278 C   0  0  0  0  0  0  0  0  0  0  0  0
   -7.7916   -1.2483   -0.3216 C   0  0  0  0  0  0  0  0  0  0  0  0
   -1.3875   -1.3583   -2.1535 H   0  0  0  0  0  0  0  0  0  0  0  0
    0.9205   -0.7013   -2.4702 H   0  0  0  0  0  0  0  0  0  0  0  0
   -3.4440   -2.3356   -0.5135 H   0  0  0  0  0  0  0  0  0  0  0  0
   -3.2258   -2.3064    1.2430 H   0  0  0  0  0  0  0  0  0  0  0  0
    1.4277   -1.8206    0.1319 H   0  0  0  0  0  0  0  0  0  0  0  0
   -4.5724   -0.4243    1.9440 H   0  0  0  0  0  0  0  0  0  0  0  0
   -4.7531    1.0193    0.9376 H   0  0  0  0  0  0  0  0  0  0  0  0
    3.2291   -1.0676    1.5930 H   0  0  0  0  0  0  0  0  0  0  0  0
    3.8981   -2.1413    0.3570 H   0  0  0  0  0  0  0  0  0  0  0  0
   -3.4930    3.4337   -0.9537 H   0  0  0  0  0  0  0  0  0  0  0  0
    4.7112    1.1293    2.3036 H   0  0  0  0  0  0  0  0  0  0  0  0
   -7.5697   -2.3182   -0.2995 H   0  0  0  0  0  0  0  0  0  0  0  0
   -7.7132   -0.8596   -1.3399 H   0  0  0  0  0  0  0  0  0  0  0  0
   -8.8154   -1.0970    0.0322 H   0  0  0  0  0  0  0  0  0  0  0  0
    9.1868    0.2441   -0.1440 H   0  0  0  0  0  0  0  0  0  0  0  0
    8.5291   -1.0465   -1.0809 H   0  0  0  0  0  0  0  0  0  0  0  0
  1 13  1  0  0  0  0
  1 18  1  0  0  0  0
  2 25  1  0  0  0  0
  2 26  1  0  0  0  0
  3 15  2  0  0  0  0
  4 19  1  0  0  0  0
  4 24  1  0  0  0  0
  5 21  1  0  0  0  0
  5 37  1  0  0  0  0
  6 20  2  0  0  0  0
  7 21  2  0  0  0  0
  8 24  2  0  0  0  0
  9 13  1  0  0  0  0
  9 15  1  0  0  0  0
  9 16  1  0  0  0  0
 10 14  1  0  0  0  0
 10 20  1  0  0  0  0
 10 32  1  0  0  0  0
 11 23  1  0  0  0  0
 11 26  2  0  0  0  0
 12 26  1  0  0  0  0
 12 42  1  0  0  0  0
 12 43  1  0  0  0  0
 13 14  1  0  0  0  0
 13 28  1  0  0  0  0
 14 15  1  0  0  0  0
 14 29  1  0  0  0  0
 16 17  2  0  0  0  0
 16 21  1  0  0  0  0
 17 18  1  0  0  0  0
 17 19  1  0  0  0  0
 18 30  1  0  0  0  0
 18 31  1  0  0  0  0
 19 33  1  0  0  0  0
 19 34  1  0  0  0  0
 20 22  1  0  0  0  0
 22 23  1  0  0  0  0
 22 35  1  0  0  0  0
 22 36  1  0  0  0  0
 23 25  2  0  0  0  0
 24 27  1  0  0  0  0
 25 38  1  0  0  0  0
 27 39  1  0  0  0  0
 27 40  1  0  0  0  0
 27 41  1  0  0  0  0
M  END
> <PUBCHEM_COMPOUND_CID>
13116602

> <PUBCHEM_CONFORMER_RMSD>
1

> <PUBCHEM_CONFORMER_DIVERSEORDER>
1
41
57
13
31
53
44
22
29
43
32
40
24
47
60
59
20
18
37
14
34
42
8
56
38
12
9
2
19
5
58
21
25
26
55
33
50
23
36
61
62
63
16
11
48
4
51
54
39
28
49
35
52
46
6
30
3
45
10
17
7
27
15

> <PUBCHEM_MMFF94_PARTIAL_CHARGES>
32
1 -0.45
10 -0.65
11 -0.57
12 -0.88
13 0.44
14 0.28
15 0.58
16 0.12
17 -0.28
18 0.37
19 0.42
2 -0.08
20 0.57
21 0.71
22 0.24
23 0.05
24 0.66
25 -0.11
26 0.46
27 0.06
3 -0.57
32 0.37
37 0.5
38 0.15
4 -0.43
42 0.4
43 0.4
5 -0.65
6 -0.57
7 -0.57
8 -0.57
9 -0.39

> <PUBCHEM_EFFECTIVE_ROTOR_COUNT>
8.6

> <PUBCHEM_PHARMACOPHORE_FEATURES>
12
1 10 donor
1 12 donor
1 3 acceptor
1 5 acceptor
1 6 acceptor
1 7 acceptor
1 8 acceptor
3 11 12 26 cation
3 5 7 21 anion
4 9 13 14 15 rings
5 2 11 23 25 26 rings
6 1 9 13 16 17 18 rings

> <PUBCHEM_HEAVY_ATOM_COUNT>
27

> <PUBCHEM_ATOM_DEF_STEREO_COUNT>
2

> <PUBCHEM_ATOM_UDEF_STEREO_COUNT>
0

> <PUBCHEM_BOND_DEF_STEREO_COUNT>
0

> <PUBCHEM_BOND_UDEF_STEREO_COUNT>
0

> <PUBCHEM_ISOTOPIC_ATOM_COUNT>
0

> <PUBCHEM_COMPONENT_COUNT>
1

> <PUBCHEM_CACTVS_TAUTO_COUNT>
4

> <PUBCHEM_CONFORMER_ID>
00C824BA00000001

> <PUBCHEM_MMFF94_ENERGY>
59.328

> <PUBCHEM_FEATURE_SELFOVERLAP>
61.212

> <PUBCHEM_SHAPE_FINGERPRINT>
10 15 18410851088669112888
10165383 225 17275386512532814094
106641 1 18342737450665249202
10674148 151 12252176381657215287
12596602 18 18187641358875335496
12643181 29 8502368927745206728
12664476 115 18130784573690581136
13140716 1 18265060313465785487
13540713 4 18052546474020520375
13540713 5 17974578197302909775
13685833 64 15430035465632045138
13885169 127 13768197286248388591
13914758 101 16443058366685634277
14123256 10 11167945761983577395
14150022 121 17489596623916242481
14251764 18 18408889550612545639
14341114 176 18413386545250316384
15183329 4 10735883889499873336
18006028 8 17676204680165821079
1813 80 16588031160967716622
18335252 98 14620797128524780399
21792934 111 18335136505977899893
22224240 67 18272368684992065399
23559900 14 8069731976231267366
24771293 8 18060424621099981697
2838139 119 15338832049949908416
3009799 131 12035448346197700014
3383291 50 18040158435398362731
4325135 7 17022904554235920150
437815 12 12612756817634547239
5104073 3 18264199219793841674
563151 40 12607397811125569205
59682541 35 18343020029638485275
59755656 520 15626216918507361988

> <PUBCHEM_SHAPE_MULTIPOLES>
508.21
21.27
2.03
1.31
11.9
0.84
0.03
-1.96
8.13
-1.77
-0.07
0.32
0.29
0.66

> <PUBCHEM_SHAPE_SELFOVERLAP>
1054.279

> <PUBCHEM_SHAPE_VOLUME>
291.3

> <PUBCHEM_COORDINATE_TYPE>
2
5
10

$$$$
