131196
  -OEChem-03292013323D

 50 51  0     0  0  0  0  0  0999 V2000
    3.2397    1.8336    0.0397 O   0  0  0  0  0  0  0  0  0  0  0  0
   -4.0887    1.6337    0.0468 O   0  0  0  0  0  0  0  0  0  0  0  0
    9.6279   -2.3747    0.9464 O   0  0  0  0  0  0  0  0  0  0  0  0
    8.5492   -1.5406   -1.2623 N   0  0  0  0  0  0  0  0  0  0  0  0
   -8.8983   -2.5624   -0.8852 N   0  0  0  0  0  0  0  0  0  0  0  0
    8.4584   -1.6274    1.1171 N   0  0  0  0  0  0  0  0  0  0  0  0
   -9.4755   -1.5921    1.1608 N   0  0  0  0  0  0  0  0  0  0  0  0
   -0.4213    1.2044   -0.6492 C   0  0  0  0  0  0  0  0  0  0  0  0
    0.8288    1.7710    0.0305 C   0  0  0  0  0  0  0  0  0  0  0  0
   -1.6960    1.7195    0.0167 C   0  0  0  0  0  0  0  0  0  0  0  0
    2.1132    1.2965   -0.6383 C   0  0  0  0  0  0  0  0  0  0  0  0
   -2.9432    1.1283   -0.6249 C   0  0  0  0  0  0  0  0  0  0  0  0
    4.3882    1.0850    0.0217 C   0  0  0  0  0  0  0  0  0  0  0  0
   -5.1970    0.8273    0.0721 C   0  0  0  0  0  0  0  0  0  0  0  0
    4.6602    0.2512   -1.0630 C   0  0  0  0  0  0  0  0  0  0  0  0
    5.2858    1.1590    1.0869 C   0  0  0  0  0  0  0  0  0  0  0  0
   -5.4362   -0.0625   -0.9753 C   0  0  0  0  0  0  0  0  0  0  0  0
   -6.0868    0.8982    1.1439 C   0  0  0  0  0  0  0  0  0  0  0  0
    6.7272   -0.4349   -0.0173 C   0  0  0  0  0  0  0  0  0  0  0  0
   -7.4547   -0.8106    0.1213 C   0  0  0  0  0  0  0  0  0  0  0  0
    5.8296   -0.5086   -1.0825 C   0  0  0  0  0  0  0  0  0  0  0  0
    6.4552    0.3990    1.0674 C   0  0  0  0  0  0  0  0  0  0  0  0
   -6.5649   -0.8814   -0.9506 C   0  0  0  0  0  0  0  0  0  0  0  0
   -7.2156    0.0793    1.1686 C   0  0  0  0  0  0  0  0  0  0  0  0
    7.9470   -1.2266   -0.0377 C   0  0  0  0  0  0  0  0  0  0  0  0
   -8.6320   -1.6640    0.1464 C   0  0  0  0  0  0  0  0  0  0  0  0
   -0.4221    1.4842   -1.7096 H   0  0  0  0  0  0  0  0  0  0  0  0
   -0.3961    0.1090   -0.6028 H   0  0  0  0  0  0  0  0  0  0  0  0
    0.8014    2.8677    0.0185 H   0  0  0  0  0  0  0  0  0  0  0  0
    0.8447    1.4841    1.0894 H   0  0  0  0  0  0  0  0  0  0  0  0
   -1.7397    2.8142   -0.0413 H   0  0  0  0  0  0  0  0  0  0  0  0
   -1.6894    1.4760    1.0867 H   0  0  0  0  0  0  0  0  0  0  0  0
    2.1113    0.1988   -0.6101 H   0  0  0  0  0  0  0  0  0  0  0  0
    2.1337    1.6293   -1.6826 H   0  0  0  0  0  0  0  0  0  0  0  0
   -2.8760    0.0356   -0.5438 H   0  0  0  0  0  0  0  0  0  0  0  0
   -2.9925    1.4123   -1.6824 H   0  0  0  0  0  0  0  0  0  0  0  0
    4.0006    0.1834   -1.9231 H   0  0  0  0  0  0  0  0  0  0  0  0
    5.0798    1.8087    1.9332 H   0  0  0  0  0  0  0  0  0  0  0  0
   -4.7837   -0.1282   -1.8410 H   0  0  0  0  0  0  0  0  0  0  0  0
   -5.9052    1.5899    1.9620 H   0  0  0  0  0  0  0  0  0  0  0  0
    6.0078   -1.1570   -1.9359 H   0  0  0  0  0  0  0  0  0  0  0  0
    7.1421    0.4815    1.9057 H   0  0  0  0  0  0  0  0  0  0  0  0
   -6.7068   -1.5500   -1.7926 H   0  0  0  0  0  0  0  0  0  0  0  0
   -7.8880    0.1599    2.0183 H   0  0  0  0  0  0  0  0  0  0  0  0
    9.3992   -2.0938   -1.2885 H   0  0  0  0  0  0  0  0  0  0  0  0
    8.1976   -1.1943   -2.1482 H   0  0  0  0  0  0  0  0  0  0  0  0
   -9.7262   -3.1483   -0.8505 H   0  0  0  0  0  0  0  0  0  0  0  0
   -8.3060   -2.6815   -1.6975 H   0  0  0  0  0  0  0  0  0  0  0  0
  -10.2342   -2.2633    0.9971 H   0  0  0  0  0  0  0  0  0  0  0  0
    9.8627   -2.5820    1.8666 H   0  0  0  0  0  0  0  0  0  0  0  0
  1 11  1  0  0  0  0
  1 13  1  0  0  0  0
  2 12  1  0  0  0  0
  2 14  1  0  0  0  0
  3  6  1  0  0  0  0
  3 50  1  0  0  0  0
  4 25  1  0  0  0  0
  4 45  1  0  0  0  0
  4 46  1  0  0  0  0
  5 26  1  0  0  0  0
  5 47  1  0  0  0  0
  5 48  1  0  0  0  0
  6 25  2  3  0  0  0
  7 26  2  0  0  0  0
  7 49  1  0  0  0  0
  8  9  1  0  0  0  0
  8 10  1  0  0  0  0
  8 27  1  0  0  0  0
  8 28  1  0  0  0  0
  9 11  1  0  0  0  0
  9 29  1  0  0  0  0
  9 30  1  0  0  0  0
 10 12  1  0  0  0  0
 10 31  1  0  0  0  0
 10 32  1  0  0  0  0
 11 33  1  0  0  0  0
 11 34  1  0  0  0  0
 12 35  1  0  0  0  0
 12 36  1  0  0  0  0
 13 15  2  0  0  0  0
 13 16  1  0  0  0  0
 14 17  2  0  0  0  0
 14 18  1  0  0  0  0
 15 21  1  0  0  0  0
 15 37  1  0  0  0  0
 16 22  2  0  0  0  0
 16 38  1  0  0  0  0
 17 23  1  0  0  0  0
 17 39  1  0  0  0  0
 18 24  2  0  0  0  0
 18 40  1  0  0  0  0
 19 21  2  0  0  0  0
 19 22  1  0  0  0  0
 19 25  1  0  0  0  0
 20 23  2  0  0  0  0
 20 24  1  0  0  0  0
 20 26  1  0  0  0  0
 21 41  1  0  0  0  0
 22 42  1  0  0  0  0
 23 43  1  0  0  0  0
 24 44  1  0  0  0  0
M  END
> <PUBCHEM_COMPOUND_CID>
131196

> <PUBCHEM_CONFORMER_RMSD>
1

> <PUBCHEM_CONFORMER_DIVERSEORDER>
1
167
29
166
89
16
63
85
4
60
74
46
161
45
34
6
56
174
62
64
75
79
128
31
163
173
148
12
57
35
86
131
22
112
52
2
109
30
69
101
11
82
21
169
157
141
24
73
110
59
8
153
92
67
106
68
84
43
138
175
143
144
44
142
134
19
126
115
114
118
47
168
87
78
147
164
103
162
171
91
135
120
23
170
96
41
50
15
145
108
133
28
93
5
150
33
71
119
97
129
83
58
77
3
117
152
32
95
72
137
42
36
155
13
39
125
20
116
102
61
26
127
105
76
14
149
88
40
81
165
160
94
100
104
154
124
51
99
123
66
172
136
48
139
17
113
65
159
9
121
151
140
38
55
53
90
25
18
49
132
80
107
156
111
7
130
146
54
10
37
98
27
122
70
158

> <PUBCHEM_MMFF94_PARTIAL_CHARGES>
37
1 -0.36
11 0.28
12 0.28
13 0.08
14 0.08
15 -0.15
16 -0.15
17 -0.15
18 -0.15
19 0.09
2 -0.36
20 0.09
21 -0.15
22 -0.15
23 -0.15
24 -0.15
25 0.41
26 0.41
3 -0.34
37 0.15
38 0.15
39 0.15
4 -0.85
40 0.15
41 0.15
42 0.15
43 0.15
44 0.15
45 0.4
46 0.4
47 0.4
48 0.4
49 0.4
5 -0.85
50 0.4
6 -0.51
7 -0.85

> <PUBCHEM_EFFECTIVE_ROTOR_COUNT>
10

> <PUBCHEM_PHARMACOPHORE_FEATURES>
10
1 1 acceptor
1 2 acceptor
1 3 anion
1 4 donor
1 5 donor
1 7 donor
3 4 6 25 cation
3 5 7 26 cation
6 13 15 16 19 21 22 rings
6 14 17 18 20 23 24 rings

> <PUBCHEM_HEAVY_ATOM_COUNT>
26

> <PUBCHEM_ATOM_DEF_STEREO_COUNT>
0

> <PUBCHEM_ATOM_UDEF_STEREO_COUNT>
0

> <PUBCHEM_BOND_DEF_STEREO_COUNT>
0

> <PUBCHEM_BOND_UDEF_STEREO_COUNT>
1

> <PUBCHEM_ISOTOPIC_ATOM_COUNT>
0

> <PUBCHEM_COMPONENT_COUNT>
1

> <PUBCHEM_CACTVS_TAUTO_COUNT>
3

> <PUBCHEM_CONFORMER_ID>
0002007C00000001

> <PUBCHEM_MMFF94_ENERGY>
86.7565

> <PUBCHEM_FEATURE_SELFOVERLAP>
50.788

> <PUBCHEM_SHAPE_FINGERPRINT>
10 15 15769781281977093749
10029044 110 9799688203854517742
10533779 47 15841281350884611246
10625338 86 12967135986619404315
11386260 185 15502384447874088438
11409948 41 15647605646528039882
11456790 92 16702303446916889080
11607047 141 12103580645924850852
11607047 74 18042412495082549700
11638347 137 17988927773164138262
12592606 108 18187365432711378170
13553643 46 12535343476894115370
13627175 4 18334003995398938227
13668630 136 18113614603884049509
14251757 52 9871751291044451332
150020 25 14418139529779483533
15183329 4 13262671535090085565
15198563 99 15213010518972732447
15461852 350 13912604996705270753
15510794 2 18409443682998673477
15690457 1 18333448738317006072
1754908 1 17203607098914981395
1754911 235 12324241663512574770
1768 4 10087647027104962791
1818759 1 18187368744405405137
2026 5 18261390014154670515
21095123 293 10592045764810536619
21130990 3 18271813368197764974
23576562 1 13840847598763197439
25242607 90 18342733035391415592
33532 11 18409166610289094304
3383291 50 18411420648482932651
3711267 37 9727354670952691607
406291 66 18407759235400545636
44389302 135 18131633352805590614
5758199 1 11095890363196320277
5937810 71 12396567517662138535
636775 72 10447936066536328147
68570916 9 16772940557763147021
9953998 17 15841552990444092877
9962374 69 18336825385786695804

> <PUBCHEM_SHAPE_MULTIPOLES>
497.54
38.31
2.24
1.21
2.39
0.71
0.08
32.12
6.78
-0.02
0.07
-0.3
0.21
-0.66

> <PUBCHEM_SHAPE_SELFOVERLAP>
1035.666

> <PUBCHEM_SHAPE_VOLUME>
283.6

> <PUBCHEM_COORDINATE_TYPE>
2
5
10

$$$$
