131109
  -OEChem-03292013323D

 63 65  0     0  0  0  0  0  0999 V2000
    5.7748   -2.3069   -1.1788 O   0  0  0  0  0  0  0  0  0  0  0  0
    0.6935    1.6263   -1.2721 O   0  0  0  0  0  0  0  0  0  0  0  0
   -4.6986   -1.0025    1.0071 O   0  0  0  0  0  0  0  0  0  0  0  0
    2.9665   -2.7322   -0.5113 N   0  0  0  0  0  0  0  0  0  0  0  0
    7.1909    2.0499    1.9201 N   0  0  0  0  0  0  0  0  0  0  0  0
    5.5303   -0.1457   -0.4377 N   0  0  0  0  0  0  0  0  0  0  0  0
   -2.0913    2.0758   -1.9032 N   0  0  0  0  0  0  0  0  0  0  0  0
    0.1470   -0.5986   -0.8365 N   0  0  0  0  0  0  0  0  0  0  0  0
   -5.0589    0.7988   -0.4297 N   0  0  0  0  0  0  0  0  0  0  0  0
   -7.4475   -0.6713    1.9068 N   0  0  0  0  0  0  0  0  0  0  0  0
   -7.7665    0.1435   -0.1345 N   0  0  0  0  0  0  0  0  0  0  0  0
    7.5930   -0.1783    0.9137 C   0  0  0  0  0  0  0  0  0  0  0  0
    7.0357    0.6116    2.1014 C   0  0  0  0  0  0  0  0  0  0  0  0
    6.9368    0.1498   -0.4260 C   0  0  0  0  0  0  0  0  0  0  0  0
    3.5705   -1.5504   -0.7523 C   0  0  0  0  0  0  0  0  0  0  0  0
    1.3849   -1.1930   -0.7593 C   0  0  0  0  0  0  0  0  0  0  0  0
    2.6486   -0.5712   -0.9124 C   0  0  0  0  0  0  0  0  0  0  0  0
    5.0297   -1.3913   -0.8249 C   0  0  0  0  0  0  0  0  0  0  0  0
    1.6112   -2.5290   -0.5120 C   0  0  0  0  0  0  0  0  0  0  0  0
   -1.5925    1.0779   -1.1484 C   0  0  0  0  0  0  0  0  0  0  0  0
   -3.7837    1.0939   -0.8524 C   0  0  0  0  0  0  0  0  0  0  0  0
   -0.1559    0.7581   -1.0841 C   0  0  0  0  0  0  0  0  0  0  0  0
   -2.5822    0.4413   -0.4821 C   0  0  0  0  0  0  0  0  0  0  0  0
   -3.4509    2.1005   -1.7320 C   0  0  0  0  0  0  0  0  0  0  0  0
    3.6052   -4.0098   -0.2831 C   0  0  0  0  0  0  0  0  0  0  0  0
    8.6057    2.4039    1.7935 C   0  0  0  0  0  0  0  0  0  0  0  0
    6.5832    2.7788    3.0350 C   0  0  0  0  0  0  0  0  0  0  0  0
   -1.3550    2.9797   -2.7592 C   0  0  0  0  0  0  0  0  0  0  0  0
   -5.4695   -0.2141    0.4642 C   0  0  0  0  0  0  0  0  0  0  0  0
   -6.9140   -0.2482    0.7519 C   0  0  0  0  0  0  0  0  0  0  0  0
   -8.8002   -0.5429    1.7624 C   0  0  0  0  0  0  0  0  0  0  0  0
   -6.7682   -1.1664    3.0808 C   0  0  0  0  0  0  0  0  0  0  0  0
   -8.9725   -0.0380    0.4951 C   0  0  0  0  0  0  0  0  0  0  0  0
    7.4354   -1.2444    1.1263 H   0  0  0  0  0  0  0  0  0  0  0  0
    8.6789   -0.0611    0.8301 H   0  0  0  0  0  0  0  0  0  0  0  0
    7.5367    0.2733    3.0183 H   0  0  0  0  0  0  0  0  0  0  0  0
    5.9729    0.3649    2.2188 H   0  0  0  0  0  0  0  0  0  0  0  0
    7.0510    1.2091   -0.6766 H   0  0  0  0  0  0  0  0  0  0  0  0
    7.4293   -0.4246   -1.2186 H   0  0  0  0  0  0  0  0  0  0  0  0
    4.8947    0.5797   -0.1200 H   0  0  0  0  0  0  0  0  0  0  0  0
    2.8532    0.4686   -1.1234 H   0  0  0  0  0  0  0  0  0  0  0  0
    0.9224   -3.3456   -0.3381 H   0  0  0  0  0  0  0  0  0  0  0  0
   -0.6297   -1.2436   -0.7136 H   0  0  0  0  0  0  0  0  0  0  0  0
   -2.4646   -0.3880    0.2004 H   0  0  0  0  0  0  0  0  0  0  0  0
   -4.0670    2.8271   -2.2457 H   0  0  0  0  0  0  0  0  0  0  0  0
    4.0567   -4.3436   -1.2205 H   0  0  0  0  0  0  0  0  0  0  0  0
    4.3580   -3.8937    0.5006 H   0  0  0  0  0  0  0  0  0  0  0  0
    2.8559   -4.7365    0.0425 H   0  0  0  0  0  0  0  0  0  0  0  0
    9.2082    2.0208    2.6252 H   0  0  0  0  0  0  0  0  0  0  0  0
    8.7239    3.4941    1.7711 H   0  0  0  0  0  0  0  0  0  0  0  0
    9.0340    2.0523    0.8501 H   0  0  0  0  0  0  0  0  0  0  0  0
    7.0598    2.5416    3.9931 H   0  0  0  0  0  0  0  0  0  0  0  0
    6.6532    3.8601    2.8723 H   0  0  0  0  0  0  0  0  0  0  0  0
    5.5158    2.5436    3.1123 H   0  0  0  0  0  0  0  0  0  0  0  0
   -0.7679    3.6527   -2.1297 H   0  0  0  0  0  0  0  0  0  0  0  0
   -0.7134    2.3952   -3.4233 H   0  0  0  0  0  0  0  0  0  0  0  0
   -2.0584    3.5619   -3.3608 H   0  0  0  0  0  0  0  0  0  0  0  0
   -5.7858    1.3983   -0.8147 H   0  0  0  0  0  0  0  0  0  0  0  0
   -9.5003   -0.8109    2.5416 H   0  0  0  0  0  0  0  0  0  0  0  0
   -7.4879   -1.2739    3.8967 H   0  0  0  0  0  0  0  0  0  0  0  0
   -5.9962   -0.4490    3.3703 H   0  0  0  0  0  0  0  0  0  0  0  0
   -6.3315   -2.1395    2.8437 H   0  0  0  0  0  0  0  0  0  0  0  0
   -9.9039    0.2035    0.0038 H   0  0  0  0  0  0  0  0  0  0  0  0
  1 18  2  0  0  0  0
  2 22  2  0  0  0  0
  3 29  2  0  0  0  0
  4 15  1  0  0  0  0
  4 19  1  0  0  0  0
  4 25  1  0  0  0  0
  5 13  1  0  0  0  0
  5 26  1  0  0  0  0
  5 27  1  0  0  0  0
  6 14  1  0  0  0  0
  6 18  1  0  0  0  0
  6 40  1  0  0  0  0
  7 20  1  0  0  0  0
  7 24  1  0  0  0  0
  7 28  1  0  0  0  0
  8 16  1  0  0  0  0
  8 22  1  0  0  0  0
  8 43  1  0  0  0  0
  9 21  1  0  0  0  0
  9 29  1  0  0  0  0
  9 58  1  0  0  0  0
 10 30  1  0  0  0  0
 10 31  1  0  0  0  0
 10 32  1  0  0  0  0
 11 30  2  0  0  0  0
 11 33  1  0  0  0  0
 12 13  1  0  0  0  0
 12 14  1  0  0  0  0
 12 34  1  0  0  0  0
 12 35  1  0  0  0  0
 13 36  1  0  0  0  0
 13 37  1  0  0  0  0
 14 38  1  0  0  0  0
 14 39  1  0  0  0  0
 15 17  2  0  0  0  0
 15 18  1  0  0  0  0
 16 17  1  0  0  0  0
 16 19  2  0  0  0  0
 17 41  1  0  0  0  0
 19 42  1  0  0  0  0
 20 22  1  0  0  0  0
 20 23  2  0  0  0  0
 21 23  1  0  0  0  0
 21 24  2  0  0  0  0
 23 44  1  0  0  0  0
 24 45  1  0  0  0  0
 25 46  1  0  0  0  0
 25 47  1  0  0  0  0
 25 48  1  0  0  0  0
 26 49  1  0  0  0  0
 26 50  1  0  0  0  0
 26 51  1  0  0  0  0
 27 52  1  0  0  0  0
 27 53  1  0  0  0  0
 27 54  1  0  0  0  0
 28 55  1  0  0  0  0
 28 56  1  0  0  0  0
 28 57  1  0  0  0  0
 29 30  1  0  0  0  0
 31 33  2  0  0  0  0
 31 59  1  0  0  0  0
 32 60  1  0  0  0  0
 32 61  1  0  0  0  0
 32 62  1  0  0  0  0
 33 63  1  0  0  0  0
M  END
> <PUBCHEM_COMPOUND_CID>
131109

> <PUBCHEM_CONFORMER_RMSD>
1.2

> <PUBCHEM_CONFORMER_DIVERSEORDER>
1
38
25
95
97
74
62
111
45
44
20
13
110
70
121
56
47
54
108
29
42
19
75
65
21
50
71
28
113
124
27
5
69
109
99
84
14
90
9
93
79
89
24
72
23
103
3
64
119
105
55
57
10
123
118
4
8
30
104
120
34
32
31
46
41
18
122
26
86
15
60
22
116
83
96
77
78
80
61
115
92
94
102
2
43
100
12
68
17
112
125
87
66
39
40
58
11
82
88
76
53
63
7
101
48
91
85
59
37
67
106
107
6
73
117
16
52
33
81
35
114
49
98
51
36

> <PUBCHEM_MMFF94_PARTIAL_CHARGES>
41
1 -0.57
10 0.05
11 -0.57
13 0.27
14 0.3
15 -0.24
16 0.06
17 -0.15
18 0.71
19 -0.3
2 -0.57
20 -0.24
21 0.06
22 0.71
23 -0.15
24 -0.3
25 0.26
26 0.27
27 0.27
28 0.26
29 0.71
3 -0.57
30 0.1
31 -0.3
32 0.26
33 0.08
4 0.05
40 0.37
41 0.15
42 0.15
43 0.37
44 0.15
45 0.15
5 -0.81
58 0.37
59 0.15
6 -0.73
63 0.15
7 0.05
8 -0.49
9 -0.49

> <PUBCHEM_EFFECTIVE_ROTOR_COUNT>
12

> <PUBCHEM_PHARMACOPHORE_FEATURES>
13
1 1 acceptor
1 2 acceptor
1 3 acceptor
1 4 cation
1 5 cation
1 6 donor
1 7 cation
1 8 donor
1 9 donor
3 10 11 30 cation
5 10 11 30 31 33 rings
5 4 15 16 17 19 rings
5 7 20 21 23 24 rings

> <PUBCHEM_HEAVY_ATOM_COUNT>
33

> <PUBCHEM_ATOM_DEF_STEREO_COUNT>
0

> <PUBCHEM_ATOM_UDEF_STEREO_COUNT>
0

> <PUBCHEM_BOND_DEF_STEREO_COUNT>
0

> <PUBCHEM_BOND_UDEF_STEREO_COUNT>
0

> <PUBCHEM_ISOTOPIC_ATOM_COUNT>
0

> <PUBCHEM_COMPONENT_COUNT>
1

> <PUBCHEM_CACTVS_TAUTO_COUNT>
8

> <PUBCHEM_CONFORMER_ID>
0002002500000001

> <PUBCHEM_MMFF94_ENERGY>
57.8667

> <PUBCHEM_FEATURE_SELFOVERLAP>
65.972

> <PUBCHEM_SHAPE_FINGERPRINT>
10 15 18261109686693213918
10391435 84 18186523215959296147
11411753 3 18046057169204286046
12202916 173 17894357679086405515
12758862 65 17967541210926051320
12838862 33 18040989645167525399
13383668 251 18270671095411209909
13627175 23 16845570928665614505
14461889 52 18186523176893127266
14849402 71 17489584601701309417
15347590 135 18408600349211424136
16990366 60 17240775037857899649
19303781 99 17313957458467593115
20501277 279 18413387657499256856
21130935 74 18264775346501496999
21133410 58 7997965774598040584
21521721 280 17989204850363843998
21585481 104 14907907115677381448
22002106 203 18189339138606487547
22149856 69 18265348226012800109
22224240 67 18202003222512255279
23524908 199 11169905104852595803
23559900 14 17895206545486896581
2747138 104 18333737896473394308
3004659 81 16805616884500742167
3383291 50 17749404671929880379
3711267 37 16415759717312844240
3986486 107 10159711209068828240
4093350 32 16487258781683627780
437795 51 18131066048197565912
474113 269 14056991711975360336
5104073 3 18118963594619042530
5109719 28 18343293795708230992
54076057 255 15626219131043747394
5911458 16 16200155412801622288
59682541 35 18335139799742516544
9962374 69 18188216519985359287
9980921 52 14057535983190411248

> <PUBCHEM_SHAPE_MULTIPOLES>
621.67
29.5
3.25
2.6
13.32
0.93
1.56
-4.19
25.7
-6.33
-0.67
-0.04
-1.88
7.76

> <PUBCHEM_SHAPE_SELFOVERLAP>
1319.423

> <PUBCHEM_SHAPE_VOLUME>
351.6

> <PUBCHEM_COORDINATE_TYPE>
2
5
10

$$$$
