131197
  -OEChem-03292013323D

 56 60  0     1  0  0  0  0  0999 V2000
   -2.7118    2.0492    0.8050 O   0  0  0  0  0  0  0  0  0  0  0  0
   -4.2257    4.6712    0.2021 O   0  0  0  0  0  0  0  0  0  0  0  0
   -4.1927   -0.0641   -0.2707 O   0  0  0  0  0  0  0  0  0  0  0  0
    3.8098   -2.1403   -0.8977 O   0  0  0  0  0  0  0  0  0  0  0  0
   -0.4165    2.5693    0.5068 N   0  0  0  0  0  0  0  0  0  0  0  0
    1.8007    2.4713    0.7535 N   0  0  0  0  0  0  0  0  0  0  0  0
   -0.8210    0.3753   -0.4560 N   0  0  0  0  0  0  0  0  0  0  0  0
    1.2552   -0.8825   -0.7079 N   0  0  0  0  0  0  0  0  0  0  0  0
    3.3722    0.0136   -0.0628 N   0  0  0  0  0  0  0  0  0  0  0  0
   -3.7189    3.6460   -0.6495 C   0  0  2  0  0  0  0  0  0  0  0  0
   -3.9001    2.2886    0.0217 C   0  0  1  0  0  0  0  0  0  0  0  0
   -1.7712    3.1074    0.5525 C   0  0  1  0  0  0  0  0  0  0  0  0
   -2.2166    3.7924   -0.7315 C   0  0  0  0  0  0  0  0  0  0  0  0
   -4.0406    1.1520   -0.9815 C   0  0  0  0  0  0  0  0  0  0  0  0
   -0.0342    1.3390    0.0461 C   0  0  0  0  0  0  0  0  0  0  0  0
    0.7240    3.2107    0.9199 C   0  0  0  0  0  0  0  0  0  0  0  0
    1.3413    1.2987    0.2082 C   0  0  0  0  0  0  0  0  0  0  0  0
   -4.3300   -1.1740   -1.1503 C   0  0  0  0  0  0  0  0  0  0  0  0
    1.9879    0.1332   -0.1910 C   0  0  0  0  0  0  0  0  0  0  0  0
   -4.4865   -2.4260   -0.3382 C   0  0  0  0  0  0  0  0  0  0  0  0
   -0.0839   -0.7009   -0.8069 C   0  0  0  0  0  0  0  0  0  0  0  0
   -3.3595   -3.1494    0.0359 C   0  0  0  0  0  0  0  0  0  0  0  0
   -5.7571   -2.8514    0.0333 C   0  0  0  0  0  0  0  0  0  0  0  0
    4.1795   -1.0774   -0.4106 C   0  0  0  0  0  0  0  0  0  0  0  0
   -3.5049   -4.3131    0.7910 C   0  0  0  0  0  0  0  0  0  0  0  0
   -5.9024   -4.0151    0.7885 C   0  0  0  0  0  0  0  0  0  0  0  0
    5.6291   -0.9138   -0.1251 C   0  0  0  0  0  0  0  0  0  0  0  0
   -4.7762   -4.7459    1.1674 C   0  0  0  0  0  0  0  0  0  0  0  0
    6.5404   -1.6099   -0.8910 C   0  0  0  0  0  0  0  0  0  0  0  0
    6.0151   -0.0708    0.8957 C   0  0  0  0  0  0  0  0  0  0  0  0
    7.9008   -1.4563   -0.6234 C   0  0  0  0  0  0  0  0  0  0  0  0
    7.3755    0.0829    1.1631 C   0  0  0  0  0  0  0  0  0  0  0  0
    8.3182   -0.6099    0.4034 C   0  0  0  0  0  0  0  0  0  0  0  0
   -4.2209    3.7382   -1.6161 H   0  0  0  0  0  0  0  0  0  0  0  0
   -4.7468    2.2797    0.7174 H   0  0  0  0  0  0  0  0  0  0  0  0
   -1.8131    3.7927    1.4078 H   0  0  0  0  0  0  0  0  0  0  0  0
   -1.8353    3.2602   -1.6110 H   0  0  0  0  0  0  0  0  0  0  0  0
   -1.8710    4.8298   -0.7760 H   0  0  0  0  0  0  0  0  0  0  0  0
   -3.1555    1.0860   -1.6237 H   0  0  0  0  0  0  0  0  0  0  0  0
   -4.9216    1.3197   -1.6119 H   0  0  0  0  0  0  0  0  0  0  0  0
   -3.9019    4.5201    1.1057 H   0  0  0  0  0  0  0  0  0  0  0  0
    0.7063    4.2113    1.3300 H   0  0  0  0  0  0  0  0  0  0  0  0
   -5.2034   -1.0326   -1.7991 H   0  0  0  0  0  0  0  0  0  0  0  0
   -3.4477   -1.2516   -1.7979 H   0  0  0  0  0  0  0  0  0  0  0  0
   -0.6350   -1.5296   -1.2365 H   0  0  0  0  0  0  0  0  0  0  0  0
    3.8203    0.8530    0.2938 H   0  0  0  0  0  0  0  0  0  0  0  0
   -2.3647   -2.8235   -0.2491 H   0  0  0  0  0  0  0  0  0  0  0  0
   -6.6408   -2.2886   -0.2544 H   0  0  0  0  0  0  0  0  0  0  0  0
   -2.6281   -4.8820    1.0863 H   0  0  0  0  0  0  0  0  0  0  0  0
   -6.8922   -4.3520    1.0822 H   0  0  0  0  0  0  0  0  0  0  0  0
   -4.8895   -5.6519    1.7556 H   0  0  0  0  0  0  0  0  0  0  0  0
    6.2328   -2.2681   -1.6980 H   0  0  0  0  0  0  0  0  0  0  0  0
    5.3165    0.4549    1.5379 H   0  0  0  0  0  0  0  0  0  0  0  0
    8.6350   -1.9949   -1.2154 H   0  0  0  0  0  0  0  0  0  0  0  0
    7.7011    0.7346    1.9687 H   0  0  0  0  0  0  0  0  0  0  0  0
    9.3773   -0.4917    0.6129 H   0  0  0  0  0  0  0  0  0  0  0  0
  1 11  1  0  0  0  0
  1 12  1  0  0  0  0
  2 10  1  0  0  0  0
  2 41  1  0  0  0  0
  3 14  1  0  0  0  0
  3 18  1  0  0  0  0
  4 24  2  0  0  0  0
  5 12  1  0  0  0  0
  5 15  1  0  0  0  0
  5 16  1  0  0  0  0
  6 16  2  0  0  0  0
  6 17  1  0  0  0  0
  7 15  2  0  0  0  0
  7 21  1  0  0  0  0
  8 19  1  0  0  0  0
  8 21  2  0  0  0  0
  9 19  1  0  0  0  0
  9 24  1  0  0  0  0
  9 46  1  0  0  0  0
 10 11  1  0  0  0  0
 10 13  1  0  0  0  0
 10 34  1  0  0  0  0
 11 14  1  0  0  0  0
 11 35  1  0  0  0  0
 12 13  1  0  0  0  0
 12 36  1  0  0  0  0
 13 37  1  0  0  0  0
 13 38  1  0  0  0  0
 14 39  1  0  0  0  0
 14 40  1  0  0  0  0
 15 17  1  0  0  0  0
 16 42  1  0  0  0  0
 17 19  2  0  0  0  0
 18 20  1  0  0  0  0
 18 43  1  0  0  0  0
 18 44  1  0  0  0  0
 20 22  2  0  0  0  0
 20 23  1  0  0  0  0
 21 45  1  0  0  0  0
 22 25  1  0  0  0  0
 22 47  1  0  0  0  0
 23 26  2  0  0  0  0
 23 48  1  0  0  0  0
 24 27  1  0  0  0  0
 25 28  2  0  0  0  0
 25 49  1  0  0  0  0
 26 28  1  0  0  0  0
 26 50  1  0  0  0  0
 27 29  2  0  0  0  0
 27 30  1  0  0  0  0
 28 51  1  0  0  0  0
 29 31  1  0  0  0  0
 29 52  1  0  0  0  0
 30 32  2  0  0  0  0
 30 53  1  0  0  0  0
 31 33  2  0  0  0  0
 31 54  1  0  0  0  0
 32 33  1  0  0  0  0
 32 55  1  0  0  0  0
 33 56  1  0  0  0  0
M  END
> <PUBCHEM_COMPOUND_CID>
131197

> <PUBCHEM_CONFORMER_RMSD>
1

> <PUBCHEM_CONFORMER_DIVERSEORDER>
1
45
41
43
62
21
25
89
27
60
79
44
20
96
36
54
47
80
100
102
82
35
38
58
42
85
19
32
30
92
84
39
99
64
49
52
10
50
14
71
37
93
40
87
31
28
78
77
22
95
76
94
81
90
26
17
9
72
8
48
88
73
29
86
33
56
55
74
24
3
18
15
83
34
101
61
68
6
63
53
69
57
75
16
97
12
11
98
13
91
70
67
4
51
23
7
66
5
2
65
46
59

> <PUBCHEM_MMFF94_PARTIAL_CHARGES>
46
1 -0.56
10 0.28
11 0.28
12 0.54
14 0.28
15 0.11
16 0.04
17 0.23
18 0.42
19 0.43
2 -0.68
20 -0.14
21 0.47
22 -0.15
23 -0.15
24 0.54
25 -0.15
26 -0.15
27 0.09
28 -0.15
29 -0.15
3 -0.56
30 -0.15
31 -0.15
32 -0.15
33 -0.15
4 -0.57
41 0.4
42 0.15
45 0.15
46 0.37
47 0.15
48 0.15
49 0.15
5 0.05
50 0.15
51 0.15
52 0.15
53 0.15
54 0.15
55 0.15
56 0.15
6 -0.57
7 -0.57
8 -0.62
9 -0.55

> <PUBCHEM_EFFECTIVE_ROTOR_COUNT>
9

> <PUBCHEM_PHARMACOPHORE_FEATURES>
14
1 1 acceptor
1 2 acceptor
1 2 donor
1 3 acceptor
1 4 acceptor
1 9 donor
3 5 6 16 cation
3 5 7 15 cation
3 7 8 21 cation
5 1 10 11 12 13 rings
5 5 6 15 16 17 rings
6 20 22 23 25 26 28 rings
6 27 29 30 31 32 33 rings
6 7 8 15 17 19 21 rings

> <PUBCHEM_HEAVY_ATOM_COUNT>
33

> <PUBCHEM_ATOM_DEF_STEREO_COUNT>
3

> <PUBCHEM_ATOM_UDEF_STEREO_COUNT>
0

> <PUBCHEM_BOND_DEF_STEREO_COUNT>
0

> <PUBCHEM_BOND_UDEF_STEREO_COUNT>
0

> <PUBCHEM_ISOTOPIC_ATOM_COUNT>
0

> <PUBCHEM_COMPONENT_COUNT>
1

> <PUBCHEM_CACTVS_TAUTO_COUNT>
4

> <PUBCHEM_CONFORMER_ID>
0002007D00000001

> <PUBCHEM_MMFF94_ENERGY>
86.2758

> <PUBCHEM_FEATURE_SELFOVERLAP>
71.656

> <PUBCHEM_SHAPE_FINGERPRINT>
10050765 1 18410012178235194472
10169797 241 17986963045023335844
10290309 65 17832142723686584501
10391435 84 18411407419724658872
10411042 1 18266178516838771439
10838868 158 18044944716534332218
10940486 97 18187932742046894109
117089 54 18265336295010967899
11756154 5 18337665416648980383
12645989 146 18198622340406097311
12841400 136 18120652694042246551
14415360 78 18049990109481855101
14461889 52 18130212784768421418
14659021 117 18408601457523800729
14725015 67 18339642347573099555
14856354 85 18411421691563205135
15274700 256 18335697304869799994
15351339 4 18114450202314251187
15400415 2 17760930640963427884
17686467 74 18338509842444041928
19611394 137 18342458162528525290
20721686 56 18270107058709438207
2260408 40 16199610055160904094
23466295 7 18410296934830085297
2747138 104 18341894134628106938
395649 100 18408040698341687102
4073 2 18341050710303912038
44802255 64 17751914727963576341
4616759 239 17988353759448914112
484989 97 18273216400979579736
49967989 163 18335147488077666998
5047190 19 18261120685772721058
54583773 228 18262805198591475964
563151 97 17692810385485911217
6009941 240 18409442562001413239
6695519 79 16701724021976094742

> <PUBCHEM_SHAPE_MULTIPOLES>
630.74
19.55
6.45
1.04
37.48
0.63
0.03
-18.42
1.08
-15.8
1.52
0.11
-0.18
2.67

> <PUBCHEM_SHAPE_SELFOVERLAP>
1385.261

> <PUBCHEM_SHAPE_VOLUME>
337.7

> <PUBCHEM_COORDINATE_TYPE>
2
5
10

$$$$
