131235
  -OEChem-03292013323D

 29 31  0     1  0  0  0  0  0999 V2000
    2.1703    2.0757    0.0969 S   0  0  0  0  0  0  0  0  0  0  0  0
   -0.4010   -1.4701    0.2651 S   0  0  0  0  0  0  0  0  0  0  0  0
    6.0515   -0.3763   -0.0793 O   0  0  0  0  0  0  0  0  0  0  0  0
   -5.5968   -1.6193   -0.0683 O   0  0  0  0  0  0  0  0  0  0  0  0
    4.4542   -1.8733   -0.7146 O   0  0  0  0  0  0  0  0  0  0  0  0
    2.4963   -0.4885    0.3770 N   0  0  0  0  0  0  0  0  0  0  0  0
   -0.7459    1.0756    0.0351 N   0  0  0  0  0  0  0  0  0  0  0  0
    3.8308    0.1290    0.4777 C   0  0  2  0  0  0  0  0  0  0  0  0
    3.8362    1.4742   -0.2253 C   0  0  0  0  0  0  0  0  0  0  0  0
    1.5925    0.4298    0.2421 C   0  0  0  0  0  0  0  0  0  0  0  0
   -2.0052    0.4946   -0.0012 C   0  0  0  0  0  0  0  0  0  0  0  0
    0.1656    0.1411    0.1717 C   0  0  0  0  0  0  0  0  0  0  0  0
   -2.0205   -0.8991    0.1110 C   0  0  0  0  0  0  0  0  0  0  0  0
   -3.2337    1.1767   -0.1382 C   0  0  0  0  0  0  0  0  0  0  0  0
   -3.2183   -1.6315    0.0910 C   0  0  0  0  0  0  0  0  0  0  0  0
   -4.4300    0.4539   -0.1587 C   0  0  0  0  0  0  0  0  0  0  0  0
    4.7763   -0.8264   -0.1727 C   0  0  0  0  0  0  0  0  0  0  0  0
   -4.4201   -0.9320   -0.0454 C   0  0  0  0  0  0  0  0  0  0  0  0
   -3.3021    2.6661   -0.2638 C   0  0  0  0  0  0  0  0  0  0  0  0
    4.0984    0.2138    1.5386 H   0  0  0  0  0  0  0  0  0  0  0  0
    4.5947    2.1507    0.1782 H   0  0  0  0  0  0  0  0  0  0  0  0
    3.9858    1.3801   -1.3062 H   0  0  0  0  0  0  0  0  0  0  0  0
   -3.2061   -2.7141    0.1798 H   0  0  0  0  0  0  0  0  0  0  0  0
   -5.3784    0.9764   -0.2641 H   0  0  0  0  0  0  0  0  0  0  0  0
   -3.8880    3.0880    0.5595 H   0  0  0  0  0  0  0  0  0  0  0  0
   -2.3095    3.1261   -0.2363 H   0  0  0  0  0  0  0  0  0  0  0  0
   -3.7721    2.9439   -1.2129 H   0  0  0  0  0  0  0  0  0  0  0  0
    6.6890   -0.9913   -0.5007 H   0  0  0  0  0  0  0  0  0  0  0  0
   -5.4093   -2.5696    0.0211 H   0  0  0  0  0  0  0  0  0  0  0  0
  1  9  1  0  0  0  0
  1 10  1  0  0  0  0
  2 12  1  0  0  0  0
  2 13  1  0  0  0  0
  3 17  1  0  0  0  0
  3 28  1  0  0  0  0
  4 18  1  0  0  0  0
  4 29  1  0  0  0  0
  5 17  2  0  0  0  0
  6  8  1  0  0  0  0
  6 10  2  0  0  0  0
  7 11  1  0  0  0  0
  7 12  2  0  0  0  0
  8  9  1  0  0  0  0
  8 17  1  0  0  0  0
  8 20  1  0  0  0  0
  9 21  1  0  0  0  0
  9 22  1  0  0  0  0
 10 12  1  0  0  0  0
 11 13  2  0  0  0  0
 11 14  1  0  0  0  0
 13 15  1  0  0  0  0
 14 16  2  0  0  0  0
 14 19  1  0  0  0  0
 15 18  2  0  0  0  0
 15 23  1  0  0  0  0
 16 18  1  0  0  0  0
 16 24  1  0  0  0  0
 19 25  1  0  0  0  0
 19 26  1  0  0  0  0
 19 27  1  0  0  0  0
M  END
> <PUBCHEM_COMPOUND_CID>
131235

> <PUBCHEM_CONFORMER_RMSD>
0.6

> <PUBCHEM_CONFORMER_DIVERSEORDER>
1
7
4
6
3
8
2
5

> <PUBCHEM_MMFF94_PARTIAL_CHARGES>
23
1 -0.37
10 0.68
11 0.23
12 0.29
13 0.04
14 -0.14
15 -0.15
16 -0.15
17 0.66
18 0.08
19 0.14
2 -0.08
23 0.15
24 0.15
28 0.5
29 0.45
3 -0.65
4 -0.53
5 -0.57
6 -0.7
7 -0.57
8 0.31
9 0.23

> <PUBCHEM_EFFECTIVE_ROTOR_COUNT>
2.6

> <PUBCHEM_PHARMACOPHORE_FEATURES>
9
1 3 acceptor
1 4 donor
1 5 acceptor
1 6 acceptor
1 7 acceptor
3 3 5 17 anion
5 1 6 8 9 10 rings
5 2 7 11 12 13 rings
6 11 13 14 15 16 18 rings

> <PUBCHEM_HEAVY_ATOM_COUNT>
19

> <PUBCHEM_ATOM_DEF_STEREO_COUNT>
1

> <PUBCHEM_ATOM_UDEF_STEREO_COUNT>
0

> <PUBCHEM_BOND_DEF_STEREO_COUNT>
0

> <PUBCHEM_BOND_UDEF_STEREO_COUNT>
0

> <PUBCHEM_ISOTOPIC_ATOM_COUNT>
0

> <PUBCHEM_COMPONENT_COUNT>
1

> <PUBCHEM_CACTVS_TAUTO_COUNT>
9

> <PUBCHEM_CONFORMER_ID>
000200A300000001

> <PUBCHEM_MMFF94_ENERGY>
34.5766

> <PUBCHEM_FEATURE_SELFOVERLAP>
45.808

> <PUBCHEM_SHAPE_FINGERPRINT>
10366900 7 17022902350047402536
10680689 15 18260553307580994993
12107183 9 17758107099397364016
12236239 1 17676486142421101362
12403259 226 18412538842843893265
12403259 415 18272362079348065281
12507560 40 18271519879627639360
12616971 3 14333403467298749272
12916748 109 18334576871026568104
12916754 54 18412546539556877225
13167823 11 18410008840570150250
13288520 33 18411982455299163703
13675066 3 18131342016773047200
14251751 93 18410848841842171047
14341114 176 18408890663088430369
14573314 32 18410857629371639158
14866123 147 17264419734654715786
15042514 8 18265616670729212795
15196674 1 18410011048093845024
15536298 74 18410571825099652848
17804303 29 18410575093464224457
17834072 33 18410294739811516916
17844677 252 18411987965885064536
18186145 218 17968086543018036384
200 152 17989205949342325523
20510252 161 18413107277760338433
20645477 70 18342460339997810030
21033648 29 17417228975608564472
21267235 1 18408610287913471923
21279426 13 18194965145455958814
21637258 2 16056304159889431407
21682296 61 18059021574926693782
221357 26 18411697707652507385
221490 88 18336833116458439360
2297311 6 18412833486131713517
2306618 200 18273220777145475673
23175994 123 17418093213033045457
23402539 116 18412537735137281405
23557571 272 18413394219602597741
23559900 14 18411974788761863776
29717793 49 18341609330518608765
3004659 81 18188494571857544422
312423 11 18261688055057436493
335352 9 18410291402933359365
34797466 226 17774451589739035028
350125 39 18410013226106429337
351380 180 18411416237054971677
4214541 1 18410573963761387481
474 4 16951412211784736972
4990 188 18411702058802446926
5104073 3 18411698794274076416
5281201 14 18410295817642722820
542803 24 13479125791984933199
559249 180 18336823083351824578
59755656 215 18335135350562807383
6138700 20 18265899060555069382
633830 44 17676488362861268616
7495541 125 17560516325764880827
77779 3 18410293622708660568
90127 26 18186527604740633120
9709674 26 18336549437931689514

> <PUBCHEM_SHAPE_MULTIPOLES>
371.14
12.1
2.24
0.66
5.59
0.78
0
-3.14
-1.18
-0.96
-0.17
0.15
-0.02
0.43

> <PUBCHEM_SHAPE_SELFOVERLAP>
787.225

> <PUBCHEM_SHAPE_VOLUME>
211

> <PUBCHEM_COORDINATE_TYPE>
2
5
10

$$$$
