131211
  -OEChem-03292013323D

 37 36  0     1  0  0  0  0  0999 V2000
    0.9165    2.9299    0.0103 S   0  0  0  0  0  0  0  0  0  0  0  0
   -2.8698    0.2691    0.0400 O   0  0  0  0  0  0  0  0  0  0  0  0
   -0.5997   -1.0146   -2.3543 O   0  0  0  0  0  0  0  0  0  0  0  0
    2.8545   -0.2022    0.6714 O   0  0  0  0  0  0  0  0  0  0  0  0
    3.9139    0.9193   -1.0340 O   0  0  0  0  0  0  0  0  0  0  0  0
   -3.3149    1.0543    2.0603 O   0  5  0  0  0  0  0  0  0  0  0  0
   -4.1944    2.0991    0.2978 O   0  0  0  0  0  0  0  0  0  0  0  0
    0.5398   -0.2677   -0.4906 N   0  0  0  0  0  0  0  0  0  0  0  0
   -3.5219    1.2312    0.8591 N   0  3  0  0  0  0  0  0  0  0  0  0
   -1.4435   -1.6965   -0.1736 C   0  0  0  0  0  0  0  0  0  0  0  0
   -2.1201   -0.6893    0.7782 C   0  0  0  0  0  0  0  0  0  0  0  0
   -0.4713   -0.9694   -1.1303 C   0  0  0  0  0  0  0  0  0  0  0  0
   -0.6724   -2.7436    0.6485 C   0  0  0  0  0  0  0  0  0  0  0  0
   -2.5171   -2.4282   -1.0035 C   0  0  0  0  0  0  0  0  0  0  0  0
    1.5420    0.4800   -1.2139 C   0  0  1  0  0  0  0  0  0  0  0  0
    1.0913    1.9161   -1.4947 C   0  0  0  0  0  0  0  0  0  0  0  0
    2.9047    0.4354   -0.5319 C   0  0  0  0  0  0  0  0  0  0  0  0
    4.0960   -0.2962    1.3776 C   0  0  0  0  0  0  0  0  0  0  0  0
    3.8664   -1.0267    2.6835 C   0  0  0  0  0  0  0  0  0  0  0  0
   -1.3629   -0.1803    1.3876 H   0  0  0  0  0  0  0  0  0  0  0  0
   -2.7928   -1.2416    1.4490 H   0  0  0  0  0  0  0  0  0  0  0  0
    0.0544   -2.2795    1.3241 H   0  0  0  0  0  0  0  0  0  0  0  0
   -0.1170   -3.4250   -0.0062 H   0  0  0  0  0  0  0  0  0  0  0  0
   -1.3525   -3.3448    1.2623 H   0  0  0  0  0  0  0  0  0  0  0  0
   -3.2397   -2.9373   -0.3560 H   0  0  0  0  0  0  0  0  0  0  0  0
   -3.0734   -1.7371   -1.6467 H   0  0  0  0  0  0  0  0  0  0  0  0
   -2.0646   -3.1840   -1.6562 H   0  0  0  0  0  0  0  0  0  0  0  0
    1.6844   -0.0287   -2.1762 H   0  0  0  0  0  0  0  0  0  0  0  0
    0.5913   -0.2642    0.5228 H   0  0  0  0  0  0  0  0  0  0  0  0
    1.8188    2.4188   -2.1410 H   0  0  0  0  0  0  0  0  0  0  0  0
    0.1278    1.9211   -2.0153 H   0  0  0  0  0  0  0  0  0  0  0  0
    0.5356    4.0564   -0.6095 H   0  0  0  0  0  0  0  0  0  0  0  0
    4.4784    0.7106    1.5790 H   0  0  0  0  0  0  0  0  0  0  0  0
    4.8218   -0.8463    0.7683 H   0  0  0  0  0  0  0  0  0  0  0  0
    3.1290   -0.4976    3.2961 H   0  0  0  0  0  0  0  0  0  0  0  0
    3.4654   -2.0287    2.4988 H   0  0  0  0  0  0  0  0  0  0  0  0
    4.7973   -1.1172    3.2502 H   0  0  0  0  0  0  0  0  0  0  0  0
  1 16  1  0  0  0  0
  1 32  1  0  0  0  0
  2  9  1  0  0  0  0
  2 11  1  0  0  0  0
  3 12  2  0  0  0  0
  4 17  1  0  0  0  0
  4 18  1  0  0  0  0
  5 17  2  0  0  0  0
  6  9  1  0  0  0  0
  7  9  2  0  0  0  0
  8 12  1  0  0  0  0
  8 15  1  0  0  0  0
  8 29  1  0  0  0  0
 10 11  1  0  0  0  0
 10 12  1  0  0  0  0
 10 13  1  0  0  0  0
 10 14  1  0  0  0  0
 11 20  1  0  0  0  0
 11 21  1  0  0  0  0
 13 22  1  0  0  0  0
 13 23  1  0  0  0  0
 13 24  1  0  0  0  0
 14 25  1  0  0  0  0
 14 26  1  0  0  0  0
 14 27  1  0  0  0  0
 15 16  1  0  0  0  0
 15 17  1  0  0  0  0
 15 28  1  0  0  0  0
 16 30  1  0  0  0  0
 16 31  1  0  0  0  0
 18 19  1  0  0  0  0
 18 33  1  0  0  0  0
 18 34  1  0  0  0  0
 19 35  1  0  0  0  0
 19 36  1  0  0  0  0
 19 37  1  0  0  0  0
M  CHG  2   6  -1   9   1
M  END
> <PUBCHEM_COMPOUND_CID>
131211

> <PUBCHEM_CONFORMER_RMSD>
1

> <PUBCHEM_CONFORMER_DIVERSEORDER>
1
21
52
28
36
54
29
83
49
47
67
56
63
61
12
25
43
23
86
22
81
26
17
82
80
11
32
31
73
62
9
41
53
7
84
40
65
13
24
70
55
75
5
30
3
66
45
4
68
57
85
76
60
19
59
50
18
78
51
44
27
64
74
77
42
20
6
16
14
79
10
15
48
46
33
71
2
58
72
34
37
38
8
69
35
39

> <PUBCHEM_MMFF94_PARTIAL_CHARGES>
18
1 -0.41
10 0.06
11 0.28
12 0.57
15 0.36
16 0.23
17 0.66
18 0.28
2 -0.27
29 0.37
3 -0.57
32 0.18
4 -0.43
5 -0.57
6 -0.52
7 -0.52
8 -0.73
9 1.03

> <PUBCHEM_EFFECTIVE_ROTOR_COUNT>
10

> <PUBCHEM_PHARMACOPHORE_FEATURES>
6
1 3 acceptor
1 5 acceptor
1 6 acceptor
1 7 acceptor
1 8 donor
3 10 13 14 hydrophobe

> <PUBCHEM_HEAVY_ATOM_COUNT>
19

> <PUBCHEM_ATOM_DEF_STEREO_COUNT>
1

> <PUBCHEM_ATOM_UDEF_STEREO_COUNT>
0

> <PUBCHEM_BOND_DEF_STEREO_COUNT>
0

> <PUBCHEM_BOND_UDEF_STEREO_COUNT>
0

> <PUBCHEM_ISOTOPIC_ATOM_COUNT>
0

> <PUBCHEM_COMPONENT_COUNT>
1

> <PUBCHEM_CACTVS_TAUTO_COUNT>
2

> <PUBCHEM_CONFORMER_ID>
0002008B00000001

> <PUBCHEM_MMFF94_ENERGY>
40.3631

> <PUBCHEM_FEATURE_SELFOVERLAP>
30.518

> <PUBCHEM_SHAPE_FINGERPRINT>
10064457 181 16879658057069713800
10764073 3 16230817266163999525
11725454 13 16558169519867084640
12077114 3 17275095167689310066
12553582 1 17677038067689742658
12788726 201 18124598840793682567
12892183 10 17168442522567890961
13583140 156 17750249147908684097
14178342 30 18271800267893553038
15375462 189 17894350008026199232
15852999 172 17774455896826023583
173720 79 18411972547516746871
19078846 21 18410007780246114612
192875 21 18199738305973403973
20645477 70 16516504725398186338
21033648 29 16988565727536060114
212916 134 18201149966923218547
21427221 339 18260272919114764344
21524375 3 18341069466415310335
23382010 3 14764335003923226559
23419403 2 17193700580769188829
23557571 272 17131563850400098911
23598291 2 18117007782434337796
7097593 13 18040722514526579794
7615 1 18265050417217232678
8509985 295 18114468859920624937

> <PUBCHEM_SHAPE_MULTIPOLES>
349.68
7.14
2.91
2.05
1.85
0.68
0.44
0.57
3.99
-1.24
0.25
0.5
-0.32
-2.64

> <PUBCHEM_SHAPE_SELFOVERLAP>
666.901

> <PUBCHEM_SHAPE_VOLUME>
218.7

> <PUBCHEM_COORDINATE_TYPE>
2
5
10

$$$$
