13120881
  -OEChem-03292013303D

 30 31  0     1  0  0  0  0  0999 V2000
    0.1780   -1.9805   -0.4980 S   0  0  0  0  0  0  0  0  0  0  0  0
    2.9731   -0.8885   -0.9040 S   0  0  0  0  0  0  0  0  0  0  0  0
   -3.7065   -0.1015    1.3472 O   0  0  0  0  0  0  0  0  0  0  0  0
   -1.7641    2.0597   -0.8367 O   0  0  0  0  0  0  0  0  0  0  0  0
    0.8931    2.5076    1.0890 O   0  0  0  0  0  0  0  0  0  0  0  0
    2.3438    2.1451   -0.6413 O   0  0  0  0  0  0  0  0  0  0  0  0
   -0.5542    0.4014    0.3338 N   0  0  0  0  0  0  0  0  0  0  0  0
   -2.2507   -0.4340   -0.5297 C   0  0  2  0  0  0  0  0  0  0  0  0
   -1.0966   -0.9667    0.3376 C   0  0  1  0  0  0  0  0  0  0  0  0
   -1.5741    0.9512   -0.3893 C   0  0  0  0  0  0  0  0  0  0  0  0
   -3.6755   -0.4877   -0.0262 C   0  0  1  0  0  0  0  0  0  0  0  0
    0.7770    0.4798    0.0086 C   0  0  0  0  0  0  0  0  0  0  0  0
    1.3387   -0.6678   -0.4087 C   0  0  0  0  0  0  0  0  0  0  0  0
   -4.2547   -1.8903   -0.1633 C   0  0  0  0  0  0  0  0  0  0  0  0
    1.4388    1.7832    0.0895 C   0  0  0  0  0  0  0  0  0  0  0  0
    3.7267   -1.3150    0.6818 C   0  0  0  0  0  0  0  0  0  0  0  0
    5.2073   -1.5961    0.5097 C   0  0  0  0  0  0  0  0  0  0  0  0
   -2.2122   -0.7663   -1.5782 H   0  0  0  0  0  0  0  0  0  0  0  0
   -1.3566   -1.3038    1.3463 H   0  0  0  0  0  0  0  0  0  0  0  0
   -4.2993    0.2169   -0.5878 H   0  0  0  0  0  0  0  0  0  0  0  0
   -3.6826   -2.6101    0.4325 H   0  0  0  0  0  0  0  0  0  0  0  0
   -5.2849   -1.9198    0.2067 H   0  0  0  0  0  0  0  0  0  0  0  0
   -4.2457   -2.2236   -1.2057 H   0  0  0  0  0  0  0  0  0  0  0  0
   -4.6332   -0.1349    1.6398 H   0  0  0  0  0  0  0  0  0  0  0  0
    3.5898   -0.4878    1.3861 H   0  0  0  0  0  0  0  0  0  0  0  0
    3.2329   -2.1997    1.0972 H   0  0  0  0  0  0  0  0  0  0  0  0
    1.3112    3.3908    1.1751 H   0  0  0  0  0  0  0  0  0  0  0  0
    5.3809   -2.4389   -0.1682 H   0  0  0  0  0  0  0  0  0  0  0  0
    5.7406   -0.7213    0.1222 H   0  0  0  0  0  0  0  0  0  0  0  0
    5.6527   -1.8529    1.4767 H   0  0  0  0  0  0  0  0  0  0  0  0
  1  9  1  0  0  0  0
  1 13  1  0  0  0  0
  2 13  1  0  0  0  0
  2 16  1  0  0  0  0
  3 11  1  0  0  0  0
  3 24  1  0  0  0  0
  4 10  2  0  0  0  0
  5 15  1  0  0  0  0
  5 27  1  0  0  0  0
  6 15  2  0  0  0  0
  7  9  1  0  0  0  0
  7 10  1  0  0  0  0
  7 12  1  0  0  0  0
  8  9  1  0  0  0  0
  8 10  1  0  0  0  0
  8 11  1  0  0  0  0
  8 18  1  0  0  0  0
  9 19  1  0  0  0  0
 11 14  1  0  0  0  0
 11 20  1  0  0  0  0
 12 13  2  0  0  0  0
 12 15  1  0  0  0  0
 14 21  1  0  0  0  0
 14 22  1  0  0  0  0
 14 23  1  0  0  0  0
 16 17  1  0  0  0  0
 16 25  1  0  0  0  0
 16 26  1  0  0  0  0
 17 28  1  0  0  0  0
 17 29  1  0  0  0  0
 17 30  1  0  0  0  0
M  END
> <PUBCHEM_COMPOUND_CID>
13120881

> <PUBCHEM_CONFORMER_RMSD>
0.6

> <PUBCHEM_CONFORMER_DIVERSEORDER>
1
12
18
27
22
9
7
20
6
26
21
15
16
25
4
19
8
24
11
5
10
13
23
3
17
14
2

> <PUBCHEM_MMFF94_PARTIAL_CHARGES>
17
1 -0.32
10 0.58
11 0.28
12 0.12
13 0.2
15 0.71
16 0.23
2 -0.33
24 0.4
27 0.5
3 -0.68
4 -0.57
5 -0.65
6 -0.57
7 -0.39
8 0.05
9 0.44

> <PUBCHEM_EFFECTIVE_ROTOR_COUNT>
4.4

> <PUBCHEM_PHARMACOPHORE_FEATURES>
8
1 17 hydrophobe
1 3 acceptor
1 3 donor
1 4 acceptor
1 5 acceptor
1 6 acceptor
3 5 6 15 anion
7 1 7 8 9 10 12 13 rings

> <PUBCHEM_HEAVY_ATOM_COUNT>
17

> <PUBCHEM_ATOM_DEF_STEREO_COUNT>
3

> <PUBCHEM_ATOM_UDEF_STEREO_COUNT>
0

> <PUBCHEM_BOND_DEF_STEREO_COUNT>
0

> <PUBCHEM_BOND_UDEF_STEREO_COUNT>
0

> <PUBCHEM_ISOTOPIC_ATOM_COUNT>
0

> <PUBCHEM_COMPONENT_COUNT>
1

> <PUBCHEM_CACTVS_TAUTO_COUNT>
1

> <PUBCHEM_CONFORMER_ID>
00C8357100000001

> <PUBCHEM_MMFF94_ENERGY>
52.4107

> <PUBCHEM_FEATURE_SELFOVERLAP>
40.651

> <PUBCHEM_SHAPE_FINGERPRINT>
10062212 137 18188767223990032930
10465860 250 18335976468246769530
11132069 177 18272658904796341423
11680986 33 18191870234829676722
12032990 46 18341051818110231190
12403259 226 18337945783460376997
12644460 14 18335711597539707424
13140716 1 18339927137805471075
13380535 21 18122073257993723647
13675066 3 16988851553114363087
14178342 30 18057332677699911386
14787075 74 18333733520482273634
15375462 189 18261678082116930298
16945 1 18409730629932218999
17804303 29 18408886230566097423
19422 9 18131080376245550751
20645477 70 18340766039840151279
20671657 1 18198623426657347336
21029758 27 18334297543939732750
21041028 32 18272090474190408905
21061003 4 18201995491201382912
21267235 1 18409454657341663110
21296965 67 18411135793092003618
21501502 16 18269560592608403271
2297311 6 18199755757027381806
2334 1 18051413169200064975
23402539 116 18337665326248828670
23532345 42 18339910546863355642
23557571 272 18129107710635673302
23559900 14 17895471535123578182
2748010 2 18336250302234321077
296302 2 11455892459861337711
3286 77 18410855494746519223
45790113 53 18410852183099828613
5104073 3 18270690895479613539
5493415 88 18410568466308425372
5902787 121 18410855468971732778
59554788 191 18335134242170965100
7364860 26 18270959184558240256
76465 3 18335977636035119543
81228 2 17909847439709741088

> <PUBCHEM_SHAPE_MULTIPOLES>
329.09
7.67
2.48
0.96
2.08
1.18
0.07
-4.93
1.33
0.65
-0.02
0.05
0.07
-0.14

> <PUBCHEM_SHAPE_SELFOVERLAP>
661.438

> <PUBCHEM_SHAPE_VOLUME>
196.7

> <PUBCHEM_COORDINATE_TYPE>
2
5
10

$$$$
