13121939
  -OEChem-03292013303D

 39 39  0     0  0  0  0  0  0999 V2000
    0.5576   -1.5763    0.2908 S   0  0  0  0  0  0  0  0  0  0  0  0
    3.8332    2.1198   -0.0148 S   0  0  0  0  0  0  0  0  0  0  0  0
   -5.3429    2.0691   -0.0491 O   0  5  0  0  0  0  0  0  0  0  0  0
   -6.5759    0.5358   -1.0387 O   0  0  0  0  0  0  0  0  0  0  0  0
   -2.5711   -1.1078    0.3149 N   0  0  0  0  0  0  0  0  0  0  0  0
    3.6448   -0.3409   -0.7844 N   0  0  0  0  0  0  0  0  0  0  0  0
    6.3739   -0.0737    1.0053 N   0  0  0  0  0  0  0  0  0  0  0  0
   -4.1587    0.1400    1.6387 N   0  0  0  0  0  0  0  0  0  0  0  0
   -5.5019    0.9658   -0.5924 N   0  3  0  0  0  0  0  0  0  0  0  0
   -1.9622   -1.6294   -0.8865 C   0  0  0  0  0  0  0  0  0  0  0  0
   -0.7552   -2.5014   -0.5639 C   0  0  0  0  0  0  0  0  0  0  0  0
    1.2268   -0.6966   -1.1386 C   0  0  0  0  0  0  0  0  0  0  0  0
    2.3684    0.1862   -0.7533 C   0  0  0  0  0  0  0  0  0  0  0  0
    4.4974    0.5887   -0.4143 C   0  0  0  0  0  0  0  0  0  0  0  0
    5.9610    0.3942   -0.3247 C   0  0  0  0  0  0  0  0  0  0  0  0
    2.2702    1.5047   -0.3613 C   0  0  0  0  0  0  0  0  0  0  0  0
   -3.6957   -0.2832    0.3876 C   0  0  0  0  0  0  0  0  0  0  0  0
   -4.3629    0.1275   -0.7127 C   0  0  0  0  0  0  0  0  0  0  0  0
    7.8128   -0.2636    1.0535 C   0  0  0  0  0  0  0  0  0  0  0  0
   -3.6195   -0.1589    2.9438 C   0  0  0  0  0  0  0  0  0  0  0  0
   -2.6942   -2.2483   -1.4196 H   0  0  0  0  0  0  0  0  0  0  0  0
   -1.6848   -0.8117   -1.5605 H   0  0  0  0  0  0  0  0  0  0  0  0
   -1.0577   -3.3206    0.0979 H   0  0  0  0  0  0  0  0  0  0  0  0
   -0.3511   -2.9553   -1.4746 H   0  0  0  0  0  0  0  0  0  0  0  0
    0.4453   -0.0872   -1.6027 H   0  0  0  0  0  0  0  0  0  0  0  0
    1.5686   -1.4251   -1.8819 H   0  0  0  0  0  0  0  0  0  0  0  0
   -2.1476   -1.3454    1.2060 H   0  0  0  0  0  0  0  0  0  0  0  0
    6.4883    1.3222   -0.5809 H   0  0  0  0  0  0  0  0  0  0  0  0
    6.2526   -0.3510   -1.0760 H   0  0  0  0  0  0  0  0  0  0  0  0
    1.3862    2.1191   -0.2636 H   0  0  0  0  0  0  0  0  0  0  0  0
    6.1070    0.6208    1.7033 H   0  0  0  0  0  0  0  0  0  0  0  0
   -4.9829    0.7321    1.6453 H   0  0  0  0  0  0  0  0  0  0  0  0
   -4.1689   -0.1498   -1.7390 H   0  0  0  0  0  0  0  0  0  0  0  0
    8.1392   -1.0198    0.3322 H   0  0  0  0  0  0  0  0  0  0  0  0
    8.1012   -0.6156    2.0489 H   0  0  0  0  0  0  0  0  0  0  0  0
    8.3508    0.6705    0.8605 H   0  0  0  0  0  0  0  0  0  0  0  0
   -3.6371   -1.2365    3.1330 H   0  0  0  0  0  0  0  0  0  0  0  0
   -4.2193    0.3317    3.7165 H   0  0  0  0  0  0  0  0  0  0  0  0
   -2.5909    0.2040    3.0305 H   0  0  0  0  0  0  0  0  0  0  0  0
  1 11  1  0  0  0  0
  1 12  1  0  0  0  0
  2 14  1  0  0  0  0
  2 16  1  0  0  0  0
  3  9  1  0  0  0  0
  4  9  2  0  0  0  0
  5 10  1  0  0  0  0
  5 17  1  0  0  0  0
  5 27  1  0  0  0  0
  6 13  1  0  0  0  0
  6 14  2  0  0  0  0
  7 15  1  0  0  0  0
  7 19  1  0  0  0  0
  7 31  1  0  0  0  0
  8 17  1  0  0  0  0
  8 20  1  0  0  0  0
  8 32  1  0  0  0  0
  9 18  1  0  0  0  0
 10 11  1  0  0  0  0
 10 21  1  0  0  0  0
 10 22  1  0  0  0  0
 11 23  1  0  0  0  0
 11 24  1  0  0  0  0
 12 13  1  0  0  0  0
 12 25  1  0  0  0  0
 12 26  1  0  0  0  0
 13 16  2  0  0  0  0
 14 15  1  0  0  0  0
 15 28  1  0  0  0  0
 15 29  1  0  0  0  0
 16 30  1  0  0  0  0
 17 18  2  0  0  0  0
 18 33  1  0  0  0  0
 19 34  1  0  0  0  0
 19 35  1  0  0  0  0
 19 36  1  0  0  0  0
 20 37  1  0  0  0  0
 20 38  1  0  0  0  0
 20 39  1  0  0  0  0
M  CHG  2   3  -1   9   1
M  END
> <PUBCHEM_COMPOUND_CID>
13121939

> <PUBCHEM_CONFORMER_RMSD>
1

> <PUBCHEM_CONFORMER_DIVERSEORDER>
1
60
80
90
15
33
87
13
62
74
73
46
53
77
16
21
20
18
3
76
69
48
17
71
19
30
56
45
75
61
32
59
86
51
52
5
38
82
54
10
11
63
89
81
42
72
65
9
34
83
84
8
40
55
67
68
57
37
58
88
22
26
49
50
47
79
78
64
27
25
66
36
43
70
39
29
2
12
28
41
35
23
7
85
31
14
44
6
4
24

> <PUBCHEM_MMFF94_PARTIAL_CHARGES>
25
1 -0.46
10 0.37
11 0.23
12 0.41
13 0.05
14 0.2
15 0.45
16 -0.11
17 0.2
18 0.05
19 0.27
2 -0.08
20 0.37
27 0.4
3 -0.52
30 0.15
31 0.36
32 0.4
33 0.15
4 -0.52
5 -0.87
6 -0.57
7 -0.9
8 -0.87
9 0.84

> <PUBCHEM_EFFECTIVE_ROTOR_COUNT>
10

> <PUBCHEM_PHARMACOPHORE_FEATURES>
11
1 3 acceptor
1 3 anion
1 4 acceptor
1 5 cation
1 5 donor
1 6 acceptor
1 7 cation
1 7 donor
1 8 cation
1 8 donor
5 2 6 13 14 16 rings

> <PUBCHEM_HEAVY_ATOM_COUNT>
20

> <PUBCHEM_ATOM_DEF_STEREO_COUNT>
0

> <PUBCHEM_ATOM_UDEF_STEREO_COUNT>
0

> <PUBCHEM_BOND_DEF_STEREO_COUNT>
1

> <PUBCHEM_BOND_UDEF_STEREO_COUNT>
0

> <PUBCHEM_ISOTOPIC_ATOM_COUNT>
0

> <PUBCHEM_COMPONENT_COUNT>
1

> <PUBCHEM_CACTVS_TAUTO_COUNT>
2

> <PUBCHEM_CONFORMER_ID>
00C8399300000001

> <PUBCHEM_MMFF94_ENERGY>
40.1982

> <PUBCHEM_FEATURE_SELFOVERLAP>
55.959

> <PUBCHEM_SHAPE_FINGERPRINT>
11089746 13 18411411838918803198
11458722 120 18187361048019384398
12107183 9 18335412479159149866
12596602 18 16443354225181096140
13073987 5 18118120510151366518
13103583 49 15357701907186846735
13177829 73 18413386531837776956
14251718 22 12463572880796037452
14251732 14 9655578517652477470
14251732 17 18113621183319980490
14251758 9 18335989705446868918
14251764 18 18335135453789650678
14251764 30 14923935761515637594
14251764 38 16558470902412930000
14767858 380 9727631735530265290
15142383 8 17894624847579066292
15183329 4 18272940418823013598
15348495 7 17095812125968998288
15880784 105 14490765605683298838
20281389 69 18336829792217263500
21150785 3 10952045685214024930
21315759 148 16371012970333864304
21315763 76 18202001036062288160
21403212 168 18260537905554244254
21774942 28 17559960921985213241
23035841 295 14490187211465389168
23402539 116 18271802458241802590
235170 7 13254528526078105689
2767999 5 18060137643657936064
2838139 119 18412538825737526637
312425 54 15647053806536992104
351380 3 11602820220113449149
4325135 7 11815894583129602496
445580 126 18341612586494371425
5104073 3 18195811984637525386
5207 217 11384111960513454422
59755656 520 18040708208276126527
6328613 192 18336272357482294876
7226269 152 18273498987820148320
9862886 166 13326564198413005917
9981440 41 18186807942320968363

> <PUBCHEM_SHAPE_MULTIPOLES>
382.65
18.3
1.97
1.58
9.19
0.12
-1.39
-6.36
-3.27
-0.7
0.38
-1.8
0.06
-0.13

> <PUBCHEM_SHAPE_SELFOVERLAP>
729.412

> <PUBCHEM_SHAPE_VOLUME>
237.4

> <PUBCHEM_COORDINATE_TYPE>
2
5
10

$$$$
