131271
  -OEChem-03292013323D

 21 21  0     0  0  0  0  0  0999 V2000
    2.3164   -2.6727   -0.5516 Cl  0  0  0  0  0  0  0  0  0  0  0  0
    4.1893   -0.2926    0.7419 Cl  0  0  0  0  0  0  0  0  0  0  0  0
   -1.7188    1.7009   -1.2068 O   0  0  0  0  0  0  0  0  0  0  0  0
    0.4861   -0.8581   -0.6191 N   0  0  0  0  0  0  0  0  0  0  0  0
    2.0790    1.1677    0.4880 N   0  0  0  0  0  0  0  0  0  0  0  0
    0.2431    2.6673    0.3301 N   0  0  0  0  0  0  0  0  0  0  0  0
   -2.1884   -0.5088   -0.7074 N   0  0  0  0  0  0  0  0  0  0  0  0
   -3.6782   -1.7867    0.6872 N   0  0  0  0  0  0  0  0  0  0  0  0
   -2.6959    0.1140    1.4784 N   0  0  0  0  0  0  0  0  0  0  0  0
    0.0483    0.3819   -0.4006 C   0  0  0  0  0  0  0  0  0  0  0  0
    0.7965    1.3821    0.1334 C   0  0  0  0  0  0  0  0  0  0  0  0
   -1.3721    0.5965   -0.7981 C   0  0  0  0  0  0  0  0  0  0  0  0
    1.7688   -1.0723   -0.2646 C   0  0  0  0  0  0  0  0  0  0  0  0
    2.5512   -0.0773    0.2790 C   0  0  0  0  0  0  0  0  0  0  0  0
   -2.8255   -0.7419    0.4102 C   0  0  0  0  0  0  0  0  0  0  0  0
   -0.5137    2.6906    1.0079 H   0  0  0  0  0  0  0  0  0  0  0  0
   -0.0169    3.1397   -0.5313 H   0  0  0  0  0  0  0  0  0  0  0  0
   -3.8771   -2.4982   -0.0078 H   0  0  0  0  0  0  0  0  0  0  0  0
   -4.1282   -1.8784    1.5913 H   0  0  0  0  0  0  0  0  0  0  0  0
   -2.1212    0.9483    1.4517 H   0  0  0  0  0  0  0  0  0  0  0  0
   -3.1887   -0.0640    2.3471 H   0  0  0  0  0  0  0  0  0  0  0  0
  1 13  1  0  0  0  0
  2 14  1  0  0  0  0
  3 12  2  0  0  0  0
  4 10  1  0  0  0  0
  4 13  2  0  0  0  0
  5 11  1  0  0  0  0
  5 14  2  0  0  0  0
  6 11  1  0  0  0  0
  6 16  1  0  0  0  0
  6 17  1  0  0  0  0
  7 12  1  0  0  0  0
  7 15  2  0  0  0  0
  8 15  1  0  0  0  0
  8 18  1  0  0  0  0
  8 19  1  0  0  0  0
  9 15  1  0  0  0  0
  9 20  1  0  0  0  0
  9 21  1  0  0  0  0
 10 11  2  0  0  0  0
 10 12  1  0  0  0  0
 13 14  1  0  0  0  0
M  END
> <PUBCHEM_COMPOUND_CID>
131271

> <PUBCHEM_CONFORMER_RMSD>
0.6

> <PUBCHEM_CONFORMER_DIVERSEORDER>
1
8
10
5
6
13
3
7
12
9
11
2
4

> <PUBCHEM_MMFF94_PARTIAL_CHARGES>
21
1 -0.18
10 0.4
11 0.41
12 0.69
13 0.49
14 0.49
15 0.55
16 0.4
17 0.4
18 0.4
19 0.4
2 -0.18
20 0.4
21 0.4
3 -0.57
4 -0.62
5 -0.62
6 -0.9
7 -0.66
8 -0.85
9 -0.85

> <PUBCHEM_EFFECTIVE_ROTOR_COUNT>
2

> <PUBCHEM_PHARMACOPHORE_FEATURES>
9
1 3 acceptor
1 4 acceptor
1 5 acceptor
1 6 cation
1 6 donor
1 7 donor
1 8 donor
1 9 donor
6 4 5 10 11 13 14 rings

> <PUBCHEM_HEAVY_ATOM_COUNT>
15

> <PUBCHEM_ATOM_DEF_STEREO_COUNT>
0

> <PUBCHEM_ATOM_UDEF_STEREO_COUNT>
0

> <PUBCHEM_BOND_DEF_STEREO_COUNT>
0

> <PUBCHEM_BOND_UDEF_STEREO_COUNT>
0

> <PUBCHEM_ISOTOPIC_ATOM_COUNT>
0

> <PUBCHEM_COMPONENT_COUNT>
1

> <PUBCHEM_CACTVS_TAUTO_COUNT>
8

> <PUBCHEM_CONFORMER_ID>
000200C700000001

> <PUBCHEM_MMFF94_ENERGY>
63.7564

> <PUBCHEM_FEATURE_SELFOVERLAP>
45.806

> <PUBCHEM_SHAPE_FINGERPRINT>
108231 29 18335980947723391290
11471102 22 18413389843199630706
12032990 46 18411136922826768478
12251169 10 18201443622638358807
12382932 28 18343019947812371922
12423570 1 9705246717411001118
12696612 119 18271813466063731157
13296908 3 18338233739643152518
15219456 202 18339637820260286102
15309172 13 18202558505864325638
15501101 241 18263650722025380893
16945 1 18272359855029317644
17844478 74 18334575745787412412
200 152 17917413368241181703
20201158 50 18335977605943636907
20279233 1 18335133159607259959
20281407 28 18260555506488205823
20645477 70 18191014815263451303
20871998 22 18411708655418734398
21061003 4 18343577460495750808
22445834 79 18202289129857960451
22721475 48 18187654625586213611
23526113 38 18120913062947076429
23557571 272 17530958034669625772
23559900 14 18047743798957496754
2748010 2 18198052578485831358
3312278 4 18264481802534348052
568465 68 18342457092506577954
81228 2 18050558552339114584
8809292 202 18049158865351536622

> <PUBCHEM_SHAPE_MULTIPOLES>
276.68
5.77
2.33
1.03
0.29
0.07
-0.08
2.64
-1.86
0.33
0.17
-0.5
-0.02
0.92

> <PUBCHEM_SHAPE_SELFOVERLAP>
565.632

> <PUBCHEM_SHAPE_VOLUME>
161.9

> <PUBCHEM_COORDINATE_TYPE>
2
5
10

$$$$
