131207
  -OEChem-03292013323D

 67 71  0     1  0  0  0  0  0999 V2000
   -2.2885    0.0726    0.2409 O   0  0  0  0  0  0  0  0  0  0  0  0
    1.8150   -0.1454   -2.6235 O   0  0  0  0  0  0  0  0  0  0  0  0
   -3.5362   -2.9270    0.5775 O   0  0  0  0  0  0  0  0  0  0  0  0
   -4.2899   -2.3104   -2.0344 O   0  0  0  0  0  0  0  0  0  0  0  0
   -2.0453   -2.9088   -2.2491 O   0  0  0  0  0  0  0  0  0  0  0  0
    6.6183    2.8899   -0.4396 O   0  0  0  0  0  0  0  0  0  0  0  0
   -4.2980   -0.3046    1.2990 O   0  0  0  0  0  0  0  0  0  0  0  0
   -0.3839   -1.4705    0.1240 C   0  0  1  0  0  0  0  0  0  0  0  0
    0.3515   -0.7032    1.2445 C   0  0  2  0  0  0  0  0  0  0  0  0
    1.8769   -0.8284    1.1552 C   0  0  1  0  0  0  0  0  0  0  0  0
    2.3795   -0.2591   -0.2214 C   0  0  2  0  0  0  0  0  0  0  0  0
   -1.8524   -1.2431    0.5705 C   0  0  1  0  0  0  0  0  0  0  0  0
    0.0417   -0.8346   -1.2031 C   0  0  0  0  0  0  0  0  0  0  0  0
   -0.3395   -1.1853    2.5185 C   0  0  0  0  0  0  0  0  0  0  0  0
    1.5702   -0.8646   -1.4147 C   0  0  1  0  0  0  0  0  0  0  0  0
    3.9609   -0.3591   -0.3372 C   0  0  1  0  0  0  0  0  0  0  0  0
   -1.8084   -1.3997    2.1057 C   0  0  0  0  0  0  0  0  0  0  0  0
    2.5596   -0.1132    2.3320 C   0  0  0  0  0  0  0  0  0  0  0  0
   -0.0628   -2.9908    0.1002 C   0  0  0  0  0  0  0  0  0  0  0  0
    4.0776   -0.2061    2.2430 C   0  0  0  0  0  0  0  0  0  0  0  0
    4.5546    0.3119    0.9106 C   0  0  0  0  0  0  0  0  0  0  0  0
   -2.8553   -2.1441   -0.0843 C   0  0  0  0  0  0  0  0  0  0  0  0
    4.4468   -1.8259   -0.4075 C   0  0  0  0  0  0  0  0  0  0  0  0
    4.4881    0.3001   -1.6045 C   0  0  0  0  0  0  0  0  0  0  0  0
    5.4058    1.3495    0.8694 C   0  0  0  0  0  0  0  0  0  0  0  0
   -2.9697   -2.0590   -1.6010 C   0  0  0  0  0  0  0  0  0  0  0  0
    5.3344    1.3333   -1.6522 C   0  0  0  0  0  0  0  0  0  0  0  0
    5.8480    1.9362   -0.4106 C   0  0  0  0  0  0  0  0  0  0  0  0
   -3.5350    0.4107    0.6682 C   0  0  0  0  0  0  0  0  0  0  0  0
   -3.8690    1.7991    0.2618 C   0  0  0  0  0  0  0  0  0  0  0  0
   -5.1882    2.1241    0.0203 C   0  0  0  0  0  0  0  0  0  0  0  0
   -2.8501    2.7215    0.1387 C   0  0  0  0  0  0  0  0  0  0  0  0
   -5.5021    3.4285   -0.3613 C   0  0  0  0  0  0  0  0  0  0  0  0
   -3.1642    4.0259   -0.2428 C   0  0  0  0  0  0  0  0  0  0  0  0
   -4.4903    4.3793   -0.4928 C   0  0  0  0  0  0  0  0  0  0  0  0
    0.1180    0.3702    1.1526 H   0  0  0  0  0  0  0  0  0  0  0  0
    2.1490   -1.8854    1.2326 H   0  0  0  0  0  0  0  0  0  0  0  0
    2.1478    0.8192   -0.2230 H   0  0  0  0  0  0  0  0  0  0  0  0
   -0.2913    0.2111   -1.2506 H   0  0  0  0  0  0  0  0  0  0  0  0
   -0.4144   -1.3084   -2.0721 H   0  0  0  0  0  0  0  0  0  0  0  0
   -0.2578   -0.4516    3.3273 H   0  0  0  0  0  0  0  0  0  0  0  0
    0.0956   -2.1244    2.8789 H   0  0  0  0  0  0  0  0  0  0  0  0
    1.8860   -1.8963   -1.5938 H   0  0  0  0  0  0  0  0  0  0  0  0
   -2.1148   -2.3953    2.4456 H   0  0  0  0  0  0  0  0  0  0  0  0
   -2.4123   -0.6740    2.6573 H   0  0  0  0  0  0  0  0  0  0  0  0
    2.2394   -0.5557    3.2824 H   0  0  0  0  0  0  0  0  0  0  0  0
    2.2549    0.9415    2.3550 H   0  0  0  0  0  0  0  0  0  0  0  0
   -0.4570   -3.5048   -0.7721 H   0  0  0  0  0  0  0  0  0  0  0  0
    1.0123   -3.1883    0.0789 H   0  0  0  0  0  0  0  0  0  0  0  0
   -0.4526   -3.5105    0.9816 H   0  0  0  0  0  0  0  0  0  0  0  0
    4.4037   -1.2436    2.3784 H   0  0  0  0  0  0  0  0  0  0  0  0
    4.5148    0.3604    3.0745 H   0  0  0  0  0  0  0  0  0  0  0  0
    4.1101   -2.3219   -1.3252 H   0  0  0  0  0  0  0  0  0  0  0  0
    5.5434   -1.8795   -0.4001 H   0  0  0  0  0  0  0  0  0  0  0  0
    4.0963   -2.4337    0.4313 H   0  0  0  0  0  0  0  0  0  0  0  0
    4.1965   -0.1313   -2.5585 H   0  0  0  0  0  0  0  0  0  0  0  0
    1.5804    0.7859   -2.4706 H   0  0  0  0  0  0  0  0  0  0  0  0
    5.7879    1.8113    1.7738 H   0  0  0  0  0  0  0  0  0  0  0  0
   -2.7533   -1.0374   -1.9219 H   0  0  0  0  0  0  0  0  0  0  0  0
    5.6794    1.7366   -2.5971 H   0  0  0  0  0  0  0  0  0  0  0  0
   -4.6004   -3.1133   -1.5827 H   0  0  0  0  0  0  0  0  0  0  0  0
   -2.2125   -3.8111   -1.9275 H   0  0  0  0  0  0  0  0  0  0  0  0
   -5.9842    1.3916    0.1160 H   0  0  0  0  0  0  0  0  0  0  0  0
   -1.8119    2.4750    0.3402 H   0  0  0  0  0  0  0  0  0  0  0  0
   -6.5345    3.7037   -0.5568 H   0  0  0  0  0  0  0  0  0  0  0  0
   -2.3768    4.7674   -0.3425 H   0  0  0  0  0  0  0  0  0  0  0  0
   -4.7348    5.3951   -0.7894 H   0  0  0  0  0  0  0  0  0  0  0  0
  1 12  1  0  0  0  0
  1 29  1  0  0  0  0
  2 15  1  0  0  0  0
  2 57  1  0  0  0  0
  3 22  2  0  0  0  0
  4 26  1  0  0  0  0
  4 61  1  0  0  0  0
  5 26  1  0  0  0  0
  5 62  1  0  0  0  0
  6 28  2  0  0  0  0
  7 29  2  0  0  0  0
  8  9  1  0  0  0  0
  8 12  1  0  0  0  0
  8 13  1  0  0  0  0
  8 19  1  0  0  0  0
  9 10  1  0  0  0  0
  9 14  1  0  0  0  0
  9 36  1  0  0  0  0
 10 11  1  0  0  0  0
 10 18  1  0  0  0  0
 10 37  1  0  0  0  0
 11 15  1  0  0  0  0
 11 16  1  0  0  0  0
 11 38  1  0  0  0  0
 12 17  1  0  0  0  0
 12 22  1  0  0  0  0
 13 15  1  0  0  0  0
 13 39  1  0  0  0  0
 13 40  1  0  0  0  0
 14 17  1  0  0  0  0
 14 41  1  0  0  0  0
 14 42  1  0  0  0  0
 15 43  1  0  0  0  0
 16 21  1  0  0  0  0
 16 23  1  0  0  0  0
 16 24  1  0  0  0  0
 17 44  1  0  0  0  0
 17 45  1  0  0  0  0
 18 20  1  0  0  0  0
 18 46  1  0  0  0  0
 18 47  1  0  0  0  0
 19 48  1  0  0  0  0
 19 49  1  0  0  0  0
 19 50  1  0  0  0  0
 20 21  1  0  0  0  0
 20 51  1  0  0  0  0
 20 52  1  0  0  0  0
 21 25  2  0  0  0  0
 22 26  1  0  0  0  0
 23 53  1  0  0  0  0
 23 54  1  0  0  0  0
 23 55  1  0  0  0  0
 24 27  2  0  0  0  0
 24 56  1  0  0  0  0
 25 28  1  0  0  0  0
 25 58  1  0  0  0  0
 26 59  1  0  0  0  0
 27 28  1  0  0  0  0
 27 60  1  0  0  0  0
 29 30  1  0  0  0  0
 30 31  2  0  0  0  0
 30 32  1  0  0  0  0
 31 33  1  0  0  0  0
 31 63  1  0  0  0  0
 32 34  2  0  0  0  0
 32 64  1  0  0  0  0
 33 35  2  0  0  0  0
 33 65  1  0  0  0  0
 34 35  1  0  0  0  0
 34 66  1  0  0  0  0
 35 67  1  0  0  0  0
M  END
> <PUBCHEM_COMPOUND_CID>
131207

> <PUBCHEM_CONFORMER_RMSD>
1

> <PUBCHEM_CONFORMER_DIVERSEORDER>
1
4
3
2

> <PUBCHEM_MMFF94_PARTIAL_CHARGES>
36
1 -0.43
12 0.34
15 0.28
16 0.28
2 -0.68
20 0.14
21 -0.28
22 0.45
24 -0.29
25 -0.14
26 0.62
27 -0.14
28 0.54
29 0.63
3 -0.57
30 0.09
31 -0.15
32 -0.15
33 -0.15
34 -0.15
35 -0.15
4 -0.68
5 -0.68
56 0.15
57 0.4
58 0.15
6 -0.57
60 0.15
61 0.4
62 0.4
63 0.15
64 0.15
65 0.15
66 0.15
67 0.15
7 -0.57

> <PUBCHEM_EFFECTIVE_ROTOR_COUNT>
6.4

> <PUBCHEM_PHARMACOPHORE_FEATURES>
14
1 2 acceptor
1 2 donor
1 3 acceptor
1 4 acceptor
1 4 donor
1 5 acceptor
1 5 donor
1 6 acceptor
1 7 acceptor
5 8 9 12 14 17 rings
6 10 11 16 18 20 21 rings
6 16 21 24 25 27 28 rings
6 30 31 32 33 34 35 rings
6 8 9 10 11 13 15 rings

> <PUBCHEM_HEAVY_ATOM_COUNT>
35

> <PUBCHEM_ATOM_DEF_STEREO_COUNT>
6

> <PUBCHEM_ATOM_UDEF_STEREO_COUNT>
1

> <PUBCHEM_BOND_DEF_STEREO_COUNT>
0

> <PUBCHEM_BOND_UDEF_STEREO_COUNT>
0

> <PUBCHEM_ISOTOPIC_ATOM_COUNT>
0

> <PUBCHEM_COMPONENT_COUNT>
1

> <PUBCHEM_CACTVS_TAUTO_COUNT>
6

> <PUBCHEM_CONFORMER_ID>
0002008700000001

> <PUBCHEM_MMFF94_ENERGY>
116.6992

> <PUBCHEM_FEATURE_SELFOVERLAP>
71.244

> <PUBCHEM_SHAPE_FINGERPRINT>
11227688 84 14764354850676808941
11445158 3 15101213653991983022
11578080 2 18130803225715260462
12107183 9 18044083558891702018
12422481 6 16226328092867845236
12633257 1 14635453574961717185
12788726 201 18336817706137211435
13383661 66 14257080988153445589
13583140 156 17918268758065083970
13617811 41 18197205065569834823
13726171 33 18339655485567153800
13911987 19 16773804709466896420
13944108 23 17188127891121594521
13965767 371 17605276172752828300
14294032 229 18341618093006396409
14739800 52 18260542351499666736
15163728 17 18411423864748188474
15198563 99 18269547407792047903
15219462 58 18265875021148237466
15968369 153 18193288600614077393
16067690 210 18187080706603589880
16988056 13 16536788137860631509
17980427 23 18113338651860378356
20511986 3 17676764288809415317
21033648 29 18342172263508607760
21033650 10 18190204367724197546
21223535 225 18259989263033438132
21716022 299 16832896029820985015
21756936 100 18186525414264730946
22182313 1 16199856397410927162
22393880 68 17346884489802034318
23559900 14 17131280039310066982
23569914 2 17769896274089441160
255183 451 17410476007911042847
2838139 119 18265332807333473557
3388396 114 17618221049591400949
3552219 110 17169847793534946859
376196 1 17975701585017432185
44249763 50 18059563746075990328
44802255 64 18129954489529377390
460360 51 15430304807616379598
46194498 28 17273127136612824120
463206 1 11527943448165984604
469060 322 18265354944101469555
484985 159 9223236252255341517
508706 21 18201431536225542669
5104073 3 16950563303066594888
5219985 13 18265612075061159741
550186 7 18272937136803296637
563151 74 15792279394409772825
6036956 94 17611194049356396900
6086070 43 17275094034292554634
6201320 215 18413108364846760280
633830 44 18040998410583977034
6608658 132 18336256937853162005
6697151 62 16414926228366102742
7237137 82 17846218907541597151
7288768 16 17531256032448769113
7808743 9 18409165489450706713
7970288 3 10230881475464519797
9849439 229 18118687621854764281

> <PUBCHEM_SHAPE_MULTIPOLES>
679.2
13.51
4.31
2.17
7.5
3.15
0.06
13.34
-1.76
-6.58
-1.16
1.08
-1.22
-0.94

> <PUBCHEM_SHAPE_SELFOVERLAP>
1489.337

> <PUBCHEM_SHAPE_VOLUME>
360.6

> <PUBCHEM_COORDINATE_TYPE>
2
5
10

$$$$
