131366
  -OEChem-03292013323D

 38 39  0     1  0  0  0  0  0999 V2000
   -2.3091   -0.9343   -2.1262 O   0  0  0  0  0  0  0  0  0  0  0  0
   -2.0828    2.5892    2.0971 O   0  0  0  0  0  0  0  0  0  0  0  0
    2.8065    3.0619   -0.3546 O   0  5  0  0  0  0  0  0  0  0  0  0
    0.6152    3.0298   -0.5423 O   0  0  0  0  0  0  0  0  0  0  0  0
   -1.1159    1.3633   -2.0658 N   0  0  0  0  0  0  0  0  0  0  0  0
   -3.9332   -1.3025    1.1194 N   0  0  0  0  0  0  0  0  0  0  0  0
    1.7202    2.4452   -0.4535 N   0  3  0  0  0  0  0  0  0  0  0  0
    4.2399   -1.6923   -0.2837 N   0  0  0  0  0  0  0  0  0  0  0  0
    4.5680   -1.9350    0.8983 N   0  3  0  0  0  0  0  0  0  0  0  0
    4.8736   -2.1595    1.9748 N   0  5  0  0  0  0  0  0  0  0  0  0
   -0.7679    0.9649   -0.6814 C   0  0  1  0  0  0  0  0  0  0  0  0
   -1.8976    0.1564   -0.0363 C   0  0  0  0  0  0  0  0  0  0  0  0
    0.5612    0.2888   -0.5756 C   0  0  0  0  0  0  0  0  0  0  0  0
   -2.1804    0.3535    1.2919 C   0  0  0  0  0  0  0  0  0  0  0  0
   -2.5905   -0.7398   -0.8107 C   0  0  0  0  0  0  0  0  0  0  0  0
    1.7420    1.0232   -0.4664 C   0  0  0  0  0  0  0  0  0  0  0  0
    0.6054   -1.1053   -0.5872 C   0  0  0  0  0  0  0  0  0  0  0  0
   -3.6030   -1.4478   -0.1834 C   0  0  0  0  0  0  0  0  0  0  0  0
   -1.4421    1.3197    2.1520 C   0  0  0  0  0  0  0  0  0  0  0  0
   -3.2113   -0.4032    1.8251 C   0  0  0  0  0  0  0  0  0  0  0  0
    2.9672    0.3636   -0.3690 C   0  0  0  0  0  0  0  0  0  0  0  0
    1.8305   -1.7649   -0.4897 C   0  0  0  0  0  0  0  0  0  0  0  0
    3.0115   -1.0306   -0.3807 C   0  0  0  0  0  0  0  0  0  0  0  0
   -4.4075   -2.4441   -0.9521 C   0  0  0  0  0  0  0  0  0  0  0  0
   -0.8700    1.8739   -0.1062 H   0  0  0  0  0  0  0  0  0  0  0  0
   -0.2656   -1.7401   -0.6808 H   0  0  0  0  0  0  0  0  0  0  0  0
   -0.4152    2.0175   -2.4131 H   0  0  0  0  0  0  0  0  0  0  0  0
   -1.9962    1.8787   -2.0585 H   0  0  0  0  0  0  0  0  0  0  0  0
   -1.4660    0.9809    3.1949 H   0  0  0  0  0  0  0  0  0  0  0  0
   -0.3829    1.4214    1.9013 H   0  0  0  0  0  0  0  0  0  0  0  0
   -3.5032   -0.3097    2.8667 H   0  0  0  0  0  0  0  0  0  0  0  0
    3.9047    0.9089   -0.2842 H   0  0  0  0  0  0  0  0  0  0  0  0
    1.8558   -2.8516   -0.5031 H   0  0  0  0  0  0  0  0  0  0  0  0
   -4.9358   -1.9611   -1.7805 H   0  0  0  0  0  0  0  0  0  0  0  0
   -3.7683   -3.2449   -1.3378 H   0  0  0  0  0  0  0  0  0  0  0  0
   -5.1633   -2.9100   -0.3101 H   0  0  0  0  0  0  0  0  0  0  0  0
   -2.8892   -1.6066   -2.5157 H   0  0  0  0  0  0  0  0  0  0  0  0
   -1.5897    3.1828    2.6887 H   0  0  0  0  0  0  0  0  0  0  0  0
  1 15  1  0  0  0  0
  1 37  1  0  0  0  0
  2 19  1  0  0  0  0
  2 38  1  0  0  0  0
  3  7  1  0  0  0  0
  4  7  2  0  0  0  0
  5 11  1  0  0  0  0
  5 27  1  0  0  0  0
  5 28  1  0  0  0  0
  6 18  2  0  0  0  0
  6 20  1  0  0  0  0
  7 16  1  0  0  0  0
  8  9  2  0  0  0  0
  8 23  1  0  0  0  0
  9 10  2  0  0  0  0
 11 12  1  0  0  0  0
 11 13  1  0  0  0  0
 11 25  1  0  0  0  0
 12 14  1  0  0  0  0
 12 15  2  0  0  0  0
 13 16  2  0  0  0  0
 13 17  1  0  0  0  0
 14 19  1  0  0  0  0
 14 20  2  0  0  0  0
 15 18  1  0  0  0  0
 16 21  1  0  0  0  0
 17 22  2  0  0  0  0
 17 26  1  0  0  0  0
 18 24  1  0  0  0  0
 19 29  1  0  0  0  0
 19 30  1  0  0  0  0
 20 31  1  0  0  0  0
 21 23  2  0  0  0  0
 21 32  1  0  0  0  0
 22 23  1  0  0  0  0
 22 33  1  0  0  0  0
 24 34  1  0  0  0  0
 24 35  1  0  0  0  0
 24 36  1  0  0  0  0
M  CHG  4   3  -1   7   1   9   1  10  -1
M  END
> <PUBCHEM_COMPOUND_CID>
131366

> <PUBCHEM_CONFORMER_RMSD>
0.8

> <PUBCHEM_CONFORMER_DIVERSEORDER>
1
17
18
3
20
13
8
15
16
5
12
9
4
10
14
7
2
11
6
19

> <PUBCHEM_MMFF94_PARTIAL_CHARGES>
32
1 -0.53
10 -0.37
11 0.56
12 -0.14
13 -0.14
14 -0.14
15 0.08
16 0.13
17 -0.15
18 0.17
19 0.42
2 -0.68
20 0.16
21 -0.15
22 -0.15
23 0.18
24 0.14
26 0.15
27 0.36
28 0.36
3 -0.52
31 0.15
32 0.15
33 0.15
37 0.45
38 0.4
4 -0.52
5 -0.99
6 -0.62
7 0.91
8 -0.5
9 0.69

> <PUBCHEM_EFFECTIVE_ROTOR_COUNT>
5

> <PUBCHEM_PHARMACOPHORE_FEATURES>
11
1 1 donor
1 2 acceptor
1 2 donor
1 3 acceptor
1 3 anion
1 4 acceptor
1 5 cation
1 5 donor
1 6 acceptor
6 13 16 17 21 22 23 rings
6 6 12 14 15 18 20 rings

> <PUBCHEM_HEAVY_ATOM_COUNT>
24

> <PUBCHEM_ATOM_DEF_STEREO_COUNT>
0

> <PUBCHEM_ATOM_UDEF_STEREO_COUNT>
1

> <PUBCHEM_BOND_DEF_STEREO_COUNT>
0

> <PUBCHEM_BOND_UDEF_STEREO_COUNT>
0

> <PUBCHEM_ISOTOPIC_ATOM_COUNT>
0

> <PUBCHEM_COMPONENT_COUNT>
1

> <PUBCHEM_CACTVS_TAUTO_COUNT>
3

> <PUBCHEM_CONFORMER_ID>
0002012600000001

> <PUBCHEM_MMFF94_ENERGY>
93.3575

> <PUBCHEM_FEATURE_SELFOVERLAP>
55.913

> <PUBCHEM_SHAPE_FINGERPRINT>
11578080 2 17915719033792771729
11582403 64 15878356032089983189
12293681 25 16952259960898172155
12363563 72 18040716939854448642
12553582 1 18337681810739544590
12633257 1 18120395184233097873
12892183 10 17560793283006188626
13004483 165 18342461456736669329
13009979 54 18131360704233774338
13140716 1 18337951178182387532
13296909 8 17560798771351465635
133893 2 18042145282705154884
13544653 18 18041279872981305358
13965767 371 16978746847765186000
14142880 1 18055629517219438257
14178342 30 18058172721895529854
14787075 74 17194049272395057941
15375462 189 17843135941889265483
16752209 62 13624089893674837849
16945 1 18120939661779962373
17780758 139 17986667070210952474
1813 80 18269852951380532166
18222031 100 18412261718890463302
200 152 18341891913813549207
20715895 44 17984719826955494673
21033650 10 15285345207278892823
22112679 90 17417820607654092805
229495 10 18124857200319515749
23419403 2 17984387897984854281
23598288 3 17703796894600659125
27216 239 14189283851212220915
3286 77 18187656815972087703
392239 28 17268636816459804595
4921388 177 13696167158162022851
6992083 37 18127426569698412265
7097593 13 17985850154097646299

> <PUBCHEM_SHAPE_MULTIPOLES>
440.55
8.07
3.04
1.87
3.41
1.52
0.66
-6.69
2.45
1.46
0.16
-0.93
0.25
-2.27

> <PUBCHEM_SHAPE_SELFOVERLAP>
954.944

> <PUBCHEM_SHAPE_VOLUME>
239

> <PUBCHEM_COORDINATE_TYPE>
2
5
10

$$$$
