131379
  -OEChem-03292013323D

 37 39  0     1  0  0  0  0  0999 V2000
   -0.8997   -1.5744    0.3688 O   0  0  0  0  0  0  0  0  0  0  0  0
    1.8124    1.8045   -0.7142 O   0  0  0  0  0  0  0  0  0  0  0  0
   -0.5004    3.1105    0.3325 O   0  0  0  0  0  0  0  0  0  0  0  0
    3.7526   -2.4906    0.0184 O   0  0  0  0  0  0  0  0  0  0  0  0
   -4.7540    1.1796   -0.6219 O   0  0  0  0  0  0  0  0  0  0  0  0
    5.1368   -0.3393   -1.1392 O   0  0  0  0  0  0  0  0  0  0  0  0
   -4.9568   -1.3830   -0.5783 O   0  0  0  0  0  0  0  0  0  0  0  0
   -3.1513   -2.7107   -0.0924 N   0  0  0  0  0  0  0  0  0  0  0  0
    0.6161    0.2610    0.7244 C   0  0  1  0  0  0  0  0  0  0  0  0
   -0.7503    0.7266    0.3207 C   0  0  0  0  0  0  0  0  0  0  0  0
    0.4420   -1.2280    0.5099 C   0  0  0  0  0  0  0  0  0  0  0  0
    1.7851    0.7175   -0.1418 C   0  0  0  0  0  0  0  0  0  0  0  0
   -1.5819   -0.3920    0.1793 C   0  0  0  0  0  0  0  0  0  0  0  0
    0.8941    0.5955    2.1952 C   0  0  0  0  0  0  0  0  0  0  0  0
   -1.2619    2.0011    0.1575 C   0  0  0  0  0  0  0  0  0  0  0  0
    2.9866   -0.1980   -0.2097 C   0  0  0  0  0  0  0  0  0  0  0  0
    1.4521   -2.0542    0.2166 C   0  0  0  0  0  0  0  0  0  0  0  0
   -2.9208   -0.2856   -0.1340 C   0  0  0  0  0  0  0  0  0  0  0  0
    2.7842   -1.5130    0.0282 C   0  0  0  0  0  0  0  0  0  0  0  0
   -2.6162    2.1318   -0.1658 C   0  0  0  0  0  0  0  0  0  0  0  0
   -3.4379    0.9988   -0.3095 C   0  0  0  0  0  0  0  0  0  0  0  0
    4.3109    0.3477   -0.5386 C   0  0  0  0  0  0  0  0  0  0  0  0
   -3.7531   -1.4700   -0.2799 C   0  0  0  0  0  0  0  0  0  0  0  0
    4.6116    1.7643   -0.1260 C   0  0  0  0  0  0  0  0  0  0  0  0
    1.8368    0.1546    2.5402 H   0  0  0  0  0  0  0  0  0  0  0  0
    0.9756    1.6772    2.3514 H   0  0  0  0  0  0  0  0  0  0  0  0
    0.0989    0.2280    2.8554 H   0  0  0  0  0  0  0  0  0  0  0  0
    1.2603   -3.0956   -0.0193 H   0  0  0  0  0  0  0  0  0  0  0  0
   -3.0364    3.1270   -0.2966 H   0  0  0  0  0  0  0  0  0  0  0  0
    0.4138    2.8510    0.5306 H   0  0  0  0  0  0  0  0  0  0  0  0
    3.3551   -3.3504    0.2367 H   0  0  0  0  0  0  0  0  0  0  0  0
    4.0626    2.0403    0.7784 H   0  0  0  0  0  0  0  0  0  0  0  0
    4.3709    2.4489   -0.9427 H   0  0  0  0  0  0  0  0  0  0  0  0
    5.6779    1.8442    0.1070 H   0  0  0  0  0  0  0  0  0  0  0  0
   -4.9333    2.1319   -0.7047 H   0  0  0  0  0  0  0  0  0  0  0  0
   -2.1761   -2.8445    0.1463 H   0  0  0  0  0  0  0  0  0  0  0  0
   -3.6989   -3.5594   -0.1927 H   0  0  0  0  0  0  0  0  0  0  0  0
  1 11  1  0  0  0  0
  1 13  1  0  0  0  0
  2 12  2  0  0  0  0
  3 15  1  0  0  0  0
  3 30  1  0  0  0  0
  4 19  1  0  0  0  0
  4 31  1  0  0  0  0
  5 21  1  0  0  0  0
  5 35  1  0  0  0  0
  6 22  2  0  0  0  0
  7 23  2  0  0  0  0
  8 23  1  0  0  0  0
  8 36  1  0  0  0  0
  8 37  1  0  0  0  0
  9 10  1  0  0  0  0
  9 11  1  0  0  0  0
  9 12  1  0  0  0  0
  9 14  1  0  0  0  0
 10 13  1  0  0  0  0
 10 15  2  0  0  0  0
 11 17  2  0  0  0  0
 12 16  1  0  0  0  0
 13 18  2  0  0  0  0
 14 25  1  0  0  0  0
 14 26  1  0  0  0  0
 14 27  1  0  0  0  0
 15 20  1  0  0  0  0
 16 19  2  0  0  0  0
 16 22  1  0  0  0  0
 17 19  1  0  0  0  0
 17 28  1  0  0  0  0
 18 21  1  0  0  0  0
 18 23  1  0  0  0  0
 20 21  2  0  0  0  0
 20 29  1  0  0  0  0
 22 24  1  0  0  0  0
 24 32  1  0  0  0  0
 24 33  1  0  0  0  0
 24 34  1  0  0  0  0
M  END
> <PUBCHEM_COMPOUND_CID>
131379

> <PUBCHEM_CONFORMER_RMSD>
0.6

> <PUBCHEM_CONFORMER_DIVERSEORDER>
1
3
6
4
2
5

> <PUBCHEM_MMFF94_PARTIAL_CHARGES>
30
1 -0.16
10 -0.14
11 -0.06
12 0.49
13 0.08
15 0.08
16 0.03
17 -0.15
18 0.09
19 0.08
2 -0.57
20 -0.15
21 0.08
22 0.49
23 0.54
24 0.06
28 0.15
29 0.15
3 -0.53
30 0.45
31 0.45
35 0.45
36 0.37
37 0.37
4 -0.53
5 -0.53
6 -0.57
7 -0.57
8 -0.8
9 0.34

> <PUBCHEM_EFFECTIVE_ROTOR_COUNT>
2.2

> <PUBCHEM_PHARMACOPHORE_FEATURES>
12
1 1 acceptor
1 16 anion
1 2 acceptor
1 3 donor
1 4 donor
1 5 donor
1 6 acceptor
1 7 acceptor
1 8 donor
5 1 9 10 11 13 rings
6 10 13 15 18 20 21 rings
6 9 11 12 16 17 19 rings

> <PUBCHEM_HEAVY_ATOM_COUNT>
24

> <PUBCHEM_ATOM_DEF_STEREO_COUNT>
1

> <PUBCHEM_ATOM_UDEF_STEREO_COUNT>
0

> <PUBCHEM_BOND_DEF_STEREO_COUNT>
0

> <PUBCHEM_BOND_UDEF_STEREO_COUNT>
0

> <PUBCHEM_ISOTOPIC_ATOM_COUNT>
0

> <PUBCHEM_COMPONENT_COUNT>
1

> <PUBCHEM_CACTVS_TAUTO_COUNT>
147

> <PUBCHEM_CONFORMER_ID>
0002013300000001

> <PUBCHEM_MMFF94_ENERGY>
80.0167

> <PUBCHEM_FEATURE_SELFOVERLAP>
61.101

> <PUBCHEM_SHAPE_FINGERPRINT>
10498660 4 18408318869654960853
10616163 171 18412547617329950495
10756046 5 18336265635135334926
10863032 1 18411137991951767924
10967382 1 18337390435467161777
11578080 2 17027079407580235117
12054548 360 18342452664326606603
12403260 363 18408323272877420192
12553582 1 18338786940427071683
12670546 177 18341616979802719334
12707595 3 17131826568974981746
12788726 201 17345196588966162665
13140716 1 18338519638583728571
13224815 77 18341609325944066464
14790565 3 18052261687709244969
15196674 1 18409448063801576535
15536298 74 18411136892571924436
16945 1 18196094330727608306
17349148 13 18113054948249418632
17492 89 18410576145710892558
19591789 44 17472704005833063307
200 152 17846785100574901204
20871999 31 18408599267201314319
21267235 1 18338243755754884487
221357 26 18410850001937067279
221490 88 18264492969407314667
22182313 1 18198317706854170417
22393880 68 18339084787718537542
2334 1 18410565211171744483
23352939 185 18201446933878835513
23402539 116 18408881854316130876
23557571 272 18272941521933230820
23559900 14 18342172246560801272
2748010 2 17255398744244020155
2871803 45 18411134770504853814
335352 9 18121779435028137903
34934 24 18409162199521289569
350125 39 18411984642244678025
474 4 17385737880499906772
5104073 3 18408604729782498162
633830 44 16733558112987679412
67856867 119 18335132082266560594
9709674 26 18410301293805347726
9981440 41 17755027724459783624

> <PUBCHEM_SHAPE_MULTIPOLES>
447.84
8.96
2.8
0.97
1.04
0.04
0.42
-1.06
-3.23
-0.66
-0.03
0.39
0.15
-0.14

> <PUBCHEM_SHAPE_SELFOVERLAP>
1006.008

> <PUBCHEM_SHAPE_VOLUME>
236.5

> <PUBCHEM_COORDINATE_TYPE>
2
5
10

$$$$
