131342
  -OEChem-03292013323D

 30 31  0     0  0  0  0  0  0999 V2000
    2.8977    1.6870    1.6140 Cl  0  0  0  0  0  0  0  0  0  0  0  0
    0.1097    0.1399    1.2180 S   0  0  0  0  0  0  0  0  0  0  0  0
   -0.3635   -1.0701    1.8603 O   0  0  0  0  0  0  0  0  0  0  0  0
    0.3715    1.3521    1.9697 O   0  0  0  0  0  0  0  0  0  0  0  0
   -2.5036   -1.6034    1.2958 O   0  5  0  0  0  0  0  0  0  0  0  0
   -4.2206   -1.2499   -0.0256 O   0  0  0  0  0  0  0  0  0  0  0  0
   -0.9667    1.6714   -0.8010 N   0  0  0  0  0  0  0  0  0  0  0  0
   -2.9861    0.8489   -1.2223 N   0  0  0  0  0  0  0  0  0  0  0  0
   -3.0593   -0.9455    0.3702 N   0  3  0  0  0  0  0  0  0  0  0  0
   -1.1481    0.6282    0.0399 C   0  0  0  0  0  0  0  0  0  0  0  0
    1.5389   -0.2840    0.2877 C   0  0  0  0  0  0  0  0  0  0  0  0
    1.4607   -1.3179   -0.6454 C   0  0  0  0  0  0  0  0  0  0  0  0
   -2.3829    0.1294   -0.2211 C   0  0  0  0  0  0  0  0  0  0  0  0
    2.7411    0.3981    0.4739 C   0  0  0  0  0  0  0  0  0  0  0  0
   -2.1068    1.7697   -1.5492 C   0  0  0  0  0  0  0  0  0  0  0  0
    0.1880    2.5301   -0.9183 C   0  0  0  0  0  0  0  0  0  0  0  0
    2.5851   -1.6695   -1.3924 C   0  0  0  0  0  0  0  0  0  0  0  0
    0.1921   -2.0735   -0.8749 C   0  0  0  0  0  0  0  0  0  0  0  0
    3.8654    0.0464   -0.2731 C   0  0  0  0  0  0  0  0  0  0  0  0
    3.7874   -0.9873   -1.2064 C   0  0  0  0  0  0  0  0  0  0  0  0
   -2.2415    2.5237   -2.3128 H   0  0  0  0  0  0  0  0  0  0  0  0
   -0.0437    3.3394   -1.6175 H   0  0  0  0  0  0  0  0  0  0  0  0
    0.4182    2.9701    0.0522 H   0  0  0  0  0  0  0  0  0  0  0  0
    1.0214    1.9522   -1.3186 H   0  0  0  0  0  0  0  0  0  0  0  0
    2.5438   -2.4709   -2.1253 H   0  0  0  0  0  0  0  0  0  0  0  0
   -0.2224   -2.5081    0.0342 H   0  0  0  0  0  0  0  0  0  0  0  0
   -0.5390   -1.4742   -1.4174 H   0  0  0  0  0  0  0  0  0  0  0  0
    0.3840   -2.9399   -1.5220 H   0  0  0  0  0  0  0  0  0  0  0  0
    4.8103    0.5677   -0.1413 H   0  0  0  0  0  0  0  0  0  0  0  0
    4.6626   -1.2606   -1.7885 H   0  0  0  0  0  0  0  0  0  0  0  0
  1 14  1  0  0  0  0
  2  3  2  0  0  0  0
  2  4  2  0  0  0  0
  2 10  1  0  0  0  0
  2 11  1  0  0  0  0
  5  9  1  0  0  0  0
  6  9  2  0  0  0  0
  7 10  1  0  0  0  0
  7 15  1  0  0  0  0
  7 16  1  0  0  0  0
  8 13  1  0  0  0  0
  8 15  2  0  0  0  0
  9 13  1  0  0  0  0
 10 13  2  0  0  0  0
 11 12  2  0  0  0  0
 11 14  1  0  0  0  0
 12 17  1  0  0  0  0
 12 18  1  0  0  0  0
 14 19  2  0  0  0  0
 15 21  1  0  0  0  0
 16 22  1  0  0  0  0
 16 23  1  0  0  0  0
 16 24  1  0  0  0  0
 17 20  2  0  0  0  0
 17 25  1  0  0  0  0
 18 26  1  0  0  0  0
 18 27  1  0  0  0  0
 18 28  1  0  0  0  0
 19 20  1  0  0  0  0
 19 29  1  0  0  0  0
 20 30  1  0  0  0  0
M  CHG  2   5  -1   9   1
M  END
> <PUBCHEM_COMPOUND_CID>
131342

> <PUBCHEM_CONFORMER_RMSD>
0.6

> <PUBCHEM_CONFORMER_DIVERSEORDER>
1
4
6
7
2
3
5
8

> <PUBCHEM_MMFF94_PARTIAL_CHARGES>
24
1 -0.18
10 -0.21
11 -0.01
12 -0.14
13 0.31
14 0.18
15 0.04
16 0.26
17 -0.15
18 0.14
19 -0.15
2 1.37
20 -0.15
21 0.15
25 0.15
29 0.15
3 -0.65
30 0.15
4 -0.65
5 -0.52
6 -0.52
7 0.05
8 -0.57
9 0.96

> <PUBCHEM_EFFECTIVE_ROTOR_COUNT>
3

> <PUBCHEM_PHARMACOPHORE_FEATURES>
8
1 3 acceptor
1 4 acceptor
1 5 acceptor
1 5 anion
1 6 acceptor
3 7 8 15 cation
5 7 8 10 13 15 rings
6 11 12 14 17 19 20 rings

> <PUBCHEM_HEAVY_ATOM_COUNT>
20

> <PUBCHEM_ATOM_DEF_STEREO_COUNT>
0

> <PUBCHEM_ATOM_UDEF_STEREO_COUNT>
0

> <PUBCHEM_BOND_DEF_STEREO_COUNT>
0

> <PUBCHEM_BOND_UDEF_STEREO_COUNT>
0

> <PUBCHEM_ISOTOPIC_ATOM_COUNT>
0

> <PUBCHEM_COMPONENT_COUNT>
1

> <PUBCHEM_CACTVS_TAUTO_COUNT>
1

> <PUBCHEM_CONFORMER_ID>
0002010E00000001

> <PUBCHEM_MMFF94_ENERGY>
54.2156

> <PUBCHEM_FEATURE_SELFOVERLAP>
40.751

> <PUBCHEM_SHAPE_FINGERPRINT>
10863032 1 17968651601842682606
11640471 11 15864637145951868092
12236239 1 15626226835597501258
12491281 212 16515980172288334638
13299463 15 18197501723038924590
13464513 79 18337955713657218111
13583140 156 18190996020544093034
14817 1 14428343925620096792
15375462 189 15985382300283997978
15775835 57 15864357891541762748
15881359 60 18267857470624432224
16945 1 18121496847755175964
17357779 13 18268132323078545463
18186145 218 18410855417389602560
192875 21 15864072078700765902
19422 9 15482664706255067708
200 152 17632296714429921398
20344682 1 18410855511752256366
20871999 31 18186802444377584213
21731516 1 16414907531397620542
22802520 49 18267299833302943532
23402539 116 17967811618172375062
23419403 2 18271251619974752192
23493267 7 18115022996299928690
23557571 272 18334011687732571549
23559900 14 18114739335765288454
238 59 17699813355098527444
2748010 2 18411410713616415356
3286 77 18060145336081526258
3323516 105 18202281415806416526
3524813 1 18342454859239647606
474 4 15695714952950668640
57527452 28 13164522864978976316
77492 1 15554446318568835664
81228 2 18113908117585473537
84936 31 17986955348004311968

> <PUBCHEM_SHAPE_MULTIPOLES>
378.89
6.02
2.31
1.72
0.33
0.27
-0.33
-1.45
0.93
-0.27
0.39
0.17
0.42
1.91

> <PUBCHEM_SHAPE_SELFOVERLAP>
798.08

> <PUBCHEM_SHAPE_VOLUME>
214.8

> <PUBCHEM_COORDINATE_TYPE>
2
5
10

$$$$
