131333
  -OEChem-03292013323D

 47 47  0     1  0  0  0  0  0999 V2000
    1.6818    2.5211    0.1679 S   0  0  0  0  0  0  0  0  0  0  0  0
   -3.6375    0.7482   -1.3872 S   0  0  0  0  0  0  0  0  0  0  0  0
   -0.5848    0.7868   -1.7806 O   0  0  0  0  0  0  0  0  0  0  0  0
    3.2062    2.9973   -0.1591 O   0  0  0  0  0  0  0  0  0  0  0  0
    1.4317    2.7360    1.5792 O   0  0  0  0  0  0  0  0  0  0  0  0
    0.8006    3.0600   -0.8477 O   0  0  0  0  0  0  0  0  0  0  0  0
   -0.2312    0.7661    2.6117 O   0  0  0  0  0  0  0  0  0  0  0  0
    1.3598   -2.7982    0.1179 O   0  0  0  0  0  0  0  0  0  0  0  0
    3.8671   -1.3764   -0.6921 O   0  0  0  0  0  0  0  0  0  0  0  0
    2.6937   -1.6135   -2.6202 O   0  0  0  0  0  0  0  0  0  0  0  0
   -3.9465    0.6937    1.2431 O   0  0  0  0  0  0  0  0  0  0  0  0
    0.6490   -0.0156   -0.0113 N   0  0  0  0  0  0  0  0  0  0  0  0
    0.5802   -0.8270    1.1047 N   0  0  0  0  0  0  0  0  0  0  0  0
    1.9094    0.7434   -0.1114 C   0  0  1  0  0  0  0  0  0  0  0  0
   -2.8975   -0.9313   -1.2671 C   0  0  0  0  0  0  0  0  0  0  0  0
   -1.6202   -0.9060   -0.3963 C   0  0  0  0  0  0  0  0  0  0  0  0
   -0.4862    0.0354   -0.8086 C   0  0  0  0  0  0  0  0  0  0  0  0
    2.6531    0.5210   -1.4427 C   0  0  0  0  0  0  0  0  0  0  0  0
    0.2079   -1.5180    3.2738 C   0  0  0  0  0  0  0  0  0  0  0  0
    0.7367   -2.6927    2.4522 C   0  0  0  0  0  0  0  0  0  0  0  0
    0.1448   -0.3586    2.3171 C   0  0  0  0  0  0  0  0  0  0  0  0
    0.9437   -2.1480    1.0650 C   0  0  0  0  0  0  0  0  0  0  0  0
   -2.5082   -1.3536   -2.6955 C   0  0  0  0  0  0  0  0  0  0  0  0
   -3.9481   -1.9136   -0.7322 C   0  0  0  0  0  0  0  0  0  0  0  0
    3.0436   -0.9229   -1.6738 C   0  0  0  0  0  0  0  0  0  0  0  0
   -3.4476    1.2661    0.2817 C   0  0  0  0  0  0  0  0  0  0  0  0
   -2.6015    2.5006    0.4117 C   0  0  0  0  0  0  0  0  0  0  0  0
    2.5679    0.4253    0.7087 H   0  0  0  0  0  0  0  0  0  0  0  0
   -1.8922   -0.7203    0.6465 H   0  0  0  0  0  0  0  0  0  0  0  0
   -1.2137   -1.9254   -0.4254 H   0  0  0  0  0  0  0  0  0  0  0  0
    2.0326    0.8391   -2.2884 H   0  0  0  0  0  0  0  0  0  0  0  0
    3.5826    1.0949   -1.5078 H   0  0  0  0  0  0  0  0  0  0  0  0
   -0.7918   -1.7266    3.6661 H   0  0  0  0  0  0  0  0  0  0  0  0
    0.8809   -1.2776    4.1020 H   0  0  0  0  0  0  0  0  0  0  0  0
    1.6873   -3.0594    2.8503 H   0  0  0  0  0  0  0  0  0  0  0  0
    0.0138   -3.5133    2.4225 H   0  0  0  0  0  0  0  0  0  0  0  0
   -1.9994   -2.3253   -2.6866 H   0  0  0  0  0  0  0  0  0  0  0  0
   -3.3969   -1.4703   -3.3288 H   0  0  0  0  0  0  0  0  0  0  0  0
   -1.8472   -0.6469   -3.2049 H   0  0  0  0  0  0  0  0  0  0  0  0
   -3.5493   -2.9350   -0.7247 H   0  0  0  0  0  0  0  0  0  0  0  0
   -4.8521   -1.9233   -1.3523 H   0  0  0  0  0  0  0  0  0  0  0  0
   -4.2443   -1.6824    0.2958 H   0  0  0  0  0  0  0  0  0  0  0  0
    3.3732    3.2765   -1.0901 H   0  0  0  0  0  0  0  0  0  0  0  0
    4.1288   -2.3105   -0.8375 H   0  0  0  0  0  0  0  0  0  0  0  0
   -2.6154    3.1131   -0.4940 H   0  0  0  0  0  0  0  0  0  0  0  0
   -2.9981    3.1126    1.2278 H   0  0  0  0  0  0  0  0  0  0  0  0
   -1.5743    2.2209    0.6492 H   0  0  0  0  0  0  0  0  0  0  0  0
  1  4  1  0  0  0  0
  1  5  2  0  0  0  0
  1  6  2  0  0  0  0
  1 14  1  0  0  0  0
  2 15  1  0  0  0  0
  2 26  1  0  0  0  0
  3 17  2  0  0  0  0
  4 43  1  0  0  0  0
  7 21  2  0  0  0  0
  8 22  2  0  0  0  0
  9 25  1  0  0  0  0
  9 44  1  0  0  0  0
 10 25  2  0  0  0  0
 11 26  2  0  0  0  0
 12 13  1  0  0  0  0
 12 14  1  0  0  0  0
 12 17  1  0  0  0  0
 13 21  1  0  0  0  0
 13 22  1  0  0  0  0
 14 18  1  0  0  0  0
 14 28  1  0  0  0  0
 15 16  1  0  0  0  0
 15 23  1  0  0  0  0
 15 24  1  0  0  0  0
 16 17  1  0  0  0  0
 16 29  1  0  0  0  0
 16 30  1  0  0  0  0
 18 25  1  0  0  0  0
 18 31  1  0  0  0  0
 18 32  1  0  0  0  0
 19 20  1  0  0  0  0
 19 21  1  0  0  0  0
 19 33  1  0  0  0  0
 19 34  1  0  0  0  0
 20 22  1  0  0  0  0
 20 35  1  0  0  0  0
 20 36  1  0  0  0  0
 23 37  1  0  0  0  0
 23 38  1  0  0  0  0
 23 39  1  0  0  0  0
 24 40  1  0  0  0  0
 24 41  1  0  0  0  0
 24 42  1  0  0  0  0
 26 27  1  0  0  0  0
 27 45  1  0  0  0  0
 27 46  1  0  0  0  0
 27 47  1  0  0  0  0
M  END
> <PUBCHEM_COMPOUND_CID>
131333

> <PUBCHEM_CONFORMER_RMSD>
1

> <PUBCHEM_CONFORMER_DIVERSEORDER>
1
87
71
55
90
61
26
92
60
32
67
73
85
97
56
28
33
89
82
38
53
96
98
47
58
77
50
44
84
22
54
20
52
27
42
86
23
93
29
74
35
21
59
99
88
57
25
70
30
69
63
31
51
6
68
39
43
7
91
14
49
75
95
83
65
72
66
94
37
24
41
5
78
4
76
79
62
81
34
36
80
46
16
64
11
40
12
18
17
8
15
10
2
48
19
3
45
9
13

> <PUBCHEM_MMFF94_PARTIAL_CHARGES>
27
1 1.38
10 -0.57
11 -0.57
12 -0.36
13 -0.12
14 0.41
15 0.23
16 0.06
17 0.57
18 0.06
19 0.06
2 -0.37
20 0.06
21 0.57
22 0.57
25 0.66
26 0.65
27 0.06
3 -0.57
4 -0.68
43 0.5
44 0.5
5 -0.65
6 -0.65
7 -0.57
8 -0.57
9 -0.65

> <PUBCHEM_EFFECTIVE_ROTOR_COUNT>
10.6

> <PUBCHEM_PHARMACOPHORE_FEATURES>
12
1 10 acceptor
1 3 acceptor
1 4 acceptor
1 5 acceptor
1 6 acceptor
1 7 acceptor
1 8 acceptor
1 9 acceptor
3 15 23 24 hydrophobe
3 9 10 25 anion
4 1 4 5 6 anion
5 13 19 20 21 22 rings

> <PUBCHEM_HEAVY_ATOM_COUNT>
27

> <PUBCHEM_ATOM_DEF_STEREO_COUNT>
1

> <PUBCHEM_ATOM_UDEF_STEREO_COUNT>
0

> <PUBCHEM_BOND_DEF_STEREO_COUNT>
0

> <PUBCHEM_BOND_UDEF_STEREO_COUNT>
0

> <PUBCHEM_ISOTOPIC_ATOM_COUNT>
0

> <PUBCHEM_COMPONENT_COUNT>
1

> <PUBCHEM_CACTVS_TAUTO_COUNT>
3

> <PUBCHEM_CONFORMER_ID>
0002010500000001

> <PUBCHEM_MMFF94_ENERGY>
56.953

> <PUBCHEM_FEATURE_SELFOVERLAP>
61.025

> <PUBCHEM_SHAPE_FINGERPRINT>
10165383 225 17024340472770288293
11578080 2 16702009902950454513
12160290 23 15300788650975909315
133893 2 16806985689881638339
13681431 1 17026533903772933403
16945 1 18408887321577285927
20600515 1 17629459922431884922
20691752 17 17894628188262198188
23419403 2 17903671749015995930
23559900 14 17702927202630911989
23598288 3 17396408421413711519
238 59 18196946684520809790
35225 105 16663177493114614153
5845 1 16599882001585379587
81228 2 16520486206787960186
9981440 41 17693651924197546360

> <PUBCHEM_SHAPE_MULTIPOLES>
500.56
5.96
3.4
2.93
3.67
0.64
-0.36
0.96
3.01
-1.81
-1.58
-0.5
-1.42
-0.44

> <PUBCHEM_SHAPE_SELFOVERLAP>
996.493

> <PUBCHEM_SHAPE_VOLUME>
296.7

> <PUBCHEM_COORDINATE_TYPE>
2
5
10

$$$$
