131350
  -OEChem-03292013323D

 35 38  0     0  0  0  0  0  0999 V2000
    1.3385    2.5217    0.0010 O   0  0  0  0  0  0  0  0  0  0  0  0
   -1.1551    2.4685    0.0082 O   0  0  0  0  0  0  0  0  0  0  0  0
   -1.2308   -2.8729    0.0130 O   0  0  0  0  0  0  0  0  0  0  0  0
    3.8869    2.4730    0.0015 O   0  0  0  0  0  0  0  0  0  0  0  0
   -3.7040    2.5969   -0.0041 O   0  0  0  0  0  0  0  0  0  0  0  0
    6.1139   -1.6960   -0.0076 O   0  0  0  0  0  0  0  0  0  0  0  0
   -6.0821   -1.4990   -0.0077 O   0  0  0  0  0  0  0  0  0  0  0  0
    0.0975    0.4741    0.0035 C   0  0  0  0  0  0  0  0  0  0  0  0
    0.0750   -0.9193    0.0042 C   0  0  0  0  0  0  0  0  0  0  0  0
    2.5354    0.4449    0.0006 C   0  0  0  0  0  0  0  0  0  0  0  0
    2.5127   -0.9687    0.0000 C   0  0  0  0  0  0  0  0  0  0  0  0
   -2.4487    0.5165   -0.0001 C   0  0  0  0  0  0  0  0  0  0  0  0
   -2.4713   -0.8794    0.0010 C   0  0  0  0  0  0  0  0  0  0  0  0
    1.3223    1.1535    0.0023 C   0  0  0  0  0  0  0  0  0  0  0  0
   -1.1636    1.2443    0.0035 C   0  0  0  0  0  0  0  0  0  0  0  0
    1.2773   -1.6378    0.0023 C   0  0  0  0  0  0  0  0  0  0  0  0
   -1.2104   -1.6483    0.0061 C   0  0  0  0  0  0  0  0  0  0  0  0
    3.7718    1.1117   -0.0011 C   0  0  0  0  0  0  0  0  0  0  0  0
   -3.6507    1.2346   -0.0029 C   0  0  0  0  0  0  0  0  0  0  0  0
    3.7271   -1.6747   -0.0030 C   0  0  0  0  0  0  0  0  0  0  0  0
   -3.6959   -1.5579   -0.0014 C   0  0  0  0  0  0  0  0  0  0  0  0
    4.9461   -0.9964   -0.0049 C   0  0  0  0  0  0  0  0  0  0  0  0
    4.9685    0.3948   -0.0038 C   0  0  0  0  0  0  0  0  0  0  0  0
   -4.8915   -0.8387   -0.0049 C   0  0  0  0  0  0  0  0  0  0  0  0
   -4.8689    0.5545   -0.0056 C   0  0  0  0  0  0  0  0  0  0  0  0
    1.2631   -2.7263    0.0021 H   0  0  0  0  0  0  0  0  0  0  0  0
    3.7273   -2.7634   -0.0037 H   0  0  0  0  0  0  0  0  0  0  0  0
   -3.7266   -2.6448   -0.0007 H   0  0  0  0  0  0  0  0  0  0  0  0
    5.9225    0.9172   -0.0048 H   0  0  0  0  0  0  0  0  0  0  0  0
   -5.8035    1.1106   -0.0082 H   0  0  0  0  0  0  0  0  0  0  0  0
    2.1848    2.8579    0.3326 H   0  0  0  0  0  0  0  0  0  0  0  0
    4.8258    2.7258    0.0001 H   0  0  0  0  0  0  0  0  0  0  0  0
   -2.8131    2.9769   -0.0115 H   0  0  0  0  0  0  0  0  0  0  0  0
    6.8579   -1.0695   -0.0086 H   0  0  0  0  0  0  0  0  0  0  0  0
   -5.9124   -2.4568   -0.0068 H   0  0  0  0  0  0  0  0  0  0  0  0
  1 14  1  0  0  0  0
  1 31  1  0  0  0  0
  2 15  2  0  0  0  0
  3 17  2  0  0  0  0
  4 18  1  0  0  0  0
  4 32  1  0  0  0  0
  5 19  1  0  0  0  0
  5 33  1  0  0  0  0
  6 22  1  0  0  0  0
  6 34  1  0  0  0  0
  7 24  1  0  0  0  0
  7 35  1  0  0  0  0
  8  9  1  0  0  0  0
  8 14  2  0  0  0  0
  8 15  1  0  0  0  0
  9 16  2  0  0  0  0
  9 17  1  0  0  0  0
 10 11  1  0  0  0  0
 10 14  1  0  0  0  0
 10 18  2  0  0  0  0
 11 16  1  0  0  0  0
 11 20  2  0  0  0  0
 12 13  2  0  0  0  0
 12 15  1  0  0  0  0
 12 19  1  0  0  0  0
 13 17  1  0  0  0  0
 13 21  1  0  0  0  0
 16 26  1  0  0  0  0
 18 23  1  0  0  0  0
 19 25  2  0  0  0  0
 20 22  1  0  0  0  0
 20 27  1  0  0  0  0
 21 24  2  0  0  0  0
 21 28  1  0  0  0  0
 22 23  2  0  0  0  0
 23 29  1  0  0  0  0
 24 25  1  0  0  0  0
 25 30  1  0  0  0  0
M  END
> <PUBCHEM_COMPOUND_CID>
131350

> <PUBCHEM_CONFORMER_RMSD>
0.6

> <PUBCHEM_CONFORMER_DIVERSEORDER>
1

> <PUBCHEM_MMFF94_PARTIAL_CHARGES>
33
1 -0.53
12 0.09
13 0.09
14 0.08
15 0.4
16 -0.15
17 0.4
18 0.08
19 0.08
2 -0.57
20 -0.15
21 -0.15
22 0.08
23 -0.15
24 0.08
25 -0.15
26 0.15
27 0.15
28 0.15
29 0.15
3 -0.57
30 0.15
31 0.45
32 0.45
33 0.45
34 0.45
35 0.45
4 -0.53
5 -0.53
6 -0.53
7 -0.53
8 0.09
9 0.09

> <PUBCHEM_EFFECTIVE_ROTOR_COUNT>
0

> <PUBCHEM_PHARMACOPHORE_FEATURES>
11
1 1 donor
1 2 acceptor
1 3 acceptor
1 4 donor
1 5 donor
1 6 donor
1 7 donor
6 10 11 18 20 22 23 rings
6 12 13 19 21 24 25 rings
6 8 9 10 11 14 16 rings
6 8 9 12 13 15 17 rings

> <PUBCHEM_HEAVY_ATOM_COUNT>
25

> <PUBCHEM_ATOM_DEF_STEREO_COUNT>
0

> <PUBCHEM_ATOM_UDEF_STEREO_COUNT>
0

> <PUBCHEM_BOND_DEF_STEREO_COUNT>
0

> <PUBCHEM_BOND_UDEF_STEREO_COUNT>
0

> <PUBCHEM_ISOTOPIC_ATOM_COUNT>
0

> <PUBCHEM_COMPONENT_COUNT>
1

> <PUBCHEM_CACTVS_TAUTO_COUNT>
600

> <PUBCHEM_CONFORMER_ID>
0002011600000001

> <PUBCHEM_MMFF94_ENERGY>
85.378

> <PUBCHEM_FEATURE_SELFOVERLAP>
55.906

> <PUBCHEM_SHAPE_FINGERPRINT>
10 15 18338225073158740096
10967382 1 18338797917645685152
11578080 2 16843307158862653850
12107183 9 17760363292872941755
12166972 35 17967818257922939068
12236239 1 17894914014029982950
12403259 226 18410568487657343341
12788726 201 17703804608109124920
13140716 1 18410862100152973930
13288520 33 18411702058559788911
13402501 40 18411418405834277023
13862211 1 18410854360632754543
14341114 176 18335425702983587675
14790565 3 18410579469919990977
15196674 1 18410855460144102981
15536298 74 18413388747819296840
17349148 13 18202566180722703774
17492 89 18265334099934487466
17844677 252 18411426102389245720
1813 80 17240197750997812716
18681886 176 18341889693621178490
19591789 44 18410009914222115097
200 152 18131068233850557611
20028762 73 18272929431627621631
21236236 1 18412545380063088401
21267235 1 18410581681759602602
21279426 13 18339079276842882574
21682296 61 18271252607912909638
21792934 111 18341322345426158409
221357 26 18412260653495376397
221490 88 18336271239940893378
23402539 116 18341888567564260919
23522609 53 18122659168843205745
23559900 14 18341890805980804232
3004659 81 18333169462479498022
335352 9 18410855421552649308
34797466 226 17418100961776454780
34934 24 18267862968293561742
350125 39 18410858759275260705
3680242 22 18263081016215205434
4073 2 18113625602799377378
4214541 1 18410856525449155073
474 4 17459195234539415188
5104073 3 18411419509630252008
6138700 20 18337392622001686946
7495541 125 17632571690619862587
9709674 26 18337394953736009290
9981440 41 17181656702429746912

> <PUBCHEM_SHAPE_MULTIPOLES>
473.4
11.89
2.73
0.59
0.92
0.64
0
-2.54
-0.04
-0.15
0
0
-0.02
0

> <PUBCHEM_SHAPE_SELFOVERLAP>
1095.366

> <PUBCHEM_SHAPE_VOLUME>
240.1

> <PUBCHEM_COORDINATE_TYPE>
2
5
10

$$$$
