131303
  -OEChem-03292013323D

 45 44  0     1  0  0  0  0  0999 V2000
   -4.5943    0.2191   -0.7977 S   0  0  0  0  0  0  0  0  0  0  0  0
    1.3170   -0.7222   -0.0805 O   0  0  0  0  0  0  0  0  0  0  0  0
   -0.7689    2.0613    1.6867 O   0  0  0  0  0  0  0  0  0  0  0  0
    2.5689   -2.3149    1.0238 O   0  0  0  0  0  0  0  0  0  0  0  0
   -5.0200    1.4156   -0.0733 O   0  5  0  0  0  0  0  0  0  0  0  0
   -4.5839    0.3503   -2.2539 O   0  0  0  0  0  0  0  0  0  0  0  0
   -5.1489   -1.0368   -0.2951 O   0  0  0  0  0  0  0  0  0  0  0  0
    3.2117    1.5780   -0.8965 N   0  3  0  0  0  0  0  0  0  0  0  0
   -1.2481   -0.1964    1.4223 N   0  0  0  0  0  0  0  0  0  0  0  0
    1.9945    1.5924   -0.0474 C   0  0  0  0  0  0  0  0  0  0  0  0
    1.8707    0.2965    0.7530 C   0  0  1  0  0  0  0  0  0  0  0  0
    3.3199    2.8710   -1.7163 C   0  0  0  0  0  0  0  0  0  0  0  0
    3.1805    0.3946   -1.8734 C   0  0  0  0  0  0  0  0  0  0  0  0
    4.4758    1.4523   -0.0349 C   0  0  0  0  0  0  0  0  0  0  0  0
    1.0002    0.4331    2.0046 C   0  0  0  0  0  0  0  0  0  0  0  0
   -0.4197    0.8841    1.6912 C   0  0  0  0  0  0  0  0  0  0  0  0
    1.7580   -1.9930    0.1663 C   0  0  0  0  0  0  0  0  0  0  0  0
   -2.6493   -0.0548    1.0988 C   0  0  0  0  0  0  0  0  0  0  0  0
    1.0808   -2.9437   -0.7928 C   0  0  0  0  0  0  0  0  0  0  0  0
   -2.8802    0.0923   -0.3929 C   0  0  0  0  0  0  0  0  0  0  0  0
    1.5356   -4.3787   -0.5919 C   0  0  0  0  0  0  0  0  0  0  0  0
    2.0767    2.4595    0.6190 H   0  0  0  0  0  0  0  0  0  0  0  0
    1.1300    1.7367   -0.7073 H   0  0  0  0  0  0  0  0  0  0  0  0
    2.8448   -0.0136    1.1351 H   0  0  0  0  0  0  0  0  0  0  0  0
    2.4315    2.9465   -2.3501 H   0  0  0  0  0  0  0  0  0  0  0  0
    3.3680    3.7121   -1.0186 H   0  0  0  0  0  0  0  0  0  0  0  0
    4.2253    2.8276   -2.3287 H   0  0  0  0  0  0  0  0  0  0  0  0
    2.2024    0.3676   -2.3621 H   0  0  0  0  0  0  0  0  0  0  0  0
    3.9627    0.5570   -2.6224 H   0  0  0  0  0  0  0  0  0  0  0  0
    3.4074   -0.5315   -1.3439 H   0  0  0  0  0  0  0  0  0  0  0  0
    5.3385    1.6935   -0.6647 H   0  0  0  0  0  0  0  0  0  0  0  0
    4.4069    2.1665    0.7906 H   0  0  0  0  0  0  0  0  0  0  0  0
    4.5949    0.4290    0.3270 H   0  0  0  0  0  0  0  0  0  0  0  0
    0.9545   -0.5190    2.5476 H   0  0  0  0  0  0  0  0  0  0  0  0
    1.4367    1.1678    2.6917 H   0  0  0  0  0  0  0  0  0  0  0  0
   -0.8619   -1.1358    1.4320 H   0  0  0  0  0  0  0  0  0  0  0  0
   -3.1529   -0.9469    1.4854 H   0  0  0  0  0  0  0  0  0  0  0  0
   -3.0493    0.8092    1.6409 H   0  0  0  0  0  0  0  0  0  0  0  0
   -2.3818    0.9891   -0.7774 H   0  0  0  0  0  0  0  0  0  0  0  0
   -2.4756   -0.7706   -0.9338 H   0  0  0  0  0  0  0  0  0  0  0  0
    1.3150   -2.6292   -1.8154 H   0  0  0  0  0  0  0  0  0  0  0  0
   -0.0013   -2.8798   -0.6366 H   0  0  0  0  0  0  0  0  0  0  0  0
    2.6158   -4.4737   -0.7448 H   0  0  0  0  0  0  0  0  0  0  0  0
    1.3093   -4.7245    0.4222 H   0  0  0  0  0  0  0  0  0  0  0  0
    1.0297   -5.0416   -1.3005 H   0  0  0  0  0  0  0  0  0  0  0  0
  1  5  1  0  0  0  0
  1  6  2  0  0  0  0
  1  7  2  0  0  0  0
  1 20  1  0  0  0  0
  2 11  1  0  0  0  0
  2 17  1  0  0  0  0
  3 16  2  0  0  0  0
  4 17  2  0  0  0  0
  8 10  1  0  0  0  0
  8 12  1  0  0  0  0
  8 13  1  0  0  0  0
  8 14  1  0  0  0  0
  9 16  1  0  0  0  0
  9 18  1  0  0  0  0
  9 36  1  0  0  0  0
 10 11  1  0  0  0  0
 10 22  1  0  0  0  0
 10 23  1  0  0  0  0
 11 15  1  0  0  0  0
 11 24  1  0  0  0  0
 12 25  1  0  0  0  0
 12 26  1  0  0  0  0
 12 27  1  0  0  0  0
 13 28  1  0  0  0  0
 13 29  1  0  0  0  0
 13 30  1  0  0  0  0
 14 31  1  0  0  0  0
 14 32  1  0  0  0  0
 14 33  1  0  0  0  0
 15 16  1  0  0  0  0
 15 34  1  0  0  0  0
 15 35  1  0  0  0  0
 17 19  1  0  0  0  0
 18 20  1  0  0  0  0
 18 37  1  0  0  0  0
 18 38  1  0  0  0  0
 19 21  1  0  0  0  0
 19 41  1  0  0  0  0
 19 42  1  0  0  0  0
 20 39  1  0  0  0  0
 20 40  1  0  0  0  0
 21 43  1  0  0  0  0
 21 44  1  0  0  0  0
 21 45  1  0  0  0  0
M  CHG  2   5  -1   8   1
M  END
> <PUBCHEM_COMPOUND_CID>
131303

> <PUBCHEM_CONFORMER_RMSD>
1

> <PUBCHEM_CONFORMER_DIVERSEORDER>
1
38
40
22
29
45
8
43
27
30
53
28
41
26
54
4
5
47
51
44
19
46
37
15
11
49
21
10
3
6
20
33
31
36
32
52
42
24
14
9
23
7
18
50
25
16
34
39
13
12
55
2
48
35
17

> <PUBCHEM_MMFF94_PARTIAL_CHARGES>
21
1 1.34
10 0.5
11 0.28
12 0.5
13 0.5
14 0.5
15 0.06
16 0.57
17 0.66
18 0.3
19 0.06
2 -0.43
20 0.11
3 -0.57
36 0.37
4 -0.57
5 -0.82
6 -0.82
7 -0.82
8 -1.01
9 -0.73

> <PUBCHEM_EFFECTIVE_ROTOR_COUNT>
11

> <PUBCHEM_PHARMACOPHORE_FEATURES>
9
1 21 hydrophobe
1 3 acceptor
1 4 acceptor
1 5 acceptor
1 6 acceptor
1 7 acceptor
1 8 cation
1 9 donor
4 1 5 6 7 anion

> <PUBCHEM_HEAVY_ATOM_COUNT>
21

> <PUBCHEM_ATOM_DEF_STEREO_COUNT>
1

> <PUBCHEM_ATOM_UDEF_STEREO_COUNT>
0

> <PUBCHEM_BOND_DEF_STEREO_COUNT>
0

> <PUBCHEM_BOND_UDEF_STEREO_COUNT>
0

> <PUBCHEM_ISOTOPIC_ATOM_COUNT>
0

> <PUBCHEM_COMPONENT_COUNT>
1

> <PUBCHEM_CACTVS_TAUTO_COUNT>
2

> <PUBCHEM_CONFORMER_ID>
000200E700000001

> <PUBCHEM_MMFF94_ENERGY>
43.0483

> <PUBCHEM_FEATURE_SELFOVERLAP>
45.741

> <PUBCHEM_SHAPE_FINGERPRINT>
11069576 57 18057873667602080583
12553582 1 17275102838917554123
12616999 72 18411131463701678963
12633257 1 13913157019513363396
12670546 177 18113612439431145553
13149001 5 17556024928324571960
14863182 85 17774713174126365134
15163728 17 16806473424942772444
15342816 4 17131531904644224321
15502722 9 18408043987605984783
15842332 3 17700714877376393177
20645477 70 18336548231267523059
21304303 282 17396683750877940240
21304303 94 17918001589260420759
21421566 26 16614802946148698470
21452121 99 17911796092120595946
21860390 5 17167863092851010876
23114952 82 18262521386123491943
23419403 2 17616485681366673330
235170 7 18187077356818346439
23557571 272 16443929265535612217
238 59 18335433356451856714
2838139 119 17386280025368463748
3060560 45 18337391638385234244
312425 83 18189046500529012029
3472631 163 17241030068931822613
404807 78 17900819667842240423
4175511 335 18343297063397224985
46194498 28 18188766142143376615
53917941 68 18050849124594329572
633830 44 17983334574836475000
7164475 11 18126283043504490473
8509985 295 9222963555811774259

> <PUBCHEM_SHAPE_MULTIPOLES>
390.84
9.22
3.61
1.93
12.37
4.61
-0.02
-4.19
-4.94
-4.25
-1.06
0.1
-0.81
-0.91

> <PUBCHEM_SHAPE_SELFOVERLAP>
742.062

> <PUBCHEM_SHAPE_VOLUME>
243.5

> <PUBCHEM_COORDINATE_TYPE>
2
5
10

$$$$
