131477
  -OEChem-03292013323D

 46 47  0     1  0  0  0  0  0999 V2000
   -0.9739   -1.5115   -1.6329 O   0  0  0  0  0  0  0  0  0  0  0  0
    2.5691   -1.2475    1.2689 O   0  0  0  0  0  0  0  0  0  0  0  0
   -4.2836    3.6485   -0.4009 O   0  0  0  0  0  0  0  0  0  0  0  0
    5.1050    1.2969    0.3622 O   0  0  0  0  0  0  0  0  0  0  0  0
   -2.9918   -1.8074    0.7195 N   0  0  0  0  0  0  0  0  0  0  0  0
   -0.0167   -0.9585    0.4164 N   0  0  0  0  0  0  0  0  0  0  0  0
    3.2577   -0.3367   -0.7536 N   0  0  0  0  0  0  0  0  0  0  0  0
    6.8179   -0.2005    0.0311 N   0  0  0  0  0  0  0  0  0  0  0  0
   -1.7947   -2.5593    0.3429 C   0  0  1  0  0  0  0  0  0  0  0  0
   -2.2815   -3.7298   -0.5067 C   0  0  0  0  0  0  0  0  0  0  0  0
   -3.7948   -3.5778   -0.5461 C   0  0  0  0  0  0  0  0  0  0  0  0
   -4.0990   -2.7580    0.6901 C   0  0  0  0  0  0  0  0  0  0  0  0
   -0.9052   -1.6268   -0.4120 C   0  0  0  0  0  0  0  0  0  0  0  0
    0.9633   -0.0192   -0.0683 C   0  0  1  0  0  0  0  0  0  0  0  0
    0.8036    1.3653    0.5701 C   0  0  0  0  0  0  0  0  0  0  0  0
    2.3377   -0.5955    0.2529 C   0  0  0  0  0  0  0  0  0  0  0  0
   -0.5526    1.9746    0.3109 C   0  0  0  0  0  0  0  0  0  0  0  0
   -0.7569    2.7696   -0.8170 C   0  0  0  0  0  0  0  0  0  0  0  0
   -1.6024    1.7421    1.1996 C   0  0  0  0  0  0  0  0  0  0  0  0
    4.6220   -0.8131   -0.7234 C   0  0  0  0  0  0  0  0  0  0  0  0
   -2.0105    3.3323   -1.0560 C   0  0  0  0  0  0  0  0  0  0  0  0
   -2.8560    2.3047    0.9606 C   0  0  0  0  0  0  0  0  0  0  0  0
   -3.0602    3.0999   -0.1672 C   0  0  0  0  0  0  0  0  0  0  0  0
    5.5033    0.2076   -0.0412 C   0  0  0  0  0  0  0  0  0  0  0  0
   -1.2855   -2.9380    1.2369 H   0  0  0  0  0  0  0  0  0  0  0  0
   -1.8634   -3.7845   -1.5164 H   0  0  0  0  0  0  0  0  0  0  0  0
   -2.0316   -4.6711   -0.0011 H   0  0  0  0  0  0  0  0  0  0  0  0
   -4.0910   -3.0316   -1.4502 H   0  0  0  0  0  0  0  0  0  0  0  0
   -4.3088   -4.5434   -0.5466 H   0  0  0  0  0  0  0  0  0  0  0  0
   -4.0885   -3.3796    1.5927 H   0  0  0  0  0  0  0  0  0  0  0  0
   -5.0682   -2.2548    0.6280 H   0  0  0  0  0  0  0  0  0  0  0  0
   -3.1793   -1.0892    0.0179 H   0  0  0  0  0  0  0  0  0  0  0  0
    0.8533    0.0681   -1.1562 H   0  0  0  0  0  0  0  0  0  0  0  0
   -0.0297   -1.1514    1.4139 H   0  0  0  0  0  0  0  0  0  0  0  0
    0.9682    1.3050    1.6549 H   0  0  0  0  0  0  0  0  0  0  0  0
    1.5857    2.0415    0.2001 H   0  0  0  0  0  0  0  0  0  0  0  0
    2.9799    0.2330   -1.5473 H   0  0  0  0  0  0  0  0  0  0  0  0
    0.0528    2.9557   -1.5175 H   0  0  0  0  0  0  0  0  0  0  0  0
   -1.4569    1.1262    2.0832 H   0  0  0  0  0  0  0  0  0  0  0  0
    4.9543   -0.9553   -1.7558 H   0  0  0  0  0  0  0  0  0  0  0  0
    4.6727   -1.7634   -0.1829 H   0  0  0  0  0  0  0  0  0  0  0  0
   -2.1637    3.9500   -1.9367 H   0  0  0  0  0  0  0  0  0  0  0  0
   -3.6656    2.1155    1.6603 H   0  0  0  0  0  0  0  0  0  0  0  0
   -4.8890    3.3840    0.3129 H   0  0  0  0  0  0  0  0  0  0  0  0
    7.5260    0.3920    0.4518 H   0  0  0  0  0  0  0  0  0  0  0  0
    7.1270   -1.1002   -0.3230 H   0  0  0  0  0  0  0  0  0  0  0  0
  1 13  2  0  0  0  0
  2 16  2  0  0  0  0
  3 23  1  0  0  0  0
  3 44  1  0  0  0  0
  4 24  2  0  0  0  0
  5  9  1  0  0  0  0
  5 12  1  0  0  0  0
  5 32  1  0  0  0  0
  6 13  1  0  0  0  0
  6 14  1  0  0  0  0
  6 34  1  0  0  0  0
  7 16  1  0  0  0  0
  7 20  1  0  0  0  0
  7 37  1  0  0  0  0
  8 24  1  0  0  0  0
  8 45  1  0  0  0  0
  8 46  1  0  0  0  0
  9 10  1  0  0  0  0
  9 13  1  0  0  0  0
  9 25  1  0  0  0  0
 10 11  1  0  0  0  0
 10 26  1  0  0  0  0
 10 27  1  0  0  0  0
 11 12  1  0  0  0  0
 11 28  1  0  0  0  0
 11 29  1  0  0  0  0
 12 30  1  0  0  0  0
 12 31  1  0  0  0  0
 14 15  1  0  0  0  0
 14 16  1  0  0  0  0
 14 33  1  0  0  0  0
 15 17  1  0  0  0  0
 15 35  1  0  0  0  0
 15 36  1  0  0  0  0
 17 18  2  0  0  0  0
 17 19  1  0  0  0  0
 18 21  1  0  0  0  0
 18 38  1  0  0  0  0
 19 22  2  0  0  0  0
 19 39  1  0  0  0  0
 20 24  1  0  0  0  0
 20 40  1  0  0  0  0
 20 41  1  0  0  0  0
 21 23  2  0  0  0  0
 21 42  1  0  0  0  0
 22 23  1  0  0  0  0
 22 43  1  0  0  0  0
M  END
> <PUBCHEM_COMPOUND_CID>
131477

> <PUBCHEM_CONFORMER_RMSD>
1

> <PUBCHEM_CONFORMER_DIVERSEORDER>
2
35
84
42
28
71
58
37
7
40
48
79
69
26
81
74
57
36
27
16
66
70
23
38
77
51
90
9
60
68
3
61
53
21
10
72
50
88
8
67
80
33
32
14
20
24
6
49
31
5
89
25
39
44
46
55
47
41
29
64
75
45
1
4
19
78
12
11
91
87
43
13
18
59
63
76
52
82
34
54
73
15
85
17
56
65
30
62
83
22
86

> <PUBCHEM_MMFF94_PARTIAL_CHARGES>
32
1 -0.57
12 0.27
13 0.57
14 0.36
15 0.14
16 0.57
17 -0.14
18 -0.15
19 -0.15
2 -0.57
20 0.36
21 -0.15
22 -0.15
23 0.08
24 0.57
3 -0.53
32 0.36
34 0.37
37 0.37
38 0.15
39 0.15
4 -0.57
42 0.15
43 0.15
44 0.45
45 0.37
46 0.37
5 -0.9
6 -0.73
7 -0.73
8 -0.8
9 0.33

> <PUBCHEM_EFFECTIVE_ROTOR_COUNT>
10

> <PUBCHEM_PHARMACOPHORE_FEATURES>
11
1 1 acceptor
1 2 acceptor
1 3 donor
1 4 acceptor
1 5 cation
1 5 donor
1 6 donor
1 7 donor
1 8 donor
5 5 9 10 11 12 rings
6 17 18 19 21 22 23 rings

> <PUBCHEM_HEAVY_ATOM_COUNT>
24

> <PUBCHEM_ATOM_DEF_STEREO_COUNT>
2

> <PUBCHEM_ATOM_UDEF_STEREO_COUNT>
0

> <PUBCHEM_BOND_DEF_STEREO_COUNT>
0

> <PUBCHEM_BOND_UDEF_STEREO_COUNT>
0

> <PUBCHEM_ISOTOPIC_ATOM_COUNT>
0

> <PUBCHEM_COMPONENT_COUNT>
1

> <PUBCHEM_CACTVS_TAUTO_COUNT>
16

> <PUBCHEM_CONFORMER_ID>
0002019500000002

> <PUBCHEM_MMFF94_ENERGY>
49.709

> <PUBCHEM_FEATURE_SELFOVERLAP>
55.823

> <PUBCHEM_SHAPE_FINGERPRINT>
10411042 1 18194402427489131163
10940486 97 17482837057613441950
11101153 10 18119535581901690388
12553582 1 18265604566799365802
12788726 201 18335131016387346931
13052359 8 18338516326884270539
138480 1 16465019711153912425
13899415 180 18052525857655720975
17138139 8 17767921482654368061
17357779 13 18200580518868803711
17539 30 18412539946544447767
1813 80 18121774191131662034
19427546 20 18409172129949817468
20600515 1 17842863241203985215
21041028 32 18193276518743739375
21202864 24 18340216201983742321
21236236 1 18413671301080718656
21641784 216 18189350128657021836
22182313 1 17631469911966824878
23227448 37 18409733941726817068
23419403 2 17489296550955309497
23557571 272 18201167615618843558
23598288 3 18341316822045877230
255183 451 17766284549884673615
283562 15 18335415815969327258
3759504 43 18267300937099314045
4058900 60 17836651825025110577
4409770 3 18410852157931573943
469060 322 17312821593434140444
5104073 3 18342448241639108922
5969126 39 18270391819320429686
59755656 520 18189614943560709046
633830 44 17484244050429300684
68521 5 18337955691976425946
7164475 11 18336836393877312492
9925002 15 18188789330070999365

> <PUBCHEM_SHAPE_MULTIPOLES>
450.51
10.23
5.33
1.08
19.81
0.69
-0.05
-2.29
0.04
-10.39
-0.96
-0.34
0.1
0.26

> <PUBCHEM_SHAPE_SELFOVERLAP>
935.041

> <PUBCHEM_SHAPE_VOLUME>
256.1

> <PUBCHEM_COORDINATE_TYPE>
2
5
10

$$$$
