131499
  -OEChem-03292013323D

 58 58  0     1  0  0  0  0  0999 V2000
    0.3393   -0.3822   -1.6213 O   0  0  0  0  0  0  0  0  0  0  0  0
   -1.2128    1.2455    1.6237 O   0  0  0  0  0  0  0  0  0  0  0  0
    5.4365   -1.6960   -0.5398 O   0  0  0  0  0  0  0  0  0  0  0  0
    6.4498    0.2078    1.0958 O   0  0  0  0  0  0  0  0  0  0  0  0
    0.9560    1.2459   -0.0900 N   0  0  0  0  0  0  0  0  0  0  0  0
   -2.5409    1.9225   -0.1551 N   0  0  0  0  0  0  0  0  0  0  0  0
    5.2656    0.4196    0.3776 N   0  0  0  0  0  0  0  0  0  0  0  0
    2.3314   -0.7635   -0.3270 C   0  0  2  0  0  0  0  0  0  0  0  0
    2.0996   -2.2846   -0.4311 C   0  0  0  0  0  0  0  0  0  0  0  0
    1.3629   -2.9168    0.7689 C   0  0  0  0  0  0  0  0  0  0  0  0
   -0.1393    2.1488   -0.3553 C   0  0  2  0  0  0  0  0  0  0  0  0
    0.2238    3.6304   -0.1204 C   0  0  0  0  0  0  0  0  0  0  0  0
    1.1043    0.0404   -0.7547 C   0  0  0  0  0  0  0  0  0  0  0  0
    3.5590   -0.3288   -1.1476 C   0  0  0  0  0  0  0  0  0  0  0  0
    1.2131   -4.4326    0.6322 C   0  0  0  0  0  0  0  0  0  0  0  0
   -0.0193   -2.2749    0.9203 C   0  0  0  0  0  0  0  0  0  0  0  0
   -1.3317    1.7059    0.4901 C   0  0  0  0  0  0  0  0  0  0  0  0
    0.5647    3.9420    1.3407 C   0  0  0  0  0  0  0  0  0  0  0  0
    1.3793    4.0642   -1.0276 C   0  0  0  0  0  0  0  0  0  0  0  0
    4.8547   -0.6202   -0.4168 C   0  0  0  0  0  0  0  0  0  0  0  0
   -3.8194    1.6241    0.4481 C   0  0  0  0  0  0  0  0  0  0  0  0
   -4.2653    0.2209    0.1546 C   0  0  0  0  0  0  0  0  0  0  0  0
   -5.0331   -0.0441   -0.9795 C   0  0  0  0  0  0  0  0  0  0  0  0
   -3.9116   -0.8181    1.0156 C   0  0  0  0  0  0  0  0  0  0  0  0
   -5.4472   -1.3478   -1.2525 C   0  0  0  0  0  0  0  0  0  0  0  0
   -4.3258   -2.1218    0.7425 C   0  0  0  0  0  0  0  0  0  0  0  0
   -5.0937   -2.3866   -0.3916 C   0  0  0  0  0  0  0  0  0  0  0  0
    2.5277   -0.5295    0.7286 H   0  0  0  0  0  0  0  0  0  0  0  0
    1.5675   -2.5300   -1.3593 H   0  0  0  0  0  0  0  0  0  0  0  0
    3.0679   -2.7942   -0.5064 H   0  0  0  0  0  0  0  0  0  0  0  0
    1.9389   -2.7181    1.6815 H   0  0  0  0  0  0  0  0  0  0  0  0
   -0.4085    2.0257   -1.4129 H   0  0  0  0  0  0  0  0  0  0  0  0
   -0.6521    4.2383   -0.3839 H   0  0  0  0  0  0  0  0  0  0  0  0
    3.5159    0.7451   -1.3698 H   0  0  0  0  0  0  0  0  0  0  0  0
    3.5834   -0.8382   -2.1186 H   0  0  0  0  0  0  0  0  0  0  0  0
    1.6081    1.4764    0.6532 H   0  0  0  0  0  0  0  0  0  0  0  0
    2.1941   -4.9098    0.5390 H   0  0  0  0  0  0  0  0  0  0  0  0
    0.7158   -4.8579    1.5103 H   0  0  0  0  0  0  0  0  0  0  0  0
    0.6239   -4.6940   -0.2533 H   0  0  0  0  0  0  0  0  0  0  0  0
   -0.5998   -2.7996    1.6883 H   0  0  0  0  0  0  0  0  0  0  0  0
    0.0515   -1.2370    1.2532 H   0  0  0  0  0  0  0  0  0  0  0  0
   -0.5952   -2.3211   -0.0095 H   0  0  0  0  0  0  0  0  0  0  0  0
    1.4342    3.3772    1.6906 H   0  0  0  0  0  0  0  0  0  0  0  0
    0.7975    5.0066    1.4573 H   0  0  0  0  0  0  0  0  0  0  0  0
   -0.2770    3.7249    2.0050 H   0  0  0  0  0  0  0  0  0  0  0  0
    2.3095    3.5426   -0.7786 H   0  0  0  0  0  0  0  0  0  0  0  0
    1.1456    3.8625   -2.0783 H   0  0  0  0  0  0  0  0  0  0  0  0
    1.5635    5.1394   -0.9290 H   0  0  0  0  0  0  0  0  0  0  0  0
   -2.5435    2.3066   -1.0954 H   0  0  0  0  0  0  0  0  0  0  0  0
   -3.7591    1.7868    1.5308 H   0  0  0  0  0  0  0  0  0  0  0  0
   -4.5444    2.3476    0.0583 H   0  0  0  0  0  0  0  0  0  0  0  0
    4.8649    1.3499    0.4112 H   0  0  0  0  0  0  0  0  0  0  0  0
   -5.3135    0.7564   -1.6591 H   0  0  0  0  0  0  0  0  0  0  0  0
   -3.3155   -0.6269    1.9036 H   0  0  0  0  0  0  0  0  0  0  0  0
    6.0841   -0.0836    1.9481 H   0  0  0  0  0  0  0  0  0  0  0  0
   -6.0445   -1.5542   -2.1359 H   0  0  0  0  0  0  0  0  0  0  0  0
   -4.0498   -2.9308    1.4126 H   0  0  0  0  0  0  0  0  0  0  0  0
   -5.4156   -3.4017   -0.6044 H   0  0  0  0  0  0  0  0  0  0  0  0
  1 13  2  0  0  0  0
  2 17  2  0  0  0  0
  3 20  2  0  0  0  0
  4  7  1  0  0  0  0
  4 55  1  0  0  0  0
  5 11  1  0  0  0  0
  5 13  1  0  0  0  0
  5 36  1  0  0  0  0
  6 17  1  0  0  0  0
  6 21  1  0  0  0  0
  6 49  1  0  0  0  0
  7 20  1  0  0  0  0
  7 52  1  0  0  0  0
  8  9  1  0  0  0  0
  8 13  1  0  0  0  0
  8 14  1  0  0  0  0
  8 28  1  0  0  0  0
  9 10  1  0  0  0  0
  9 29  1  0  0  0  0
  9 30  1  0  0  0  0
 10 15  1  0  0  0  0
 10 16  1  0  0  0  0
 10 31  1  0  0  0  0
 11 12  1  0  0  0  0
 11 17  1  0  0  0  0
 11 32  1  0  0  0  0
 12 18  1  0  0  0  0
 12 19  1  0  0  0  0
 12 33  1  0  0  0  0
 14 20  1  0  0  0  0
 14 34  1  0  0  0  0
 14 35  1  0  0  0  0
 15 37  1  0  0  0  0
 15 38  1  0  0  0  0
 15 39  1  0  0  0  0
 16 40  1  0  0  0  0
 16 41  1  0  0  0  0
 16 42  1  0  0  0  0
 18 43  1  0  0  0  0
 18 44  1  0  0  0  0
 18 45  1  0  0  0  0
 19 46  1  0  0  0  0
 19 47  1  0  0  0  0
 19 48  1  0  0  0  0
 21 22  1  0  0  0  0
 21 50  1  0  0  0  0
 21 51  1  0  0  0  0
 22 23  2  0  0  0  0
 22 24  1  0  0  0  0
 23 25  1  0  0  0  0
 23 53  1  0  0  0  0
 24 26  2  0  0  0  0
 24 54  1  0  0  0  0
 25 27  2  0  0  0  0
 25 56  1  0  0  0  0
 26 27  1  0  0  0  0
 26 57  1  0  0  0  0
 27 58  1  0  0  0  0
M  END
> <PUBCHEM_COMPOUND_CID>
131499

> <PUBCHEM_CONFORMER_RMSD>
1.4

> <PUBCHEM_CONFORMER_DIVERSEORDER>
1
57
13
9
41
15
40
44
6
53
61
23
43
8
25
12
4
36
49
35
31
58
29
27
21
52
59
7
54
33
5
46
30
28
17
20
42
18
38
62
60
34
39
56
32
16
45
47
10
51
11
37
14
24
19
3
55
22
48
50
2
26

> <PUBCHEM_MMFF94_PARTIAL_CHARGES>
29
1 -0.57
11 0.36
13 0.57
14 0.06
17 0.57
2 -0.57
20 0.57
21 0.44
22 -0.14
23 -0.15
24 -0.15
25 -0.15
26 -0.15
27 -0.15
3 -0.57
36 0.37
4 -0.44
49 0.37
5 -0.73
52 0.37
53 0.15
54 0.15
55 0.4
56 0.15
57 0.15
58 0.15
6 -0.73
7 -0.39
8 0.06

> <PUBCHEM_EFFECTIVE_ROTOR_COUNT>
13

> <PUBCHEM_PHARMACOPHORE_FEATURES>
10
1 1 acceptor
1 2 acceptor
1 3 acceptor
1 5 donor
1 6 donor
1 7 donor
3 10 15 16 hydrophobe
3 12 18 19 hydrophobe
4 8 9 10 14 hydrophobe
6 22 23 24 25 26 27 rings

> <PUBCHEM_HEAVY_ATOM_COUNT>
27

> <PUBCHEM_ATOM_DEF_STEREO_COUNT>
2

> <PUBCHEM_ATOM_UDEF_STEREO_COUNT>
0

> <PUBCHEM_BOND_DEF_STEREO_COUNT>
0

> <PUBCHEM_BOND_UDEF_STEREO_COUNT>
0

> <PUBCHEM_ISOTOPIC_ATOM_COUNT>
0

> <PUBCHEM_COMPONENT_COUNT>
1

> <PUBCHEM_CACTVS_TAUTO_COUNT>
12

> <PUBCHEM_CONFORMER_ID>
000201AB00000001

> <PUBCHEM_MMFF94_ENERGY>
54.2904

> <PUBCHEM_FEATURE_SELFOVERLAP>
50.771

> <PUBCHEM_SHAPE_FINGERPRINT>
10930396 42 18193529342948901568
1100329 8 18265614475588993678
12553582 1 18337114458655141225
12788726 201 17697032540343312481
13004483 165 17903075530388129817
13631057 29 18342458127799502127
14394314 77 18267027163690237105
14466204 15 18335701675917691010
14787075 74 18411142433085238548
14931854 50 18334292046756770839
15183329 4 8790887367669673444
17349148 13 17749687190008025982
20028762 73 18342739645715804382
20567600 70 18411416254308693871
23559900 14 18339350968485914617
392239 28 18341055133819514488
4280585 95 18334848433535549833
463206 1 18335149648408825931
469060 322 18336555898159017608

> <PUBCHEM_SHAPE_MULTIPOLES>
517.23
11.75
5.17
1.26
0.76
1.75
0.02
-6.36
-1.23
1.48
1.01
-0.19
0.15
-0.3

> <PUBCHEM_SHAPE_SELFOVERLAP>
1034.805

> <PUBCHEM_SHAPE_VOLUME>
304.3

> <PUBCHEM_COORDINATE_TYPE>
2
5
10

$$$$
