131450
  -OEChem-03292013323D

 55 58  0     1  0  0  0  0  0999 V2000
    4.0543   -0.7003    1.2190 O   0  0  0  0  0  0  0  0  0  0  0  0
    2.6056   -1.7942   -1.8835 O   0  0  0  0  0  0  0  0  0  0  0  0
    3.9792   -3.4076   -0.1820 O   0  0  0  0  0  0  0  0  0  0  0  0
   -2.2136   -0.1049   -0.6822 O   0  0  0  0  0  0  0  0  0  0  0  0
    6.7328    0.0055    1.6553 O   0  0  0  0  0  0  0  0  0  0  0  0
    2.3684    0.6112    0.1857 N   0  0  0  0  0  0  0  0  0  0  0  0
    2.2040    2.8342    0.2226 N   0  0  0  0  0  0  0  0  0  0  0  0
    0.0520    0.0293   -0.2570 N   0  0  0  0  0  0  0  0  0  0  0  0
   -1.3410    2.0236   -0.4534 N   0  0  0  0  0  0  0  0  0  0  0  0
   -0.4571    4.2357   -0.2242 N   0  0  0  0  0  0  0  0  0  0  0  0
   -4.9592   -0.8980   -0.2446 C   0  0  0  0  0  0  0  0  0  0  0  0
   -6.0010   -2.0186   -0.3631 C   0  0  0  0  0  0  0  0  0  0  0  0
   -5.5750    0.3555    0.3915 C   0  0  0  0  0  0  0  0  0  0  0  0
    3.5768   -1.2006   -1.0459 C   0  0  1  0  0  0  0  0  0  0  0  0
    2.9756   -0.7154    0.2643 C   0  0  1  0  0  0  0  0  0  0  0  0
    4.6180   -2.1861   -0.5534 C   0  0  1  0  0  0  0  0  0  0  0  0
    5.1426   -1.5028    0.7055 C   0  0  1  0  0  0  0  0  0  0  0  0
   -6.6526   -2.3273    0.9830 C   0  0  0  0  0  0  0  0  0  0  0  0
   -6.2272    0.0429    1.7364 C   0  0  0  0  0  0  0  0  0  0  0  0
   -7.2558   -1.0774    1.6162 C   0  0  0  0  0  0  0  0  0  0  0  0
   -4.3610   -0.5709   -1.6115 C   0  0  0  0  0  0  0  0  0  0  0  0
    6.3277   -0.5869    0.4337 C   0  0  0  0  0  0  0  0  0  0  0  0
   -3.2383    0.4439   -1.4991 C   0  0  0  0  0  0  0  0  0  0  0  0
    1.0533    0.8971   -0.0473 C   0  0  0  0  0  0  0  0  0  0  0  0
    3.0187    1.8067    0.3419 C   0  0  0  0  0  0  0  0  0  0  0  0
    0.9724    2.2802   -0.0210 C   0  0  0  0  0  0  0  0  0  0  0  0
   -1.1167    0.6844   -0.4520 C   0  0  0  0  0  0  0  0  0  0  0  0
   -0.2828    2.8410   -0.2350 C   0  0  0  0  0  0  0  0  0  0  0  0
   -4.1636   -1.2633    0.4189 H   0  0  0  0  0  0  0  0  0  0  0  0
   -6.7786   -1.7309   -1.0822 H   0  0  0  0  0  0  0  0  0  0  0  0
   -5.5297   -2.9290   -0.7523 H   0  0  0  0  0  0  0  0  0  0  0  0
   -4.8169    1.1236    0.5722 H   0  0  0  0  0  0  0  0  0  0  0  0
   -6.3236    0.7911   -0.2824 H   0  0  0  0  0  0  0  0  0  0  0  0
    4.0557   -0.3765   -1.5883 H   0  0  0  0  0  0  0  0  0  0  0  0
    2.2036   -1.3972    0.6417 H   0  0  0  0  0  0  0  0  0  0  0  0
    5.3820   -2.4209   -1.3000 H   0  0  0  0  0  0  0  0  0  0  0  0
    5.4000   -2.2208    1.4924 H   0  0  0  0  0  0  0  0  0  0  0  0
   -7.4325   -3.0855    0.8494 H   0  0  0  0  0  0  0  0  0  0  0  0
   -5.9039   -2.7553    1.6611 H   0  0  0  0  0  0  0  0  0  0  0  0
   -5.4541   -0.2476    2.4584 H   0  0  0  0  0  0  0  0  0  0  0  0
   -6.7095    0.9444    2.1307 H   0  0  0  0  0  0  0  0  0  0  0  0
   -7.6534   -1.3212    2.6078 H   0  0  0  0  0  0  0  0  0  0  0  0
   -8.1014   -0.7324    1.0085 H   0  0  0  0  0  0  0  0  0  0  0  0
   -3.9634   -1.4936   -2.0530 H   0  0  0  0  0  0  0  0  0  0  0  0
   -5.1336   -0.1914   -2.2908 H   0  0  0  0  0  0  0  0  0  0  0  0
    7.1735   -1.1477    0.0254 H   0  0  0  0  0  0  0  0  0  0  0  0
    6.0734    0.2212   -0.2593 H   0  0  0  0  0  0  0  0  0  0  0  0
   -3.6047    1.4003   -1.1137 H   0  0  0  0  0  0  0  0  0  0  0  0
   -2.8299    0.6273   -2.5012 H   0  0  0  0  0  0  0  0  0  0  0  0
    3.0739   -2.1835   -2.6414 H   0  0  0  0  0  0  0  0  0  0  0  0
    4.6663   -3.9980    0.1718 H   0  0  0  0  0  0  0  0  0  0  0  0
    4.0806    1.8736    0.5353 H   0  0  0  0  0  0  0  0  0  0  0  0
    5.9721    0.4977    2.0090 H   0  0  0  0  0  0  0  0  0  0  0  0
   -1.3791    4.6190   -0.3821 H   0  0  0  0  0  0  0  0  0  0  0  0
    0.3309    4.8479   -0.0613 H   0  0  0  0  0  0  0  0  0  0  0  0
  1 15  1  0  0  0  0
  1 17  1  0  0  0  0
  2 14  1  0  0  0  0
  2 50  1  0  0  0  0
  3 16  1  0  0  0  0
  3 51  1  0  0  0  0
  4 23  1  0  0  0  0
  4 27  1  0  0  0  0
  5 22  1  0  0  0  0
  5 53  1  0  0  0  0
  6 15  1  0  0  0  0
  6 24  1  0  0  0  0
  6 25  1  0  0  0  0
  7 25  2  0  0  0  0
  7 26  1  0  0  0  0
  8 24  2  0  0  0  0
  8 27  1  0  0  0  0
  9 27  2  0  0  0  0
  9 28  1  0  0  0  0
 10 28  1  0  0  0  0
 10 54  1  0  0  0  0
 10 55  1  0  0  0  0
 11 12  1  0  0  0  0
 11 13  1  0  0  0  0
 11 21  1  0  0  0  0
 11 29  1  0  0  0  0
 12 18  1  0  0  0  0
 12 30  1  0  0  0  0
 12 31  1  0  0  0  0
 13 19  1  0  0  0  0
 13 32  1  0  0  0  0
 13 33  1  0  0  0  0
 14 15  1  0  0  0  0
 14 16  1  0  0  0  0
 14 34  1  0  0  0  0
 15 35  1  0  0  0  0
 16 17  1  0  0  0  0
 16 36  1  0  0  0  0
 17 22  1  0  0  0  0
 17 37  1  0  0  0  0
 18 20  1  0  0  0  0
 18 38  1  0  0  0  0
 18 39  1  0  0  0  0
 19 20  1  0  0  0  0
 19 40  1  0  0  0  0
 19 41  1  0  0  0  0
 20 42  1  0  0  0  0
 20 43  1  0  0  0  0
 21 23  1  0  0  0  0
 21 44  1  0  0  0  0
 21 45  1  0  0  0  0
 22 46  1  0  0  0  0
 22 47  1  0  0  0  0
 23 48  1  0  0  0  0
 23 49  1  0  0  0  0
 24 26  1  0  0  0  0
 25 52  1  0  0  0  0
 26 28  2  0  0  0  0
M  END
> <PUBCHEM_COMPOUND_CID>
131450

> <PUBCHEM_CONFORMER_RMSD>
1

> <PUBCHEM_CONFORMER_DIVERSEORDER>
7
88
82
160
56
71
72
179
122
13
99
116
94
21
36
194
123
34
96
19
52
148
132
85
103
38
104
151
55
73
42
97
23
31
35
70
15
109
182
197
164
11
43
129
80
105
67
44
58
91
78
131
3
101
54
9
119
26
113
156
69
87
184
134
120
114
50
77
16
59
108
33
102
185
173
177
17
76
81
2
45
167
93
152
84
130
86
75
48
24
83
199
106
146
27
37
18
32
92
66
29
100
170
189
193
125
195
135
25
60
12
49
190
6
111
180
64
191
188
175
172
139
138
14
136
61
40
30
53
150
149
112
118
46
115
153
63
178
79
62
22
166
155
1
98
158
20
186
8
74
140
68
161
183
41
5
171
4
163
192
121
89
39
196
65
181
107
128
147
141
10
162
57
168
174
51
157
95
144
143
142
133
137
198
165
124
176
127
47
110
145
126
187
28
90
117
154
159
169

> <PUBCHEM_MMFF94_PARTIAL_CHARGES>
27
1 -0.56
10 -0.9
14 0.28
15 0.54
16 0.28
17 0.28
2 -0.68
22 0.28
23 0.28
24 0.11
25 0.04
26 0.23
27 0.7
28 0.41
3 -0.68
4 -0.36
5 -0.68
50 0.4
51 0.4
52 0.15
53 0.4
54 0.4
55 0.4
6 0.05
7 -0.57
8 -0.57
9 -0.62

> <PUBCHEM_EFFECTIVE_ROTOR_COUNT>
8.2

> <PUBCHEM_PHARMACOPHORE_FEATURES>
16
1 1 acceptor
1 10 cation
1 10 donor
1 2 acceptor
1 2 donor
1 3 acceptor
1 3 donor
1 5 acceptor
1 5 donor
3 6 7 25 cation
3 6 8 24 cation
3 8 9 27 cation
5 1 14 15 16 17 rings
5 6 7 24 25 26 rings
6 11 12 13 18 19 20 rings
6 8 9 24 26 27 28 rings

> <PUBCHEM_HEAVY_ATOM_COUNT>
28

> <PUBCHEM_ATOM_DEF_STEREO_COUNT>
4

> <PUBCHEM_ATOM_UDEF_STEREO_COUNT>
0

> <PUBCHEM_BOND_DEF_STEREO_COUNT>
0

> <PUBCHEM_BOND_UDEF_STEREO_COUNT>
0

> <PUBCHEM_ISOTOPIC_ATOM_COUNT>
0

> <PUBCHEM_COMPONENT_COUNT>
1

> <PUBCHEM_CACTVS_TAUTO_COUNT>
3

> <PUBCHEM_CONFORMER_ID>
0002017A00000007

> <PUBCHEM_MMFF94_ENERGY>
60.1583

> <PUBCHEM_FEATURE_SELFOVERLAP>
81.818

> <PUBCHEM_SHAPE_FINGERPRINT>
10258939 38 18260818290194999816
11135609 12 18409445873431981297
11135926 11 18195235844386513516
11456790 92 18059871575989700105
11991303 11 17534906274057942805
12107183 9 18270691883532814961
12166972 35 17385726885278043390
12422481 6 17489029258472105133
12778500 126 14476968865786697054
13673619 4 17822012030212744541
13685833 64 18335138700083371227
13782708 43 17603859001133346763
13911852 28 18410853244542436639
13955234 65 18269832189203025080
14251757 5 13912904080679065601
14251764 30 18186806885532042895
14528608 73 10665224869772996759
15081414 286 18337668732332318365
15250474 111 17845082056033049335
15352257 5 18113904887896849635
15475509 84 17775292629655034065
16110190 28 18202279238295103127
17492 89 18122620553630744758
1813 80 18341905064744856053
1979834 28 17489597735695508847
21049683 271 18261958548357127412
21267235 1 18411981343762425148
21403212 168 9655299190607872900
21521239 73 13767923507910672528
21623969 137 18410573998068514735
22149856 69 18272656714758244096
2260408 40 17489880322925973086
22950370 63 18409454678526005213
2303208 19 17822291310429635151
23522609 53 18045252451300540117
25222932 49 18260818307148106378
2747138 104 18411976954232106456
2748736 6 10303807666529127179
2838139 119 9223227451318608775
3089732 80 18186804695041349443
3421961 26 18412823620349390893
34797466 226 16153995763310833493
3737641 26 18267868272531310239
3862424 121 15865502630077694739
439807 62 17676203568170458179
44317340 157 8934735396496040687
4461854 278 18060701719278886110
465052 167 18411702092919657414
5104073 3 17985536768115112314
59682541 35 18340194277040626200
7918774 8 18334019371903882727
7970288 3 18408885114249653555
8863177 126 18042128811890754963

> <PUBCHEM_SHAPE_MULTIPOLES>
521.98
18.37
3.47
1.39
15.17
2.16
0
-15.04
-8.05
-1.87
0.27
1
-0.47
1.04

> <PUBCHEM_SHAPE_SELFOVERLAP>
1111.556

> <PUBCHEM_SHAPE_VOLUME>
285.5

> <PUBCHEM_COORDINATE_TYPE>
2
5
10

$$$$
