131408
  -OEChem-03292013323D

 42 45  0     0  0  0  0  0  0999 V2000
    0.2357   -2.7784   -0.5363 S   0  0  0  0  0  0  0  0  0  0  0  0
   -0.0601   -1.7122    0.6816 O   0  0  0  0  0  0  0  0  0  0  0  0
    0.6453   -4.1540    0.2413 O   0  0  0  0  0  0  0  0  0  0  0  0
    2.5480    2.5531   -0.3230 O   0  0  0  0  0  0  0  0  0  0  0  0
   -0.9994   -3.0244   -1.2576 O   0  0  0  0  0  0  0  0  0  0  0  0
    1.4122   -2.3183   -1.2509 O   0  0  0  0  0  0  0  0  0  0  0  0
    1.7081    0.4173    0.1850 N   0  0  0  0  0  0  0  0  0  0  0  0
   -1.8986   -0.2466    0.3047 C   0  0  0  0  0  0  0  0  0  0  0  0
   -3.0244   -1.2339    0.5314 C   0  0  0  0  0  0  0  0  0  0  0  0
   -2.4160    1.0297   -0.0110 C   0  0  0  0  0  0  0  0  0  0  0  0
   -4.2453   -0.3666    0.3067 C   0  0  0  0  0  0  0  0  0  0  0  0
   -3.8612    0.9559   -0.0098 C   0  0  0  0  0  0  0  0  0  0  0  0
   -0.5359   -0.4769    0.3761 C   0  0  0  0  0  0  0  0  0  0  0  0
   -1.5637    2.0926   -0.2592 C   0  0  0  0  0  0  0  0  0  0  0  0
    0.3230    0.5947    0.1258 C   0  0  0  0  0  0  0  0  0  0  0  0
   -5.5773   -0.7345    0.3806 C   0  0  0  0  0  0  0  0  0  0  0  0
   -4.8179    1.9265   -0.2560 C   0  0  0  0  0  0  0  0  0  0  0  0
   -0.1857    1.8666   -0.1886 C   0  0  0  0  0  0  0  0  0  0  0  0
   -6.5415    0.2442    0.1323 C   0  0  0  0  0  0  0  0  0  0  0  0
   -6.1657    1.5613   -0.1828 C   0  0  0  0  0  0  0  0  0  0  0  0
    2.7078    1.3720   -0.0347 C   0  0  0  0  0  0  0  0  0  0  0  0
    4.1021    0.8683    0.0739 C   0  0  0  0  0  0  0  0  0  0  0  0
    5.0970    1.5069   -0.6362 C   0  0  0  0  0  0  0  0  0  0  0  0
    4.3552   -0.2204    0.8816 C   0  0  0  0  0  0  0  0  0  0  0  0
    6.4055    1.0346   -0.5342 C   0  0  0  0  0  0  0  0  0  0  0  0
    5.6637   -0.6926    0.9835 C   0  0  0  0  0  0  0  0  0  0  0  0
    6.6889   -0.0650    0.2758 C   0  0  0  0  0  0  0  0  0  0  0  0
   -3.0054   -1.6157    1.5562 H   0  0  0  0  0  0  0  0  0  0  0  0
   -3.0120   -2.0429   -0.2003 H   0  0  0  0  0  0  0  0  0  0  0  0
   -1.9430    3.0795   -0.5031 H   0  0  0  0  0  0  0  0  0  0  0  0
   -5.8689   -1.7502    0.6236 H   0  0  0  0  0  0  0  0  0  0  0  0
   -4.5434    2.9473   -0.5003 H   0  0  0  0  0  0  0  0  0  0  0  0
    0.4239    2.7351   -0.3926 H   0  0  0  0  0  0  0  0  0  0  0  0
   -7.5961   -0.0138    0.1828 H   0  0  0  0  0  0  0  0  0  0  0  0
   -6.9348    2.3057   -0.3721 H   0  0  0  0  0  0  0  0  0  0  0  0
    1.9851   -0.5420    0.3703 H   0  0  0  0  0  0  0  0  0  0  0  0
    4.8937    2.3604   -1.2759 H   0  0  0  0  0  0  0  0  0  0  0  0
    3.5988   -0.7134    1.4829 H   0  0  0  0  0  0  0  0  0  0  0  0
    7.2038    1.5224   -1.0860 H   0  0  0  0  0  0  0  0  0  0  0  0
    5.8869   -1.5429    1.6216 H   0  0  0  0  0  0  0  0  0  0  0  0
    1.2993   -4.0460    0.9711 H   0  0  0  0  0  0  0  0  0  0  0  0
    7.7081   -0.4315    0.3568 H   0  0  0  0  0  0  0  0  0  0  0  0
  1  2  1  0  0  0  0
  1  3  1  0  0  0  0
  1  5  2  0  0  0  0
  1  6  2  0  0  0  0
  2 13  1  0  0  0  0
  3 41  1  0  0  0  0
  4 21  2  0  0  0  0
  7 15  1  0  0  0  0
  7 21  1  0  0  0  0
  7 36  1  0  0  0  0
  8  9  1  0  0  0  0
  8 10  2  0  0  0  0
  8 13  1  0  0  0  0
  9 11  1  0  0  0  0
  9 28  1  0  0  0  0
  9 29  1  0  0  0  0
 10 12  1  0  0  0  0
 10 14  1  0  0  0  0
 11 12  1  0  0  0  0
 11 16  2  0  0  0  0
 12 17  2  0  0  0  0
 13 15  2  0  0  0  0
 14 18  2  0  0  0  0
 14 30  1  0  0  0  0
 15 18  1  0  0  0  0
 16 19  1  0  0  0  0
 16 31  1  0  0  0  0
 17 20  1  0  0  0  0
 17 32  1  0  0  0  0
 18 33  1  0  0  0  0
 19 20  2  0  0  0  0
 19 34  1  0  0  0  0
 20 35  1  0  0  0  0
 21 22  1  0  0  0  0
 22 23  2  0  0  0  0
 22 24  1  0  0  0  0
 23 25  1  0  0  0  0
 23 37  1  0  0  0  0
 24 26  2  0  0  0  0
 24 38  1  0  0  0  0
 25 27  2  0  0  0  0
 25 39  1  0  0  0  0
 26 27  1  0  0  0  0
 26 40  1  0  0  0  0
 27 42  1  0  0  0  0
M  END
> <PUBCHEM_COMPOUND_CID>
131408

> <PUBCHEM_CONFORMER_RMSD>
0.8

> <PUBCHEM_CONFORMER_DIVERSEORDER>
1
3
4
2
5
6

> <PUBCHEM_MMFF94_PARTIAL_CHARGES>
38
1 1.67
11 -0.14
13 0.08
14 -0.15
15 0.12
16 -0.15
17 -0.15
18 -0.15
19 -0.15
2 -0.27
20 -0.15
21 0.54
22 0.09
23 -0.15
24 -0.15
25 -0.15
26 -0.15
27 -0.15
3 -0.68
30 0.15
31 0.15
32 0.15
33 0.15
34 0.15
35 0.15
36 0.37
37 0.15
38 0.15
39 0.15
4 -0.57
40 0.15
41 0.5
42 0.15
5 -0.65
6 -0.65
7 -0.55
8 -0.14
9 0.29

> <PUBCHEM_EFFECTIVE_ROTOR_COUNT>
5.2

> <PUBCHEM_PHARMACOPHORE_FEATURES>
10
1 3 acceptor
1 4 acceptor
1 5 acceptor
1 6 acceptor
1 7 donor
4 1 3 5 6 anion
5 8 9 10 11 12 rings
6 11 12 16 17 19 20 rings
6 22 23 24 25 26 27 rings
6 8 10 13 14 15 18 rings

> <PUBCHEM_HEAVY_ATOM_COUNT>
27

> <PUBCHEM_ATOM_DEF_STEREO_COUNT>
0

> <PUBCHEM_ATOM_UDEF_STEREO_COUNT>
0

> <PUBCHEM_BOND_DEF_STEREO_COUNT>
0

> <PUBCHEM_BOND_UDEF_STEREO_COUNT>
0

> <PUBCHEM_ISOTOPIC_ATOM_COUNT>
0

> <PUBCHEM_COMPONENT_COUNT>
1

> <PUBCHEM_CACTVS_TAUTO_COUNT>
2

> <PUBCHEM_CONFORMER_ID>
0002015000000001

> <PUBCHEM_MMFF94_ENERGY>
90.8004

> <PUBCHEM_FEATURE_SELFOVERLAP>
50.97

> <PUBCHEM_SHAPE_FINGERPRINT>
10050765 1 18049722915449939041
10906281 52 18261972764328929729
11488393 25 17985560960933420886
11524674 6 17775002405518094183
11578080 2 16372674151983048743
11719270 70 18411976931971500339
12236239 1 17822010917310182760
12592029 89 18410576158663723458
12977781 61 17678482821014817195
13402501 40 18410294696397646124
13533116 47 14692303802897371492
14117953 113 18411139108522284036
14790565 3 18410577296650961817
14866123 147 18268707380022995447
15042514 8 18265616674406670379
15131766 46 15431745322963098254
15183329 4 18333731308014998928
15849732 13 18186240645470331348
16728300 4 17607783047070716450
17980427 23 17894638067119210205
18681886 176 18410288155173523913
19611394 137 17823995626688607539
20028762 73 18201434830661170815
21033648 29 18272077357666268640
21267235 1 18260553355195004345
21781051 124 18189076298395244570
22956985 138 17901946340589820074
23402539 116 18342734147861889397
23522609 53 18117306741939249357
23559900 14 17978224959703080027
23569917 315 18342464746128782687
3004659 81 18113900455833419840
3178227 256 18411147956513512345
3298306 158 18341613694258382182
335352 9 18408322211165988517
338550 245 18408325510270454238
3411729 13 18336827472792719771
350125 39 18408321081700625552
38695281 34 18272369754823927335
4017518 198 17989495121924474102
4073 2 17386294310951592008
4093350 32 16844739620897875255
4340502 62 18131633369884342998
474229 33 18410575084673647913
5104073 3 18191315884218050913
5265222 85 18266749154720264900
5385378 56 18269563749536031627
59755656 215 18341334405282673806
6138700 20 18408605833937219528
6669772 16 17988931037408590062

> <PUBCHEM_SHAPE_MULTIPOLES>
525.17
15.72
3.11
0.86
5.41
2.93
0.06
-6.02
-1.22
0.01
0.79
0.42
0.32
-0.21

> <PUBCHEM_SHAPE_SELFOVERLAP>
1159.956

> <PUBCHEM_SHAPE_VOLUME>
282.7

> <PUBCHEM_COORDINATE_TYPE>
2
5
10

$$$$
