131483
  -OEChem-03292013323D

 31 32  0     0  0  0  0  0  0999 V2000
   -0.9980   -1.3402    0.0563 S   0  0  0  0  0  0  0  0  0  0  0  0
   -1.1201   -2.4228   -0.9129 O   0  0  0  0  0  0  0  0  0  0  0  0
   -0.6439   -1.6662    1.4323 O   0  0  0  0  0  0  0  0  0  0  0  0
    5.9384    0.1703    0.4234 O   0  5  0  0  0  0  0  0  0  0  0  0
    4.8752    2.0133   -0.1340 O   0  0  0  0  0  0  0  0  0  0  0  0
    2.4720    0.6209   -0.2978 N   0  0  0  0  0  0  0  0  0  0  0  0
    0.1186   -0.1864   -0.5685 N   0  0  0  0  0  0  0  0  0  0  0  0
    2.0572   -1.5331    0.0488 N   0  0  0  0  0  0  0  0  0  0  0  0
    4.8719    0.7726    0.1100 N   0  3  0  0  0  0  0  0  0  0  0  0
   -6.1290    1.6642    0.0732 N   0  0  0  0  0  0  0  0  0  0  0  0
    1.5151   -0.3696   -0.2777 C   0  0  0  0  0  0  0  0  0  0  0  0
   -2.5046   -0.4578    0.0609 C   0  0  0  0  0  0  0  0  0  0  0  0
    3.6723    0.0570    0.0312 C   0  0  0  0  0  0  0  0  0  0  0  0
   -3.3358   -0.4907   -1.0588 C   0  0  0  0  0  0  0  0  0  0  0  0
   -2.8770    0.2799    1.1845 C   0  0  0  0  0  0  0  0  0  0  0  0
    2.2291    2.0103   -0.6147 C   0  0  0  0  0  0  0  0  0  0  0  0
    3.3908   -1.2726    0.2410 C   0  0  0  0  0  0  0  0  0  0  0  0
   -4.5396    0.2143   -1.0548 C   0  0  0  0  0  0  0  0  0  0  0  0
   -4.0807    0.9847    1.1886 C   0  0  0  0  0  0  0  0  0  0  0  0
   -4.9119    0.9520    0.0689 C   0  0  0  0  0  0  0  0  0  0  0  0
   -0.2137    0.7689   -0.7367 H   0  0  0  0  0  0  0  0  0  0  0  0
   -3.0630   -1.0524   -1.9477 H   0  0  0  0  0  0  0  0  0  0  0  0
   -2.2412    0.3242    2.0643 H   0  0  0  0  0  0  0  0  0  0  0  0
    1.1781    2.1799   -0.8494 H   0  0  0  0  0  0  0  0  0  0  0  0
    2.4862    2.6213    0.2543 H   0  0  0  0  0  0  0  0  0  0  0  0
    2.8182    2.2809   -1.4948 H   0  0  0  0  0  0  0  0  0  0  0  0
    4.0756   -2.0605    0.5207 H   0  0  0  0  0  0  0  0  0  0  0  0
   -5.1780    0.1822   -1.9340 H   0  0  0  0  0  0  0  0  0  0  0  0
   -4.3592    1.5570    2.0697 H   0  0  0  0  0  0  0  0  0  0  0  0
   -6.7316    1.6417   -0.7386 H   0  0  0  0  0  0  0  0  0  0  0  0
   -6.3992    2.2000    0.8873 H   0  0  0  0  0  0  0  0  0  0  0  0
  1  2  2  0  0  0  0
  1  3  2  0  0  0  0
  1  7  1  0  0  0  0
  1 12  1  0  0  0  0
  4  9  1  0  0  0  0
  5  9  2  0  0  0  0
  6 11  1  0  0  0  0
  6 13  1  0  0  0  0
  6 16  1  0  0  0  0
  7 11  1  0  0  0  0
  7 21  1  0  0  0  0
  8 11  2  0  0  0  0
  8 17  1  0  0  0  0
  9 13  1  0  0  0  0
 10 20  1  0  0  0  0
 10 30  1  0  0  0  0
 10 31  1  0  0  0  0
 12 14  2  0  0  0  0
 12 15  1  0  0  0  0
 13 17  2  0  0  0  0
 14 18  1  0  0  0  0
 14 22  1  0  0  0  0
 15 19  2  0  0  0  0
 15 23  1  0  0  0  0
 16 24  1  0  0  0  0
 16 25  1  0  0  0  0
 16 26  1  0  0  0  0
 17 27  1  0  0  0  0
 18 20  2  0  0  0  0
 18 28  1  0  0  0  0
 19 20  1  0  0  0  0
 19 29  1  0  0  0  0
M  CHG  2   4  -1   9   1
M  END
> <PUBCHEM_COMPOUND_CID>
131483

> <PUBCHEM_CONFORMER_RMSD>
0.6

> <PUBCHEM_CONFORMER_DIVERSEORDER>
8
2
22
12
4
16
5
19
1
18
11
13
7
6
3
17
15
9
10
21
14
20

> <PUBCHEM_MMFF94_PARTIAL_CHARGES>
28
1 1.45
10 -0.9
11 0.33
12 -0.01
13 -0.07
14 -0.15
15 -0.15
16 0.26
17 0.08
18 -0.15
19 -0.15
2 -0.65
20 0.1
21 0.42
22 0.15
23 0.15
27 0.15
28 0.15
29 0.15
3 -0.65
30 0.4
31 0.4
4 -0.52
5 -0.52
6 0.05
7 -0.7
8 -0.57
9 0.96

> <PUBCHEM_EFFECTIVE_ROTOR_COUNT>
4

> <PUBCHEM_PHARMACOPHORE_FEATURES>
10
1 10 cation
1 10 donor
1 2 acceptor
1 3 acceptor
1 4 acceptor
1 4 anion
1 5 acceptor
1 7 donor
5 6 8 11 13 17 rings
6 12 14 15 18 19 20 rings

> <PUBCHEM_HEAVY_ATOM_COUNT>
20

> <PUBCHEM_ATOM_DEF_STEREO_COUNT>
0

> <PUBCHEM_ATOM_UDEF_STEREO_COUNT>
0

> <PUBCHEM_BOND_DEF_STEREO_COUNT>
0

> <PUBCHEM_BOND_UDEF_STEREO_COUNT>
0

> <PUBCHEM_ISOTOPIC_ATOM_COUNT>
0

> <PUBCHEM_COMPONENT_COUNT>
1

> <PUBCHEM_CACTVS_TAUTO_COUNT>
2

> <PUBCHEM_CONFORMER_ID>
0002019B00000008

> <PUBCHEM_MMFF94_ENERGY>
44.0646

> <PUBCHEM_FEATURE_SELFOVERLAP>
50.844

> <PUBCHEM_SHAPE_FINGERPRINT>
10014705 185 18337389438960909062
11046707 91 10737282459304986855
11089746 13 17989201569198467608
12236239 1 18201435849032116935
12507557 5 18334018306720221489
12596602 18 17676210186266785969
12633257 1 18040992977397183924
13103583 49 12252188429341141293
13288520 33 8142083170054087411
13583140 156 17894351107443031363
13675066 3 17312824865925133827
1420 369 8430319038846712456
14350574 20 10592040262999004554
14576447 43 9871754585500599540
15188451 53 15792309206020218817
15238133 3 17968106325969880564
15537594 2 8214139642583968161
17870717 6 14620792704808730637
18186145 218 18336270063341712071
193927 3 9583236188551906569
19489759 90 17132114649743210354
20112054 13 18040437681149324079
20157964 124 18339080393951182079
20300324 65 17418373601957665817
20871999 31 14908184131892060307
21033648 29 17604413168031953725
21033650 10 16700924646419425512
22950370 63 8142080974935539023
23402539 116 18060132150394881637
23402655 69 18272647952344562343
23559900 14 16917341546042673642
2838139 119 18342734122034238473
2916195 48 18333730230289080129
300161 21 18130783447369659088
34934 24 18408881858753516242
351380 180 18333450920039274441
3545911 37 18412547625787795147
4325135 7 18412544341140153199
465052 167 11097867267521928041
474 4 18411422782843769091
5104073 3 18114737265564561872
542803 24 18202282506701684093
5924683 9 16950855820441289579
6328613 192 18337116778212489220
633830 44 18341898429168258447
7970288 3 8718827578687959089
83771 10 8790881878659459519
9971528 1 18342742880073415862

> <PUBCHEM_SHAPE_MULTIPOLES>
367.06
12.77
1.93
1.03
1.76
0.08
-0.12
-7.08
-0.5
0.59
0.13
-0.98
0.11
-0.67

> <PUBCHEM_SHAPE_SELFOVERLAP>
768.85

> <PUBCHEM_SHAPE_VOLUME>
209.4

> <PUBCHEM_COORDINATE_TYPE>
2
5
10

$$$$
