131497
  -OEChem-03292013323D

 57 60  0     1  0  0  0  0  0999 V2000
   -0.5269    3.1895   -1.3512 O   0  0  0  0  0  0  0  0  0  0  0  0
   -3.4453    0.5666   -2.2491 O   0  0  0  0  0  0  0  0  0  0  0  0
    0.4303   -0.5919    1.8197 O   0  0  0  0  0  0  0  0  0  0  0  0
    2.9033   -4.3613    0.5273 O   0  0  0  0  0  0  0  0  0  0  0  0
    3.1145   -2.9816   -1.2748 O   0  0  0  0  0  0  0  0  0  0  0  0
   -3.3658    1.3807   -0.0911 N   0  0  0  0  0  0  0  0  0  0  0  0
   -0.6439    1.3539    0.0548 N   0  0  0  0  0  0  0  0  0  0  0  0
   -3.1549   -1.8101   -0.1824 N   0  0  0  0  0  0  0  0  0  0  0  0
    1.2191   -1.4079   -0.2060 N   0  0  0  0  0  0  0  0  0  0  0  0
   -1.8657   -3.1232    1.0569 N   0  0  0  0  0  0  0  0  0  0  0  0
   -2.6845    2.6238   -0.4457 C   0  0  1  0  0  0  0  0  0  0  0  0
   -2.9438    3.5506    0.7409 C   0  0  0  0  0  0  0  0  0  0  0  0
   -3.1008    2.5976    1.9212 C   0  0  0  0  0  0  0  0  0  0  0  0
   -3.7828    1.3836    1.3091 C   0  0  0  0  0  0  0  0  0  0  0  0
   -1.1836    2.4028   -0.6690 C   0  0  0  0  0  0  0  0  0  0  0  0
   -3.6685    0.4211   -1.0439 C   0  0  0  0  0  0  0  0  0  0  0  0
    0.7600    0.9680    0.0124 C   0  0  1  0  0  0  0  0  0  0  0  0
   -4.2248   -0.8939   -0.5358 C   0  0  0  0  0  0  0  0  0  0  0  0
    1.6375    1.9373    0.7925 C   0  0  0  0  0  0  0  0  0  0  0  0
    0.8009   -0.4083    0.6604 C   0  0  0  0  0  0  0  0  0  0  0  0
    1.1761   -2.8181    0.1546 C   0  0  1  0  0  0  0  0  0  0  0  0
    0.0171   -3.5520   -0.5273 C   0  0  0  0  0  0  0  0  0  0  0  0
   -1.3102   -2.9685   -0.1932 C   0  0  0  0  0  0  0  0  0  0  0  0
   -2.1223   -2.1904   -0.9915 C   0  0  0  0  0  0  0  0  0  0  0  0
    3.0817    1.8414    0.3779 C   0  0  0  0  0  0  0  0  0  0  0  0
   -2.9760   -2.4179    1.0272 C   0  0  0  0  0  0  0  0  0  0  0  0
    2.4912   -3.3675   -0.2971 C   0  0  0  0  0  0  0  0  0  0  0  0
    3.9225    0.9515    1.0317 C   0  0  0  0  0  0  0  0  0  0  0  0
    3.5516    2.6437   -0.6524 C   0  0  0  0  0  0  0  0  0  0  0  0
    5.2605    0.8624    0.6475 C   0  0  0  0  0  0  0  0  0  0  0  0
    4.8896    2.5544   -1.0366 C   0  0  0  0  0  0  0  0  0  0  0  0
    5.7440    1.6637   -0.3866 C   0  0  0  0  0  0  0  0  0  0  0  0
   -3.1046    3.0214   -1.3765 H   0  0  0  0  0  0  0  0  0  0  0  0
   -3.8858    4.0911    0.5870 H   0  0  0  0  0  0  0  0  0  0  0  0
   -2.1512    4.2865    0.9066 H   0  0  0  0  0  0  0  0  0  0  0  0
   -2.1151    2.3214    2.3132 H   0  0  0  0  0  0  0  0  0  0  0  0
   -3.6777    3.0311    2.7430 H   0  0  0  0  0  0  0  0  0  0  0  0
   -3.4979    0.4541    1.8076 H   0  0  0  0  0  0  0  0  0  0  0  0
   -4.8734    1.4824    1.3327 H   0  0  0  0  0  0  0  0  0  0  0  0
    1.0494    0.9264   -1.0440 H   0  0  0  0  0  0  0  0  0  0  0  0
   -1.2717    0.7944    0.6243 H   0  0  0  0  0  0  0  0  0  0  0  0
   -4.8833   -0.7595    0.3257 H   0  0  0  0  0  0  0  0  0  0  0  0
   -4.8092   -1.3710   -1.3304 H   0  0  0  0  0  0  0  0  0  0  0  0
    1.5531    1.7790    1.8761 H   0  0  0  0  0  0  0  0  0  0  0  0
    1.3046    2.9725    0.6392 H   0  0  0  0  0  0  0  0  0  0  0  0
    1.1017   -2.8966    1.2455 H   0  0  0  0  0  0  0  0  0  0  0  0
    0.0268   -4.6090   -0.2325 H   0  0  0  0  0  0  0  0  0  0  0  0
    0.1544   -3.5400   -1.6170 H   0  0  0  0  0  0  0  0  0  0  0  0
    1.5181   -1.1627   -1.1457 H   0  0  0  0  0  0  0  0  0  0  0  0
   -2.0230   -1.8507   -2.0132 H   0  0  0  0  0  0  0  0  0  0  0  0
   -3.6695   -2.3019    1.8488 H   0  0  0  0  0  0  0  0  0  0  0  0
    3.5576    0.3233    1.8392 H   0  0  0  0  0  0  0  0  0  0  0  0
    2.8939    3.3386   -1.1669 H   0  0  0  0  0  0  0  0  0  0  0  0
    5.9256    0.1688    1.1535 H   0  0  0  0  0  0  0  0  0  0  0  0
    5.2661    3.1777   -1.8424 H   0  0  0  0  0  0  0  0  0  0  0  0
    6.7857    1.5939   -0.6860 H   0  0  0  0  0  0  0  0  0  0  0  0
    3.7651   -4.7365    0.2466 H   0  0  0  0  0  0  0  0  0  0  0  0
  1 15  2  0  0  0  0
  2 16  2  0  0  0  0
  3 20  2  0  0  0  0
  4 27  1  0  0  0  0
  4 57  1  0  0  0  0
  5 27  2  0  0  0  0
  6 11  1  0  0  0  0
  6 14  1  0  0  0  0
  6 16  1  0  0  0  0
  7 15  1  0  0  0  0
  7 17  1  0  0  0  0
  7 41  1  0  0  0  0
  8 18  1  0  0  0  0
  8 24  1  0  0  0  0
  8 26  1  0  0  0  0
  9 20  1  0  0  0  0
  9 21  1  0  0  0  0
  9 49  1  0  0  0  0
 10 23  1  0  0  0  0
 10 26  2  0  0  0  0
 11 12  1  0  0  0  0
 11 15  1  0  0  0  0
 11 33  1  0  0  0  0
 12 13  1  0  0  0  0
 12 34  1  0  0  0  0
 12 35  1  0  0  0  0
 13 14  1  0  0  0  0
 13 36  1  0  0  0  0
 13 37  1  0  0  0  0
 14 38  1  0  0  0  0
 14 39  1  0  0  0  0
 16 18  1  0  0  0  0
 17 19  1  0  0  0  0
 17 20  1  0  0  0  0
 17 40  1  0  0  0  0
 18 42  1  0  0  0  0
 18 43  1  0  0  0  0
 19 25  1  0  0  0  0
 19 44  1  0  0  0  0
 19 45  1  0  0  0  0
 21 22  1  0  0  0  0
 21 27  1  0  0  0  0
 21 46  1  0  0  0  0
 22 23  1  0  0  0  0
 22 47  1  0  0  0  0
 22 48  1  0  0  0  0
 23 24  2  0  0  0  0
 24 50  1  0  0  0  0
 25 28  2  0  0  0  0
 25 29  1  0  0  0  0
 26 51  1  0  0  0  0
 28 30  1  0  0  0  0
 28 52  1  0  0  0  0
 29 31  2  0  0  0  0
 29 53  1  0  0  0  0
 30 32  2  0  0  0  0
 30 54  1  0  0  0  0
 31 32  1  0  0  0  0
 31 55  1  0  0  0  0
 32 56  1  0  0  0  0
M  END
> <PUBCHEM_COMPOUND_CID>
131497

> <PUBCHEM_CONFORMER_RMSD>
0.8

> <PUBCHEM_CONFORMER_DIVERSEORDER>
1
46
38
35
21
59
45
14
15
60
29
37
31
48
51
53
8
47
43
24
57
56
52
36
22
16
10
50
25
3
58
11
49
33
30
44
7
39
17
12
34
18
28
13
55
2
54
9
5
41
42
20
19
4
26
32
27
40
6
23

> <PUBCHEM_MMFF94_PARTIAL_CHARGES>
40
1 -0.57
10 -0.57
11 0.36
14 0.3
15 0.57
16 0.57
17 0.36
18 0.32
19 0.14
2 -0.57
20 0.57
21 0.36
22 0.18
23 0.05
24 -0.3
25 -0.14
26 0.04
27 0.66
28 -0.15
29 -0.15
3 -0.57
30 -0.15
31 -0.15
32 -0.15
4 -0.65
41 0.37
49 0.37
5 -0.57
50 0.15
51 0.15
52 0.15
53 0.15
54 0.15
55 0.15
56 0.15
57 0.5
6 -0.66
7 -0.73
8 0.05
9 -0.73

> <PUBCHEM_EFFECTIVE_ROTOR_COUNT>
4.8

> <PUBCHEM_PHARMACOPHORE_FEATURES>
12
1 1 acceptor
1 2 acceptor
1 3 acceptor
1 4 acceptor
1 5 acceptor
1 7 donor
1 9 donor
3 4 5 27 anion
3 8 10 26 cation
5 6 11 12 13 14 rings
5 8 10 23 24 26 rings
6 25 28 29 30 31 32 rings

> <PUBCHEM_HEAVY_ATOM_COUNT>
32

> <PUBCHEM_ATOM_DEF_STEREO_COUNT>
3

> <PUBCHEM_ATOM_UDEF_STEREO_COUNT>
0

> <PUBCHEM_BOND_DEF_STEREO_COUNT>
0

> <PUBCHEM_BOND_UDEF_STEREO_COUNT>
0

> <PUBCHEM_ISOTOPIC_ATOM_COUNT>
0

> <PUBCHEM_COMPONENT_COUNT>
1

> <PUBCHEM_CACTVS_TAUTO_COUNT>
4

> <PUBCHEM_CONFORMER_ID>
000201A900000001

> <PUBCHEM_MMFF94_ENERGY>
72.9723

> <PUBCHEM_FEATURE_SELFOVERLAP>
60.953

> <PUBCHEM_SHAPE_FINGERPRINT>
1100329 8 17979919302530856658
11513181 2 18060136509676476774
12156800 1 17612641990579391631
12553582 1 17475224700674519355
12788726 201 18051141577349193292
13140716 1 18051417567599640289
14251757 5 17759811738021715740
14713325 29 18264778820676131970
14790565 3 18338239383472941320
14840074 17 18113903792516879573
14955137 171 17689165921008827363
15297060 5 18341338906403710024
15439362 3 18122905335526531872
16112460 7 18054796087136656600
20764821 26 18339644438857643130
21796203 349 17403777378582294770
22121540 332 17331743002990109753
23558518 356 18339357440705886155
3027735 51 18270969054176795802
3298306 158 18342453802946991198
338550 245 18409167732140585678
3633792 109 18123458394450073157
460360 51 18336272258249335690
469060 322 18120394278511554123
508706 21 18341063981620734852
57527585 103 17532393017740335211
581034 39 18335713701852929156
59755656 215 18338795736135063151
6287921 2 18267309728981686925

> <PUBCHEM_SHAPE_MULTIPOLES>
604.29
9.56
5.83
1.42
9.06
4.01
-0.02
-5.21
0.66
-0.05
0.03
-0.81
-0.49
-0.65

> <PUBCHEM_SHAPE_SELFOVERLAP>
1297.556

> <PUBCHEM_SHAPE_VOLUME>
331.8

> <PUBCHEM_COORDINATE_TYPE>
2
5
10

$$$$
