131498
  -OEChem-03292013323D

 56 57  0     1  0  0  0  0  0999 V2000
   -3.5373   -0.2438   -0.1205 O   0  0  0  0  0  0  0  0  0  0  0  0
    0.6892   -0.4353    0.4764 O   0  0  0  0  0  0  0  0  0  0  0  0
   -2.3641   -1.6654   -1.5132 O   0  0  0  0  0  0  0  0  0  0  0  0
   -1.1621   -0.3143    1.8527 O   0  0  0  0  0  0  0  0  0  0  0  0
    1.0905    2.7530    1.3312 O   0  0  0  0  0  0  0  0  0  0  0  0
    0.2913    1.7481   -0.6038 N   0  0  0  0  0  0  0  0  0  0  0  0
    2.7746    4.2792   -0.0292 N   0  0  0  0  0  0  0  0  0  0  0  0
   -2.4001    2.9456    1.2424 N   0  0  0  0  0  0  0  0  0  0  0  0
   -1.7015    0.6368   -1.2721 C   0  0  1  0  0  0  0  0  0  0  0  0
   -0.9405    1.1705   -0.0377 C   0  0  1  0  0  0  0  0  0  0  0  0
   -0.5895    0.3274   -2.2728 C   0  0  0  0  0  0  0  0  0  0  0  0
    0.4098    1.4443   -2.0282 C   0  0  0  0  0  0  0  0  0  0  0  0
   -2.5505   -0.5688   -1.0036 C   0  0  0  0  0  0  0  0  0  0  0  0
   -0.5120    0.0621    0.8870 C   0  0  0  0  0  0  0  0  0  0  0  0
    1.2009    2.5031    0.1295 C   0  0  0  0  0  0  0  0  0  0  0  0
   -1.7564    2.1627    0.6777 C   0  0  0  0  0  0  0  0  0  0  0  0
    2.3922    3.0179   -0.6399 C   0  0  2  0  0  0  0  0  0  0  0  0
   -4.4276   -1.3093    0.2261 C   0  0  0  0  0  0  0  0  0  0  0  0
    3.5247    2.0135   -0.5723 C   0  0  0  0  0  0  0  0  0  0  0  0
   -5.1258   -1.7926   -1.0442 C   0  0  0  0  0  0  0  0  0  0  0  0
   -5.4452   -0.7536    1.2200 C   0  0  0  0  0  0  0  0  0  0  0  0
   -3.6139   -2.4352    0.8625 C   0  0  0  0  0  0  0  0  0  0  0  0
    1.2176   -1.5013    1.2716 C   0  0  0  0  0  0  0  0  0  0  0  0
    2.5331   -1.9365    0.6958 C   0  0  0  0  0  0  0  0  0  0  0  0
    2.5732   -2.9420   -0.2701 C   0  0  0  0  0  0  0  0  0  0  0  0
    3.7160   -1.3350    1.1259 C   0  0  0  0  0  0  0  0  0  0  0  0
    3.7960   -3.3465   -0.8057 C   0  0  0  0  0  0  0  0  0  0  0  0
    4.9388   -1.7395    0.5901 C   0  0  0  0  0  0  0  0  0  0  0  0
    4.9787   -2.7452   -0.3756 C   0  0  0  0  0  0  0  0  0  0  0  0
   -2.3444    1.4111   -1.7151 H   0  0  0  0  0  0  0  0  0  0  0  0
   -0.1203   -0.6441   -2.0746 H   0  0  0  0  0  0  0  0  0  0  0  0
   -0.9457    0.3135   -3.3078 H   0  0  0  0  0  0  0  0  0  0  0  0
    1.4224    1.1471   -2.3068 H   0  0  0  0  0  0  0  0  0  0  0  0
    0.1343    2.3471   -2.5845 H   0  0  0  0  0  0  0  0  0  0  0  0
    2.1375    3.2258   -1.6822 H   0  0  0  0  0  0  0  0  0  0  0  0
    4.3985    2.3686   -1.1296 H   0  0  0  0  0  0  0  0  0  0  0  0
    3.2351    1.0446   -0.9900 H   0  0  0  0  0  0  0  0  0  0  0  0
    3.8389    1.8341    0.4627 H   0  0  0  0  0  0  0  0  0  0  0  0
   -5.4777   -0.9457   -1.6447 H   0  0  0  0  0  0  0  0  0  0  0  0
   -4.5025   -2.4112   -1.6947 H   0  0  0  0  0  0  0  0  0  0  0  0
   -5.9961   -2.4102   -0.7920 H   0  0  0  0  0  0  0  0  0  0  0  0
   -6.0000    0.0832    0.7805 H   0  0  0  0  0  0  0  0  0  0  0  0
   -4.9423   -0.3576    2.1098 H   0  0  0  0  0  0  0  0  0  0  0  0
   -6.1630   -1.5165    1.5383 H   0  0  0  0  0  0  0  0  0  0  0  0
   -2.9669   -2.9877    0.1785 H   0  0  0  0  0  0  0  0  0  0  0  0
   -2.9804   -2.0562    1.6699 H   0  0  0  0  0  0  0  0  0  0  0  0
   -4.2865   -3.1826    1.3013 H   0  0  0  0  0  0  0  0  0  0  0  0
    3.5989    4.6543   -0.4970 H   0  0  0  0  0  0  0  0  0  0  0  0
    2.0345    4.9676   -0.1629 H   0  0  0  0  0  0  0  0  0  0  0  0
    1.3513   -1.1603    2.3058 H   0  0  0  0  0  0  0  0  0  0  0  0
    0.5115   -2.3410    1.2803 H   0  0  0  0  0  0  0  0  0  0  0  0
    1.6580   -3.4158   -0.6153 H   0  0  0  0  0  0  0  0  0  0  0  0
    3.6973   -0.5487    1.8759 H   0  0  0  0  0  0  0  0  0  0  0  0
    3.8271   -4.1288   -1.5584 H   0  0  0  0  0  0  0  0  0  0  0  0
    5.8597   -1.2703    0.9239 H   0  0  0  0  0  0  0  0  0  0  0  0
    5.9307   -3.0595   -0.7931 H   0  0  0  0  0  0  0  0  0  0  0  0
  1 13  1  0  0  0  0
  1 18  1  0  0  0  0
  2 14  1  0  0  0  0
  2 23  1  0  0  0  0
  3 13  2  0  0  0  0
  4 14  2  0  0  0  0
  5 15  2  0  0  0  0
  6 10  1  0  0  0  0
  6 12  1  0  0  0  0
  6 15  1  0  0  0  0
  7 17  1  0  0  0  0
  7 48  1  0  0  0  0
  7 49  1  0  0  0  0
  8 16  3  0  0  0  0
  9 10  1  0  0  0  0
  9 11  1  0  0  0  0
  9 13  1  0  0  0  0
  9 30  1  0  0  0  0
 10 14  1  0  0  0  0
 10 16  1  0  0  0  0
 11 12  1  0  0  0  0
 11 31  1  0  0  0  0
 11 32  1  0  0  0  0
 12 33  1  0  0  0  0
 12 34  1  0  0  0  0
 15 17  1  0  0  0  0
 17 19  1  0  0  0  0
 17 35  1  0  0  0  0
 18 20  1  0  0  0  0
 18 21  1  0  0  0  0
 18 22  1  0  0  0  0
 19 36  1  0  0  0  0
 19 37  1  0  0  0  0
 19 38  1  0  0  0  0
 20 39  1  0  0  0  0
 20 40  1  0  0  0  0
 20 41  1  0  0  0  0
 21 42  1  0  0  0  0
 21 43  1  0  0  0  0
 21 44  1  0  0  0  0
 22 45  1  0  0  0  0
 22 46  1  0  0  0  0
 22 47  1  0  0  0  0
 23 24  1  0  0  0  0
 23 50  1  0  0  0  0
 23 51  1  0  0  0  0
 24 25  2  0  0  0  0
 24 26  1  0  0  0  0
 25 27  1  0  0  0  0
 25 52  1  0  0  0  0
 26 28  2  0  0  0  0
 26 53  1  0  0  0  0
 27 29  2  0  0  0  0
 27 54  1  0  0  0  0
 28 29  1  0  0  0  0
 28 55  1  0  0  0  0
 29 56  1  0  0  0  0
M  END
> <PUBCHEM_COMPOUND_CID>
131498

> <PUBCHEM_CONFORMER_RMSD>
1

> <PUBCHEM_CONFORMER_DIVERSEORDER>
1
33
4
62
207
182
209
144
23
127
159
112
20
135
91
197
65
105
108
213
97
199
44
107
130
212
122
149
153
87
66
64
29
18
99
89
104
158
154
15
216
177
63
98
203
134
206
30
88
110
146
14
141
74
174
73
84
76
215
124
129
17
13
80
202
150
94
102
58
168
161
165
171
52
192
148
34
133
109
22
90
164
48
37
157
69
184
173
185
210
143
45
9
193
51
68
139
41
59
56
2
95
194
119
19
83
113
125
115
117
196
55
131
54
175
46
214
81
12
5
201
72
205
79
6
101
111
187
116
61
178
145
93
188
186
31
170
7
82
50
57
208
16
35
21
67
120
151
118
138
169
40
128
204
189
28
38
140
156
96
43
152
3
24
183
126
155
132
163
11
137
103
77
47
198
191
200
36
181
49
190
179
78
32
26
176
85
136
166
10
162
121
106
180
211
70
60
8
160
92
71
147
114
75
123
86
27
42
195
53
100
25
39
172
167
142

> <PUBCHEM_MMFF94_PARTIAL_CHARGES>
31
1 -0.43
10 0.56
12 0.3
13 0.66
14 0.66
15 0.57
16 0.36
17 0.33
18 0.28
2 -0.43
23 0.42
24 -0.14
25 -0.15
26 -0.15
27 -0.15
28 -0.15
29 -0.15
3 -0.57
4 -0.57
48 0.36
49 0.36
5 -0.57
52 0.15
53 0.15
54 0.15
55 0.15
56 0.15
6 -0.66
7 -0.99
8 -0.56
9 0.06

> <PUBCHEM_EFFECTIVE_ROTOR_COUNT>
10

> <PUBCHEM_PHARMACOPHORE_FEATURES>
9
1 3 acceptor
1 4 acceptor
1 5 acceptor
1 7 cation
1 7 donor
1 8 acceptor
4 18 20 21 22 hydrophobe
5 6 9 10 11 12 rings
6 24 25 26 27 28 29 rings

> <PUBCHEM_HEAVY_ATOM_COUNT>
29

> <PUBCHEM_ATOM_DEF_STEREO_COUNT>
2

> <PUBCHEM_ATOM_UDEF_STEREO_COUNT>
1

> <PUBCHEM_BOND_DEF_STEREO_COUNT>
0

> <PUBCHEM_BOND_UDEF_STEREO_COUNT>
0

> <PUBCHEM_ISOTOPIC_ATOM_COUNT>
0

> <PUBCHEM_COMPONENT_COUNT>
1

> <PUBCHEM_CACTVS_TAUTO_COUNT>
1

> <PUBCHEM_CONFORMER_ID>
000201AA00000001

> <PUBCHEM_MMFF94_ENERGY>
74.6744

> <PUBCHEM_FEATURE_SELFOVERLAP>
45.671

> <PUBCHEM_SHAPE_FINGERPRINT>
1100329 8 18194406597960300753
11045515 52 18189333464172947396
11135609 187 18189902092364155084
11578080 2 17967807219962932093
133893 2 17822876245740539084
13533116 47 18268424810752452399
13757389 114 17693954998316654156
14955137 171 18049183076082346857
15927050 60 17908426106446246254
17980427 26 17699270385301818061
1813 80 18272937089548619775
19930381 70 18337672031114640808
20028762 73 17041489882036656419
20101258 96 18265621991464932488
20600515 1 17841442427399554316
21421861 104 18270414861608858877
22182313 1 17313926624385120239
23419403 2 18114727313529374343
23557571 272 18196652900384625874
23559900 14 18337379492106756537
23566358 27 18410016563010954441
3633792 109 18335966654911409655
463206 1 18195242441413802390
469060 322 17314242059151580482
6287921 2 18272074020824403386
6669772 16 18124036999516421436

> <PUBCHEM_SHAPE_MULTIPOLES>
552.52
9.52
4.62
1.66
2.43
2.62
0.41
-9.14
-0.73
-4.7
-0.1
0.71
0.11
-0.38

> <PUBCHEM_SHAPE_SELFOVERLAP>
1161.859

> <PUBCHEM_SHAPE_VOLUME>
309.7

> <PUBCHEM_COORDINATE_TYPE>
2
5
10

$$$$
