131554
  -OEChem-03292013323D

 40 42  0     0  0  0  0  0  0999 V2000
    4.7363   -0.3650    0.5724 O   0  0  0  0  0  0  0  0  0  0  0  0
   -1.3066    3.4938    0.0235 O   0  0  0  0  0  0  0  0  0  0  0  0
    3.4045   -2.4399   -0.7078 O   0  0  0  0  0  0  0  0  0  0  0  0
   -1.7782   -0.1388    1.9320 O   0  0  0  0  0  0  0  0  0  0  0  0
   -4.7060   -1.5541   -1.1869 O   0  0  0  0  0  0  0  0  0  0  0  0
    0.7304    2.3714    0.2778 N   0  0  0  0  0  0  0  0  0  0  0  0
   -0.5600    0.2144   -1.0190 N   0  0  0  0  0  0  0  0  0  0  0  0
   -3.3257   -0.3859    0.2410 N   0  0  0  0  0  0  0  0  0  0  0  0
   -2.5529   -2.2078    1.2551 N   0  0  0  0  0  0  0  0  0  0  0  0
   -3.3719   -2.6051    0.3820 N   0  0  0  0  0  0  0  0  0  0  0  0
   -2.6370    1.4330   -1.2522 C   0  0  0  0  0  0  0  0  0  0  0  0
   -1.2061    1.3127   -0.8067 C   0  0  0  0  0  0  0  0  0  0  0  0
    1.4404    1.1607    0.0428 C   0  0  0  0  0  0  0  0  0  0  0  0
    0.7722    0.1112   -0.6019 C   0  0  0  0  0  0  0  0  0  0  0  0
   -3.5712    0.9766   -0.1486 C   0  0  0  0  0  0  0  0  0  0  0  0
   -0.5941    2.5079   -0.1229 C   0  0  0  0  0  0  0  0  0  0  0  0
    2.7778    0.9837    0.4326 C   0  0  0  0  0  0  0  0  0  0  0  0
    1.4464   -1.0937   -0.8465 C   0  0  0  0  0  0  0  0  0  0  0  0
    3.4384   -0.2208    0.1836 C   0  0  0  0  0  0  0  0  0  0  0  0
    1.3992    3.4809    0.9463 C   0  0  0  0  0  0  0  0  0  0  0  0
    2.7731   -1.2601   -0.4559 C   0  0  0  0  0  0  0  0  0  0  0  0
   -2.4853   -0.8301    1.2098 C   0  0  0  0  0  0  0  0  0  0  0  0
   -3.8840   -1.5083   -0.2800 C   0  0  0  0  0  0  0  0  0  0  0  0
    5.7399    0.0115   -0.3682 C   0  0  0  0  0  0  0  0  0  0  0  0
    3.3205   -3.4482    0.2978 C   0  0  0  0  0  0  0  0  0  0  0  0
   -2.7714    0.8053   -2.1420 H   0  0  0  0  0  0  0  0  0  0  0  0
   -2.8628    2.4605   -1.5530 H   0  0  0  0  0  0  0  0  0  0  0  0
   -3.4503    1.6133    0.7352 H   0  0  0  0  0  0  0  0  0  0  0  0
   -4.6072    1.0584   -0.4951 H   0  0  0  0  0  0  0  0  0  0  0  0
    3.3293    1.7735    0.9357 H   0  0  0  0  0  0  0  0  0  0  0  0
    0.9283   -1.9092   -1.3476 H   0  0  0  0  0  0  0  0  0  0  0  0
    2.2619    3.7993    0.3529 H   0  0  0  0  0  0  0  0  0  0  0  0
    1.7129    3.1692    1.9473 H   0  0  0  0  0  0  0  0  0  0  0  0
    0.7273    4.3376    1.0535 H   0  0  0  0  0  0  0  0  0  0  0  0
    6.7187   -0.1669    0.0854 H   0  0  0  0  0  0  0  0  0  0  0  0
    5.6562    1.0751   -0.6132 H   0  0  0  0  0  0  0  0  0  0  0  0
    5.6611   -0.5914   -1.2783 H   0  0  0  0  0  0  0  0  0  0  0  0
    2.2780   -3.7380    0.4638 H   0  0  0  0  0  0  0  0  0  0  0  0
    3.7669   -3.0973    1.2335 H   0  0  0  0  0  0  0  0  0  0  0  0
    3.8764   -4.3239   -0.0481 H   0  0  0  0  0  0  0  0  0  0  0  0
  1 19  1  0  0  0  0
  1 24  1  0  0  0  0
  2 16  2  0  0  0  0
  3 21  1  0  0  0  0
  3 25  1  0  0  0  0
  4 22  2  0  0  0  0
  5 23  2  0  0  0  0
  6 13  1  0  0  0  0
  6 16  1  0  0  0  0
  6 20  1  0  0  0  0
  7 12  2  0  0  0  0
  7 14  1  0  0  0  0
  8 15  1  0  0  0  0
  8 22  1  0  0  0  0
  8 23  1  0  0  0  0
  9 10  2  0  0  0  0
  9 22  1  0  0  0  0
 10 23  1  0  0  0  0
 11 12  1  0  0  0  0
 11 15  1  0  0  0  0
 11 26  1  0  0  0  0
 11 27  1  0  0  0  0
 12 16  1  0  0  0  0
 13 14  1  0  0  0  0
 13 17  2  0  0  0  0
 14 18  2  0  0  0  0
 15 28  1  0  0  0  0
 15 29  1  0  0  0  0
 17 19  1  0  0  0  0
 17 30  1  0  0  0  0
 18 21  1  0  0  0  0
 18 31  1  0  0  0  0
 19 21  2  0  0  0  0
 20 32  1  0  0  0  0
 20 33  1  0  0  0  0
 20 34  1  0  0  0  0
 24 35  1  0  0  0  0
 24 36  1  0  0  0  0
 24 37  1  0  0  0  0
 25 38  1  0  0  0  0
 25 39  1  0  0  0  0
 25 40  1  0  0  0  0
M  END
> <PUBCHEM_COMPOUND_CID>
131554

> <PUBCHEM_CONFORMER_RMSD>
0.8

> <PUBCHEM_CONFORMER_DIVERSEORDER>
1
18
3
14
16
20
12
6
4
13
5
10
15
19
11
9
7
17
8
2

> <PUBCHEM_MMFF94_PARTIAL_CHARGES>
27
1 -0.36
10 -0.21
11 0.06
12 0.39
13 0.12
14 0.18
15 0.3
16 0.63
17 -0.15
18 -0.15
19 0.08
2 -0.57
20 0.3
21 0.08
22 0.84
23 0.84
24 0.28
25 0.28
3 -0.36
30 0.15
31 0.15
4 -0.57
5 -0.57
6 -0.48
7 -0.63
8 -0.42
9 -0.21

> <PUBCHEM_EFFECTIVE_ROTOR_COUNT>
5.2

> <PUBCHEM_PHARMACOPHORE_FEATURES>
11
1 1 acceptor
1 10 donor
1 2 acceptor
1 3 acceptor
1 4 acceptor
1 5 acceptor
1 7 acceptor
1 9 donor
5 8 9 10 22 23 rings
6 13 14 17 18 19 21 rings
6 6 7 12 13 14 16 rings

> <PUBCHEM_HEAVY_ATOM_COUNT>
25

> <PUBCHEM_ATOM_DEF_STEREO_COUNT>
0

> <PUBCHEM_ATOM_UDEF_STEREO_COUNT>
0

> <PUBCHEM_BOND_DEF_STEREO_COUNT>
0

> <PUBCHEM_BOND_UDEF_STEREO_COUNT>
0

> <PUBCHEM_ISOTOPIC_ATOM_COUNT>
0

> <PUBCHEM_COMPONENT_COUNT>
1

> <PUBCHEM_CACTVS_TAUTO_COUNT>
2

> <PUBCHEM_CONFORMER_ID>
000201E200000001

> <PUBCHEM_MMFF94_ENERGY>
78.555

> <PUBCHEM_FEATURE_SELFOVERLAP>
57.927

> <PUBCHEM_SHAPE_FINGERPRINT>
10366900 7 18335420201035652834
10906281 52 18128828438740289309
11552529 35 18060418053578261535
11578080 2 16915349231200237753
12363563 72 18335427906164686423
12506688 2 18410578409099842696
12553582 1 18265075633028554903
12596602 18 16630240424040597122
12633257 1 18341063985741804305
13140716 1 18054496178698485072
13544653 18 18408327670211567126
14081887 123 18337102380779882490
14787075 74 18261677068899929734
14790565 3 17617382122625589028
15352361 1 18410291427964580599
17357779 13 18334006233308605335
19591789 44 18051136092612750364
23559900 14 18188765183922979869
3380486 145 18337688433489067649
463206 1 18264770046316921827
5104073 3 18056188073948804538
8809292 202 18193278498655162405
9709674 26 18124875660288971662

> <PUBCHEM_SHAPE_MULTIPOLES>
460.24
8.93
3.76
1.15
4.04
0.74
0.19
-5.62
-0.58
0.11
0.63
-0.69
-0.1
0.83

> <PUBCHEM_SHAPE_SELFOVERLAP>
999.839

> <PUBCHEM_SHAPE_VOLUME>
252.7

> <PUBCHEM_COORDINATE_TYPE>
2
5
10

$$$$
