131553
  -OEChem-03292013323D

 53 54  0     0  0  0  0  0  0999 V2000
    6.9934    0.0007    0.4710 O   0  0  0  0  0  0  0  0  0  0  0  0
    5.8832   -2.2132   -0.7687 O   0  0  0  0  0  0  0  0  0  0  0  0
    5.3794    2.1481    1.1449 O   0  0  0  0  0  0  0  0  0  0  0  0
   -6.9044   -0.0019   -0.5095 O   0  0  0  0  0  0  0  0  0  0  0  0
   -5.8920   -1.8410    1.2970 O   0  0  0  0  0  0  0  0  0  0  0  0
   -5.2202    1.8896   -1.6301 O   0  0  0  0  0  0  0  0  0  0  0  0
   -0.7008    0.5780   -0.1591 O   0  0  0  0  0  0  0  0  0  0  0  0
    1.0691   -0.8009   -1.6282 O   0  0  0  0  0  0  0  0  0  0  0  0
   -1.0190   -0.2549    1.9656 O   0  0  0  0  0  0  0  0  0  0  0  0
    0.6735    0.6238    0.1412 N   0  0  0  0  0  0  0  0  0  0  0  0
    2.9290   -0.0967   -0.3779 C   0  0  0  0  0  0  0  0  0  0  0  0
   -2.8790    0.0737    0.5102 C   0  0  0  0  0  0  0  0  0  0  0  0
    5.6589   -0.0317    0.1936 C   0  0  0  0  0  0  0  0  0  0  0  0
    5.1036   -1.1480   -0.4320 C   0  0  0  0  0  0  0  0  0  0  0  0
    4.8493    1.0521    0.5333 C   0  0  0  0  0  0  0  0  0  0  0  0
   -5.5833    0.0236   -0.1736 C   0  0  0  0  0  0  0  0  0  0  0  0
    3.7387   -1.1805   -0.7177 C   0  0  0  0  0  0  0  0  0  0  0  0
    3.4843    1.0196    0.2475 C   0  0  0  0  0  0  0  0  0  0  0  0
   -5.0765   -0.9050    0.7355 C   0  0  0  0  0  0  0  0  0  0  0  0
   -4.7379    0.9771   -0.7410 C   0  0  0  0  0  0  0  0  0  0  0  0
   -3.7245   -0.8799    1.0775 C   0  0  0  0  0  0  0  0  0  0  0  0
   -3.3858    1.0020   -0.3990 C   0  0  0  0  0  0  0  0  0  0  0  0
    1.5053   -0.1319   -0.6735 C   0  0  0  0  0  0  0  0  0  0  0  0
   -1.4404    0.1021    0.8762 C   0  0  0  0  0  0  0  0  0  0  0  0
    7.8498    0.5411   -0.5324 C   0  0  0  0  0  0  0  0  0  0  0  0
    5.2370   -3.3139   -1.4051 C   0  0  0  0  0  0  0  0  0  0  0  0
    4.4831    3.2122    1.4583 C   0  0  0  0  0  0  0  0  0  0  0  0
   -7.2732   -0.8113   -1.6238 C   0  0  0  0  0  0  0  0  0  0  0  0
   -5.2947   -2.7528    2.2166 C   0  0  0  0  0  0  0  0  0  0  0  0
   -5.7060    3.1200   -1.0969 C   0  0  0  0  0  0  0  0  0  0  0  0
    3.2568   -2.0264   -1.1960 H   0  0  0  0  0  0  0  0  0  0  0  0
    2.8350    1.8578    0.4672 H   0  0  0  0  0  0  0  0  0  0  0  0
   -3.2765   -1.5796    1.7750 H   0  0  0  0  0  0  0  0  0  0  0  0
   -2.7475    1.7614   -0.8443 H   0  0  0  0  0  0  0  0  0  0  0  0
    0.9392    1.1680    0.9541 H   0  0  0  0  0  0  0  0  0  0  0  0
    8.8786    0.4978   -0.1644 H   0  0  0  0  0  0  0  0  0  0  0  0
    7.5948    1.5862   -0.7350 H   0  0  0  0  0  0  0  0  0  0  0  0
    7.7832   -0.0465   -1.4535 H   0  0  0  0  0  0  0  0  0  0  0  0
    4.4961   -3.7824   -0.7483 H   0  0  0  0  0  0  0  0  0  0  0  0
    4.8162   -3.0297   -2.3757 H   0  0  0  0  0  0  0  0  0  0  0  0
    6.0064   -4.0678   -1.6025 H   0  0  0  0  0  0  0  0  0  0  0  0
    5.0729    3.9948    1.9472 H   0  0  0  0  0  0  0  0  0  0  0  0
    3.7174    2.8992    2.1765 H   0  0  0  0  0  0  0  0  0  0  0  0
    4.0542    3.6588    0.5547 H   0  0  0  0  0  0  0  0  0  0  0  0
   -6.7745   -0.4641   -2.5341 H   0  0  0  0  0  0  0  0  0  0  0  0
   -7.0250   -1.8609   -1.4369 H   0  0  0  0  0  0  0  0  0  0  0  0
   -8.3542   -0.7279   -1.7646 H   0  0  0  0  0  0  0  0  0  0  0  0
   -4.5393   -3.3798    1.7308 H   0  0  0  0  0  0  0  0  0  0  0  0
   -4.9049   -2.2376    3.1012 H   0  0  0  0  0  0  0  0  0  0  0  0
   -6.0870   -3.4239    2.5646 H   0  0  0  0  0  0  0  0  0  0  0  0
   -6.0623    3.7361   -1.9269 H   0  0  0  0  0  0  0  0  0  0  0  0
   -4.9039    3.6574   -0.5811 H   0  0  0  0  0  0  0  0  0  0  0  0
   -6.5400    2.9405   -0.4111 H   0  0  0  0  0  0  0  0  0  0  0  0
  1 13  1  0  0  0  0
  1 25  1  0  0  0  0
  2 14  1  0  0  0  0
  2 26  1  0  0  0  0
  3 15  1  0  0  0  0
  3 27  1  0  0  0  0
  4 16  1  0  0  0  0
  4 28  1  0  0  0  0
  5 19  1  0  0  0  0
  5 29  1  0  0  0  0
  6 20  1  0  0  0  0
  6 30  1  0  0  0  0
  7 10  1  0  0  0  0
  7 24  1  0  0  0  0
  8 23  2  0  0  0  0
  9 24  2  0  0  0  0
 10 23  1  0  0  0  0
 10 35  1  0  0  0  0
 11 17  2  0  0  0  0
 11 18  1  0  0  0  0
 11 23  1  0  0  0  0
 12 21  2  0  0  0  0
 12 22  1  0  0  0  0
 12 24  1  0  0  0  0
 13 14  2  0  0  0  0
 13 15  1  0  0  0  0
 14 17  1  0  0  0  0
 15 18  2  0  0  0  0
 16 19  2  0  0  0  0
 16 20  1  0  0  0  0
 17 31  1  0  0  0  0
 18 32  1  0  0  0  0
 19 21  1  0  0  0  0
 20 22  2  0  0  0  0
 21 33  1  0  0  0  0
 22 34  1  0  0  0  0
 25 36  1  0  0  0  0
 25 37  1  0  0  0  0
 25 38  1  0  0  0  0
 26 39  1  0  0  0  0
 26 40  1  0  0  0  0
 26 41  1  0  0  0  0
 27 42  1  0  0  0  0
 27 43  1  0  0  0  0
 27 44  1  0  0  0  0
 28 45  1  0  0  0  0
 28 46  1  0  0  0  0
 28 47  1  0  0  0  0
 29 48  1  0  0  0  0
 29 49  1  0  0  0  0
 29 50  1  0  0  0  0
 30 51  1  0  0  0  0
 30 52  1  0  0  0  0
 30 53  1  0  0  0  0
M  END
> <PUBCHEM_COMPOUND_CID>
131553

> <PUBCHEM_CONFORMER_RMSD>
1

> <PUBCHEM_CONFORMER_DIVERSEORDER>
7
5
3
9
2
8
6
1
10
4

> <PUBCHEM_MMFF94_PARTIAL_CHARGES>
35
1 -0.36
10 -0.39
11 0.09
12 0.09
13 0.08
14 0.08
15 0.08
16 0.08
17 -0.15
18 -0.15
19 0.08
2 -0.36
20 0.08
21 -0.15
22 -0.15
23 0.54
24 0.63
25 0.28
26 0.28
27 0.28
28 0.28
29 0.28
3 -0.36
30 0.28
31 0.15
32 0.15
33 0.15
34 0.15
35 0.37
4 -0.36
5 -0.36
6 -0.36
7 -0.19
8 -0.57
9 -0.57

> <PUBCHEM_EFFECTIVE_ROTOR_COUNT>
11

> <PUBCHEM_PHARMACOPHORE_FEATURES>
11
1 1 acceptor
1 10 donor
1 2 acceptor
1 3 acceptor
1 4 acceptor
1 5 acceptor
1 6 acceptor
1 8 acceptor
1 9 acceptor
6 11 13 14 15 17 18 rings
6 12 16 19 20 21 22 rings

> <PUBCHEM_HEAVY_ATOM_COUNT>
30

> <PUBCHEM_ATOM_DEF_STEREO_COUNT>
0

> <PUBCHEM_ATOM_UDEF_STEREO_COUNT>
0

> <PUBCHEM_BOND_DEF_STEREO_COUNT>
0

> <PUBCHEM_BOND_UDEF_STEREO_COUNT>
0

> <PUBCHEM_ISOTOPIC_ATOM_COUNT>
0

> <PUBCHEM_COMPONENT_COUNT>
1

> <PUBCHEM_CACTVS_TAUTO_COUNT>
2

> <PUBCHEM_CONFORMER_ID>
000201E100000007

> <PUBCHEM_MMFF94_ENERGY>
147.2203

> <PUBCHEM_FEATURE_SELFOVERLAP>
55.847

> <PUBCHEM_SHAPE_FINGERPRINT>
10162869 55 18059844112987568284
10835480 77 18340764845269498045
11315181 36 17458347455276774197
11724838 91 17346878966631989926
12166972 35 17346881135596035600
12616971 3 16773802488868707449
13533116 47 18131636660525909610
13782708 43 18410580586780546331
14848160 23 18410015433260579658
15183329 4 16081093657821233895
15419008 47 18335417971689962556
15419008 91 17969205889111319133
1577012 14 16558755576913460682
17844677 252 18202569453488303073
19377110 9 16200158663859970386
19489759 90 17894351081752140657
20157964 124 18202562895784930792
21033648 29 18335973238215423048
22061861 79 18413673495561249551
2303208 19 18336557061414237363
23081809 10 16272212980932446299
23559900 14 18260831475258944204
2747138 104 12679167363302590373
397830 11 18263926720628691088
4073 2 18334300820598839843
4098825 35 18202280269973724073
4144715 1 18333737935397553881
44880568 143 18186806842007961972
5283173 99 18334010558483687997

> <PUBCHEM_SHAPE_MULTIPOLES>
559.58
23.29
2.82
1.61
1.59
0.19
0.3
-1.62
-3.14
0.89
0.13
-1.79
-0.43
5.36

> <PUBCHEM_SHAPE_SELFOVERLAP>
1181.514

> <PUBCHEM_SHAPE_VOLUME>
314.8

> <PUBCHEM_COORDINATE_TYPE>
2
5
10

$$$$
