131513
  -OEChem-03292013323D

 43 42  0     0  0  0  0  0  0999 V2000
    5.8746    2.8635   -0.4540 Cl  0  0  0  0  0  0  0  0  0  0  0  0
   -1.2879   -5.0275    0.3148 Cl  0  0  0  0  0  0  0  0  0  0  0  0
    2.1328   -0.8575    0.6499 P   0  0  0  0  0  0  0  0  0  0  0  0
    0.9449    0.2051    0.3042 O   0  0  0  0  0  0  0  0  0  0  0  0
   -2.7682    2.0652   -0.3709 O   0  0  0  0  0  0  0  0  0  0  0  0
   -2.2688   -0.1672   -0.9991 O   0  0  0  0  0  0  0  0  0  0  0  0
    2.3319   -0.9098    2.1471 O   0  0  0  0  0  0  0  0  0  0  0  0
   -1.7290    3.1797    1.3656 O   0  0  0  0  0  0  0  0  0  0  0  0
   -3.5124   -0.8070    0.8412 O   0  0  0  0  0  0  0  0  0  0  0  0
    3.4726   -0.3522   -0.2019 N   0  0  0  0  0  0  0  0  0  0  0  0
    1.6521   -2.3041   -0.0225 N   0  0  0  0  0  0  0  0  0  0  0  0
   -0.5304    1.5100   -1.0570 C   0  0  0  0  0  0  0  0  0  0  0  0
    0.6023    0.4920   -1.0452 C   0  0  0  0  0  0  0  0  0  0  0  0
   -1.7805    1.0131   -0.3273 C   0  0  0  0  0  0  0  0  0  0  0  0
    4.1110    0.9008    0.1747 C   0  0  0  0  0  0  0  0  0  0  0  0
    0.4901   -2.9899    0.5247 C   0  0  0  0  0  0  0  0  0  0  0  0
    5.0752    1.3416   -0.9156 C   0  0  0  0  0  0  0  0  0  0  0  0
    0.1437   -4.1944   -0.3366 C   0  0  0  0  0  0  0  0  0  0  0  0
   -2.6161    3.0773    0.5294 C   0  0  0  0  0  0  0  0  0  0  0  0
   -3.1170   -0.9767   -0.3039 C   0  0  0  0  0  0  0  0  0  0  0  0
   -3.7136    4.0805    0.3434 C   0  0  0  0  0  0  0  0  0  0  0  0
   -3.5074   -2.1424   -1.1610 C   0  0  0  0  0  0  0  0  0  0  0  0
   -0.1780    2.4423   -0.6010 H   0  0  0  0  0  0  0  0  0  0  0  0
   -0.7831    1.7464   -2.0980 H   0  0  0  0  0  0  0  0  0  0  0  0
    0.3023   -0.4278   -1.5556 H   0  0  0  0  0  0  0  0  0  0  0  0
    1.4716    0.9081   -1.5632 H   0  0  0  0  0  0  0  0  0  0  0  0
   -1.5472    0.7612    0.7154 H   0  0  0  0  0  0  0  0  0  0  0  0
    4.1935   -1.0573   -0.3545 H   0  0  0  0  0  0  0  0  0  0  0  0
    1.6028   -2.3134   -1.0409 H   0  0  0  0  0  0  0  0  0  0  0  0
    4.6370    0.7688    1.1268 H   0  0  0  0  0  0  0  0  0  0  0  0
    3.3478    1.6733    0.3225 H   0  0  0  0  0  0  0  0  0  0  0  0
   -0.3606   -2.2999    0.5530 H   0  0  0  0  0  0  0  0  0  0  0  0
    0.7025   -3.3026    1.5529 H   0  0  0  0  0  0  0  0  0  0  0  0
    4.5541    1.5150   -1.8625 H   0  0  0  0  0  0  0  0  0  0  0  0
    5.8598    0.5965   -1.0816 H   0  0  0  0  0  0  0  0  0  0  0  0
    0.9652   -4.9175   -0.3609 H   0  0  0  0  0  0  0  0  0  0  0  0
   -0.0908   -3.8988   -1.3642 H   0  0  0  0  0  0  0  0  0  0  0  0
   -3.6552    4.5121   -0.6590 H   0  0  0  0  0  0  0  0  0  0  0  0
   -3.5986    4.8838    1.0767 H   0  0  0  0  0  0  0  0  0  0  0  0
   -4.6837    3.6026    0.5015 H   0  0  0  0  0  0  0  0  0  0  0  0
   -4.1593   -1.8031   -1.9694 H   0  0  0  0  0  0  0  0  0  0  0  0
   -4.0451   -2.8757   -0.5532 H   0  0  0  0  0  0  0  0  0  0  0  0
   -2.6138   -2.6237   -1.5666 H   0  0  0  0  0  0  0  0  0  0  0  0
  1 17  1  0  0  0  0
  2 18  1  0  0  0  0
  3  4  1  0  0  0  0
  3  7  2  0  0  0  0
  3 10  1  0  0  0  0
  3 11  1  0  0  0  0
  4 13  1  0  0  0  0
  5 14  1  0  0  0  0
  5 19  1  0  0  0  0
  6 14  1  0  0  0  0
  6 20  1  0  0  0  0
  8 19  2  0  0  0  0
  9 20  2  0  0  0  0
 10 15  1  0  0  0  0
 10 28  1  0  0  0  0
 11 16  1  0  0  0  0
 11 29  1  0  0  0  0
 12 13  1  0  0  0  0
 12 14  1  0  0  0  0
 12 23  1  0  0  0  0
 12 24  1  0  0  0  0
 13 25  1  0  0  0  0
 13 26  1  0  0  0  0
 14 27  1  0  0  0  0
 15 17  1  0  0  0  0
 15 30  1  0  0  0  0
 15 31  1  0  0  0  0
 16 18  1  0  0  0  0
 16 32  1  0  0  0  0
 16 33  1  0  0  0  0
 17 34  1  0  0  0  0
 17 35  1  0  0  0  0
 18 36  1  0  0  0  0
 18 37  1  0  0  0  0
 19 21  1  0  0  0  0
 20 22  1  0  0  0  0
 21 38  1  0  0  0  0
 21 39  1  0  0  0  0
 21 40  1  0  0  0  0
 22 41  1  0  0  0  0
 22 42  1  0  0  0  0
 22 43  1  0  0  0  0
M  END
> <PUBCHEM_COMPOUND_CID>
131513

> <PUBCHEM_CONFORMER_RMSD>
1

> <PUBCHEM_CONFORMER_DIVERSEORDER>
1
14
113
70
74
48
77
76
90
12
38
33
119
31
51
81
94
26
67
22
57
35
61
63
78
102
88
65
75
2
118
91
86
89
46
83
73
45
108
32
10
16
50
44
110
115
92
62
109
37
117
53
36
54
66
64
82
9
105
68
15
84
20
29
80
55
27
34
19
95
5
111
79
42
104
103
71
47
107
23
99
4
85
18
24
11
59
52
25
21
56
87
43
60
58
8
106
72
30
40
69
112
101
100
6
41
17
49
96
93
7
39
98
116
114
28
13
3
97

> <PUBCHEM_MMFF94_PARTIAL_CHARGES>
23
1 -0.29
10 -0.9
11 -0.9
13 0.28
14 0.56
15 0.27
16 0.27
17 0.29
18 0.29
19 0.66
2 -0.29
20 0.66
21 0.06
22 0.06
28 0.36
29 0.36
3 1.51
4 -0.55
5 -0.43
6 -0.43
7 -0.7
8 -0.57
9 -0.57

> <PUBCHEM_EFFECTIVE_ROTOR_COUNT>
14

> <PUBCHEM_PHARMACOPHORE_FEATURES>
2
1 8 acceptor
1 9 acceptor

> <PUBCHEM_HEAVY_ATOM_COUNT>
22

> <PUBCHEM_ATOM_DEF_STEREO_COUNT>
0

> <PUBCHEM_ATOM_UDEF_STEREO_COUNT>
0

> <PUBCHEM_BOND_DEF_STEREO_COUNT>
0

> <PUBCHEM_BOND_UDEF_STEREO_COUNT>
0

> <PUBCHEM_ISOTOPIC_ATOM_COUNT>
0

> <PUBCHEM_COMPONENT_COUNT>
1

> <PUBCHEM_CACTVS_TAUTO_COUNT>
2

> <PUBCHEM_CONFORMER_ID>
000201B900000001

> <PUBCHEM_MMFF94_ENERGY>
6.4745

> <PUBCHEM_FEATURE_SELFOVERLAP>
10.149

> <PUBCHEM_SHAPE_FINGERPRINT>
1100329 8 17975978983437176343
12553582 1 18268980059407311127
12633257 1 17829598470743417762
12788726 201 18340194301824316959
13140716 1 17976263761280933490
14178342 30 18123727786891924131
14251757 5 18267868470199389582
14787075 74 18193272121003566532
18785283 64 17549270229332118985
23558518 356 18050835634133961247
23559900 14 17840859673066470700
283562 15 18410571825162709549
5486654 2 18338515373274859110
633830 44 18341892927541778668

> <PUBCHEM_SHAPE_MULTIPOLES>
415.16
9.05
6.37
1.2
14.21
2.55
-0.26
-6.88
1.57
-6.78
-1.26
0.07
-0.05
-1.54

> <PUBCHEM_SHAPE_SELFOVERLAP>
754.479

> <PUBCHEM_SHAPE_VOLUME>
266.3

> <PUBCHEM_COORDINATE_TYPE>
2
5
10

$$$$
