131557
  -OEChem-03292013323D

 44 47  0     1  0  0  0  0  0999 V2000
   -1.1671   -2.1770   -0.2071 S   0  0  1  0  0  0  0  0  0  0  0  0
   -1.5505    2.8922    0.1211 F   0  0  0  0  0  0  0  0  0  0  0  0
   -1.4465   -2.5947    1.2065 O   0  0  0  0  0  0  0  0  0  0  0  0
    3.4246    2.3435    0.0380 O   0  0  0  0  0  0  0  0  0  0  0  0
    5.7224    1.2339    0.6157 O   0  0  0  0  0  0  0  0  0  0  0  0
    6.0791   -0.6928   -0.5636 O   0  0  0  0  0  0  0  0  0  0  0  0
   -2.6250    0.4072   -0.0418 N   0  0  0  0  0  0  0  0  0  0  0  0
   -5.4809    0.3621   -0.0013 N   0  0  0  0  0  0  0  0  0  0  0  0
    1.9554   -1.4587   -0.0606 N   0  0  0  0  0  0  0  0  0  0  0  0
   -3.3414    0.2859    1.2342 C   0  0  0  0  0  0  0  0  0  0  0  0
   -3.3847    1.0111   -1.1408 C   0  0  0  0  0  0  0  0  0  0  0  0
   -1.2327    0.5423   -0.0039 C   0  0  0  0  0  0  0  0  0  0  0  0
   -0.3708   -0.5658   -0.0600 C   0  0  0  0  0  0  0  0  0  0  0  0
   -4.7125   -0.3594    1.0209 C   0  0  0  0  0  0  0  0  0  0  0  0
   -4.7553    0.3431   -1.2772 C   0  0  0  0  0  0  0  0  0  0  0  0
    1.0281   -0.3909   -0.0305 C   0  0  0  0  0  0  0  0  0  0  0  0
    1.4651   -2.8318    0.0896 C   0  0  0  0  0  0  0  0  0  0  0  0
    0.2672   -3.1024   -0.7938 C   0  0  0  0  0  0  0  0  0  0  0  0
    1.5132    0.9407    0.0152 C   0  0  0  0  0  0  0  0  0  0  0  0
   -0.7267    1.8361    0.0623 C   0  0  0  0  0  0  0  0  0  0  0  0
    0.6463    2.0399    0.0653 C   0  0  0  0  0  0  0  0  0  0  0  0
    3.3123   -1.1849   -0.0598 C   0  0  0  0  0  0  0  0  0  0  0  0
   -6.8090   -0.2299   -0.1575 C   0  0  0  0  0  0  0  0  0  0  0  0
    2.9774    1.2034    0.0080 C   0  0  0  0  0  0  0  0  0  0  0  0
    3.8758    0.0270   -0.0372 C   0  0  0  0  0  0  0  0  0  0  0  0
    5.3359    0.1198   -0.0417 C   0  0  0  0  0  0  0  0  0  0  0  0
   -2.7722   -0.3200    1.9490 H   0  0  0  0  0  0  0  0  0  0  0  0
   -3.4604    1.2825    1.6788 H   0  0  0  0  0  0  0  0  0  0  0  0
   -3.5184    2.0851   -0.9631 H   0  0  0  0  0  0  0  0  0  0  0  0
   -2.8419    0.8953   -2.0870 H   0  0  0  0  0  0  0  0  0  0  0  0
   -4.5826   -1.4127    0.7374 H   0  0  0  0  0  0  0  0  0  0  0  0
   -5.2510   -0.3428    1.9762 H   0  0  0  0  0  0  0  0  0  0  0  0
   -5.3256    0.8840   -2.0422 H   0  0  0  0  0  0  0  0  0  0  0  0
   -4.6262   -0.6877   -1.6342 H   0  0  0  0  0  0  0  0  0  0  0  0
    1.2386   -3.0225    1.1466 H   0  0  0  0  0  0  0  0  0  0  0  0
    2.2521   -3.5438   -0.1904 H   0  0  0  0  0  0  0  0  0  0  0  0
    0.4584   -2.8248   -1.8359 H   0  0  0  0  0  0  0  0  0  0  0  0
    0.0031   -4.1641   -0.7664 H   0  0  0  0  0  0  0  0  0  0  0  0
    1.0233    3.0579    0.1081 H   0  0  0  0  0  0  0  0  0  0  0  0
    3.9201   -2.0845   -0.0698 H   0  0  0  0  0  0  0  0  0  0  0  0
   -7.3951    0.3307   -0.8942 H   0  0  0  0  0  0  0  0  0  0  0  0
   -7.3639   -0.1828    0.7861 H   0  0  0  0  0  0  0  0  0  0  0  0
   -6.7623   -1.2770   -0.4783 H   0  0  0  0  0  0  0  0  0  0  0  0
    6.6984    1.3311    0.6340 H   0  0  0  0  0  0  0  0  0  0  0  0
  1  3  2  0  0  0  0
  1 13  1  0  0  0  0
  1 18  1  0  0  0  0
  2 20  1  0  0  0  0
  4 24  2  0  0  0  0
  5 26  1  0  0  0  0
  5 44  1  0  0  0  0
  6 26  2  0  0  0  0
  7 10  1  0  0  0  0
  7 11  1  0  0  0  0
  7 12  1  0  0  0  0
  8 14  1  0  0  0  0
  8 15  1  0  0  0  0
  8 23  1  0  0  0  0
  9 16  1  0  0  0  0
  9 17  1  0  0  0  0
  9 22  1  0  0  0  0
 10 14  1  0  0  0  0
 10 27  1  0  0  0  0
 10 28  1  0  0  0  0
 11 15  1  0  0  0  0
 11 29  1  0  0  0  0
 11 30  1  0  0  0  0
 12 13  1  0  0  0  0
 12 20  2  0  0  0  0
 13 16  2  0  0  0  0
 14 31  1  0  0  0  0
 14 32  1  0  0  0  0
 15 33  1  0  0  0  0
 15 34  1  0  0  0  0
 16 19  1  0  0  0  0
 17 18  1  0  0  0  0
 17 35  1  0  0  0  0
 17 36  1  0  0  0  0
 18 37  1  0  0  0  0
 18 38  1  0  0  0  0
 19 21  2  0  0  0  0
 19 24  1  0  0  0  0
 20 21  1  0  0  0  0
 21 39  1  0  0  0  0
 22 25  2  0  0  0  0
 22 40  1  0  0  0  0
 23 41  1  0  0  0  0
 23 42  1  0  0  0  0
 23 43  1  0  0  0  0
 24 25  1  0  0  0  0
 25 26  1  0  0  0  0
M  END
> <PUBCHEM_COMPOUND_CID>
131557

> <PUBCHEM_CONFORMER_RMSD>
0.8

> <PUBCHEM_CONFORMER_DIVERSEORDER>
1
2

> <PUBCHEM_MMFF94_PARTIAL_CHARGES>
29
1 0.24
10 0.37
11 0.37
12 0.1
13 0.06
14 0.27
15 0.27
16 0.1
17 0.37
18 0.19
19 0.09
2 -0.19
20 0.19
21 -0.15
22 -0.05
23 0.27
24 0.47
25 0.03
26 0.71
3 -0.5
39 0.15
4 -0.57
40 0.15
44 0.5
5 -0.65
6 -0.57
7 -0.84
8 -0.81
9 -0.57

> <PUBCHEM_EFFECTIVE_ROTOR_COUNT>
3.6

> <PUBCHEM_PHARMACOPHORE_FEATURES>
13
1 25 anion
1 3 acceptor
1 4 acceptor
1 5 acceptor
1 6 acceptor
1 7 cation
1 8 cation
1 9 cation
3 5 6 26 anion
6 1 9 13 16 17 18 rings
6 12 13 16 19 20 21 rings
6 7 8 10 11 14 15 rings
6 9 16 19 22 24 25 rings

> <PUBCHEM_HEAVY_ATOM_COUNT>
26

> <PUBCHEM_ATOM_DEF_STEREO_COUNT>
0

> <PUBCHEM_ATOM_UDEF_STEREO_COUNT>
1

> <PUBCHEM_BOND_DEF_STEREO_COUNT>
0

> <PUBCHEM_BOND_UDEF_STEREO_COUNT>
0

> <PUBCHEM_ISOTOPIC_ATOM_COUNT>
0

> <PUBCHEM_COMPONENT_COUNT>
1

> <PUBCHEM_CACTVS_TAUTO_COUNT>
1

> <PUBCHEM_CONFORMER_ID>
000201E500000001

> <PUBCHEM_MMFF94_ENERGY>
87.8327

> <PUBCHEM_FEATURE_SELFOVERLAP>
66.432

> <PUBCHEM_SHAPE_FINGERPRINT>
10 15 18187640358501766448
10411042 1 17762900970306548174
10906281 52 18264791916194875897
10967382 1 18411419488540439038
1100329 8 18340486789123392312
11421498 54 16988287469226409043
11578080 2 16914798491738241850
11963148 33 18334288795081944851
12011746 2 18409732850166280919
12035758 1 18409730707019870321
12236239 1 17560802117653273969
12596602 18 17132109178355698137
12788726 201 18341889632800832496
12838862 33 18339342137568819816
13140716 1 18267025140322374976
13402501 40 18334579057729495555
13583140 156 17168142342734169768
13836976 161 18408045117329843244
13862211 1 18411697669071576790
14787075 74 18131630075802883816
14790565 3 18413116051840947400
15196674 1 18339080518014707586
16728300 4 17462538656342667490
16945 1 18411140190980285146
19591789 44 18267304420391624415
200 152 18272647926981174073
20028762 73 18131348630738347183
20645477 70 18409164377386161391
21033648 29 18261657234303867037
21033650 10 16342049570447131352
21197605 99 18267592493198296211
21236236 1 18268709579520764327
21267235 1 18412550894352814100
21344244 181 17704083875905331422
21521721 280 18271807959894617568
21623969 137 18409174320346299467
21781051 124 18116455762978025026
2334 1 18122908891479170030
23402539 116 18272647961119074325
23557571 272 17240481365147844173
23558518 356 18045795480857570913
23559900 14 18272369828555607400
23569914 152 16831486987920285765
23569917 315 18343027704529837294
23569943 247 17486229824432893126
266924 87 18193550074080928637
2748010 2 18267591384547380062
283562 15 18339925896665424209
3178227 256 18410583911074314169
335352 9 18411703201669897486
3380486 145 18262537982410348491
3383291 50 18337948979550074786
34934 24 18408317813404326922
350125 39 18410295817827533860
4340502 62 18411699897948522630
474229 33 18410856555360867431
5486654 2 18411705395622738518
59755656 215 18335704914190987943

> <PUBCHEM_SHAPE_MULTIPOLES>
493.22
12.23
2.85
0.92
2.94
1.22
0.01
-2.15
-0.4
-1.09
-0.03
0.88
0.12
0.57

> <PUBCHEM_SHAPE_SELFOVERLAP>
1065.01

> <PUBCHEM_SHAPE_VOLUME>
273.2

> <PUBCHEM_COORDINATE_TYPE>
2
5
10

$$$$
