131512
  -OEChem-03292013323D

 58 62  0     1  0  0  0  0  0999 V2000
   -2.6413    2.0493   -0.0790 O   0  0  0  0  0  0  0  0  0  0  0  0
   -1.9814   -0.1631    0.4695 O   0  0  0  0  0  0  0  0  0  0  0  0
   -6.0571   -0.1233   -0.9813 O   0  0  0  0  0  0  0  0  0  0  0  0
   -6.0496    1.6384    1.2643 O   0  0  0  0  0  0  0  0  0  0  0  0
   -3.9131    0.9369   -2.4040 O   0  0  0  0  0  0  0  0  0  0  0  0
    3.1768   -2.1219   -0.0603 O   0  0  0  0  0  0  0  0  0  0  0  0
   -2.8834   -2.5948    0.4391 O   0  0  0  0  0  0  0  0  0  0  0  0
    1.5530    2.7604    0.2936 O   0  0  0  0  0  0  0  0  0  0  0  0
    5.4319   -1.8387   -0.2414 O   0  0  0  0  0  0  0  0  0  0  0  0
   -4.8691    0.2495   -0.2865 C   0  0  2  0  0  0  0  0  0  0  0  0
   -5.0324    1.6660    0.2659 C   0  0  2  0  0  0  0  0  0  0  0  0
   -3.6667    0.1642   -1.2280 C   0  0  2  0  0  0  0  0  0  0  0  0
   -3.7078    2.1525    0.8698 C   0  0  2  0  0  0  0  0  0  0  0  0
   -2.4105    0.7208   -0.5604 C   0  0  1  0  0  0  0  0  0  0  0  0
   -3.7794    3.6143    1.3026 C   0  0  0  0  0  0  0  0  0  0  0  0
   -0.7311   -0.7023    0.3390 C   0  0  0  0  0  0  0  0  0  0  0  0
   -0.5112   -2.0833    0.2583 C   0  0  0  0  0  0  0  0  0  0  0  0
    1.6600   -0.2294    0.1535 C   0  0  0  0  0  0  0  0  0  0  0  0
    0.3344    0.2050    0.2873 C   0  0  0  0  0  0  0  0  0  0  0  0
    0.8086   -2.5623    0.1237 C   0  0  0  0  0  0  0  0  0  0  0  0
    1.8590   -1.6126    0.0754 C   0  0  0  0  0  0  0  0  0  0  0  0
    2.8235    0.6670    0.0915 C   0  0  0  0  0  0  0  0  0  0  0  0
    4.1121    0.1233   -0.0443 C   0  0  0  0  0  0  0  0  0  0  0  0
   -1.5823   -2.9915    0.3094 C   0  0  0  0  0  0  0  0  0  0  0  0
    1.0117   -3.9574    0.0439 C   0  0  0  0  0  0  0  0  0  0  0  0
    2.7222    2.0701    0.1610 C   0  0  0  0  0  0  0  0  0  0  0  0
    4.3204   -1.3397   -0.1253 C   0  0  0  0  0  0  0  0  0  0  0  0
    5.2477    0.9474   -0.1080 C   0  0  0  0  0  0  0  0  0  0  0  0
   -1.3580   -4.3649    0.2281 C   0  0  0  0  0  0  0  0  0  0  0  0
   -0.0617   -4.8478    0.0957 C   0  0  0  0  0  0  0  0  0  0  0  0
    5.1147    2.3302   -0.0371 C   0  0  0  0  0  0  0  0  0  0  0  0
    3.8521    2.8915    0.0976 C   0  0  0  0  0  0  0  0  0  0  0  0
    6.3204    3.2041   -0.1055 C   0  0  0  0  0  0  0  0  0  0  0  0
    0.8879    3.1418   -0.9080 C   0  0  0  0  0  0  0  0  0  0  0  0
   -4.7541   -0.4589    0.5417 H   0  0  0  0  0  0  0  0  0  0  0  0
   -5.3706    2.3331   -0.5369 H   0  0  0  0  0  0  0  0  0  0  0  0
   -3.5293   -0.8736   -1.5497 H   0  0  0  0  0  0  0  0  0  0  0  0
   -3.4553    1.5595    1.7584 H   0  0  0  0  0  0  0  0  0  0  0  0
   -1.6407    0.8249   -1.3365 H   0  0  0  0  0  0  0  0  0  0  0  0
   -2.8034    3.9492    1.6713 H   0  0  0  0  0  0  0  0  0  0  0  0
   -4.0322    4.2606    0.4548 H   0  0  0  0  0  0  0  0  0  0  0  0
   -4.5165    3.7692    2.0954 H   0  0  0  0  0  0  0  0  0  0  0  0
   -6.7991   -0.0326   -0.3592 H   0  0  0  0  0  0  0  0  0  0  0  0
   -6.2649    2.5579    1.4937 H   0  0  0  0  0  0  0  0  0  0  0  0
   -3.1587    0.8086   -3.0040 H   0  0  0  0  0  0  0  0  0  0  0  0
    0.0596    1.2346    0.4447 H   0  0  0  0  0  0  0  0  0  0  0  0
    2.0138   -4.3678   -0.0605 H   0  0  0  0  0  0  0  0  0  0  0  0
    6.2401    0.5153   -0.2155 H   0  0  0  0  0  0  0  0  0  0  0  0
   -2.1896   -5.0633    0.2679 H   0  0  0  0  0  0  0  0  0  0  0  0
    0.1170   -5.9171    0.0323 H   0  0  0  0  0  0  0  0  0  0  0  0
    3.7410    3.9724    0.1540 H   0  0  0  0  0  0  0  0  0  0  0  0
    6.1620    4.1424    0.4370 H   0  0  0  0  0  0  0  0  0  0  0  0
    7.1883    2.7148    0.3494 H   0  0  0  0  0  0  0  0  0  0  0  0
    6.5557    3.4387   -1.1484 H   0  0  0  0  0  0  0  0  0  0  0  0
   -2.9114   -1.7053    0.8243 H   0  0  0  0  0  0  0  0  0  0  0  0
    1.4015    3.9978   -1.3573 H   0  0  0  0  0  0  0  0  0  0  0  0
   -0.1320    3.4469   -0.6584 H   0  0  0  0  0  0  0  0  0  0  0  0
    0.8473    2.3221   -1.6329 H   0  0  0  0  0  0  0  0  0  0  0  0
  1 13  1  0  0  0  0
  1 14  1  0  0  0  0
  2 14  1  0  0  0  0
  2 16  1  0  0  0  0
  3 10  1  0  0  0  0
  3 43  1  0  0  0  0
  4 11  1  0  0  0  0
  4 44  1  0  0  0  0
  5 12  1  0  0  0  0
  5 45  1  0  0  0  0
  6 21  1  0  0  0  0
  6 27  1  0  0  0  0
  7 24  1  0  0  0  0
  7 55  1  0  0  0  0
  8 26  1  0  0  0  0
  8 34  1  0  0  0  0
  9 27  2  0  0  0  0
 10 11  1  0  0  0  0
 10 12  1  0  0  0  0
 10 35  1  0  0  0  0
 11 13  1  0  0  0  0
 11 36  1  0  0  0  0
 12 14  1  0  0  0  0
 12 37  1  0  0  0  0
 13 15  1  0  0  0  0
 13 38  1  0  0  0  0
 14 39  1  0  0  0  0
 15 40  1  0  0  0  0
 15 41  1  0  0  0  0
 15 42  1  0  0  0  0
 16 17  2  0  0  0  0
 16 19  1  0  0  0  0
 17 20  1  0  0  0  0
 17 24  1  0  0  0  0
 18 19  2  0  0  0  0
 18 21  1  0  0  0  0
 18 22  1  0  0  0  0
 19 46  1  0  0  0  0
 20 21  2  0  0  0  0
 20 25  1  0  0  0  0
 22 23  2  0  0  0  0
 22 26  1  0  0  0  0
 23 27  1  0  0  0  0
 23 28  1  0  0  0  0
 24 29  2  0  0  0  0
 25 30  2  0  0  0  0
 25 47  1  0  0  0  0
 26 32  2  0  0  0  0
 28 31  2  0  0  0  0
 28 48  1  0  0  0  0
 29 30  1  0  0  0  0
 29 49  1  0  0  0  0
 30 50  1  0  0  0  0
 31 32  1  0  0  0  0
 31 33  1  0  0  0  0
 32 51  1  0  0  0  0
 33 52  1  0  0  0  0
 33 53  1  0  0  0  0
 33 54  1  0  0  0  0
 34 56  1  0  0  0  0
 34 57  1  0  0  0  0
 34 58  1  0  0  0  0
M  END
> <PUBCHEM_COMPOUND_CID>
131512

> <PUBCHEM_CONFORMER_RMSD>
0.8

> <PUBCHEM_CONFORMER_DIVERSEORDER>
1
12
13
14
11
7
10
15
9
5
2
6
3
4
8

> <PUBCHEM_MMFF94_PARTIAL_CHARGES>
39
1 -0.56
10 0.28
11 0.28
12 0.28
13 0.28
14 0.56
16 0.08
19 -0.15
2 -0.36
21 0.08
23 0.09
24 0.08
25 -0.15
26 0.08
27 0.63
28 -0.15
29 -0.15
3 -0.68
30 -0.15
31 -0.14
32 -0.15
33 0.14
34 0.28
4 -0.68
43 0.4
44 0.4
45 0.4
46 0.15
47 0.15
48 0.15
49 0.15
5 -0.68
50 0.15
51 0.15
55 0.45
6 -0.23
7 -0.53
8 -0.36
9 -0.57

> <PUBCHEM_EFFECTIVE_ROTOR_COUNT>
4.2

> <PUBCHEM_PHARMACOPHORE_FEATURES>
16
1 1 acceptor
1 2 acceptor
1 3 acceptor
1 3 donor
1 4 acceptor
1 4 donor
1 5 acceptor
1 5 donor
1 7 donor
1 8 acceptor
1 9 acceptor
6 1 10 11 12 13 14 rings
6 16 17 18 19 20 21 rings
6 17 20 24 25 29 30 rings
6 22 23 26 28 31 32 rings
6 6 18 21 22 23 27 rings

> <PUBCHEM_HEAVY_ATOM_COUNT>
34

> <PUBCHEM_ATOM_DEF_STEREO_COUNT>
5

> <PUBCHEM_ATOM_UDEF_STEREO_COUNT>
0

> <PUBCHEM_BOND_DEF_STEREO_COUNT>
0

> <PUBCHEM_BOND_UDEF_STEREO_COUNT>
0

> <PUBCHEM_ISOTOPIC_ATOM_COUNT>
0

> <PUBCHEM_COMPONENT_COUNT>
1

> <PUBCHEM_CACTVS_TAUTO_COUNT>
3

> <PUBCHEM_CONFORMER_ID>
000201B800000001

> <PUBCHEM_MMFF94_ENERGY>
145.2377

> <PUBCHEM_FEATURE_SELFOVERLAP>
81.326

> <PUBCHEM_SHAPE_FINGERPRINT>
10050765 1 18338518664222556162
10411042 1 17401770718053593467
10439779 11 18267856367324934888
1100329 8 18410009897844599626
11135609 187 18336533981072502061
11513181 2 18202286935398951910
12144603 126 18131069300622276513
12788726 201 17901936775444191434
13140716 1 18335704918902823186
1361 2 18409449180804472385
138480 1 17690000033347590562
13911987 19 18335967762633073021
14790565 3 18339367353227044632
14849402 71 18194125118725591394
15320467 1 17834115247288825856
16112460 7 18411983542242732296
19319366 153 18271806766479070113
19591789 44 18337389319060455932
20028762 73 18200028426682585374
20739085 24 18189064100809540772
21033648 144 18259978284247593093
21033648 29 18270959171589280880
21033650 10 17559423329803790744
22311459 1 18337671890014001986
23558518 356 17972035018454948882
23559900 14 18342174475923465746
24771293 8 17983557630090603674
283562 15 18192146225228758619
3178227 256 18264499394477988338
335352 9 18410294701710725342
3380486 145 17977118073706238691
350125 39 18265619968678027131
392239 28 18339940285469991067
4258327 124 17387420248769491284
474 4 18339922611041212195
5104073 3 18259982708559871418
6058803 2 17985538950148239779
6371009 1 18266440062475781562
6700243 42 17262200258791261990

> <PUBCHEM_SHAPE_MULTIPOLES>
646.88
12.57
5.84
0.98
0.67
4.59
0.3
-11.52
0.67
0.29
-0.89
-1.36
-0.53
-0.63

> <PUBCHEM_SHAPE_SELFOVERLAP>
1438.645

> <PUBCHEM_SHAPE_VOLUME>
342.5

> <PUBCHEM_COORDINATE_TYPE>
2
5
10

$$$$
