131587
  -OEChem-03292013323D

 29 30  0     0  0  0  0  0  0999 V2000
    1.1187   -0.1971    0.5241 O   0  0  0  0  0  0  0  0  0  0  0  0
    2.7398    2.0889    1.0617 O   0  0  0  0  0  0  0  0  0  0  0  0
    2.8337   -2.2775   -0.4117 O   0  0  0  0  0  0  0  0  0  0  0  0
    0.7890    0.5982   -1.6117 O   0  0  0  0  0  0  0  0  0  0  0  0
    2.4768   -0.0905    0.2941 N   0  0  0  0  0  0  0  0  0  0  0  0
   -5.1680   -0.3123    0.5592 N   0  0  0  0  0  0  0  0  0  0  0  0
   -6.1199    0.3115   -0.2127 N   0  0  0  0  0  0  0  0  0  0  0  0
    4.5867    0.8054    0.1671 C   0  0  0  0  0  0  0  0  0  0  0  0
    4.6178   -0.6442   -0.3220 C   0  0  0  0  0  0  0  0  0  0  0  0
    3.1599    1.0488    0.5789 C   0  0  0  0  0  0  0  0  0  0  0  0
    3.2071   -1.1423   -0.1603 C   0  0  0  0  0  0  0  0  0  0  0  0
   -1.0953    0.0583   -0.2544 C   0  0  0  0  0  0  0  0  0  0  0  0
    0.3550    0.1891   -0.5455 C   0  0  0  0  0  0  0  0  0  0  0  0
   -1.9789    0.9230   -0.8671 C   0  0  0  0  0  0  0  0  0  0  0  0
   -1.5143   -0.9245    0.6188 C   0  0  0  0  0  0  0  0  0  0  0  0
   -3.7902   -0.1861    0.2846 C   0  0  0  0  0  0  0  0  0  0  0  0
   -3.3414    0.7994   -0.5945 C   0  0  0  0  0  0  0  0  0  0  0  0
   -2.8766   -1.0481    0.8913 C   0  0  0  0  0  0  0  0  0  0  0  0
    4.8658    1.5001   -0.6305 H   0  0  0  0  0  0  0  0  0  0  0  0
    5.2498    0.9490    1.0251 H   0  0  0  0  0  0  0  0  0  0  0  0
    5.2973   -1.2524    0.2822 H   0  0  0  0  0  0  0  0  0  0  0  0
    4.9131   -0.7025   -1.3737 H   0  0  0  0  0  0  0  0  0  0  0  0
   -1.6406    1.6971   -1.5496 H   0  0  0  0  0  0  0  0  0  0  0  0
   -0.8236   -1.6153    1.0930 H   0  0  0  0  0  0  0  0  0  0  0  0
   -4.0225    1.4933   -1.0796 H   0  0  0  0  0  0  0  0  0  0  0  0
   -3.2140   -1.8220    1.5760 H   0  0  0  0  0  0  0  0  0  0  0  0
   -5.4628   -1.0750    1.1582 H   0  0  0  0  0  0  0  0  0  0  0  0
   -6.9625    0.4339    0.3470 H   0  0  0  0  0  0  0  0  0  0  0  0
   -6.3783   -0.3109   -0.9774 H   0  0  0  0  0  0  0  0  0  0  0  0
  1  5  1  0  0  0  0
  1 13  1  0  0  0  0
  2 10  2  0  0  0  0
  3 11  2  0  0  0  0
  4 13  2  0  0  0  0
  5 10  1  0  0  0  0
  5 11  1  0  0  0  0
  6  7  1  0  0  0  0
  6 16  1  0  0  0  0
  6 27  1  0  0  0  0
  7 28  1  0  0  0  0
  7 29  1  0  0  0  0
  8  9  1  0  0  0  0
  8 10  1  0  0  0  0
  8 19  1  0  0  0  0
  8 20  1  0  0  0  0
  9 11  1  0  0  0  0
  9 21  1  0  0  0  0
  9 22  1  0  0  0  0
 12 13  1  0  0  0  0
 12 14  2  0  0  0  0
 12 15  1  0  0  0  0
 14 17  1  0  0  0  0
 14 23  1  0  0  0  0
 15 18  2  0  0  0  0
 15 24  1  0  0  0  0
 16 17  2  0  0  0  0
 16 18  1  0  0  0  0
 17 25  1  0  0  0  0
 18 26  1  0  0  0  0
M  END
> <PUBCHEM_COMPOUND_CID>
131587

> <PUBCHEM_CONFORMER_RMSD>
0.6

> <PUBCHEM_CONFORMER_DIVERSEORDER>
1
22
35
9
29
23
16
13
26
2
28
4
14
33
19
8
40
30
3
6
32
31
34
5
24
25
18
11
15
21
7
39
37
38
27
12
10
17
36
20

> <PUBCHEM_MMFF94_PARTIAL_CHARGES>
25
1 -0.19
10 0.57
11 0.57
12 0.09
13 0.63
14 -0.15
15 -0.15
16 0.1
17 -0.15
18 -0.15
2 -0.57
23 0.15
24 0.15
25 0.15
26 0.15
27 0.4
28 0.36
29 0.36
3 -0.57
4 -0.57
5 -0.08
6 -0.51
7 -0.71
8 0.06
9 0.06

> <PUBCHEM_EFFECTIVE_ROTOR_COUNT>
4.6

> <PUBCHEM_PHARMACOPHORE_FEATURES>
7
1 2 acceptor
1 3 acceptor
1 4 acceptor
1 6 donor
1 7 donor
5 5 8 9 10 11 rings
6 12 14 15 16 17 18 rings

> <PUBCHEM_HEAVY_ATOM_COUNT>
18

> <PUBCHEM_ATOM_DEF_STEREO_COUNT>
0

> <PUBCHEM_ATOM_UDEF_STEREO_COUNT>
0

> <PUBCHEM_BOND_DEF_STEREO_COUNT>
0

> <PUBCHEM_BOND_UDEF_STEREO_COUNT>
0

> <PUBCHEM_ISOTOPIC_ATOM_COUNT>
0

> <PUBCHEM_COMPONENT_COUNT>
1

> <PUBCHEM_CACTVS_TAUTO_COUNT>
6

> <PUBCHEM_CONFORMER_ID>
0002020300000001

> <PUBCHEM_MMFF94_ENERGY>
53.1604

> <PUBCHEM_FEATURE_SELFOVERLAP>
37.052

> <PUBCHEM_SHAPE_FINGERPRINT>
10354089 29 17918275363634646904
10366900 7 18410016545841615400
11471102 20 18272651255812508450
11552529 35 17845091955642541295
11615757 297 17846500343989923490
12107183 9 17482284707849738579
12236239 1 16487255469335095955
12507560 40 18409444765250979516
13167823 11 17917706929097932495
13533116 47 18342740672265481947
13544592 145 18334300825052595402
13583140 156 18129944602050626003
13675066 3 18187650228077655819
13760787 19 17632572790226591823
14252887 29 18113904844635511362
14341114 176 18342463646458015657
14386348 63 18186805772449957827
14573314 32 18335419028525301605
15219456 202 18409727352914162142
15375358 24 18114181947188049026
17834072 33 18131347548791268079
19141452 34 18334860545654703755
200 152 17917989477789690259
20279233 1 18334018289245044098
20510252 161 18261670377172506209
20645477 56 18333729135198812139
20645477 70 18272652294936703110
21033648 29 18337375094124140073
21267235 1 17530975674089656235
22854114 59 18411981381520397011
23048698 100 17632580461127755634
23402539 116 18335414686856586967
23557571 272 17822290145718109901
23559900 14 18333733550061435980
26918003 58 18413389843036100587
351380 180 18273214196954734985
3545911 37 18409730672686505104
42 15 18408045104376414631
449060 50 18408882966665233108
5104073 3 18188207589809328697
522135 26 18131070424658437834
69090 78 18410852179206151551
7364860 26 17896613957980917532
8272917 22 17917999338929353998
9709674 26 18334019418631870290

> <PUBCHEM_SHAPE_MULTIPOLES>
332.01
11.1
1.47
0.98
6.38
0.18
-0.08
-0.07
0.83
-1.25
0.1
-0.09
-0.18
1.18

> <PUBCHEM_SHAPE_SELFOVERLAP>
711.632

> <PUBCHEM_SHAPE_VOLUME>
184.7

> <PUBCHEM_COORDINATE_TYPE>
2
5
10

$$$$
