131544
  -OEChem-03292013323D

 56 59  0     1  0  0  0  0  0999 V2000
    3.9653    1.0740    0.3609 O   0  0  0  0  0  0  0  0  0  0  0  0
   -3.6033   -1.1393    1.0008 O   0  0  0  0  0  0  0  0  0  0  0  0
   -5.8761   -2.1117   -0.8050 O   0  0  0  0  0  0  0  0  0  0  0  0
    0.1895    3.5929    0.4845 O   0  0  0  0  0  0  0  0  0  0  0  0
   -4.2781    2.7475   -0.2042 O   0  0  0  0  0  0  0  0  0  0  0  0
   -1.7650   -3.2259    1.3473 O   0  0  0  0  0  0  0  0  0  0  0  0
    4.9112    0.1232   -0.2868 N   0  0  2  0  0  0  0  0  0  0  0  0
    1.6072    0.5639   -0.3835 N   0  0  0  0  0  0  0  0  0  0  0  0
   -2.8674    0.9308    0.1958 N   0  0  0  0  0  0  0  0  0  0  0  0
   -2.0475    3.1548    0.1402 N   0  0  0  0  0  0  0  0  0  0  0  0
    2.9612    0.1135   -0.0884 C   0  0  1  0  0  0  0  0  0  0  0  0
    3.8515   -0.0581   -1.3398 C   0  0  0  0  0  0  0  0  0  0  0  0
    4.7568   -1.0537    0.6362 C   0  0  0  0  0  0  0  0  0  0  0  0
    3.2216   -1.1245    0.7214 C   0  0  0  0  0  0  0  0  0  0  0  0
    3.8737   -1.3266   -2.1484 C   0  0  0  0  0  0  0  0  0  0  0  0
    3.8896    1.1227   -2.3010 C   0  0  0  0  0  0  0  0  0  0  0  0
    5.3662   -0.6867    2.0108 C   0  0  0  0  0  0  0  0  0  0  0  0
    5.4439   -2.3468    0.1809 C   0  0  0  0  0  0  0  0  0  0  0  0
    0.8752    0.8530    0.8405 C   0  0  0  0  0  0  0  0  0  0  0  0
   -0.5148    1.3275    0.5620 C   0  0  0  0  0  0  0  0  0  0  0  0
   -1.5692    0.5097    0.4539 C   0  0  0  0  0  0  0  0  0  0  0  0
   -3.9016   -0.0580    0.1064 C   0  0  1  0  0  0  0  0  0  0  0  0
   -0.7347    2.7890    0.3966 C   0  0  0  0  0  0  0  0  0  0  0  0
   -4.0348   -0.6473   -1.2883 C   0  0  0  0  0  0  0  0  0  0  0  0
   -4.4648   -2.0677   -1.0035 C   0  0  1  0  0  0  0  0  0  0  0  0
   -3.7479   -2.3899    0.3002 C   0  0  1  0  0  0  0  0  0  0  0  0
   -3.1517    2.3028    0.0268 C   0  0  0  0  0  0  0  0  0  0  0  0
   -2.3559   -2.9691    0.0838 C   0  0  0  0  0  0  0  0  0  0  0  0
    2.8644   -1.0295    1.7525 H   0  0  0  0  0  0  0  0  0  0  0  0
    2.7755   -2.0237    0.2878 H   0  0  0  0  0  0  0  0  0  0  0  0
    4.8200   -1.4423   -2.6894 H   0  0  0  0  0  0  0  0  0  0  0  0
    3.6788   -2.2494   -1.6027 H   0  0  0  0  0  0  0  0  0  0  0  0
    3.0847   -1.2973   -2.9115 H   0  0  0  0  0  0  0  0  0  0  0  0
    3.0097    1.1210   -2.9552 H   0  0  0  0  0  0  0  0  0  0  0  0
    3.9069    2.0997   -1.8038 H   0  0  0  0  0  0  0  0  0  0  0  0
    4.7758    1.0778   -2.9457 H   0  0  0  0  0  0  0  0  0  0  0  0
    1.0815   -0.1120   -0.9384 H   0  0  0  0  0  0  0  0  0  0  0  0
    5.2390   -1.5119    2.7216 H   0  0  0  0  0  0  0  0  0  0  0  0
    6.4388   -0.4768    1.9235 H   0  0  0  0  0  0  0  0  0  0  0  0
    4.8957    0.1938    2.4627 H   0  0  0  0  0  0  0  0  0  0  0  0
    5.8633   -2.2719   -0.8264 H   0  0  0  0  0  0  0  0  0  0  0  0
    6.3005   -2.6019    0.8169 H   0  0  0  0  0  0  0  0  0  0  0  0
    4.7636   -3.2044    0.2098 H   0  0  0  0  0  0  0  0  0  0  0  0
    0.8099   -0.0491    1.4622 H   0  0  0  0  0  0  0  0  0  0  0  0
    1.4111    1.5944    1.4458 H   0  0  0  0  0  0  0  0  0  0  0  0
   -1.4008   -0.5471    0.5830 H   0  0  0  0  0  0  0  0  0  0  0  0
   -4.8573    0.3743    0.4258 H   0  0  0  0  0  0  0  0  0  0  0  0
   -3.0695   -0.6514   -1.8090 H   0  0  0  0  0  0  0  0  0  0  0  0
   -4.7433   -0.0783   -1.8985 H   0  0  0  0  0  0  0  0  0  0  0  0
   -4.2237   -2.7644   -1.8119 H   0  0  0  0  0  0  0  0  0  0  0  0
   -4.3359   -3.0514    0.9461 H   0  0  0  0  0  0  0  0  0  0  0  0
   -2.2283    4.1478    0.0223 H   0  0  0  0  0  0  0  0  0  0  0  0
   -1.7001   -2.3089   -0.4883 H   0  0  0  0  0  0  0  0  0  0  0  0
   -2.4276   -3.9204   -0.4541 H   0  0  0  0  0  0  0  0  0  0  0  0
   -6.2958   -1.8440   -1.6404 H   0  0  0  0  0  0  0  0  0  0  0  0
   -0.8850   -3.6042    1.1802 H   0  0  0  0  0  0  0  0  0  0  0  0
  1  7  1  0  0  0  0
  1 11  1  0  0  0  0
  2 22  1  0  0  0  0
  2 26  1  0  0  0  0
  3 25  1  0  0  0  0
  3 55  1  0  0  0  0
  4 23  2  0  0  0  0
  5 27  2  0  0  0  0
  6 28  1  0  0  0  0
  6 56  1  0  0  0  0
  7 12  1  0  0  0  0
  7 13  1  0  0  0  0
  8 11  1  0  0  0  0
  8 19  1  0  0  0  0
  8 37  1  0  0  0  0
  9 21  1  0  0  0  0
  9 22  1  0  0  0  0
  9 27  1  0  0  0  0
 10 23  1  0  0  0  0
 10 27  1  0  0  0  0
 10 52  1  0  0  0  0
 11 12  1  0  0  0  0
 11 14  1  0  0  0  0
 12 15  1  0  0  0  0
 12 16  1  0  0  0  0
 13 14  1  0  0  0  0
 13 17  1  0  0  0  0
 13 18  1  0  0  0  0
 14 29  1  0  0  0  0
 14 30  1  0  0  0  0
 15 31  1  0  0  0  0
 15 32  1  0  0  0  0
 15 33  1  0  0  0  0
 16 34  1  0  0  0  0
 16 35  1  0  0  0  0
 16 36  1  0  0  0  0
 17 38  1  0  0  0  0
 17 39  1  0  0  0  0
 17 40  1  0  0  0  0
 18 41  1  0  0  0  0
 18 42  1  0  0  0  0
 18 43  1  0  0  0  0
 19 20  1  0  0  0  0
 19 44  1  0  0  0  0
 19 45  1  0  0  0  0
 20 21  2  0  0  0  0
 20 23  1  0  0  0  0
 21 46  1  0  0  0  0
 22 24  1  0  0  0  0
 22 47  1  0  0  0  0
 24 25  1  0  0  0  0
 24 48  1  0  0  0  0
 24 49  1  0  0  0  0
 25 26  1  0  0  0  0
 25 50  1  0  0  0  0
 26 28  1  0  0  0  0
 26 51  1  0  0  0  0
 28 53  1  0  0  0  0
 28 54  1  0  0  0  0
M  END
> <PUBCHEM_COMPOUND_CID>
131544

> <PUBCHEM_CONFORMER_RMSD>
0.8

> <PUBCHEM_CONFORMER_DIVERSEORDER>
2
143
71
11
131
32
28
63
17
25
21
138
130
88
59
142
116
126
119
41
61
101
47
6
135
134
123
51
29
78
95
89
107
133
80
24
37
13
42
91
64
58
44
60
53
19
93
18
45
10
31
36
38
86
69
103
94
98
117
83
70
145
34
68
54
82
129
132
33
127
5
56
100
112
140
118
106
3
113
23
20
124
7
67
75
125
104
55
30
46
76
141
52
66
114
65
50
4
110
96
121
137
35
144
9
81
87
49
77
122
39
111
57
43
97
15
136
108
16
128
12
62
105
120
74
22
73
109
79
84
99
27
102
48
14
90
72
139
8
40
1
115
85
92
26

> <PUBCHEM_MMFF94_PARTIAL_CHARGES>
27
1 -0.16
10 -0.49
11 0.47
12 0.21
13 0.27
19 0.41
2 -0.56
20 -0.12
21 -0.04
22 0.58
23 0.62
25 0.28
26 0.28
27 0.69
28 0.28
3 -0.68
37 0.36
4 -0.57
46 0.15
5 -0.57
52 0.37
55 0.4
56 0.4
6 -0.68
7 -0.58
8 -0.84
9 -0.47

> <PUBCHEM_EFFECTIVE_ROTOR_COUNT>
6.8

> <PUBCHEM_PHARMACOPHORE_FEATURES>
15
1 10 donor
1 2 acceptor
1 3 acceptor
1 3 donor
1 4 acceptor
1 5 acceptor
1 6 acceptor
1 6 donor
1 8 cation
1 8 donor
3 12 15 16 hydrophobe
3 13 17 18 hydrophobe
5 2 22 24 25 26 rings
6 1 7 11 12 13 14 rings
6 9 10 20 21 23 27 rings

> <PUBCHEM_HEAVY_ATOM_COUNT>
28

> <PUBCHEM_ATOM_DEF_STEREO_COUNT>
3

> <PUBCHEM_ATOM_UDEF_STEREO_COUNT>
1

> <PUBCHEM_BOND_DEF_STEREO_COUNT>
0

> <PUBCHEM_BOND_UDEF_STEREO_COUNT>
0

> <PUBCHEM_ISOTOPIC_ATOM_COUNT>
0

> <PUBCHEM_COMPONENT_COUNT>
1

> <PUBCHEM_CACTVS_TAUTO_COUNT>
3

> <PUBCHEM_CONFORMER_ID>
000201D800000002

> <PUBCHEM_MMFF94_ENERGY>
99.8976

> <PUBCHEM_FEATURE_SELFOVERLAP>
76.127

> <PUBCHEM_SHAPE_FINGERPRINT>
10483366 6 18339060629181579973
10622 236 17969772000081575186
10693767 8 17768786996132964151
10928967 22 18270694150231548710
11796584 16 18199186179485404082
12363563 72 18271251620053938143
12553582 1 18338810012563903755
12616971 3 17531253803239721336
12788726 201 18337117842456627458
13726171 33 18055385588895282892
13782708 43 17346330246084835502
14251757 5 18261684786534596203
14289585 56 16806730547624064414
14790565 3 17908990898804377465
14848178 96 10737550731177553357
14866123 147 18412829076017926371
15250474 111 18261107470084466042
15352361 1 18340766039407250939
17349148 13 17967535632264017656
17857418 61 18408598171583883178
1813 80 18202006576775951813
20403669 9 18271527593251694495
20511986 3 17822560630269252552
20775438 99 17190907955049141583
20775530 9 17763472003562195039
21315763 87 17131829914670629071
21728266 224 18336254661604514280
23536364 44 18265592374309515061
23557571 272 18272653420360331824
23559900 14 18268696376954560505
23572383 38 18201995487122771614
3004659 81 18113893871221300178
3027735 51 18342460301222213787
3178227 256 18266475230871632633
329604 57 18335984267374395295
338550 245 18189904115050761714
4280585 95 18336532932330231521
44062 13 18339645538248062173
508706 21 18341623585357516839
5104073 3 18131627872679918400
574716 61 17313394473130417158
633830 44 16588318141770675400
67856867 119 18259988184944386108
7970288 3 18340761663052633775
9709674 26 18342745074590850214

> <PUBCHEM_SHAPE_MULTIPOLES>
521.09
13.22
3.81
1.52
4.62
0.88
-0.58
-7.31
-1.45
-4.56
0.54
2.02
-0.39
-0.82

> <PUBCHEM_SHAPE_SELFOVERLAP>
1112.111

> <PUBCHEM_SHAPE_VOLUME>
293.3

> <PUBCHEM_COORDINATE_TYPE>
2
5
10

$$$$
