131674214
  -OEChem-03292013293D

 42 43  0     1  0  0  0  0  0999 V2000
    2.5331    1.5554    0.4410 O   0  0  0  0  0  0  0  0  0  0  0  0
    0.3791    0.1000    1.8685 O   0  0  0  0  0  0  0  0  0  0  0  0
   -1.9092   -0.1003    3.0401 O   0  0  0  0  0  0  0  0  0  0  0  0
   -1.9046    0.7655   -2.9163 O   0  0  0  0  0  0  0  0  0  0  0  0
   -4.2900    0.5851   -1.8885 O   0  0  0  0  0  0  0  0  0  0  0  0
    4.4480    1.7893   -0.8300 O   0  0  0  0  0  0  0  0  0  0  0  0
    2.1365    0.4365   -0.3436 C   0  0  2  0  0  0  0  0  0  0  0  0
    0.6404    0.4371   -0.4518 C   0  0  0  0  0  0  0  0  0  0  0  0
    2.7153   -0.8564    0.2426 C   0  0  0  0  0  0  0  0  0  0  0  0
   -1.6409    0.2506    0.6534 C   0  0  0  0  0  0  0  0  0  0  0  0
   -0.1696    0.2494    0.7828 C   0  0  0  0  0  0  0  0  0  0  0  0
   -2.2460    0.4235   -0.5924 C   0  0  0  0  0  0  0  0  0  0  0  0
    0.0444    0.6015   -1.6383 C   0  0  0  0  0  0  0  0  0  0  0  0
   -1.4237    0.6075   -1.8009 C   0  0  0  0  0  0  0  0  0  0  0  0
    2.4718   -2.0778   -0.6062 C   0  0  0  0  0  0  0  0  0  0  0  0
   -2.4338    0.0759    1.7939 C   0  0  0  0  0  0  0  0  0  0  0  0
   -3.6415    0.4226   -0.7005 C   0  0  0  0  0  0  0  0  0  0  0  0
    1.8555   -3.2213   -0.2514 C   0  0  0  0  0  0  0  0  0  0  0  0
   -3.8249    0.0752    1.6834 C   0  0  0  0  0  0  0  0  0  0  0  0
   -4.4275    0.2483    0.4388 C   0  0  0  0  0  0  0  0  0  0  0  0
    3.7167    2.1400    0.0861 C   0  0  0  0  0  0  0  0  0  0  0  0
    1.3222   -3.3977    1.1454 C   0  0  0  0  0  0  0  0  0  0  0  0
    1.6443   -4.4069   -1.1498 C   0  0  0  0  0  0  0  0  0  0  0  0
    4.0046    3.2972    0.9938 C   0  0  0  0  0  0  0  0  0  0  0  0
    2.5437    0.5470   -1.3592 H   0  0  0  0  0  0  0  0  0  0  0  0
    2.4094   -0.9806    1.2824 H   0  0  0  0  0  0  0  0  0  0  0  0
    3.8057   -0.7390    0.3140 H   0  0  0  0  0  0  0  0  0  0  0  0
    0.6234    0.7390   -2.5466 H   0  0  0  0  0  0  0  0  0  0  0  0
    2.8528   -2.0078   -1.6242 H   1  0  0  0  0  0  0  0  0  0  0  0
   -4.4465   -0.0603    2.5646 H   0  0  0  0  0  0  0  0  0  0  0  0
   -5.5118    0.2458    0.3640 H   0  0  0  0  0  0  0  0  0  0  0  0
    2.1614   -5.2864   -0.7530 H   1  0  0  0  0  0  0  0  0  0  0  0
    2.0275   -4.2203   -2.1585 H   1  0  0  0  0  0  0  0  0  0  0  0
    0.5769   -4.6346   -1.2348 H   1  0  0  0  0  0  0  0  0  0  0  0
    0.2731   -3.0882    1.1907 H   1  0  0  0  0  0  0  0  0  0  0  0
    1.8888   -2.8559    1.9057 H   1  0  0  0  0  0  0  0  0  0  0  0
    1.3723   -4.4525    1.4399 H   1  0  0  0  0  0  0  0  0  0  0  0
   -0.9409   -0.1022    3.0086 H   0  0  0  0  0  0  0  0  0  0  0  0
   -3.6560    0.6955   -2.6130 H   0  0  0  0  0  0  0  0  0  0  0  0
    3.2113    4.0436    0.9052 H   0  0  0  0  0  0  0  0  0  0  0  0
    4.9524    3.7593    0.7031 H   0  0  0  0  0  0  0  0  0  0  0  0
    4.0901    2.9462    2.0253 H   0  0  0  0  0  0  0  0  0  0  0  0
  1  7  1  0  0  0  0
  1 21  1  0  0  0  0
  2 11  2  0  0  0  0
  3 16  1  0  0  0  0
  3 38  1  0  0  0  0
  4 14  2  0  0  0  0
  5 17  1  0  0  0  0
  5 39  1  0  0  0  0
  6 21  2  0  0  0  0
  7  8  1  0  0  0  0
  7  9  1  0  0  0  0
  7 25  1  0  0  0  0
  8 11  1  0  0  0  0
  8 13  2  0  0  0  0
  9 15  1  0  0  0  0
  9 26  1  0  0  0  0
  9 27  1  0  0  0  0
 10 11  1  0  0  0  0
 10 12  1  0  0  0  0
 10 16  2  0  0  0  0
 12 14  1  0  0  0  0
 12 17  2  0  0  0  0
 13 14  1  0  0  0  0
 13 28  1  0  0  0  0
 15 18  2  0  0  0  0
 15 29  1  0  0  0  0
 16 19  1  0  0  0  0
 17 20  1  0  0  0  0
 18 22  1  0  0  0  0
 18 23  1  0  0  0  0
 19 20  2  0  0  0  0
 19 30  1  0  0  0  0
 20 31  1  0  0  0  0
 21 24  1  0  0  0  0
 22 35  1  0  0  0  0
 22 36  1  0  0  0  0
 22 37  1  0  0  0  0
 23 32  1  0  0  0  0
 23 33  1  0  0  0  0
 23 34  1  0  0  0  0
 24 40  1  0  0  0  0
 24 41  1  0  0  0  0
 24 42  1  0  0  0  0
M  ISO  7  29   2  32   2  33   2  34   2  35   2  36   2  37   2
M  END
> <PUBCHEM_COMPOUND_CID>
131674214

> <PUBCHEM_CONFORMER_RMSD>
0.8

> <PUBCHEM_CONFORMER_DIVERSEORDER>
1
63
89
32
95
79
30
80
84
3
33
52
62
49
46
68
39
27
41
16
37
36
77
58
78
20
61
35
2
82
17
85
28
14
29
74
86
44
48
21
43
4
42
92
96
40
90
47
53
81
25
73
97
5
72
7
94
6
18
24
70
88
11
65
51
93
10
55
9
59
23
87
8
91
83
45
60
57
67
38
66
22
54
50
69
71
19
12
76
26
31
64
56
75
34
15
13

> <PUBCHEM_MMFF94_PARTIAL_CHARGES>
30
1 -0.43
10 0.09
11 0.47
12 0.09
13 -0.14
14 0.47
15 -0.29
16 0.08
17 0.08
18 -0.28
19 -0.15
2 -0.57
20 -0.15
21 0.66
22 0.14
23 0.14
24 0.06
28 0.15
29 0.15
3 -0.53
30 0.15
31 0.15
38 0.45
39 0.45
4 -0.57
5 -0.53
6 -0.57
7 0.42
8 -0.12
9 0.14

> <PUBCHEM_EFFECTIVE_ROTOR_COUNT>
5

> <PUBCHEM_PHARMACOPHORE_FEATURES>
8
1 2 acceptor
1 3 donor
1 4 acceptor
1 5 donor
1 6 acceptor
3 18 22 23 hydrophobe
6 10 12 16 17 19 20 rings
6 8 10 11 12 13 14 rings

> <PUBCHEM_HEAVY_ATOM_COUNT>
24

> <PUBCHEM_ATOM_DEF_STEREO_COUNT>
0

> <PUBCHEM_ATOM_UDEF_STEREO_COUNT>
1

> <PUBCHEM_BOND_DEF_STEREO_COUNT>
0

> <PUBCHEM_BOND_UDEF_STEREO_COUNT>
0

> <PUBCHEM_ISOTOPIC_ATOM_COUNT>
7

> <PUBCHEM_COMPONENT_COUNT>
1

> <PUBCHEM_CACTVS_TAUTO_COUNT>
15

> <PUBCHEM_CONFORMER_ID>
07D9306600000001

> <PUBCHEM_MMFF94_ENERGY>
55.804

> <PUBCHEM_FEATURE_SELFOVERLAP>
40.618

> <PUBCHEM_SHAPE_FINGERPRINT>
11370993 70 18339086011299089050
11582403 64 16596121431558817060
121448 382 17913757586356980092
12236239 1 17418376900519345228
12363563 72 17687741645255163342
12788726 201 16751560163645760906
13533116 47 18266756709709780307
13583140 156 18198928936550875137
13681431 1 18122618350132602090
14787075 74 17341810384972549951
15219462 58 17979394968644120969
17138139 8 17485052500792516103
17980427 23 16878786169913028180
1813 80 17557153800670712494
18915476 22 18336262362259388286
20101258 96 17478335232471929550
20645477 70 18336546031943482870
22182313 1 17386295307399653099
2255824 54 18272654506944879182
23493267 7 16988574536308125895
23526113 38 17825945923360136306
23557571 272 17095819749345771847
23559900 14 18267578022666661194
23598291 2 17703241606742358184
266924 78 18270952471255136950
2748010 2 17313400997555004683
283562 15 17186143814431054504
3729539 64 18192458328513348470
394222 165 18059849575869671718
4340502 62 18269568284979317643
474 4 17915177034573782232
495365 180 18334568036484750272
59755656 520 18199191874807418876
621550 34 18259985980902911701
633830 44 17916883420669204592
8272917 22 18342185422787151376
84936 31 18410019822896406974
9925002 15 16964372326891545942

> <PUBCHEM_SHAPE_MULTIPOLES>
458.69
7.62
3.65
2.24
2.44
4.09
0
-4.2
0.11
-7.16
0
2.31
-0.22
0.86

> <PUBCHEM_SHAPE_SELFOVERLAP>
979.483

> <PUBCHEM_SHAPE_VOLUME>
252.5

> <PUBCHEM_COORDINATE_TYPE>
2
5
10

$$$$
