131685
  -OEChem-03292013323D

 58 60  0     1  0  0  0  0  0999 V2000
    0.7348    1.0244   -1.4693 O   0  0  0  0  0  0  0  0  0  0  0  0
   -2.3856   -1.3394    0.5829 O   0  0  0  0  0  0  0  0  0  0  0  0
    0.0034    2.4041   -3.1573 O   0  0  0  0  0  0  0  0  0  0  0  0
   -3.6312   -0.6941   -1.2357 O   0  0  0  0  0  0  0  0  0  0  0  0
   -2.7603    2.4241    1.5874 O   0  0  0  0  0  0  0  0  0  0  0  0
   -0.4991    2.5910    1.6337 O   0  0  0  0  0  0  0  0  0  0  0  0
   -1.6558    0.3813   -0.6649 N   0  0  0  0  0  0  0  0  0  0  0  0
    2.9920    0.4454   -0.9429 C   0  0  0  0  0  0  0  0  0  0  0  0
    2.7630    0.7672    0.5270 C   0  0  0  0  0  0  0  0  0  0  0  0
    2.7068   -1.0492   -0.9762 C   0  0  0  0  0  0  0  0  0  0  0  0
    2.4092   -0.4019    1.2378 C   0  0  0  0  0  0  0  0  0  0  0  0
    2.3747   -1.5163    0.3156 C   0  0  0  0  0  0  0  0  0  0  0  0
    2.0772    1.2388   -1.8674 C   0  0  0  0  0  0  0  0  0  0  0  0
    2.8797    1.9902    1.1673 C   0  0  0  0  0  0  0  0  0  0  0  0
    2.7588   -1.9101   -2.0605 C   0  0  0  0  0  0  0  0  0  0  0  0
    2.1599   -0.3508    2.5997 C   0  0  0  0  0  0  0  0  0  0  0  0
    2.0820   -2.8537    0.5282 C   0  0  0  0  0  0  0  0  0  0  0  0
   -1.6354    1.3591   -1.7245 C   0  0  2  0  0  0  0  0  0  0  0  0
    2.6282    2.0413    2.5396 C   0  0  0  0  0  0  0  0  0  0  0  0
    2.4639   -3.2576   -1.8458 C   0  0  0  0  0  0  0  0  0  0  0  0
    2.2710    0.8824    3.2487 C   0  0  0  0  0  0  0  0  0  0  0  0
    2.1280   -3.7247   -0.5643 C   0  0  0  0  0  0  0  0  0  0  0  0
   -0.2248    1.6699   -2.2014 C   0  0  0  0  0  0  0  0  0  0  0  0
   -2.4015    2.6294   -1.3221 C   0  0  0  0  0  0  0  0  0  0  0  0
   -3.3417   -2.3672    0.8656 C   0  0  0  0  0  0  0  0  0  0  0  0
   -1.7100    3.4998   -0.2644 C   0  0  0  0  0  0  0  0  0  0  0  0
   -2.6513   -0.5626   -0.5095 C   0  0  0  0  0  0  0  0  0  0  0  0
   -4.6973   -1.7122    1.1267 C   0  0  0  0  0  0  0  0  0  0  0  0
   -2.8592   -3.1159    2.1060 C   0  0  0  0  0  0  0  0  0  0  0  0
   -3.4139   -3.3082   -0.3362 C   0  0  0  0  0  0  0  0  0  0  0  0
   -1.5653    2.8155    1.0762 C   0  0  0  0  0  0  0  0  0  0  0  0
    4.0473    0.6129   -1.1893 H   0  0  0  0  0  0  0  0  0  0  0  0
    2.3088    2.3088   -1.7994 H   0  0  0  0  0  0  0  0  0  0  0  0
    2.2097    0.9177   -2.9076 H   0  0  0  0  0  0  0  0  0  0  0  0
    3.1582    2.8867    0.6245 H   0  0  0  0  0  0  0  0  0  0  0  0
    3.0219   -1.5547   -3.0507 H   0  0  0  0  0  0  0  0  0  0  0  0
    1.8844   -1.2373    3.1612 H   0  0  0  0  0  0  0  0  0  0  0  0
    1.8221   -3.2297    1.5121 H   0  0  0  0  0  0  0  0  0  0  0  0
   -2.1473    0.9039   -2.5820 H   0  0  0  0  0  0  0  0  0  0  0  0
    2.7094    2.9880    3.0671 H   0  0  0  0  0  0  0  0  0  0  0  0
    2.4953   -3.9550   -2.6786 H   0  0  0  0  0  0  0  0  0  0  0  0
    2.0795    0.9468    4.3166 H   0  0  0  0  0  0  0  0  0  0  0  0
    1.9021   -4.7782   -0.4214 H   0  0  0  0  0  0  0  0  0  0  0  0
   -2.5366    3.2500   -2.2174 H   0  0  0  0  0  0  0  0  0  0  0  0
   -3.4075    2.3585   -0.9781 H   0  0  0  0  0  0  0  0  0  0  0  0
   -0.8927    0.3774    0.0056 H   0  0  0  0  0  0  0  0  0  0  0  0
   -2.2844    4.4195   -0.1038 H   0  0  0  0  0  0  0  0  0  0  0  0
   -0.7150    3.8093   -0.6023 H   0  0  0  0  0  0  0  0  0  0  0  0
   -4.5924   -0.8479    1.7930 H   0  0  0  0  0  0  0  0  0  0  0  0
   -5.2153   -1.3645    0.2294 H   0  0  0  0  0  0  0  0  0  0  0  0
   -5.3803   -2.4241    1.6054 H   0  0  0  0  0  0  0  0  0  0  0  0
   -2.7602   -2.4329    2.9575 H   0  0  0  0  0  0  0  0  0  0  0  0
   -1.8650   -3.5457    1.9374 H   0  0  0  0  0  0  0  0  0  0  0  0
   -3.5428   -3.9235    2.3874 H   0  0  0  0  0  0  0  0  0  0  0  0
   -3.9834   -2.9205   -1.1845 H   0  0  0  0  0  0  0  0  0  0  0  0
   -3.9060   -4.2476   -0.0568 H   0  0  0  0  0  0  0  0  0  0  0  0
   -2.4105   -3.5523   -0.7042 H   0  0  0  0  0  0  0  0  0  0  0  0
   -2.6566    1.9576    2.4441 H   0  0  0  0  0  0  0  0  0  0  0  0
  1 13  1  0  0  0  0
  1 23  1  0  0  0  0
  2 25  1  0  0  0  0
  2 27  1  0  0  0  0
  3 23  2  0  0  0  0
  4 27  2  0  0  0  0
  5 31  1  0  0  0  0
  5 58  1  0  0  0  0
  6 31  2  0  0  0  0
  7 18  1  0  0  0  0
  7 27  1  0  0  0  0
  7 46  1  0  0  0  0
  8  9  1  0  0  0  0
  8 10  1  0  0  0  0
  8 13  1  0  0  0  0
  8 32  1  0  0  0  0
  9 11  1  0  0  0  0
  9 14  2  0  0  0  0
 10 12  1  0  0  0  0
 10 15  2  0  0  0  0
 11 12  1  0  0  0  0
 11 16  2  0  0  0  0
 12 17  2  0  0  0  0
 13 33  1  0  0  0  0
 13 34  1  0  0  0  0
 14 19  1  0  0  0  0
 14 35  1  0  0  0  0
 15 20  1  0  0  0  0
 15 36  1  0  0  0  0
 16 21  1  0  0  0  0
 16 37  1  0  0  0  0
 17 22  1  0  0  0  0
 17 38  1  0  0  0  0
 18 23  1  0  0  0  0
 18 24  1  0  0  0  0
 18 39  1  0  0  0  0
 19 21  2  0  0  0  0
 19 40  1  0  0  0  0
 20 22  2  0  0  0  0
 20 41  1  0  0  0  0
 21 42  1  0  0  0  0
 22 43  1  0  0  0  0
 24 26  1  0  0  0  0
 24 44  1  0  0  0  0
 24 45  1  0  0  0  0
 25 28  1  0  0  0  0
 25 29  1  0  0  0  0
 25 30  1  0  0  0  0
 26 31  1  0  0  0  0
 26 47  1  0  0  0  0
 26 48  1  0  0  0  0
 28 49  1  0  0  0  0
 28 50  1  0  0  0  0
 28 51  1  0  0  0  0
 29 52  1  0  0  0  0
 29 53  1  0  0  0  0
 29 54  1  0  0  0  0
 30 55  1  0  0  0  0
 30 56  1  0  0  0  0
 30 57  1  0  0  0  0
M  END
> <PUBCHEM_COMPOUND_CID>
131685

> <PUBCHEM_CONFORMER_RMSD>
1

> <PUBCHEM_CONFORMER_DIVERSEORDER>
1
33
47
43
175
151
140
11
51
34
172
100
180
120
4
118
116
126
17
15
124
71
182
35
49
121
115
132
160
19
30
178
108
38
183
97
142
22
10
40
94
91
13
99
14
103
74
61
18
37
141
90
122
179
88
62
146
149
114
6
68
45
106
41
161
184
163
170
93
129
80
148
44
166
167
54
153
128
42
96
92
123
21
77
137
9
131
76
56
125
78
152
2
12
158
8
72
164
104
176
101
81
171
102
59
64
32
16
66
130
174
133
79
7
143
173
162
136
46
134
135
95
31
83
89
70
155
5
57
159
105
23
73
50
25
157
67
113
98
112
117
145
29
52
84
177
139
3
53
144
119
63
20
39
55
138
26
169
127
107
24
27
181
111
58
156
48
168
165
28
65
87
86
147
69
109
154
110
82
75
36
60
150
85

> <PUBCHEM_MMFF94_PARTIAL_CHARGES>
35
1 -0.43
10 -0.14
13 0.28
14 -0.15
15 -0.15
16 -0.15
17 -0.15
18 0.36
19 -0.15
2 -0.43
20 -0.15
21 -0.15
22 -0.15
23 0.66
25 0.28
26 0.06
27 0.78
3 -0.57
31 0.66
35 0.15
36 0.15
37 0.15
38 0.15
4 -0.57
40 0.15
41 0.15
42 0.15
43 0.15
46 0.37
5 -0.65
58 0.5
6 -0.57
7 -0.73
8 0.29
9 -0.14

> <PUBCHEM_EFFECTIVE_ROTOR_COUNT>
11.2

> <PUBCHEM_PHARMACOPHORE_FEATURES>
10
1 3 acceptor
1 4 acceptor
1 5 acceptor
1 6 acceptor
1 7 donor
3 5 6 31 anion
4 25 28 29 30 hydrophobe
5 8 9 10 11 12 rings
6 10 12 15 17 20 22 rings
6 9 11 14 16 19 21 rings

> <PUBCHEM_HEAVY_ATOM_COUNT>
31

> <PUBCHEM_ATOM_DEF_STEREO_COUNT>
1

> <PUBCHEM_ATOM_UDEF_STEREO_COUNT>
0

> <PUBCHEM_BOND_DEF_STEREO_COUNT>
0

> <PUBCHEM_BOND_UDEF_STEREO_COUNT>
0

> <PUBCHEM_ISOTOPIC_ATOM_COUNT>
0

> <PUBCHEM_COMPONENT_COUNT>
1

> <PUBCHEM_CACTVS_TAUTO_COUNT>
2

> <PUBCHEM_CONFORMER_ID>
0002026500000001

> <PUBCHEM_MMFF94_ENERGY>
81.4329

> <PUBCHEM_FEATURE_SELFOVERLAP>
50.967

> <PUBCHEM_SHAPE_FINGERPRINT>
10366900 7 18201425965774441892
11421498 54 17978542984566266341
12553582 1 17968940936921080199
15664445 248 17896048787492350733
17921350 177 16627752117452185515
17974551 9 17771624555384046025
20600515 1 17678157490142012963
21315764 371 17485920049847798111
35225 105 17771365096826393721
3797600 57 18045201989713688456
6823239 73 18114475542457331383
9981440 41 17267446930341507688

> <PUBCHEM_SHAPE_MULTIPOLES>
597.77
6.88
5
3.08
4.97
1.34
0.56
3.92
1.7
1.94
-0.25
-1.61
-1.26
2.67

> <PUBCHEM_SHAPE_SELFOVERLAP>
1277.101

> <PUBCHEM_SHAPE_VOLUME>
332.8

> <PUBCHEM_COORDINATE_TYPE>
2
5
10

$$$$
