131676010
  -OEChem-03292013293D

 59 63  0     1  0  0  0  0  0999 V2000
    0.4952   -0.9090   -2.1559 O   0  0  0  0  0  0  0  0  0  0  0  0
    2.4061   -2.0395   -1.4269 O   0  0  0  0  0  0  0  0  0  0  0  0
    1.0345   -3.0216    0.7501 O   0  0  0  0  0  0  0  0  0  0  0  0
   -2.4165    1.8685   -0.5363 O   0  0  0  0  0  0  0  0  0  0  0  0
    3.6089    0.3335   -1.6936 O   0  0  0  0  0  0  0  0  0  0  0  0
    2.6779   -1.1450    1.6991 O   0  0  0  0  0  0  0  0  0  0  0  0
   -3.7540    2.5560    1.2173 O   0  0  0  0  0  0  0  0  0  0  0  0
   -0.9382   -0.1050   -0.2786 C   0  0  1  0  0  0  0  0  0  0  0  0
    1.6224   -0.0505   -0.2422 C   0  0  1  0  0  0  0  0  0  0  0  0
    0.3254    0.6654    0.2885 C   0  0  1  0  0  0  0  0  0  0  0  0
   -0.8716   -1.5344    0.3983 C   0  0  2  0  0  0  0  0  0  0  0  0
    1.2386   -1.3420   -0.9995 C   0  0  1  0  0  0  0  0  0  0  0  0
    0.3035   -2.3100   -0.2416 C   0  0  1  0  0  0  0  0  0  0  0  0
    2.4743    0.9505   -1.0920 C   0  0  1  0  0  0  0  0  0  0  0  0
   -2.2486   -2.3023    0.5414 C   0  0  0  0  0  0  0  0  0  0  0  0
   -2.2813    0.5801    0.0621 C   0  0  2  0  0  0  0  0  0  0  0  0
   -0.7247   -0.2381   -1.8130 C   0  0  0  0  0  0  0  0  0  0  0  0
    0.3612    2.1943    0.0614 C   0  0  0  0  0  0  0  0  0  0  0  0
    2.9224    1.9796   -0.0467 C   0  0  1  0  0  0  0  0  0  0  0  0
    2.5748   -0.1948    0.9435 C   0  0  0  0  0  0  0  0  0  0  0  0
    1.7226    2.8389    0.3802 C   0  0  0  0  0  0  0  0  0  0  0  0
   -3.3106   -1.7383   -0.4190 C   0  0  0  0  0  0  0  0  0  0  0  0
   -3.5206   -0.2323   -0.3274 C   0  0  0  0  0  0  0  0  0  0  0  0
    3.3555    1.0713    1.0784 C   0  0  0  0  0  0  0  0  0  0  0  0
   -2.7633   -2.1444    1.9979 C   0  0  0  0  0  0  0  0  0  0  0  0
   -2.1684   -3.8244    0.2872 C   0  0  0  0  0  0  0  0  0  0  0  0
    4.2961    1.2707    2.0025 C   0  0  0  0  0  0  0  0  0  0  0  0
   -3.1846    2.7611    0.1539 C   0  0  0  0  0  0  0  0  0  0  0  0
   -3.2369    4.0617   -0.5889 C   0  0  0  0  0  0  0  0  0  0  0  0
    0.2926    0.5611    1.3841 H   0  0  0  0  0  0  0  0  0  0  0  0
   -0.5619   -1.3653    1.4410 H   0  0  0  0  0  0  0  0  0  0  0  0
   -0.0552   -3.0466   -0.9665 H   0  0  0  0  0  0  0  0  0  0  0  0
    1.8980    1.4034   -1.9059 H   0  0  0  0  0  0  0  0  0  0  0  0
   -2.2773    0.7016    1.1537 H   0  0  0  0  0  0  0  0  0  0  0  0
   -1.5311   -0.7895   -2.2997 H   0  0  0  0  0  0  0  0  0  0  0  0
   -0.6984    0.7442   -2.2962 H   0  0  0  0  0  0  0  0  0  0  0  0
   -0.3898    2.6850    0.6895 H   0  0  0  0  0  0  0  0  0  0  0  0
    0.1028    2.4310   -0.9770 H   0  0  0  0  0  0  0  0  0  0  0  0
    3.7606    2.5953   -0.3900 H   0  0  0  0  0  0  0  0  0  0  0  0
    1.7681    3.8014   -0.1451 H   0  0  0  0  0  0  0  0  0  0  0  0
    1.7761    3.0773    1.4502 H   0  0  0  0  0  0  0  0  0  0  0  0
   -4.2781   -2.2318   -0.2541 H   0  0  0  0  0  0  0  0  0  0  0  0
   -3.0388   -1.9994   -1.4486 H   0  0  0  0  0  0  0  0  0  0  0  0
   -3.9284    0.1205   -1.2841 H   0  0  0  0  0  0  0  0  0  0  0  0
   -4.3126   -0.0270    0.4050 H   0  0  0  0  0  0  0  0  0  0  0  0
   -1.4531   -4.3154    0.9524 H   0  0  0  0  0  0  0  0  0  0  0  0
   -2.0792   -2.6257    2.7068 H   0  0  0  0  0  0  0  0  0  0  0  0
   -1.9005   -4.0538   -0.7489 H   0  0  0  0  0  0  0  0  0  0  0  0
   -3.1407   -4.3004    0.4663 H   0  0  0  0  0  0  0  0  0  0  0  0
   -3.7469   -2.6121    2.1235 H   0  0  0  0  0  0  0  0  0  0  0  0
   -2.8605   -1.0979    2.2985 H   0  0  0  0  0  0  0  0  0  0  0  0
    2.1706   -2.9713   -1.5706 H   0  0  0  0  0  0  0  0  0  0  0  0
    0.4086   -3.5212    1.2979 H   0  0  0  0  0  0  0  0  0  0  0  0
    4.1176    1.0320   -2.1397 H   0  0  0  0  0  0  0  0  0  0  0  0
    4.8517    2.2018    2.0329 H   0  0  0  0  0  0  0  0  0  0  0  0
    4.5334    0.5186    2.7468 H   0  0  0  0  0  0  0  0  0  0  0  0
   -2.2290    4.4726   -0.6875 H   0  0  0  0  0  0  0  0  0  0  0  0
   -3.8505    4.7741   -0.0301 H   0  0  0  0  0  0  0  0  0  0  0  0
   -3.6886    3.9086   -1.5722 H   0  0  0  0  0  0  0  0  0  0  0  0
  1 12  1  0  0  0  0
  1 17  1  0  0  0  0
  2 12  1  0  0  0  0
  2 52  1  0  0  0  0
  3 13  1  0  0  0  0
  3 53  1  0  0  0  0
  4 16  1  0  0  0  0
  4 28  1  0  0  0  0
  5 14  1  0  0  0  0
  5 54  1  0  0  0  0
  6 20  2  0  0  0  0
  7 28  2  0  0  0  0
  8 10  1  0  0  0  0
  8 11  1  0  0  0  0
  8 16  1  0  0  0  0
  8 17  1  0  0  0  0
  9 10  1  0  0  0  0
  9 12  1  0  0  0  0
  9 14  1  0  0  0  0
  9 20  1  0  0  0  0
 10 18  1  0  0  0  0
 10 30  1  0  0  0  0
 11 13  1  0  0  0  0
 11 15  1  0  0  0  0
 11 31  1  0  0  0  0
 12 13  1  0  0  0  0
 13 32  1  0  0  0  0
 14 19  1  0  0  0  0
 14 33  1  0  0  0  0
 15 22  1  0  0  0  0
 15 25  1  0  0  0  0
 15 26  1  0  0  0  0
 16 23  1  0  0  0  0
 16 34  1  0  0  0  0
 17 35  1  0  0  0  0
 17 36  1  0  0  0  0
 18 21  1  0  0  0  0
 18 37  1  0  0  0  0
 18 38  1  0  0  0  0
 19 21  1  0  0  0  0
 19 24  1  0  0  0  0
 19 39  1  0  0  0  0
 20 24  1  0  0  0  0
 21 40  1  0  0  0  0
 21 41  1  0  0  0  0
 22 23  1  0  0  0  0
 22 42  1  0  0  0  0
 22 43  1  0  0  0  0
 23 44  1  0  0  0  0
 23 45  1  0  0  0  0
 24 27  2  0  0  0  0
 25 47  1  0  0  0  0
 25 50  1  0  0  0  0
 25 51  1  0  0  0  0
 26 46  1  0  0  0  0
 26 48  1  0  0  0  0
 26 49  1  0  0  0  0
 27 55  1  0  0  0  0
 27 56  1  0  0  0  0
 28 29  1  0  0  0  0
 29 57  1  0  0  0  0
 29 58  1  0  0  0  0
 29 59  1  0  0  0  0
M  END
> <PUBCHEM_COMPOUND_CID>
131676010

> <PUBCHEM_CONFORMER_RMSD>
0.8

> <PUBCHEM_CONFORMER_DIVERSEORDER>
2
1

> <PUBCHEM_MMFF94_PARTIAL_CHARGES>
24
1 -0.56
12 0.56
13 0.28
14 0.28
16 0.28
17 0.28
19 0.14
2 -0.68
20 0.49
24 -0.12
27 -0.3
28 0.66
29 0.06
3 -0.68
4 -0.43
5 -0.68
52 0.4
53 0.4
54 0.4
55 0.15
56 0.15
6 -0.57
7 -0.57
9 0.06

> <PUBCHEM_EFFECTIVE_ROTOR_COUNT>
4

> <PUBCHEM_PHARMACOPHORE_FEATURES>
13
1 1 acceptor
1 2 acceptor
1 2 donor
1 3 acceptor
1 3 donor
1 5 acceptor
1 5 donor
1 6 acceptor
1 7 acceptor
3 15 25 26 hydrophobe
6 8 11 15 16 22 23 rings
8 1 8 9 10 11 12 13 17 rings
8 9 10 14 18 19 20 21 24 rings

> <PUBCHEM_HEAVY_ATOM_COUNT>
29

> <PUBCHEM_ATOM_DEF_STEREO_COUNT>
8

> <PUBCHEM_ATOM_UDEF_STEREO_COUNT>
1

> <PUBCHEM_BOND_DEF_STEREO_COUNT>
0

> <PUBCHEM_BOND_UDEF_STEREO_COUNT>
0

> <PUBCHEM_ISOTOPIC_ATOM_COUNT>
0

> <PUBCHEM_COMPONENT_COUNT>
1

> <PUBCHEM_CACTVS_TAUTO_COUNT>
1

> <PUBCHEM_CONFORMER_ID>
07D9376A00000002

> <PUBCHEM_MMFF94_ENERGY>
131.7598

> <PUBCHEM_FEATURE_SELFOVERLAP>
66.079

> <PUBCHEM_SHAPE_FINGERPRINT>
10006869 2 17907290310254524641
10165383 225 18047499758282638309
10863032 1 18408324401931436670
10906281 52 18339367486919351693
10948715 1 18201422667487361136
10967382 1 17689717454906883789
1100329 8 17977104556884741547
12403259 226 18127419070769604238
12553582 1 18048326827344755387
12633257 1 18264489662187330723
12788726 201 18119252997884011105
13140716 1 18050001387927466235
13224815 77 18199755919317974631
13965767 371 17898559878592318888
14081887 123 18338236089032422387
14178342 30 18408597076245851488
14223421 5 18338801224865539567
14787075 74 16889771562294996158
14790565 3 17690856557728362836
14955137 171 17544482951394556147
16945 1 18197504128015239342
17974551 9 18192682636710153240
17980427 26 17835497350726487789
18981168 100 17775015578071799930
20691752 17 18118403947574885733
20905425 154 18342181076317177815
21033648 29 17559655391492543392
22182313 1 18060145366452538596
2334 1 18338799992542137647
23419403 2 17559424429409467876
23493267 7 18410586067226907244
23558518 356 18336541638698152919
23559900 14 18339932592640537278
2748010 2 18271817799748978174
3178227 256 17618527397266469713
350125 39 18265062344905805431
463206 1 14590089507717388580
469060 322 17340949458826137751
7097593 13 18114726162741967546
7808743 9 18262818318667110460
81228 2 18188501262983490277
90316 7 18050003595387889971
9709674 26 18413388760910076655
9981440 41 17915713492777830306

> <PUBCHEM_SHAPE_MULTIPOLES>
555.72
6.58
4.3
1.62
1.47
1.96
-0.04
2.06
1.99
-4.39
0.42
0.87
-0.47
0.77

> <PUBCHEM_SHAPE_SELFOVERLAP>
1221.331

> <PUBCHEM_SHAPE_VOLUME>
289.4

> <PUBCHEM_COORDINATE_TYPE>
2
5
10

$$$$
