131632597
  -OEChem-03292013293D

 57 61  0     1  0  0  0  0  0999 V2000
    1.3206    0.5112    1.4094 O   0  0  0  0  0  0  0  0  0  0  0  0
    2.6806    0.2207   -1.1107 O   0  0  0  0  0  0  0  0  0  0  0  0
   -3.5032    0.7674   -0.4014 O   0  0  0  0  0  0  0  0  0  0  0  0
   -2.7979   -2.8376   -0.1385 O   0  0  0  0  0  0  0  0  0  0  0  0
    2.7884    0.3330    3.7130 O   0  0  0  0  0  0  0  0  0  0  0  0
   -5.4238   -2.7464    0.4964 O   0  0  0  0  0  0  0  0  0  0  0  0
   -7.6918   -1.4830    0.6025 O   0  0  0  0  0  0  0  0  0  0  0  0
    7.3593   -1.7967   -0.1811 O   0  0  0  0  0  0  0  0  0  0  0  0
   -7.5782    3.1817   -0.2657 O   0  0  0  0  0  0  0  0  0  0  0  0
    8.8893    0.4874   -0.5907 O   0  0  0  0  0  0  0  0  0  0  0  0
    3.2713    0.8981    0.0126 C   0  0  1  0  0  0  0  0  0  0  0  0
    2.7405    0.2972    1.3246 C   0  0  1  0  0  0  0  0  0  0  0  0
   -2.9337   -0.5036   -0.7525 C   0  0  1  0  0  0  0  0  0  0  0  0
   -1.4299   -0.3173   -0.8271 C   0  0  0  0  0  0  0  0  0  0  0  0
   -3.3224   -1.5829    0.2594 C   0  0  1  0  0  0  0  0  0  0  0  0
    0.6713    0.1910    0.2487 C   0  0  0  0  0  0  0  0  0  0  0  0
    1.3319    0.0401   -0.9698 C   0  0  0  0  0  0  0  0  0  0  0  0
    4.7718    0.7852   -0.1472 C   0  0  0  0  0  0  0  0  0  0  0  0
   -0.7126    0.0279    0.3184 C   0  0  0  0  0  0  0  0  0  0  0  0
    3.3472    0.9461    2.5657 C   0  0  0  0  0  0  0  0  0  0  0  0
   -0.7652   -0.4956   -2.0404 C   0  0  0  0  0  0  0  0  0  0  0  0
   -4.8311   -1.6926    0.2973 C   0  0  0  0  0  0  0  0  0  0  0  0
    0.6165   -0.3182   -2.1129 C   0  0  0  0  0  0  0  0  0  0  0  0
   -5.5674   -0.4264    0.1142 C   0  0  0  0  0  0  0  0  0  0  0  0
   -4.8585    0.7330   -0.2088 C   0  0  0  0  0  0  0  0  0  0  0  0
    5.3873   -0.4652   -0.0890 C   0  0  0  0  0  0  0  0  0  0  0  0
    5.5394    1.9313   -0.3538 C   0  0  0  0  0  0  0  0  0  0  0  0
   -6.9533   -0.3817    0.2895 C   0  0  0  0  0  0  0  0  0  0  0  0
   -5.5355    1.9486   -0.3228 C   0  0  0  0  0  0  0  0  0  0  0  0
    6.7703   -0.5695   -0.2375 C   0  0  0  0  0  0  0  0  0  0  0  0
    6.9225    1.8271   -0.5020 C   0  0  0  0  0  0  0  0  0  0  0  0
   -6.9185    1.9968   -0.1448 C   0  0  0  0  0  0  0  0  0  0  0  0
   -7.6263    0.8332    0.1561 C   0  0  0  0  0  0  0  0  0  0  0  0
    7.5380    0.5767   -0.4440 C   0  0  0  0  0  0  0  0  0  0  0  0
    6.5029   -2.9169    0.0331 C   0  0  0  0  0  0  0  0  0  0  0  0
    2.9716    1.9539   -0.0574 H   0  0  0  0  0  0  0  0  0  0  0  0
    2.8946   -0.7897    1.3721 H   0  0  0  0  0  0  0  0  0  0  0  0
   -3.3011   -0.7776   -1.7526 H   0  0  0  0  0  0  0  0  0  0  0  0
   -2.9834   -1.3543    1.2762 H   0  0  0  0  0  0  0  0  0  0  0  0
   -1.2195    0.1728    1.2689 H   0  0  0  0  0  0  0  0  0  0  0  0
    3.1056    2.0135    2.6050 H   0  0  0  0  0  0  0  0  0  0  0  0
    4.4326    0.8192    2.6048 H   0  0  0  0  0  0  0  0  0  0  0  0
   -1.3107   -0.7684   -2.9398 H   0  0  0  0  0  0  0  0  0  0  0  0
    1.1256   -0.4499   -3.0638 H   0  0  0  0  0  0  0  0  0  0  0  0
    4.7441   -1.3249    0.0616 H   0  0  0  0  0  0  0  0  0  0  0  0
    5.0742    2.9122   -0.4012 H   0  0  0  0  0  0  0  0  0  0  0  0
   -4.9820    2.8542   -0.5599 H   0  0  0  0  0  0  0  0  0  0  0  0
   -3.0016   -3.4771    0.5653 H   0  0  0  0  0  0  0  0  0  0  0  0
    7.5086    2.7282   -0.6623 H   0  0  0  0  0  0  0  0  0  0  0  0
   -8.7041    0.8762    0.2939 H   0  0  0  0  0  0  0  0  0  0  0  0
    3.1822    0.7649    4.4901 H   0  0  0  0  0  0  0  0  0  0  0  0
   -7.1258   -2.2672    0.6662 H   0  0  0  0  0  0  0  0  0  0  0  0
   -6.9353    3.8807   -0.4758 H   0  0  0  0  0  0  0  0  0  0  0  0
    9.2529    1.3795   -0.7245 H   0  0  0  0  0  0  0  0  0  0  0  0
    5.7977   -3.0503   -0.7944 H   0  0  0  0  0  0  0  0  0  0  0  0
    6.0015   -2.8626    1.0055 H   0  0  0  0  0  0  0  0  0  0  0  0
    7.1386   -3.8084    0.0541 H   0  0  0  0  0  0  0  0  0  0  0  0
  1 12  1  0  0  0  0
  1 16  1  0  0  0  0
  2 11  1  0  0  0  0
  2 17  1  0  0  0  0
  3 13  1  0  0  0  0
  3 25  1  0  0  0  0
  4 15  1  0  0  0  0
  4 48  1  0  0  0  0
  5 20  1  0  0  0  0
  5 51  1  0  0  0  0
  6 22  2  0  0  0  0
  7 28  1  0  0  0  0
  7 52  1  0  0  0  0
  8 30  1  0  0  0  0
  8 35  1  0  0  0  0
  9 32  1  0  0  0  0
  9 53  1  0  0  0  0
 10 34  1  0  0  0  0
 10 54  1  0  0  0  0
 11 12  1  0  0  0  0
 11 18  1  0  0  0  0
 11 36  1  0  0  0  0
 12 20  1  0  0  0  0
 12 37  1  0  0  0  0
 13 14  1  0  0  0  0
 13 15  1  0  0  0  0
 13 38  1  0  0  0  0
 14 19  2  0  0  0  0
 14 21  1  0  0  0  0
 15 22  1  0  0  0  0
 15 39  1  0  0  0  0
 16 17  2  0  0  0  0
 16 19  1  0  0  0  0
 17 23  1  0  0  0  0
 18 26  2  0  0  0  0
 18 27  1  0  0  0  0
 19 40  1  0  0  0  0
 20 41  1  0  0  0  0
 20 42  1  0  0  0  0
 21 23  2  0  0  0  0
 21 43  1  0  0  0  0
 22 24  1  0  0  0  0
 23 44  1  0  0  0  0
 24 25  1  0  0  0  0
 24 28  2  0  0  0  0
 25 29  2  0  0  0  0
 26 30  1  0  0  0  0
 26 45  1  0  0  0  0
 27 31  2  0  0  0  0
 27 46  1  0  0  0  0
 28 33  1  0  0  0  0
 29 32  1  0  0  0  0
 29 47  1  0  0  0  0
 30 34  2  0  0  0  0
 31 34  1  0  0  0  0
 31 49  1  0  0  0  0
 32 33  2  0  0  0  0
 33 50  1  0  0  0  0
 35 55  1  0  0  0  0
 35 56  1  0  0  0  0
 35 57  1  0  0  0  0
M  END
> <PUBCHEM_COMPOUND_CID>
131632597

> <PUBCHEM_CONFORMER_RMSD>
1

> <PUBCHEM_CONFORMER_DIVERSEORDER>
1
120
276
173
51
65
349
22
304
68
374
428
441
3
147
93
20
13
364
265
30
512
274
180
96
170
194
375
95
78
154
85
37
301
9
156
54
497
456
405
136
8
465
92
153
498
111
395
288
69
310
210
525
398
182
134
343
82
193
506
62
108
48
216
70
132
324
453
280
15
127
249
399
116
119
11
383
402
272
133
356
102
198
55
278
414
161
109
440
396
311
4
347
514
57
34
12
202
267
262
2
159
176
17
313
99
75
52
239
242
157
289
40
138
309
49
167
38
244
335
488
137
323
181
14
325
141
192
391
80
355
129
18
149
376
86
195
212
71
118
163
53
418
32
47
91
83
46
97
330
363
155
250
241
36
207
184
220
411
314
115
21
187
353
41
264
135
175
148
67
23
100
121
306
103
319
16
10
29
227
74
370
45
209
112
246
229
44
59
105
144
28
94
27
24

> <PUBCHEM_MMFF94_PARTIAL_CHARGES>
48
1 -0.36
10 -0.53
11 0.42
12 0.28
13 0.42
14 -0.14
15 0.34
16 0.08
17 0.08
18 -0.14
19 -0.15
2 -0.36
20 0.28
21 -0.15
22 0.42
23 -0.15
24 0.09
25 0.08
26 -0.15
27 -0.15
28 0.08
29 -0.15
3 -0.36
30 0.08
31 -0.15
32 0.08
33 -0.15
34 0.08
35 0.28
4 -0.68
40 0.15
43 0.15
44 0.15
45 0.15
46 0.15
47 0.15
48 0.4
49 0.15
5 -0.68
50 0.15
51 0.4
52 0.45
53 0.45
54 0.45
6 -0.57
7 -0.53
8 -0.36
9 -0.53

> <PUBCHEM_EFFECTIVE_ROTOR_COUNT>
5.4

> <PUBCHEM_PHARMACOPHORE_FEATURES>
17
1 1 acceptor
1 10 donor
1 2 acceptor
1 3 acceptor
1 4 acceptor
1 4 donor
1 5 acceptor
1 5 donor
1 6 acceptor
1 7 donor
1 8 acceptor
1 9 donor
6 1 2 11 12 16 17 rings
6 14 16 17 19 21 23 rings
6 18 26 27 30 31 34 rings
6 24 25 28 29 32 33 rings
6 3 13 15 22 24 25 rings

> <PUBCHEM_HEAVY_ATOM_COUNT>
35

> <PUBCHEM_ATOM_DEF_STEREO_COUNT>
1

> <PUBCHEM_ATOM_UDEF_STEREO_COUNT>
3

> <PUBCHEM_BOND_DEF_STEREO_COUNT>
0

> <PUBCHEM_BOND_UDEF_STEREO_COUNT>
0

> <PUBCHEM_ISOTOPIC_ATOM_COUNT>
0

> <PUBCHEM_COMPONENT_COUNT>
1

> <PUBCHEM_CACTVS_TAUTO_COUNT>
117

> <PUBCHEM_CONFORMER_ID>
07D88DD500000001

> <PUBCHEM_MMFF94_ENERGY>
116.4734

> <PUBCHEM_FEATURE_SELFOVERLAP>
86.363

> <PUBCHEM_SHAPE_FINGERPRINT>
10 15 18201442497245943647
100830 39 18409167680374891317
102385 1 15765872333192596628
10299344 5 17967250909949288906
10319688 140 16878772795981351186
10319926 262 18341885329581127419
10411042 1 17904768027599495555
10580692 12 18408325496921295918
10674148 151 18187364333859237738
11181472 205 18130236956459423044
11719270 70 17775005661625810358
12082328 90 18408603678143374351
12236239 1 17458347464151279127
12664476 115 17846501435745547593
12838862 33 16486965186340472796
13617811 41 14779267497663939430
13885169 127 18408324389035784031
14118638 360 15502361306163229965
14840074 17 16370718240518567403
14933364 13 18408041822900367148
15131766 46 17911233138205594996
15142383 8 18201998824987613004
15183329 4 16702304559471855324
15301273 46 17967812730099478030
15328829 1 17313107440956752581
15461852 350 18201994457227192407
15537594 2 16226040111084376194
1577012 14 17603858984639286417
19611394 137 18265061404587679513
19841028 212 18338517427478242682
20105231 36 16660370255161211410
21033648 29 17917135204220201321
21130935 74 18334015012369977362
21344244 181 17530967948135179322
21521721 280 16081376301852066532
21792938 703 16515697658003964219
21792961 116 17703799093892939876
22149856 69 14779822690199659244
22224240 67 16081087108486782752
22311459 1 16200435767129341724
23516275 137 18042137461659952250
23559900 14 18339076094071792361
23576562 1 16844435210601384796
24771293 8 16950847037507657884
2747138 104 15430040963127199364
2838139 119 16272208592240858529
3178227 256 17203332229972414242
335352 9 16200151023772507788
4073 2 18041565857647543610
4093350 32 17749106639188955586
4098825 35 18335421262140299924
4144715 1 18191871329893311105
4325135 7 10953458531558683814
4339292 15 17060046113215705967
45270241 37 18410864283325825644
5028188 123 17967540112057624702
5265222 85 18268433619218576318
5758199 1 16877942763180522424
6009941 240 18409452487607341886
6086070 43 16630517475074431166
6371009 1 15482673480783758587
6371380 46 17703785946729242306

> <PUBCHEM_SHAPE_MULTIPOLES>
661.59
26.06
2.38
1.63
2.06
0.64
-1.2
-3.81
0.42
-1.97
-0.03
1.74
-0.22
0.76

> <PUBCHEM_SHAPE_SELFOVERLAP>
1474.095

> <PUBCHEM_SHAPE_VOLUME>
350.1

> <PUBCHEM_COORDINATE_TYPE>
2
5
10

$$$$
