131637880
  -OEChem-03292013293D

 62 66  0     1  0  0  0  0  0999 V2000
    2.0952   -0.1015   -0.4511 O   0  0  0  0  0  0  0  0  0  0  0  0
    2.7396   -2.2370    0.2439 O   0  0  0  0  0  0  0  0  0  0  0  0
    2.2520    2.5863   -1.4010 O   0  0  0  0  0  0  0  0  0  0  0  0
    4.2871   -3.9567   -1.5874 O   0  0  0  0  0  0  0  0  0  0  0  0
   -0.2402   -1.5839    0.8551 O   0  0  0  0  0  0  0  0  0  0  0  0
    3.4095    4.6893   -0.6435 O   0  0  0  0  0  0  0  0  0  0  0  0
   -2.5602   -2.5448    0.6758 O   0  0  0  0  0  0  0  0  0  0  0  0
   -4.6229    2.1959   -0.6723 O   0  0  0  0  0  0  0  0  0  0  0  0
    6.2679   -1.2785   -0.0137 N   0  0  0  0  0  0  0  0  0  0  0  0
    1.5259    0.5595    0.6772 C   0  0  1  0  0  0  0  0  0  0  0  0
    1.8659    2.9555   -0.0823 C   0  0  2  0  0  0  0  0  0  0  0  0
    2.2557    1.8815    0.9357 C   0  0  0  0  0  0  0  0  0  0  0  0
    0.3592    3.2267   -0.0532 C   0  0  0  0  0  0  0  0  0  0  0  0
    0.0511    0.7362    0.4153 C   0  0  0  0  0  0  0  0  0  0  0  0
   -0.4893    1.9791    0.0435 C   0  0  0  0  0  0  0  0  0  0  0  0
    3.1968   -0.9235   -0.0699 C   0  0  1  0  0  0  0  0  0  0  0  0
    5.3569   -1.8932   -0.9782 C   0  0  2  0  0  0  0  0  0  0  0  0
    4.1668   -0.9680   -1.2481 C   0  0  0  0  0  0  0  0  0  0  0  0
    4.8586   -3.2557   -0.4734 C   0  0  1  0  0  0  0  0  0  0  0  0
    3.7660   -3.1690    0.6055 C   0  0  1  0  0  0  0  0  0  0  0  0
   -0.7951   -0.3820    0.5110 C   0  0  0  0  0  0  0  0  0  0  0  0
    2.6186    4.2282    0.1780 C   0  0  0  0  0  0  0  0  0  0  0  0
   -1.8689    2.0869   -0.2003 C   0  0  0  0  0  0  0  0  0  0  0  0
   -2.1665   -0.2667    0.2567 C   0  0  0  0  0  0  0  0  0  0  0  0
   -2.7038    0.9685   -0.0973 C   0  0  0  0  0  0  0  0  0  0  0  0
    4.2903   -2.8878    2.0114 C   0  0  0  0  0  0  0  0  0  0  0  0
    2.3585    4.9115    1.4934 C   0  0  0  0  0  0  0  0  0  0  0  0
   -3.0330   -1.4583    0.3663 C   0  0  0  0  0  0  0  0  0  0  0  0
   -4.1500    1.1089   -0.3644 C   0  0  0  0  0  0  0  0  0  0  0  0
   -4.4787   -1.3203    0.0970 C   0  0  0  0  0  0  0  0  0  0  0  0
   -5.0179   -0.0813   -0.2554 C   0  0  0  0  0  0  0  0  0  0  0  0
   -5.3114   -2.4412    0.1968 C   0  0  0  0  0  0  0  0  0  0  0  0
   -6.3898    0.0370   -0.5077 C   0  0  0  0  0  0  0  0  0  0  0  0
   -6.6780   -2.3191   -0.0561 C   0  0  0  0  0  0  0  0  0  0  0  0
   -7.2160   -1.0827   -0.4076 C   0  0  0  0  0  0  0  0  0  0  0  0
    1.6367   -0.0596    1.5794 H   0  0  0  0  0  0  0  0  0  0  0  0
    2.0021    2.2069    1.9511 H   0  0  0  0  0  0  0  0  0  0  0  0
    3.3412    1.7289    0.9051 H   0  0  0  0  0  0  0  0  0  0  0  0
    0.0643    3.7831   -0.9527 H   0  0  0  0  0  0  0  0  0  0  0  0
    0.0800    3.8372    0.8125 H   0  0  0  0  0  0  0  0  0  0  0  0
    3.7066   -0.4923    0.7988 H   0  0  0  0  0  0  0  0  0  0  0  0
    5.9039   -2.0255   -1.9198 H   0  0  0  0  0  0  0  0  0  0  0  0
    4.5001    0.0461   -1.5034 H   0  0  0  0  0  0  0  0  0  0  0  0
    3.6307   -1.3327   -2.1350 H   0  0  0  0  0  0  0  0  0  0  0  0
    5.6910   -3.8746   -0.1174 H   0  0  0  0  0  0  0  0  0  0  0  0
    3.2585   -4.1411    0.6490 H   0  0  0  0  0  0  0  0  0  0  0  0
   -2.2797    3.0574   -0.4712 H   0  0  0  0  0  0  0  0  0  0  0  0
    1.9129    3.2530   -2.0224 H   0  0  0  0  0  0  0  0  0  0  0  0
    4.7730   -1.9122    2.1012 H   0  0  0  0  0  0  0  0  0  0  0  0
    5.0077   -3.6544    2.3208 H   0  0  0  0  0  0  0  0  0  0  0  0
    3.4592   -2.8844    2.7254 H   0  0  0  0  0  0  0  0  0  0  0  0
    6.6191   -0.3970   -0.3854 H   0  0  0  0  0  0  0  0  0  0  0  0
    7.0801   -1.8789    0.1219 H   0  0  0  0  0  0  0  0  0  0  0  0
    2.4310    4.2261    2.3374 H   0  0  0  0  0  0  0  0  0  0  0  0
    1.3877    5.4105    1.4836 H   0  0  0  0  0  0  0  0  0  0  0  0
    3.1240    5.6810    1.6407 H   0  0  0  0  0  0  0  0  0  0  0  0
    4.9900   -4.0784   -2.2483 H   0  0  0  0  0  0  0  0  0  0  0  0
   -0.8493   -2.3135    0.6688 H   0  0  0  0  0  0  0  0  0  0  0  0
   -4.9164   -3.4162    0.4693 H   0  0  0  0  0  0  0  0  0  0  0  0
   -6.8337    0.9898   -0.7834 H   0  0  0  0  0  0  0  0  0  0  0  0
   -7.3235   -3.1892    0.0214 H   0  0  0  0  0  0  0  0  0  0  0  0
   -8.2803   -0.9904   -0.6038 H   0  0  0  0  0  0  0  0  0  0  0  0
  1 10  1  0  0  0  0
  1 16  1  0  0  0  0
  2 16  1  0  0  0  0
  2 20  1  0  0  0  0
  3 11  1  0  0  0  0
  3 48  1  0  0  0  0
  4 19  1  0  0  0  0
  4 57  1  0  0  0  0
  5 21  1  0  0  0  0
  5 58  1  0  0  0  0
  6 22  2  0  0  0  0
  7 28  2  0  0  0  0
  8 29  2  0  0  0  0
  9 17  1  0  0  0  0
  9 52  1  0  0  0  0
  9 53  1  0  0  0  0
 10 12  1  0  0  0  0
 10 14  1  0  0  0  0
 10 36  1  0  0  0  0
 11 12  1  0  0  0  0
 11 13  1  0  0  0  0
 11 22  1  0  0  0  0
 12 37  1  0  0  0  0
 12 38  1  0  0  0  0
 13 15  1  0  0  0  0
 13 39  1  0  0  0  0
 13 40  1  0  0  0  0
 14 15  1  0  0  0  0
 14 21  2  0  0  0  0
 15 23  2  0  0  0  0
 16 18  1  0  0  0  0
 16 41  1  0  0  0  0
 17 18  1  0  0  0  0
 17 19  1  0  0  0  0
 17 42  1  0  0  0  0
 18 43  1  0  0  0  0
 18 44  1  0  0  0  0
 19 20  1  0  0  0  0
 19 45  1  0  0  0  0
 20 26  1  0  0  0  0
 20 46  1  0  0  0  0
 21 24  1  0  0  0  0
 22 27  1  0  0  0  0
 23 25  1  0  0  0  0
 23 47  1  0  0  0  0
 24 25  2  0  0  0  0
 24 28  1  0  0  0  0
 25 29  1  0  0  0  0
 26 49  1  0  0  0  0
 26 50  1  0  0  0  0
 26 51  1  0  0  0  0
 27 54  1  0  0  0  0
 27 55  1  0  0  0  0
 27 56  1  0  0  0  0
 28 30  1  0  0  0  0
 29 31  1  0  0  0  0
 30 31  1  0  0  0  0
 30 32  2  0  0  0  0
 31 33  2  0  0  0  0
 32 34  1  0  0  0  0
 32 59  1  0  0  0  0
 33 35  1  0  0  0  0
 33 60  1  0  0  0  0
 34 35  2  0  0  0  0
 34 61  1  0  0  0  0
 35 62  1  0  0  0  0
M  END
> <PUBCHEM_COMPOUND_CID>
131637880

> <PUBCHEM_CONFORMER_RMSD>
0.8

> <PUBCHEM_CONFORMER_DIVERSEORDER>
2
29
61
46
62
55
17
50
18
67
38
58
42
12
45
60
32
39
47
40
43
33
57
21
20
35
13
68
16
26
63
37
52
10
30
56
5
28
54
44
65
59
6
19
24
36
11
53
41
3
27
1
66
64
31
49
22
15
51
48
34
25
23
9
14
7
8
4

> <PUBCHEM_MMFF94_PARTIAL_CHARGES>
42
1 -0.56
10 0.42
11 0.34
13 0.14
14 -0.14
15 -0.14
16 0.56
17 0.27
19 0.28
2 -0.56
20 0.28
21 0.08
22 0.45
23 -0.15
24 0.09
25 0.09
27 0.06
28 0.4
29 0.4
3 -0.68
30 0.09
31 0.09
32 -0.15
33 -0.15
34 -0.15
35 -0.15
4 -0.68
47 0.15
48 0.4
5 -0.53
52 0.36
53 0.36
57 0.4
58 0.45
59 0.15
6 -0.57
60 0.15
61 0.15
62 0.15
7 -0.57
8 -0.57
9 -0.99

> <PUBCHEM_EFFECTIVE_ROTOR_COUNT>
5

> <PUBCHEM_PHARMACOPHORE_FEATURES>
17
1 1 acceptor
1 2 acceptor
1 3 acceptor
1 3 donor
1 4 acceptor
1 4 donor
1 5 donor
1 6 acceptor
1 7 acceptor
1 8 acceptor
1 9 cation
1 9 donor
6 10 11 12 13 14 15 rings
6 14 15 21 23 24 25 rings
6 2 16 17 18 19 20 rings
6 24 25 28 29 30 31 rings
6 30 31 32 33 34 35 rings

> <PUBCHEM_HEAVY_ATOM_COUNT>
35

> <PUBCHEM_ATOM_DEF_STEREO_COUNT>
2

> <PUBCHEM_ATOM_UDEF_STEREO_COUNT>
4

> <PUBCHEM_BOND_DEF_STEREO_COUNT>
0

> <PUBCHEM_BOND_UDEF_STEREO_COUNT>
0

> <PUBCHEM_ISOTOPIC_ATOM_COUNT>
0

> <PUBCHEM_COMPONENT_COUNT>
1

> <PUBCHEM_CACTVS_TAUTO_COUNT>
24

> <PUBCHEM_CONFORMER_ID>
07D8A27800000002

> <PUBCHEM_MMFF94_ENERGY>
100.4475

> <PUBCHEM_FEATURE_SELFOVERLAP>
86.404

> <PUBCHEM_SHAPE_FINGERPRINT>
10050765 1 18410572899416905377
10411042 1 18339360756299553282
10622 236 17172917333278079082
10721379 63 18341342192274990328
1100329 8 18268153046333158849
11062273 19 18338805610787369588
11135926 11 18123457539023100413
11513181 2 18196934590051790135
117089 54 17984715423775902678
11719270 70 18195805395952588272
11963148 33 17906445885947554031
12107183 9 18199200503502433057
12107698 1 18413668007268441023
12166972 35 18202002114320580507
12516196 113 18340485561153272158
12788726 201 17901672562220104922
131258 43 17845954956954822108
13533116 47 18270400615666730649
13631057 29 18266747888100616254
13955234 65 18199467842903041312
14068700 675 18342174427665638136
14150023 79 18267018552323032288
14347332 77 18409727344762142503
14394314 77 18120088390640162880
14790565 3 16970833589698272704
14866123 147 18053671270200298073
15183329 4 18261393300263659043
15927050 60 17981044437923211766
17492 89 18411698816276146781
17909252 39 18411425045832786721
18681886 176 18413388722720140234
19311894 1 17979638939987754969
20775438 99 18121204635635428327
21049683 271 18408890646494468196
21130935 74 18268997656621851443
21133410 32 16446204138241341554
21279426 13 18334566955012575149
21703447 108 18337665416500904369
22311459 1 18194398880384058937
22393880 68 18113888352552049005
23522609 53 18123786147314178513
23559900 14 18411693288521290281
23569914 152 17979324510481032439
24771750 20 18191597556494790348
249057 3 18267018359255089493
249999 5 18269550714279042448
255183 451 18343026579294715798
3004659 81 18114748123079095654
3178227 256 18048616823938106193
32027 91 18338508660789731541
4144715 1 18188494709269903755
4280585 95 18335979762481280864
5776283 40 18190754209585261094
59755656 215 18264773348930358413
6004065 56 18411417328425265802
613672 6 18125140668076460254
6669772 16 18195529422496161332
6695519 79 17479192202499835147
6697151 62 18198879488671770693
6700243 42 17556043311259197358
70251023 43 18410298007922939865
9831232 110 18411134736778573111
9962374 69 18271798073407916407

> <PUBCHEM_SHAPE_MULTIPOLES>
668.35
15.15
5.93
1.11
16.11
4.74
-0.12
-13.61
2.69
-9.46
-0.45
-1.41
-0.27
1.01

> <PUBCHEM_SHAPE_SELFOVERLAP>
1479.607

> <PUBCHEM_SHAPE_VOLUME>
352.5

> <PUBCHEM_COORDINATE_TYPE>
2
5
10

$$$$
