131674018
  -OEChem-03292013293D

 74 79  0     1  0  0  0  0  0999 V2000
   -0.0507   -0.1984   -2.5636 O   0  0  0  0  0  0  0  0  0  0  0  0
    1.8297   -2.0087   -1.5715 O   0  0  0  0  0  0  0  0  0  0  0  0
   -0.4822   -2.7322   -0.4407 O   0  0  0  0  0  0  0  0  0  0  0  0
   -0.3481    2.5488    2.2253 O   0  0  0  0  0  0  0  0  0  0  0  0
    4.0893   -1.6740    0.3452 O   0  0  0  0  0  0  0  0  0  0  0  0
    4.7115    1.1829   -0.6607 O   0  0  0  0  0  0  0  0  0  0  0  0
   -5.1867   -0.6780   -0.0889 O   0  0  0  0  0  0  0  0  0  0  0  0
   -1.5860    1.6075   -0.7845 N   0  0  2  0  0  0  0  0  0  0  0  0
   -0.4827    0.3572    1.0378 C   0  0  2  0  0  0  0  0  0  0  0  0
   -1.4842   -0.8133    0.6841 C   0  0  2  0  0  0  0  0  0  0  0  0
   -0.3271    0.9364   -0.3934 C   0  0  1  0  0  0  0  0  0  0  0  0
    0.9196   -0.1668    1.5524 C   0  0  1  0  0  0  0  0  0  0  0  0
    0.0780   -0.3760   -1.1576 C   0  0  2  0  0  0  0  0  0  0  0  0
    1.6927   -1.1513    0.6518 C   0  0  1  0  0  0  0  0  0  0  0  0
    1.5509   -0.7933   -0.8429 C   0  0  1  0  0  0  0  0  0  0  0  0
   -0.9606   -1.4147   -0.6517 C   0  0  1  0  0  0  0  0  0  0  0  0
   -2.8997   -0.2049    0.4142 C   0  0  2  0  0  0  0  0  0  0  0  0
   -1.0600    1.3161    2.1425 C   0  0  2  0  0  0  0  0  0  0  0  0
    1.9815    0.9268    1.8528 C   0  0  0  0  0  0  0  0  0  0  0  0
    3.2786    0.4880    1.1571 C   0  0  1  0  0  0  0  0  0  0  0  0
    3.1339   -1.0244    1.1560 C   0  0  2  0  0  0  0  0  0  0  0  0
    2.6078    0.2310   -1.3440 C   0  0  0  0  0  0  0  0  0  0  0  0
   -2.7977    0.7737   -0.8012 C   0  0  0  0  0  0  0  0  0  0  0  0
   -3.3993    0.5165    1.6815 C   0  0  0  0  0  0  0  0  0  0  0  0
    3.3385    1.0576   -0.2722 C   0  0  2  0  0  0  0  0  0  0  0  0
   -2.5336    1.6907    2.0639 C   0  0  0  0  0  0  0  0  0  0  0  0
   -3.9405   -1.3062    0.1097 C   0  0  0  0  0  0  0  0  0  0  0  0
   -1.4727    2.4326   -1.9792 C   0  0  0  0  0  0  0  0  0  0  0  0
   -1.5453   -3.6770   -0.3927 C   0  0  0  0  0  0  0  0  0  0  0  0
   -2.6614    3.3690   -2.1144 C   0  0  0  0  0  0  0  0  0  0  0  0
    5.3491   -1.7934    1.0001 C   0  0  0  0  0  0  0  0  0  0  0  0
    4.8754    2.1964   -1.6374 C   0  0  0  0  0  0  0  0  0  0  0  0
   -6.2181   -1.6186   -0.3779 C   0  0  0  0  0  0  0  0  0  0  0  0
   -1.5202   -1.5424    1.5016 H   0  0  0  0  0  0  0  0  0  0  0  0
    0.4735    1.6809   -0.4256 H   0  0  0  0  0  0  0  0  0  0  0  0
    0.7292   -0.6927    2.5003 H   0  0  0  0  0  0  0  0  0  0  0  0
    1.3750   -2.1823    0.8376 H   0  0  0  0  0  0  0  0  0  0  0  0
   -1.7339   -1.5047   -1.4176 H   0  0  0  0  0  0  0  0  0  0  0  0
   -0.9193    0.8095    3.1072 H   0  0  0  0  0  0  0  0  0  0  0  0
    1.7066    1.9302    1.5283 H   0  0  0  0  0  0  0  0  0  0  0  0
    2.1415    0.9739    2.9375 H   0  0  0  0  0  0  0  0  0  0  0  0
    4.1544    0.8185    1.7261 H   0  0  0  0  0  0  0  0  0  0  0  0
    3.1849   -1.4219    2.1802 H   0  0  0  0  0  0  0  0  0  0  0  0
    2.1543    0.9246   -2.0636 H   0  0  0  0  0  0  0  0  0  0  0  0
    3.3598   -0.3032   -1.9436 H   0  0  0  0  0  0  0  0  0  0  0  0
   -3.6865    1.4154   -0.7701 H   0  0  0  0  0  0  0  0  0  0  0  0
   -2.8684    0.2245   -1.7474 H   0  0  0  0  0  0  0  0  0  0  0  0
   -3.4319   -0.1923    2.5199 H   0  0  0  0  0  0  0  0  0  0  0  0
   -4.4229    0.8900    1.5569 H   0  0  0  0  0  0  0  0  0  0  0  0
    2.9058    2.0665   -0.2486 H   0  0  0  0  0  0  0  0  0  0  0  0
   -2.6889    2.5310    1.3765 H   0  0  0  0  0  0  0  0  0  0  0  0
   -2.8587    2.0814    3.0375 H   0  0  0  0  0  0  0  0  0  0  0  0
   -4.0107   -2.0084    0.9494 H   0  0  0  0  0  0  0  0  0  0  0  0
   -3.6923   -1.8700   -0.7928 H   0  0  0  0  0  0  0  0  0  0  0  0
   -0.9908   -0.2041   -2.8032 H   0  0  0  0  0  0  0  0  0  0  0  0
    1.6431   -1.8364   -2.5105 H   0  0  0  0  0  0  0  0  0  0  0  0
   -1.3834    1.8464   -2.8978 H   0  0  0  0  0  0  0  0  0  0  0  0
   -0.5732    3.0565   -1.9086 H   0  0  0  0  0  0  0  0  0  0  0  0
   -0.6736    3.0301    3.0050 H   0  0  0  0  0  0  0  0  0  0  0  0
   -1.1005   -4.6715   -0.2934 H   0  0  0  0  0  0  0  0  0  0  0  0
   -2.1301   -3.6637   -1.3174 H   0  0  0  0  0  0  0  0  0  0  0  0
   -2.1844   -3.5134    0.4775 H   0  0  0  0  0  0  0  0  0  0  0  0
   -3.5737    2.8438   -2.4139 H   0  0  0  0  0  0  0  0  0  0  0  0
   -2.8553    3.9129   -1.1835 H   0  0  0  0  0  0  0  0  0  0  0  0
   -2.4560    4.1136   -2.8915 H   0  0  0  0  0  0  0  0  0  0  0  0
    6.0344   -2.3107    0.3231 H   0  0  0  0  0  0  0  0  0  0  0  0
    5.7699   -0.8107    1.2294 H   0  0  0  0  0  0  0  0  0  0  0  0
    5.2529   -2.3877    1.9139 H   0  0  0  0  0  0  0  0  0  0  0  0
    5.9351    2.2421   -1.9042 H   0  0  0  0  0  0  0  0  0  0  0  0
    4.5851    3.1730   -1.2372 H   0  0  0  0  0  0  0  0  0  0  0  0
    4.3072    1.9761   -2.5457 H   0  0  0  0  0  0  0  0  0  0  0  0
   -7.1536   -1.0699   -0.5144 H   0  0  0  0  0  0  0  0  0  0  0  0
   -6.3400   -2.3191    0.4539 H   0  0  0  0  0  0  0  0  0  0  0  0
   -5.9922   -2.1617   -1.3006 H   0  0  0  0  0  0  0  0  0  0  0  0
  1 13  1  0  0  0  0
  1 55  1  0  0  0  0
  2 15  1  0  0  0  0
  2 56  1  0  0  0  0
  3 16  1  0  0  0  0
  3 29  1  0  0  0  0
  4 18  1  0  0  0  0
  4 59  1  0  0  0  0
  5 21  1  0  0  0  0
  5 31  1  0  0  0  0
  6 25  1  0  0  0  0
  6 32  1  0  0  0  0
  7 27  1  0  0  0  0
  7 33  1  0  0  0  0
  8 11  1  0  0  0  0
  8 23  1  0  0  0  0
  8 28  1  0  0  0  0
  9 10  1  0  0  0  0
  9 11  1  0  0  0  0
  9 12  1  0  0  0  0
  9 18  1  0  0  0  0
 10 16  1  0  0  0  0
 10 17  1  0  0  0  0
 10 34  1  0  0  0  0
 11 13  1  0  0  0  0
 11 35  1  0  0  0  0
 12 14  1  0  0  0  0
 12 19  1  0  0  0  0
 12 36  1  0  0  0  0
 13 15  1  0  0  0  0
 13 16  1  0  0  0  0
 14 15  1  0  0  0  0
 14 21  1  0  0  0  0
 14 37  1  0  0  0  0
 15 22  1  0  0  0  0
 16 38  1  0  0  0  0
 17 23  1  0  0  0  0
 17 24  1  0  0  0  0
 17 27  1  0  0  0  0
 18 26  1  0  0  0  0
 18 39  1  0  0  0  0
 19 20  1  0  0  0  0
 19 40  1  0  0  0  0
 19 41  1  0  0  0  0
 20 21  1  0  0  0  0
 20 25  1  0  0  0  0
 20 42  1  0  0  0  0
 21 43  1  0  0  0  0
 22 25  1  0  0  0  0
 22 44  1  0  0  0  0
 22 45  1  0  0  0  0
 23 46  1  0  0  0  0
 23 47  1  0  0  0  0
 24 26  1  0  0  0  0
 24 48  1  0  0  0  0
 24 49  1  0  0  0  0
 25 50  1  0  0  0  0
 26 51  1  0  0  0  0
 26 52  1  0  0  0  0
 27 53  1  0  0  0  0
 27 54  1  0  0  0  0
 28 30  1  0  0  0  0
 28 57  1  0  0  0  0
 28 58  1  0  0  0  0
 29 60  1  0  0  0  0
 29 61  1  0  0  0  0
 29 62  1  0  0  0  0
 30 63  1  0  0  0  0
 30 64  1  0  0  0  0
 30 65  1  0  0  0  0
 31 66  1  0  0  0  0
 31 67  1  0  0  0  0
 31 68  1  0  0  0  0
 32 69  1  0  0  0  0
 32 70  1  0  0  0  0
 32 71  1  0  0  0  0
 33 72  1  0  0  0  0
 33 73  1  0  0  0  0
 33 74  1  0  0  0  0
M  END
> <PUBCHEM_COMPOUND_CID>
131674018

> <PUBCHEM_CONFORMER_RMSD>
1

> <PUBCHEM_CONFORMER_DIVERSEORDER>
1

> <PUBCHEM_MMFF94_PARTIAL_CHARGES>
25
1 -0.68
11 0.27
13 0.28
15 0.28
16 0.28
18 0.28
2 -0.68
21 0.28
23 0.27
25 0.28
27 0.28
28 0.27
29 0.28
3 -0.56
31 0.28
32 0.28
33 0.28
4 -0.68
5 -0.56
55 0.4
56 0.4
59 0.4
6 -0.56
7 -0.56
8 -0.81

> <PUBCHEM_EFFECTIVE_ROTOR_COUNT>
8

> <PUBCHEM_PHARMACOPHORE_FEATURES>
15
1 1 acceptor
1 1 donor
1 2 acceptor
1 2 donor
1 3 acceptor
1 4 acceptor
1 4 donor
1 5 acceptor
1 6 acceptor
1 7 acceptor
1 8 cation
6 9 10 17 18 24 26 rings
8 12 14 15 19 20 21 22 25 rings
8 8 9 10 11 13 16 17 23 rings
8 9 10 11 12 13 14 15 16 rings

> <PUBCHEM_HEAVY_ATOM_COUNT>
33

> <PUBCHEM_ATOM_DEF_STEREO_COUNT>
10

> <PUBCHEM_ATOM_UDEF_STEREO_COUNT>
3

> <PUBCHEM_BOND_DEF_STEREO_COUNT>
0

> <PUBCHEM_BOND_UDEF_STEREO_COUNT>
0

> <PUBCHEM_ISOTOPIC_ATOM_COUNT>
0

> <PUBCHEM_COMPONENT_COUNT>
1

> <PUBCHEM_CACTVS_TAUTO_COUNT>
1

> <PUBCHEM_CONFORMER_ID>
07D92FA200000001

> <PUBCHEM_MMFF94_ENERGY>
182.7416

> <PUBCHEM_FEATURE_SELFOVERLAP>
77.629

> <PUBCHEM_SHAPE_FINGERPRINT>
10165383 225 18271544055803220164
10366900 7 17703518782441104843
10863032 1 17825649076473543928
11578080 2 18124329220216839949
12011746 2 17774448294892054547
12107698 1 17749103357923591992
12236239 1 18187082888377845403
12403814 3 18334012808908770981
12633257 1 17988931097427199595
12788726 201 17988655102659394929
13140716 1 17130124611048902714
13224815 77 17988925539501719024
13583140 156 18197757952108380274
14223421 5 17560246795282182755
14787075 74 18130504232105253223
15238133 3 17917720063197133400
16945 1 18192129680744714866
17349148 13 18273214209554826143
17980427 23 17313393283625092413
20691752 17 18263384537264411539
21033648 29 18124002703886136192
23419403 2 18057860577005855433
23559900 14 18044924689006871782
34934 24 17895478162416345615
350125 39 18410853218377123690
392239 28 17917717902992711555
57527452 28 18186517705121123611
70251023 43 17676760977383926986

> <PUBCHEM_SHAPE_MULTIPOLES>
633.06
8.95
3.07
2.24
0.61
0.16
0.43
-1.81
-0.54
-0.93
-1.4
-0.16
1.31
-0.75

> <PUBCHEM_SHAPE_SELFOVERLAP>
1379.511

> <PUBCHEM_SHAPE_VOLUME>
339.7

> <PUBCHEM_COORDINATE_TYPE>
2
5
10

$$$$
