131625
  -OEChem-03292013323D

 51 52  0     1  0  0  0  0  0999 V2000
   -3.6078    1.3026   -1.0982 S   0  0  0  0  0  0  0  0  0  0  0  0
    2.4938    4.1222   -0.5362 O   0  0  0  0  0  0  0  0  0  0  0  0
   -0.4377    2.6932    0.8651 O   0  0  0  0  0  0  0  0  0  0  0  0
   -3.6351    0.6590   -2.3978 O   0  0  0  0  0  0  0  0  0  0  0  0
   -4.8030    1.9327   -0.5708 O   0  0  0  0  0  0  0  0  0  0  0  0
    3.8503    3.6633    1.2130 O   0  0  0  0  0  0  0  0  0  0  0  0
    1.2513    1.8200   -0.4712 N   0  0  0  0  0  0  0  0  0  0  0  0
   -2.3204    2.4185   -1.0516 N   0  0  0  0  0  0  0  0  0  0  0  0
    0.8008   -4.3999   -1.9288 N   0  0  0  0  0  0  0  0  0  0  0  0
    1.3413   -2.4627   -3.1189 N   0  0  0  0  0  0  0  0  0  0  0  0
    2.3298    1.9286    0.4849 C   0  0  1  0  0  0  0  0  0  0  0  0
    3.3939    0.8502    0.2431 C   0  0  0  0  0  0  0  0  0  0  0  0
    2.8387   -0.5519    0.3158 C   0  0  0  0  0  0  0  0  0  0  0  0
   -0.9545    1.9861   -1.3823 C   0  0  0  0  0  0  0  0  0  0  0  0
   -0.0508    2.2146   -0.1978 C   0  0  0  0  0  0  0  0  0  0  0  0
    2.3457   -1.1679   -0.8344 C   0  0  0  0  0  0  0  0  0  0  0  0
    2.9685    3.3089    0.4374 C   0  0  0  0  0  0  0  0  0  0  0  0
    2.8198   -1.2317    1.5337 C   0  0  0  0  0  0  0  0  0  0  0  0
   -3.0886    0.1043    0.0930 C   0  0  0  0  0  0  0  0  0  0  0  0
    1.8336   -2.4635   -0.7667 C   0  0  0  0  0  0  0  0  0  0  0  0
    2.3079   -2.5275    1.6015 C   0  0  0  0  0  0  0  0  0  0  0  0
    1.8149   -3.1434    0.4511 C   0  0  0  0  0  0  0  0  0  0  0  0
   -3.4506    0.2495    1.4321 C   0  0  0  0  0  0  0  0  0  0  0  0
   -2.3163   -0.9864   -0.3064 C   0  0  0  0  0  0  0  0  0  0  0  0
   -2.2681   -1.7867    1.9726 C   0  0  0  0  0  0  0  0  0  0  0  0
   -3.0405   -0.6961    2.3721 C   0  0  0  0  0  0  0  0  0  0  0  0
   -1.9060   -1.9319    0.6334 C   0  0  0  0  0  0  0  0  0  0  0  0
    1.3188   -3.1065   -1.9652 C   0  0  0  0  0  0  0  0  0  0  0  0
   -1.8295   -2.7978    2.9776 C   0  0  0  0  0  0  0  0  0  0  0  0
    1.8948    1.8194    1.4864 H   0  0  0  0  0  0  0  0  0  0  0  0
    4.2090    0.9539    0.9717 H   0  0  0  0  0  0  0  0  0  0  0  0
    3.8678    0.9994   -0.7371 H   0  0  0  0  0  0  0  0  0  0  0  0
    1.4822    1.5322   -1.4179 H   0  0  0  0  0  0  0  0  0  0  0  0
   -0.5987    2.6074   -2.2119 H   0  0  0  0  0  0  0  0  0  0  0  0
   -0.9040    0.9451   -1.7057 H   0  0  0  0  0  0  0  0  0  0  0  0
    2.3750   -0.6260   -1.7762 H   0  0  0  0  0  0  0  0  0  0  0  0
    3.1988   -0.7612    2.4370 H   0  0  0  0  0  0  0  0  0  0  0  0
   -2.4372    3.3341   -0.6018 H   0  0  0  0  0  0  0  0  0  0  0  0
    2.2915   -3.0555    2.5505 H   0  0  0  0  0  0  0  0  0  0  0  0
    1.4269   -4.1500    0.5604 H   0  0  0  0  0  0  0  0  0  0  0  0
   -4.0451    1.0949    1.7665 H   0  0  0  0  0  0  0  0  0  0  0  0
   -2.0270   -1.1252   -1.3441 H   0  0  0  0  0  0  0  0  0  0  0  0
   -3.3277   -0.5729    3.4129 H   0  0  0  0  0  0  0  0  0  0  0  0
   -1.3132   -2.7817    0.3072 H   0  0  0  0  0  0  0  0  0  0  0  0
   -2.6479   -3.4914    3.1948 H   0  0  0  0  0  0  0  0  0  0  0  0
   -0.9724   -3.3768    2.6175 H   0  0  0  0  0  0  0  0  0  0  0  0
   -1.5201   -2.3107    3.9085 H   0  0  0  0  0  0  0  0  0  0  0  0
    2.9358    4.9978   -0.5307 H   0  0  0  0  0  0  0  0  0  0  0  0
    0.4475   -4.8320   -2.7764 H   0  0  0  0  0  0  0  0  0  0  0  0
    0.7438   -4.9619   -1.0889 H   0  0  0  0  0  0  0  0  0  0  0  0
    0.9409   -3.0758   -3.8376 H   0  0  0  0  0  0  0  0  0  0  0  0
  1  4  2  0  0  0  0
  1  5  2  0  0  0  0
  1  8  1  0  0  0  0
  1 19  1  0  0  0  0
  2 17  1  0  0  0  0
  2 48  1  0  0  0  0
  3 15  2  0  0  0  0
  6 17  2  0  0  0  0
  7 11  1  0  0  0  0
  7 15  1  0  0  0  0
  7 33  1  0  0  0  0
  8 14  1  0  0  0  0
  8 38  1  0  0  0  0
  9 28  1  0  0  0  0
  9 49  1  0  0  0  0
  9 50  1  0  0  0  0
 10 28  2  0  0  0  0
 10 51  1  0  0  0  0
 11 12  1  0  0  0  0
 11 17  1  0  0  0  0
 11 30  1  0  0  0  0
 12 13  1  0  0  0  0
 12 31  1  0  0  0  0
 12 32  1  0  0  0  0
 13 16  2  0  0  0  0
 13 18  1  0  0  0  0
 14 15  1  0  0  0  0
 14 34  1  0  0  0  0
 14 35  1  0  0  0  0
 16 20  1  0  0  0  0
 16 36  1  0  0  0  0
 18 21  2  0  0  0  0
 18 37  1  0  0  0  0
 19 23  2  0  0  0  0
 19 24  1  0  0  0  0
 20 22  2  0  0  0  0
 20 28  1  0  0  0  0
 21 22  1  0  0  0  0
 21 39  1  0  0  0  0
 22 40  1  0  0  0  0
 23 26  1  0  0  0  0
 23 41  1  0  0  0  0
 24 27  2  0  0  0  0
 24 42  1  0  0  0  0
 25 26  2  0  0  0  0
 25 27  1  0  0  0  0
 25 29  1  0  0  0  0
 26 43  1  0  0  0  0
 27 44  1  0  0  0  0
 29 45  1  0  0  0  0
 29 46  1  0  0  0  0
 29 47  1  0  0  0  0
M  END
> <PUBCHEM_COMPOUND_CID>
131625

> <PUBCHEM_CONFORMER_RMSD>
1

> <PUBCHEM_CONFORMER_DIVERSEORDER>
2
352
257
29
220
162
144
101
438
410
342
94
416
394
455
159
86
25
339
290
336
60
401
303
157
168
412
191
274
184
214
269
425
133
228
448
89
122
132
267
366
9
373
261
193
200
313
372
283
178
413
379
208
131
451
447
1
454
154
423
141
272
136
79
195
319
233
284
298
96
88
234
294
161
146
53
221
459
346
27
194
73
393
450
111
201
8
382
74
112
67
64
244
165
386
308
453
196
23
124
99
149
310
129
183
392
398
10
204
316
395
213
198
98
432
100
218
361
210
45
175
158
174
34
302
167
351
341
163
381
441
429
444
418
289
327
26
212
241
333
457
128
49
57
92
331
65
329
383
227
264
130
19
435
216
296
28
71
388
246
22
307
105
121
68
311
321
254
172
253
166
52
369
248
424
445
119
276
419
18
332
14
364
147
160
69
93
260
186
179
430
40
230
138
340
258
256
328
365
123
113
54
400
82
325
226
251
377
337
135
403
291
222
275
371
323
363
15
442
109
107
209
273
439
355
114
232
376
402
338
217
104
404
452
95
391
362
356
347
118
301
280
428
240
360
143
48
415
169
268
292
16
188
434
414
44
152
106
305
215
164
374
142
335
17
176
304
20
151
278
255
207
420
182
375
30
139
437
281
266
72
409
61
225
134
224
411
324
367
50
21
180
322
47
396
245
446
55
317
433
97
399
421
80
170
102
312
384
84
320
41
315
76
70
390
206
197
145
83
358
422
90
349
78
405
297
205
117
259
120
33
56
238
51
353
199
24
4
126
350
279
127
42
440
252
125
270
288
62
330
354
357
91
77
368
309
153
11
334
427
293
223
190
189
397
87
173
417
137
286
359
231
38
63
406
265
155
250
140
31
295
408
59
148
235
156
115
85
5
345
431
66
271
282
426
385
343
380
7
458
58
443
192
187
370
108
39
287
344
407
389
456
81
46
177
249
13
171
116
285
314
378
185
219
36
181
387
229
247
239
242
211
203
243
436
110
299
262
103
3
300
449
32
6
348
263
236
35
326
277
150
202
43
75
318
237
37
306
12

> <PUBCHEM_MMFF94_PARTIAL_CHARGES>
43
1 1.45
10 -0.85
11 0.36
12 0.14
13 -0.14
14 0.42
15 0.57
16 -0.15
17 0.66
18 -0.15
19 -0.01
2 -0.65
20 0.09
21 -0.15
22 -0.15
23 -0.15
24 -0.15
25 -0.14
26 -0.15
27 -0.15
28 0.41
29 0.14
3 -0.57
33 0.37
36 0.15
37 0.15
38 0.42
39 0.15
4 -0.65
40 0.15
41 0.15
42 0.15
43 0.15
44 0.15
48 0.5
49 0.4
5 -0.65
50 0.4
51 0.4
6 -0.57
7 -0.73
8 -0.91
9 -0.85

> <PUBCHEM_EFFECTIVE_ROTOR_COUNT>
10

> <PUBCHEM_PHARMACOPHORE_FEATURES>
13
1 10 donor
1 2 acceptor
1 3 acceptor
1 4 acceptor
1 5 acceptor
1 6 acceptor
1 7 donor
1 8 donor
1 9 donor
3 2 6 17 anion
3 9 10 28 cation
6 13 16 18 20 21 22 rings
6 19 23 24 25 26 27 rings

> <PUBCHEM_HEAVY_ATOM_COUNT>
29

> <PUBCHEM_ATOM_DEF_STEREO_COUNT>
1

> <PUBCHEM_ATOM_UDEF_STEREO_COUNT>
0

> <PUBCHEM_BOND_DEF_STEREO_COUNT>
0

> <PUBCHEM_BOND_UDEF_STEREO_COUNT>
0

> <PUBCHEM_ISOTOPIC_ATOM_COUNT>
0

> <PUBCHEM_COMPONENT_COUNT>
1

> <PUBCHEM_CACTVS_TAUTO_COUNT>
2

> <PUBCHEM_CONFORMER_ID>
0002022900000002

> <PUBCHEM_MMFF94_ENERGY>
58.7874

> <PUBCHEM_FEATURE_SELFOVERLAP>
66.094

> <PUBCHEM_SHAPE_FINGERPRINT>
10675989 125 16964059511898127620
12156800 1 10031686638704086915
12553582 1 18267030444654562152
12788726 201 17401490347299228374
13402501 40 18261955141661142225
14114206 34 17470470438034048910
14725015 67 17898556602027761329
15003188 3 18192438463535060645
19930381 70 18054780690306881783
20397935 3 17898588483248453918
20600515 1 17754178578932766958
21315764 371 17130680899359958250
21860390 5 18267009571092593158
238 59 18268408227028758455
35225 105 17467353318348579383
469060 322 17183619339190586498
6287921 2 17695671636446765090
9862522 239 17836087049978750096

> <PUBCHEM_SHAPE_MULTIPOLES>
551.39
7.08
5.58
2.54
3.95
1.32
0.44
3.03
-0.76
-4.71
0.39
0.92
-2.49
3.16

> <PUBCHEM_SHAPE_SELFOVERLAP>
1145.134

> <PUBCHEM_SHAPE_VOLUME>
313.4

> <PUBCHEM_COORDINATE_TYPE>
2
5
10

$$$$
