131634540
  -OEChem-03292013293D

 62 67  0     0  0  0  0  0  0999 V2000
   12.3334   -1.7218    0.0328 F   0  0  0  0  0  0  0  0  0  0  0  0
    9.7311   -0.8095    0.1082 O   0  0  0  0  0  0  0  0  0  0  0  0
   -9.0190   -2.1371   -0.2656 O   0  0  0  0  0  0  0  0  0  0  0  0
    1.6688    1.5444    0.0694 N   0  0  0  0  0  0  0  0  0  0  0  0
    4.3839    0.6672   -0.0666 N   0  0  0  0  0  0  0  0  0  0  0  0
   -2.0946    1.7424    0.5096 N   0  0  0  0  0  0  0  0  0  0  0  0
   -2.6083    2.9211    0.0865 N   0  0  0  0  0  0  0  0  0  0  0  0
   -5.0520   -0.8481    0.4123 N   0  0  0  0  0  0  0  0  0  0  0  0
   -2.7651   -0.5568    0.9146 N   0  0  0  0  0  0  0  0  0  0  0  0
   -6.5045    0.6388   -0.3247 N   0  0  0  0  0  0  0  0  0  0  0  0
   -6.1872   -1.5580    0.3034 N   0  0  0  0  0  0  0  0  0  0  0  0
   -3.7744   -2.6870    1.1921 N   0  0  0  0  0  0  0  0  0  0  0  0
    2.0276    0.1765    0.4642 C   0  0  0  0  0  0  0  0  0  0  0  0
    2.5416    1.9941   -1.0219 C   0  0  0  0  0  0  0  0  0  0  0  0
    3.4789    0.1067    0.9448 C   0  0  0  0  0  0  0  0  0  0  0  0
    4.0105    1.9840   -0.5918 C   0  0  0  0  0  0  0  0  0  0  0  0
    0.2653    1.6097   -0.3359 C   0  0  0  0  0  0  0  0  0  0  0  0
   -0.6389    1.6631    0.8950 C   0  0  0  0  0  0  0  0  0  0  0  0
    5.7320    0.2947   -0.0212 C   0  0  0  0  0  0  0  0  0  0  0  0
   -3.0076    0.7300    0.5326 C   0  0  0  0  0  0  0  0  0  0  0  0
    6.7189    1.2665    0.1439 C   0  0  0  0  0  0  0  0  0  0  0  0
    6.0890   -1.0482   -0.1425 C   0  0  0  0  0  0  0  0  0  0  0  0
   -4.1789    1.3053    0.0945 C   0  0  0  0  0  0  0  0  0  0  0  0
   -3.8949    2.6401   -0.1675 C   0  0  0  0  0  0  0  0  0  0  0  0
   -5.2601    0.4573    0.0341 C   0  0  0  0  0  0  0  0  0  0  0  0
    8.0628    0.8955    0.1876 C   0  0  0  0  0  0  0  0  0  0  0  0
    7.4328   -1.4194   -0.0990 C   0  0  0  0  0  0  0  0  0  0  0  0
    8.4197   -0.4475    0.0660 C   0  0  0  0  0  0  0  0  0  0  0  0
   -3.8100   -1.3598    0.8522 C   0  0  0  0  0  0  0  0  0  0  0  0
   -7.0299   -0.6170   -0.1435 C   0  0  0  0  0  0  0  0  0  0  0  0
   -8.4462   -0.9151   -0.4263 C   0  0  0  0  0  0  0  0  0  0  0  0
   10.1084   -1.9692   -0.6327 C   0  0  0  0  0  0  0  0  0  0  0  0
   -9.3695   -0.0053   -0.8865 C   0  0  0  0  0  0  0  0  0  0  0  0
   11.5469   -1.8183   -1.0741 C   0  0  0  0  0  0  0  0  0  0  0  0
  -10.5880   -0.7135   -1.0167 C   0  0  0  0  0  0  0  0  0  0  0  0
  -10.3223   -2.0058   -0.6271 C   0  0  0  0  0  0  0  0  0  0  0  0
    2.4122    1.3572   -1.9075 H   0  0  0  0  0  0  0  0  0  0  0  0
    1.3940   -0.1769    1.2844 H   0  0  0  0  0  0  0  0  0  0  0  0
    1.8896   -0.5186   -0.3752 H   0  0  0  0  0  0  0  0  0  0  0  0
    2.2831    3.0188   -1.3158 H   0  0  0  0  0  0  0  0  0  0  0  0
    3.5939    0.6676    1.8814 H   0  0  0  0  0  0  0  0  0  0  0  0
    4.6216    2.2410   -1.4660 H   0  0  0  0  0  0  0  0  0  0  0  0
    4.1736    2.7521    0.1752 H   0  0  0  0  0  0  0  0  0  0  0  0
    3.7143   -0.9408    1.1655 H   0  0  0  0  0  0  0  0  0  0  0  0
   -0.0127    0.7769   -0.9954 H   0  0  0  0  0  0  0  0  0  0  0  0
    0.0836    2.5264   -0.9131 H   0  0  0  0  0  0  0  0  0  0  0  0
   -0.4528    2.5555    1.5041 H   0  0  0  0  0  0  0  0  0  0  0  0
   -0.5519    0.7804    1.5350 H   0  0  0  0  0  0  0  0  0  0  0  0
    6.4769    2.3195    0.2558 H   0  0  0  0  0  0  0  0  0  0  0  0
    5.3354   -1.8193   -0.2806 H   0  0  0  0  0  0  0  0  0  0  0  0
   -4.5413    3.4276   -0.5269 H   0  0  0  0  0  0  0  0  0  0  0  0
    8.8274    1.6563    0.3193 H   0  0  0  0  0  0  0  0  0  0  0  0
    7.6660   -2.4774   -0.1725 H   0  0  0  0  0  0  0  0  0  0  0  0
   -2.9158   -3.1193    1.5158 H   0  0  0  0  0  0  0  0  0  0  0  0
   -4.5960   -3.2797    1.1334 H   0  0  0  0  0  0  0  0  0  0  0  0
    9.4959   -2.0982   -1.5333 H   0  0  0  0  0  0  0  0  0  0  0  0
   10.0118   -2.8452    0.0177 H   0  0  0  0  0  0  0  0  0  0  0  0
   -9.2001    1.0401   -1.1048 H   0  0  0  0  0  0  0  0  0  0  0  0
   11.8813   -2.6815   -1.6555 H   0  0  0  0  0  0  0  0  0  0  0  0
   11.6928   -0.9041   -1.6565 H   0  0  0  0  0  0  0  0  0  0  0  0
  -11.5406   -0.3303   -1.3526 H   0  0  0  0  0  0  0  0  0  0  0  0
  -10.9201   -2.9025   -0.5540 H   0  0  0  0  0  0  0  0  0  0  0  0
  1 34  1  0  0  0  0
  2 28  1  0  0  0  0
  2 32  1  0  0  0  0
  3 31  1  0  0  0  0
  3 36  1  0  0  0  0
  4 13  1  0  0  0  0
  4 14  1  0  0  0  0
  4 17  1  0  0  0  0
  5 15  1  0  0  0  0
  5 16  1  0  0  0  0
  5 19  1  0  0  0  0
  6  7  1  0  0  0  0
  6 18  1  0  0  0  0
  6 20  1  0  0  0  0
  7 24  2  0  0  0  0
  8 11  1  0  0  0  0
  8 25  1  0  0  0  0
  8 29  1  0  0  0  0
  9 20  1  0  0  0  0
  9 29  2  0  0  0  0
 10 25  2  0  0  0  0
 10 30  1  0  0  0  0
 11 30  2  0  0  0  0
 12 29  1  0  0  0  0
 12 54  1  0  0  0  0
 12 55  1  0  0  0  0
 13 15  1  0  0  0  0
 13 38  1  0  0  0  0
 13 39  1  0  0  0  0
 14 16  1  0  0  0  0
 14 37  1  0  0  0  0
 14 40  1  0  0  0  0
 15 41  1  0  0  0  0
 15 44  1  0  0  0  0
 16 42  1  0  0  0  0
 16 43  1  0  0  0  0
 17 18  1  0  0  0  0
 17 45  1  0  0  0  0
 17 46  1  0  0  0  0
 18 47  1  0  0  0  0
 18 48  1  0  0  0  0
 19 21  2  0  0  0  0
 19 22  1  0  0  0  0
 20 23  2  0  0  0  0
 21 26  1  0  0  0  0
 21 49  1  0  0  0  0
 22 27  2  0  0  0  0
 22 50  1  0  0  0  0
 23 24  1  0  0  0  0
 23 25  1  0  0  0  0
 24 51  1  0  0  0  0
 26 28  2  0  0  0  0
 26 52  1  0  0  0  0
 27 28  1  0  0  0  0
 27 53  1  0  0  0  0
 30 31  1  0  0  0  0
 31 33  2  0  0  0  0
 32 34  1  0  0  0  0
 32 56  1  0  0  0  0
 32 57  1  0  0  0  0
 33 35  1  0  0  0  0
 33 58  1  0  0  0  0
 34 59  1  0  0  0  0
 34 60  1  0  0  0  0
 35 36  2  0  0  0  0
 35 61  1  0  0  0  0
 36 62  1  0  0  0  0
M  END
> <PUBCHEM_COMPOUND_CID>
131634540

> <PUBCHEM_CONFORMER_RMSD>
1

> <PUBCHEM_CONFORMER_DIVERSEORDER>
1
71
78
6
79
42
52
39
5
61
63
31
82
47
77
44
54
56
70
58
45
28
69
73
3
2
62
35
46
13
57
21
26
12
38
11
4
72
80
43
23
22
14
48
50
30
59
15
55
67
18
66
76
81
27
41
68
17
40
36
74
7
32
24
37
49
65
34
29
25
10
33
51
16
9
53
8
19
75
60
64
20

> <PUBCHEM_MMFF94_PARTIAL_CHARGES>
45
1 -0.34
10 -0.57
11 -0.71
12 -0.85
13 0.27
14 0.27
15 0.37
16 0.37
17 0.27
18 0.26
19 0.1
2 -0.36
20 -0.03
21 -0.15
22 -0.15
24 0.14
25 0.19
26 -0.15
27 -0.15
28 0.08
29 0.51
3 -0.28
30 0.52
31 0.14
32 0.28
33 -0.15
34 0.34
35 -0.15
36 -0.01
4 -0.81
49 0.15
5 -0.84
50 0.15
51 0.15
52 0.15
53 0.15
54 0.4
55 0.4
58 0.15
6 0.31
61 0.15
62 0.15
7 -0.71
8 0.56
9 -0.58

> <PUBCHEM_EFFECTIVE_ROTOR_COUNT>
9.2

> <PUBCHEM_PHARMACOPHORE_FEATURES>
14
1 12 donor
1 2 acceptor
1 3 acceptor
1 4 cation
1 5 cation
1 7 acceptor
3 10 11 30 cation
4 8 9 12 29 cation
5 3 31 33 35 36 rings
5 6 7 20 23 24 rings
5 8 10 11 25 30 rings
6 19 21 22 26 27 28 rings
6 4 5 13 14 15 16 rings
6 8 9 20 23 25 29 rings

> <PUBCHEM_HEAVY_ATOM_COUNT>
36

> <PUBCHEM_ATOM_DEF_STEREO_COUNT>
0

> <PUBCHEM_ATOM_UDEF_STEREO_COUNT>
0

> <PUBCHEM_BOND_DEF_STEREO_COUNT>
0

> <PUBCHEM_BOND_UDEF_STEREO_COUNT>
0

> <PUBCHEM_ISOTOPIC_ATOM_COUNT>
0

> <PUBCHEM_COMPONENT_COUNT>
1

> <PUBCHEM_CACTVS_TAUTO_COUNT>
6

> <PUBCHEM_CONFORMER_ID>
07D8956C00000001

> <PUBCHEM_MMFF94_ENERGY>
89.6481

> <PUBCHEM_FEATURE_SELFOVERLAP>
71.312

> <PUBCHEM_SHAPE_FINGERPRINT>
10 15 11240003356111104757
10165383 225 10665221554385551797
10533779 47 13470415423470657412
10580692 12 18411418428332597416
106641 1 11671787087862621093
10677351 14 18113904858206638132
10930396 42 13973966507047058267
11135609 99 18412266155902533244
11607047 74 18266741475709987084
11828042 58 17968097500830549137
12013929 94 18343304748254195510
12202916 173 18342461461005821791
12498461 61 18342739594381366257
12539745 222 17703512125948970801
12741549 16 16988844982257987425
13740195 50 10952047871283930765
14117953 113 17312821593281153087
14118638 360 16153978058902192577
14202775 3 18272092673962984878
15065858 18 18343013411015026841
15183329 4 17675924292311890576
15198563 99 16370998573028885725
15247644 1 17704353281712866255
15274700 232 18337677520537467511
15347590 135 15051739672258763518
15510794 2 18272370850625734156
155225 1 7925912582294253574
15890870 6 18334010610192243747
16728433 110 17846774131867199096
18603816 31 17560231544671070783
19302320 297 11167936962239179346
20105231 36 18273214184333596710
2026 5 18271808977833982982
20721686 146 12757964895648998279
21057603 285 17201387242139810611
212700 22 18408884053566759514
21792961 116 18187367645526845337
21792965 169 17968672604876669957
21895431 317 18338514141622383410
232437 2 18342175570116317558
23559900 14 18264204893404084521
23569917 315 17987807290224686014
23576562 1 15575575689417685636
249057 3 17458625657541126669
2851757 41 18410298038383771627
3004659 81 18040430031965927753
3711267 37 8358263691641624855
3991529 128 11386367024481160111
4339292 15 18341891879406013260
4353968 344 18411133611544354661
44389302 135 17489872639361824127
4760202 170 14996577222208813614
54039377 194 18412544314621165845
5758199 1 12391513079625526116
57828716 8 17275096246406876375
59521270 166 18040995099680909677
59848396 5 17560228250690163663
6081469 158 17967810570337810557
6673363 416 12973603344801615695

> <PUBCHEM_SHAPE_MULTIPOLES>
677.02
44.31
2.66
0.91
38.13
0.32
-0.01
-36.01
-12.49
-0.41
-0.12
-0.31
-0.12
0.55

> <PUBCHEM_SHAPE_SELFOVERLAP>
1489.626

> <PUBCHEM_SHAPE_VOLUME>
367.4

> <PUBCHEM_COORDINATE_TYPE>
2
5
10

$$$$
