131665
  -OEChem-03292013323D

 29 29  0     0  0  0  0  0  0999 V2000
    1.8830    0.0239   -0.9376 S   0  0  0  0  0  0  0  0  0  0  0  0
   -0.0338   -2.1477   -0.0648 O   0  0  0  0  0  0  0  0  0  0  0  0
   -3.9067    0.6178    0.2789 O   0  0  0  0  0  0  0  0  0  0  0  0
   -2.6990   -1.8629    0.4941 O   0  0  0  0  0  0  0  0  0  0  0  0
    0.2157    2.5549   -1.0617 O   0  0  0  0  0  0  0  0  0  0  0  0
    4.6916   -0.1878    1.7461 O   0  0  0  0  0  0  0  0  0  0  0  0
    4.7520    0.4939   -0.4211 O   0  0  0  0  0  0  0  0  0  0  0  0
    0.1351    0.1963   -0.5724 C   0  0  0  0  0  0  0  0  0  0  0  0
   -0.6099   -0.9150   -0.1781 C   0  0  0  0  0  0  0  0  0  0  0  0
   -1.9681   -0.7781    0.1088 C   0  0  0  0  0  0  0  0  0  0  0  0
   -2.5812    0.4702    0.0014 C   0  0  0  0  0  0  0  0  0  0  0  0
   -0.4780    1.4445   -0.6798 C   0  0  0  0  0  0  0  0  0  0  0  0
   -1.8362    1.5815   -0.3928 C   0  0  0  0  0  0  0  0  0  0  0  0
    2.6199    0.3268    0.6906 C   0  0  0  0  0  0  0  0  0  0  0  0
   -0.0427   -2.9730   -1.2263 C   0  0  0  0  0  0  0  0  0  0  0  0
   -4.2560    0.9308    1.6259 C   0  0  0  0  0  0  0  0  0  0  0  0
    4.1146    0.2239    0.5888 C   0  0  0  0  0  0  0  0  0  0  0  0
   -2.3223    2.5508   -0.4745 H   0  0  0  0  0  0  0  0  0  0  0  0
    2.2503   -0.4307    1.3883 H   0  0  0  0  0  0  0  0  0  0  0  0
    2.3581    1.3236    1.0562 H   0  0  0  0  0  0  0  0  0  0  0  0
   -2.1029   -2.6270    0.5751 H   0  0  0  0  0  0  0  0  0  0  0  0
   -0.3842    3.3202   -1.0745 H   0  0  0  0  0  0  0  0  0  0  0  0
    0.4097   -2.4638   -2.0826 H   0  0  0  0  0  0  0  0  0  0  0  0
   -1.0656   -3.2732   -1.4745 H   0  0  0  0  0  0  0  0  0  0  0  0
    0.5396   -3.8729   -1.0100 H   0  0  0  0  0  0  0  0  0  0  0  0
   -3.9203    0.1408    2.3050 H   0  0  0  0  0  0  0  0  0  0  0  0
   -5.3450    1.0065    1.6887 H   0  0  0  0  0  0  0  0  0  0  0  0
   -3.8207    1.8906    1.9214 H   0  0  0  0  0  0  0  0  0  0  0  0
    5.6679   -0.2442    1.6685 H   0  0  0  0  0  0  0  0  0  0  0  0
  1  8  1  0  0  0  0
  1 14  1  0  0  0  0
  2  9  1  0  0  0  0
  2 15  1  0  0  0  0
  3 11  1  0  0  0  0
  3 16  1  0  0  0  0
  4 10  1  0  0  0  0
  4 21  1  0  0  0  0
  5 12  1  0  0  0  0
  5 22  1  0  0  0  0
  6 17  1  0  0  0  0
  6 29  1  0  0  0  0
  7 17  2  0  0  0  0
  8  9  2  0  0  0  0
  8 12  1  0  0  0  0
  9 10  1  0  0  0  0
 10 11  2  0  0  0  0
 11 13  1  0  0  0  0
 12 13  2  0  0  0  0
 13 18  1  0  0  0  0
 14 17  1  0  0  0  0
 14 19  1  0  0  0  0
 14 20  1  0  0  0  0
 15 23  1  0  0  0  0
 15 24  1  0  0  0  0
 15 25  1  0  0  0  0
 16 26  1  0  0  0  0
 16 27  1  0  0  0  0
 16 28  1  0  0  0  0
M  END
> <PUBCHEM_COMPOUND_CID>
131665

> <PUBCHEM_CONFORMER_RMSD>
0.6

> <PUBCHEM_CONFORMER_DIVERSEORDER>
2
59
54
60
55
14
67
64
27
29
51
63
50
40
62
58
61
45
68
65
39
66
49
4
56
6
5
53
12
10
18
47
52
31
48
35
17
42
26
57
69
8
36
30
43
22
23
1
44
37
41
25
20
38
24
15
46
16
7
9
28
19
21
3
11
33
13
34
32

> <PUBCHEM_MMFF94_PARTIAL_CHARGES>
21
1 -0.33
10 0.08
11 0.08
12 0.08
13 -0.15
14 0.29
15 0.28
16 0.28
17 0.66
18 0.15
2 -0.36
21 0.45
22 0.45
29 0.5
3 -0.36
4 -0.53
5 -0.53
6 -0.65
7 -0.57
8 0.1
9 0.08

> <PUBCHEM_EFFECTIVE_ROTOR_COUNT>
5

> <PUBCHEM_PHARMACOPHORE_FEATURES>
8
1 2 acceptor
1 3 acceptor
1 4 donor
1 5 donor
1 6 acceptor
1 7 acceptor
3 6 7 17 anion
6 8 9 10 11 12 13 rings

> <PUBCHEM_HEAVY_ATOM_COUNT>
17

> <PUBCHEM_ATOM_DEF_STEREO_COUNT>
0

> <PUBCHEM_ATOM_UDEF_STEREO_COUNT>
0

> <PUBCHEM_BOND_DEF_STEREO_COUNT>
0

> <PUBCHEM_BOND_UDEF_STEREO_COUNT>
0

> <PUBCHEM_ISOTOPIC_ATOM_COUNT>
0

> <PUBCHEM_COMPONENT_COUNT>
1

> <PUBCHEM_CACTVS_TAUTO_COUNT>
7

> <PUBCHEM_CONFORMER_ID>
0002025100000002

> <PUBCHEM_MMFF94_ENERGY>
62.7197

> <PUBCHEM_FEATURE_SELFOVERLAP>
40.655

> <PUBCHEM_SHAPE_FINGERPRINT>
11132069 177 18408889512105526565
12251169 10 18334017189654294961
12633257 1 18271798034726369472
13140716 1 18264501748610624585
14178342 30 18341066159232729987
15209294 21 18059301946434101145
15309172 13 18411976940687782132
15375462 189 17603863421002951392
15375462 478 17530686480798355876
15669948 3 18336824316445067742
16945 1 18335998488675900133
17804303 29 18340488966740461096
19784866 170 18336838485046330753
20871998 184 18410570712676658726
212916 134 18060412504358845426
21452121 103 18123191204212042889
21637258 2 14996566247944996297
22182313 1 17973171630179000589
2334 1 17977120259907440749
23402539 116 18341880922649029399
23419403 2 17266895113069930901
23557571 272 17703241722685421783
23559900 14 18271824401757141438
25147074 1 18119826943512691093
2748010 2 17901678059825677437
2838139 119 15912767146730248961
3250762 1 17617095802471379909
4072396 5 18187925041343903405
465052 167 17749688371329780633
58807428 26 18409732833045006019
7364860 26 17913215264884094591
81228 2 17980172478126380990
84936 31 16915091799070693910
90316 7 18260256456605819692

> <PUBCHEM_SHAPE_MULTIPOLES>
318.49
7.61
2.34
1.25
5.62
1.51
-0.3
-2.32
-4.35
-0.99
0.9
0.35
-0.18
-0.11

> <PUBCHEM_SHAPE_SELFOVERLAP>
644.823

> <PUBCHEM_SHAPE_VOLUME>
187.5

> <PUBCHEM_COORDINATE_TYPE>
2
5
10

$$$$
