131674266
  -OEChem-03292013293D

 76 81  0     1  0  0  0  0  0999 V2000
    2.1216   -2.8574    0.0888 O   0  0  0  0  0  0  0  0  0  0  0  0
   -1.2634   -3.0825    0.0469 O   0  0  0  0  0  0  0  0  0  0  0  0
   -1.2738    2.7372   -0.1414 O   0  0  0  0  0  0  0  0  0  0  0  0
    4.3677    1.7756    1.3314 O   0  0  0  0  0  0  0  0  0  0  0  0
    4.3146   -1.2670    1.5762 O   0  0  0  0  0  0  0  0  0  0  0  0
    2.5353   -0.8849   -2.3164 O   0  0  0  0  0  0  0  0  0  0  0  0
    4.8876    0.5377   -0.9168 O   0  0  0  0  0  0  0  0  0  0  0  0
   -4.1506    2.0005    0.6277 O   0  0  0  0  0  0  0  0  0  0  0  0
   -5.1450   -0.5471   -0.1166 O   0  0  0  0  0  0  0  0  0  0  0  0
   -1.2025    0.5027   -1.6738 N   0  0  2  0  0  0  0  0  0  0  0  0
   -0.3745    0.5103    0.6587 C   0  0  1  0  0  0  0  0  0  0  0  0
   -1.4677   -0.6814    0.8077 C   0  0  2  0  0  0  0  0  0  0  0  0
    0.9702    0.3857    1.5220 C   0  0  1  0  0  0  0  0  0  0  0  0
   -0.0415    0.1803   -0.7982 C   0  0  1  0  0  0  0  0  0  0  0  0
    0.3911   -1.3466   -0.5856 C   0  0  1  0  0  0  0  0  0  0  0  0
    1.8808   -0.8674    1.4026 C   0  0  1  0  0  0  0  0  0  0  0  0
    1.8380   -1.4464   -0.0330 C   0  0  1  0  0  0  0  0  0  0  0  0
   -0.5832   -1.9235    0.5407 C   0  0  2  0  0  0  0  0  0  0  0  0
   -2.8378   -0.0643    0.3554 C   0  0  2  0  0  0  0  0  0  0  0  0
   -0.9414    1.9434    0.9891 C   0  0  2  0  0  0  0  0  0  0  0  0
    1.9826    1.5366    1.2135 C   0  0  0  0  0  0  0  0  0  0  0  0
    3.3446    0.8842    0.9174 C   0  0  2  0  0  0  0  0  0  0  0  0
    3.2683   -0.3458    1.8049 C   0  0  2  0  0  0  0  0  0  0  0  0
    2.9524   -0.8740   -0.9495 C   0  0  2  0  0  0  0  0  0  0  0  0
   -2.6125    0.3637   -1.1921 C   0  0  0  0  0  0  0  0  0  0  0  0
   -3.2840    1.0843    1.2951 C   0  0  1  0  0  0  0  0  0  0  0  0
    3.4908    0.5258   -0.5795 C   0  0  2  0  0  0  0  0  0  0  0  0
   -2.1385    1.8608    1.9176 C   0  0  0  0  0  0  0  0  0  0  0  0
   -3.9715   -1.1310    0.4074 C   0  0  0  0  0  0  0  0  0  0  0  0
   -1.0283    0.0684   -3.0509 C   0  0  0  0  0  0  0  0  0  0  0  0
   -1.7695   -3.8810    1.1077 C   0  0  0  0  0  0  0  0  0  0  0  0
   -1.8964    0.8807   -3.9967 C   0  0  0  0  0  0  0  0  0  0  0  0
   -1.1953    4.1268    0.1515 C   0  0  0  0  0  0  0  0  0  0  0  0
    5.0726    0.7531   -2.3040 C   0  0  0  0  0  0  0  0  0  0  0  0
   -6.2410   -1.4574   -0.1078 C   0  0  0  0  0  0  0  0  0  0  0  0
   -1.6338   -0.7949    1.8927 H   0  0  0  0  0  0  0  0  0  0  0  0
    0.6792    0.4726    2.5791 H   0  0  0  0  0  0  0  0  0  0  0  0
    0.7933    0.7761   -1.1694 H   0  0  0  0  0  0  0  0  0  0  0  0
    0.2851   -1.9261   -1.5093 H   0  0  0  0  0  0  0  0  0  0  0  0
    1.6191   -1.6293    2.1454 H   0  0  0  0  0  0  0  0  0  0  0  0
   -0.0695   -2.2312    1.4499 H   0  0  0  0  0  0  0  0  0  0  0  0
   -0.1942    2.4996    1.5636 H   0  0  0  0  0  0  0  0  0  0  0  0
    1.6777    2.1899    0.3895 H   0  0  0  0  0  0  0  0  0  0  0  0
    2.0544    2.1877    2.0958 H   0  0  0  0  0  0  0  0  0  0  0  0
    3.2987   -0.0717    2.8672 H   0  0  0  0  0  0  0  0  0  0  0  0
    3.8033   -1.5695   -0.9263 H   0  0  0  0  0  0  0  0  0  0  0  0
   -3.0837   -0.4263   -1.7919 H   0  0  0  0  0  0  0  0  0  0  0  0
   -3.1580    1.2833   -1.4254 H   0  0  0  0  0  0  0  0  0  0  0  0
   -3.8701    0.6748    2.1282 H   0  0  0  0  0  0  0  0  0  0  0  0
    2.9988    1.3057   -1.1740 H   0  0  0  0  0  0  0  0  0  0  0  0
   -1.8226    1.3516    2.8379 H   0  0  0  0  0  0  0  0  0  0  0  0
   -2.4793    2.8544    2.2264 H   0  0  0  0  0  0  0  0  0  0  0  0
   -4.1400   -1.4709    1.4365 H   0  0  0  0  0  0  0  0  0  0  0  0
   -3.7004   -2.0019   -0.1999 H   0  0  0  0  0  0  0  0  0  0  0  0
    2.0652   -3.2499   -0.7992 H   0  0  0  0  0  0  0  0  0  0  0  0
    0.0136    0.2161   -3.3605 H   0  0  0  0  0  0  0  0  0  0  0  0
   -1.2458   -1.0003   -3.1623 H   0  0  0  0  0  0  0  0  0  0  0  0
    4.2801    1.9238    2.2882 H   0  0  0  0  0  0  0  0  0  0  0  0
    4.1057   -2.0747    2.0755 H   0  0  0  0  0  0  0  0  0  0  0  0
    2.3465   -1.8075   -2.5586 H   0  0  0  0  0  0  0  0  0  0  0  0
   -4.4772    2.6362    1.2871 H   0  0  0  0  0  0  0  0  0  0  0  0
   -2.3645   -4.6891    0.6738 H   0  0  0  0  0  0  0  0  0  0  0  0
   -2.4093   -3.2959    1.7742 H   0  0  0  0  0  0  0  0  0  0  0  0
   -0.9454   -4.3259    1.6740 H   0  0  0  0  0  0  0  0  0  0  0  0
   -1.7179    1.9549   -3.8768 H   0  0  0  0  0  0  0  0  0  0  0  0
   -1.6582    0.6202   -5.0336 H   0  0  0  0  0  0  0  0  0  0  0  0
   -2.9644    0.6898   -3.8535 H   0  0  0  0  0  0  0  0  0  0  0  0
   -1.4141    4.6734   -0.7705 H   0  0  0  0  0  0  0  0  0  0  0  0
   -0.1862    4.4034    0.4734 H   0  0  0  0  0  0  0  0  0  0  0  0
   -1.9322    4.4295    0.8989 H   0  0  0  0  0  0  0  0  0  0  0  0
    4.5295    1.6353   -2.6573 H   0  0  0  0  0  0  0  0  0  0  0  0
    4.7990   -0.1293   -2.8871 H   0  0  0  0  0  0  0  0  0  0  0  0
    6.1389    0.9317   -2.4727 H   0  0  0  0  0  0  0  0  0  0  0  0
   -7.1139   -0.9471   -0.5232 H   0  0  0  0  0  0  0  0  0  0  0  0
   -6.4704   -1.7686    0.9158 H   0  0  0  0  0  0  0  0  0  0  0  0
   -6.0169   -2.3308   -0.7278 H   0  0  0  0  0  0  0  0  0  0  0  0
  1 17  1  0  0  0  0
  1 55  1  0  0  0  0
  2 18  1  0  0  0  0
  2 31  1  0  0  0  0
  3 20  1  0  0  0  0
  3 33  1  0  0  0  0
  4 22  1  0  0  0  0
  4 58  1  0  0  0  0
  5 23  1  0  0  0  0
  5 59  1  0  0  0  0
  6 24  1  0  0  0  0
  6 60  1  0  0  0  0
  7 27  1  0  0  0  0
  7 34  1  0  0  0  0
  8 26  1  0  0  0  0
  8 61  1  0  0  0  0
  9 29  1  0  0  0  0
  9 35  1  0  0  0  0
 10 14  1  0  0  0  0
 10 25  1  0  0  0  0
 10 30  1  0  0  0  0
 11 12  1  0  0  0  0
 11 13  1  0  0  0  0
 11 14  1  0  0  0  0
 11 20  1  0  0  0  0
 12 18  1  0  0  0  0
 12 19  1  0  0  0  0
 12 36  1  0  0  0  0
 13 16  1  0  0  0  0
 13 21  1  0  0  0  0
 13 37  1  0  0  0  0
 14 15  1  0  0  0  0
 14 38  1  0  0  0  0
 15 17  1  0  0  0  0
 15 18  1  0  0  0  0
 15 39  1  0  0  0  0
 16 17  1  0  0  0  0
 16 23  1  0  0  0  0
 16 40  1  0  0  0  0
 17 24  1  0  0  0  0
 18 41  1  0  0  0  0
 19 25  1  0  0  0  0
 19 26  1  0  0  0  0
 19 29  1  0  0  0  0
 20 28  1  0  0  0  0
 20 42  1  0  0  0  0
 21 22  1  0  0  0  0
 21 43  1  0  0  0  0
 21 44  1  0  0  0  0
 22 23  1  0  0  0  0
 22 27  1  0  0  0  0
 23 45  1  0  0  0  0
 24 27  1  0  0  0  0
 24 46  1  0  0  0  0
 25 47  1  0  0  0  0
 25 48  1  0  0  0  0
 26 28  1  0  0  0  0
 26 49  1  0  0  0  0
 27 50  1  0  0  0  0
 28 51  1  0  0  0  0
 28 52  1  0  0  0  0
 29 53  1  0  0  0  0
 29 54  1  0  0  0  0
 30 32  1  0  0  0  0
 30 56  1  0  0  0  0
 30 57  1  0  0  0  0
 31 62  1  0  0  0  0
 31 63  1  0  0  0  0
 31 64  1  0  0  0  0
 32 65  1  0  0  0  0
 32 66  1  0  0  0  0
 32 67  1  0  0  0  0
 33 68  1  0  0  0  0
 33 69  1  0  0  0  0
 33 70  1  0  0  0  0
 34 71  1  0  0  0  0
 34 72  1  0  0  0  0
 34 73  1  0  0  0  0
 35 74  1  0  0  0  0
 35 75  1  0  0  0  0
 35 76  1  0  0  0  0
M  END
> <PUBCHEM_COMPOUND_CID>
131674266

> <PUBCHEM_CONFORMER_RMSD>
1

> <PUBCHEM_CONFORMER_DIVERSEORDER>
1

> <PUBCHEM_MMFF94_PARTIAL_CHARGES>
31
1 -0.68
10 -0.81
14 0.27
17 0.28
18 0.28
2 -0.56
20 0.28
22 0.28
23 0.28
24 0.28
25 0.27
26 0.28
27 0.28
29 0.28
3 -0.56
30 0.27
31 0.28
33 0.28
34 0.28
35 0.28
4 -0.68
5 -0.68
55 0.4
58 0.4
59 0.4
6 -0.68
60 0.4
61 0.4
7 -0.56
8 -0.68
9 -0.56

> <PUBCHEM_EFFECTIVE_ROTOR_COUNT>
8

> <PUBCHEM_PHARMACOPHORE_FEATURES>
19
1 1 acceptor
1 1 donor
1 10 cation
1 2 acceptor
1 3 acceptor
1 4 acceptor
1 4 donor
1 5 acceptor
1 5 donor
1 6 acceptor
1 6 donor
1 7 acceptor
1 8 acceptor
1 8 donor
1 9 acceptor
6 11 12 19 20 26 28 rings
8 10 11 12 14 15 18 19 25 rings
8 11 12 13 14 15 16 17 18 rings
8 13 16 17 21 22 23 24 27 rings

> <PUBCHEM_HEAVY_ATOM_COUNT>
35

> <PUBCHEM_ATOM_DEF_STEREO_COUNT>
14

> <PUBCHEM_ATOM_UDEF_STEREO_COUNT>
1

> <PUBCHEM_BOND_DEF_STEREO_COUNT>
0

> <PUBCHEM_BOND_UDEF_STEREO_COUNT>
0

> <PUBCHEM_ISOTOPIC_ATOM_COUNT>
0

> <PUBCHEM_COMPONENT_COUNT>
1

> <PUBCHEM_CACTVS_TAUTO_COUNT>
1

> <PUBCHEM_CONFORMER_ID>
07D9309A00000001

> <PUBCHEM_MMFF94_ENERGY>
240.9986

> <PUBCHEM_FEATURE_SELFOVERLAP>
97.677

> <PUBCHEM_SHAPE_FINGERPRINT>
10165383 225 18263100863216628438
10366900 7 18273221918873475130
10498660 4 18410858720114354433
10863032 1 18200316515877043089
11578080 2 17970347006034323197
12011746 2 18342181106740774787
12156800 1 17045490790006004715
12173636 292 18337668598976848336
12403814 3 17458057183832377991
12592029 89 16558763299059099935
12788726 201 18410859841116526105
13140716 1 18055055816910193122
13224815 77 18341608179182718536
14223421 5 18269550555111525257
14787075 74 18201429337835452635
14840074 17 17313678142951532159
16945 1 18412822478193883162
17980427 23 17532112569566892669
1813 80 18343297111059116333
18981168 100 18118961395537992220
20600515 1 18115025345789854511
20691752 17 18339939129517088009
23419403 2 17399486401315972503
23559900 14 18055917584739391866
350125 39 18193843643569169002
392239 28 18341896307734009059
469060 322 17097492248334261114

> <PUBCHEM_SHAPE_MULTIPOLES>
662.48
8.81
3.21
2.55
0.51
0.11
-2.76
0.59
-0.38
1.87
1.09
-0.49
-0.8
-0.08

> <PUBCHEM_SHAPE_SELFOVERLAP>
1433.515

> <PUBCHEM_SHAPE_VOLUME>
357.4

> <PUBCHEM_COORDINATE_TYPE>
2
5
10

$$$$
