131632596
  -OEChem-03292013293D

 67 72  0     1  0  0  0  0  0999 V2000
    0.4646    2.1327   -1.0020 O   0  0  0  0  0  0  0  0  0  0  0  0
    2.9676    1.9820    0.0543 O   0  0  0  0  0  0  0  0  0  0  0  0
   -4.4482    0.4099   -2.1180 O   0  0  0  0  0  0  0  0  0  0  0  0
   -7.3470   -0.4090    1.6287 O   0  0  0  0  0  0  0  0  0  0  0  0
    5.3917   -1.2206   -0.6892 O   0  0  0  0  0  0  0  0  0  0  0  0
    3.1352    3.5346    1.7567 O   0  0  0  0  0  0  0  0  0  0  0  0
    6.7868   -2.8148    0.1352 O   0  0  0  0  0  0  0  0  0  0  0  0
   -0.0342    0.8367   -0.5996 C   0  0  2  0  0  0  0  0  0  0  0  0
    0.9430   -0.3167   -0.8453 C   0  0  1  0  0  0  0  0  0  0  0  0
   -1.5348    0.7116   -0.8215 C   0  0  1  0  0  0  0  0  0  0  0  0
    0.6140    1.7983    0.3725 C   0  0  1  0  0  0  0  0  0  0  0  0
   -2.0629   -0.7498   -0.7747 C   0  0  2  0  0  0  0  0  0  0  0  0
    1.8888   -0.2214    0.4186 C   0  0  2  0  0  0  0  0  0  0  0  0
    1.9618    1.2837    0.7745 C   0  0  1  0  0  0  0  0  0  0  0  0
   -3.5552   -0.9417   -0.2826 C   0  0  2  0  0  0  0  0  0  0  0  0
    0.2474   -1.6904   -0.8734 C   0  0  0  0  0  0  0  0  0  0  0  0
   -1.0620   -1.6983   -0.0937 C   0  0  0  0  0  0  0  0  0  0  0  0
   -2.3344    1.6388    0.0922 C   0  0  0  0  0  0  0  0  0  0  0  0
   -4.4190    0.2991   -0.6849 C   0  0  1  0  0  0  0  0  0  0  0  0
    1.6996   -0.1257   -2.1757 C   0  0  0  0  0  0  0  0  0  0  0  0
   -3.8334    1.6380   -0.1812 C   0  0  0  0  0  0  0  0  0  0  0  0
   -3.6746   -1.1721    1.2525 C   0  0  0  0  0  0  0  0  0  0  0  0
    3.2176   -0.9005    0.3153 C   0  0  0  0  0  0  0  0  0  0  0  0
   -5.8792    0.1724   -0.1961 C   0  0  0  0  0  0  0  0  0  0  0  0
   -4.0841   -2.2330   -0.9873 C   0  0  0  0  0  0  0  0  0  0  0  0
   -5.1223   -1.2873    1.7386 C   0  0  0  0  0  0  0  0  0  0  0  0
   -5.9911   -0.1125    1.3029 C   0  0  2  0  0  0  0  0  0  0  0  0
    3.5236   -1.9583    1.2428 C   0  0  0  0  0  0  0  0  0  0  0  0
    4.1462   -0.5837   -0.5929 C   0  0  0  0  0  0  0  0  0  0  0  0
    3.4717    3.0974    0.6646 C   0  0  0  0  0  0  0  0  0  0  0  0
    4.6967   -2.5968    1.1931 C   0  0  0  0  0  0  0  0  0  0  0  0
    4.5167    3.7272   -0.2058 C   0  0  0  0  0  0  0  0  0  0  0  0
    5.7095   -2.2299    0.1813 C   0  0  0  0  0  0  0  0  0  0  0  0
   -1.7115    1.0670   -1.8479 H   0  0  0  0  0  0  0  0  0  0  0  0
    0.0652    2.3347    1.1265 H   0  0  0  0  0  0  0  0  0  0  0  0
   -2.0665   -1.0519   -1.8347 H   0  0  0  0  0  0  0  0  0  0  0  0
    1.3257   -0.6763    1.2492 H   0  0  0  0  0  0  0  0  0  0  0  0
    2.1131    1.3751    1.8577 H   0  0  0  0  0  0  0  0  0  0  0  0
    0.9124   -2.4711   -0.4853 H   0  0  0  0  0  0  0  0  0  0  0  0
    0.0289   -1.9852   -1.9088 H   0  0  0  0  0  0  0  0  0  0  0  0
   -1.4418   -2.7249   -0.0857 H   0  0  0  0  0  0  0  0  0  0  0  0
   -0.8934   -1.4088    0.9496 H   0  0  0  0  0  0  0  0  0  0  0  0
   -1.9826    2.6736   -0.0076 H   0  0  0  0  0  0  0  0  0  0  0  0
   -2.1503    1.3714    1.1391 H   0  0  0  0  0  0  0  0  0  0  0  0
    2.2775    0.8013   -2.2158 H   0  0  0  0  0  0  0  0  0  0  0  0
    0.9732   -0.0466   -2.9957 H   0  0  0  0  0  0  0  0  0  0  0  0
    2.3381   -0.9792   -2.4231 H   0  0  0  0  0  0  0  0  0  0  0  0
   -4.3194    1.9721    0.7417 H   0  0  0  0  0  0  0  0  0  0  0  0
   -4.0424    2.4270   -0.9167 H   0  0  0  0  0  0  0  0  0  0  0  0
   -3.1892   -0.3646    1.8077 H   0  0  0  0  0  0  0  0  0  0  0  0
   -3.1535   -2.0920    1.5438 H   0  0  0  0  0  0  0  0  0  0  0  0
   -6.4075   -0.6032   -0.7661 H   0  0  0  0  0  0  0  0  0  0  0  0
   -6.4402    1.0863   -0.4368 H   0  0  0  0  0  0  0  0  0  0  0  0
   -3.9823   -2.1646   -2.0763 H   0  0  0  0  0  0  0  0  0  0  0  0
   -5.1411   -2.4238   -0.7845 H   0  0  0  0  0  0  0  0  0  0  0  0
   -3.5357   -3.1229   -0.6620 H   0  0  0  0  0  0  0  0  0  0  0  0
   -5.5676   -2.2295    1.3963 H   0  0  0  0  0  0  0  0  0  0  0  0
   -5.1343   -1.3577    2.8339 H   0  0  0  0  0  0  0  0  0  0  0  0
   -5.7110    0.7723    1.8839 H   0  0  0  0  0  0  0  0  0  0  0  0
   -5.0770    1.1120   -2.3573 H   0  0  0  0  0  0  0  0  0  0  0  0
    2.7896   -2.2391    1.9906 H   0  0  0  0  0  0  0  0  0  0  0  0
    4.1161    0.1947   -1.3375 H   0  0  0  0  0  0  0  0  0  0  0  0
   -7.8864    0.3532    1.3573 H   0  0  0  0  0  0  0  0  0  0  0  0
    4.9344   -3.3942    1.8875 H   0  0  0  0  0  0  0  0  0  0  0  0
    4.9141    4.6174    0.2900 H   0  0  0  0  0  0  0  0  0  0  0  0
    4.0728    4.0271   -1.1583 H   0  0  0  0  0  0  0  0  0  0  0  0
    5.3365    3.0228   -0.3678 H   0  0  0  0  0  0  0  0  0  0  0  0
  1  8  1  0  0  0  0
  1 11  1  0  0  0  0
  2 14  1  0  0  0  0
  2 30  1  0  0  0  0
  3 19  1  0  0  0  0
  3 60  1  0  0  0  0
  4 27  1  0  0  0  0
  4 63  1  0  0  0  0
  5 29  1  0  0  0  0
  5 33  1  0  0  0  0
  6 30  2  0  0  0  0
  7 33  2  0  0  0  0
  8  9  1  0  0  0  0
  8 10  1  0  0  0  0
  8 11  1  0  0  0  0
  9 13  1  0  0  0  0
  9 16  1  0  0  0  0
  9 20  1  0  0  0  0
 10 12  1  0  0  0  0
 10 18  1  0  0  0  0
 10 34  1  0  0  0  0
 11 14  1  0  0  0  0
 11 35  1  0  0  0  0
 12 15  1  0  0  0  0
 12 17  1  0  0  0  0
 12 36  1  0  0  0  0
 13 14  1  0  0  0  0
 13 23  1  0  0  0  0
 13 37  1  0  0  0  0
 14 38  1  0  0  0  0
 15 19  1  0  0  0  0
 15 22  1  0  0  0  0
 15 25  1  0  0  0  0
 16 17  1  0  0  0  0
 16 39  1  0  0  0  0
 16 40  1  0  0  0  0
 17 41  1  0  0  0  0
 17 42  1  0  0  0  0
 18 21  1  0  0  0  0
 18 43  1  0  0  0  0
 18 44  1  0  0  0  0
 19 21  1  0  0  0  0
 19 24  1  0  0  0  0
 20 45  1  0  0  0  0
 20 46  1  0  0  0  0
 20 47  1  0  0  0  0
 21 48  1  0  0  0  0
 21 49  1  0  0  0  0
 22 26  1  0  0  0  0
 22 50  1  0  0  0  0
 22 51  1  0  0  0  0
 23 28  1  0  0  0  0
 23 29  2  0  0  0  0
 24 27  1  0  0  0  0
 24 52  1  0  0  0  0
 24 53  1  0  0  0  0
 25 54  1  0  0  0  0
 25 55  1  0  0  0  0
 25 56  1  0  0  0  0
 26 27  1  0  0  0  0
 26 57  1  0  0  0  0
 26 58  1  0  0  0  0
 27 59  1  0  0  0  0
 28 31  2  0  0  0  0
 28 61  1  0  0  0  0
 29 62  1  0  0  0  0
 30 32  1  0  0  0  0
 31 33  1  0  0  0  0
 31 64  1  0  0  0  0
 32 65  1  0  0  0  0
 32 66  1  0  0  0  0
 32 67  1  0  0  0  0
M  END
> <PUBCHEM_COMPOUND_CID>
131632596

> <PUBCHEM_CONFORMER_RMSD>
0.8

> <PUBCHEM_CONFORMER_DIVERSEORDER>
1
9
4
6
10
7
2
8
5
3

> <PUBCHEM_MMFF94_PARTIAL_CHARGES>
28
1 -0.3
10 0.09
11 -0.05
13 0.14
14 0.38
19 0.28
2 -0.43
23 -0.14
27 0.28
28 -0.15
29 -0.07
3 -0.68
30 0.66
31 -0.14
32 0.06
33 0.71
35 0.1
4 -0.68
5 -0.23
6 -0.57
60 0.4
61 0.15
62 0.15
63 0.4
64 0.15
7 -0.57
8 -0.04
9 0.09

> <PUBCHEM_EFFECTIVE_ROTOR_COUNT>
5.2

> <PUBCHEM_PHARMACOPHORE_FEATURES>
12
1 1 acceptor
1 3 acceptor
1 3 donor
1 4 acceptor
1 4 donor
1 6 acceptor
1 7 acceptor
6 1 8 9 11 13 14 rings
6 10 12 15 18 19 21 rings
6 15 19 22 24 26 27 rings
6 5 23 28 29 31 33 rings
6 8 9 10 12 16 17 rings

> <PUBCHEM_HEAVY_ATOM_COUNT>
33

> <PUBCHEM_ATOM_DEF_STEREO_COUNT>
10

> <PUBCHEM_ATOM_UDEF_STEREO_COUNT>
0

> <PUBCHEM_BOND_DEF_STEREO_COUNT>
0

> <PUBCHEM_BOND_UDEF_STEREO_COUNT>
0

> <PUBCHEM_ISOTOPIC_ATOM_COUNT>
0

> <PUBCHEM_COMPONENT_COUNT>
1

> <PUBCHEM_CACTVS_TAUTO_COUNT>
1

> <PUBCHEM_CONFORMER_ID>
07D88DD400000001

> <PUBCHEM_MMFF94_ENERGY>
133.4717

> <PUBCHEM_FEATURE_SELFOVERLAP>
61.071

> <PUBCHEM_SHAPE_FINGERPRINT>
10006869 2 18060143154318086609
10074138 170 17331091929578048280
10369192 42 17825665836185909860
10622 236 17771598403750883047
11135926 11 18267294516688072748
11456790 92 18130520661024743299
117089 54 17904484000610864882
12107183 9 18272655597866390859
12107698 1 18410577267144801571
12166972 35 17749398057009649077
12236239 1 17822298929237518406
12403259 415 18187359935512195597
12616971 3 17917709106767339397
12633257 1 18060421317826980207
12788726 201 17131290020713420833
13140716 1 18410576150190001929
13224815 77 18272091647396469069
13533116 47 18410856589736475817
13540713 5 17773300438938413102
13673619 4 18187650159141979270
13782708 43 18114177519113930451
14341114 176 18334581265268780625
14739800 52 16915928763826931128
14849402 71 18340208587355275736
14950920 106 18270135586130236395
14955137 171 18271805667083642678
15081414 286 18335419131362540741
15475509 35 17748821895552547130
15475509 84 18201725007057305977
15927050 60 18124311877470967798
16112460 7 18272379680118321617
17349148 13 17703788106823108887
17492 89 18267295620273134735
19841028 212 18265041609142369427
20028762 73 17988349442918000607
21033648 29 17676754440775816981
21049683 271 18260555507290299868
21130935 74 18337116769627673907
21267235 1 18334300820593948302
21781055 127 16557928756901365979
21792965 39 18057892523230779970
22182313 1 17970039267237749484
23522609 53 18120687723104039877
23559900 14 18340753901803357248
23569943 247 17200516208584876798
249057 25 17346590894490632125
25147074 1 17916857049168619847
3178227 256 18412549786341195482
335352 9 18339354167998699597
3383291 50 18335419032589128707
3411729 13 18199751508951297948
350125 39 18411420596267799484
376196 1 16624611084059166392
3886686 26 16321168406281199986
394071 54 18131345315825005866
4093350 32 17346887775710316284
465052 167 18410295770493151486
5104073 3 18200595916595916691
57527293 21 18272656796410212359
57724786 102 18342742961356450177
6703917 75 17474109177910726792
7495541 125 18409448068650282500
8863177 126 18187372059856998587
9962374 69 18342726438353616070

> <PUBCHEM_SHAPE_MULTIPOLES>
638.04
14.96
3.47
1.53
5.85
2.15
0.05
-6.2
-4.37
-6.71
-0.9
1.02
-0.11
0.49

> <PUBCHEM_SHAPE_SELFOVERLAP>
1391.165

> <PUBCHEM_SHAPE_VOLUME>
341

> <PUBCHEM_COORDINATE_TYPE>
2
5
10

$$$$
