131704
  -OEChem-03292013323D

 52 55  0     1  0  0  0  0  0999 V2000
   -2.7015    1.1947   -1.0944 O   0  0  0  0  0  0  0  0  0  0  0  0
   -2.0797    3.6591    2.2059 O   0  0  0  0  0  0  0  0  0  0  0  0
   -4.2633    2.9079    0.6768 O   0  0  0  0  0  0  0  0  0  0  0  0
    0.8976   -0.4028   -0.0610 O   0  0  0  0  0  0  0  0  0  0  0  0
   -3.8405   -0.8110   -0.2188 O   0  0  0  0  0  0  0  0  0  0  0  0
   -1.2363   -4.7450    0.2359 O   0  0  0  0  0  0  0  0  0  0  0  0
    1.3681   -4.4325    0.3118 O   0  0  0  0  0  0  0  0  0  0  0  0
    6.4000    2.7122   -0.1295 O   0  0  0  0  0  0  0  0  0  0  0  0
   -1.5623    0.8951   -0.2791 C   0  0  1  0  0  0  0  0  0  0  0  0
   -1.8791    3.0705    0.9259 C   0  0  1  0  0  0  0  0  0  0  0  0
   -1.6679    1.5693    1.0924 C   0  0  0  0  0  0  0  0  0  0  0  0
   -3.0735    3.3483    0.0125 C   0  0  1  0  0  0  0  0  0  0  0  0
   -2.9567    2.5893   -1.3156 C   0  0  1  0  0  0  0  0  0  0  0  0
   -1.4534   -0.6089   -0.1392 C   0  0  0  0  0  0  0  0  0  0  0  0
   -1.9280    3.1937   -2.2680 C   0  0  0  0  0  0  0  0  0  0  0  0
   -0.2038   -1.2202   -0.0331 C   0  0  0  0  0  0  0  0  0  0  0  0
   -2.6106   -1.3878   -0.1174 C   0  0  0  0  0  0  0  0  0  0  0  0
   -0.1145   -2.6054    0.0934 C   0  0  0  0  0  0  0  0  0  0  0  0
   -2.5191   -2.7746    0.0096 C   0  0  0  0  0  0  0  0  0  0  0  0
   -1.2706   -3.3889    0.1154 C   0  0  0  0  0  0  0  0  0  0  0  0
    1.2156   -3.2238    0.2015 C   0  0  0  0  0  0  0  0  0  0  0  0
    2.1528   -0.9817    0.0492 C   0  0  0  0  0  0  0  0  0  0  0  0
    2.3685   -2.3013    0.1688 C   0  0  0  0  0  0  0  0  0  0  0  0
    3.2664   -0.0130    0.0017 C   0  0  0  0  0  0  0  0  0  0  0  0
   -4.9684   -1.6827   -0.1877 C   0  0  0  0  0  0  0  0  0  0  0  0
    4.5011   -0.3884   -0.5336 C   0  0  0  0  0  0  0  0  0  0  0  0
    3.0903    1.2831    0.4926 C   0  0  0  0  0  0  0  0  0  0  0  0
    5.5530    0.5267   -0.5776 C   0  0  0  0  0  0  0  0  0  0  0  0
    4.1422    2.1981    0.4483 C   0  0  0  0  0  0  0  0  0  0  0  0
    5.3736    1.8199   -0.0867 C   0  0  0  0  0  0  0  0  0  0  0  0
   -0.6798    1.2648   -0.8128 H   0  0  0  0  0  0  0  0  0  0  0  0
   -0.9737    3.5210    0.5047 H   0  0  0  0  0  0  0  0  0  0  0  0
   -2.5026    1.1461    1.6678 H   0  0  0  0  0  0  0  0  0  0  0  0
   -0.7705    1.3823    1.6954 H   0  0  0  0  0  0  0  0  0  0  0  0
   -3.1846    4.4265   -0.1477 H   0  0  0  0  0  0  0  0  0  0  0  0
   -3.9283    2.6219   -1.8233 H   0  0  0  0  0  0  0  0  0  0  0  0
   -2.2091    4.2145   -2.5452 H   0  0  0  0  0  0  0  0  0  0  0  0
   -0.9245    3.2272   -1.8344 H   0  0  0  0  0  0  0  0  0  0  0  0
   -1.8570    2.5917   -3.1802 H   0  0  0  0  0  0  0  0  0  0  0  0
   -2.9079    3.3027    2.5703 H   0  0  0  0  0  0  0  0  0  0  0  0
   -5.0176    3.1320    0.1055 H   0  0  0  0  0  0  0  0  0  0  0  0
   -3.3805   -3.4342    0.0326 H   0  0  0  0  0  0  0  0  0  0  0  0
    3.3500   -2.7502    0.2672 H   0  0  0  0  0  0  0  0  0  0  0  0
   -5.0485   -2.2070    0.7708 H   0  0  0  0  0  0  0  0  0  0  0  0
   -4.9742   -2.3678   -1.0424 H   0  0  0  0  0  0  0  0  0  0  0  0
   -5.8612   -1.0552   -0.2799 H   0  0  0  0  0  0  0  0  0  0  0  0
   -0.3211   -5.0574    0.3034 H   0  0  0  0  0  0  0  0  0  0  0  0
    4.6745   -1.3788   -0.9459 H   0  0  0  0  0  0  0  0  0  0  0  0
    2.1437    1.6024    0.9220 H   0  0  0  0  0  0  0  0  0  0  0  0
    6.5061    0.2215   -1.0012 H   0  0  0  0  0  0  0  0  0  0  0  0
    3.9969    3.2036    0.8338 H   0  0  0  0  0  0  0  0  0  0  0  0
    7.1750    2.2821   -0.5300 H   0  0  0  0  0  0  0  0  0  0  0  0
  1  9  1  0  0  0  0
  1 13  1  0  0  0  0
  2 10  1  0  0  0  0
  2 40  1  0  0  0  0
  3 12  1  0  0  0  0
  3 41  1  0  0  0  0
  4 16  1  0  0  0  0
  4 22  1  0  0  0  0
  5 17  1  0  0  0  0
  5 25  1  0  0  0  0
  6 20  1  0  0  0  0
  6 47  1  0  0  0  0
  7 21  2  0  0  0  0
  8 30  1  0  0  0  0
  8 52  1  0  0  0  0
  9 11  1  0  0  0  0
  9 14  1  0  0  0  0
  9 31  1  0  0  0  0
 10 11  1  0  0  0  0
 10 12  1  0  0  0  0
 10 32  1  0  0  0  0
 11 33  1  0  0  0  0
 11 34  1  0  0  0  0
 12 13  1  0  0  0  0
 12 35  1  0  0  0  0
 13 15  1  0  0  0  0
 13 36  1  0  0  0  0
 14 16  1  0  0  0  0
 14 17  2  0  0  0  0
 15 37  1  0  0  0  0
 15 38  1  0  0  0  0
 15 39  1  0  0  0  0
 16 18  2  0  0  0  0
 17 19  1  0  0  0  0
 18 20  1  0  0  0  0
 18 21  1  0  0  0  0
 19 20  2  0  0  0  0
 19 42  1  0  0  0  0
 21 23  1  0  0  0  0
 22 23  2  0  0  0  0
 22 24  1  0  0  0  0
 23 43  1  0  0  0  0
 24 26  2  0  0  0  0
 24 27  1  0  0  0  0
 25 44  1  0  0  0  0
 25 45  1  0  0  0  0
 25 46  1  0  0  0  0
 26 28  1  0  0  0  0
 26 48  1  0  0  0  0
 27 29  2  0  0  0  0
 27 49  1  0  0  0  0
 28 30  2  0  0  0  0
 28 50  1  0  0  0  0
 29 30  1  0  0  0  0
 29 51  1  0  0  0  0
M  END
> <PUBCHEM_COMPOUND_CID>
131704

> <PUBCHEM_CONFORMER_RMSD>
0.8

> <PUBCHEM_CONFORMER_DIVERSEORDER>
2
5
8
7
12
10
9
1
4
3
11
6

> <PUBCHEM_MMFF94_PARTIAL_CHARGES>
38
1 -0.56
10 0.28
12 0.28
13 0.28
14 -0.14
16 0.08
17 0.08
18 0.09
19 -0.15
2 -0.68
20 0.08
21 0.47
22 0.05
23 -0.14
24 0.03
25 0.28
26 -0.15
27 -0.15
28 -0.15
29 -0.15
3 -0.68
30 0.08
4 -0.16
40 0.4
41 0.4
42 0.15
43 0.15
47 0.45
48 0.15
49 0.15
5 -0.36
50 0.15
51 0.15
52 0.45
6 -0.53
7 -0.57
8 -0.53
9 0.42

> <PUBCHEM_EFFECTIVE_ROTOR_COUNT>
4.2

> <PUBCHEM_PHARMACOPHORE_FEATURES>
14
1 1 acceptor
1 2 acceptor
1 2 donor
1 3 acceptor
1 3 donor
1 4 acceptor
1 5 acceptor
1 6 donor
1 7 acceptor
1 8 donor
6 1 9 10 11 12 13 rings
6 14 16 17 18 19 20 rings
6 24 26 27 28 29 30 rings
6 4 16 18 21 22 23 rings

> <PUBCHEM_HEAVY_ATOM_COUNT>
30

> <PUBCHEM_ATOM_DEF_STEREO_COUNT>
4

> <PUBCHEM_ATOM_UDEF_STEREO_COUNT>
0

> <PUBCHEM_BOND_DEF_STEREO_COUNT>
0

> <PUBCHEM_BOND_UDEF_STEREO_COUNT>
0

> <PUBCHEM_ISOTOPIC_ATOM_COUNT>
0

> <PUBCHEM_COMPONENT_COUNT>
1

> <PUBCHEM_CACTVS_TAUTO_COUNT>
21

> <PUBCHEM_CONFORMER_ID>
0002027800000002

> <PUBCHEM_MMFF94_ENERGY>
104.5726

> <PUBCHEM_FEATURE_SELFOVERLAP>
71.113

> <PUBCHEM_SHAPE_FINGERPRINT>
10006869 2 18411131437974794147
10165383 225 18191885422034586612
10411042 1 17617097353213828802
10670039 82 18261968426855209380
10937287 8 18338802200071198128
1100329 8 18050009097351856675
11135609 187 18336814296308290301
11582403 64 16302020582749207229
12107183 9 18190729857548097690
12390115 104 18340499888863400444
12788726 201 18338789125869093467
13140716 1 18048323541536537899
13402501 40 18127129899554312712
13583140 156 17174066310133100587
138480 1 17329710916765445786
13911987 19 18191287455387043591
13947920 24 17969200348629498157
14790565 3 18339648845214338755
14955137 171 17903652009557592811
15131766 46 14977975808627497360
17974551 9 14928709608358100680
19930381 70 17905326230458513817
20510252 161 18412260649205768307
20600515 1 18122922077097308679
20739085 24 16397195236730292507
21033650 10 17972624314449556868
21796203 349 17105129533342192275
22393880 68 18340771451577519710
23559900 14 17982720888461006642
23845131 108 18263372382649077363
283562 15 18337951293893193059
3178227 256 17974583682715306939
3380486 145 18121233235812012547
350125 39 18337675196131166875
3886686 26 18048843396421381314
469060 322 18188223073546374769
474 4 17907856206628987337
50150288 127 17202212815788287105
5048184 11 18338801104833555552
5252454 2 18118985597784090156
550186 7 18198074762382325366
57527358 35 15866561321771292203
7808743 9 18336262448807768920
9981440 41 18408598163120653650

> <PUBCHEM_SHAPE_MULTIPOLES>
570.43
10.17
6.11
1.13
13.46
2.27
0.1
-7.47
0.98
-3.91
-0.69
-0.89
-1.47
-0.08

> <PUBCHEM_SHAPE_SELFOVERLAP>
1255.635

> <PUBCHEM_SHAPE_VOLUME>
305.6

> <PUBCHEM_COORDINATE_TYPE>
2
5
10

$$$$
