131717
  -OEChem-03292013323D

 59 60  0     1  0  0  0  0  0999 V2000
    8.5030   -1.9669   -0.1482 Cl  0  0  0  0  0  0  0  0  0  0  0  0
    2.8166    0.6145    0.4976 S   0  0  0  0  0  0  0  0  0  0  0  0
   -6.9415   -1.8604    1.7336 O   0  0  0  0  0  0  0  0  0  0  0  0
   -5.3894   -3.4798    1.3876 O   0  0  0  0  0  0  0  0  0  0  0  0
    2.3132    0.2653    1.8122 O   0  0  0  0  0  0  0  0  0  0  0  0
    2.9373    2.0065    0.1086 O   0  0  0  0  0  0  0  0  0  0  0  0
    1.9213   -0.2141   -0.6872 N   0  0  0  0  0  0  0  0  0  0  0  0
   -1.6009    3.5973    1.6597 N   0  0  0  0  0  0  0  0  0  0  0  0
   -3.3370   -1.5629   -0.3823 C   0  0  1  0  0  0  0  0  0  0  0  0
   -2.0634   -2.0281   -1.1292 C   0  0  0  0  0  0  0  0  0  0  0  0
   -3.4246   -0.0305   -0.2052 C   0  0  0  0  0  0  0  0  0  0  0  0
   -4.5718   -2.1820   -1.0849 C   0  0  0  0  0  0  0  0  0  0  0  0
   -0.7545   -1.5575   -0.4863 C   0  0  0  0  0  0  0  0  0  0  0  0
   -3.5114    0.7687   -1.5105 C   0  0  0  0  0  0  0  0  0  0  0  0
    0.4603   -2.1358   -1.2206 C   0  0  0  0  0  0  0  0  0  0  0  0
   -5.9218   -1.9267   -0.4105 C   0  0  0  0  0  0  0  0  0  0  0  0
   -3.6699    2.2686   -1.2274 C   0  0  0  0  0  0  0  0  0  0  0  0
    1.7865   -1.6841   -0.6173 C   0  0  0  0  0  0  0  0  0  0  0  0
   -2.5505    2.9422   -0.4649 C   0  0  0  0  0  0  0  0  0  0  0  0
   -6.0214   -2.5158    0.9786 C   0  0  0  0  0  0  0  0  0  0  0  0
   -1.4726    3.5142   -1.1315 C   0  0  0  0  0  0  0  0  0  0  0  0
   -2.5673    3.0100    0.9188 C   0  0  0  0  0  0  0  0  0  0  0  0
    4.4180   -0.1118    0.3163 C   0  0  0  0  0  0  0  0  0  0  0  0
   -0.4587    4.1277   -0.4040 C   0  0  0  0  0  0  0  0  0  0  0  0
   -0.5691    4.1424    0.9771 C   0  0  0  0  0  0  0  0  0  0  0  0
    5.3415    0.4472   -0.5671 C   0  0  0  0  0  0  0  0  0  0  0  0
    4.7579   -1.2445    1.0562 C   0  0  0  0  0  0  0  0  0  0  0  0
    6.6047   -0.1264   -0.7107 C   0  0  0  0  0  0  0  0  0  0  0  0
    6.0211   -1.8181    0.9125 C   0  0  0  0  0  0  0  0  0  0  0  0
    6.9445   -1.2591    0.0292 C   0  0  0  0  0  0  0  0  0  0  0  0
   -3.2799   -1.9892    0.6282 H   0  0  0  0  0  0  0  0  0  0  0  0
   -2.0589   -3.1256   -1.1613 H   0  0  0  0  0  0  0  0  0  0  0  0
   -2.0979   -1.6912   -2.1726 H   0  0  0  0  0  0  0  0  0  0  0  0
   -4.2951    0.2056    0.4187 H   0  0  0  0  0  0  0  0  0  0  0  0
   -2.5582    0.2943    0.3793 H   0  0  0  0  0  0  0  0  0  0  0  0
   -4.6265   -1.8248   -2.1204 H   0  0  0  0  0  0  0  0  0  0  0  0
   -4.4244   -3.2684   -1.1518 H   0  0  0  0  0  0  0  0  0  0  0  0
   -0.7025   -0.4644   -0.5134 H   0  0  0  0  0  0  0  0  0  0  0  0
   -0.7280   -1.8628    0.5663 H   0  0  0  0  0  0  0  0  0  0  0  0
   -4.3691    0.4388   -2.1057 H   0  0  0  0  0  0  0  0  0  0  0  0
   -2.6099    0.6072   -2.1116 H   0  0  0  0  0  0  0  0  0  0  0  0
    0.4160   -3.2313   -1.1969 H   0  0  0  0  0  0  0  0  0  0  0  0
    0.4207   -1.8357   -2.2753 H   0  0  0  0  0  0  0  0  0  0  0  0
   -6.7184   -2.3808   -1.0110 H   0  0  0  0  0  0  0  0  0  0  0  0
   -6.1199   -0.8513   -0.3616 H   0  0  0  0  0  0  0  0  0  0  0  0
   -3.7964    2.7896   -2.1859 H   0  0  0  0  0  0  0  0  0  0  0  0
   -4.6121    2.4374   -0.6886 H   0  0  0  0  0  0  0  0  0  0  0  0
    2.6118   -2.1379   -1.1760 H   0  0  0  0  0  0  0  0  0  0  0  0
    1.8423   -2.0257    0.4212 H   0  0  0  0  0  0  0  0  0  0  0  0
    1.8572    0.1954   -1.6276 H   0  0  0  0  0  0  0  0  0  0  0  0
   -1.4113    3.4853   -2.2158 H   0  0  0  0  0  0  0  0  0  0  0  0
   -3.3831    2.5862    1.4964 H   0  0  0  0  0  0  0  0  0  0  0  0
   -7.0208   -2.2484    2.6311 H   0  0  0  0  0  0  0  0  0  0  0  0
    0.3921    4.5783   -0.9021 H   0  0  0  0  0  0  0  0  0  0  0  0
    5.0955    1.3244   -1.1586 H   0  0  0  0  0  0  0  0  0  0  0  0
    4.0536   -1.6977    1.7479 H   0  0  0  0  0  0  0  0  0  0  0  0
    0.1960    4.6070    1.5902 H   0  0  0  0  0  0  0  0  0  0  0  0
    7.3137    0.3188   -1.4040 H   0  0  0  0  0  0  0  0  0  0  0  0
    6.2719   -2.7010    1.4948 H   0  0  0  0  0  0  0  0  0  0  0  0
  1 30  1  0  0  0  0
  2  5  2  0  0  0  0
  2  6  2  0  0  0  0
  2  7  1  0  0  0  0
  2 23  1  0  0  0  0
  3 20  1  0  0  0  0
  3 53  1  0  0  0  0
  4 20  2  0  0  0  0
  7 18  1  0  0  0  0
  7 50  1  0  0  0  0
  8 22  1  0  0  0  0
  8 25  2  0  0  0  0
  9 10  1  0  0  0  0
  9 11  1  0  0  0  0
  9 12  1  0  0  0  0
  9 31  1  0  0  0  0
 10 13  1  0  0  0  0
 10 32  1  0  0  0  0
 10 33  1  0  0  0  0
 11 14  1  0  0  0  0
 11 34  1  0  0  0  0
 11 35  1  0  0  0  0
 12 16  1  0  0  0  0
 12 36  1  0  0  0  0
 12 37  1  0  0  0  0
 13 15  1  0  0  0  0
 13 38  1  0  0  0  0
 13 39  1  0  0  0  0
 14 17  1  0  0  0  0
 14 40  1  0  0  0  0
 14 41  1  0  0  0  0
 15 18  1  0  0  0  0
 15 42  1  0  0  0  0
 15 43  1  0  0  0  0
 16 20  1  0  0  0  0
 16 44  1  0  0  0  0
 16 45  1  0  0  0  0
 17 19  1  0  0  0  0
 17 46  1  0  0  0  0
 17 47  1  0  0  0  0
 18 48  1  0  0  0  0
 18 49  1  0  0  0  0
 19 21  1  0  0  0  0
 19 22  2  0  0  0  0
 21 24  2  0  0  0  0
 21 51  1  0  0  0  0
 22 52  1  0  0  0  0
 23 26  2  0  0  0  0
 23 27  1  0  0  0  0
 24 25  1  0  0  0  0
 24 54  1  0  0  0  0
 25 57  1  0  0  0  0
 26 28  1  0  0  0  0
 26 55  1  0  0  0  0
 27 29  2  0  0  0  0
 27 56  1  0  0  0  0
 28 30  2  0  0  0  0
 28 58  1  0  0  0  0
 29 30  1  0  0  0  0
 29 59  1  0  0  0  0
M  END
> <PUBCHEM_COMPOUND_CID>
131717

> <PUBCHEM_CONFORMER_RMSD>
1.4

> <PUBCHEM_CONFORMER_DIVERSEORDER>
1
109
247
195
221
177
245
162
233
148
238
53
25
229
215
47
104
31
134
210
98
24
137
212
155
57
100
97
37
145
180
201
59
192
131
90
91
184
241
22
122
127
73
15
224
220
12
186
161
165
20
181
135
10
118
79
223
206
243
129
239
141
8
163
49
102
196
39
191
95
86
170
13
43
124
225
187
66
152
72
30
38
231
85
151
199
18
211
255
96
159
139
125
62
117
249
153
93
185
99
174
69
133
33
123
176
251
6
65
126
110
140
120
252
138
28
235
209
4
227
182
143
150
207
237
7
83
44
167
32
197
87
29
156
14
64
121
71
232
157
26
248
78
234
60
51
81
222
58
147
105
228
179
253
246
101
240
205
94
70
108
149
67
193
146
164
75
204
63
21
27
113
202
226
92
132
11
244
9
242
40
16
111
68
208
217
89
114
106
183
115
17
41
46
188
48
230
160
61
218
128
116
74
236
36
76
82
54
84
107
130
250
254
5
77
142
23
52
216
88
166
172
168
112
158
103
136
213
34
219
3
200
119
194
214
171
55
173
154
198
203
169
2
42
56
189
45
190
175
19
80
144
50
178
35

> <PUBCHEM_MMFF94_PARTIAL_CHARGES>
33
1 -0.18
16 0.06
17 0.14
18 0.36
19 -0.14
2 1.45
20 0.66
21 -0.15
22 0.16
23 -0.01
24 -0.15
25 0.16
26 -0.15
27 -0.15
28 -0.15
29 -0.15
3 -0.65
30 0.18
4 -0.57
5 -0.65
50 0.42
51 0.15
52 0.15
53 0.5
54 0.15
55 0.15
56 0.15
57 0.15
58 0.15
59 0.15
6 -0.65
7 -0.91
8 -0.62

> <PUBCHEM_EFFECTIVE_ROTOR_COUNT>
14

> <PUBCHEM_PHARMACOPHORE_FEATURES>
12
1 3 acceptor
1 4 acceptor
1 5 acceptor
1 6 acceptor
1 7 donor
1 8 acceptor
3 10 13 15 hydrophobe
3 11 14 17 hydrophobe
3 3 4 20 anion
3 9 12 16 hydrophobe
6 23 26 27 28 29 30 rings
6 8 19 21 22 24 25 rings

> <PUBCHEM_HEAVY_ATOM_COUNT>
30

> <PUBCHEM_ATOM_DEF_STEREO_COUNT>
0

> <PUBCHEM_ATOM_UDEF_STEREO_COUNT>
1

> <PUBCHEM_BOND_DEF_STEREO_COUNT>
0

> <PUBCHEM_BOND_UDEF_STEREO_COUNT>
0

> <PUBCHEM_ISOTOPIC_ATOM_COUNT>
0

> <PUBCHEM_COMPONENT_COUNT>
1

> <PUBCHEM_CACTVS_TAUTO_COUNT>
1

> <PUBCHEM_CONFORMER_ID>
0002028500000001

> <PUBCHEM_MMFF94_ENERGY>
40.4197

> <PUBCHEM_FEATURE_SELFOVERLAP>
60.974

> <PUBCHEM_SHAPE_FINGERPRINT>
100830 39 18268424651743126076
10670039 82 18341041926990121358
11434127 23 17700402595317576444
12166972 35 17967533527292329445
12596602 18 17603299362599898942
12645989 146 18200867499841257262
13560911 43 18335978757511629568
14363568 33 18124029289470090345
14713325 29 18269836428113608800
14856354 85 18199465464177033148
14955137 171 18268151044872331291
15183329 4 18336259025998311550
15484559 13 14169839413693581734
19611394 137 18189343540346455635
20775530 9 18338785814723744353
469060 322 18338535074690961113
508706 21 18127971910597091884

> <PUBCHEM_SHAPE_MULTIPOLES>
589.67
18.82
5.35
1.46
24.62
5.47
0.32
-18.49
2.76
-8.29
0.89
-1.35
-0.01
1.17

> <PUBCHEM_SHAPE_SELFOVERLAP>
1178.438

> <PUBCHEM_SHAPE_VOLUME>
347.6

> <PUBCHEM_COORDINATE_TYPE>
2
5
10

$$$$
