131790
  -OEChem-03292013323D

 52 53  0     1  0  0  0  0  0999 V2000
   -3.5204    0.5504   -2.1624 O   0  0  0  0  0  0  0  0  0  0  0  0
    0.9847   -1.0676    0.8555 O   0  0  0  0  0  0  0  0  0  0  0  0
   -1.2234    2.2291   -1.9210 O   0  0  0  0  0  0  0  0  0  0  0  0
    4.2627   -3.0557    1.2153 O   0  0  0  0  0  0  0  0  0  0  0  0
   -4.4643   -1.1118    0.7048 O   0  0  0  0  0  0  0  0  0  0  0  0
    4.5376   -0.8047    1.4467 O   0  0  0  0  0  0  0  0  0  0  0  0
   -5.4270   -1.4341   -1.3731 O   0  0  0  0  0  0  0  0  0  0  0  0
    2.7123   -0.4287   -0.5459 N   0  0  0  0  0  0  0  0  0  0  0  0
   -0.6011    0.7751   -0.2097 N   0  0  0  0  0  0  0  0  0  0  0  0
    3.4323   -1.6950   -0.5106 C   0  0  1  0  0  0  0  0  0  0  0  0
    0.8035    1.0634   -0.1909 C   0  0  1  0  0  0  0  0  0  0  0  0
    4.4187   -1.6121   -1.6697 C   0  0  0  0  0  0  0  0  0  0  0  0
    3.3537    0.5169   -1.4559 C   0  0  0  0  0  0  0  0  0  0  0  0
    4.6951   -0.1158   -1.7942 C   0  0  0  0  0  0  0  0  0  0  0  0
    1.2155    2.1513    0.8161 C   0  0  2  0  0  0  0  0  0  0  0  0
    1.4958   -0.2457    0.0928 C   0  0  0  0  0  0  0  0  0  0  0  0
   -2.9113    0.9306   -0.9217 C   0  0  1  0  0  0  0  0  0  0  0  0
   -3.2775   -0.4957   -1.2130 C   0  0  1  0  0  0  0  0  0  0  0  0
    0.4881    2.0201    2.1730 C   0  0  0  0  0  0  0  0  0  0  0  0
   -1.4977    1.3847   -1.0763 C   0  0  0  0  0  0  0  0  0  0  0  0
    0.9971    3.5362    0.1927 C   0  0  0  0  0  0  0  0  0  0  0  0
    4.1332   -1.7680    0.8126 C   0  0  0  0  0  0  0  0  0  0  0  0
   -4.5089   -1.0651   -0.6547 C   0  0  0  0  0  0  0  0  0  0  0  0
    0.9514    3.0341    3.2114 C   0  0  0  0  0  0  0  0  0  0  0  0
   -5.6269   -1.6542    1.3390 C   0  0  0  0  0  0  0  0  0  0  0  0
   -5.4233   -1.6378    2.8390 C   0  0  0  0  0  0  0  0  0  0  0  0
    2.7227   -2.5239   -0.6042 H   0  0  0  0  0  0  0  0  0  0  0  0
    1.0569    1.3896   -1.2033 H   0  0  0  0  0  0  0  0  0  0  0  0
    5.3341   -2.1902   -1.5113 H   0  0  0  0  0  0  0  0  0  0  0  0
    3.9404   -1.9693   -2.5898 H   0  0  0  0  0  0  0  0  0  0  0  0
    2.7340    0.5990   -2.3555 H   0  0  0  0  0  0  0  0  0  0  0  0
    3.4594    1.5026   -0.9965 H   0  0  0  0  0  0  0  0  0  0  0  0
    5.0561    0.1691   -2.7863 H   0  0  0  0  0  0  0  0  0  0  0  0
    5.4505    0.1867   -1.0592 H   0  0  0  0  0  0  0  0  0  0  0  0
    2.2929    2.0588    1.0081 H   0  0  0  0  0  0  0  0  0  0  0  0
   -3.5191    1.5044   -0.2326 H   0  0  0  0  0  0  0  0  0  0  0  0
   -2.4928   -1.2016   -1.4560 H   0  0  0  0  0  0  0  0  0  0  0  0
   -0.9628    0.1013    0.4603 H   0  0  0  0  0  0  0  0  0  0  0  0
   -0.5945    2.1349    2.0431 H   0  0  0  0  0  0  0  0  0  0  0  0
    0.6568    1.0164    2.5799 H   0  0  0  0  0  0  0  0  0  0  0  0
    1.4535    3.5995   -0.8010 H   0  0  0  0  0  0  0  0  0  0  0  0
    1.4597    4.3196    0.8014 H   0  0  0  0  0  0  0  0  0  0  0  0
   -0.0678    3.7708    0.0974 H   0  0  0  0  0  0  0  0  0  0  0  0
    2.0378    2.9987    3.3389 H   0  0  0  0  0  0  0  0  0  0  0  0
    0.6645    4.0531    2.9364 H   0  0  0  0  0  0  0  0  0  0  0  0
    0.4901    2.8142    4.1798 H   0  0  0  0  0  0  0  0  0  0  0  0
    4.7210   -3.1249    2.0798 H   0  0  0  0  0  0  0  0  0  0  0  0
   -5.7823   -2.6837    0.9976 H   0  0  0  0  0  0  0  0  0  0  0  0
   -6.5015   -1.0484    1.0774 H   0  0  0  0  0  0  0  0  0  0  0  0
   -6.2955   -2.0466    3.3567 H   0  0  0  0  0  0  0  0  0  0  0  0
   -5.2484   -0.6164    3.1929 H   0  0  0  0  0  0  0  0  0  0  0  0
   -4.5411   -2.2251    3.1146 H   0  0  0  0  0  0  0  0  0  0  0  0
  1 17  1  0  0  0  0
  1 18  1  0  0  0  0
  2 16  2  0  0  0  0
  3 20  2  0  0  0  0
  4 22  1  0  0  0  0
  4 47  1  0  0  0  0
  5 23  1  0  0  0  0
  5 25  1  0  0  0  0
  6 22  2  0  0  0  0
  7 23  2  0  0  0  0
  8 10  1  0  0  0  0
  8 13  1  0  0  0  0
  8 16  1  0  0  0  0
  9 11  1  0  0  0  0
  9 20  1  0  0  0  0
  9 38  1  0  0  0  0
 10 12  1  0  0  0  0
 10 22  1  0  0  0  0
 10 27  1  0  0  0  0
 11 15  1  0  0  0  0
 11 16  1  0  0  0  0
 11 28  1  0  0  0  0
 12 14  1  0  0  0  0
 12 29  1  0  0  0  0
 12 30  1  0  0  0  0
 13 14  1  0  0  0  0
 13 31  1  0  0  0  0
 13 32  1  0  0  0  0
 14 33  1  0  0  0  0
 14 34  1  0  0  0  0
 15 19  1  0  0  0  0
 15 21  1  0  0  0  0
 15 35  1  0  0  0  0
 17 18  1  0  0  0  0
 17 20  1  0  0  0  0
 17 36  1  0  0  0  0
 18 23  1  0  0  0  0
 18 37  1  0  0  0  0
 19 24  1  0  0  0  0
 19 39  1  0  0  0  0
 19 40  1  0  0  0  0
 21 41  1  0  0  0  0
 21 42  1  0  0  0  0
 21 43  1  0  0  0  0
 24 44  1  0  0  0  0
 24 45  1  0  0  0  0
 24 46  1  0  0  0  0
 25 26  1  0  0  0  0
 25 48  1  0  0  0  0
 25 49  1  0  0  0  0
 26 50  1  0  0  0  0
 26 51  1  0  0  0  0
 26 52  1  0  0  0  0
M  END
> <PUBCHEM_COMPOUND_CID>
131790

> <PUBCHEM_CONFORMER_RMSD>
1

> <PUBCHEM_CONFORMER_DIVERSEORDER>
1
8
13
16
14
17
11
5
9
15
10
4
12
6
2
3
7

> <PUBCHEM_MMFF94_PARTIAL_CHARGES>
23
1 -0.3
10 0.36
11 0.36
13 0.3
16 0.57
17 0.05
18 0.05
2 -0.57
20 0.63
22 0.66
23 0.72
25 0.28
3 -0.57
36 0.1
37 0.1
38 0.37
4 -0.65
47 0.5
5 -0.43
6 -0.57
7 -0.57
8 -0.66
9 -0.73

> <PUBCHEM_EFFECTIVE_ROTOR_COUNT>
12.6

> <PUBCHEM_PHARMACOPHORE_FEATURES>
11
1 1 acceptor
1 2 acceptor
1 21 hydrophobe
1 24 hydrophobe
1 3 acceptor
1 4 acceptor
1 6 acceptor
1 7 acceptor
1 9 donor
3 4 6 22 anion
5 8 10 12 13 14 rings

> <PUBCHEM_HEAVY_ATOM_COUNT>
26

> <PUBCHEM_ATOM_DEF_STEREO_COUNT>
5

> <PUBCHEM_ATOM_UDEF_STEREO_COUNT>
0

> <PUBCHEM_BOND_DEF_STEREO_COUNT>
0

> <PUBCHEM_BOND_UDEF_STEREO_COUNT>
0

> <PUBCHEM_ISOTOPIC_ATOM_COUNT>
0

> <PUBCHEM_COMPONENT_COUNT>
1

> <PUBCHEM_CACTVS_TAUTO_COUNT>
2

> <PUBCHEM_CONFORMER_ID>
000202CE00000001

> <PUBCHEM_MMFF94_ENERGY>
44.5208

> <PUBCHEM_FEATURE_SELFOVERLAP>
55.885

> <PUBCHEM_SHAPE_FINGERPRINT>
10730089 43 12175622884293723058
10928967 22 18410291445451106879
11370993 144 13973965359441509942
12422481 6 15769510737406788777
12549972 3 18268123441281628601
12553582 1 17988924452969926094
12596602 18 15913321412375939127
12633257 1 17774731947744427183
12892183 10 13757773954265089516
12969540 114 12107799479469634894
13103583 49 17417827153326917087
13533116 47 17843961675459491639
13955234 65 18194123155730449033
14251764 30 18341065055030866575
14950920 106 17914917528808198979
14951699 99 14476959012525331874
15842332 3 15214117697576345925
17909252 39 17749403601548748448
1813 80 17346599668613147092
19078846 21 16414929650795985457
20642791 268 16271631391069218384
20739085 24 16630531751825187556
21344244 78 16702007730208536755
22393880 68 15285627803347666447
22849341 161 17417829347569889145
23557571 272 17271709595805665104
23559900 14 17603570955405104749
2838139 119 11242244186599551967
314194 84 18409447003177204863
329604 57 17894353276021863351
3737641 26 17916039957384700631
439807 62 17385728002223234715
5486654 36 18337676313307765825
633830 44 15069473609741602708
6786 2 17050752125239569048
6823239 73 17749947881822815537
7495541 125 18334856151311978670
9841814 1 18060414750800768768

> <PUBCHEM_SHAPE_MULTIPOLES>
484.02
12.1
3.35
2.66
11.09
2.91
-1.14
-12.15
-2.13
-2.29
-1.85
1.6
0.51
0.88

> <PUBCHEM_SHAPE_SELFOVERLAP>
981.671

> <PUBCHEM_SHAPE_VOLUME>
282.6

> <PUBCHEM_COORDINATE_TYPE>
2
5
10

$$$$
