131706149
  -OEChem-03292013293D

 58 61  0     1  0  0  0  0  0999 V2000
    1.9496    1.8507   -0.5981 O   0  0  0  0  0  0  0  0  0  0  0  0
   -4.9089    2.9217    0.9289 O   0  0  0  0  0  0  0  0  0  0  0  0
   -0.4876    2.0516   -1.3245 O   0  0  0  0  0  0  0  0  0  0  0  0
    2.8229   -1.4920    0.3979 O   0  0  0  0  0  0  0  0  0  0  0  0
   -3.6862    1.4285    2.1792 O   0  0  0  0  0  0  0  0  0  0  0  0
    3.9774    2.8994   -0.8178 O   0  0  0  0  0  0  0  0  0  0  0  0
   -1.9280    0.9566    0.1155 N   0  0  0  0  0  0  0  0  0  0  0  0
   -3.0556    1.8231   -0.1201 C   0  0  1  0  0  0  0  0  0  0  0  0
   -3.8951    1.3361   -1.3103 C   0  0  0  0  0  0  0  0  0  0  0  0
   -4.5499   -0.0124   -1.1122 C   0  0  0  0  0  0  0  0  0  0  0  0
    0.3468    0.1535   -0.1377 C   0  0  0  0  0  0  0  0  0  0  0  0
   -0.7110    1.1481   -0.5210 C   0  0  0  0  0  0  0  0  0  0  0  0
    1.6195    0.5539   -0.2187 C   0  0  0  0  0  0  0  0  0  0  0  0
   -3.9014    2.0268    1.1301 C   0  0  0  0  0  0  0  0  0  0  0  0
    0.0488   -1.2308    0.2701 C   0  0  0  0  0  0  0  0  0  0  0  0
    2.8159   -0.1741    0.0377 C   0  0  0  0  0  0  0  0  0  0  0  0
    3.8850    0.5966   -0.1535 C   0  0  0  0  0  0  0  0  0  0  0  0
   -3.8780   -1.1760   -1.4865 C   0  0  0  0  0  0  0  0  0  0  0  0
   -5.8261   -0.0925   -0.5553 C   0  0  0  0  0  0  0  0  0  0  0  0
    5.3019    0.2609   -0.0272 C   0  0  0  0  0  0  0  0  0  0  0  0
    3.3218    1.9017   -0.5608 C   0  0  0  0  0  0  0  0  0  0  0  0
   -0.1282   -1.5376    1.6193 C   0  0  0  0  0  0  0  0  0  0  0  0
   -0.0564   -2.2342   -0.6929 C   0  0  0  0  0  0  0  0  0  0  0  0
   -4.4823   -2.4199   -1.3037 C   0  0  0  0  0  0  0  0  0  0  0  0
   -6.4306   -1.3361   -0.3725 C   0  0  0  0  0  0  0  0  0  0  0  0
   -5.7586   -2.4999   -0.7468 C   0  0  0  0  0  0  0  0  0  0  0  0
    5.8073   -0.1822    1.1950 C   0  0  0  0  0  0  0  0  0  0  0  0
    6.1485    0.3837   -1.1287 C   0  0  0  0  0  0  0  0  0  0  0  0
   -0.4103   -2.8481    2.0054 C   0  0  0  0  0  0  0  0  0  0  0  0
   -0.3384   -3.5445   -0.3069 C   0  0  0  0  0  0  0  0  0  0  0  0
   -0.5154   -3.8515    1.0423 C   0  0  0  0  0  0  0  0  0  0  0  0
    7.1596   -0.5026    1.3158 C   0  0  0  0  0  0  0  0  0  0  0  0
    7.5007    0.0634   -1.0082 C   0  0  0  0  0  0  0  0  0  0  0  0
    8.0063   -0.3797    0.2140 C   0  0  0  0  0  0  0  0  0  0  0  0
   -5.7639    3.1576    2.0520 C   0  0  0  0  0  0  0  0  0  0  0  0
   -2.6549    2.8150   -0.3676 H   0  0  0  0  0  0  0  0  0  0  0  0
   -4.6757    2.0722   -1.5444 H   0  0  0  0  0  0  0  0  0  0  0  0
   -3.2672    1.2917   -2.2106 H   0  0  0  0  0  0  0  0  0  0  0  0
   -2.0504    0.1931    0.7728 H   0  0  0  0  0  0  0  0  0  0  0  0
   -2.8851   -1.1274   -1.9250 H   0  0  0  0  0  0  0  0  0  0  0  0
   -6.3659    0.8046   -0.2654 H   0  0  0  0  0  0  0  0  0  0  0  0
   -0.0500   -0.7664    2.3818 H   0  0  0  0  0  0  0  0  0  0  0  0
    0.0771   -2.0104   -1.7485 H   0  0  0  0  0  0  0  0  0  0  0  0
   -3.9588   -3.3258   -1.5951 H   0  0  0  0  0  0  0  0  0  0  0  0
   -7.4249   -1.3985    0.0598 H   0  0  0  0  0  0  0  0  0  0  0  0
   -6.2293   -3.4683   -0.6046 H   0  0  0  0  0  0  0  0  0  0  0  0
    5.1636   -0.2800    2.0660 H   0  0  0  0  0  0  0  0  0  0  0  0
    5.7707    0.7250   -2.0895 H   0  0  0  0  0  0  0  0  0  0  0  0
   -0.5484   -3.0869    3.0558 H   0  0  0  0  0  0  0  0  0  0  0  0
   -0.4215   -4.3257   -1.0569 H   0  0  0  0  0  0  0  0  0  0  0  0
   -0.7355   -4.8717    1.3427 H   0  0  0  0  0  0  0  0  0  0  0  0
    3.7441   -1.7919    0.4711 H   0  0  0  0  0  0  0  0  0  0  0  0
    7.5535   -0.8467    2.2676 H   0  0  0  0  0  0  0  0  0  0  0  0
    8.1600    0.1584   -1.8660 H   0  0  0  0  0  0  0  0  0  0  0  0
    9.0592   -0.6290    0.3079 H   0  0  0  0  0  0  0  0  0  0  0  0
   -6.5228    3.8859    1.7541 H   0  0  0  0  0  0  0  0  0  0  0  0
   -5.1885    3.5708    2.8859 H   0  0  0  0  0  0  0  0  0  0  0  0
   -6.2643    2.2307    2.3482 H   0  0  0  0  0  0  0  0  0  0  0  0
  1 13  1  0  0  0  0
  1 21  1  0  0  0  0
  2 14  1  0  0  0  0
  2 35  1  0  0  0  0
  3 12  2  0  0  0  0
  4 16  1  0  0  0  0
  4 52  1  0  0  0  0
  5 14  2  0  0  0  0
  6 21  2  0  0  0  0
  7  8  1  0  0  0  0
  7 12  1  0  0  0  0
  7 39  1  0  0  0  0
  8  9  1  0  0  0  0
  8 14  1  0  0  0  0
  8 36  1  0  0  0  0
  9 10  1  0  0  0  0
  9 37  1  0  0  0  0
  9 38  1  0  0  0  0
 10 18  2  0  0  0  0
 10 19  1  0  0  0  0
 11 12  1  0  0  0  0
 11 13  2  3  0  0  0
 11 15  1  0  0  0  0
 13 16  1  0  0  0  0
 15 22  2  0  0  0  0
 15 23  1  0  0  0  0
 16 17  2  0  0  0  0
 17 20  1  0  0  0  0
 17 21  1  0  0  0  0
 18 24  1  0  0  0  0
 18 40  1  0  0  0  0
 19 25  2  0  0  0  0
 19 41  1  0  0  0  0
 20 27  2  0  0  0  0
 20 28  1  0  0  0  0
 22 29  1  0  0  0  0
 22 42  1  0  0  0  0
 23 30  2  0  0  0  0
 23 43  1  0  0  0  0
 24 26  2  0  0  0  0
 24 44  1  0  0  0  0
 25 26  1  0  0  0  0
 25 45  1  0  0  0  0
 26 46  1  0  0  0  0
 27 32  1  0  0  0  0
 27 47  1  0  0  0  0
 28 33  2  0  0  0  0
 28 48  1  0  0  0  0
 29 31  2  0  0  0  0
 29 49  1  0  0  0  0
 30 31  1  0  0  0  0
 30 50  1  0  0  0  0
 31 51  1  0  0  0  0
 32 34  2  0  0  0  0
 32 53  1  0  0  0  0
 33 34  1  0  0  0  0
 33 54  1  0  0  0  0
 34 55  1  0  0  0  0
 35 56  1  0  0  0  0
 35 57  1  0  0  0  0
 35 58  1  0  0  0  0
M  END
> <PUBCHEM_COMPOUND_CID>
131706149

> <PUBCHEM_CONFORMER_RMSD>
1

> <PUBCHEM_CONFORMER_DIVERSEORDER>
1
57
23
5
34
44
9
54
56
51
4
43
21
6
39
35
53
18
58
2
48
3
12
24
52
17
10
8
41
7
47
37
16
38
27
36
26
15
30
40
46
11
42
29
22
31
55
33
28
25
13
50
49
14
19
20
32
45

> <PUBCHEM_MMFF94_PARTIAL_CHARGES>
52
1 -0.23
10 -0.14
11 -0.01
12 0.62
13 0.08
14 0.66
15 0.03
16 0.08
17 -0.01
18 -0.15
19 -0.15
2 -0.43
20 0.03
21 0.71
22 -0.15
23 -0.15
24 -0.15
25 -0.15
26 -0.15
27 -0.15
28 -0.15
29 -0.15
3 -0.57
30 -0.15
31 -0.15
32 -0.15
33 -0.15
34 -0.15
35 0.28
39 0.37
4 -0.53
40 0.15
41 0.15
42 0.15
43 0.15
44 0.15
45 0.15
46 0.15
47 0.15
48 0.15
49 0.15
5 -0.57
50 0.15
51 0.15
52 0.45
53 0.15
54 0.15
55 0.15
6 -0.57
7 -0.73
8 0.36
9 0.14

> <PUBCHEM_EFFECTIVE_ROTOR_COUNT>
9.2

> <PUBCHEM_PHARMACOPHORE_FEATURES>
9
1 3 acceptor
1 4 donor
1 5 acceptor
1 6 acceptor
1 7 donor
5 1 13 16 17 21 rings
6 10 18 19 24 25 26 rings
6 15 22 23 29 30 31 rings
6 20 27 28 32 33 34 rings

> <PUBCHEM_HEAVY_ATOM_COUNT>
35

> <PUBCHEM_ATOM_DEF_STEREO_COUNT>
1

> <PUBCHEM_ATOM_UDEF_STEREO_COUNT>
0

> <PUBCHEM_BOND_DEF_STEREO_COUNT>
0

> <PUBCHEM_BOND_UDEF_STEREO_COUNT>
1

> <PUBCHEM_ISOTOPIC_ATOM_COUNT>
0

> <PUBCHEM_COMPONENT_COUNT>
1

> <PUBCHEM_CACTVS_TAUTO_COUNT>
20

> <PUBCHEM_CONFORMER_ID>
07D9AD2500000001

> <PUBCHEM_MMFF94_ENERGY>
102.0745

> <PUBCHEM_FEATURE_SELFOVERLAP>
45.673

> <PUBCHEM_SHAPE_FINGERPRINT>
10119406 146 18188214208998191378
10906281 52 18336275578638837478
11007060 377 18114461257844244312
11135926 11 18334848395482016991
11607047 403 15256892359388433359
11991303 11 17023183893691420611
12166972 35 18114459058636652340
12788726 201 18128546049145878397
13583140 156 15357697517561750705
13631057 29 18343293791613346935
14068700 675 18199180862516306437
14279260 333 18412538799962889814
14294032 229 18335701585987200140
14856354 85 18059857316028766551
15183329 4 18259701216482477110
15297060 5 18131633361885564123
15849732 13 16732699463405743902
16112460 7 18337673014308912410
16628084 112 17750780083418915666
19311894 1 17984974058691156263
20028762 73 18411414025068200046
21130935 74 18272366443968468754
21236236 1 18412544314410162551
21814621 53 16916791730283547876
23522609 53 18190486933718697436
23559900 14 18191018118198673428
23569917 315 18407762542584185034
23569943 247 17982456988991877966
24771293 8 18411416229410153140
335352 9 18260826047058592342
3383291 50 18411696629996109074
4258327 124 17169561928700584028
484989 97 18189619521500416003
9896288 288 18202006513047690007

> <PUBCHEM_SHAPE_MULTIPOLES>
680.09
18.64
3.81
1.63
20.5
1.28
-0.66
-3.14
0.85
-5.33
-1.1
-1.25
-0.12
-3.31

> <PUBCHEM_SHAPE_SELFOVERLAP>
1490.166

> <PUBCHEM_SHAPE_VOLUME>
365.8

> <PUBCHEM_COORDINATE_TYPE>
2
5
10

$$$$
