131704482
  -OEChem-03292013293D

 40 44  0     1  0  0  0  0  0999 V2000
   -3.3473   -0.7511   -0.2379 O   0  0  0  0  0  0  0  0  0  0  0  0
   -1.3940    1.9457    0.9692 O   0  0  0  0  0  0  0  0  0  0  0  0
    0.0063   -2.6555    0.8414 O   0  0  0  0  0  0  0  0  0  0  0  0
    0.6598    1.3902   -0.7998 O   0  0  0  0  0  0  0  0  0  0  0  0
   -3.1899    2.1508   -0.4778 O   0  0  0  0  0  0  0  0  0  0  0  0
    3.2277    0.7552   -1.0444 O   0  0  0  0  0  0  0  0  0  0  0  0
    0.5756    0.0660   -2.6747 O   0  0  0  0  0  0  0  0  0  0  0  0
   -1.1538   -0.4663    0.9516 C   0  0  1  0  0  0  0  0  0  0  0  0
   -2.1938    0.0470    0.0139 C   0  0  1  0  0  0  0  0  0  0  0  0
   -0.3234   -1.4834    0.0905 C   0  0  2  0  0  0  0  0  0  0  0  0
   -2.2740   -0.8069   -1.1887 C   0  0  1  0  0  0  0  0  0  0  0  0
   -0.4574    0.8800    1.3108 C   0  0  1  0  0  0  0  0  0  0  0  0
   -1.3124   -1.9462   -1.0208 C   0  0  0  0  0  0  0  0  0  0  0  0
    0.9931   -0.8990   -0.4696 C   0  0  2  0  0  0  0  0  0  0  0  0
    0.8789    1.1425    0.6010 C   0  0  1  0  0  0  0  0  0  0  0  0
    1.7303   -0.1152    0.6179 C   0  0  2  0  0  0  0  0  0  0  0  0
   -2.3482    1.4846    0.1005 C   0  0  0  0  0  0  0  0  0  0  0  0
   -1.8052   -1.0794    2.2004 C   0  0  0  0  0  0  0  0  0  0  0  0
    0.7297    0.2001   -1.4720 C   0  0  0  0  0  0  0  0  0  0  0  0
    3.1907    0.1602    0.2525 C   0  0  0  0  0  0  0  0  0  0  0  0
    3.9804   -1.1442    0.1851 C   0  0  0  0  0  0  0  0  0  0  0  0
    3.8270    1.1249    1.2508 C   0  0  0  0  0  0  0  0  0  0  0  0
   -2.3927   -0.3906   -2.1741 H   0  0  0  0  0  0  0  0  0  0  0  0
   -0.2831    0.9336    2.3926 H   0  0  0  0  0  0  0  0  0  0  0  0
   -1.8548   -2.8515   -0.7214 H   0  0  0  0  0  0  0  0  0  0  0  0
   -0.7951   -2.1793   -1.9571 H   0  0  0  0  0  0  0  0  0  0  0  0
    1.6037   -1.6817   -0.9240 H   0  0  0  0  0  0  0  0  0  0  0  0
    1.3432    2.0336    1.0277 H   0  0  0  0  0  0  0  0  0  0  0  0
    1.6949   -0.6159    1.5939 H   0  0  0  0  0  0  0  0  0  0  0  0
   -2.3905   -1.9719    1.9528 H   0  0  0  0  0  0  0  0  0  0  0  0
   -1.0459   -1.3664    2.9358 H   0  0  0  0  0  0  0  0  0  0  0  0
   -2.4880   -0.3702    2.6828 H   0  0  0  0  0  0  0  0  0  0  0  0
    0.4404   -3.2847    0.2401 H   0  0  0  0  0  0  0  0  0  0  0  0
    5.0461   -0.9398    0.0243 H   0  0  0  0  0  0  0  0  0  0  0  0
    4.9049    1.2105    1.0668 H   0  0  0  0  0  0  0  0  0  0  0  0
    3.6822   -1.7751   -0.6573 H   0  0  0  0  0  0  0  0  0  0  0  0
    3.8878   -1.7212    1.1111 H   0  0  0  0  0  0  0  0  0  0  0  0
    3.4419    2.1441    1.1511 H   0  0  0  0  0  0  0  0  0  0  0  0
    3.6907    0.7883    2.2836 H   0  0  0  0  0  0  0  0  0  0  0  0
    4.1573    0.9367   -1.2652 H   0  0  0  0  0  0  0  0  0  0  0  0
  1  9  1  0  0  0  0
  1 11  1  0  0  0  0
  2 12  1  0  0  0  0
  2 17  1  0  0  0  0
  3 10  1  0  0  0  0
  3 33  1  0  0  0  0
  4 15  1  0  0  0  0
  4 19  1  0  0  0  0
  5 17  2  0  0  0  0
  6 20  1  0  0  0  0
  6 40  1  0  0  0  0
  7 19  2  0  0  0  0
  8  9  1  0  0  0  0
  8 10  1  0  0  0  0
  8 12  1  0  0  0  0
  8 18  1  0  0  0  0
  9 11  1  0  0  0  0
  9 17  1  0  0  0  0
 10 13  1  0  0  0  0
 10 14  1  0  0  0  0
 11 13  1  0  0  0  0
 11 23  1  0  0  0  0
 12 15  1  0  0  0  0
 12 24  1  0  0  0  0
 13 25  1  0  0  0  0
 13 26  1  0  0  0  0
 14 16  1  0  0  0  0
 14 19  1  0  0  0  0
 14 27  1  0  0  0  0
 15 16  1  0  0  0  0
 15 28  1  0  0  0  0
 16 20  1  0  0  0  0
 16 29  1  0  0  0  0
 18 30  1  0  0  0  0
 18 31  1  0  0  0  0
 18 32  1  0  0  0  0
 20 21  1  0  0  0  0
 20 22  1  0  0  0  0
 21 34  1  0  0  0  0
 21 36  1  0  0  0  0
 21 37  1  0  0  0  0
 22 35  1  0  0  0  0
 22 38  1  0  0  0  0
 22 39  1  0  0  0  0
M  END
> <PUBCHEM_COMPOUND_CID>
131704482

> <PUBCHEM_CONFORMER_RMSD>
0.6

> <PUBCHEM_CONFORMER_DIVERSEORDER>
1
2
3
4

> <PUBCHEM_MMFF94_PARTIAL_CHARGES>
21
1 -0.3
10 0.28
11 -0.05
12 0.28
13 0.09
14 0.06
15 0.28
17 0.72
19 0.66
2 -0.43
20 0.28
23 0.1
3 -0.68
33 0.4
4 -0.43
40 0.4
5 -0.57
6 -0.68
7 -0.57
8 0.09
9 0.05

> <PUBCHEM_EFFECTIVE_ROTOR_COUNT>
2

> <PUBCHEM_PHARMACOPHORE_FEATURES>
11
1 1 acceptor
1 3 acceptor
1 3 donor
1 5 acceptor
1 6 acceptor
1 6 donor
1 7 acceptor
3 20 21 22 hydrophobe
5 2 8 9 12 17 rings
6 1 8 9 10 11 13 rings
8 4 8 10 12 14 15 16 19 rings

> <PUBCHEM_HEAVY_ATOM_COUNT>
22

> <PUBCHEM_ATOM_DEF_STEREO_COUNT>
7

> <PUBCHEM_ATOM_UDEF_STEREO_COUNT>
1

> <PUBCHEM_BOND_DEF_STEREO_COUNT>
0

> <PUBCHEM_BOND_UDEF_STEREO_COUNT>
0

> <PUBCHEM_ISOTOPIC_ATOM_COUNT>
0

> <PUBCHEM_COMPONENT_COUNT>
1

> <PUBCHEM_CACTVS_TAUTO_COUNT>
1

> <PUBCHEM_CONFORMER_ID>
07D9A6A200000001

> <PUBCHEM_MMFF94_ENERGY>
91.9056

> <PUBCHEM_FEATURE_SELFOVERLAP>
56.235

> <PUBCHEM_SHAPE_FINGERPRINT>
10062212 137 18338783512431278995
10863032 1 18270390590695856647
10948715 1 18269266864121801437
12423570 1 16552797520923429257
12491281 212 18338516339595183712
13024252 1 12179835109108017163
13140716 1 17981044437717093834
13571099 52 18340201895247199493
13581323 91 18336267949985531379
13583140 156 17202740671574403890
144361 1 17197988779438875053
14817 1 17837819738507082159
15852999 172 18116160969460125945
15881359 60 18127718065202804123
16945 1 17988915691131088146
19010151 120 17988640865101504851
200 152 15195279811774810120
20525323 117 15626233402660467187
22344851 262 18115028489600237933
23402539 116 17917417753281361103
23419403 2 15956898626853631591
23559900 14 18060129926276958264
2748010 2 18126586547156945751
296302 2 18041552671928925112
5845 1 16984655967066521419
6992083 37 17458346368175099846

> <PUBCHEM_SHAPE_MULTIPOLES>
411.66
5.22
2.04
1.7
3.74
0.07
0.22
-0.87
-0.28
-0.86
-0.2
-0.2
0.23
0.18

> <PUBCHEM_SHAPE_SELFOVERLAP>
939.278

> <PUBCHEM_SHAPE_VOLUME>
215.3

> <PUBCHEM_COORDINATE_TYPE>
2
5
10

$$$$
