131714458
  -OEChem-03292013293D

 39 41  0     1  0  0  0  0  0999 V2000
   -2.1139   -1.2010   -2.3057 S   0  0  0  0  0  0  0  0  0  0  0  0
    4.0375    2.6751   -1.0205 S   0  0  0  0  0  0  0  0  0  0  0  0
   -1.6659   -1.5226    2.3198 O   0  0  0  0  0  0  0  0  0  0  0  0
   -3.3198    1.1527    2.2605 O   0  0  0  0  0  0  0  0  0  0  0  0
   -5.2021   -0.0226    1.7080 O   0  0  0  0  0  0  0  0  0  0  0  0
    1.7730   -1.8483   -1.8075 O   0  0  0  0  0  0  0  0  0  0  0  0
    5.2154   -1.4938    0.8386 O   0  0  0  0  0  0  0  0  0  0  0  0
   -2.2180   -0.5183    0.2576 N   0  0  0  0  0  0  0  0  0  0  0  0
    0.8647   -1.3665    0.3035 N   0  0  0  0  0  0  0  0  0  0  0  0
    3.9937   -2.0262    0.4184 N   0  0  0  0  0  0  0  0  0  0  0  0
    4.5579    0.8195    0.7025 N   0  0  0  0  0  0  0  0  0  0  0  0
    5.6322    2.8880    1.0978 N   0  0  0  0  0  0  0  0  0  0  0  0
   -1.2582   -0.5997   -0.8300 C   0  0  1  0  0  0  0  0  0  0  0  0
   -0.5311   -1.6707    0.0205 C   0  0  2  0  0  0  0  0  0  0  0  0
   -1.5192   -1.2541    1.1503 C   0  0  0  0  0  0  0  0  0  0  0  0
   -3.3893    0.1679    0.1825 C   0  0  0  0  0  0  0  0  0  0  0  0
   -3.2557    0.2239   -2.3564 C   0  0  0  0  0  0  0  0  0  0  0  0
   -3.8905    0.5705   -1.0108 C   0  0  0  0  0  0  0  0  0  0  0  0
   -4.0952    0.4035    1.4538 C   0  0  0  0  0  0  0  0  0  0  0  0
    1.8701   -1.4887   -0.6452 C   0  0  0  0  0  0  0  0  0  0  0  0
   -5.0973    1.3608   -1.1702 C   0  0  0  0  0  0  0  0  0  0  0  0
    3.2324   -1.1212   -0.1186 C   0  0  0  0  0  0  0  0  0  0  0  0
   -5.4153    2.3662   -0.3640 C   0  0  0  0  0  0  0  0  0  0  0  0
    3.6886    0.2907   -0.2316 C   0  0  0  0  0  0  0  0  0  0  0  0
    3.2950    1.1448   -1.2402 C   0  0  0  0  0  0  0  0  0  0  0  0
    4.8111    2.0702    0.3868 C   0  0  0  0  0  0  0  0  0  0  0  0
   -0.7033    0.3364   -0.9699 H   0  0  0  0  0  0  0  0  0  0  0  0
   -0.6685   -2.7155   -0.2830 H   0  0  0  0  0  0  0  0  0  0  0  0
    1.1342   -1.0522    1.2330 H   0  0  0  0  0  0  0  0  0  0  0  0
   -4.0264   -0.0366   -3.0904 H   0  0  0  0  0  0  0  0  0  0  0  0
   -2.7121    1.0952   -2.7392 H   0  0  0  0  0  0  0  0  0  0  0  0
   -5.7682    1.0980   -1.9829 H   0  0  0  0  0  0  0  0  0  0  0  0
   -6.3387    2.9134   -0.5283 H   0  0  0  0  0  0  0  0  0  0  0  0
   -4.7839    2.7184    0.4429 H   0  0  0  0  0  0  0  0  0  0  0  0
   -3.7517    1.3362    3.1219 H   0  0  0  0  0  0  0  0  0  0  0  0
    2.6321    0.9604   -2.0739 H   0  0  0  0  0  0  0  0  0  0  0  0
    5.6541   -2.2791    1.2072 H   0  0  0  0  0  0  0  0  0  0  0  0
    6.1086    2.5699    1.9353 H   0  0  0  0  0  0  0  0  0  0  0  0
    5.8012    3.8490    0.8194 H   0  0  0  0  0  0  0  0  0  0  0  0
  1 13  1  0  0  0  0
  1 17  1  0  0  0  0
  2 25  1  0  0  0  0
  2 26  1  0  0  0  0
  3 15  2  0  0  0  0
  4 19  1  0  0  0  0
  4 35  1  0  0  0  0
  5 19  2  0  0  0  0
  6 20  2  0  0  0  0
  7 10  1  0  0  0  0
  7 37  1  0  0  0  0
  8 13  1  0  0  0  0
  8 15  1  0  0  0  0
  8 16  1  0  0  0  0
  9 14  1  0  0  0  0
  9 20  1  0  0  0  0
  9 29  1  0  0  0  0
 10 22  2  3  0  0  0
 11 24  1  0  0  0  0
 11 26  2  0  0  0  0
 12 26  1  0  0  0  0
 12 38  1  0  0  0  0
 12 39  1  0  0  0  0
 13 14  1  0  0  0  0
 13 27  1  0  0  0  0
 14 15  1  0  0  0  0
 14 28  1  0  0  0  0
 16 18  2  0  0  0  0
 16 19  1  0  0  0  0
 17 18  1  0  0  0  0
 17 30  1  0  0  0  0
 17 31  1  0  0  0  0
 18 21  1  0  0  0  0
 20 22  1  0  0  0  0
 21 23  2  0  0  0  0
 21 32  1  0  0  0  0
 22 24  1  0  0  0  0
 23 33  1  0  0  0  0
 23 34  1  0  0  0  0
 24 25  2  0  0  0  0
 25 36  1  0  0  0  0
M  END
> <PUBCHEM_COMPOUND_CID>
131714458

> <PUBCHEM_CONFORMER_RMSD>
0.8

> <PUBCHEM_CONFORMER_DIVERSEORDER>
1
28
104
75
105
56
85
110
31
55
107
89
10
53
112
94
70
24
49
41
77
76
25
29
7
69
73
78
68
21
99
67
74
2
81
23
58
22
84
64
66
20
19
32
45
113
62
6
108
52
72
44
109
42
71
98
51
97
54
9
60
34
16
102
50
8
5
93
100
79
96
101
27
80
35
4
37
65
48
38
39
87
91
90
3
36
106
59
11
111
82
17
57
61
12
18
33
83
95
88
103
63
13
30
43
40
46
92
15
47
14
86
26

> <PUBCHEM_MMFF94_PARTIAL_CHARGES>
35
1 -0.45
10 -0.51
11 -0.57
12 -0.88
13 0.44
14 0.28
15 0.58
16 0.12
17 0.37
18 -0.14
19 0.71
2 -0.08
20 0.63
21 -0.15
22 0.54
23 -0.3
24 0.14
25 -0.11
26 0.46
29 0.37
3 -0.57
32 0.15
33 0.15
34 0.15
35 0.5
36 0.15
37 0.4
38 0.4
39 0.4
4 -0.65
5 -0.57
6 -0.57
7 -0.34
8 -0.39
9 -0.65

> <PUBCHEM_EFFECTIVE_ROTOR_COUNT>
6.6

> <PUBCHEM_PHARMACOPHORE_FEATURES>
14
1 10 acceptor
1 12 donor
1 23 hydrophobe
1 3 acceptor
1 4 acceptor
1 5 acceptor
1 6 acceptor
1 7 anion
1 9 donor
3 11 12 26 cation
3 4 5 19 anion
4 8 13 14 15 rings
5 2 11 24 25 26 rings
6 1 8 13 16 17 18 rings

> <PUBCHEM_HEAVY_ATOM_COUNT>
26

> <PUBCHEM_ATOM_DEF_STEREO_COUNT>
1

> <PUBCHEM_ATOM_UDEF_STEREO_COUNT>
1

> <PUBCHEM_BOND_DEF_STEREO_COUNT>
0

> <PUBCHEM_BOND_UDEF_STEREO_COUNT>
1

> <PUBCHEM_ISOTOPIC_ATOM_COUNT>
0

> <PUBCHEM_COMPONENT_COUNT>
1

> <PUBCHEM_CACTVS_TAUTO_COUNT>
19

> <PUBCHEM_CONFORMER_ID>
07D9CD9A00000001

> <PUBCHEM_MMFF94_ENERGY>
73.2443

> <PUBCHEM_FEATURE_SELFOVERLAP>
71.359

> <PUBCHEM_SHAPE_FINGERPRINT>
10319926 262 16805321072079087626
10498660 4 17703512198535554836
11135609 201 18057322988401326418
11545043 162 16805605824353487970
12403259 415 18041006115401604951
12616971 3 17988645164152836482
12633257 1 16805875312308500140
12925494 130 17098602485002356277
13103583 49 13984647140975928964
13583140 156 17822006463170783379
13675066 3 17240486892222244174
15188451 53 15068618352935260649
15295992 7 17894630314202236367
193927 3 8574445222481918752
20511986 3 17916844881969283878
20554085 129 15864891151230558957
20715895 44 18339355241250360757
20871999 31 15338826539786721247
21033648 144 18410567427253394350
21033648 29 17458335325861628828
21033650 10 15482404078928559066
22122407 14 18267028250274862569
22849339 104 15482377751406672469
23366157 5 13336747901560110583
235170 7 13542464246045805248
23559900 14 17604722053389843654
23596394 208 12391515278342157494
2838139 119 18265605482297001213
312425 83 16629704871831581468
474 4 18342737399342159854
474113 269 13118000024944328793
5104073 3 18040150712519013339
57724786 102 18260547840435923516
6034566 193 18130510845964265501
6608658 132 17561090193673602513
7237137 82 17346306151122937503
960060 61 10375872952863648546

> <PUBCHEM_SHAPE_MULTIPOLES>
488.52
13.51
2.7
2.08
4.58
1.15
-0.04
9.33
2.52
3.06
0.04
-2.34
-0.23
0.48

> <PUBCHEM_SHAPE_SELFOVERLAP>
1025.073

> <PUBCHEM_SHAPE_VOLUME>
276.7

> <PUBCHEM_COORDINATE_TYPE>
2
5
10

$$$$
