131743
  -OEChem-03292013323D

 36 36  0     0  0  0  0  0  0999 V2000
   -0.9283    1.5627   -1.2897 S   0  0  0  0  0  0  0  0  0  0  0  0
    1.8510   -0.6021   -2.1787 O   0  0  0  0  0  0  0  0  0  0  0  0
    2.0044    1.3491   -0.2236 N   0  0  0  0  0  0  0  0  0  0  0  0
   -3.8311   -1.6000    0.3442 N   0  0  0  0  0  0  0  0  0  0  0  0
   -4.0428    0.5763   -0.0436 N   0  0  0  0  0  0  0  0  0  0  0  0
    2.6948   -0.9204   -0.0113 N   0  0  0  0  0  0  0  0  0  0  0  0
    2.9453    0.4842    1.7991 N   0  0  0  0  0  0  0  0  0  0  0  0
    2.6383   -2.6584   -1.5249 N   0  0  0  0  0  0  0  0  0  0  0  0
   -1.7250    1.3411    0.3168 C   0  0  0  0  0  0  0  0  0  0  0  0
   -2.7566    0.2619    0.2725 C   0  0  0  0  0  0  0  0  0  0  0  0
    0.2103    2.9061   -0.8328 C   0  0  0  0  0  0  0  0  0  0  0  0
    1.2190    2.4757    0.2250 C   0  0  0  0  0  0  0  0  0  0  0  0
   -2.5854   -1.0661    0.5184 C   0  0  0  0  0  0  0  0  0  0  0  0
   -1.4203   -1.8833    0.8912 C   0  0  0  0  0  0  0  0  0  0  0  0
   -4.6725   -0.5764    0.0077 C   0  0  0  0  0  0  0  0  0  0  0  0
    2.5523    0.3519    0.5713 C   0  0  0  0  0  0  0  0  0  0  0  0
    2.3485   -1.3200   -1.3139 C   0  0  0  0  0  0  0  0  0  0  0  0
    3.4979   -0.6824    2.4725 C   0  0  0  0  0  0  0  0  0  0  0  0
   -2.1956    2.2826    0.6198 H   0  0  0  0  0  0  0  0  0  0  0  0
   -0.9879    1.0719    1.0775 H   0  0  0  0  0  0  0  0  0  0  0  0
    0.7333    3.2142   -1.7449 H   0  0  0  0  0  0  0  0  0  0  0  0
   -0.3684    3.7673   -0.4835 H   0  0  0  0  0  0  0  0  0  0  0  0
    0.7377    2.2627    1.1839 H   0  0  0  0  0  0  0  0  0  0  0  0
    1.9015    3.3125    0.4142 H   0  0  0  0  0  0  0  0  0  0  0  0
    1.9402    1.1596   -1.2202 H   0  0  0  0  0  0  0  0  0  0  0  0
   -4.0877   -2.5732    0.4449 H   0  0  0  0  0  0  0  0  0  0  0  0
   -0.9261   -1.4699    1.7763 H   0  0  0  0  0  0  0  0  0  0  0  0
   -1.7023   -2.9164    1.1185 H   0  0  0  0  0  0  0  0  0  0  0  0
   -0.6918   -1.9053    0.0742 H   0  0  0  0  0  0  0  0  0  0  0  0
   -5.7236   -0.7369   -0.1851 H   0  0  0  0  0  0  0  0  0  0  0  0
    3.0905   -1.6730    0.5385 H   0  0  0  0  0  0  0  0  0  0  0  0
    3.7740   -0.3879    3.4910 H   0  0  0  0  0  0  0  0  0  0  0  0
    4.4188   -1.0397    1.9988 H   0  0  0  0  0  0  0  0  0  0  0  0
    2.7641   -1.4891    2.5772 H   0  0  0  0  0  0  0  0  0  0  0  0
    2.4462   -3.1010   -2.4174 H   0  0  0  0  0  0  0  0  0  0  0  0
    3.0480   -3.2396   -0.8015 H   0  0  0  0  0  0  0  0  0  0  0  0
  1  9  1  0  0  0  0
  1 11  1  0  0  0  0
  2 17  2  0  0  0  0
  3 12  1  0  0  0  0
  3 16  1  0  0  0  0
  3 25  1  0  0  0  0
  4 13  1  0  0  0  0
  4 15  1  0  0  0  0
  4 26  1  0  0  0  0
  5 10  1  0  0  0  0
  5 15  2  0  0  0  0
  6 16  1  0  0  0  0
  6 17  1  0  0  0  0
  6 31  1  0  0  0  0
  7 16  2  0  0  0  0
  7 18  1  0  0  0  0
  8 17  1  0  0  0  0
  8 35  1  0  0  0  0
  8 36  1  0  0  0  0
  9 10  1  0  0  0  0
  9 19  1  0  0  0  0
  9 20  1  0  0  0  0
 10 13  2  0  0  0  0
 11 12  1  0  0  0  0
 11 21  1  0  0  0  0
 11 22  1  0  0  0  0
 12 23  1  0  0  0  0
 12 24  1  0  0  0  0
 13 14  1  0  0  0  0
 14 27  1  0  0  0  0
 14 28  1  0  0  0  0
 14 29  1  0  0  0  0
 15 30  1  0  0  0  0
 18 32  1  0  0  0  0
 18 33  1  0  0  0  0
 18 34  1  0  0  0  0
M  END
> <PUBCHEM_COMPOUND_CID>
131743

> <PUBCHEM_CONFORMER_RMSD>
1

> <PUBCHEM_CONFORMER_DIVERSEORDER>
27
46
172
71
90
300
63
134
84
329
3
334
214
147
44
276
338
79
178
250
4
130
163
82
318
80
183
260
191
292
307
257
321
184
153
29
269
246
31
96
107
76
160
342
204
108
5
173
102
352
217
242
232
227
162
139
62
83
313
297
60
104
248
66
170
101
112
128
2
86
143
339
287
215
106
348
280
295
351
312
55
59
187
73
193
354
205
192
26
12
88
226
146
218
65
310
17
274
36
320
221
64
43
208
197
57
335
116
125
148
222
155
278
200
189
288
168
11
30
138
267
199
323
223
157
56
35
152
144
122
224
308
54
72
345
231
194
236
235
251
346
58
61
75
341
316
337
8
322
1
117
169
324
181
45
275
230
18
7
99
77
239
137
179
159
243
111
136
212
81
210
38
336
306
87
317
291
263
129
353
233
49
282
28
51
293
270
42
167
127
140
252
41
272
24
261
50
161
326
315
175
303
97
47
273
32
285
70
142
34
165
186
119
131
85
245
281
327
37
15
238
202
264
109
110
266
21
171
120
154
333
305
206
259
247
319
16
100
255
52
344
126
118
135
150
133
225
182
355
10
92
68
69
190
196
216
330
279
6
311
185
123
114
20
132
124
166
145
265
113
121
349
258
105
176
103
48
284
156
254
115
25
174
296
249
253
19
294
347
180
95
350
13
94
98
207
220
151
331
14
89
328
302
325
78
240
22
149
289
290
213
277
23
203
286
67
262
234
340
271
201
198
244
195
299
343
301
9
332
39
164
314
309
283
268
40
219
74
158
177
209
229
228
141
211
33
241
91
93
188
237
304
53
256
298

> <PUBCHEM_MMFF94_PARTIAL_CHARGES>
24
1 -0.46
10 0.05
11 0.23
12 0.37
13 -0.33
14 0.18
15 0.04
16 0.56
17 0.69
18 0.25
2 -0.57
25 0.4
26 0.27
3 -0.82
30 0.15
31 0.37
35 0.37
36 0.37
4 0.03
5 -0.57
6 -0.49
7 -0.7
8 -0.8
9 0.41

> <PUBCHEM_EFFECTIVE_ROTOR_COUNT>
8

> <PUBCHEM_PHARMACOPHORE_FEATURES>
7
1 2 acceptor
1 3 donor
1 4 donor
1 6 donor
1 8 donor
3 4 5 15 cation
5 4 5 10 13 15 rings

> <PUBCHEM_HEAVY_ATOM_COUNT>
18

> <PUBCHEM_ATOM_DEF_STEREO_COUNT>
0

> <PUBCHEM_ATOM_UDEF_STEREO_COUNT>
0

> <PUBCHEM_BOND_DEF_STEREO_COUNT>
0

> <PUBCHEM_BOND_UDEF_STEREO_COUNT>
0

> <PUBCHEM_ISOTOPIC_ATOM_COUNT>
0

> <PUBCHEM_COMPONENT_COUNT>
1

> <PUBCHEM_CACTVS_TAUTO_COUNT>
16

> <PUBCHEM_CONFORMER_ID>
0002029F0000001B

> <PUBCHEM_MMFF94_ENERGY>
32.7477

> <PUBCHEM_FEATURE_SELFOVERLAP>
35.605

> <PUBCHEM_SHAPE_FINGERPRINT>
10616163 171 17832432273248881379
12363563 72 18187359917746776873
12596599 1 18410017624126248961
12633257 1 18408879646423411561
12670545 2 18040423400435682667
14251740 79 17472448468401841182
15422964 175 18271241617017434308
15635459 17 18337681913464857373
20600515 1 18117824513431974588
20645477 70 18192434284642839925
21315764 371 16629673110563953135
23557571 272 18338792295686631704
23559900 14 18341058466518905221
3286 77 17559963129656081190
9709674 26 18265341792589633979

> <PUBCHEM_SHAPE_MULTIPOLES>
338.53
7.53
2.82
1.78
5.05
1.07
0.07
-3.58
-1.84
-0.64
0.67
-2.64
-0.78
0.86

> <PUBCHEM_SHAPE_SELFOVERLAP>
662.313

> <PUBCHEM_SHAPE_VOLUME>
205.8

> <PUBCHEM_COORDINATE_TYPE>
2
5
10

$$$$
