131779
  -OEChem-03292013323D

 41 41  0     1  0  0  0  0  0999 V2000
   -1.3849   -2.6126   -1.0132 O   0  0  0  0  0  0  0  0  0  0  0  0
    0.8362   -0.3793    2.0460 O   0  0  0  0  0  0  0  0  0  0  0  0
    0.5277    1.7661    1.3577 O   0  0  0  0  0  0  0  0  0  0  0  0
   -0.6794    0.1922   -0.8294 N   0  0  0  0  0  0  0  0  0  0  0  0
   -4.0825   -0.9521    0.3106 N   0  0  0  0  0  0  0  0  0  0  0  0
   -1.0246   -2.4163    1.2468 N   0  0  0  0  0  0  0  0  0  0  0  0
    3.6136   -0.8259   -0.5170 N   0  0  0  0  0  0  0  0  0  0  0  0
    5.2010    0.6270    0.0321 N   0  0  0  0  0  0  0  0  0  0  0  0
   -3.1395   -0.1642   -0.4994 C   0  0  2  0  0  0  0  0  0  0  0  0
   -1.6989   -0.4315    0.0168 C   0  0  1  0  0  0  0  0  0  0  0  0
   -3.5530    1.3387   -0.5036 C   0  0  0  0  0  0  0  0  0  0  0  0
    0.6493   -0.0379   -0.2858 C   0  0  1  0  0  0  0  0  0  0  0  0
   -3.3707    1.9898    0.8749 C   0  0  0  0  0  0  0  0  0  0  0  0
   -4.9825    1.5825   -0.9996 C   0  0  0  0  0  0  0  0  0  0  0  0
    1.6979    0.6119   -1.1990 C   0  0  0  0  0  0  0  0  0  0  0  0
   -1.3505   -1.9206    0.0019 C   0  0  0  0  0  0  0  0  0  0  0  0
    3.1107    0.4071   -0.7011 C   0  0  0  0  0  0  0  0  0  0  0  0
    0.6676    0.5792    1.0985 C   0  0  0  0  0  0  0  0  0  0  0  0
    4.0700    1.2930   -0.3689 C   0  0  0  0  0  0  0  0  0  0  0  0
    4.8926   -0.6470   -0.0684 C   0  0  0  0  0  0  0  0  0  0  0  0
   -3.2200   -0.5410   -1.5277 H   0  0  0  0  0  0  0  0  0  0  0  0
   -1.6547   -0.0665    1.0477 H   0  0  0  0  0  0  0  0  0  0  0  0
   -2.8853    1.8608   -1.2020 H   0  0  0  0  0  0  0  0  0  0  0  0
   -0.7427   -0.1676   -1.7814 H   0  0  0  0  0  0  0  0  0  0  0  0
    0.8970   -1.1029   -0.2215 H   0  0  0  0  0  0  0  0  0  0  0  0
   -3.9674    1.4988    1.6494 H   0  0  0  0  0  0  0  0  0  0  0  0
   -3.6869    3.0390    0.8396 H   0  0  0  0  0  0  0  0  0  0  0  0
   -2.3244    1.9941    1.1902 H   0  0  0  0  0  0  0  0  0  0  0  0
   -5.1522    1.0799   -1.9573 H   0  0  0  0  0  0  0  0  0  0  0  0
   -5.1555    2.6536   -1.1520 H   0  0  0  0  0  0  0  0  0  0  0  0
   -5.7330    1.2295   -0.2851 H   0  0  0  0  0  0  0  0  0  0  0  0
    1.5121    1.6910   -1.2872 H   0  0  0  0  0  0  0  0  0  0  0  0
    1.6271    0.1944   -2.2123 H   0  0  0  0  0  0  0  0  0  0  0  0
   -4.0721   -0.6358    1.2780 H   0  0  0  0  0  0  0  0  0  0  0  0
   -5.0339   -0.8300   -0.0295 H   0  0  0  0  0  0  0  0  0  0  0  0
   -0.7818   -3.3939    1.3682 H   0  0  0  0  0  0  0  0  0  0  0  0
   -1.0082   -1.8395    2.0815 H   0  0  0  0  0  0  0  0  0  0  0  0
    3.1548   -1.7132   -0.6784 H   0  0  0  0  0  0  0  0  0  0  0  0
    4.0326    2.3723   -0.3875 H   0  0  0  0  0  0  0  0  0  0  0  0
    5.5416   -1.4794    0.1637 H   0  0  0  0  0  0  0  0  0  0  0  0
    0.8369   -0.0020    2.9514 H   0  0  0  0  0  0  0  0  0  0  0  0
  1 16  2  0  0  0  0
  2 18  1  0  0  0  0
  2 41  1  0  0  0  0
  3 18  2  0  0  0  0
  4 10  1  0  0  0  0
  4 12  1  0  0  0  0
  4 24  1  0  0  0  0
  5  9  1  0  0  0  0
  5 34  1  0  0  0  0
  5 35  1  0  0  0  0
  6 16  1  0  0  0  0
  6 36  1  0  0  0  0
  6 37  1  0  0  0  0
  7 17  1  0  0  0  0
  7 20  1  0  0  0  0
  7 38  1  0  0  0  0
  8 19  1  0  0  0  0
  8 20  2  0  0  0  0
  9 10  1  0  0  0  0
  9 11  1  0  0  0  0
  9 21  1  0  0  0  0
 10 16  1  0  0  0  0
 10 22  1  0  0  0  0
 11 13  1  0  0  0  0
 11 14  1  0  0  0  0
 11 23  1  0  0  0  0
 12 15  1  0  0  0  0
 12 18  1  0  0  0  0
 12 25  1  0  0  0  0
 13 26  1  0  0  0  0
 13 27  1  0  0  0  0
 13 28  1  0  0  0  0
 14 29  1  0  0  0  0
 14 30  1  0  0  0  0
 14 31  1  0  0  0  0
 15 17  1  0  0  0  0
 15 32  1  0  0  0  0
 15 33  1  0  0  0  0
 17 19  2  0  0  0  0
 19 39  1  0  0  0  0
 20 40  1  0  0  0  0
M  END
> <PUBCHEM_COMPOUND_CID>
131779

> <PUBCHEM_CONFORMER_RMSD>
0.8

> <PUBCHEM_CONFORMER_DIVERSEORDER>
1
42
31
32
24
19
33
30
44
21
20
36
7
5
23
18
11
14
41
43
13
37
26
10
15
39
6
16
17
29
45
8
34
25
40
9
28
4
35
22
38
46
3
27
12
2

> <PUBCHEM_MMFF94_PARTIAL_CHARGES>
26
1 -0.57
10 0.33
12 0.33
15 0.18
16 0.57
17 -0.33
18 0.66
19 0.08
2 -0.65
20 0.04
24 0.36
3 -0.57
34 0.36
35 0.36
36 0.37
37 0.37
38 0.27
39 0.15
4 -0.9
40 0.15
41 0.5
5 -0.99
6 -0.8
7 0.03
8 -0.57
9 0.27

> <PUBCHEM_EFFECTIVE_ROTOR_COUNT>
8

> <PUBCHEM_PHARMACOPHORE_FEATURES>
13
1 1 acceptor
1 2 acceptor
1 3 acceptor
1 4 cation
1 4 donor
1 5 cation
1 5 donor
1 6 donor
1 7 donor
3 11 13 14 hydrophobe
3 2 3 18 anion
3 7 8 20 cation
5 7 8 17 19 20 rings

> <PUBCHEM_HEAVY_ATOM_COUNT>
20

> <PUBCHEM_ATOM_DEF_STEREO_COUNT>
3

> <PUBCHEM_ATOM_UDEF_STEREO_COUNT>
0

> <PUBCHEM_BOND_DEF_STEREO_COUNT>
0

> <PUBCHEM_BOND_UDEF_STEREO_COUNT>
0

> <PUBCHEM_ISOTOPIC_ATOM_COUNT>
0

> <PUBCHEM_COMPONENT_COUNT>
1

> <PUBCHEM_CACTVS_TAUTO_COUNT>
4

> <PUBCHEM_CONFORMER_ID>
000202C300000001

> <PUBCHEM_MMFF94_ENERGY>
31.6747

> <PUBCHEM_FEATURE_SELFOVERLAP>
66.028

> <PUBCHEM_SHAPE_FINGERPRINT>
10382601 240 17828778248381299081
11370993 70 18412826876277551374
11405975 8 18335700581233416592
12236239 1 17894347774131573981
124424 183 17917711309674170484
12500047 106 18341046402082358166
12592029 89 17896040953271464786
12788726 201 18059579023453919688
12916748 109 18410019810148849893
13214271 11 7925915868170984307
13675066 3 17967821565169056292
14251751 93 18187366540945043115
15375358 24 17918277549910007950
15420108 30 15897305569702244960
17349148 13 14045743746398498580
17834072 8 18335987467494250772
18186145 218 18338528430007230476
18222031 100 7925334179127726357
19784866 170 11169905066182026565
200 152 16559037060727999876
20645476 183 17967527987222354019
20645477 70 17561095670236400854
21033650 10 17345218639128072332
21524375 3 18408605829874367511
23402539 116 18341607122895096637
23526113 38 17703513177402892237
23558518 356 17389390621046141316
23559900 14 18273497854270489726
26918003 58 18343300375676885806
298252 57 18335139769714759979
4214541 1 18408887356000412556
5104073 3 18333450958699197088
559249 180 18335698317611902966
633830 44 16950564419652459604
69090 78 18333450928439045396
7226269 152 18271805688194664416
9709674 26 18342748416112680974

> <PUBCHEM_SHAPE_MULTIPOLES>
369.08
9.7
2.15
1.28
4.39
0.98
-0.42
-3.64
1.97
-1.83
-0.19
-0.14
-0.06
0.08

> <PUBCHEM_SHAPE_SELFOVERLAP>
748.453

> <PUBCHEM_SHAPE_VOLUME>
216.3

> <PUBCHEM_COORDINATE_TYPE>
2
5
10

$$$$
