131723
  -OEChem-03292013323D

 36 38  0     0  0  0  0  0  0999 V2000
    2.7694   -0.2431    0.2246 O   0  0  0  0  0  0  0  0  0  0  0  0
   -3.3764   -2.3559    0.4160 O   0  0  0  0  0  0  0  0  0  0  0  0
    4.8549   -0.5667    2.0165 O   0  0  0  0  0  0  0  0  0  0  0  0
    4.9850    2.3818   -0.9919 O   0  0  0  0  0  0  0  0  0  0  0  0
    0.8656   -1.2071   -0.6596 N   0  0  0  0  0  0  0  0  0  0  0  0
   -2.8312   -0.0879    0.1403 N   0  0  0  0  0  0  0  0  0  0  0  0
   -2.5590    2.1201   -0.0663 N   0  0  0  0  0  0  0  0  0  0  0  0
   -0.6185    0.6930   -0.4329 N   0  0  0  0  0  0  0  0  0  0  0  0
   -0.5345   -2.8951   -0.2201 N   0  0  0  0  0  0  0  0  0  0  0  0
   -0.3483   -0.6361   -0.4109 C   0  0  0  0  0  0  0  0  0  0  0  0
   -1.1873   -1.6994   -0.1441 C   0  0  0  0  0  0  0  0  0  0  0  0
   -1.8677    0.9295   -0.1530 C   0  0  0  0  0  0  0  0  0  0  0  0
    2.0953   -0.5295   -0.9931 C   0  0  0  0  0  0  0  0  0  0  0  0
    4.0131    0.4035   -0.0094 C   0  0  0  0  0  0  0  0  0  0  0  0
   -2.5779   -1.4619    0.1688 C   0  0  0  0  0  0  0  0  0  0  0  0
   -3.8813    1.8673    0.2626 C   0  0  0  0  0  0  0  0  0  0  0  0
   -4.0435    0.5347    0.3868 C   0  0  0  0  0  0  0  0  0  0  0  0
    0.7028   -2.5647   -0.5330 C   0  0  0  0  0  0  0  0  0  0  0  0
    4.6646    0.6719    1.3408 C   0  0  0  0  0  0  0  0  0  0  0  0
    3.7555    1.6985   -0.7714 C   0  0  0  0  0  0  0  0  0  0  0  0
   -4.8803    2.9471    0.4293 C   0  0  0  0  0  0  0  0  0  0  0  0
    2.6927   -1.1913   -1.6297 H   0  0  0  0  0  0  0  0  0  0  0  0
    1.7971    0.3620   -1.5485 H   0  0  0  0  0  0  0  0  0  0  0  0
    4.6650   -0.2670   -0.5841 H   0  0  0  0  0  0  0  0  0  0  0  0
   -4.9317   -0.0247    0.6328 H   0  0  0  0  0  0  0  0  0  0  0  0
   -2.2007    3.0534   -0.2109 H   0  0  0  0  0  0  0  0  0  0  0  0
    1.5195   -3.2588   -0.6787 H   0  0  0  0  0  0  0  0  0  0  0  0
    4.0203    1.2951    1.9699 H   0  0  0  0  0  0  0  0  0  0  0  0
    5.6418    1.1513    1.2343 H   0  0  0  0  0  0  0  0  0  0  0  0
    3.0572    2.3591   -0.2455 H   0  0  0  0  0  0  0  0  0  0  0  0
    3.3546    1.5269   -1.7718 H   0  0  0  0  0  0  0  0  0  0  0  0
   -4.5757    3.6316    1.2273 H   0  0  0  0  0  0  0  0  0  0  0  0
   -5.8647    2.5441    0.6880 H   0  0  0  0  0  0  0  0  0  0  0  0
   -4.9835    3.5206   -0.4973 H   0  0  0  0  0  0  0  0  0  0  0  0
    5.2647   -0.3632    2.8746 H   0  0  0  0  0  0  0  0  0  0  0  0
    5.2329    2.8186   -0.1596 H   0  0  0  0  0  0  0  0  0  0  0  0
  1 13  1  0  0  0  0
  1 14  1  0  0  0  0
  2 15  2  0  0  0  0
  3 19  1  0  0  0  0
  3 35  1  0  0  0  0
  4 20  1  0  0  0  0
  4 36  1  0  0  0  0
  5 10  1  0  0  0  0
  5 13  1  0  0  0  0
  5 18  1  0  0  0  0
  6 12  1  0  0  0  0
  6 15  1  0  0  0  0
  6 17  1  0  0  0  0
  7 12  1  0  0  0  0
  7 16  1  0  0  0  0
  7 26  1  0  0  0  0
  8 10  1  0  0  0  0
  8 12  2  0  0  0  0
  9 11  1  0  0  0  0
  9 18  2  0  0  0  0
 10 11  2  0  0  0  0
 11 15  1  0  0  0  0
 13 22  1  0  0  0  0
 13 23  1  0  0  0  0
 14 19  1  0  0  0  0
 14 20  1  0  0  0  0
 14 24  1  0  0  0  0
 16 17  2  0  0  0  0
 16 21  1  0  0  0  0
 17 25  1  0  0  0  0
 18 27  1  0  0  0  0
 19 28  1  0  0  0  0
 19 29  1  0  0  0  0
 20 30  1  0  0  0  0
 20 31  1  0  0  0  0
 21 32  1  0  0  0  0
 21 33  1  0  0  0  0
 21 34  1  0  0  0  0
M  END
> <PUBCHEM_COMPOUND_CID>
131723

> <PUBCHEM_CONFORMER_RMSD>
0.8

> <PUBCHEM_CONFORMER_DIVERSEORDER>
1
12
9
13
7
11
16
10
4
14
3
15
6
8
5
2

> <PUBCHEM_MMFF94_PARTIAL_CHARGES>
26
1 -0.56
10 -0.03
11 0.14
12 0.56
13 0.54
14 0.28
15 0.72
16 -0.04
17 -0.04
18 0.04
19 0.28
2 -0.57
20 0.28
21 0.14
25 0.15
26 0.4
27 0.15
3 -0.68
35 0.4
36 0.4
4 -0.68
5 0.05
6 -0.23
7 -0.55
8 -0.58
9 -0.57

> <PUBCHEM_EFFECTIVE_ROTOR_COUNT>
5

> <PUBCHEM_PHARMACOPHORE_FEATURES>
11
1 1 acceptor
1 2 acceptor
1 3 acceptor
1 3 donor
1 4 acceptor
1 4 donor
1 7 donor
3 5 9 18 cation
5 5 9 10 11 18 rings
5 6 7 12 16 17 rings
6 6 8 10 11 12 15 rings

> <PUBCHEM_HEAVY_ATOM_COUNT>
21

> <PUBCHEM_ATOM_DEF_STEREO_COUNT>
0

> <PUBCHEM_ATOM_UDEF_STEREO_COUNT>
0

> <PUBCHEM_BOND_DEF_STEREO_COUNT>
0

> <PUBCHEM_BOND_UDEF_STEREO_COUNT>
0

> <PUBCHEM_ISOTOPIC_ATOM_COUNT>
0

> <PUBCHEM_COMPONENT_COUNT>
1

> <PUBCHEM_CACTVS_TAUTO_COUNT>
3

> <PUBCHEM_CONFORMER_ID>
0002028B00000001

> <PUBCHEM_MMFF94_ENERGY>
66.2387

> <PUBCHEM_FEATURE_SELFOVERLAP>
56.106

> <PUBCHEM_SHAPE_FINGERPRINT>
10319926 262 18412257329629059290
10411042 1 17475239479447034478
10670039 82 18336841891440986372
11132069 177 18408889516384682607
12107183 9 18190733147107911482
12173636 292 18269270338940189950
122479 349 18413390929789426862
12390115 104 18199209384655796557
12403259 118 18410004464246389152
12403259 415 18131639993214620958
12596602 18 17386284414682004811
12633257 1 18187639172626341300
12788726 201 18047189940869748530
12969540 114 16487256590442834150
13140716 1 18191873327507199883
13965767 371 18040719112991979940
14178342 30 18261399931671772679
14341114 328 18040433313246868016
14420673 8 18119802522630229626
14739800 52 18051964012458668552
14848178 96 18270968916611572929
17834072 32 18410863161142219420
204376 136 18411423882181291117
20510252 161 18270694167553348971
20715895 44 18193552272930337925
21065198 48 18186798128040900872
212916 134 18271792515476986258
21452121 103 18196086634214831059
23557571 272 18130242547794316126
23559900 14 18270973323706818622
2748010 2 18194424233243782679
341906 21 18342454876635846688
350125 39 18339932635822344361
474 4 18340211769524920421
495365 180 17418371355811512006
5104073 3 18260545658439498064
58807428 26 18187926118985419947
633830 44 18342740671975033390
7064713 232 18410572881598628988
7097593 13 18115289121723335586
7364860 26 17981892934450769767
7808743 9 18339367491040538004
90316 7 17530962466764710301
9981440 41 18410853235863221467

> <PUBCHEM_SHAPE_MULTIPOLES>
383.79
10.45
3.18
1.04
6.1
0.36
-0.34
-8.68
-2.89
-2.24
0.31
1.6
-0.1
-0.64

> <PUBCHEM_SHAPE_SELFOVERLAP>
830.431

> <PUBCHEM_SHAPE_VOLUME>
210.6

> <PUBCHEM_COORDINATE_TYPE>
2
5
10

$$$$
