131830
  -OEChem-03292013323D

 42 44  0     1  0  0  0  0  0999 V2000
    1.7477   -0.1422    0.8726 O   0  0  0  0  0  0  0  0  0  0  0  0
    1.4816   -0.7205   -2.0820 O   0  0  0  0  0  0  0  0  0  0  0  0
    4.1534   -0.1291   -1.8005 O   0  0  0  0  0  0  0  0  0  0  0  0
    3.8351   -1.1206    2.4984 O   0  0  0  0  0  0  0  0  0  0  0  0
   -2.6975    3.5093    1.0313 O   0  0  0  0  0  0  0  0  0  0  0  0
   -0.3633    0.2444   -0.1706 N   0  0  0  0  0  0  0  0  0  0  0  0
   -2.5828    0.4033   -0.3985 N   0  0  0  0  0  0  0  0  0  0  0  0
   -0.1709   -2.1353    0.2847 N   0  0  0  0  0  0  0  0  0  0  0  0
   -2.3551   -3.2238    0.2886 N   0  0  0  0  0  0  0  0  0  0  0  0
   -4.3879   -2.0273   -0.1148 N   0  0  0  0  0  0  0  0  0  0  0  0
    1.0396    0.6374   -0.1169 C   0  0  2  0  0  0  0  0  0  0  0  0
    1.8178    0.4973   -1.4233 C   0  0  1  0  0  0  0  0  0  0  0  0
    3.2320    0.4191   -0.8825 C   0  0  1  0  0  0  0  0  0  0  0  0
    3.0453   -0.4712    0.3395 C   0  0  1  0  0  0  0  0  0  0  0  0
    4.1045   -0.2574    1.4059 C   0  0  0  0  0  0  0  0  0  0  0  0
   -1.4418    1.0603   -0.4165 C   0  0  0  0  0  0  0  0  0  0  0  0
   -0.8632   -1.0179    0.0168 C   0  0  0  0  0  0  0  0  0  0  0  0
   -1.2813    2.5075   -0.6674 C   0  0  0  0  0  0  0  0  0  0  0  0
   -2.2359   -0.8967   -0.1289 C   0  0  0  0  0  0  0  0  0  0  0  0
   -1.3397    3.3617    0.6197 C   0  0  1  0  0  0  0  0  0  0  0  0
   -2.9888   -2.0575    0.0168 C   0  0  0  0  0  0  0  0  0  0  0  0
   -0.7435    4.7499    0.4235 C   0  0  0  0  0  0  0  0  0  0  0  0
   -1.0055   -3.1908    0.4040 C   0  0  0  0  0  0  0  0  0  0  0  0
    1.0877    1.6692    0.2479 H   0  0  0  0  0  0  0  0  0  0  0  0
    1.6576    1.3185   -2.1263 H   0  0  0  0  0  0  0  0  0  0  0  0
    3.5753    1.4188   -0.5903 H   0  0  0  0  0  0  0  0  0  0  0  0
    3.0275   -1.5357    0.0744 H   0  0  0  0  0  0  0  0  0  0  0  0
    4.0927    0.7700    1.7842 H   0  0  0  0  0  0  0  0  0  0  0  0
    5.1046   -0.4826    1.0245 H   0  0  0  0  0  0  0  0  0  0  0  0
   -0.3458    2.6986   -1.2053 H   0  0  0  0  0  0  0  0  0  0  0  0
   -2.0870    2.8265   -1.3420 H   0  0  0  0  0  0  0  0  0  0  0  0
    1.5152   -1.4520   -1.4444 H   0  0  0  0  0  0  0  0  0  0  0  0
    3.8102   -0.9903   -2.0936 H   0  0  0  0  0  0  0  0  0  0  0  0
   -0.8001    2.8677    1.4364 H   0  0  0  0  0  0  0  0  0  0  0  0
    2.9413   -0.9144    2.8216 H   0  0  0  0  0  0  0  0  0  0  0  0
   -1.2843    5.2992   -0.3550 H   0  0  0  0  0  0  0  0  0  0  0  0
   -0.8314    5.3376    1.3435 H   0  0  0  0  0  0  0  0  0  0  0  0
    0.3128    4.6923    0.1441 H   0  0  0  0  0  0  0  0  0  0  0  0
   -0.5315   -4.1420    0.6216 H   0  0  0  0  0  0  0  0  0  0  0  0
   -3.0531    2.6201    1.1989 H   0  0  0  0  0  0  0  0  0  0  0  0
   -4.8631   -1.1582   -0.3173 H   0  0  0  0  0  0  0  0  0  0  0  0
   -4.9127   -2.8841   -0.0042 H   0  0  0  0  0  0  0  0  0  0  0  0
  1 11  1  0  0  0  0
  1 14  1  0  0  0  0
  2 12  1  0  0  0  0
  2 32  1  0  0  0  0
  3 13  1  0  0  0  0
  3 33  1  0  0  0  0
  4 15  1  0  0  0  0
  4 35  1  0  0  0  0
  5 20  1  0  0  0  0
  5 40  1  0  0  0  0
  6 11  1  0  0  0  0
  6 16  1  0  0  0  0
  6 17  1  0  0  0  0
  7 16  2  0  0  0  0
  7 19  1  0  0  0  0
  8 17  2  0  0  0  0
  8 23  1  0  0  0  0
  9 21  1  0  0  0  0
  9 23  2  0  0  0  0
 10 21  1  0  0  0  0
 10 41  1  0  0  0  0
 10 42  1  0  0  0  0
 11 12  1  0  0  0  0
 11 24  1  0  0  0  0
 12 13  1  0  0  0  0
 12 25  1  0  0  0  0
 13 14  1  0  0  0  0
 13 26  1  0  0  0  0
 14 15  1  0  0  0  0
 14 27  1  0  0  0  0
 15 28  1  0  0  0  0
 15 29  1  0  0  0  0
 16 18  1  0  0  0  0
 17 19  1  0  0  0  0
 18 20  1  0  0  0  0
 18 30  1  0  0  0  0
 18 31  1  0  0  0  0
 19 21  2  0  0  0  0
 20 22  1  0  0  0  0
 20 34  1  0  0  0  0
 22 36  1  0  0  0  0
 22 37  1  0  0  0  0
 22 38  1  0  0  0  0
 23 39  1  0  0  0  0
M  END
> <PUBCHEM_COMPOUND_CID>
131830

> <PUBCHEM_CONFORMER_RMSD>
0.8

> <PUBCHEM_CONFORMER_DIVERSEORDER>
1
24
27
8
6
25
10
12
21
17
22
19
11
14
13
15
26
3
16
4
18
5
9
7
23
2
20

> <PUBCHEM_MMFF94_PARTIAL_CHARGES>
29
1 -0.56
10 -0.9
11 0.54
12 0.28
13 0.28
14 0.28
15 0.28
16 0.01
17 0.11
18 0.18
19 0.23
2 -0.68
20 0.28
21 0.41
23 0.47
3 -0.68
32 0.4
33 0.4
35 0.4
39 0.15
4 -0.68
40 0.4
41 0.4
42 0.4
5 -0.68
6 0.05
7 -0.57
8 -0.57
9 -0.62

> <PUBCHEM_EFFECTIVE_ROTOR_COUNT>
5

> <PUBCHEM_PHARMACOPHORE_FEATURES>
17
1 1 acceptor
1 10 cation
1 10 donor
1 2 acceptor
1 2 donor
1 3 acceptor
1 3 donor
1 4 acceptor
1 4 donor
1 5 acceptor
1 5 donor
3 6 7 16 cation
3 6 8 17 cation
3 8 9 23 cation
5 1 11 12 13 14 rings
5 6 7 16 17 19 rings
6 8 9 17 19 21 23 rings

> <PUBCHEM_HEAVY_ATOM_COUNT>
23

> <PUBCHEM_ATOM_DEF_STEREO_COUNT>
4

> <PUBCHEM_ATOM_UDEF_STEREO_COUNT>
1

> <PUBCHEM_BOND_DEF_STEREO_COUNT>
0

> <PUBCHEM_BOND_UDEF_STEREO_COUNT>
0

> <PUBCHEM_ISOTOPIC_ATOM_COUNT>
0

> <PUBCHEM_COMPONENT_COUNT>
1

> <PUBCHEM_CACTVS_TAUTO_COUNT>
6

> <PUBCHEM_CONFORMER_ID>
000202F600000001

> <PUBCHEM_MMFF94_ENERGY>
53.7948

> <PUBCHEM_FEATURE_SELFOVERLAP>
86.892

> <PUBCHEM_SHAPE_FINGERPRINT>
1100329 8 18339938094915896129
11582403 64 16836794472597991208
11725454 13 17056356018230835616
12293681 160 17539720274886609868
12549972 3 17487897805209757490
12553582 1 18337679740248757515
12788726 201 18335431187266363034
13009979 54 18113892750324266690
13140716 1 18410569621913402881
13294875 104 17261878745923831476
13583140 156 17701790286349622626
13965767 371 17323791167694982424
14022347 108 18193302851273049215
14178342 30 18265889155958902234
14787075 74 17612881808816485620
14790565 3 18266763319523160289
14955137 171 18049193187010627867
15842332 3 17967821501103236436
16752209 62 18333728035339479615
16945 1 18410858741546544614
18785283 64 16967474590418027065
19591789 44 17690581696884717397
20369508 70 17976535336701308159
20510252 161 18411983563390377961
20600515 1 18198894997618769979
20642791 105 18042945624359946877
21029758 11 18268152148626029637
21524375 3 17696755454548657261
21650355 55 18338503231412947241
22182313 1 17177411450055249511
22956985 138 17108166427792170090
23366157 5 17468190489432012157
23419403 2 15833613566465397399
23557571 272 18341333396160830228
23558518 356 18119247255824200115
23559900 14 18412548708852686334
23598291 2 17749391413033131002
266924 78 16010468809302135222
3091708 16 9420949328817135729
350125 39 17761786061383682253
352729 6 18335135333039871407
58807428 26 17905037054388579320
6442390 28 17910138827439751305
6992083 37 17823690859502921436
7364860 26 17404594758224363973
81228 2 18272105884902033193
90316 7 18411415150354380075

> <PUBCHEM_SHAPE_MULTIPOLES>
419.08
6.39
4.66
1.45
4.18
5.02
0.03
-3.16
0.86
-5.55
1.53
2.08
-0.12
-0.81

> <PUBCHEM_SHAPE_SELFOVERLAP>
897.03

> <PUBCHEM_SHAPE_VOLUME>
228.8

> <PUBCHEM_COORDINATE_TYPE>
2
5
10

$$$$
