131849
  -OEChem-03292013323D

 55 58  0     0  0  0  0  0  0999 V2000
   -1.8633    3.4094    0.8133 F   0  0  0  0  0  0  0  0  0  0  0  0
    4.3885    2.7520   -1.4760 O   0  0  0  0  0  0  0  0  0  0  0  0
   -6.3913    1.2499    0.5277 O   0  0  0  0  0  0  0  0  0  0  0  0
   -8.2238   -0.3559   -0.4446 O   0  0  0  0  0  0  0  0  0  0  0  0
   -7.8470   -2.5377    0.1281 O   0  0  0  0  0  0  0  0  0  0  0  0
    7.3888   -3.4692   -0.3382 O   0  5  0  0  0  0  0  0  0  0  0  0
    8.2740   -2.3529    1.3319 O   0  0  0  0  0  0  0  0  0  0  0  0
   -0.0262    1.4347    0.1706 N   0  0  0  0  0  0  0  0  0  0  0  0
    2.7407    1.9276   -0.0397 N   0  0  0  0  0  0  0  0  0  0  0  0
   -3.7452   -1.7030   -0.4268 N   0  0  0  0  0  0  0  0  0  0  0  0
    7.4587   -2.4442    0.3823 N   0  3  0  0  0  0  0  0  0  0  0  0
    0.4571    2.4727   -0.7555 C   0  0  0  0  0  0  0  0  0  0  0  0
    0.9237    0.3595    0.4912 C   0  0  0  0  0  0  0  0  0  0  0  0
    1.8053    3.0195   -0.2896 C   0  0  0  0  0  0  0  0  0  0  0  0
    2.2602    0.9488    0.9384 C   0  0  0  0  0  0  0  0  0  0  0  0
   -1.4004    1.1687    0.1873 C   0  0  0  0  0  0  0  0  0  0  0  0
   -1.8619   -0.1143   -0.1247 C   0  0  0  0  0  0  0  0  0  0  0  0
   -3.2346   -0.4204   -0.1181 C   0  0  0  0  0  0  0  0  0  0  0  0
    3.9789    1.9068   -0.6818 C   0  0  0  0  0  0  0  0  0  0  0  0
   -2.2997    2.1778    0.5138 C   0  0  0  0  0  0  0  0  0  0  0  0
   -4.1271    0.6239    0.2170 C   0  0  0  0  0  0  0  0  0  0  0  0
   -3.6648    1.9096    0.5297 C   0  0  0  0  0  0  0  0  0  0  0  0
    4.8806    0.7806   -0.4079 C   0  0  0  0  0  0  0  0  0  0  0  0
   -2.8086   -2.7704   -0.7701 C   0  0  0  0  0  0  0  0  0  0  0  0
   -5.5917    0.3672    0.2424 C   0  0  0  0  0  0  0  0  0  0  0  0
   -5.1118   -1.9147   -0.3968 C   0  0  0  0  0  0  0  0  0  0  0  0
   -6.0443   -1.0044   -0.0949 C   0  0  0  0  0  0  0  0  0  0  0  0
   -2.3865   -3.5171    0.4806 C   0  0  0  0  0  0  0  0  0  0  0  0
    4.8190   -0.3638   -1.1978 C   0  0  0  0  0  0  0  0  0  0  0  0
    5.7911    0.8643    0.6416 C   0  0  0  0  0  0  0  0  0  0  0  0
   -7.4495   -1.4117   -0.1160 C   0  0  0  0  0  0  0  0  0  0  0  0
    5.6750   -1.4335   -0.9359 C   0  0  0  0  0  0  0  0  0  0  0  0
    6.6472   -0.2054    0.9035 C   0  0  0  0  0  0  0  0  0  0  0  0
    6.5890   -1.3544    0.1147 C   0  0  0  0  0  0  0  0  0  0  0  0
   -0.2416    3.3105   -0.8493 H   0  0  0  0  0  0  0  0  0  0  0  0
    0.5627    2.0284   -1.7537 H   0  0  0  0  0  0  0  0  0  0  0  0
    1.0823   -0.2682   -0.3947 H   0  0  0  0  0  0  0  0  0  0  0  0
    0.5425   -0.2742    1.3013 H   0  0  0  0  0  0  0  0  0  0  0  0
    2.2043    3.7139   -1.0357 H   0  0  0  0  0  0  0  0  0  0  0  0
    1.6905    3.5725    0.6504 H   0  0  0  0  0  0  0  0  0  0  0  0
    2.1432    1.4788    1.8917 H   0  0  0  0  0  0  0  0  0  0  0  0
    2.9793    0.1435    1.1011 H   0  0  0  0  0  0  0  0  0  0  0  0
   -1.1345   -0.8775   -0.3763 H   0  0  0  0  0  0  0  0  0  0  0  0
   -4.3521    2.7108    0.7869 H   0  0  0  0  0  0  0  0  0  0  0  0
   -3.3092   -3.4886   -1.4343 H   0  0  0  0  0  0  0  0  0  0  0  0
   -1.9490   -2.4317   -1.3568 H   0  0  0  0  0  0  0  0  0  0  0  0
   -5.3816   -2.9350   -0.6527 H   0  0  0  0  0  0  0  0  0  0  0  0
   -1.8558   -2.8637    1.1804 H   0  0  0  0  0  0  0  0  0  0  0  0
   -3.2519   -3.9351    1.0060 H   0  0  0  0  0  0  0  0  0  0  0  0
   -1.7190   -4.3446    0.2199 H   0  0  0  0  0  0  0  0  0  0  0  0
    4.1089   -0.4349   -2.0175 H   0  0  0  0  0  0  0  0  0  0  0  0
    5.8429    1.7551    1.2620 H   0  0  0  0  0  0  0  0  0  0  0  0
    5.6009   -2.3127   -1.5707 H   0  0  0  0  0  0  0  0  0  0  0  0
    7.3459   -0.1087    1.7305 H   0  0  0  0  0  0  0  0  0  0  0  0
   -9.1760   -0.5905   -0.4691 H   0  0  0  0  0  0  0  0  0  0  0  0
  1 20  1  0  0  0  0
  2 19  2  0  0  0  0
  3 25  2  0  0  0  0
  4 31  1  0  0  0  0
  4 55  1  0  0  0  0
  5 31  2  0  0  0  0
  6 11  1  0  0  0  0
  7 11  2  0  0  0  0
  8 12  1  0  0  0  0
  8 13  1  0  0  0  0
  8 16  1  0  0  0  0
  9 14  1  0  0  0  0
  9 15  1  0  0  0  0
  9 19  1  0  0  0  0
 10 18  1  0  0  0  0
 10 24  1  0  0  0  0
 10 26  1  0  0  0  0
 11 34  1  0  0  0  0
 12 14  1  0  0  0  0
 12 35  1  0  0  0  0
 12 36  1  0  0  0  0
 13 15  1  0  0  0  0
 13 37  1  0  0  0  0
 13 38  1  0  0  0  0
 14 39  1  0  0  0  0
 14 40  1  0  0  0  0
 15 41  1  0  0  0  0
 15 42  1  0  0  0  0
 16 17  1  0  0  0  0
 16 20  2  0  0  0  0
 17 18  2  0  0  0  0
 17 43  1  0  0  0  0
 18 21  1  0  0  0  0
 19 23  1  0  0  0  0
 20 22  1  0  0  0  0
 21 22  2  0  0  0  0
 21 25  1  0  0  0  0
 22 44  1  0  0  0  0
 23 29  2  0  0  0  0
 23 30  1  0  0  0  0
 24 28  1  0  0  0  0
 24 45  1  0  0  0  0
 24 46  1  0  0  0  0
 25 27  1  0  0  0  0
 26 27  2  0  0  0  0
 26 47  1  0  0  0  0
 27 31  1  0  0  0  0
 28 48  1  0  0  0  0
 28 49  1  0  0  0  0
 28 50  1  0  0  0  0
 29 32  1  0  0  0  0
 29 51  1  0  0  0  0
 30 33  2  0  0  0  0
 30 52  1  0  0  0  0
 32 34  2  0  0  0  0
 32 53  1  0  0  0  0
 33 34  1  0  0  0  0
 33 54  1  0  0  0  0
M  CHG  2   6  -1  11   1
M  END
> <PUBCHEM_COMPOUND_CID>
131849

> <PUBCHEM_CONFORMER_RMSD>
1

> <PUBCHEM_CONFORMER_DIVERSEORDER>
1
6
10
9
8
4
5
11
3
7
2

> <PUBCHEM_MMFF94_PARTIAL_CHARGES>
41
1 -0.19
10 -0.57
11 0.91
12 0.37
13 0.37
14 0.3
15 0.3
16 0.1
17 -0.15
18 0.1
19 0.54
2 -0.57
20 0.19
21 0.09
22 -0.15
23 0.09
24 0.37
25 0.47
26 -0.05
27 0.03
29 -0.15
3 -0.57
30 -0.15
31 0.71
32 -0.15
33 -0.15
34 0.13
4 -0.65
43 0.15
44 0.15
47 0.15
5 -0.57
51 0.15
52 0.15
53 0.15
54 0.15
55 0.5
6 -0.52
7 -0.52
8 -0.84
9 -0.66

> <PUBCHEM_EFFECTIVE_ROTOR_COUNT>
7.2

> <PUBCHEM_PHARMACOPHORE_FEATURES>
15
1 10 cation
1 2 acceptor
1 27 anion
1 3 acceptor
1 4 acceptor
1 5 acceptor
1 6 acceptor
1 6 anion
1 7 acceptor
1 8 cation
3 4 5 31 anion
6 10 18 21 25 26 27 rings
6 16 17 18 20 21 22 rings
6 23 29 30 32 33 34 rings
6 8 9 12 13 14 15 rings

> <PUBCHEM_HEAVY_ATOM_COUNT>
34

> <PUBCHEM_ATOM_DEF_STEREO_COUNT>
0

> <PUBCHEM_ATOM_UDEF_STEREO_COUNT>
0

> <PUBCHEM_BOND_DEF_STEREO_COUNT>
0

> <PUBCHEM_BOND_UDEF_STEREO_COUNT>
0

> <PUBCHEM_ISOTOPIC_ATOM_COUNT>
0

> <PUBCHEM_COMPONENT_COUNT>
1

> <PUBCHEM_CACTVS_TAUTO_COUNT>
1

> <PUBCHEM_CONFORMER_ID>
0002030900000001

> <PUBCHEM_MMFF94_ENERGY>
118.6418

> <PUBCHEM_FEATURE_SELFOVERLAP>
76.628

> <PUBCHEM_SHAPE_FINGERPRINT>
10 15 11095885973359448461
10119406 146 18259989284408541579
10254770 206 18341887498181266262
10622 236 17913194649246926095
10939801 23 18200591519002845740
11524674 6 16774081799841102823
11991303 11 14851896884180230920
12236239 1 18261677068805646773
12539765 74 12252444637062244721
13248334 5 18121780792845796236
1361 4 18264491852773794382
13782708 43 18413109476256189921
14347332 77 18410013221405663532
15001296 14 18115302405745698810
15183329 4 18340496650262711709
15439362 3 17762899867175062973
15510800 12 17917157096322643910
17857418 61 18342460369730304084
18393751 57 11815901149707960557
18603816 31 17845922018523406511
1979834 28 16988854869303798732
19841028 212 18334290968756441394
19958102 18 18335413604166093493
20028762 73 18411139092081061310
2026 5 18335699391016558866
20982279 24 17677344939336083331
21130935 74 18342739632540401320
21267235 1 18338802329600510641
21424621 283 10231754496159827516
23522609 53 18123787293854675593
23559900 14 18270392914447822161
23569917 315 18338801225916319631
23569943 247 18261956236915240107
3004659 81 18261671557850545825
3103668 31 17968649407495236397
3383291 50 18341331184501164371
3986486 107 12468915331388635322
406291 66 18408884014769304082
4073 2 18046629177080619360
42767 46 18187359909732238930
439807 62 18410576193102459310
4756088 132 17621029197946897902
5080951 261 15267046061629455845
5085150 59 18060419123009353031
5104073 3 17917715708095715704
559249 180 18412262839987352805
5718773 13 18409729543426643340
6081469 158 18260543438310586709
6138700 20 18411701002752246987
6438161 24 18408318887351645298
6695519 79 17041509651924095368
86090 222 16198777682367993708

> <PUBCHEM_SHAPE_MULTIPOLES>
637.29
23.98
3.97
0.96
6.83
1.02
0.05
19.24
-1.31
1.93
0.08
1.14
-0.06
-1.66

> <PUBCHEM_SHAPE_SELFOVERLAP>
1391.817

> <PUBCHEM_SHAPE_VOLUME>
346.1

> <PUBCHEM_COORDINATE_TYPE>
2
5
10

$$$$
