131869
  -OEChem-03292013323D

 26 27  0     0  0  0  0  0  0999 V2000
   -2.5490   -1.0323   -0.9703 S   0  0  0  0  0  0  0  0  0  0  0  0
    2.6470    1.7731   -1.0120 O   0  0  0  0  0  0  0  0  0  0  0  0
   -0.1195    0.0729   -0.4166 O   0  0  0  0  0  0  0  0  0  0  0  0
    3.9017   -1.0883    2.2804 O   0  5  0  0  0  0  0  0  0  0  0  0
    2.1128   -1.7274    1.1803 O   0  0  0  0  0  0  0  0  0  0  0  0
   -4.9488   -0.9435    1.0148 O   0  0  0  0  0  0  0  0  0  0  0  0
    1.1873   -1.0223   -1.8648 N   0  0  0  0  0  0  0  0  0  0  0  0
    3.0439   -0.9000    1.3757 N   0  3  0  0  0  0  0  0  0  0  0  0
   -0.1072   -1.4798   -2.0271 N   0  0  0  0  0  0  0  0  0  0  0  0
   -5.0359    1.3084    0.4456 N   0  0  0  0  0  0  0  0  0  0  0  0
   -6.3945    1.3989    0.6702 N   0  0  0  0  0  0  0  0  0  0  0  0
    2.2665    0.5925   -0.4507 C   0  0  0  0  0  0  0  0  0  0  0  0
    3.1268    0.2522    0.5716 C   0  0  0  0  0  0  0  0  0  0  0  0
    1.1326   -0.1177   -0.9154 C   0  0  0  0  0  0  0  0  0  0  0  0
    4.0911    1.2858    0.6400 C   0  0  0  0  0  0  0  0  0  0  0  0
    3.7555    2.1869   -0.3435 C   0  0  0  0  0  0  0  0  0  0  0  0
   -0.7833   -0.8068   -1.1675 C   0  0  0  0  0  0  0  0  0  0  0  0
   -2.9240    0.1522    0.3439 C   0  0  0  0  0  0  0  0  0  0  0  0
   -4.4029    0.0952    0.6453 C   0  0  0  0  0  0  0  0  0  0  0  0
    4.9292    1.3732    1.3172 H   0  0  0  0  0  0  0  0  0  0  0  0
    4.1808    3.1218   -0.6778 H   0  0  0  0  0  0  0  0  0  0  0  0
   -2.3802   -0.1072    1.2579 H   0  0  0  0  0  0  0  0  0  0  0  0
   -2.6198    1.1563    0.0331 H   0  0  0  0  0  0  0  0  0  0  0  0
   -4.5474    2.1428    0.1368 H   0  0  0  0  0  0  0  0  0  0  0  0
   -6.8156    1.7339   -0.1954 H   0  0  0  0  0  0  0  0  0  0  0  0
   -6.5321    2.1407    1.3553 H   0  0  0  0  0  0  0  0  0  0  0  0
  1 17  1  0  0  0  0
  1 18  1  0  0  0  0
  2 12  1  0  0  0  0
  2 16  1  0  0  0  0
  3 14  1  0  0  0  0
  3 17  1  0  0  0  0
  4  8  1  0  0  0  0
  5  8  2  0  0  0  0
  6 19  2  0  0  0  0
  7  9  1  0  0  0  0
  7 14  2  0  0  0  0
  8 13  1  0  0  0  0
  9 17  2  0  0  0  0
 10 11  1  0  0  0  0
 10 19  1  0  0  0  0
 10 24  1  0  0  0  0
 11 25  1  0  0  0  0
 11 26  1  0  0  0  0
 12 13  2  0  0  0  0
 12 14  1  0  0  0  0
 13 15  1  0  0  0  0
 15 16  2  0  0  0  0
 15 20  1  0  0  0  0
 16 21  1  0  0  0  0
 18 19  1  0  0  0  0
 18 22  1  0  0  0  0
 18 23  1  0  0  0  0
M  CHG  2   4  -1   8   1
M  END
> <PUBCHEM_COMPOUND_CID>
131869

> <PUBCHEM_CONFORMER_RMSD>
0.8

> <PUBCHEM_CONFORMER_DIVERSEORDER>
2
113
68
25
77
116
47
114
16
72
112
89
12
31
85
92
76
49
1
55
64
13
56
4
48
65
60
15
115
82
106
11
14
45
91
84
6
59
34
17
97
80
44
46
105
43
100
109
42
99
101
19
110
22
7
40
35
69
86
3
73
5
39
41
8
119
88
111
32
87
51
57
83
54
79
117
37
70
36
33
21
52
103
107
38
98
108
102
58
62
10
95
23
66
120
26
118
81
75
28
104
93
24
18
96
9
29
63
94
20
27
71
30
67
78
90
61
50
53
74

> <PUBCHEM_MMFF94_PARTIAL_CHARGES>
24
1 -0.29
10 -0.42
11 -0.73
12 0.14
13 0.08
14 0.48
15 -0.15
16 -0.01
17 0.53
18 0.29
19 0.57
2 -0.28
20 0.15
21 0.15
24 0.37
25 0.36
26 0.36
3 -0.28
4 -0.52
5 -0.52
6 -0.57
7 -0.34
8 0.96
9 -0.34

> <PUBCHEM_EFFECTIVE_ROTOR_COUNT>
6

> <PUBCHEM_PHARMACOPHORE_FEATURES>
9
1 10 donor
1 11 donor
1 2 acceptor
1 4 acceptor
1 4 anion
1 5 acceptor
1 6 acceptor
5 2 12 13 15 16 rings
5 3 7 9 14 17 rings

> <PUBCHEM_HEAVY_ATOM_COUNT>
19

> <PUBCHEM_ATOM_DEF_STEREO_COUNT>
0

> <PUBCHEM_ATOM_UDEF_STEREO_COUNT>
0

> <PUBCHEM_BOND_DEF_STEREO_COUNT>
0

> <PUBCHEM_BOND_UDEF_STEREO_COUNT>
0

> <PUBCHEM_ISOTOPIC_ATOM_COUNT>
0

> <PUBCHEM_COMPONENT_COUNT>
1

> <PUBCHEM_CACTVS_TAUTO_COUNT>
2

> <PUBCHEM_CONFORMER_ID>
0002031D00000002

> <PUBCHEM_MMFF94_ENERGY>
28.5962

> <PUBCHEM_FEATURE_SELFOVERLAP>
47.265

> <PUBCHEM_SHAPE_FINGERPRINT>
10064457 181 17822578333992597642
10498660 4 17060341859334401641
10670039 82 17489045784953170904
11128504 68 13110962016274965217
11543360 7 12103842367533985373
12363563 72 13406788934957489087
12403259 415 15769213993547320054
12507560 40 17458334217892039149
12553582 1 13695587754542052121
12596602 18 18335143137069340601
12633257 1 18187071850032443610
12670546 177 12319735865109881441
12730499 353 15195295260904082319
12778500 126 17895193226060465753
12892183 10 17967535700878050893
13533116 47 17604151433067235683
13583140 156 18041267876963464197
13675066 3 16805318890742057911
13965767 371 18271231807549637028
14251764 30 17824539665595900602
14251764 38 18126003755019853401
14252887 29 16081081597758534964
14341114 328 18261956361442533817
14366163 111 13973970883233708515
14957384 54 17845646083584917592
15142526 21 17755867763790540728
15210252 30 16845302673693330408
15475509 84 18116984499454373920
15527383 91 17822287947011248066
1798214 55 17346601884895146125
1813 80 14201118990152377383
193927 3 14129061400646429535
20403669 9 13623529069735457121
20645477 70 17461124817153472910
20671657 53 12179846121720799111
21065198 48 18261672666337100179
21503847 285 18411425007610344340
21756936 100 17976264857178414148
23016692 55 12107790688219952769
23557571 272 16199593639943299599
23559900 14 17987250940781228823
3060560 45 13542469747946663660
31174 14 17385711505232212418
314173 85 14851599982150483903
341906 21 17703784847175033379
38570 142 17899999402007982996
5281201 14 12031794647478178123
5352402 22 16877656859707167323
59682541 52 12535353363871517145
7808743 9 17559670840210227440
8272917 22 18333453127472941314
9841814 1 13407080331097683268

> <PUBCHEM_SHAPE_MULTIPOLES>
340.61
11.35
1.83
1.68
15.81
0.23
0.9
-7.68
2.91
0.37
-0.74
-2.17
0.24
-0.83

> <PUBCHEM_SHAPE_SELFOVERLAP>
713.598

> <PUBCHEM_SHAPE_VOLUME>
196.4

> <PUBCHEM_COORDINATE_TYPE>
2
5
10

$$$$
