131839
  -OEChem-03292013323D

 53 56  0     1  0  0  0  0  0999 V2000
   -0.4850    0.7399   -1.7622 O   0  0  0  0  0  0  0  0  0  0  0  0
   -2.3396   -0.8792   -0.3373 O   0  0  0  0  0  0  0  0  0  0  0  0
   -0.8837    1.6404    2.8334 O   0  0  0  0  0  0  0  0  0  0  0  0
   -2.6604   -2.5379    1.3192 O   0  0  0  0  0  0  0  0  0  0  0  0
    1.8943   -0.1712   -2.6222 O   0  0  0  0  0  0  0  0  0  0  0  0
    5.5311   -0.8158    0.3473 O   0  0  0  0  0  0  0  0  0  0  0  0
    3.8710    0.0872    2.3347 O   0  0  0  0  0  0  0  0  0  0  0  0
   -2.0035    1.4659   -0.0088 C   0  0  2  0  0  0  0  0  0  0  0  0
   -2.9021    0.2748    0.2927 C   0  0  1  0  0  0  0  0  0  0  0  0
   -1.6850    1.5288   -1.5291 C   0  0  1  0  0  0  0  0  0  0  0  0
   -0.6231    1.1798    0.4935 C   0  0  0  0  0  0  0  0  0  0  0  0
   -2.6271    2.7365    0.5715 C   0  0  0  0  0  0  0  0  0  0  0  0
    0.1779    0.7459   -0.5580 C   0  0  0  0  0  0  0  0  0  0  0  0
   -4.3168    0.4977   -0.2475 C   0  0  0  0  0  0  0  0  0  0  0  0
   -1.4357    2.9201   -2.1155 C   0  0  0  0  0  0  0  0  0  0  0  0
   -0.1204    1.2462    1.7818 C   0  0  0  0  0  0  0  0  0  0  0  0
    1.4970    0.3535   -0.3631 C   0  0  0  0  0  0  0  0  0  0  0  0
   -3.0193   -2.0935    0.0136 C   0  0  1  0  0  0  0  0  0  0  0  0
   -5.1121   -0.7707   -0.2101 C   0  0  0  0  0  0  0  0  0  0  0  0
    2.0107    0.4234    0.9327 C   0  0  0  0  0  0  0  0  0  0  0  0
   -4.5241   -1.9705   -0.0695 C   0  0  0  0  0  0  0  0  0  0  0  0
    1.2065    0.8698    2.0001 C   0  0  0  0  0  0  0  0  0  0  0  0
    2.3388   -0.1145   -1.4811 C   0  0  0  0  0  0  0  0  0  0  0  0
    3.4038    0.0282    1.2028 C   0  0  0  0  0  0  0  0  0  0  0  0
   -5.3154   -3.2435   -0.0106 C   0  0  0  0  0  0  0  0  0  0  0  0
    3.7446   -0.5159   -1.1843 C   0  0  0  0  0  0  0  0  0  0  0  0
    4.2294   -0.4461    0.0642 C   0  0  0  0  0  0  0  0  0  0  0  0
    4.5471   -0.9901   -2.3634 C   0  0  0  0  0  0  0  0  0  0  0  0
    5.6010   -2.1892    0.6752 C   0  0  0  0  0  0  0  0  0  0  0  0
   -2.9399    0.1012    1.3779 H   0  0  0  0  0  0  0  0  0  0  0  0
   -2.4673    1.0699   -2.1410 H   0  0  0  0  0  0  0  0  0  0  0  0
   -3.4966    3.0674   -0.0064 H   0  0  0  0  0  0  0  0  0  0  0  0
   -2.9566    2.5947    1.6070 H   0  0  0  0  0  0  0  0  0  0  0  0
   -1.9115    3.5673    0.5801 H   0  0  0  0  0  0  0  0  0  0  0  0
   -4.3364    0.8588   -1.2796 H   0  0  0  0  0  0  0  0  0  0  0  0
   -4.8390    1.2396    0.3672 H   0  0  0  0  0  0  0  0  0  0  0  0
   -2.3369    3.5386   -2.0801 H   0  0  0  0  0  0  0  0  0  0  0  0
   -0.6277    3.4399   -1.5895 H   0  0  0  0  0  0  0  0  0  0  0  0
   -1.1196    2.8368   -3.1615 H   0  0  0  0  0  0  0  0  0  0  0  0
   -2.6717   -2.8516   -0.6955 H   0  0  0  0  0  0  0  0  0  0  0  0
   -6.1914   -0.6907   -0.2992 H   0  0  0  0  0  0  0  0  0  0  0  0
    1.6124    0.9160    3.0084 H   0  0  0  0  0  0  0  0  0  0  0  0
   -6.3917   -3.0636   -0.1033 H   0  0  0  0  0  0  0  0  0  0  0  0
   -5.1451   -3.7568    0.9410 H   0  0  0  0  0  0  0  0  0  0  0  0
   -5.0187   -3.9125   -0.8248 H   0  0  0  0  0  0  0  0  0  0  0  0
   -0.3490    1.6120    3.6453 H   0  0  0  0  0  0  0  0  0  0  0  0
   -3.2835   -2.1599    1.9624 H   0  0  0  0  0  0  0  0  0  0  0  0
    4.5433   -0.2333   -3.1553 H   0  0  0  0  0  0  0  0  0  0  0  0
    4.1194   -1.9146   -2.7652 H   0  0  0  0  0  0  0  0  0  0  0  0
    5.5948   -1.1875   -2.1180 H   0  0  0  0  0  0  0  0  0  0  0  0
    5.2685   -2.8231   -0.1541 H   0  0  0  0  0  0  0  0  0  0  0  0
    5.0161   -2.4147    1.5738 H   0  0  0  0  0  0  0  0  0  0  0  0
    6.6461   -2.4355    0.8859 H   0  0  0  0  0  0  0  0  0  0  0  0
  1 10  1  0  0  0  0
  1 13  1  0  0  0  0
  2  9  1  0  0  0  0
  2 18  1  0  0  0  0
  3 16  1  0  0  0  0
  3 46  1  0  0  0  0
  4 18  1  0  0  0  0
  4 47  1  0  0  0  0
  5 23  2  0  0  0  0
  6 27  1  0  0  0  0
  6 29  1  0  0  0  0
  7 24  2  0  0  0  0
  8  9  1  0  0  0  0
  8 10  1  0  0  0  0
  8 11  1  0  0  0  0
  8 12  1  0  0  0  0
  9 14  1  0  0  0  0
  9 30  1  0  0  0  0
 10 15  1  0  0  0  0
 10 31  1  0  0  0  0
 11 13  1  0  0  0  0
 11 16  2  0  0  0  0
 12 32  1  0  0  0  0
 12 33  1  0  0  0  0
 12 34  1  0  0  0  0
 13 17  2  0  0  0  0
 14 19  1  0  0  0  0
 14 35  1  0  0  0  0
 14 36  1  0  0  0  0
 15 37  1  0  0  0  0
 15 38  1  0  0  0  0
 15 39  1  0  0  0  0
 16 22  1  0  0  0  0
 17 20  1  0  0  0  0
 17 23  1  0  0  0  0
 18 21  1  0  0  0  0
 18 40  1  0  0  0  0
 19 21  2  0  0  0  0
 19 41  1  0  0  0  0
 20 22  2  0  0  0  0
 20 24  1  0  0  0  0
 21 25  1  0  0  0  0
 22 42  1  0  0  0  0
 23 26  1  0  0  0  0
 24 27  1  0  0  0  0
 25 43  1  0  0  0  0
 25 44  1  0  0  0  0
 25 45  1  0  0  0  0
 26 27  2  0  0  0  0
 26 28  1  0  0  0  0
 28 48  1  0  0  0  0
 28 49  1  0  0  0  0
 28 50  1  0  0  0  0
 29 51  1  0  0  0  0
 29 52  1  0  0  0  0
 29 53  1  0  0  0  0
M  END
> <PUBCHEM_COMPOUND_CID>
131839

> <PUBCHEM_CONFORMER_RMSD>
0.8

> <PUBCHEM_CONFORMER_DIVERSEORDER>
2
7
4
1
10
13
11
9
5
3
8
6
12
14

> <PUBCHEM_MMFF94_PARTIAL_CHARGES>
31
1 -0.36
10 0.28
11 -0.14
13 0.08
14 0.14
16 0.08
17 0.09
18 0.7
19 -0.29
2 -0.56
20 0.09
21 -0.28
22 -0.15
23 0.47
24 0.47
25 0.14
26 -0.12
27 0.09
28 0.14
29 0.28
3 -0.53
4 -0.68
41 0.15
42 0.15
46 0.45
47 0.4
5 -0.57
6 -0.36
7 -0.57
8 0.14
9 0.28

> <PUBCHEM_EFFECTIVE_ROTOR_COUNT>
3.4

> <PUBCHEM_PHARMACOPHORE_FEATURES>
12
1 1 acceptor
1 2 acceptor
1 3 donor
1 4 acceptor
1 4 donor
1 5 acceptor
1 6 acceptor
1 7 acceptor
5 1 8 10 11 13 rings
6 11 13 16 17 20 22 rings
6 17 20 23 24 26 27 rings
6 2 9 14 18 19 21 rings

> <PUBCHEM_HEAVY_ATOM_COUNT>
29

> <PUBCHEM_ATOM_DEF_STEREO_COUNT>
0

> <PUBCHEM_ATOM_UDEF_STEREO_COUNT>
4

> <PUBCHEM_BOND_DEF_STEREO_COUNT>
0

> <PUBCHEM_BOND_UDEF_STEREO_COUNT>
0

> <PUBCHEM_ISOTOPIC_ATOM_COUNT>
0

> <PUBCHEM_COMPONENT_COUNT>
1

> <PUBCHEM_CACTVS_TAUTO_COUNT>
15

> <PUBCHEM_CONFORMER_ID>
000202FF00000002

> <PUBCHEM_MMFF94_ENERGY>
88.8283

> <PUBCHEM_FEATURE_SELFOVERLAP>
61.07

> <PUBCHEM_SHAPE_FINGERPRINT>
10369192 42 17838880883514757528
11135926 11 14346648078010965954
11796584 16 18411698755661632807
12035759 4 17022619788533513346
12236239 1 17458065936838590260
12553582 1 17967818284056524747
12633257 1 17059498576960886207
12788726 201 17604140424976930477
12892183 10 15266800861376560683
13009979 54 18335994168128860185
13224815 77 16845567579081701320
13544653 18 17703796924501743829
13583140 156 18196627654624447156
13782708 43 18272365373646159422
14251751 18 18410290302947133458
14765038 42 14692279703846221530
14910302 57 18264482901935310126
15163728 17 8213879105772824151
16752209 62 17822834434745362045
17349148 13 16008742516207498528
1813 80 18187922954058356589
200 152 16732701631878781909
20600515 1 18190448558100484569
20626108 58 18190742123299448423
20775438 99 17317889409846226915
21033648 144 14779563291818781014
22182313 1 15912495584606647648
22393880 68 14129344026088949825
23557571 272 18341609283258747940
23559900 14 18342744030724172789
238 59 13768187407364184506
3004659 81 17531239599687979895
3027735 51 18336831896635778923
376196 1 15332665756444608384
392239 28 17346876762628491222
463206 1 17967254195504780130
5104073 3 17703785886799829906
602551 16 18410859845437613654
7471813 234 17458345243173574996
7970288 3 18187926256825819651

> <PUBCHEM_SHAPE_MULTIPOLES>
555.72
10.99
2.78
2.27
4.05
0.71
0.02
9.7
0.38
-4.06
0.06
2.04
-0.93
0.56

> <PUBCHEM_SHAPE_SELFOVERLAP>
1227.091

> <PUBCHEM_SHAPE_VOLUME>
298.8

> <PUBCHEM_COORDINATE_TYPE>
2
5
10

$$$$
