131840
  -OEChem-03292013323D

 56 58  0     1  0  0  0  0  0999 V2000
    0.3761    2.0528   -0.0568 O   0  0  0  0  0  0  0  0  0  0  0  0
   -1.7218    0.5292   -1.2572 O   0  0  0  0  0  0  0  0  0  0  0  0
   -0.6641   -2.0297    2.0263 O   0  0  0  0  0  0  0  0  0  0  0  0
    2.8266    2.2768   -1.1407 O   0  0  0  0  0  0  0  0  0  0  0  0
    5.9700   -1.2640   -0.9353 O   0  0  0  0  0  0  0  0  0  0  0  0
    4.0602   -2.6767    0.4357 O   0  0  0  0  0  0  0  0  0  0  0  0
   -6.2608   -2.0192   -2.4089 O   0  0  0  0  0  0  0  0  0  0  0  0
   -7.0381   -0.8888    0.8187 O   0  0  0  0  0  0  0  0  0  0  0  0
   -1.3602    0.7995    1.0938 C   0  0  1  0  0  0  0  0  0  0  0  0
   -0.8214    2.2176    0.7528 C   0  0  1  0  0  0  0  0  0  0  0  0
   -2.3406    0.3258    0.0058 C   0  0  1  0  0  0  0  0  0  0  0  0
   -0.0774    0.0397    0.9644 C   0  0  0  0  0  0  0  0  0  0  0  0
   -2.0218    0.6755    2.4674 C   0  0  0  0  0  0  0  0  0  0  0  0
    0.8555    0.8080    0.2752 C   0  0  0  0  0  0  0  0  0  0  0  0
   -3.6378    1.1263    0.0698 C   0  0  0  0  0  0  0  0  0  0  0  0
   -0.4486    3.1078    1.9403 C   0  0  0  0  0  0  0  0  0  0  0  0
    0.2329   -1.2458    1.3744 C   0  0  0  0  0  0  0  0  0  0  0  0
    2.1193    0.3220   -0.0386 C   0  0  0  0  0  0  0  0  0  0  0  0
    2.4392   -0.9717    0.3764 C   0  0  0  0  0  0  0  0  0  0  0  0
    1.5013   -1.7514    1.0818 C   0  0  0  0  0  0  0  0  0  0  0  0
   -4.5963    0.6893   -1.0058 C   0  0  0  0  0  0  0  0  0  0  0  0
    3.1013    1.1384   -0.7777 C   0  0  0  0  0  0  0  0  0  0  0  0
    3.7645   -1.5418    0.0789 C   0  0  0  0  0  0  0  0  0  0  0  0
    4.4367    0.5412   -1.0698 C   0  0  0  0  0  0  0  0  0  0  0  0
    4.7348   -0.7034   -0.6683 C   0  0  0  0  0  0  0  0  0  0  0  0
   -5.5327   -0.2780   -0.9435 C   0  0  0  0  0  0  0  0  0  0  0  0
    5.3906    1.4221   -1.8268 C   0  0  0  0  0  0  0  0  0  0  0  0
   -6.4544   -0.6507   -2.0755 C   0  0  0  0  0  0  0  0  0  0  0  0
   -5.7134   -1.0638    0.3337 C   0  0  0  0  0  0  0  0  0  0  0  0
    6.8805   -0.9869    0.1095 C   0  0  0  0  0  0  0  0  0  0  0  0
   -1.5190    2.7964    0.1415 H   0  0  0  0  0  0  0  0  0  0  0  0
   -2.5572   -0.7459    0.1076 H   0  0  0  0  0  0  0  0  0  0  0  0
   -2.7586    1.4649    2.6468 H   0  0  0  0  0  0  0  0  0  0  0  0
   -2.5308   -0.2874    2.5901 H   0  0  0  0  0  0  0  0  0  0  0  0
   -1.2823    0.7451    3.2745 H   0  0  0  0  0  0  0  0  0  0  0  0
   -3.4666    2.1936   -0.1070 H   0  0  0  0  0  0  0  0  0  0  0  0
   -4.1286    1.0673    1.0435 H   0  0  0  0  0  0  0  0  0  0  0  0
    0.0183    4.0335    1.5851 H   0  0  0  0  0  0  0  0  0  0  0  0
   -1.3270    3.3756    2.5340 H   0  0  0  0  0  0  0  0  0  0  0  0
    0.2856    2.6224    2.5923 H   0  0  0  0  0  0  0  0  0  0  0  0
    1.7561   -2.7609    1.3973 H   0  0  0  0  0  0  0  0  0  0  0  0
   -1.1341   -0.2260   -1.4286 H   0  0  0  0  0  0  0  0  0  0  0  0
   -4.4941    1.2264   -1.9483 H   0  0  0  0  0  0  0  0  0  0  0  0
   -0.2555   -2.8909    2.2192 H   0  0  0  0  0  0  0  0  0  0  0  0
    5.6541    2.2988   -1.2259 H   0  0  0  0  0  0  0  0  0  0  0  0
    4.9316    1.7665   -2.7599 H   0  0  0  0  0  0  0  0  0  0  0  0
    6.3202    0.9137   -2.0992 H   0  0  0  0  0  0  0  0  0  0  0  0
   -7.5010   -0.4944   -1.7966 H   0  0  0  0  0  0  0  0  0  0  0  0
   -6.2482   -0.0512   -2.9685 H   0  0  0  0  0  0  0  0  0  0  0  0
   -5.5467   -2.1316    0.1523 H   0  0  0  0  0  0  0  0  0  0  0  0
   -5.0348   -0.7850    1.1407 H   0  0  0  0  0  0  0  0  0  0  0  0
    7.8410   -1.4443   -0.1464 H   0  0  0  0  0  0  0  0  0  0  0  0
    6.5445   -1.4221    1.0572 H   0  0  0  0  0  0  0  0  0  0  0  0
    7.0446    0.0892    0.2319 H   0  0  0  0  0  0  0  0  0  0  0  0
   -6.8731   -2.2250   -3.1358 H   0  0  0  0  0  0  0  0  0  0  0  0
   -7.6270   -1.4461    0.2819 H   0  0  0  0  0  0  0  0  0  0  0  0
  1 10  1  0  0  0  0
  1 14  1  0  0  0  0
  2 11  1  0  0  0  0
  2 42  1  0  0  0  0
  3 17  1  0  0  0  0
  3 44  1  0  0  0  0
  4 22  2  0  0  0  0
  5 25  1  0  0  0  0
  5 30  1  0  0  0  0
  6 23  2  0  0  0  0
  7 28  1  0  0  0  0
  7 55  1  0  0  0  0
  8 29  1  0  0  0  0
  8 56  1  0  0  0  0
  9 10  1  0  0  0  0
  9 11  1  0  0  0  0
  9 12  1  0  0  0  0
  9 13  1  0  0  0  0
 10 16  1  0  0  0  0
 10 31  1  0  0  0  0
 11 15  1  0  0  0  0
 11 32  1  0  0  0  0
 12 14  1  0  0  0  0
 12 17  2  0  0  0  0
 13 33  1  0  0  0  0
 13 34  1  0  0  0  0
 13 35  1  0  0  0  0
 14 18  2  0  0  0  0
 15 21  1  0  0  0  0
 15 36  1  0  0  0  0
 15 37  1  0  0  0  0
 16 38  1  0  0  0  0
 16 39  1  0  0  0  0
 16 40  1  0  0  0  0
 17 20  1  0  0  0  0
 18 19  1  0  0  0  0
 18 22  1  0  0  0  0
 19 20  2  0  0  0  0
 19 23  1  0  0  0  0
 20 41  1  0  0  0  0
 21 26  2  0  0  0  0
 21 43  1  0  0  0  0
 22 24  1  0  0  0  0
 23 25  1  0  0  0  0
 24 25  2  0  0  0  0
 24 27  1  0  0  0  0
 26 28  1  0  0  0  0
 26 29  1  0  0  0  0
 27 45  1  0  0  0  0
 27 46  1  0  0  0  0
 27 47  1  0  0  0  0
 28 48  1  0  0  0  0
 28 49  1  0  0  0  0
 29 50  1  0  0  0  0
 29 51  1  0  0  0  0
 30 52  1  0  0  0  0
 30 53  1  0  0  0  0
 30 54  1  0  0  0  0
M  END
> <PUBCHEM_COMPOUND_CID>
131840

> <PUBCHEM_CONFORMER_RMSD>
0.8

> <PUBCHEM_CONFORMER_DIVERSEORDER>
24
12
53
68
5
61
44
41
7
27
3
29
17
36
26
37
22
59
66
50
4
52
43
51
23
30
13
46
69
19
42
38
25
20
63
1
18
8
39
45
33
21
6
11
9
40
2
58
10
34
15
54
55
56
47
49
28
31
16
60
32
48
64
14
65
57
67
62
35

> <PUBCHEM_MMFF94_PARTIAL_CHARGES>
34
1 -0.36
10 0.28
11 0.28
12 -0.14
14 0.08
15 0.14
17 0.08
18 0.09
19 0.09
2 -0.68
20 -0.15
21 -0.29
22 0.47
23 0.47
24 -0.12
25 0.09
26 -0.28
27 0.14
28 0.42
29 0.42
3 -0.53
30 0.28
4 -0.57
41 0.15
42 0.4
43 0.15
44 0.45
5 -0.36
55 0.4
56 0.4
6 -0.57
7 -0.68
8 -0.68
9 0.14

> <PUBCHEM_EFFECTIVE_ROTOR_COUNT>
6.6

> <PUBCHEM_PHARMACOPHORE_FEATURES>
14
1 1 acceptor
1 2 acceptor
1 2 donor
1 3 donor
1 4 acceptor
1 5 acceptor
1 6 acceptor
1 7 acceptor
1 7 donor
1 8 acceptor
1 8 donor
5 1 9 10 12 14 rings
6 12 14 17 18 19 20 rings
6 18 19 22 23 24 25 rings

> <PUBCHEM_HEAVY_ATOM_COUNT>
30

> <PUBCHEM_ATOM_DEF_STEREO_COUNT>
0

> <PUBCHEM_ATOM_UDEF_STEREO_COUNT>
3

> <PUBCHEM_BOND_DEF_STEREO_COUNT>
0

> <PUBCHEM_BOND_UDEF_STEREO_COUNT>
0

> <PUBCHEM_ISOTOPIC_ATOM_COUNT>
0

> <PUBCHEM_COMPONENT_COUNT>
1

> <PUBCHEM_CACTVS_TAUTO_COUNT>
15

> <PUBCHEM_CONFORMER_ID>
0002030000000018

> <PUBCHEM_MMFF94_ENERGY>
94.5774

> <PUBCHEM_FEATURE_SELFOVERLAP>
71.185

> <PUBCHEM_SHAPE_FINGERPRINT>
10622 236 18120922915476238915
10693767 8 18337099069339784094
11135609 12 13973967588862164146
11135609 187 18261399978742573492
11961588 58 17022901289322063321
12236239 1 18272938189223589012
12788726 201 18129664093082718225
13140716 1 18118429404330910944
13583140 156 16081387236759538088
13690498 29 18411688886749648005
14251764 30 16917345939910229655
14767858 380 18408324388666700823
15183329 4 17822007584404667381
15461852 350 18131072598597718150
15475509 84 9511197226019572094
17349148 13 18334860472877188680
1813 80 17346312709211281745
200 152 18338802221255916872
20775438 99 17910651470114115639
21521239 73 18335134310621546143
21637258 2 17346874555347233693
22393880 68 18040709221861436981
23522609 53 17986138364311649377
23559900 14 18189057649768532192
23569917 315 18261961739560409858
2838139 119 14201401581883979583
3004659 81 18410567379523515575
314194 84 18342455954841553371
335352 9 17967823730724299134
3633792 109 18186519869889583316
4015057 19 18114473322064695513
4098825 35 17968380057447857125
439807 62 18411133680548953879
484989 97 18041573545032550227
59682541 52 17894904105508795998
6058803 2 18051709750157063040
6669772 16 18055061323027234688
7970288 3 17847054489566889519

> <PUBCHEM_SHAPE_MULTIPOLES>
570.43
15.61
2.49
1.96
8.81
0.71
-0.02
-8.49
9.33
-0.67
-0.62
1.63
-0.01
-2.24

> <PUBCHEM_SHAPE_SELFOVERLAP>
1233.229

> <PUBCHEM_SHAPE_VOLUME>
313.3

> <PUBCHEM_COORDINATE_TYPE>
2
5
10

$$$$
