131848
  -OEChem-03292013323D

 53 55  0     1  0  0  0  0  0999 V2000
   -5.0439    0.4161    0.0520 S   0  0  0  0  0  0  0  0  0  0  0  0
    2.2629    2.5215    2.2665 O   0  0  0  0  0  0  0  0  0  0  0  0
    3.4608    3.1310    0.2662 O   0  0  0  0  0  0  0  0  0  0  0  0
   -2.2424   -0.0254    1.9683 O   0  0  0  0  0  0  0  0  0  0  0  0
    0.9752   -2.5173    0.6817 O   0  0  0  0  0  0  0  0  0  0  0  0
   -6.2335   -0.4350   -2.1517 O   0  0  0  0  0  0  0  0  0  0  0  0
    0.6865   -3.9012    2.4969 O   0  0  0  0  0  0  0  0  0  0  0  0
   -1.5061   -1.7446    0.5976 N   0  0  0  0  0  0  0  0  0  0  0  0
   -2.2496    0.3281   -0.4356 C   0  0  2  0  0  0  0  0  0  0  0  0
   -1.9807    1.8296   -0.1911 C   0  0  0  0  0  0  0  0  0  0  0  0
   -0.5165    2.1851   -0.1050 C   0  0  0  0  0  0  0  0  0  0  0  0
   -3.6365    0.0133   -1.0320 C   0  0  0  0  0  0  0  0  0  0  0  0
   -2.0071   -0.4756    0.8488 C   0  0  0  0  0  0  0  0  0  0  0  0
    0.1323    2.1578    1.1318 C   0  0  0  0  0  0  0  0  0  0  0  0
    0.1824    2.5410   -1.2720 C   0  0  0  0  0  0  0  0  0  0  0  0
    1.4709    2.4908    1.1601 C   0  0  0  0  0  0  0  0  0  0  0  0
    2.1550    2.8390    0.0179 C   0  0  0  0  0  0  0  0  0  0  0  0
    1.5379    2.8735   -1.2156 C   0  0  0  0  0  0  0  0  0  0  0  0
   -1.2024   -2.6887    1.6479 C   0  0  0  0  0  0  0  0  0  0  0  0
    3.5223    2.9273    1.6925 C   0  0  0  0  0  0  0  0  0  0  0  0
   -6.3804   -0.0031   -1.0148 C   0  0  0  0  0  0  0  0  0  0  0  0
    0.2480   -3.1105    1.6680 C   0  0  0  0  0  0  0  0  0  0  0  0
    2.3626   -2.8670    0.6360 C   0  0  0  0  0  0  0  0  0  0  0  0
   -7.7288    0.2237   -0.3922 C   0  0  0  0  0  0  0  0  0  0  0  0
    3.0154   -2.1334   -0.4987 C   0  0  0  0  0  0  0  0  0  0  0  0
    3.0623   -2.7113   -1.7675 C   0  0  0  0  0  0  0  0  0  0  0  0
    3.5748   -0.8736   -0.2850 C   0  0  0  0  0  0  0  0  0  0  0  0
    3.6689   -2.0295   -2.8224 C   0  0  0  0  0  0  0  0  0  0  0  0
    4.1813   -0.1918   -1.3401 C   0  0  0  0  0  0  0  0  0  0  0  0
    4.2283   -0.7698   -2.6087 C   0  0  0  0  0  0  0  0  0  0  0  0
   -1.5159   -0.0147   -1.1801 H   0  0  0  0  0  0  0  0  0  0  0  0
   -2.4225    2.4125   -1.0107 H   0  0  0  0  0  0  0  0  0  0  0  0
   -2.4895    2.1831    0.7151 H   0  0  0  0  0  0  0  0  0  0  0  0
   -3.6943   -1.0562   -1.2647 H   0  0  0  0  0  0  0  0  0  0  0  0
   -3.7515    0.5630   -1.9729 H   0  0  0  0  0  0  0  0  0  0  0  0
   -0.3893    1.8961    2.0453 H   0  0  0  0  0  0  0  0  0  0  0  0
   -0.3264    2.5577   -2.2328 H   0  0  0  0  0  0  0  0  0  0  0  0
    2.0808    3.1469   -2.1132 H   0  0  0  0  0  0  0  0  0  0  0  0
   -1.3481   -2.0392   -0.3615 H   0  0  0  0  0  0  0  0  0  0  0  0
   -1.8132   -3.5767    1.4601 H   0  0  0  0  0  0  0  0  0  0  0  0
   -1.4537   -2.2645    2.6240 H   0  0  0  0  0  0  0  0  0  0  0  0
    4.2696    2.1540    1.9042 H   0  0  0  0  0  0  0  0  0  0  0  0
    3.8395    3.8628    2.1674 H   0  0  0  0  0  0  0  0  0  0  0  0
    2.4673   -3.9502    0.4964 H   0  0  0  0  0  0  0  0  0  0  0  0
    2.8433   -2.5997    1.5853 H   0  0  0  0  0  0  0  0  0  0  0  0
   -7.8429   -0.3947    0.5025 H   0  0  0  0  0  0  0  0  0  0  0  0
   -8.5078   -0.0589   -1.1068 H   0  0  0  0  0  0  0  0  0  0  0  0
   -7.8586    1.2804   -0.1423 H   0  0  0  0  0  0  0  0  0  0  0  0
    2.6279   -3.6911   -1.9469 H   0  0  0  0  0  0  0  0  0  0  0  0
    3.5427   -0.4121    0.6984 H   0  0  0  0  0  0  0  0  0  0  0  0
    3.7050   -2.4791   -3.8103 H   0  0  0  0  0  0  0  0  0  0  0  0
    4.6190    0.7880   -1.1742 H   0  0  0  0  0  0  0  0  0  0  0  0
    4.7007   -0.2388   -3.4300 H   0  0  0  0  0  0  0  0  0  0  0  0
  1 12  1  0  0  0  0
  1 21  1  0  0  0  0
  2 16  1  0  0  0  0
  2 20  1  0  0  0  0
  3 17  1  0  0  0  0
  3 20  1  0  0  0  0
  4 13  2  0  0  0  0
  5 22  1  0  0  0  0
  5 23  1  0  0  0  0
  6 21  2  0  0  0  0
  7 22  2  0  0  0  0
  8 13  1  0  0  0  0
  8 19  1  0  0  0  0
  8 39  1  0  0  0  0
  9 10  1  0  0  0  0
  9 12  1  0  0  0  0
  9 13  1  0  0  0  0
  9 31  1  0  0  0  0
 10 11  1  0  0  0  0
 10 32  1  0  0  0  0
 10 33  1  0  0  0  0
 11 14  2  0  0  0  0
 11 15  1  0  0  0  0
 12 34  1  0  0  0  0
 12 35  1  0  0  0  0
 14 16  1  0  0  0  0
 14 36  1  0  0  0  0
 15 18  2  0  0  0  0
 15 37  1  0  0  0  0
 16 17  2  0  0  0  0
 17 18  1  0  0  0  0
 18 38  1  0  0  0  0
 19 22  1  0  0  0  0
 19 40  1  0  0  0  0
 19 41  1  0  0  0  0
 20 42  1  0  0  0  0
 20 43  1  0  0  0  0
 21 24  1  0  0  0  0
 23 25  1  0  0  0  0
 23 44  1  0  0  0  0
 23 45  1  0  0  0  0
 24 46  1  0  0  0  0
 24 47  1  0  0  0  0
 24 48  1  0  0  0  0
 25 26  2  0  0  0  0
 25 27  1  0  0  0  0
 26 28  1  0  0  0  0
 26 49  1  0  0  0  0
 27 29  2  0  0  0  0
 27 50  1  0  0  0  0
 28 30  2  0  0  0  0
 28 51  1  0  0  0  0
 29 30  1  0  0  0  0
 29 52  1  0  0  0  0
 30 53  1  0  0  0  0
M  END
> <PUBCHEM_COMPOUND_CID>
131848

> <PUBCHEM_CONFORMER_RMSD>
1.2

> <PUBCHEM_CONFORMER_DIVERSEORDER>
1
35
201
143
211
11
34
45
148
220
27
53
224
202
105
134
179
207
185
71
41
61
15
95
14
166
196
93
228
140
200
213
210
138
197
219
127
217
167
100
222
49
16
160
221
208
225
214
48
70
161
215
80
150
110
79
31
152
212
38
109
30
43
157
74
69
156
57
89
129
92
174
28
135
216
84
85
151
5
123
155
176
68
165
124
60
136
19
97
108
75
181
46
112
198
121
178
132
188
163
126
149
190
128
20
78
102
88
199
101
158
118
125
183
44
145
62
164
168
144
9
172
23
77
59
206
10
55
58
120
223
103
226
67
36
21
116
184
189
42
56
218
25
191
175
17
96
141
114
8
66
98
117
6
147
63
40
171
194
73
182
91
113
50
180
87
81
3
107
33
187
193
111
195
65
22
32
153
76
115
104
177
72
24
139
169
192
18
99
13
12
51
130
137
162
64
52
90
159
47
209
54
86
2
26
204
39
131
133
29
173
119
83
146
122
227
4
106
142
205
154
7
37
203
94
82
170
186

> <PUBCHEM_MMFF94_PARTIAL_CHARGES>
39
1 -0.37
10 0.14
11 -0.14
12 0.23
13 0.57
14 -0.15
15 -0.15
16 0.08
17 0.08
18 -0.15
19 0.36
2 -0.36
20 0.56
21 0.65
22 0.66
23 0.42
24 0.06
25 -0.14
26 -0.15
27 -0.15
28 -0.15
29 -0.15
3 -0.36
30 -0.15
36 0.15
37 0.15
38 0.15
39 0.37
4 -0.57
49 0.15
5 -0.43
50 0.15
51 0.15
52 0.15
53 0.15
6 -0.57
7 -0.57
8 -0.73
9 0.06

> <PUBCHEM_EFFECTIVE_ROTOR_COUNT>
12.6

> <PUBCHEM_PHARMACOPHORE_FEATURES>
9
1 2 acceptor
1 3 acceptor
1 4 acceptor
1 7 acceptor
1 8 donor
4 1 9 10 12 hydrophobe
5 2 3 16 17 20 rings
6 11 14 15 16 17 18 rings
6 25 26 27 28 29 30 rings

> <PUBCHEM_HEAVY_ATOM_COUNT>
30

> <PUBCHEM_ATOM_DEF_STEREO_COUNT>
1

> <PUBCHEM_ATOM_UDEF_STEREO_COUNT>
0

> <PUBCHEM_BOND_DEF_STEREO_COUNT>
0

> <PUBCHEM_BOND_UDEF_STEREO_COUNT>
0

> <PUBCHEM_ISOTOPIC_ATOM_COUNT>
0

> <PUBCHEM_COMPONENT_COUNT>
1

> <PUBCHEM_CACTVS_TAUTO_COUNT>
2

> <PUBCHEM_CONFORMER_ID>
0002030800000001

> <PUBCHEM_MMFF94_ENERGY>
63.9534

> <PUBCHEM_FEATURE_SELFOVERLAP>
45.827

> <PUBCHEM_SHAPE_FINGERPRINT>
12156800 1 13488082169350739538
12166972 35 17387966470084166450
12597179 24 18266732678618932321
12788726 201 17476092224213433216
13122387 1 18264227854224719986
13402501 40 18410016576365276640
13533116 47 17989489640965740221
1361 2 18131633378611837263
13617811 41 17821729438439581757
14931854 50 18262816051018986302
14932702 115 17902553503088911812
15322687 12 18040444307856509894
15328829 1 17988092080762499377
17093844 170 18335419136047573096
17492 54 18041858241545468566
19026451 147 18340481150063869974
19311894 1 16826735985803966110
19319366 153 17968373447135129203
20642791 35 18410852149468259251
20764821 26 18115867567290870102
20775438 99 18198885080666748263
23559900 14 18336271253010886053
238918 7 17910960467805111682
27425 322 16082788151616847228
35225 105 16834877341010007684
437795 51 18261685830944755331
508706 21 17900266599895800314
513532 50 18342450469545642253
6669772 16 18335691797677130079
70251023 43 18130793304572863117
86090 222 18333732446571209379

> <PUBCHEM_SHAPE_MULTIPOLES>
581.04
11.67
4.94
2.45
24.78
0.04
0.19
-1.82
7.86
-6.12
-2.42
-1.8
-1.27
2.14

> <PUBCHEM_SHAPE_SELFOVERLAP>
1212.869

> <PUBCHEM_SHAPE_VOLUME>
331.4

> <PUBCHEM_COORDINATE_TYPE>
2
5
10

$$$$
