131866044
  -OEChem-03292013293D

 28 29  0     1  0  0  0  0  0999 V2000
    3.5799    1.2640    0.6090 O   0  0  0  0  0  0  0  0  0  0  0  0
    4.5278   -0.5022   -0.4524 O   0  0  0  0  0  0  0  0  0  0  0  0
   -1.9114   -2.2827    0.2913 N   0  0  0  0  0  0  0  0  0  0  0  0
    2.1931   -1.4889   -1.2801 N   0  0  0  0  0  0  0  0  0  0  0  0
    0.6334    2.8108    0.2668 N   0  0  0  0  0  0  0  0  0  0  0  0
   -0.1267   -0.9887    0.5521 C   0  0  0  0  0  0  0  0  0  0  0  0
    1.2625   -0.5659    0.8261 C   0  0  0  0  0  0  0  0  0  0  0  0
   -1.2273   -0.1614    0.1923 C   0  0  0  0  0  0  0  0  0  0  0  0
    2.1012   -0.2913   -0.4480 C   0  0  1  0  0  0  0  0  0  0  0  0
   -2.3344   -0.9979    0.0346 C   0  0  0  0  0  0  0  0  0  0  0  0
   -0.5786   -2.2871    0.6049 C   0  0  0  0  0  0  0  0  0  0  0  0
   -1.3884    1.2229   -0.0150 C   0  0  0  0  0  0  0  0  0  0  0  0
   -3.5996   -0.5174   -0.3215 C   0  0  0  0  0  0  0  0  0  0  0  0
   -2.6482    1.7179   -0.3717 C   0  0  0  0  0  0  0  0  0  0  0  0
    3.5258    0.1106   -0.1067 C   0  0  0  0  0  0  0  0  0  0  0  0
   -3.7353    0.8592   -0.5221 C   0  0  0  0  0  0  0  0  0  0  0  0
   -0.2739    2.0984    0.1404 C   0  0  0  0  0  0  0  0  0  0  0  0
    1.2681    0.3104    1.4844 H   0  0  0  0  0  0  0  0  0  0  0  0
    1.7685   -1.3445    1.4162 H   0  0  0  0  0  0  0  0  0  0  0  0
    1.6649    0.5049   -1.0582 H   0  0  0  0  0  0  0  0  0  0  0  0
   -0.0739   -3.2149    0.8364 H   0  0  0  0  0  0  0  0  0  0  0  0
   -2.5001   -3.1033    0.2532 H   0  0  0  0  0  0  0  0  0  0  0  0
   -4.4465   -1.1851   -0.4388 H   0  0  0  0  0  0  0  0  0  0  0  0
   -2.7933    2.7836   -0.5363 H   0  0  0  0  0  0  0  0  0  0  0  0
   -4.7048    1.2649   -0.7997 H   0  0  0  0  0  0  0  0  0  0  0  0
    2.7223   -1.2787   -2.1261 H   0  0  0  0  0  0  0  0  0  0  0  0
    1.2648   -1.7650   -1.5967 H   0  0  0  0  0  0  0  0  0  0  0  0
    4.5033    1.5248    0.8130 H   0  0  0  0  0  0  0  0  0  0  0  0
  1 15  1  0  0  0  0
  1 28  1  0  0  0  0
  2 15  2  0  0  0  0
  3 10  1  0  0  0  0
  3 11  1  0  0  0  0
  3 22  1  0  0  0  0
  4  9  1  0  0  0  0
  4 26  1  0  0  0  0
  4 27  1  0  0  0  0
  5 17  3  0  0  0  0
  6  7  1  0  0  0  0
  6  8  1  0  0  0  0
  6 11  2  0  0  0  0
  7  9  1  0  0  0  0
  7 18  1  0  0  0  0
  7 19  1  0  0  0  0
  8 10  1  0  0  0  0
  8 12  2  0  0  0  0
  9 15  1  0  0  0  0
  9 20  1  0  0  0  0
 10 13  2  0  0  0  0
 11 21  1  0  0  0  0
 12 14  1  0  0  0  0
 12 17  1  0  0  0  0
 13 16  1  0  0  0  0
 13 23  1  0  0  0  0
 14 16  2  0  0  0  0
 14 24  1  0  0  0  0
 16 25  1  0  0  0  0
M  END
> <PUBCHEM_COMPOUND_CID>
131866044

> <PUBCHEM_CONFORMER_RMSD>
0.6

> <PUBCHEM_CONFORMER_DIVERSEORDER>
1
6
8
11
3
10
4
13
9
7
12
2
5

> <PUBCHEM_MMFF94_PARTIAL_CHARGES>
24
1 -0.65
10 -0.15
11 -0.3
12 0.07
13 -0.15
14 -0.15
15 0.66
16 -0.15
17 0.48
2 -0.57
21 0.15
22 0.27
23 0.15
24 0.15
25 0.15
26 0.36
27 0.36
28 0.5
3 0.03
4 -0.99
5 -0.56
6 -0.18
7 0.18
9 0.33

> <PUBCHEM_EFFECTIVE_ROTOR_COUNT>
3

> <PUBCHEM_PHARMACOPHORE_FEATURES>
10
1 1 acceptor
1 2 acceptor
1 3 cation
1 3 donor
1 4 cation
1 4 donor
1 5 acceptor
3 1 2 15 anion
5 3 6 8 10 11 rings
6 8 10 12 13 14 16 rings

> <PUBCHEM_HEAVY_ATOM_COUNT>
17

> <PUBCHEM_ATOM_DEF_STEREO_COUNT>
1

> <PUBCHEM_ATOM_UDEF_STEREO_COUNT>
0

> <PUBCHEM_BOND_DEF_STEREO_COUNT>
0

> <PUBCHEM_BOND_UDEF_STEREO_COUNT>
0

> <PUBCHEM_ISOTOPIC_ATOM_COUNT>
0

> <PUBCHEM_COMPONENT_COUNT>
1

> <PUBCHEM_CACTVS_TAUTO_COUNT>
11

> <PUBCHEM_CONFORMER_ID>
07DC1DBC00000001

> <PUBCHEM_MMFF94_ENERGY>
25.2513

> <PUBCHEM_FEATURE_SELFOVERLAP>
50.895

> <PUBCHEM_SHAPE_FINGERPRINT>
10498660 4 18263919952061172565
10608611 8 18412261770244986608
10967382 1 18409163273320954099
11132069 177 18410285943423238480
11578080 2 13469546748005679042
11680986 33 18048314737180187025
13140716 1 18119818155967451123
13544592 271 18341327889796167130
14115302 16 18113905991149160588
14251745 187 18341602780577788592
14614273 12 17969778588550207773
14790565 3 18266750090965794993
14911166 2 18409158918577524447
15196674 1 18410009965814814440
15775835 57 17822291236676504958
16945 1 18336815447311260067
18186145 218 18264490593994741149
193761 8 17976257160221985857
200 152 16988843852375034486
20201158 50 18272091595408539854
20510252 161 18341051822289017721
20645476 183 17603588525678813307
21029758 11 18342170090160430769
21249577 43 18410853291196343520
21501502 16 18120941873672249789
22802520 49 18128550262050074206
2334 1 18264763269000174115
23402539 116 18340759373734058806
23557571 272 18341060699970678542
23559900 14 18412260624042535026
2748010 2 18410293575616819299
353137 74 18265333898075649649
4028521 119 18408884001483137860
7364860 26 18127125509876774753
81228 2 18267884808081118264
8809292 202 18409732876300029672
9709674 26 18340768259889434356

> <PUBCHEM_SHAPE_MULTIPOLES>
323.17
6.44
2.53
0.84
4.03
0.51
-0.07
0.51
-1.36
-0.71
0.31
0.27
-0.16
0.6

> <PUBCHEM_SHAPE_SELFOVERLAP>
699.86

> <PUBCHEM_SHAPE_VOLUME>
175.5

> <PUBCHEM_COORDINATE_TYPE>
2
5
10

$$$$
