131826
  -OEChem-03292013323D

 55 56  0     1  0  0  0  0  0999 V2000
   -4.0136    1.7463    0.4869 O   0  0  0  0  0  0  0  0  0  0  0  0
   -0.3791   -1.1745    1.1475 O   0  0  0  0  0  0  0  0  0  0  0  0
   -1.7716   -2.3572    2.4796 O   0  0  0  0  0  0  0  0  0  0  0  0
    3.6072    2.1348   -1.5097 O   0  0  0  0  0  0  0  0  0  0  0  0
    3.9635   -2.2317    0.3330 O   0  0  0  0  0  0  0  0  0  0  0  0
   -2.3170    0.2374    0.0137 N   0  0  0  0  0  0  0  0  0  0  0  0
   -3.3913    3.1625   -1.7546 N   0  0  0  0  0  0  0  0  0  0  0  0
   -3.7925   -1.7266    0.2865 C   0  0  0  0  0  0  0  0  0  0  0  0
   -3.4715   -2.3075   -1.1095 C   0  0  0  0  0  0  0  0  0  0  0  0
   -2.7574   -0.7876    0.9240 C   0  0  1  0  0  0  0  0  0  0  0  0
   -2.3248    2.3777   -1.1317 C   0  0  1  0  0  0  0  0  0  0  0  0
   -2.1760   -3.1240   -1.0309 C   0  0  0  0  0  0  0  0  0  0  0  0
   -4.5855   -3.1776   -1.6870 C   0  0  0  0  0  0  0  0  0  0  0  0
   -1.3339    3.3124   -0.4227 C   0  0  0  0  0  0  0  0  0  0  0  0
   -2.9949    1.4411   -0.1311 C   0  0  0  0  0  0  0  0  0  0  0  0
   -1.6094   -1.5331    1.5860 C   0  0  0  0  0  0  0  0  0  0  0  0
   -0.1953    2.5689    0.2354 C   0  0  0  0  0  0  0  0  0  0  0  0
    0.9758    2.3131   -0.4777 C   0  0  0  0  0  0  0  0  0  0  0  0
   -0.3152    2.1391    1.5569 C   0  0  0  0  0  0  0  0  0  0  0  0
    2.0270    1.6273    0.1307 C   0  0  0  0  0  0  0  0  0  0  0  0
    0.7361    1.4535    2.1655 C   0  0  0  0  0  0  0  0  0  0  0  0
    1.9072    1.1975    1.4524 C   0  0  0  0  0  0  0  0  0  0  0  0
    3.2483    1.3596   -0.6120 C   0  0  0  0  0  0  0  0  0  0  0  0
    4.0610    0.1279   -0.2927 C   0  0  0  0  0  0  0  0  0  0  0  0
    3.5124   -1.1895   -0.4131 C   0  0  0  0  0  0  0  0  0  0  0  0
    5.3458    0.3013    0.0558 C   0  0  0  0  0  0  0  0  0  0  0  0
    2.4990   -1.5968   -1.2492 C   0  0  0  0  0  0  0  0  0  0  0  0
    2.3157   -2.9781   -1.0011 C   0  0  0  0  0  0  0  0  0  0  0  0
    3.2301   -3.3164   -0.0308 C   0  0  0  0  0  0  0  0  0  0  0  0
   -4.0111   -2.5525    0.9763 H   0  0  0  0  0  0  0  0  0  0  0  0
   -4.7325   -1.1657    0.1888 H   0  0  0  0  0  0  0  0  0  0  0  0
   -3.3127   -1.4798   -1.8119 H   0  0  0  0  0  0  0  0  0  0  0  0
   -3.2519   -0.2724    1.7592 H   0  0  0  0  0  0  0  0  0  0  0  0
   -1.8158    1.7922   -1.9066 H   0  0  0  0  0  0  0  0  0  0  0  0
   -1.4881    0.0584   -0.5457 H   0  0  0  0  0  0  0  0  0  0  0  0
   -2.2071   -3.8574   -0.2183 H   0  0  0  0  0  0  0  0  0  0  0  0
   -2.0106   -3.6731   -1.9651 H   0  0  0  0  0  0  0  0  0  0  0  0
   -1.3028   -2.4811   -0.8997 H   0  0  0  0  0  0  0  0  0  0  0  0
   -4.7764   -4.0489   -1.0514 H   0  0  0  0  0  0  0  0  0  0  0  0
   -5.5167   -2.6070   -1.7659 H   0  0  0  0  0  0  0  0  0  0  0  0
   -4.3265   -3.5362   -2.6888 H   0  0  0  0  0  0  0  0  0  0  0  0
   -1.8499    3.9120    0.3403 H   0  0  0  0  0  0  0  0  0  0  0  0
   -0.9211    4.0370   -1.1375 H   0  0  0  0  0  0  0  0  0  0  0  0
   -2.9874    3.8153   -2.4254 H   0  0  0  0  0  0  0  0  0  0  0  0
   -4.0002    2.5455   -2.2914 H   0  0  0  0  0  0  0  0  0  0  0  0
    1.0585    2.6448   -1.5101 H   0  0  0  0  0  0  0  0  0  0  0  0
   -1.2186    2.3369    2.1277 H   0  0  0  0  0  0  0  0  0  0  0  0
    0.6438    1.1225    3.1958 H   0  0  0  0  0  0  0  0  0  0  0  0
    2.7121    0.6753    1.9618 H   0  0  0  0  0  0  0  0  0  0  0  0
    0.3337   -1.6632    1.6116 H   0  0  0  0  0  0  0  0  0  0  0  0
    5.7795    1.2939    0.1324 H   0  0  0  0  0  0  0  0  0  0  0  0
    6.0033   -0.5343    0.2750 H   0  0  0  0  0  0  0  0  0  0  0  0
    1.9522   -0.9868   -1.9550 H   0  0  0  0  0  0  0  0  0  0  0  0
    1.6050   -3.6432   -1.4697 H   0  0  0  0  0  0  0  0  0  0  0  0
    3.4717   -4.2366    0.4806 H   0  0  0  0  0  0  0  0  0  0  0  0
  1 15  2  0  0  0  0
  2 16  1  0  0  0  0
  2 50  1  0  0  0  0
  3 16  2  0  0  0  0
  4 23  2  0  0  0  0
  5 25  1  0  0  0  0
  5 29  1  0  0  0  0
  6 10  1  0  0  0  0
  6 15  1  0  0  0  0
  6 35  1  0  0  0  0
  7 11  1  0  0  0  0
  7 44  1  0  0  0  0
  7 45  1  0  0  0  0
  8  9  1  0  0  0  0
  8 10  1  0  0  0  0
  8 30  1  0  0  0  0
  8 31  1  0  0  0  0
  9 12  1  0  0  0  0
  9 13  1  0  0  0  0
  9 32  1  0  0  0  0
 10 16  1  0  0  0  0
 10 33  1  0  0  0  0
 11 14  1  0  0  0  0
 11 15  1  0  0  0  0
 11 34  1  0  0  0  0
 12 36  1  0  0  0  0
 12 37  1  0  0  0  0
 12 38  1  0  0  0  0
 13 39  1  0  0  0  0
 13 40  1  0  0  0  0
 13 41  1  0  0  0  0
 14 17  1  0  0  0  0
 14 42  1  0  0  0  0
 14 43  1  0  0  0  0
 17 18  2  0  0  0  0
 17 19  1  0  0  0  0
 18 20  1  0  0  0  0
 18 46  1  0  0  0  0
 19 21  2  0  0  0  0
 19 47  1  0  0  0  0
 20 22  2  0  0  0  0
 20 23  1  0  0  0  0
 21 22  1  0  0  0  0
 21 48  1  0  0  0  0
 22 49  1  0  0  0  0
 23 24  1  0  0  0  0
 24 25  1  0  0  0  0
 24 26  2  0  0  0  0
 25 27  2  0  0  0  0
 26 51  1  0  0  0  0
 26 52  1  0  0  0  0
 27 28  1  0  0  0  0
 27 53  1  0  0  0  0
 28 29  2  0  0  0  0
 28 54  1  0  0  0  0
 29 55  1  0  0  0  0
M  END
> <PUBCHEM_COMPOUND_CID>
131826

> <PUBCHEM_CONFORMER_RMSD>
1

> <PUBCHEM_CONFORMER_DIVERSEORDER>
4
155
91
125
226
56
90
26
65
192
13
88
62
151
159
142
83
163
39
94
187
51
28
227
213
99
186
78
21
96
129
120
33
44
189
68
194
47
145
67
178
150
84
36
171
229
195
157
148
80
175
190
103
46
124
76
49
169
144
172
119
215
113
168
86
87
180
82
134
126
63
32
38
200
104
3
122
185
108
193
164
98
127
196
58
179
111
57
182
12
161
153
118
50
52
198
214
121
70
69
31
216
60
66
75
135
23
109
177
191
81
89
85
156
149
7
154
132
18
221
208
136
101
199
201
146
116
141
197
217
143
54
210
219
17
128
123
170
225
114
37
10
106
77
205
130
95
152
162
30
102
222
212
224
110
35
181
139
223
92
204
2
41
45
16
137
93
160
14
131
29
48
73
100
1
105
25
61
34
140
115
71
147
165
173
133
79
138
43
228
183
158
167
11
59
64
218
209
97
207
117
24
19
112
202
22
211
53
40
74
20
55
166
188
203
27
42
15
176
206
174
220
107
184
5
6
8
72
9

> <PUBCHEM_MMFF94_PARTIAL_CHARGES>
38
1 -0.57
10 0.36
11 0.33
14 0.14
15 0.57
16 0.66
17 -0.14
18 -0.15
19 -0.15
2 -0.65
20 0.09
21 -0.15
22 -0.15
23 0.47
24 0.06
25 0.09
26 -0.3
27 -0.15
28 -0.15
29 -0.01
3 -0.57
35 0.37
4 -0.57
44 0.36
45 0.36
46 0.15
47 0.15
48 0.15
49 0.15
5 -0.28
50 0.5
51 0.15
52 0.15
53 0.15
54 0.15
55 0.15
6 -0.73
7 -0.99

> <PUBCHEM_EFFECTIVE_ROTOR_COUNT>
11

> <PUBCHEM_PHARMACOPHORE_FEATURES>
13
1 1 acceptor
1 2 acceptor
1 26 hydrophobe
1 3 acceptor
1 4 acceptor
1 5 acceptor
1 6 donor
1 7 cation
1 7 donor
3 2 3 16 anion
3 9 12 13 hydrophobe
5 5 25 27 28 29 rings
6 17 18 19 20 21 22 rings

> <PUBCHEM_HEAVY_ATOM_COUNT>
29

> <PUBCHEM_ATOM_DEF_STEREO_COUNT>
2

> <PUBCHEM_ATOM_UDEF_STEREO_COUNT>
0

> <PUBCHEM_BOND_DEF_STEREO_COUNT>
0

> <PUBCHEM_BOND_UDEF_STEREO_COUNT>
0

> <PUBCHEM_ISOTOPIC_ATOM_COUNT>
0

> <PUBCHEM_COMPONENT_COUNT>
1

> <PUBCHEM_CACTVS_TAUTO_COUNT>
2

> <PUBCHEM_CONFORMER_ID>
000202F200000004

> <PUBCHEM_MMFF94_ENERGY>
64.1829

> <PUBCHEM_FEATURE_SELFOVERLAP>
66.032

> <PUBCHEM_SHAPE_FINGERPRINT>
10764073 3 17543396724210955521
11578080 2 17703214213229974584
12422481 6 17833590858052494273
12553582 1 17898848213185494745
13122387 1 17907023872011064774
13383661 66 17630352902553114750
13631057 29 18343585170521196876
14251751 93 18041559135654557341
14251757 17 18191309269034952168
19315092 285 17129296747797571915
19930381 70 17906448088938209679
20764821 26 18410855438711679263
20775438 99 17622391274616144975
20775530 9 18341617035495213343
21304303 94 18122323702227730245
23559900 14 18339358536281600224
238 59 17906733953139316826
27425 322 16951144866839207444
463206 1 18127414676923725539
5309563 4 18049171265112530867
66674814 147 16975578514968774047
9709674 26 18334586719871815850

> <PUBCHEM_SHAPE_MULTIPOLES>
557.5
8.91
5.02
1.78
2.09
1.04
-0.64
4.4
2.75
-2.35
1.54
-0.9
0.02
0.16

> <PUBCHEM_SHAPE_SELFOVERLAP>
1169.501

> <PUBCHEM_SHAPE_VOLUME>
313.9

> <PUBCHEM_COORDINATE_TYPE>
2
5
10

$$$$
