131866
  -OEChem-03292013323D

 58 61  0     1  0  0  0  0  0999 V2000
    1.5603   -2.3165   -1.1875 O   0  0  0  0  0  0  0  0  0  0  0  0
    2.6261    2.3549    0.7980 O   0  0  0  0  0  0  0  0  0  0  0  0
   -1.2080   -0.7170    0.0818 O   0  0  0  0  0  0  0  0  0  0  0  0
   -0.5041   -0.8489   -2.6912 O   0  0  0  0  0  0  0  0  0  0  0  0
   -2.1027   -1.2333    2.1286 O   0  0  0  0  0  0  0  0  0  0  0  0
   -4.1941   -2.2348   -0.3368 O   0  0  0  0  0  0  0  0  0  0  0  0
   -6.9445    1.6200   -0.8511 O   0  0  0  0  0  0  0  0  0  0  0  0
    2.1201   -0.9621    0.8603 C   0  0  2  0  0  0  0  0  0  0  0  0
    3.2664    0.0369    0.8382 C   0  0  2  0  0  0  0  0  0  0  0  0
    1.2681   -1.1265   -0.4286 C   0  0  2  0  0  0  0  0  0  0  0  0
    3.0166    1.2737   -0.0515 C   0  0  2  0  0  0  0  0  0  0  0  0
    0.8163   -0.5560    1.5990 C   0  0  0  0  0  0  0  0  0  0  0  0
    0.0420   -1.3194    0.5064 C   0  0  1  0  0  0  0  0  0  0  0  0
    4.5301   -0.5974    0.2538 C   0  0  0  0  0  0  0  0  0  0  0  0
    5.4090    0.6038   -0.1145 C   0  0  0  0  0  0  0  0  0  0  0  0
    4.3902    1.6046   -0.6968 C   0  0  0  0  0  0  0  0  0  0  0  0
    1.1905    0.0558   -1.3192 C   0  0  0  0  0  0  0  0  0  0  0  0
    2.5033   -2.3760    1.3891 C   0  0  0  0  0  0  0  0  0  0  0  0
    1.9693    1.1286   -1.1294 C   0  0  0  0  0  0  0  0  0  0  0  0
    6.4725    0.2135   -1.1453 C   0  0  0  0  0  0  0  0  0  0  0  0
    6.1085    1.1957    1.1211 C   0  0  0  0  0  0  0  0  0  0  0  0
    0.2461    0.0845   -2.4398 C   0  0  0  0  0  0  0  0  0  0  0  0
   -2.2098   -0.7448    1.0085 C   0  0  0  0  0  0  0  0  0  0  0  0
   -3.4453   -0.1231    0.5244 C   0  0  0  0  0  0  0  0  0  0  0  0
   -3.6644    1.2367    0.7235 C   0  0  0  0  0  0  0  0  0  0  0  0
   -4.3928   -0.9016   -0.1333 C   0  0  0  0  0  0  0  0  0  0  0  0
   -4.8420    1.8234    0.2605 C   0  0  0  0  0  0  0  0  0  0  0  0
   -5.5705   -0.3150   -0.5962 C   0  0  0  0  0  0  0  0  0  0  0  0
   -2.6620    2.0928    1.4273 C   0  0  0  0  0  0  0  0  0  0  0  0
   -5.7951    1.0476   -0.3994 C   0  0  0  0  0  0  0  0  0  0  0  0
    3.4718    0.3478    1.8714 H   0  0  0  0  0  0  0  0  0  0  0  0
    0.5949    0.5154    1.6255 H   0  0  0  0  0  0  0  0  0  0  0  0
    0.6990   -0.9413    2.6172 H   0  0  0  0  0  0  0  0  0  0  0  0
   -0.1420   -2.3766    0.7403 H   0  0  0  0  0  0  0  0  0  0  0  0
    5.0275   -1.2622    0.9687 H   0  0  0  0  0  0  0  0  0  0  0  0
    4.2969   -1.1881   -0.6408 H   0  0  0  0  0  0  0  0  0  0  0  0
    4.3430    1.4810   -1.7870 H   0  0  0  0  0  0  0  0  0  0  0  0
    4.6924    2.6419   -0.5084 H   0  0  0  0  0  0  0  0  0  0  0  0
    2.9802   -2.2814    2.3722 H   0  0  0  0  0  0  0  0  0  0  0  0
    1.6605   -3.0615    1.5165 H   0  0  0  0  0  0  0  0  0  0  0  0
    3.2199   -2.8728    0.7265 H   0  0  0  0  0  0  0  0  0  0  0  0
    1.8661    1.9866   -1.7925 H   0  0  0  0  0  0  0  0  0  0  0  0
    6.0196   -0.2195   -2.0442 H   0  0  0  0  0  0  0  0  0  0  0  0
    7.0574    1.0859   -1.4571 H   0  0  0  0  0  0  0  0  0  0  0  0
    7.1650   -0.5290   -0.7337 H   0  0  0  0  0  0  0  0  0  0  0  0
    6.7377    2.0484    0.8413 H   0  0  0  0  0  0  0  0  0  0  0  0
    5.3970    1.5533    1.8719 H   0  0  0  0  0  0  0  0  0  0  0  0
    6.7526    0.4503    1.6009 H   0  0  0  0  0  0  0  0  0  0  0  0
    2.4418   -2.1721   -1.5716 H   0  0  0  0  0  0  0  0  0  0  0  0
    1.7287    2.1835    1.1269 H   0  0  0  0  0  0  0  0  0  0  0  0
    0.2424    0.9998   -3.0551 H   0  0  0  0  0  0  0  0  0  0  0  0
   -5.0279    2.8845    0.4082 H   0  0  0  0  0  0  0  0  0  0  0  0
   -6.3145   -0.9183   -1.1109 H   0  0  0  0  0  0  0  0  0  0  0  0
   -3.0000    3.1314    1.5122 H   0  0  0  0  0  0  0  0  0  0  0  0
   -2.4881    1.7245    2.4438 H   0  0  0  0  0  0  0  0  0  0  0  0
   -1.7142    2.1030    0.8788 H   0  0  0  0  0  0  0  0  0  0  0  0
   -4.9602   -2.6029   -0.8094 H   0  0  0  0  0  0  0  0  0  0  0  0
   -7.4883    0.9385   -1.2821 H   0  0  0  0  0  0  0  0  0  0  0  0
  1 10  1  0  0  0  0
  1 49  1  0  0  0  0
  2 11  1  0  0  0  0
  2 50  1  0  0  0  0
  3 13  1  0  0  0  0
  3 23  1  0  0  0  0
  4 22  2  0  0  0  0
  5 23  2  0  0  0  0
  6 26  1  0  0  0  0
  6 57  1  0  0  0  0
  7 30  1  0  0  0  0
  7 58  1  0  0  0  0
  8  9  1  0  0  0  0
  8 10  1  0  0  0  0
  8 12  1  0  0  0  0
  8 18  1  0  0  0  0
  9 11  1  0  0  0  0
  9 14  1  0  0  0  0
  9 31  1  0  0  0  0
 10 13  1  0  0  0  0
 10 17  1  0  0  0  0
 11 16  1  0  0  0  0
 11 19  1  0  0  0  0
 12 13  1  0  0  0  0
 12 32  1  0  0  0  0
 12 33  1  0  0  0  0
 13 34  1  0  0  0  0
 14 15  1  0  0  0  0
 14 35  1  0  0  0  0
 14 36  1  0  0  0  0
 15 16  1  0  0  0  0
 15 20  1  0  0  0  0
 15 21  1  0  0  0  0
 16 37  1  0  0  0  0
 16 38  1  0  0  0  0
 17 19  2  0  0  0  0
 17 22  1  0  0  0  0
 18 39  1  0  0  0  0
 18 40  1  0  0  0  0
 18 41  1  0  0  0  0
 19 42  1  0  0  0  0
 20 43  1  0  0  0  0
 20 44  1  0  0  0  0
 20 45  1  0  0  0  0
 21 46  1  0  0  0  0
 21 47  1  0  0  0  0
 21 48  1  0  0  0  0
 22 51  1  0  0  0  0
 23 24  1  0  0  0  0
 24 25  1  0  0  0  0
 24 26  2  0  0  0  0
 25 27  2  0  0  0  0
 25 29  1  0  0  0  0
 26 28  1  0  0  0  0
 27 30  1  0  0  0  0
 27 52  1  0  0  0  0
 28 30  2  0  0  0  0
 28 53  1  0  0  0  0
 29 54  1  0  0  0  0
 29 55  1  0  0  0  0
 29 56  1  0  0  0  0
M  END
> <PUBCHEM_COMPOUND_CID>
131866

> <PUBCHEM_CONFORMER_RMSD>
0.8

> <PUBCHEM_CONFORMER_DIVERSEORDER>
1
28
16
26
23
18
25
17
27
12
7
19
5
6
15
24
9
10
8
21
22
13
20
14
11
4
3
2

> <PUBCHEM_MMFF94_PARTIAL_CHARGES>
29
1 -0.66
10 0.37
11 0.42
13 0.26
17 -0.1
19 -0.29
2 -0.68
22 0.5
23 0.63
24 0.09
25 -0.14
26 0.08
27 -0.15
28 -0.15
29 0.14
3 -0.41
30 0.08
4 -0.57
42 0.15
49 0.4
5 -0.57
50 0.4
51 0.06
52 0.15
53 0.15
57 0.45
58 0.45
6 -0.53
7 -0.53

> <PUBCHEM_EFFECTIVE_ROTOR_COUNT>
5

> <PUBCHEM_PHARMACOPHORE_FEATURES>
13
1 1 acceptor
1 1 donor
1 2 acceptor
1 2 donor
1 4 acceptor
1 5 acceptor
1 6 donor
1 7 donor
3 15 20 21 hydrophobe
4 8 10 12 13 rings
5 9 11 14 15 16 rings
6 24 25 26 27 28 30 rings
6 8 9 10 11 17 19 rings

> <PUBCHEM_HEAVY_ATOM_COUNT>
30

> <PUBCHEM_ATOM_DEF_STEREO_COUNT>
5

> <PUBCHEM_ATOM_UDEF_STEREO_COUNT>
0

> <PUBCHEM_BOND_DEF_STEREO_COUNT>
0

> <PUBCHEM_BOND_UDEF_STEREO_COUNT>
0

> <PUBCHEM_ISOTOPIC_ATOM_COUNT>
0

> <PUBCHEM_COMPONENT_COUNT>
1

> <PUBCHEM_CACTVS_TAUTO_COUNT>
25

> <PUBCHEM_CONFORMER_ID>
0002031A00000001

> <PUBCHEM_MMFF94_ENERGY>
97.9445

> <PUBCHEM_FEATURE_SELFOVERLAP>
66.63

> <PUBCHEM_SHAPE_FINGERPRINT>
10906281 52 16732997422387704262
10930396 42 13253939120303119158
11089746 13 18335699464046040896
11488393 25 15768672874885986278
11578080 2 17459741510854975845
11961588 58 16630238199621778770
11991303 11 17203325675625559486
12011746 2 18333735715030914764
12107183 9 17760644768065917363
12166972 35 17531815791362873253
12236239 1 18259981565977296235
12422481 6 16588019122005145430
12633257 1 17240478147753063192
12788726 201 17774721949271682513
13224815 77 18202292390027983387
13464513 79 12175620672490878728
13583140 156 17916871360495905314
13911987 19 16343704377984870889
14790565 3 17096949055810670316
15183329 4 18343027662269915682
15238133 3 13840268044355368679
15420108 30 17968086556098891090
15849732 13 17989487438111266980
1601671 61 17312827099909293718
17349148 13 17531531000613491675
17980427 23 18114187470816321759
18681886 176 17989199382569464760
20197701 30 17703793639221339726
20511986 3 18260814991590940105
20715895 44 18193832644854385925
21033648 29 18113898324711840720
21298829 104 17894910669047486693
21421861 104 15647597992205319000
21521721 280 9006762199639311942
22393880 68 18272366520523239931
23559900 14 18130225930988308295
2838139 119 18343865515246632665
3472631 163 18339924810603051021
404807 78 17273680135470231031
4325135 7 18272368685919863189
474 4 17822295703685118635
5104073 3 17603307021074838019
57724786 102 15936704747558982357
6328613 192 17604161423256553428
6669772 16 15194701494914070858
7495541 125 7853563617485275143

> <PUBCHEM_SHAPE_MULTIPOLES>
576.3
14.48
2.19
1.78
5.8
0.2
-0.64
-6.49
-0.6
0.39
0.45
-0.25
0.15
-0.35

> <PUBCHEM_SHAPE_SELFOVERLAP>
1262.025

> <PUBCHEM_SHAPE_VOLUME>
313.8

> <PUBCHEM_COORDINATE_TYPE>
2
5
10

$$$$
