131841495
  -OEChem-03292013293D

 48 50  0     1  0  0  0  0  0999 V2000
   -0.4371    1.2517    1.4630 O   0  0  0  0  0  0  0  0  0  0  0  0
   -3.6102    1.4819    1.5131 O   0  0  0  0  0  0  0  0  0  0  0  0
    1.8694    0.2445   -1.4280 O   0  0  0  0  0  0  0  0  0  0  0  0
    5.3315    2.4662   -1.0845 O   0  0  0  0  0  0  0  0  0  0  0  0
   -1.8504    1.0487   -0.3585 N   0  0  0  0  0  0  0  0  0  0  0  0
    1.0765   -0.6565    0.5685 N   0  0  0  0  0  0  0  0  0  0  0  0
    4.3133    0.4085   -0.6244 N   0  0  0  0  0  0  0  0  0  0  0  0
   -3.9420    3.6966    0.9847 N   0  0  0  0  0  0  0  0  0  0  0  0
    0.3410   -3.7878    0.2676 N   0  0  0  0  0  0  0  0  0  0  0  0
   -1.1416   -5.2698   -0.4657 N   0  0  0  0  0  0  0  0  0  0  0  0
   -2.3763    2.4069   -0.3133 C   0  0  1  0  0  0  0  0  0  0  0  0
   -3.0583    2.6031   -1.6622 C   0  0  0  0  0  0  0  0  0  0  0  0
   -2.3797    0.3168   -1.5064 C   0  0  0  0  0  0  0  0  0  0  0  0
   -3.5007    1.1927   -2.0447 C   0  0  0  0  0  0  0  0  0  0  0  0
   -0.3070   -0.7664    0.2062 C   0  0  2  0  0  0  0  0  0  0  0  0
   -0.8591    0.6050    0.5029 C   0  0  0  0  0  0  0  0  0  0  0  0
    3.4096   -0.1298    0.3524 C   0  0  1  0  0  0  0  0  0  0  0  0
   -3.3563    2.4637    0.8196 C   0  0  0  0  0  0  0  0  0  0  0  0
   -1.0584   -1.8208    1.0080 C   0  0  0  0  0  0  0  0  0  0  0  0
    3.4974    0.8517    1.5056 C   0  0  0  0  0  0  0  0  0  0  0  0
    2.0562   -0.1576   -0.2826 C   0  0  0  0  0  0  0  0  0  0  0  0
    3.8874    2.1746    0.8469 C   0  0  0  0  0  0  0  0  0  0  0  0
    4.6252    1.7447   -0.3973 C   0  0  0  0  0  0  0  0  0  0  0  0
   -0.8838   -3.2043    0.4312 C   0  0  0  0  0  0  0  0  0  0  0  0
   -1.7827   -4.1378   -0.0283 C   0  0  0  0  0  0  0  0  0  0  0  0
    0.1359   -5.0265   -0.2736 C   0  0  0  0  0  0  0  0  0  0  0  0
   -1.5709    3.1268   -0.1324 H   0  0  0  0  0  0  0  0  0  0  0  0
   -2.3236    2.9581   -2.3957 H   0  0  0  0  0  0  0  0  0  0  0  0
   -3.8959    3.3060   -1.6582 H   0  0  0  0  0  0  0  0  0  0  0  0
   -2.7255   -0.6783   -1.2149 H   0  0  0  0  0  0  0  0  0  0  0  0
   -1.5787    0.2207   -2.2476 H   0  0  0  0  0  0  0  0  0  0  0  0
   -4.4425    0.9495   -1.5383 H   0  0  0  0  0  0  0  0  0  0  0  0
   -3.6514    1.0696   -3.1207 H   0  0  0  0  0  0  0  0  0  0  0  0
   -0.3426   -0.9813   -0.8654 H   0  0  0  0  0  0  0  0  0  0  0  0
    3.7189   -1.1427    0.6264 H   0  0  0  0  0  0  0  0  0  0  0  0
   -2.1326   -1.5954    1.0219 H   0  0  0  0  0  0  0  0  0  0  0  0
   -0.7328   -1.8293    2.0563 H   0  0  0  0  0  0  0  0  0  0  0  0
    4.3046    0.5442    2.1830 H   0  0  0  0  0  0  0  0  0  0  0  0
    2.5867    0.9497    2.1033 H   0  0  0  0  0  0  0  0  0  0  0  0
    1.3435   -0.9275    1.5108 H   0  0  0  0  0  0  0  0  0  0  0  0
    4.5286    2.7775    1.4944 H   0  0  0  0  0  0  0  0  0  0  0  0
    3.0039    2.7491    0.5514 H   0  0  0  0  0  0  0  0  0  0  0  0
    4.6596   -0.1148   -1.4226 H   0  0  0  0  0  0  0  0  0  0  0  0
   -3.7049    4.4943    0.4036 H   0  0  0  0  0  0  0  0  0  0  0  0
   -4.6283    3.8541    1.7151 H   0  0  0  0  0  0  0  0  0  0  0  0
    1.2363   -3.3802    0.5029 H   0  0  0  0  0  0  0  0  0  0  0  0
   -2.8591   -4.0539   -0.0677 H   0  0  0  0  0  0  0  0  0  0  0  0
    0.9531   -5.6957   -0.5019 H   0  0  0  0  0  0  0  0  0  0  0  0
  1 16  2  0  0  0  0
  2 18  2  0  0  0  0
  3 21  2  0  0  0  0
  4 23  2  0  0  0  0
  5 11  1  0  0  0  0
  5 13  1  0  0  0  0
  5 16  1  0  0  0  0
  6 15  1  0  0  0  0
  6 21  1  0  0  0  0
  6 40  1  0  0  0  0
  7 17  1  0  0  0  0
  7 23  1  0  0  0  0
  7 43  1  0  0  0  0
  8 18  1  0  0  0  0
  8 44  1  0  0  0  0
  8 45  1  0  0  0  0
  9 24  1  0  0  0  0
  9 26  1  0  0  0  0
  9 46  1  0  0  0  0
 10 25  1  0  0  0  0
 10 26  2  0  0  0  0
 11 12  1  0  0  0  0
 11 18  1  0  0  0  0
 11 27  1  0  0  0  0
 12 14  1  0  0  0  0
 12 28  1  0  0  0  0
 12 29  1  0  0  0  0
 13 14  1  0  0  0  0
 13 30  1  0  0  0  0
 13 31  1  0  0  0  0
 14 32  1  0  0  0  0
 14 33  1  0  0  0  0
 15 16  1  0  0  0  0
 15 19  1  0  0  0  0
 15 34  1  0  0  0  0
 17 20  1  0  0  0  0
 17 21  1  0  0  0  0
 17 35  1  0  0  0  0
 19 24  1  0  0  0  0
 19 36  1  0  0  0  0
 19 37  1  0  0  0  0
 20 22  1  0  0  0  0
 20 38  1  0  0  0  0
 20 39  1  0  0  0  0
 22 23  1  0  0  0  0
 22 41  1  0  0  0  0
 22 42  1  0  0  0  0
 24 25  2  0  0  0  0
 25 47  1  0  0  0  0
 26 48  1  0  0  0  0
M  END
> <PUBCHEM_COMPOUND_CID>
131841495

> <PUBCHEM_CONFORMER_RMSD>
1

> <PUBCHEM_CONFORMER_DIVERSEORDER>
1
222
239
197
43
292
126
331
267
95
274
183
332
248
94
310
63
175
99
264
261
260
30
195
162
263
217
287
300
32
329
231
241
308
67
82
199
125
207
258
309
142
156
227
44
281
229
286
257
100
313
54
256
110
20
192
325
224
202
303
158
288
119
87
88
164
279
155
230
79
284
209
66
115
47
216
214
266
275
173
182
114
68
312
294
316
219
201
245
75
190
259
163
77
212
76
59
179
285
299
244
198
262
218
304
42
301
151
150
270
236
255
69
252
191
123
296
213
81
204
130
146
265
137
215
237
330
73
19
166
34
315
133
14
307
132
15
11
27
84
210
320
271
134
280
290
276
187
2
135
297
89
314
40
129
249
319
169
323
254
52
168
55
17
174
9
211
113
253
57
247
38
109
327
16
269
159
208
184
326
322
149
22
121
111
70
305
29
298
136
324
226
334
71
28
273
41
46
13
200
311
223
194
7
25
233
101
171
131
23
206
196
291
112
105
232
203
21
154
106
80
161
91
3
96
242
72
61
177
178
138
170
147
139
193
185
10
328
165
176
85
50
321
45
152
104
272
278
167
220
60
74
56
58
37
98
157
333
108
205
5
118
24
4
116
282
293
228
302
153
141
127
86
235
295
33
148
283
251
268
49
107
143
103
128
234
117
31
6
12
51
65
250
35
102
160
140
26
180
188
289
186
124
318
181
8
93
122
97
18
120
277
62
92
243
306
238
78
246
240
317
145
64
53
90
189
221
36
225
83
144
48
39
172

> <PUBCHEM_MMFF94_PARTIAL_CHARGES>
30
1 -0.57
10 -0.57
11 0.36
13 0.3
15 0.36
16 0.57
17 0.36
18 0.57
19 0.18
2 -0.57
21 0.57
22 0.06
23 0.57
24 -0.33
25 0.08
26 0.04
3 -0.57
4 -0.57
40 0.37
43 0.37
44 0.37
45 0.37
46 0.27
47 0.15
48 0.15
5 -0.66
6 -0.73
7 -0.73
8 -0.8
9 0.03

> <PUBCHEM_EFFECTIVE_ROTOR_COUNT>
9.8

> <PUBCHEM_PHARMACOPHORE_FEATURES>
12
1 1 acceptor
1 2 acceptor
1 3 acceptor
1 4 acceptor
1 6 donor
1 7 donor
1 8 donor
1 9 donor
3 9 10 26 cation
5 5 11 12 13 14 rings
5 7 17 20 22 23 rings
5 9 10 24 25 26 rings

> <PUBCHEM_HEAVY_ATOM_COUNT>
26

> <PUBCHEM_ATOM_DEF_STEREO_COUNT>
2

> <PUBCHEM_ATOM_UDEF_STEREO_COUNT>
1

> <PUBCHEM_BOND_DEF_STEREO_COUNT>
0

> <PUBCHEM_BOND_UDEF_STEREO_COUNT>
0

> <PUBCHEM_ISOTOPIC_ATOM_COUNT>
0

> <PUBCHEM_COMPONENT_COUNT>
1

> <PUBCHEM_CACTVS_TAUTO_COUNT>
108

> <PUBCHEM_CONFORMER_ID>
07DBBDD700000001

> <PUBCHEM_MMFF94_ENERGY>
55.4007

> <PUBCHEM_FEATURE_SELFOVERLAP>
60.898

> <PUBCHEM_SHAPE_FINGERPRINT>
11045515 52 17542220606924300038
11056379 131 18194413418716084630
121448 382 18269813420242913909
12160290 23 18115316707570244659
12173636 292 18411704270457695665
12788726 201 17900246796091781498
13004483 165 17977936114451849890
13583140 156 16226040094079002164
13681431 1 17327448130072288531
14251757 5 18192423301989665903
14955137 171 17189545170410046567
15842332 3 17483654738462209533
1813 80 17400073574843147994
18785283 64 17975984167573842883
19319366 153 18128815240527009953
19765921 60 18130220433218802953
20238998 120 17619908800334960595
20600515 1 17479198782237406650
20642791 268 10882557563080880719
21033650 10 17632302250727747144
21120745 212 17760951922488839236
21304303 172 17838633493208194107
21304303 282 17761722517020603206
2255824 54 17907851812777625879
22907989 373 18194116554375544012
23557571 272 18125446568616371414
23566358 27 17907858410458899983
27425 322 18343026553652168829
283562 15 18339915009297660583
3057174 1 18338507526438564758
4409770 3 18192135204231549919
458136 41 18195253213138611161
474 4 18267018362605928049
59755656 520 18411427197901175414
633830 44 18199752431678215853
6442390 28 18340219517830207795
6443956 14 17328301347169785734
6677587 24 16236389706630626807
7097593 13 9437964348629840157
81228 2 18118410780498647123
9981440 41 18337655426380529033

> <PUBCHEM_SHAPE_MULTIPOLES>
481.7
8.17
6.4
1.51
8.98
11.15
0.22
-10.83
1.17
-4.82
0.12
-0.83
-1.07
-0.44

> <PUBCHEM_SHAPE_SELFOVERLAP>
1024.677

> <PUBCHEM_SHAPE_VOLUME>
268.7

> <PUBCHEM_COORDINATE_TYPE>
2
5
10

$$$$
