131815
  -OEChem-03292013323D

 40 41  0     1  0  0  0  0  0999 V2000
   -2.2837    0.0397   -0.2771 O   0  0  0  0  0  0  0  0  0  0  0  0
   -1.5783   -0.5031    1.8575 O   0  0  0  0  0  0  0  0  0  0  0  0
    0.3036    0.9487   -0.8668 O   0  0  0  0  0  0  0  0  0  0  0  0
    2.1969    3.5265    0.8212 O   0  0  0  0  0  0  0  0  0  0  0  0
    2.4226    1.4750    1.7726 O   0  0  0  0  0  0  0  0  0  0  0  0
    0.7325   -1.2066   -0.1553 N   0  0  0  0  0  0  0  0  0  0  0  0
    2.9009   -0.1915   -2.1243 N   0  0  0  0  0  0  0  0  0  0  0  0
   -0.6407   -1.6072   -0.0082 C   0  0  2  0  0  0  0  0  0  0  0  0
   -0.6838   -3.0151    0.5108 C   0  0  1  0  0  0  0  0  0  0  0  0
   -1.2455   -2.6985   -0.8474 C   0  0  0  0  0  0  0  0  0  0  0  0
    0.7352   -3.4618    0.7131 C   0  0  0  0  0  0  0  0  0  0  0  0
    1.6252   -2.3302    0.1710 C   0  0  0  0  0  0  0  0  0  0  0  0
   -1.5454   -0.6394    0.6429 C   0  0  0  0  0  0  0  0  0  0  0  0
    1.1010    0.0455   -0.6099 C   0  0  0  0  0  0  0  0  0  0  0  0
    2.5833    0.2610   -0.7793 C   0  0  2  0  0  0  0  0  0  0  0  0
   -3.1878    1.0117    0.2578 C   0  0  0  0  0  0  0  0  0  0  0  0
    2.9131    1.7325   -0.5789 C   0  0  0  0  0  0  0  0  0  0  0  0
   -3.9309    1.6765   -0.8908 C   0  0  0  0  0  0  0  0  0  0  0  0
    2.4833    2.2015    0.7891 C   0  0  0  0  0  0  0  0  0  0  0  0
   -4.9015    2.7347   -0.3982 C   0  0  0  0  0  0  0  0  0  0  0  0
   -1.3620   -3.2988    1.3017 H   0  0  0  0  0  0  0  0  0  0  0  0
   -2.3227   -2.7333   -0.9626 H   0  0  0  0  0  0  0  0  0  0  0  0
   -0.7025   -3.0396   -1.7211 H   0  0  0  0  0  0  0  0  0  0  0  0
    0.9300   -3.6093    1.7812 H   0  0  0  0  0  0  0  0  0  0  0  0
    0.9379   -4.4080    0.2015 H   0  0  0  0  0  0  0  0  0  0  0  0
    2.1493   -2.6458   -0.7356 H   0  0  0  0  0  0  0  0  0  0  0  0
    2.3612   -2.0224    0.9194 H   0  0  0  0  0  0  0  0  0  0  0  0
    3.1623   -0.3190   -0.0574 H   0  0  0  0  0  0  0  0  0  0  0  0
   -2.6194    1.7599    0.8226 H   0  0  0  0  0  0  0  0  0  0  0  0
   -3.8977    0.5146    0.9292 H   0  0  0  0  0  0  0  0  0  0  0  0
    2.4071    2.3511   -1.3313 H   0  0  0  0  0  0  0  0  0  0  0  0
    3.9909    1.9068   -0.6728 H   0  0  0  0  0  0  0  0  0  0  0  0
    2.3991    0.3649   -2.8152 H   0  0  0  0  0  0  0  0  0  0  0  0
    2.6110   -1.1577   -2.2604 H   0  0  0  0  0  0  0  0  0  0  0  0
   -4.4696    0.9163   -1.4691 H   0  0  0  0  0  0  0  0  0  0  0  0
   -3.2096    2.1264   -1.5835 H   0  0  0  0  0  0  0  0  0  0  0  0
   -4.3765    3.5244    0.1487 H   0  0  0  0  0  0  0  0  0  0  0  0
   -5.4216    3.1955   -1.2438 H   0  0  0  0  0  0  0  0  0  0  0  0
   -5.6539    2.2980    0.2662 H   0  0  0  0  0  0  0  0  0  0  0  0
    1.9307    3.8220    1.7179 H   0  0  0  0  0  0  0  0  0  0  0  0
  1 13  1  0  0  0  0
  1 16  1  0  0  0  0
  2 13  2  0  0  0  0
  3 14  2  0  0  0  0
  4 19  1  0  0  0  0
  4 40  1  0  0  0  0
  5 19  2  0  0  0  0
  6  8  1  0  0  0  0
  6 12  1  0  0  0  0
  6 14  1  0  0  0  0
  7 15  1  0  0  0  0
  7 33  1  0  0  0  0
  7 34  1  0  0  0  0
  8  9  1  0  0  0  0
  8 10  1  0  0  0  0
  8 13  1  0  0  0  0
  9 10  1  0  0  0  0
  9 11  1  0  0  0  0
  9 21  1  0  0  0  0
 10 22  1  0  0  0  0
 10 23  1  0  0  0  0
 11 12  1  0  0  0  0
 11 24  1  0  0  0  0
 11 25  1  0  0  0  0
 12 26  1  0  0  0  0
 12 27  1  0  0  0  0
 14 15  1  0  0  0  0
 15 17  1  0  0  0  0
 15 28  1  0  0  0  0
 16 18  1  0  0  0  0
 16 29  1  0  0  0  0
 16 30  1  0  0  0  0
 17 19  1  0  0  0  0
 17 31  1  0  0  0  0
 17 32  1  0  0  0  0
 18 20  1  0  0  0  0
 18 35  1  0  0  0  0
 18 36  1  0  0  0  0
 20 37  1  0  0  0  0
 20 38  1  0  0  0  0
 20 39  1  0  0  0  0
M  END
> <PUBCHEM_COMPOUND_CID>
131815

> <PUBCHEM_CONFORMER_RMSD>
0.8

> <PUBCHEM_CONFORMER_DIVERSEORDER>
1
10
38
90
55
91
4
89
92
67
85
56
19
16
21
54
20
72
23
32
22
83
69
58
82
26
36
37
86
27
11
15
64
49
84
80
28
71
41
59
8
34
88
14
35
93
3
5
73
65
13
57
2
87
52
7
45
66
47
68
6
61
39
79
44
77
43
51
78
63
62
46
50
40
24
74
31
29
70
75
12
9
48
81
76
33
60
30
25
17
53
42
18

> <PUBCHEM_MMFF94_PARTIAL_CHARGES>
24
1 -0.43
10 -0.2
11 0.09
12 0.3
13 0.72
14 0.57
15 0.33
16 0.28
17 0.06
19 0.66
2 -0.57
21 0.1
22 0.1
23 0.1
3 -0.57
33 0.36
34 0.36
4 -0.65
40 0.5
5 -0.57
6 -0.51
7 -0.99
8 0.15
9 -0.19

> <PUBCHEM_EFFECTIVE_ROTOR_COUNT>
8.8

> <PUBCHEM_PHARMACOPHORE_FEATURES>
9
1 2 acceptor
1 20 hydrophobe
1 3 acceptor
1 4 acceptor
1 5 acceptor
1 7 cation
1 7 donor
3 4 5 19 anion
6 6 8 9 10 11 12 rings

> <PUBCHEM_HEAVY_ATOM_COUNT>
20

> <PUBCHEM_ATOM_DEF_STEREO_COUNT>
2

> <PUBCHEM_ATOM_UDEF_STEREO_COUNT>
1

> <PUBCHEM_BOND_DEF_STEREO_COUNT>
0

> <PUBCHEM_BOND_UDEF_STEREO_COUNT>
0

> <PUBCHEM_ISOTOPIC_ATOM_COUNT>
0

> <PUBCHEM_COMPONENT_COUNT>
1

> <PUBCHEM_CACTVS_TAUTO_COUNT>
1

> <PUBCHEM_CONFORMER_ID>
000202E700000001

> <PUBCHEM_MMFF94_ENERGY>
40.4672

> <PUBCHEM_FEATURE_SELFOVERLAP>
45.729

> <PUBCHEM_SHAPE_FINGERPRINT>
10165383 225 17975735849686491773
11582403 64 17199910575382694552
12500047 106 18338238283808229012
12730499 353 18336838485769283745
12788726 201 17904472257862899479
13134695 92 17832692488074446247
13294875 104 18411976928035066834
14178000 15 17689713061076374575
15490181 7 18338808912825786147
15664445 248 12750364043730562235
16945 1 17986979417148628046
17134986 127 18410575071936504165
17980427 23 17839422697485286343
18186145 218 18201728331799198977
18219364 16 18267888188025032657
19049666 15 18054526952197222270
20510252 161 17836367420695340698
20511035 2 18042139703447814911
21304303 282 17767078285509843287
21524375 3 18339655498335367239
21639500 275 18266172830138145053
23493267 7 17168728395506437108
23559900 14 17693382544169818844
238 59 18269844129364685777
2748010 2 18262256463898414911
3187 122 16899595711716930641
350125 39 18336837479882059035
43658 37 18411130325794061605
495365 180 18338224952287822853
5895379 119 16768166178044494545
6443956 14 17688867536623896589
7226269 152 18268168504294081222
7364860 26 18121775032997850031
7471813 234 17766819647111589373
7808743 9 18045513155519878284
81228 2 17690580983704388139
84936 182 18340764832637686801
90316 7 17328019279144528355

> <PUBCHEM_SHAPE_MULTIPOLES>
372.28
6.14
4.34
1.36
8.32
0.86
0.04
-6.81
-1.32
-1.41
1.02
-0.71
-0.28
0.75

> <PUBCHEM_SHAPE_SELFOVERLAP>
765.838

> <PUBCHEM_SHAPE_VOLUME>
214.8

> <PUBCHEM_COORDINATE_TYPE>
2
5
10

$$$$
