131945
  -OEChem-03292013323D

 56 56  0     1  0  0  0  0  0999 V2000
   -5.6830    1.6226    0.7056 O   0  0  0  0  0  0  0  0  0  0  0  0
   -2.3696    0.6214    0.4882 O   0  0  0  0  0  0  0  0  0  0  0  0
   -7.6275   -1.0940   -0.2465 O   0  0  0  0  0  0  0  0  0  0  0  0
   -3.4633   -2.0291    0.7635 O   0  0  0  0  0  0  0  0  0  0  0  0
   -7.7908    1.7585   -0.1835 O   0  0  0  0  0  0  0  0  0  0  0  0
   -3.7234    1.5822   -1.1183 O   0  0  0  0  0  0  0  0  0  0  0  0
   -4.6273   -2.1634   -1.2305 O   0  0  0  0  0  0  0  0  0  0  0  0
   -2.6237   -3.0042    0.0868 O   0  0  0  0  0  0  0  0  0  0  0  0
   -5.3769   -0.7058    0.5316 C   0  0  1  0  0  0  0  0  0  0  0  0
    5.1031    0.0358    0.3964 C   0  0  0  0  0  0  0  0  0  0  0  0
    3.8629    0.5323   -0.3505 C   0  0  0  0  0  0  0  0  0  0  0  0
    6.4148    0.3432   -0.3340 C   0  0  0  0  0  0  0  0  0  0  0  0
   -4.6878    0.6059    0.8588 C   0  0  1  0  0  0  0  0  0  0  0  0
    2.5528    0.2358    0.3865 C   0  0  0  0  0  0  0  0  0  0  0  0
    7.6894   -0.2056    0.3171 C   0  0  0  0  0  0  0  0  0  0  0  0
   -6.4897   -0.2807   -0.4045 C   0  0  2  0  0  0  0  0  0  0  0  0
    1.3134    0.7534   -0.3478 C   0  0  0  0  0  0  0  0  0  0  0  0
    8.9693    0.1847   -0.4265 C   0  0  0  0  0  0  0  0  0  0  0  0
    0.0362    0.4554    0.4449 C   0  0  0  0  0  0  0  0  0  0  0  0
   10.2471   -0.2897    0.2736 C   0  0  0  0  0  0  0  0  0  0  0  0
   -6.7659    1.1305    0.0326 C   0  0  0  0  0  0  0  0  0  0  0  0
   -1.2159    0.9380   -0.2774 C   0  0  0  0  0  0  0  0  0  0  0  0
   -3.5673    1.0028   -0.0519 C   0  0  0  0  0  0  0  0  0  0  0  0
   -4.4676   -1.7126   -0.1041 C   0  0  0  0  0  0  0  0  0  0  0  0
   11.5289    0.1212   -0.4521 C   0  0  0  0  0  0  0  0  0  0  0  0
   12.7617   -0.4383    0.2418 C   0  0  0  0  0  0  0  0  0  0  0  0
   -5.8096   -1.1577    1.4338 H   0  0  0  0  0  0  0  0  0  0  0  0
    5.0226   -1.0480    0.5444 H   0  0  0  0  0  0  0  0  0  0  0  0
    5.1350    0.4901    1.3942 H   0  0  0  0  0  0  0  0  0  0  0  0
    3.9487    1.6144   -0.5088 H   0  0  0  0  0  0  0  0  0  0  0  0
    3.8292    0.0683   -1.3439 H   0  0  0  0  0  0  0  0  0  0  0  0
    6.5097    1.4322   -0.4328 H   0  0  0  0  0  0  0  0  0  0  0  0
    6.3504   -0.0541   -1.3551 H   0  0  0  0  0  0  0  0  0  0  0  0
   -4.3450    0.6336    1.8990 H   0  0  0  0  0  0  0  0  0  0  0  0
    2.5954    0.6882    1.3851 H   0  0  0  0  0  0  0  0  0  0  0  0
    2.4614   -0.8476    0.5332 H   0  0  0  0  0  0  0  0  0  0  0  0
    7.7456    0.1644    1.3482 H   0  0  0  0  0  0  0  0  0  0  0  0
    7.6224   -1.2987    0.3764 H   0  0  0  0  0  0  0  0  0  0  0  0
   -6.1911   -0.2625   -1.4584 H   0  0  0  0  0  0  0  0  0  0  0  0
    1.4036    1.8347   -0.5054 H   0  0  0  0  0  0  0  0  0  0  0  0
    1.2520    0.2846   -1.3372 H   0  0  0  0  0  0  0  0  0  0  0  0
    9.0061    1.2762   -0.5301 H   0  0  0  0  0  0  0  0  0  0  0  0
    8.9369   -0.2287   -1.4419 H   0  0  0  0  0  0  0  0  0  0  0  0
    0.0864    0.9262    1.4346 H   0  0  0  0  0  0  0  0  0  0  0  0
   -0.0496   -0.6226    0.6308 H   0  0  0  0  0  0  0  0  0  0  0  0
   10.2679    0.1103    1.2949 H   0  0  0  0  0  0  0  0  0  0  0  0
   10.2154   -1.3828    0.3633 H   0  0  0  0  0  0  0  0  0  0  0  0
   -1.1636    2.0233   -0.4240 H   0  0  0  0  0  0  0  0  0  0  0  0
   -1.2884    0.4506   -1.2571 H   0  0  0  0  0  0  0  0  0  0  0  0
   11.5978    1.2143   -0.4931 H   0  0  0  0  0  0  0  0  0  0  0  0
   11.5026   -0.2422   -1.4859 H   0  0  0  0  0  0  0  0  0  0  0  0
   -8.3040   -0.7773   -0.8692 H   0  0  0  0  0  0  0  0  0  0  0  0
   12.7362   -1.5324    0.2660 H   0  0  0  0  0  0  0  0  0  0  0  0
   13.6675   -0.1316   -0.2904 H   0  0  0  0  0  0  0  0  0  0  0  0
   12.8320   -0.0727    1.2712 H   0  0  0  0  0  0  0  0  0  0  0  0
   -1.9400   -2.3709   -0.1917 H   0  0  0  0  0  0  0  0  0  0  0  0
  1 13  1  0  0  0  0
  1 21  1  0  0  0  0
  2 22  1  0  0  0  0
  2 23  1  0  0  0  0
  3 16  1  0  0  0  0
  3 52  1  0  0  0  0
  4  8  1  0  0  0  0
  4 24  1  0  0  0  0
  5 21  2  0  0  0  0
  6 23  2  0  0  0  0
  7 24  2  0  0  0  0
  8 56  1  0  0  0  0
  9 13  1  0  0  0  0
  9 16  1  0  0  0  0
  9 24  1  0  0  0  0
  9 27  1  0  0  0  0
 10 11  1  0  0  0  0
 10 12  1  0  0  0  0
 10 28  1  0  0  0  0
 10 29  1  0  0  0  0
 11 14  1  0  0  0  0
 11 30  1  0  0  0  0
 11 31  1  0  0  0  0
 12 15  1  0  0  0  0
 12 32  1  0  0  0  0
 12 33  1  0  0  0  0
 13 23  1  0  0  0  0
 13 34  1  0  0  0  0
 14 17  1  0  0  0  0
 14 35  1  0  0  0  0
 14 36  1  0  0  0  0
 15 18  1  0  0  0  0
 15 37  1  0  0  0  0
 15 38  1  0  0  0  0
 16 21  1  0  0  0  0
 16 39  1  0  0  0  0
 17 19  1  0  0  0  0
 17 40  1  0  0  0  0
 17 41  1  0  0  0  0
 18 20  1  0  0  0  0
 18 42  1  0  0  0  0
 18 43  1  0  0  0  0
 19 22  1  0  0  0  0
 19 44  1  0  0  0  0
 19 45  1  0  0  0  0
 20 25  1  0  0  0  0
 20 46  1  0  0  0  0
 20 47  1  0  0  0  0
 22 48  1  0  0  0  0
 22 49  1  0  0  0  0
 25 26  1  0  0  0  0
 25 50  1  0  0  0  0
 25 51  1  0  0  0  0
 26 53  1  0  0  0  0
 26 54  1  0  0  0  0
 26 55  1  0  0  0  0
M  END
> <PUBCHEM_COMPOUND_CID>
131945

> <PUBCHEM_CONFORMER_RMSD>
1.2

> <PUBCHEM_CONFORMER_DIVERSEORDER>
1
148
131
43
82
31
155
199
61
108
12
110
51
15
145
75
125
71
168
17
109
127
193
126
185
178
63
100
169
22
176
77
115
101
68
40
200
48
197
39
205
33
111
81
206
142
14
158
70
80
132
202
10
105
164
113
160
24
165
78
162
102
174
83
41
35
189
25
117
30
208
139
73
194
149
59
140
79
138
121
191
196
5
107
67
173
2
28
20
88
93
49
136
91
166
120
144
99
141
54
124
143
26
94
106
147
179
27
69
122
182
104
207
203
38
52
153
98
118
46
161
204
134
55
64
86
90
66
89
188
186
8
58
129
114
103
190
150
56
116
19
21
128
9
13
187
57
177
156
130
123
198
29
171
60
137
87
183
181
72
201
112
84
95
133
135
53
16
159
97
23
18
65
184
74
45
7
96
47
157
172
146
163
119
151
85
192
167
92
11
42
36
154
34
32
50
62
175
6
44
152
37
195
170
76
180
4
3

> <PUBCHEM_MMFF94_PARTIAL_CHARGES>
17
1 -0.43
13 0.34
16 0.34
2 -0.43
21 0.66
22 0.28
23 0.66
24 0.66
3 -0.68
4 -0.15
5 -0.57
52 0.4
56 0.4
6 -0.57
7 -0.57
8 -0.4
9 0.06

> <PUBCHEM_EFFECTIVE_ROTOR_COUNT>
15.8

> <PUBCHEM_PHARMACOPHORE_FEATURES>
7
1 26 hydrophobe
1 3 acceptor
1 3 donor
1 5 acceptor
1 6 acceptor
1 7 acceptor
5 1 9 13 16 21 rings

> <PUBCHEM_HEAVY_ATOM_COUNT>
26

> <PUBCHEM_ATOM_DEF_STEREO_COUNT>
3

> <PUBCHEM_ATOM_UDEF_STEREO_COUNT>
0

> <PUBCHEM_BOND_DEF_STEREO_COUNT>
0

> <PUBCHEM_BOND_UDEF_STEREO_COUNT>
0

> <PUBCHEM_ISOTOPIC_ATOM_COUNT>
0

> <PUBCHEM_COMPONENT_COUNT>
1

> <PUBCHEM_CACTVS_TAUTO_COUNT>
7

> <PUBCHEM_CONFORMER_ID>
0002036900000001

> <PUBCHEM_MMFF94_ENERGY>
14.2357

> <PUBCHEM_FEATURE_SELFOVERLAP>
35.525

> <PUBCHEM_SHAPE_FINGERPRINT>
10299344 5 18259984873391946120
10674148 151 18335136519147268658
11315181 36 17917996088129682425
11524674 6 17632857542706623791
12082328 90 13912312465702232350
12498461 61 17703225222186455703
12643181 29 18410012156200708211
13885169 127 18343022172785110552
13974486 27 17551523141596628294
14251764 46 16443067193239150544
15510794 2 17989210327148467902
20609170 92 18115579349611287463
21133665 82 18408603660594928419
21360443 120 17894628141049583595
21360443 89 9871451133709700085
21362267 20 18343861135567648494
232437 2 18410575097558536818
23559900 14 18131062780081258497
33684 2 17967253084157685160
395649 100 18040719216598936490
4017518 198 18131631188421661879
4325135 7 18040715870518101998
57676310 188 18334292042082222642
59521270 166 18113894932347001277
59521660 218 15864338113724014586
67123 10 18409449186033031584
9663363 56 16845571998075814497

> <PUBCHEM_SHAPE_MULTIPOLES>
488.11
40.62
1.78
0.83
131.67
1.15
0.04
2.04
1
-4.97
0.13
-0.39
0.02
-0.53

> <PUBCHEM_SHAPE_SELFOVERLAP>
957.573

> <PUBCHEM_SHAPE_VOLUME>
292.7

> <PUBCHEM_COORDINATE_TYPE>
2
5
10

$$$$
