131978
  -OEChem-03292013323D

 62 64  0     0  0  0  0  0  0999 V2000
   -1.4471   -1.0399   -1.3524 S   0  0  0  0  0  0  0  0  0  0  0  0
    3.0664    0.6717    1.9987 O   0  0  0  0  0  0  0  0  0  0  0  0
    3.3379   -2.4097   -1.2211 O   0  0  0  0  0  0  0  0  0  0  0  0
   -1.8705    2.4914    0.2311 N   0  0  0  0  0  0  0  0  0  0  0  0
    3.9608   -0.1714   -1.3188 N   0  0  0  0  0  0  0  0  0  0  0  0
   -3.2411   -2.5539    0.1070 N   0  0  0  0  0  0  0  0  0  0  0  0
   -1.3490   -3.5635   -0.2146 N   0  0  0  0  0  0  0  0  0  0  0  0
   -3.3680   -3.7421    0.7141 N   0  0  0  0  0  0  0  0  0  0  0  0
   -2.2079   -4.3554    0.5137 N   0  0  0  0  0  0  0  0  0  0  0  0
   -3.1548    3.1869    0.0683 C   0  0  0  0  0  0  0  0  0  0  0  0
   -0.8191    3.1205   -0.5805 C   0  0  0  0  0  0  0  0  0  0  0  0
   -3.6021    3.1844   -1.3943 C   0  0  0  0  0  0  0  0  0  0  0  0
   -1.1900    3.1155   -2.0643 C   0  0  0  0  0  0  0  0  0  0  0  0
   -2.5366    3.7894   -2.3014 C   0  0  0  0  0  0  0  0  0  0  0  0
   -1.4801    2.4615    1.6403 C   0  0  0  0  0  0  0  0  0  0  0  0
   -0.5317    1.3301    1.9358 C   0  0  0  0  0  0  0  0  0  0  0  0
    0.8450    1.5275    1.8285 C   0  0  0  0  0  0  0  0  0  0  0  0
   -1.0300    0.0843    2.3170 C   0  0  0  0  0  0  0  0  0  0  0  0
    1.7233    0.4792    2.1026 C   0  0  0  0  0  0  0  0  0  0  0  0
   -0.1517   -0.9641    2.5910 C   0  0  0  0  0  0  0  0  0  0  0  0
    1.2250   -0.7666    2.4838 C   0  0  0  0  0  0  0  0  0  0  0  0
    3.5130    1.6305    1.0410 C   0  0  0  0  0  0  0  0  0  0  0  0
    4.8751    1.1976    0.5122 C   0  0  0  0  0  0  0  0  0  0  0  0
    4.8362   -0.1591   -0.1787 C   0  0  0  0  0  0  0  0  0  0  0  0
    2.4237   -1.0141   -2.9752 C   0  0  0  0  0  0  0  0  0  0  0  0
    1.0088   -0.5665   -2.6052 C   0  0  0  0  0  0  0  0  0  0  0  0
    3.2771   -1.3039   -1.7515 C   0  0  0  0  0  0  0  0  0  0  0  0
    0.2248   -1.5977   -1.7941 C   0  0  0  0  0  0  0  0  0  0  0  0
   -2.0088   -2.4540   -0.4558 C   0  0  0  0  0  0  0  0  0  0  0  0
   -4.3285   -1.6084    0.1228 C   0  0  0  0  0  0  0  0  0  0  0  0
   -3.9304    2.6819    0.6571 H   0  0  0  0  0  0  0  0  0  0  0  0
   -3.0875    4.2205    0.4329 H   0  0  0  0  0  0  0  0  0  0  0  0
   -0.6317    4.1516   -0.2531 H   0  0  0  0  0  0  0  0  0  0  0  0
    0.1241    2.5731   -0.4999 H   0  0  0  0  0  0  0  0  0  0  0  0
   -3.8108    2.1548   -1.7123 H   0  0  0  0  0  0  0  0  0  0  0  0
   -4.5372    3.7463   -1.4966 H   0  0  0  0  0  0  0  0  0  0  0  0
   -0.4136    3.6307   -2.6412 H   0  0  0  0  0  0  0  0  0  0  0  0
   -1.2283    2.0835   -2.4337 H   0  0  0  0  0  0  0  0  0  0  0  0
   -2.8312    3.6830   -3.3510 H   0  0  0  0  0  0  0  0  0  0  0  0
   -2.4494    4.8637   -2.0976 H   0  0  0  0  0  0  0  0  0  0  0  0
   -2.3631    2.3111    2.2775 H   0  0  0  0  0  0  0  0  0  0  0  0
   -1.0557    3.4194    1.9716 H   0  0  0  0  0  0  0  0  0  0  0  0
    1.2100    2.5193    1.5767 H   0  0  0  0  0  0  0  0  0  0  0  0
   -2.1001   -0.0840    2.4027 H   0  0  0  0  0  0  0  0  0  0  0  0
   -0.5401   -1.9348    2.8851 H   0  0  0  0  0  0  0  0  0  0  0  0
    1.9043   -1.5875    2.6963 H   0  0  0  0  0  0  0  0  0  0  0  0
    2.8233    1.7282    0.1931 H   0  0  0  0  0  0  0  0  0  0  0  0
    3.6073    2.6042    1.5353 H   0  0  0  0  0  0  0  0  0  0  0  0
    5.2475    1.9597   -0.1826 H   0  0  0  0  0  0  0  0  0  0  0  0
    5.5847    1.1364    1.3460 H   0  0  0  0  0  0  0  0  0  0  0  0
    4.5390   -0.9489    0.5199 H   0  0  0  0  0  0  0  0  0  0  0  0
    5.8373   -0.4126   -0.5447 H   0  0  0  0  0  0  0  0  0  0  0  0
    2.9056   -0.2474   -3.5928 H   0  0  0  0  0  0  0  0  0  0  0  0
    2.3860   -1.9272   -3.5808 H   0  0  0  0  0  0  0  0  0  0  0  0
    0.4664   -0.3385   -3.5313 H   0  0  0  0  0  0  0  0  0  0  0  0
    1.0736    0.3686   -2.0335 H   0  0  0  0  0  0  0  0  0  0  0  0
    3.9003    0.6776   -1.8734 H   0  0  0  0  0  0  0  0  0  0  0  0
    0.7534   -1.8196   -0.8618 H   0  0  0  0  0  0  0  0  0  0  0  0
    0.1470   -2.5277   -2.3679 H   0  0  0  0  0  0  0  0  0  0  0  0
   -3.9725   -0.6719    0.5588 H   0  0  0  0  0  0  0  0  0  0  0  0
   -5.1488   -2.0052    0.7266 H   0  0  0  0  0  0  0  0  0  0  0  0
   -4.6670   -1.4533   -0.9044 H   0  0  0  0  0  0  0  0  0  0  0  0
  1 28  1  0  0  0  0
  1 29  1  0  0  0  0
  2 19  1  0  0  0  0
  2 22  1  0  0  0  0
  3 27  2  0  0  0  0
  4 10  1  0  0  0  0
  4 11  1  0  0  0  0
  4 15  1  0  0  0  0
  5 24  1  0  0  0  0
  5 27  1  0  0  0  0
  5 57  1  0  0  0  0
  6  8  1  0  0  0  0
  6 29  1  0  0  0  0
  6 30  1  0  0  0  0
  7  9  1  0  0  0  0
  7 29  2  0  0  0  0
  8  9  2  0  0  0  0
 10 12  1  0  0  0  0
 10 31  1  0  0  0  0
 10 32  1  0  0  0  0
 11 13  1  0  0  0  0
 11 33  1  0  0  0  0
 11 34  1  0  0  0  0
 12 14  1  0  0  0  0
 12 35  1  0  0  0  0
 12 36  1  0  0  0  0
 13 14  1  0  0  0  0
 13 37  1  0  0  0  0
 13 38  1  0  0  0  0
 14 39  1  0  0  0  0
 14 40  1  0  0  0  0
 15 16  1  0  0  0  0
 15 41  1  0  0  0  0
 15 42  1  0  0  0  0
 16 17  2  0  0  0  0
 16 18  1  0  0  0  0
 17 19  1  0  0  0  0
 17 43  1  0  0  0  0
 18 20  2  0  0  0  0
 18 44  1  0  0  0  0
 19 21  2  0  0  0  0
 20 21  1  0  0  0  0
 20 45  1  0  0  0  0
 21 46  1  0  0  0  0
 22 23  1  0  0  0  0
 22 47  1  0  0  0  0
 22 48  1  0  0  0  0
 23 24  1  0  0  0  0
 23 49  1  0  0  0  0
 23 50  1  0  0  0  0
 24 51  1  0  0  0  0
 24 52  1  0  0  0  0
 25 26  1  0  0  0  0
 25 27  1  0  0  0  0
 25 53  1  0  0  0  0
 25 54  1  0  0  0  0
 26 28  1  0  0  0  0
 26 55  1  0  0  0  0
 26 56  1  0  0  0  0
 28 58  1  0  0  0  0
 28 59  1  0  0  0  0
 30 60  1  0  0  0  0
 30 61  1  0  0  0  0
 30 62  1  0  0  0  0
M  END
> <PUBCHEM_COMPOUND_CID>
131978

> <PUBCHEM_CONFORMER_RMSD>
1.8

> <PUBCHEM_CONFORMER_DIVERSEORDER>
1
36
39
78
72
22
52
65
49
38
23
26
27
3
25
74
73
11
47
43
57
15
63
80
4
59
45
12
75
29
10
40
13
37
67
14
55
16
30
51
66
48
33
53
2
82
7
21
20
42
50
62
32
61
9
24
6
31
68
58
60
41
54
5
17
46
69
34
81
44
18
83
76
64
77
56
19
8
79
70
28
71
35

> <PUBCHEM_MMFF94_PARTIAL_CHARGES>
29
1 -0.29
10 0.27
11 0.27
15 0.41
16 -0.14
17 -0.15
18 -0.15
19 0.08
2 -0.36
20 -0.15
21 -0.15
22 0.28
24 0.3
25 0.06
27 0.57
28 0.23
29 0.24
3 -0.57
30 0.26
4 -0.81
43 0.15
44 0.15
45 0.15
46 0.15
5 -0.73
57 0.37
6 0.31
7 -0.34
8 -0.42

> <PUBCHEM_EFFECTIVE_ROTOR_COUNT>
14.2

> <PUBCHEM_PHARMACOPHORE_FEATURES>
9
1 2 acceptor
1 3 acceptor
1 4 cation
1 5 donor
3 6 7 29 cation
4 1 25 26 28 hydrophobe
5 6 7 8 9 29 rings
6 16 17 18 19 20 21 rings
6 4 10 11 12 13 14 rings

> <PUBCHEM_HEAVY_ATOM_COUNT>
30

> <PUBCHEM_ATOM_DEF_STEREO_COUNT>
0

> <PUBCHEM_ATOM_UDEF_STEREO_COUNT>
0

> <PUBCHEM_BOND_DEF_STEREO_COUNT>
0

> <PUBCHEM_BOND_UDEF_STEREO_COUNT>
0

> <PUBCHEM_ISOTOPIC_ATOM_COUNT>
0

> <PUBCHEM_COMPONENT_COUNT>
1

> <PUBCHEM_CACTVS_TAUTO_COUNT>
2

> <PUBCHEM_CONFORMER_ID>
0002038A00000001

> <PUBCHEM_MMFF94_ENERGY>
43.2406

> <PUBCHEM_FEATURE_SELFOVERLAP>
45.671

> <PUBCHEM_SHAPE_FINGERPRINT>
11244481 83 17397536988479764959
11582403 64 17317062246563119933
12156800 1 18334010567162657045
12539773 59 15362257235410853922
12655364 131 14187568708142635346
12788726 201 17895768403347565228
14251757 17 18059292041695917988
144659 39 18056447657250620520
14932701 244 17899392449903467400
20600515 1 18265905846249502079
20764821 26 17202177738415736404
21285901 2 18200874096879049891
21860390 5 17109578213090197169
23419403 2 17775007851937434773
238 59 16700584884715918724
26353 1 18119258508316268737
35225 105 18042133076376398956
469060 322 18195270998983136966
57527585 103 17269793167864585294
6287921 2 16531146084189551899
6669772 16 18053925278575937402

> <PUBCHEM_SHAPE_MULTIPOLES>
579.61
7.48
5.34
3.29
5.58
2.46
0.15
-1.54
1.93
-7.59
1.12
1.29
-0.56
2.96

> <PUBCHEM_SHAPE_SELFOVERLAP>
1168.706

> <PUBCHEM_SHAPE_VOLUME>
340.8

> <PUBCHEM_COORDINATE_TYPE>
2
5
10

$$$$
