131946
  -OEChem-03292013323D

 56 56  0     1  0  0  0  0  0999 V2000
   -4.9940   -0.2361    1.1456 O   0  0  0  0  0  0  0  0  0  0  0  0
   -2.2586   -2.0033    0.4615 O   0  0  0  0  0  0  0  0  0  0  0  0
   -3.7897   -0.3821    3.0799 O   0  0  0  0  0  0  0  0  0  0  0  0
   -2.2050    2.4062   -1.2638 O   0  0  0  0  0  0  0  0  0  0  0  0
   -4.2378    2.8080   -0.2366 O   0  0  0  0  0  0  0  0  0  0  0  0
   -4.7828   -1.0480   -2.2996 O   0  0  0  0  0  0  0  0  0  0  0  0
   -5.1762   -2.3129   -0.4446 O   0  0  0  0  0  0  0  0  0  0  0  0
   -2.2786    3.8417   -1.4813 O   0  0  0  0  0  0  0  0  0  0  0  0
   -2.6957    0.2934    1.0251 C   0  0  2  0  0  0  0  0  0  0  0  0
   -3.3291    0.5790   -0.3283 C   0  0  1  0  0  0  0  0  0  0  0  0
   -1.6529   -0.8134    0.9585 C   0  0  2  0  0  0  0  0  0  0  0  0
   -4.7446    0.0525   -0.2278 C   0  0  1  0  0  0  0  0  0  0  0  0
   -0.4423   -0.4613    0.0860 C   0  0  0  0  0  0  0  0  0  0  0  0
    0.8287   -1.2506    0.4213 C   0  0  0  0  0  0  0  0  0  0  0  0
   -3.8537   -0.1383    1.8835 C   0  0  0  0  0  0  0  0  0  0  0  0
    2.0079   -0.7902   -0.4395 C   0  0  0  0  0  0  0  0  0  0  0  0
    3.2862   -1.5521   -0.0852 C   0  0  0  0  0  0  0  0  0  0  0  0
   -3.3380    2.0570   -0.5884 C   0  0  0  0  0  0  0  0  0  0  0  0
    4.4725   -1.0685   -0.9224 C   0  0  0  0  0  0  0  0  0  0  0  0
   -4.9293   -1.2352   -0.9652 C   0  0  0  0  0  0  0  0  0  0  0  0
    5.7565   -1.8093   -0.5427 C   0  0  0  0  0  0  0  0  0  0  0  0
    6.9845   -1.3425   -1.3298 C   0  0  0  0  0  0  0  0  0  0  0  0
    7.3479    0.1227   -1.0786 C   0  0  0  0  0  0  0  0  0  0  0  0
    7.6718    0.3673    0.3970 C   0  0  0  0  0  0  0  0  0  0  0  0
    7.9985    1.8376    0.6585 C   0  0  0  0  0  0  0  0  0  0  0  0
    8.3537    2.0784    2.1170 C   0  0  0  0  0  0  0  0  0  0  0  0
   -2.2640    1.1986    1.4692 H   0  0  0  0  0  0  0  0  0  0  0  0
   -2.8018    0.1180   -1.1710 H   0  0  0  0  0  0  0  0  0  0  0  0
   -1.3153   -1.0304    1.9797 H   0  0  0  0  0  0  0  0  0  0  0  0
   -5.5208    0.7443   -0.5720 H   0  0  0  0  0  0  0  0  0  0  0  0
   -0.6783   -0.6263   -0.9722 H   0  0  0  0  0  0  0  0  0  0  0  0
   -0.2132    0.6048    0.2094 H   0  0  0  0  0  0  0  0  0  0  0  0
    0.6532   -2.3212    0.2645 H   0  0  0  0  0  0  0  0  0  0  0  0
    1.0738   -1.1136    1.4815 H   0  0  0  0  0  0  0  0  0  0  0  0
    1.7712   -0.9407   -1.4997 H   0  0  0  0  0  0  0  0  0  0  0  0
    2.1704    0.2848   -0.2936 H   0  0  0  0  0  0  0  0  0  0  0  0
    3.1327   -2.6257   -0.2492 H   0  0  0  0  0  0  0  0  0  0  0  0
    3.5098   -1.4160    0.9799 H   0  0  0  0  0  0  0  0  0  0  0  0
    4.5929    0.0077   -0.7594 H   0  0  0  0  0  0  0  0  0  0  0  0
    4.2618   -1.2158   -1.9884 H   0  0  0  0  0  0  0  0  0  0  0  0
    5.9318   -1.7482    0.5360 H   0  0  0  0  0  0  0  0  0  0  0  0
    5.6126   -2.8770   -0.7548 H   0  0  0  0  0  0  0  0  0  0  0  0
   -1.5937   -2.7116    0.4944 H   0  0  0  0  0  0  0  0  0  0  0  0
    6.8055   -1.4854   -2.4023 H   0  0  0  0  0  0  0  0  0  0  0  0
    7.8376   -1.9795   -1.0664 H   0  0  0  0  0  0  0  0  0  0  0  0
    8.2261    0.3730   -1.6866 H   0  0  0  0  0  0  0  0  0  0  0  0
    6.5438    0.7872   -1.4115 H   0  0  0  0  0  0  0  0  0  0  0  0
    6.8223    0.0999    1.0330 H   0  0  0  0  0  0  0  0  0  0  0  0
    8.5180   -0.2618    0.6985 H   0  0  0  0  0  0  0  0  0  0  0  0
    8.8397    2.1495    0.0286 H   0  0  0  0  0  0  0  0  0  0  0  0
    7.1405    2.4639    0.3878 H   0  0  0  0  0  0  0  0  0  0  0  0
   -4.8980   -1.8829   -2.8016 H   0  0  0  0  0  0  0  0  0  0  0  0
    7.5213    1.8068    2.7738 H   0  0  0  0  0  0  0  0  0  0  0  0
    8.5847    3.1356    2.2811 H   0  0  0  0  0  0  0  0  0  0  0  0
    9.2291    1.4901    2.4100 H   0  0  0  0  0  0  0  0  0  0  0  0
   -1.6947    4.0847   -0.7423 H   0  0  0  0  0  0  0  0  0  0  0  0
  1 12  1  0  0  0  0
  1 15  1  0  0  0  0
  2 11  1  0  0  0  0
  2 43  1  0  0  0  0
  3 15  2  0  0  0  0
  4  8  1  0  0  0  0
  4 18  1  0  0  0  0
  5 18  2  0  0  0  0
  6 20  1  0  0  0  0
  6 52  1  0  0  0  0
  7 20  2  0  0  0  0
  8 56  1  0  0  0  0
  9 10  1  0  0  0  0
  9 11  1  0  0  0  0
  9 15  1  0  0  0  0
  9 27  1  0  0  0  0
 10 12  1  0  0  0  0
 10 18  1  0  0  0  0
 10 28  1  0  0  0  0
 11 13  1  0  0  0  0
 11 29  1  0  0  0  0
 12 20  1  0  0  0  0
 12 30  1  0  0  0  0
 13 14  1  0  0  0  0
 13 31  1  0  0  0  0
 13 32  1  0  0  0  0
 14 16  1  0  0  0  0
 14 33  1  0  0  0  0
 14 34  1  0  0  0  0
 16 17  1  0  0  0  0
 16 35  1  0  0  0  0
 16 36  1  0  0  0  0
 17 19  1  0  0  0  0
 17 37  1  0  0  0  0
 17 38  1  0  0  0  0
 19 21  1  0  0  0  0
 19 39  1  0  0  0  0
 19 40  1  0  0  0  0
 21 22  1  0  0  0  0
 21 41  1  0  0  0  0
 21 42  1  0  0  0  0
 22 23  1  0  0  0  0
 22 44  1  0  0  0  0
 22 45  1  0  0  0  0
 23 24  1  0  0  0  0
 23 46  1  0  0  0  0
 23 47  1  0  0  0  0
 24 25  1  0  0  0  0
 24 48  1  0  0  0  0
 24 49  1  0  0  0  0
 25 26  1  0  0  0  0
 25 50  1  0  0  0  0
 25 51  1  0  0  0  0
 26 53  1  0  0  0  0
 26 54  1  0  0  0  0
 26 55  1  0  0  0  0
M  END
> <PUBCHEM_COMPOUND_CID>
131946

> <PUBCHEM_CONFORMER_RMSD>
1.6

> <PUBCHEM_CONFORMER_DIVERSEORDER>
1
3
43
44
31
21
17
67
27
54
50
39
62
83
66
2
76
61
32
65
72
77
34
26
70
53
28
20
9
6
68
55
69
64
25
84
41
75
82
10
24
46
57
59
49
18
7
74
48
81
5
8
38
63
19
71
22
15
29
42
36
4
33
40
35
58
79
78
73
16
37
56
13
23
47
80
51
14
60
11
45
12
52
30

> <PUBCHEM_MMFF94_PARTIAL_CHARGES>
18
1 -0.43
10 0.06
11 0.28
12 0.34
15 0.66
18 0.66
2 -0.68
20 0.66
3 -0.57
4 -0.15
43 0.4
5 -0.57
52 0.5
56 0.4
6 -0.65
7 -0.57
8 -0.4
9 0.06

> <PUBCHEM_EFFECTIVE_ROTOR_COUNT>
14.8

> <PUBCHEM_PHARMACOPHORE_FEATURES>
9
1 2 acceptor
1 2 donor
1 26 hydrophobe
1 3 acceptor
1 5 acceptor
1 6 acceptor
1 7 acceptor
3 6 7 20 anion
5 1 9 10 12 15 rings

> <PUBCHEM_HEAVY_ATOM_COUNT>
26

> <PUBCHEM_ATOM_DEF_STEREO_COUNT>
0

> <PUBCHEM_ATOM_UDEF_STEREO_COUNT>
4

> <PUBCHEM_BOND_DEF_STEREO_COUNT>
0

> <PUBCHEM_BOND_UDEF_STEREO_COUNT>
0

> <PUBCHEM_ISOTOPIC_ATOM_COUNT>
0

> <PUBCHEM_COMPONENT_COUNT>
1

> <PUBCHEM_CACTVS_TAUTO_COUNT>
2

> <PUBCHEM_CONFORMER_ID>
0002036A00000001

> <PUBCHEM_MMFF94_ENERGY>
19.6203

> <PUBCHEM_FEATURE_SELFOVERLAP>
45.729

> <PUBCHEM_SHAPE_FINGERPRINT>
10638233 991 16845574223707065970
11007060 377 18411983576655646922
11101153 10 18335143119647203132
11315181 36 16878240708961037910
11497681 19 17630876299772664839
11524674 6 10737296765688550112
12082328 90 16415485926501948198
12091667 2 18262246533960504158
15183329 4 15936417724012064686
15348495 7 8790584997883257910
17093844 174 13695592182279288078
18927931 339 18188224121529048375
20281389 69 18411140217388593834
21033648 29 18335985285751220968
21150785 3 17274822485043637974
328310 630 17632588149699315160
44249763 50 18271800272842193174
445580 167 17632008741347020630
497634 4 17561083583897592875
5104073 3 17532097098878025426
531348 171 18120656833904877703

> <PUBCHEM_SHAPE_MULTIPOLES>
488.11
23.45
2.86
1.88
53.48
2.3
0.76
5.22
1.19
-0.04
-1.07
-1.5
0.6
3.25

> <PUBCHEM_SHAPE_SELFOVERLAP>
965.345

> <PUBCHEM_SHAPE_VOLUME>
290.8

> <PUBCHEM_COORDINATE_TYPE>
2
5
10

$$$$
