131929
  -OEChem-03292013323D

 33 33  0     1  0  0  0  0  0999 V2000
   -3.7162    0.5006    0.3216 P   0  0  0  0  0  0  0  0  0  0  0  0
   -2.1304    0.8033    0.3997 O   0  0  0  0  0  0  0  0  0  0  0  0
    3.1787   -0.5357    0.9676 O   0  0  0  0  0  0  0  0  0  0  0  0
    1.6246   -2.3209   -1.4583 O   0  0  0  0  0  0  0  0  0  0  0  0
   -3.7904   -1.0625   -0.0861 O   0  0  0  0  0  0  0  0  0  0  0  0
   -4.1573    1.2604   -1.0360 O   0  0  0  0  0  0  0  0  0  0  0  0
   -4.4977    0.8827    1.5445 O   0  0  0  0  0  0  0  0  0  0  0  0
    1.2186   -1.9820    1.7061 N   0  0  0  0  0  0  0  0  0  0  0  0
    1.8382    2.4982   -0.5507 N   0  0  0  0  0  0  0  0  0  0  0  0
   -0.1780   -3.4671   -0.6165 N   0  0  0  0  0  0  0  0  0  0  0  0
    0.9786   -0.0675    0.1500 C   0  0  0  0  0  0  0  0  0  0  0  0
    0.5224   -1.4403    0.5261 C   0  0  1  0  0  0  0  0  0  0  0  0
    0.0941    0.8278   -0.4413 C   0  0  0  0  0  0  0  0  0  0  0  0
    2.2923    0.3186    0.3914 C   0  0  0  0  0  0  0  0  0  0  0  0
   -1.3234    0.4677   -0.7232 C   0  0  0  0  0  0  0  0  0  0  0  0
    2.6689    1.6008    0.0254 C   0  0  0  0  0  0  0  0  0  0  0  0
    0.5690    2.0873   -0.7697 C   0  0  0  0  0  0  0  0  0  0  0  0
    0.7400   -2.4383   -0.6126 C   0  0  0  0  0  0  0  0  0  0  0  0
    4.0681    2.0667    0.2620 C   0  0  0  0  0  0  0  0  0  0  0  0
   -0.5374   -1.4289    0.8029 H   0  0  0  0  0  0  0  0  0  0  0  0
   -1.6746    1.0372   -1.5920 H   0  0  0  0  0  0  0  0  0  0  0  0
   -1.4460   -0.5854   -0.9909 H   0  0  0  0  0  0  0  0  0  0  0  0
   -0.0722    2.8320   -1.2312 H   0  0  0  0  0  0  0  0  0  0  0  0
    0.8277   -2.8944    1.9407 H   0  0  0  0  0  0  0  0  0  0  0  0
    1.0320   -1.3847    2.5115 H   0  0  0  0  0  0  0  0  0  0  0  0
    4.7826    1.4466   -0.2890 H   0  0  0  0  0  0  0  0  0  0  0  0
    4.1966    3.0985   -0.0837 H   0  0  0  0  0  0  0  0  0  0  0  0
    4.3086    2.0481    1.3298 H   0  0  0  0  0  0  0  0  0  0  0  0
    4.0503   -0.1237    1.0705 H   0  0  0  0  0  0  0  0  0  0  0  0
   -0.9058   -3.5500    0.0859 H   0  0  0  0  0  0  0  0  0  0  0  0
   -0.1477   -4.1895   -1.3282 H   0  0  0  0  0  0  0  0  0  0  0  0
   -4.6674   -1.4993   -0.1345 H   0  0  0  0  0  0  0  0  0  0  0  0
   -5.1097    1.3056   -1.2665 H   0  0  0  0  0  0  0  0  0  0  0  0
  1  2  1  0  0  0  0
  1  5  1  0  0  0  0
  1  6  1  0  0  0  0
  1  7  2  0  0  0  0
  2 15  1  0  0  0  0
  3 14  1  0  0  0  0
  3 29  1  0  0  0  0
  4 18  2  0  0  0  0
  5 32  1  0  0  0  0
  6 33  1  0  0  0  0
  8 12  1  0  0  0  0
  8 24  1  0  0  0  0
  8 25  1  0  0  0  0
  9 16  2  0  0  0  0
  9 17  1  0  0  0  0
 10 18  1  0  0  0  0
 10 30  1  0  0  0  0
 10 31  1  0  0  0  0
 11 12  1  0  0  0  0
 11 13  1  0  0  0  0
 11 14  2  0  0  0  0
 12 18  1  0  0  0  0
 12 20  1  0  0  0  0
 13 15  1  0  0  0  0
 13 17  2  0  0  0  0
 14 16  1  0  0  0  0
 15 21  1  0  0  0  0
 15 22  1  0  0  0  0
 16 19  1  0  0  0  0
 17 23  1  0  0  0  0
 19 26  1  0  0  0  0
 19 27  1  0  0  0  0
 19 28  1  0  0  0  0
M  END
> <PUBCHEM_COMPOUND_CID>
131929

> <PUBCHEM_CONFORMER_RMSD>
0.6

> <PUBCHEM_CONFORMER_DIVERSEORDER>
4
46
30
48
28
25
63
66
17
67
10
44
23
53
14
64
16
31
18
60
69
55
42
35
2
52
39
43
47
50
24
68
45
1
58
26
40
29
32
49
62
27
15
61
37
11
54
21
8
59
65
41
22
36
34
57
33
3
38
51
13
9
5
19
56
6
20
12
7

> <PUBCHEM_MMFF94_PARTIAL_CHARGES>
27
1 1.51
10 -0.8
11 -0.14
12 0.47
13 -0.14
14 0.08
15 0.42
16 0.17
17 0.16
18 0.57
19 0.14
2 -0.55
23 0.15
24 0.36
25 0.36
29 0.45
3 -0.53
30 0.37
31 0.37
32 0.5
33 0.5
4 -0.57
5 -0.77
6 -0.77
7 -0.7
8 -0.99
9 -0.62

> <PUBCHEM_EFFECTIVE_ROTOR_COUNT>
5

> <PUBCHEM_PHARMACOPHORE_FEATURES>
11
1 10 donor
1 3 donor
1 4 acceptor
1 5 acceptor
1 6 acceptor
1 7 acceptor
1 8 cation
1 8 donor
1 9 acceptor
4 1 5 6 7 anion
6 9 11 13 14 16 17 rings

> <PUBCHEM_HEAVY_ATOM_COUNT>
19

> <PUBCHEM_ATOM_DEF_STEREO_COUNT>
0

> <PUBCHEM_ATOM_UDEF_STEREO_COUNT>
1

> <PUBCHEM_BOND_DEF_STEREO_COUNT>
0

> <PUBCHEM_BOND_UDEF_STEREO_COUNT>
0

> <PUBCHEM_ISOTOPIC_ATOM_COUNT>
0

> <PUBCHEM_COMPONENT_COUNT>
1

> <PUBCHEM_CACTVS_TAUTO_COUNT>
6

> <PUBCHEM_CONFORMER_ID>
0002035900000004

> <PUBCHEM_MMFF94_ENERGY>
15.1419

> <PUBCHEM_FEATURE_SELFOVERLAP>
55.873

> <PUBCHEM_SHAPE_FINGERPRINT>
10382601 240 18334298638739649016
10465860 228 18200325324818297057
10906281 52 17327712034828349572
10922049 32 18339366361236837556
11067466 332 17968671414500315542
12035758 1 18340210704916551794
12346645 6 18410572864223301621
12553582 1 17835247740334087943
12788726 201 17328865907846407552
13836976 161 18263361546262025125
15309172 13 18336262439558581229
15502708 68 18408601465686694437
15906896 17 17903361751119144594
16945 1 18270677563484011356
18186145 218 18341338863300906581
201361 129 18130517327149322137
20157964 124 18339074875483151077
20602899 9 17345491438618530726
20645477 70 18336255748584830501
20739085 24 18335151842900159332
21197605 99 17974304415135235995
21524375 3 18192151705379414665
23419403 2 17615744726525687618
23557571 272 16154263906629871157
23558518 356 17615404096827304436
25147074 1 17610610196598595740
2748010 2 18335432291289262006
3060560 45 18341610369837611806
633830 44 17989216953223118013
7364860 26 18341901731818384053
81228 2 17253698885939834944
81539 233 18335420162080189149
8272917 22 18341048502627438069

> <PUBCHEM_SHAPE_MULTIPOLES>
344.7
6.68
3.21
1.16
6.52
2.31
0.17
-4.27
1.58
-1.59
-0.8
0.24
0.35
-0.19

> <PUBCHEM_SHAPE_SELFOVERLAP>
701.962

> <PUBCHEM_SHAPE_VOLUME>
202.1

> <PUBCHEM_COORDINATE_TYPE>
2
5
10

$$$$
