131938
  -OEChem-03292013323D

 38 39  0     1  0  0  0  0  0999 V2000
   -4.2886    0.4171   -0.2867 P   0  0  0  0  0  0  0  0  0  0  0  0
   -5.1488    1.5609   -1.0264 O   0  0  0  0  0  0  0  0  0  0  0  0
   -4.6408    0.6163    1.2729 O   0  0  0  0  0  0  0  0  0  0  0  0
    4.3801    2.1155   -0.0070 O   0  0  0  0  0  0  0  0  0  0  0  0
   -4.4454   -0.9662   -0.8202 O   0  0  0  0  0  0  0  0  0  0  0  0
    5.2686    0.0785   -0.5137 O   0  0  0  0  0  0  0  0  0  0  0  0
    2.8994   -1.0692   -0.7111 N   0  0  0  0  0  0  0  0  0  0  0  0
    0.8107   -0.0469    1.1090 C   0  0  2  0  0  0  0  0  0  0  0  0
    0.8340   -1.5047    0.6044 C   0  0  1  0  0  0  0  0  0  0  0  0
   -0.2150    0.8157    0.3520 C   0  0  0  0  0  0  0  0  0  0  0  0
   -1.6166    0.1925    0.3842 C   0  0  2  0  0  0  0  0  0  0  0  0
   -0.5779   -2.1064    0.5707 C   0  0  0  0  0  0  0  0  0  0  0  0
   -1.5903   -1.2361   -0.1698 C   0  0  0  0  0  0  0  0  0  0  0  0
    2.2221    0.5575    1.0343 C   0  0  0  0  0  0  0  0  0  0  0  0
    1.5402   -1.6181   -0.7597 C   0  0  0  0  0  0  0  0  0  0  0  0
    2.8748    0.3442   -0.3331 C   0  0  1  0  0  0  0  0  0  0  0  0
   -2.6079    1.0542   -0.3963 C   0  0  0  0  0  0  0  0  0  0  0  0
    4.3014    0.7952   -0.3034 C   0  0  0  0  0  0  0  0  0  0  0  0
    0.5087   -0.0560    2.1656 H   0  0  0  0  0  0  0  0  0  0  0  0
    1.4190   -2.0987    1.3218 H   0  0  0  0  0  0  0  0  0  0  0  0
   -0.2502    1.8143    0.8058 H   0  0  0  0  0  0  0  0  0  0  0  0
    0.0940    0.9605   -0.6900 H   0  0  0  0  0  0  0  0  0  0  0  0
   -1.9486    0.1465    1.4298 H   0  0  0  0  0  0  0  0  0  0  0  0
   -0.9230   -2.2421    1.6043 H   0  0  0  0  0  0  0  0  0  0  0  0
   -0.5522   -3.1060    0.1204 H   0  0  0  0  0  0  0  0  0  0  0  0
   -1.3766   -1.2332   -1.2448 H   0  0  0  0  0  0  0  0  0  0  0  0
   -2.5446   -1.7387   -0.0231 H   0  0  0  0  0  0  0  0  0  0  0  0
    2.8443    0.0953    1.8138 H   0  0  0  0  0  0  0  0  0  0  0  0
    2.1801    1.6260    1.2800 H   0  0  0  0  0  0  0  0  0  0  0  0
    1.6085   -2.6733   -1.0488 H   0  0  0  0  0  0  0  0  0  0  0  0
    0.9730   -1.1190   -1.5534 H   0  0  0  0  0  0  0  0  0  0  0  0
    2.3688    0.9197   -1.1172 H   0  0  0  0  0  0  0  0  0  0  0  0
   -2.3239    1.1074   -1.4536 H   0  0  0  0  0  0  0  0  0  0  0  0
   -2.6009    2.0785   -0.0067 H   0  0  0  0  0  0  0  0  0  0  0  0
    3.4355   -1.5941   -0.0188 H   0  0  0  0  0  0  0  0  0  0  0  0
   -6.1169    1.4397   -1.1278 H   0  0  0  0  0  0  0  0  0  0  0  0
   -5.5123    0.3153    1.6077 H   0  0  0  0  0  0  0  0  0  0  0  0
    5.3088    2.4305    0.0193 H   0  0  0  0  0  0  0  0  0  0  0  0
  1  2  1  0  0  0  0
  1  3  1  0  0  0  0
  1  5  2  0  0  0  0
  1 17  1  0  0  0  0
  2 36  1  0  0  0  0
  3 37  1  0  0  0  0
  4 18  1  0  0  0  0
  4 38  1  0  0  0  0
  6 18  2  0  0  0  0
  7 15  1  0  0  0  0
  7 16  1  0  0  0  0
  7 35  1  0  0  0  0
  8  9  1  0  0  0  0
  8 10  1  0  0  0  0
  8 14  1  0  0  0  0
  8 19  1  0  0  0  0
  9 12  1  0  0  0  0
  9 15  1  0  0  0  0
  9 20  1  0  0  0  0
 10 11  1  0  0  0  0
 10 21  1  0  0  0  0
 10 22  1  0  0  0  0
 11 13  1  0  0  0  0
 11 17  1  0  0  0  0
 11 23  1  0  0  0  0
 12 13  1  0  0  0  0
 12 24  1  0  0  0  0
 12 25  1  0  0  0  0
 13 26  1  0  0  0  0
 13 27  1  0  0  0  0
 14 16  1  0  0  0  0
 14 28  1  0  0  0  0
 14 29  1  0  0  0  0
 15 30  1  0  0  0  0
 15 31  1  0  0  0  0
 16 18  1  0  0  0  0
 16 32  1  0  0  0  0
 17 33  1  0  0  0  0
 17 34  1  0  0  0  0
M  END
> <PUBCHEM_COMPOUND_CID>
131938

> <PUBCHEM_CONFORMER_RMSD>
0.6

> <PUBCHEM_CONFORMER_DIVERSEORDER>
1
8
4
7
5
3
6
9
2
10

> <PUBCHEM_MMFF94_PARTIAL_CHARGES>
14
1 1.24
15 0.27
16 0.33
18 0.66
2 -0.77
3 -0.77
35 0.36
36 0.5
37 0.5
38 0.5
4 -0.65
5 -0.7
6 -0.57
7 -0.9

> <PUBCHEM_EFFECTIVE_ROTOR_COUNT>
4.6

> <PUBCHEM_PHARMACOPHORE_FEATURES>
11
1 2 acceptor
1 3 acceptor
1 4 acceptor
1 5 acceptor
1 6 acceptor
1 7 cation
1 7 donor
3 4 6 18 anion
4 1 2 3 5 anion
6 7 8 9 14 15 16 rings
6 8 9 10 11 12 13 rings

> <PUBCHEM_HEAVY_ATOM_COUNT>
18

> <PUBCHEM_ATOM_DEF_STEREO_COUNT>
4

> <PUBCHEM_ATOM_UDEF_STEREO_COUNT>
0

> <PUBCHEM_BOND_DEF_STEREO_COUNT>
0

> <PUBCHEM_BOND_UDEF_STEREO_COUNT>
0

> <PUBCHEM_ISOTOPIC_ATOM_COUNT>
0

> <PUBCHEM_COMPONENT_COUNT>
1

> <PUBCHEM_CACTVS_TAUTO_COUNT>
1

> <PUBCHEM_CONFORMER_ID>
0002036200000001

> <PUBCHEM_MMFF94_ENERGY>
-4.1501

> <PUBCHEM_FEATURE_SELFOVERLAP>
55.968

> <PUBCHEM_SHAPE_FINGERPRINT>
10498660 4 18334569114790697085
11796584 16 13110964206323547837
12251169 10 11602825709229268640
12596602 18 14707213244667540420
12616999 72 17275103907889852318
12633257 1 14129350571977869997
12670546 177 18272930526985758375
12730499 353 18413113861539118499
13583140 156 16008743654394456753
14123255 52 18260544528367063905
14911166 2 18273496779885094008
14943859 89 18187085069983562778
15885798 251 10519987075566094595
16945 1 17847063281190623706
17804303 29 8790889596356857914
17834072 32 18263368147679870068
17834072 33 17988640822167539229
1813 80 13039191415977594402
18186145 218 17989197145171084897
193927 3 12535347947400512757
19784866 240 15410068257610420374
200 152 16558755619873657218
20645477 56 18259987102063332220
20645477 70 17988370282177973782
20871999 31 18270114750589858823
21637258 2 13901909969159726284
231179 274 18040150699634104348
23227448 37 18190462842618489956
23402539 116 18408598171520410820
23402655 69 18201717319444808901
23557571 272 18264220268837961922
23559900 14 18272092734381955912
25 1 18342740702034646058
26918003 58 9223229650663396917
2838139 119 18187926248488748668
2916195 48 18335135435929565576
293599 30 18335421266139978537
328317 168 18334012808708246063
3323516 105 17989481948409839435
3759504 43 17895195540562424683
4028521 119 18410855468728717477
4047638 21 18407763633989992472
42 15 9727632817207636141
4990 188 17846500330862382981
58051976 378 18411980230532738045
633830 44 18267866090993132031
69090 78 18411420626532835646
83771 10 10735878365676188402

> <PUBCHEM_SHAPE_MULTIPOLES>
339.95
10.15
1.84
1.03
2.78
0.39
0.13
-5.07
-2.49
-0.27
-0.1
0.3
0.01
0.29

> <PUBCHEM_SHAPE_SELFOVERLAP>
679.972

> <PUBCHEM_SHAPE_VOLUME>
199.9

> <PUBCHEM_COORDINATE_TYPE>
2
5
10

$$$$
