131965
  -OEChem-03292013323D

 56 56  0     1  0  0  0  0  0999 V2000
   -0.9219   -2.9159    0.6591 S   0  0  0  0  0  0  0  0  0  0  0  0
    4.9693   -2.3099   -0.7802 S   0  0  0  0  0  0  0  0  0  0  0  0
    0.4401   -0.2925    2.3850 O   0  0  0  0  0  0  0  0  0  0  0  0
    2.7079    2.4885   -0.5940 O   0  0  0  0  0  0  0  0  0  0  0  0
    4.5424    2.3389    0.7818 O   0  0  0  0  0  0  0  0  0  0  0  0
   -1.1527   -3.9344   -1.7710 O   0  0  0  0  0  0  0  0  0  0  0  0
    1.4526    0.5223    0.4642 N   0  0  0  0  0  0  0  0  0  0  0  0
   -0.9015   -0.0929    0.3690 C   0  0  1  0  0  0  0  0  0  0  0  0
   -2.1400    0.1837    1.2498 C   0  0  0  0  0  0  0  0  0  0  0  0
    2.7657    0.7188    1.0261 C   0  0  1  0  0  0  0  0  0  0  0  0
    0.3835    0.0263    1.1990 C   0  0  0  0  0  0  0  0  0  0  0  0
   -0.9441   -1.4313   -0.3961 C   0  0  0  0  0  0  0  0  0  0  0  0
   -3.3441    0.6704    0.4808 C   0  0  0  0  0  0  0  0  0  0  0  0
    3.6424   -0.5281    0.8511 C   0  0  0  0  0  0  0  0  0  0  0  0
   -3.5564    2.0323    0.2667 C   0  0  0  0  0  0  0  0  0  0  0  0
    3.9316   -0.8272   -0.6201 C   0  0  0  0  0  0  0  0  0  0  0  0
   -4.2517   -0.2640   -0.0184 C   0  0  0  0  0  0  0  0  0  0  0  0
    3.4486    1.9306    0.4045 C   0  0  0  0  0  0  0  0  0  0  0  0
   -4.6762    2.4598   -0.4468 C   0  0  0  0  0  0  0  0  0  0  0  0
   -2.5994    3.0514    0.7923 C   0  0  0  0  0  0  0  0  0  0  0  0
   -5.3714    0.1636   -0.7319 C   0  0  0  0  0  0  0  0  0  0  0  0
   -5.5836    1.5254   -0.9461 C   0  0  0  0  0  0  0  0  0  0  0  0
   -1.0674   -4.1669   -0.5713 C   0  0  0  0  0  0  0  0  0  0  0  0
    3.2812    3.6367   -1.2281 C   0  0  0  0  0  0  0  0  0  0  0  0
    3.6869   -3.5559   -0.5170 C   0  0  0  0  0  0  0  0  0  0  0  0
   -1.0793   -5.5576   -0.0033 C   0  0  0  0  0  0  0  0  0  0  0  0
    2.3375    4.1280   -2.3050 C   0  0  0  0  0  0  0  0  0  0  0  0
   -0.8561    0.6992   -0.3922 H   0  0  0  0  0  0  0  0  0  0  0  0
   -2.4201   -0.7118    1.8191 H   0  0  0  0  0  0  0  0  0  0  0  0
   -1.8920    0.9109    2.0330 H   0  0  0  0  0  0  0  0  0  0  0  0
    2.6454    0.9357    2.0943 H   0  0  0  0  0  0  0  0  0  0  0  0
   -0.0694   -1.4909   -1.0545 H   0  0  0  0  0  0  0  0  0  0  0  0
   -1.8309   -1.4631   -1.0366 H   0  0  0  0  0  0  0  0  0  0  0  0
    1.3181    0.7397   -0.5192 H   0  0  0  0  0  0  0  0  0  0  0  0
    3.1379   -1.3778    1.3260 H   0  0  0  0  0  0  0  0  0  0  0  0
    4.5889   -0.3755    1.3862 H   0  0  0  0  0  0  0  0  0  0  0  0
    3.0138   -0.9624   -1.2009 H   0  0  0  0  0  0  0  0  0  0  0  0
    4.4887   -0.0039   -1.0779 H   0  0  0  0  0  0  0  0  0  0  0  0
   -4.1030   -1.3281    0.1440 H   0  0  0  0  0  0  0  0  0  0  0  0
   -4.8576    3.5170   -0.6217 H   0  0  0  0  0  0  0  0  0  0  0  0
   -2.8431    4.0557    0.4275 H   0  0  0  0  0  0  0  0  0  0  0  0
   -1.5759    2.8421    0.4667 H   0  0  0  0  0  0  0  0  0  0  0  0
   -2.6379    3.0872    1.8857 H   0  0  0  0  0  0  0  0  0  0  0  0
   -6.0786   -0.5638   -1.1197 H   0  0  0  0  0  0  0  0  0  0  0  0
   -6.4557    1.8582   -1.5013 H   0  0  0  0  0  0  0  0  0  0  0  0
    3.4363    4.4255   -0.4837 H   0  0  0  0  0  0  0  0  0  0  0  0
    4.2435    3.3637   -1.6756 H   0  0  0  0  0  0  0  0  0  0  0  0
    4.1188   -4.5480   -0.6749 H   0  0  0  0  0  0  0  0  0  0  0  0
    2.8669   -3.4232   -1.2279 H   0  0  0  0  0  0  0  0  0  0  0  0
    3.3008   -3.5137    0.5039 H   0  0  0  0  0  0  0  0  0  0  0  0
   -0.1450   -5.7582    0.5286 H   0  0  0  0  0  0  0  0  0  0  0  0
   -1.1715   -6.2798   -0.8203 H   0  0  0  0  0  0  0  0  0  0  0  0
   -1.9333   -5.6867    0.6674 H   0  0  0  0  0  0  0  0  0  0  0  0
    2.7452    5.0073   -2.8114 H   0  0  0  0  0  0  0  0  0  0  0  0
    1.3640    4.3866   -1.8752 H   0  0  0  0  0  0  0  0  0  0  0  0
    2.1584    3.3432   -3.0474 H   0  0  0  0  0  0  0  0  0  0  0  0
  1 12  1  0  0  0  0
  1 23  1  0  0  0  0
  2 16  1  0  0  0  0
  2 25  1  0  0  0  0
  3 11  2  0  0  0  0
  4 18  1  0  0  0  0
  4 24  1  0  0  0  0
  5 18  2  0  0  0  0
  6 23  2  0  0  0  0
  7 10  1  0  0  0  0
  7 11  1  0  0  0  0
  7 34  1  0  0  0  0
  8  9  1  0  0  0  0
  8 11  1  0  0  0  0
  8 12  1  0  0  0  0
  8 28  1  0  0  0  0
  9 13  1  0  0  0  0
  9 29  1  0  0  0  0
  9 30  1  0  0  0  0
 10 14  1  0  0  0  0
 10 18  1  0  0  0  0
 10 31  1  0  0  0  0
 12 32  1  0  0  0  0
 12 33  1  0  0  0  0
 13 15  1  0  0  0  0
 13 17  2  0  0  0  0
 14 16  1  0  0  0  0
 14 35  1  0  0  0  0
 14 36  1  0  0  0  0
 15 19  2  0  0  0  0
 15 20  1  0  0  0  0
 16 37  1  0  0  0  0
 16 38  1  0  0  0  0
 17 21  1  0  0  0  0
 17 39  1  0  0  0  0
 19 22  1  0  0  0  0
 19 40  1  0  0  0  0
 20 41  1  0  0  0  0
 20 42  1  0  0  0  0
 20 43  1  0  0  0  0
 21 22  2  0  0  0  0
 21 44  1  0  0  0  0
 22 45  1  0  0  0  0
 23 26  1  0  0  0  0
 24 27  1  0  0  0  0
 24 46  1  0  0  0  0
 24 47  1  0  0  0  0
 25 48  1  0  0  0  0
 25 49  1  0  0  0  0
 25 50  1  0  0  0  0
 26 51  1  0  0  0  0
 26 52  1  0  0  0  0
 26 53  1  0  0  0  0
 27 54  1  0  0  0  0
 27 55  1  0  0  0  0
 27 56  1  0  0  0  0
M  END
> <PUBCHEM_COMPOUND_CID>
131965

> <PUBCHEM_CONFORMER_RMSD>
1.2

> <PUBCHEM_CONFORMER_DIVERSEORDER>
1
33
22
2
5
13
38
48
25
45
40
17
19
49
10
43
51
47
28
44
46
21
26
30
24
20
12
35
34
32
23
42
3
11
6
31
8
7
18
39
29
37
4
36
16
27
9
50
14
41
15

> <PUBCHEM_MMFF94_PARTIAL_CHARGES>
30
1 -0.37
10 0.36
11 0.57
12 0.23
13 -0.14
15 -0.14
16 0.23
17 -0.15
18 0.66
19 -0.15
2 -0.46
20 0.14
21 -0.15
22 -0.15
23 0.65
24 0.28
25 0.23
26 0.06
3 -0.57
34 0.37
39 0.15
4 -0.43
40 0.15
44 0.15
45 0.15
5 -0.57
6 -0.57
7 -0.73
8 0.06
9 0.14

> <PUBCHEM_EFFECTIVE_ROTOR_COUNT>
14

> <PUBCHEM_PHARMACOPHORE_FEATURES>
6
1 25 hydrophobe
1 3 acceptor
1 5 acceptor
1 7 donor
4 1 8 9 12 hydrophobe
6 13 15 17 19 21 22 rings

> <PUBCHEM_HEAVY_ATOM_COUNT>
27

> <PUBCHEM_ATOM_DEF_STEREO_COUNT>
2

> <PUBCHEM_ATOM_UDEF_STEREO_COUNT>
0

> <PUBCHEM_BOND_DEF_STEREO_COUNT>
0

> <PUBCHEM_BOND_UDEF_STEREO_COUNT>
0

> <PUBCHEM_ISOTOPIC_ATOM_COUNT>
0

> <PUBCHEM_COMPONENT_COUNT>
1

> <PUBCHEM_CACTVS_TAUTO_COUNT>
2

> <PUBCHEM_CONFORMER_ID>
0002037D00000001

> <PUBCHEM_MMFF94_ENERGY>
52.8489

> <PUBCHEM_FEATURE_SELFOVERLAP>
30.446

> <PUBCHEM_SHAPE_FINGERPRINT>
10940486 97 18410014368994796870
11513181 2 18409455773242006605
12596602 18 11098147621718455029
12788726 201 17903059368226196563
14251757 5 17978499064621451575
14289585 56 17972022665801861285
17349148 13 16845294891127959154
18681886 176 18337097999676227856
20101258 96 17616537697773974531
20197701 30 18271515408471855503
20775438 99 17410735436503293021
21860390 5 18187369856760555772
23366157 5 17978790113275183939
23558518 356 18117555343837000602
23559900 14 18413103940032510384
25265897 201 17977985501979697757
340366 18 18409169909282887694
4066623 53 16965192004331213413
474 4 17894907481416939768
6138700 20 17982454789493816790

> <PUBCHEM_SHAPE_MULTIPOLES>
534.89
11.03
6.62
1.53
4.2
5.27
-0.08
-5.2
-2.62
-3.5
-3.33
-0.55
-0.66
-0.42

> <PUBCHEM_SHAPE_SELFOVERLAP>
1039.993

> <PUBCHEM_SHAPE_VOLUME>
325.7

> <PUBCHEM_COORDINATE_TYPE>
2
5
10

$$$$
