131953098
  -OEChem-03292013293D

 71 73  0     1  0  0  0  0  0999 V2000
    7.6330    0.1845   -1.7966 O   0  0  0  0  0  0  0  0  0  0  0  0
   -6.2286   -0.5724   -0.0894 O   0  0  0  0  0  0  0  0  0  0  0  0
   -8.7878    2.1470   -1.8001 O   0  0  0  0  0  0  0  0  0  0  0  0
   -4.4883    0.9806   -0.0400 O   0  0  0  0  0  0  0  0  0  0  0  0
   -9.8473   -0.2185   -0.4855 O   0  0  0  0  0  0  0  0  0  0  0  0
   -6.3618    3.0640   -0.4050 O   0  0  0  0  0  0  0  0  0  0  0  0
   -9.0005   -2.7219    0.0583 O   0  0  0  0  0  0  0  0  0  0  0  0
   -6.8217   -3.0140   -0.5444 O   0  0  0  0  0  0  0  0  0  0  0  0
   -4.0345    0.0750    2.0336 O   0  0  0  0  0  0  0  0  0  0  0  0
    7.5439   -0.0313   -0.3792 C   0  0  1  0  0  0  0  0  0  0  0  0
    8.3127   -0.9859   -1.3131 C   0  0  2  0  0  0  0  0  0  0  0  0
    8.3132    1.0252    0.4363 C   0  0  0  0  0  0  0  0  0  0  0  0
    9.8077   -0.8779   -1.4764 C   0  0  0  0  0  0  0  0  0  0  0  0
    9.7316    1.2593   -0.1477 C   0  0  0  0  0  0  0  0  0  0  0  0
   10.4812   -0.0458   -0.3940 C   0  0  0  0  0  0  0  0  0  0  0  0
    7.6996   -2.2554   -1.8337 C   0  0  0  0  0  0  0  0  0  0  0  0
    6.2792   -0.5241    0.2019 C   0  0  0  0  0  0  0  0  0  0  0  0
    7.5467    2.3684    0.4490 C   0  0  0  0  0  0  0  0  0  0  0  0
    8.4713    0.5486    1.8956 C   0  0  0  0  0  0  0  0  0  0  0  0
    5.0664    0.0164   -0.0103 C   0  0  0  0  0  0  0  0  0  0  0  0
    3.7951   -0.4415    0.5479 C   0  0  0  0  0  0  0  0  0  0  0  0
    3.8291   -1.6454    1.4611 C   0  0  0  0  0  0  0  0  0  0  0  0
    2.6032    0.1435    0.2983 C   0  0  0  0  0  0  0  0  0  0  0  0
    1.2916   -0.2289    0.7981 C   0  0  0  0  0  0  0  0  0  0  0  0
   -8.1476    1.4716   -0.7163 C   0  0  1  0  0  0  0  0  0  0  0  0
   -8.4768   -0.0173   -0.8268 C   0  0  1  0  0  0  0  0  0  0  0  0
   -6.6397    1.7158   -0.7821 C   0  0  2  0  0  0  0  0  0  0  0  0
   -7.6109   -0.8337    0.1244 C   0  0  1  0  0  0  0  0  0  0  0  0
   -5.8865    0.7866    0.1701 C   0  0  1  0  0  0  0  0  0  0  0  0
    0.1739    0.4435    0.4696 C   0  0  0  0  0  0  0  0  0  0  0  0
   -1.1846    0.1370    0.9149 C   0  0  0  0  0  0  0  0  0  0  0  0
   -7.7330   -2.2952   -0.1620 C   0  0  0  0  0  0  0  0  0  0  0  0
   -2.2806    0.8385    0.5612 C   0  0  0  0  0  0  0  0  0  0  0  0
   -3.6812    0.5766    0.9796 C   0  0  0  0  0  0  0  0  0  0  0  0
   -1.3681   -1.0729    1.8027 C   0  0  0  0  0  0  0  0  0  0  0  0
   10.0269   -0.4452   -2.4610 H   0  0  0  0  0  0  0  0  0  0  0  0
   10.2590   -1.8776   -1.4728 H   0  0  0  0  0  0  0  0  0  0  0  0
   10.3193    1.8910    0.5304 H   0  0  0  0  0  0  0  0  0  0  0  0
    9.6622    1.8120   -1.0942 H   0  0  0  0  0  0  0  0  0  0  0  0
   11.5094    0.1758   -0.7039 H   0  0  0  0  0  0  0  0  0  0  0  0
   10.5594   -0.6283    0.5298 H   0  0  0  0  0  0  0  0  0  0  0  0
    6.6140   -2.1813   -1.9540 H   0  0  0  0  0  0  0  0  0  0  0  0
    7.9118   -3.0817   -1.1478 H   0  0  0  0  0  0  0  0  0  0  0  0
    8.1176   -2.5084   -2.8140 H   0  0  0  0  0  0  0  0  0  0  0  0
    6.3822   -1.3910    0.8490 H   0  0  0  0  0  0  0  0  0  0  0  0
    6.5803    2.2840    0.9564 H   0  0  0  0  0  0  0  0  0  0  0  0
    7.3549    2.7206   -0.5707 H   0  0  0  0  0  0  0  0  0  0  0  0
    8.1222    3.1425    0.9692 H   0  0  0  0  0  0  0  0  0  0  0  0
    7.5092    0.5365    2.4214 H   0  0  0  0  0  0  0  0  0  0  0  0
    9.1339    1.2124    2.4625 H   0  0  0  0  0  0  0  0  0  0  0  0
    8.8750   -0.4675    1.9558 H   0  0  0  0  0  0  0  0  0  0  0  0
    5.0012    0.8838   -0.6654 H   0  0  0  0  0  0  0  0  0  0  0  0
    4.2549   -2.5049    0.9291 H   0  0  0  0  0  0  0  0  0  0  0  0
    4.4612   -1.4348    2.3322 H   0  0  0  0  0  0  0  0  0  0  0  0
    2.8759   -1.9890    1.8593 H   0  0  0  0  0  0  0  0  0  0  0  0
    2.6038    1.0104   -0.3637 H   0  0  0  0  0  0  0  0  0  0  0  0
    1.2167   -1.0710    1.4701 H   0  0  0  0  0  0  0  0  0  0  0  0
   -8.5714    1.8981    0.2005 H   0  0  0  0  0  0  0  0  0  0  0  0
   -8.3484   -0.3559   -1.8623 H   0  0  0  0  0  0  0  0  0  0  0  0
   -6.2744    1.5922   -1.8085 H   0  0  0  0  0  0  0  0  0  0  0  0
   -7.8586   -0.6711    1.1807 H   0  0  0  0  0  0  0  0  0  0  0  0
   -6.1365    1.0423    1.2096 H   0  0  0  0  0  0  0  0  0  0  0  0
    0.2535    1.3010   -0.1978 H   0  0  0  0  0  0  0  0  0  0  0  0
   -8.4163    1.8049   -2.6311 H   0  0  0  0  0  0  0  0  0  0  0  0
   -9.9748    0.0707    0.4342 H   0  0  0  0  0  0  0  0  0  0  0  0
   -6.6777    3.1940    0.5055 H   0  0  0  0  0  0  0  0  0  0  0  0
   -2.1616    1.6848   -0.1141 H   0  0  0  0  0  0  0  0  0  0  0  0
   -2.3842   -1.4682    1.8400 H   0  0  0  0  0  0  0  0  0  0  0  0
   -1.0466   -0.8481    2.8252 H   0  0  0  0  0  0  0  0  0  0  0  0
   -0.7806   -1.9214    1.4326 H   0  0  0  0  0  0  0  0  0  0  0  0
   -9.1019   -3.6800   -0.1260 H   0  0  0  0  0  0  0  0  0  0  0  0
  1 10  1  0  0  0  0
  1 11  1  0  0  0  0
  2 28  1  0  0  0  0
  2 29  1  0  0  0  0
  3 25  1  0  0  0  0
  3 64  1  0  0  0  0
  4 29  1  0  0  0  0
  4 34  1  0  0  0  0
  5 26  1  0  0  0  0
  5 65  1  0  0  0  0
  6 27  1  0  0  0  0
  6 66  1  0  0  0  0
  7 32  1  0  0  0  0
  7 71  1  0  0  0  0
  8 32  2  0  0  0  0
  9 34  2  0  0  0  0
 10 11  1  0  0  0  0
 10 12  1  0  0  0  0
 10 17  1  0  0  0  0
 11 13  1  0  0  0  0
 11 16  1  0  0  0  0
 12 14  1  0  0  0  0
 12 18  1  0  0  0  0
 12 19  1  0  0  0  0
 13 15  1  0  0  0  0
 13 36  1  0  0  0  0
 13 37  1  0  0  0  0
 14 15  1  0  0  0  0
 14 38  1  0  0  0  0
 14 39  1  0  0  0  0
 15 40  1  0  0  0  0
 15 41  1  0  0  0  0
 16 42  1  0  0  0  0
 16 43  1  0  0  0  0
 16 44  1  0  0  0  0
 17 20  2  0  0  0  0
 17 45  1  0  0  0  0
 18 46  1  0  0  0  0
 18 47  1  0  0  0  0
 18 48  1  0  0  0  0
 19 49  1  0  0  0  0
 19 50  1  0  0  0  0
 19 51  1  0  0  0  0
 20 21  1  0  0  0  0
 20 52  1  0  0  0  0
 21 22  1  0  0  0  0
 21 23  2  0  0  0  0
 22 53  1  0  0  0  0
 22 54  1  0  0  0  0
 22 55  1  0  0  0  0
 23 24  1  0  0  0  0
 23 56  1  0  0  0  0
 24 30  2  0  0  0  0
 24 57  1  0  0  0  0
 25 26  1  0  0  0  0
 25 27  1  0  0  0  0
 25 58  1  0  0  0  0
 26 28  1  0  0  0  0
 26 59  1  0  0  0  0
 27 29  1  0  0  0  0
 27 60  1  0  0  0  0
 28 32  1  0  0  0  0
 28 61  1  0  0  0  0
 29 62  1  0  0  0  0
 30 31  1  0  0  0  0
 30 63  1  0  0  0  0
 31 33  2  0  0  0  0
 31 35  1  0  0  0  0
 33 34  1  0  0  0  0
 33 67  1  0  0  0  0
 35 68  1  0  0  0  0
 35 69  1  0  0  0  0
 35 70  1  0  0  0  0
M  END
> <PUBCHEM_COMPOUND_CID>
131953098

> <PUBCHEM_CONFORMER_RMSD>
1.4

> <PUBCHEM_CONFORMER_DIVERSEORDER>
1
42
55
40
10
66
41
52
63
28
50
56
29
60
59
75
26
45
17
25
21
24
54
65
32
67
39
20
11
18
8
69
4
47
16
15
31
49
46
62
27
77
38
7
74
22
53
34
6
57
13
58
61
23
35
36
70
33
44
78
43
30
68
3
72
76
64
12
9
19
51
37
5
71
2
73
14
48

> <PUBCHEM_MMFF94_PARTIAL_CHARGES>
41
1 -0.3
10 0.09
11 -0.04
12 0.09
13 0.09
16 0.09
17 -0.19
2 -0.56
20 -0.15
21 -0.14
22 0.14
23 -0.15
24 -0.15
25 0.28
26 0.28
27 0.28
28 0.34
29 0.56
3 -0.68
30 -0.15
31 -0.14
32 0.66
33 -0.14
34 0.71
35 0.14
4 -0.43
45 0.15
5 -0.68
52 0.15
56 0.15
57 0.15
6 -0.68
63 0.15
64 0.4
65 0.4
66 0.4
67 0.15
7 -0.65
71 0.5
8 -0.57
9 -0.57

> <PUBCHEM_EFFECTIVE_ROTOR_COUNT>
10.2

> <PUBCHEM_PHARMACOPHORE_FEATURES>
17
1 1 acceptor
1 2 acceptor
1 22 hydrophobe
1 3 acceptor
1 3 donor
1 35 hydrophobe
1 5 acceptor
1 5 donor
1 6 acceptor
1 6 donor
1 7 acceptor
1 8 acceptor
1 9 acceptor
3 12 18 19 hydrophobe
3 7 8 32 anion
6 2 25 26 27 28 29 rings
7 1 10 11 12 13 14 15 rings

> <PUBCHEM_HEAVY_ATOM_COUNT>
35

> <PUBCHEM_ATOM_DEF_STEREO_COUNT>
5

> <PUBCHEM_ATOM_UDEF_STEREO_COUNT>
2

> <PUBCHEM_BOND_DEF_STEREO_COUNT>
4

> <PUBCHEM_BOND_UDEF_STEREO_COUNT>
0

> <PUBCHEM_ISOTOPIC_ATOM_COUNT>
0

> <PUBCHEM_COMPONENT_COUNT>
1

> <PUBCHEM_CACTVS_TAUTO_COUNT>
3

> <PUBCHEM_CONFORMER_ID>
07DD71CA00000001

> <PUBCHEM_MMFF94_ENERGY>
89.2798

> <PUBCHEM_FEATURE_SELFOVERLAP>
86.361

> <PUBCHEM_SHAPE_FINGERPRINT>
10054150 59 17110166465678999467
12082328 90 17846501400636761609
12089408 11 17530679901135136744
131240 100 18270679878682374384
13553643 46 13984663659504877510
14150023 24 12685088189857081529
14937079 2 17749115534399372796
150020 25 18343862229627728392
15064986 266 17561086869885301961
15065858 18 18413669107027761048
15247644 1 16487257647812197542
15461852 350 18408606967771675331
15510794 2 18273216400415421446
15554971 5 17603580790648253552
1577012 14 17821723906341784403
16728433 110 16056874733515077376
1754908 1 10591756567703563342
1754911 235 18408603656151586052
17686467 74 17632857529336561912
1818759 1 15051731988652045756
19315958 150 12901543525290218208
20105231 36 17203607112528065527
20609170 92 18341619183506804639
21792961 116 17561083588303264987
21867018 265 18272087231927872551
22164985 6 18260260841550904183
232437 2 15841551868793022468
23576562 1 18263362641378750973
24771293 8 17458346303919480005
395649 100 17822292427095213779
44280117 145 18040996255459388327
45377200 153 18060137677871059951
4625314 4 18342457075168420384
54039377 194 17775284997898184847
5470011 282 18060420227168855692
636775 8 18343304795356917587
6691757 9 16877953737122365593
67123 10 18411418418945941296
9962374 69 14979663408166941360

> <PUBCHEM_SHAPE_MULTIPOLES>
667.46
46.15
2.3
1.52
1.85
0.45
-0.07
1.09
17.16
-4.11
0.58
1.48
0.18
3.2

> <PUBCHEM_SHAPE_SELFOVERLAP>
1383.251

> <PUBCHEM_SHAPE_VOLUME>
376.4

> <PUBCHEM_COORDINATE_TYPE>
2
5
10

$$$$
