131923
  -OEChem-03292013323D

 42 46  0     1  0  0  0  0  0999 V2000
   -4.3087   -1.7288   -0.2986 S   0  0  0  0  0  0  0  0  0  0  0  0
    1.2577   -1.7411   -0.3418 F   0  0  0  0  0  0  0  0  0  0  0  0
    2.4790    2.7927    0.0893 F   0  0  0  0  0  0  0  0  0  0  0  0
   -2.5447    2.8337    0.2760 O   0  0  0  0  0  0  0  0  0  0  0  0
   -5.2473    1.8984    0.0801 O   0  0  0  0  0  0  0  0  0  0  0  0
   -1.5368   -1.1027   -0.1500 N   0  0  0  0  0  0  0  0  0  0  0  0
    3.1926    0.1445   -0.2062 N   0  0  3  0  0  0  0  0  0  0  0  0
    6.6539    0.0163    0.9117 N   0  0  0  0  0  0  0  0  0  0  0  0
   -5.3444   -0.4072   -0.1772 N   0  0  0  0  0  0  0  0  0  0  0  0
   -1.2146   -2.5499   -0.2288 C   0  0  0  0  0  0  0  0  0  0  0  0
   -0.3173   -3.1841    0.7773 C   0  0  0  0  0  0  0  0  0  0  0  0
   -1.7823   -3.5085    0.7601 C   0  0  0  0  0  0  0  0  0  0  0  0
   -0.4935   -0.1254   -0.0961 C   0  0  0  0  0  0  0  0  0  0  0  0
    5.3771   -0.4659    0.4149 C   0  0  1  0  0  0  0  0  0  0  0  0
   -2.8783   -0.6986   -0.1439 C   0  0  0  0  0  0  0  0  0  0  0  0
    4.1880    0.4069    0.8333 C   0  0  0  0  0  0  0  0  0  0  0  0
    3.7792   -0.5487   -1.3523 C   0  0  0  0  0  0  0  0  0  0  0  0
    5.2849   -0.4480   -1.1069 C   0  0  0  0  0  0  0  0  0  0  0  0
    1.8665    0.5100   -0.1191 C   0  0  0  0  0  0  0  0  0  0  0  0
   -0.8117    1.2410    0.0452 C   0  0  0  0  0  0  0  0  0  0  0  0
    0.8681   -0.4671   -0.1820 C   0  0  0  0  0  0  0  0  0  0  0  0
   -3.2418    0.5947   -0.0156 C   0  0  0  0  0  0  0  0  0  0  0  0
   -2.2293    1.6616    0.1193 C   0  0  0  0  0  0  0  0  0  0  0  0
    1.5273    1.8504    0.0286 C   0  0  0  0  0  0  0  0  0  0  0  0
    0.1883    2.2206    0.1100 C   0  0  0  0  0  0  0  0  0  0  0  0
   -4.7119    0.8051   -0.0274 C   0  0  0  0  0  0  0  0  0  0  0  0
   -1.1262   -2.8898   -1.2558 H   0  0  0  0  0  0  0  0  0  0  0  0
    0.0340   -2.6187    1.6323 H   0  0  0  0  0  0  0  0  0  0  0  0
    0.3639   -3.9576    0.4426 H   0  0  0  0  0  0  0  0  0  0  0  0
   -2.0759   -4.4888    0.4048 H   0  0  0  0  0  0  0  0  0  0  0  0
   -2.3602   -3.1483    1.6024 H   0  0  0  0  0  0  0  0  0  0  0  0
    5.2169   -1.4902    0.7749 H   0  0  0  0  0  0  0  0  0  0  0  0
    3.8255    0.1285    1.8290 H   0  0  0  0  0  0  0  0  0  0  0  0
    4.4513    1.4712    0.8375 H   0  0  0  0  0  0  0  0  0  0  0  0
    3.5033   -0.0792   -2.3022 H   0  0  0  0  0  0  0  0  0  0  0  0
    3.4662   -1.5982   -1.3671 H   0  0  0  0  0  0  0  0  0  0  0  0
    5.8389   -1.2642   -1.5805 H   0  0  0  0  0  0  0  0  0  0  0  0
    5.6614    0.4999   -1.5129 H   0  0  0  0  0  0  0  0  0  0  0  0
   -0.0576    3.2732    0.2198 H   0  0  0  0  0  0  0  0  0  0  0  0
    6.8120    0.9727    0.5963 H   0  0  0  0  0  0  0  0  0  0  0  0
    7.4084   -0.5391    0.5101 H   0  0  0  0  0  0  0  0  0  0  0  0
   -6.3527   -0.5086   -0.2129 H   0  0  0  0  0  0  0  0  0  0  0  0
  1  9  1  0  0  0  0
  1 15  1  0  0  0  0
  2 21  1  0  0  0  0
  3 24  1  0  0  0  0
  4 23  2  0  0  0  0
  5 26  2  0  0  0  0
  6 10  1  0  0  0  0
  6 13  1  0  0  0  0
  6 15  1  0  0  0  0
  7 16  1  0  0  0  0
  7 17  1  0  0  0  0
  7 19  1  0  0  0  0
  8 14  1  0  0  0  0
  8 40  1  0  0  0  0
  8 41  1  0  0  0  0
  9 26  1  0  0  0  0
  9 42  1  0  0  0  0
 10 11  1  0  0  0  0
 10 12  1  0  0  0  0
 10 27  1  0  0  0  0
 11 12  1  0  0  0  0
 11 28  1  0  0  0  0
 11 29  1  0  0  0  0
 12 30  1  0  0  0  0
 12 31  1  0  0  0  0
 13 20  1  0  0  0  0
 13 21  2  0  0  0  0
 14 16  1  0  0  0  0
 14 18  1  0  0  0  0
 14 32  1  0  0  0  0
 15 22  2  0  0  0  0
 16 33  1  0  0  0  0
 16 34  1  0  0  0  0
 17 18  1  0  0  0  0
 17 35  1  0  0  0  0
 17 36  1  0  0  0  0
 18 37  1  0  0  0  0
 18 38  1  0  0  0  0
 19 21  1  0  0  0  0
 19 24  2  0  0  0  0
 20 23  1  0  0  0  0
 20 25  2  0  0  0  0
 22 23  1  0  0  0  0
 22 26  1  0  0  0  0
 24 25  1  0  0  0  0
 25 39  1  0  0  0  0
M  END
> <PUBCHEM_COMPOUND_CID>
131923

> <PUBCHEM_CONFORMER_RMSD>
0.8

> <PUBCHEM_CONFORMER_DIVERSEORDER>
2
1

> <PUBCHEM_MMFF94_PARTIAL_CHARGES>
34
1 -0.09
10 0.07
11 -0.2
12 -0.2
13 0.1
14 0.27
15 0.2
16 0.37
17 0.37
19 0.1
2 -0.19
20 0.09
21 0.19
22 0.03
23 0.47
24 0.19
25 -0.15
26 0.62
27 0.1
28 0.1
29 0.1
3 -0.19
30 0.1
31 0.1
39 0.15
4 -0.57
40 0.36
41 0.36
42 0.37
5 -0.57
6 -0.37
7 -0.84
8 -0.99
9 -0.44

> <PUBCHEM_EFFECTIVE_ROTOR_COUNT>
3.6

> <PUBCHEM_PHARMACOPHORE_FEATURES>
12
1 22 anion
1 4 acceptor
1 5 acceptor
1 6 cation
1 7 cation
1 8 cation
1 8 donor
1 9 donor
5 1 9 15 22 26 rings
5 7 14 16 17 18 rings
6 13 19 20 21 24 25 rings
6 6 13 15 20 22 23 rings

> <PUBCHEM_HEAVY_ATOM_COUNT>
26

> <PUBCHEM_ATOM_DEF_STEREO_COUNT>
0

> <PUBCHEM_ATOM_UDEF_STEREO_COUNT>
1

> <PUBCHEM_BOND_DEF_STEREO_COUNT>
0

> <PUBCHEM_BOND_UDEF_STEREO_COUNT>
0

> <PUBCHEM_ISOTOPIC_ATOM_COUNT>
0

> <PUBCHEM_COMPONENT_COUNT>
1

> <PUBCHEM_CACTVS_TAUTO_COUNT>
2

> <PUBCHEM_CONFORMER_ID>
0002035300000002

> <PUBCHEM_MMFF94_ENERGY>
82.8994

> <PUBCHEM_FEATURE_SELFOVERLAP>
60.972

> <PUBCHEM_SHAPE_FINGERPRINT>
10 15 17988065787130884272
10319926 262 18269536327045449562
10411042 1 17906171007745197787
10906281 52 18271264771328402420
10967382 1 18338518513407661631
1100329 8 18410011078216508641
11578080 2 16700318961562501714
11607047 403 15832792326359598843
11646440 116 18201729461343755073
12011746 2 18411419492524118327
12035758 1 18412272756407502275
12236239 1 17749108885709973764
12788726 201 18272092639207126944
12838862 33 18338780236004325509
13140716 1 18266460004024806658
13402501 40 18272371966810861566
13583140 156 16733278927186398040
13862211 1 18410852174568156535
14115302 16 18188500167313188604
14466204 15 18338231561799444921
14790565 3 18336837402614975597
14866123 147 18335982068694966891
15042514 8 18336269062888846667
15099037 51 18410013242821815111
15196674 1 18339923822111609509
15209289 33 18411138039180538479
16752209 62 18408318882529072906
17349148 13 18341893012987248452
17492 89 17975976784551739906
17804303 29 18411703218121993404
19319366 153 17530960272643337034
19591789 44 18193840331985989590
20028762 73 18272930570163038359
20775438 99 16546889944254948727
21267235 1 18411707616748616839
21279426 13 18268432338943646182
21781051 124 17968957399799842427
21859007 373 17897419775281785852
23402539 116 18413383246145630031
23557571 272 18201168680818316436
23558518 356 17899981822115437234
23559900 14 18342176717511239804
2748010 2 17980485885968367319
283562 15 18269556048765580665
3004659 81 18334020497570189764
3178227 256 18335436659867257449
335352 9 18411136948343391053
3383291 50 18336545018479602795
34934 24 18269832030810857287
350125 39 18409731746629360885
3680242 22 18335986354997780122
404807 14 15332688893649378918
4073 2 18334858372944460962
484989 97 18118399777821420375
5104073 3 18341054132923453185
5309563 4 16680071648116173482
5364581 5 17983555680296355392
5385378 56 18193281793449011979
59755656 215 18341896234191660743
6138700 20 18338800013653445030
7226269 152 18272368667938426864
8809292 202 18337676428733753943
9709674 26 18196936788589046901
9981440 41 18260835852268748707

> <PUBCHEM_SHAPE_MULTIPOLES>
492.71
11.58
3.27
0.85
8.8
1.19
0.07
-0.68
-0.02
-2.72
-0.68
0.81
0.24
0.23

> <PUBCHEM_SHAPE_SELFOVERLAP>
1085.603

> <PUBCHEM_SHAPE_VOLUME>
269

> <PUBCHEM_COORDINATE_TYPE>
2
5
10

$$$$
