131944
  -OEChem-03292013323D

 54 55  0     1  0  0  0  0  0999 V2000
   -3.4972    1.1294    0.9249 O   0  0  0  0  0  0  0  0  0  0  0  0
   -1.0013   -0.6834    0.7106 O   0  0  0  0  0  0  0  0  0  0  0  0
   -4.1865   -0.7886   -2.0088 O   0  0  0  0  0  0  0  0  0  0  0  0
   -6.5591    0.8542   -0.7678 O   0  0  0  0  0  0  0  0  0  0  0  0
   -2.8269   -1.7935    1.5185 O   0  0  0  0  0  0  0  0  0  0  0  0
   -5.4114   -1.0519    1.2950 O   0  0  0  0  0  0  0  0  0  0  0  0
   -5.2649    2.5765    1.1406 O   0  0  0  0  0  0  0  0  0  0  0  0
   -5.5039   -2.4515   -0.5018 O   0  0  0  0  0  0  0  0  0  0  0  0
   -3.1043    0.1067   -0.0086 C   0  0  1  0  0  0  0  0  0  0  0  0
   -4.4030   -0.3016   -0.6961 C   0  0  1  0  0  0  0  0  0  0  0  0
   -2.0053    0.6416   -0.9194 C   0  0  0  0  0  0  0  0  0  0  0  0
   -0.7743    0.5125   -0.0458 C   0  0  2  0  0  0  0  0  0  0  0  0
   -5.1642    1.0149   -0.7219 C   0  0  2  0  0  0  0  0  0  0  0  0
   -2.3493   -0.9145    0.8192 C   0  0  0  0  0  0  0  0  0  0  0  0
    0.5129    0.3827   -0.8382 C   0  0  0  0  0  0  0  0  0  0  0  0
   -4.6888    1.6828    0.5408 C   0  0  0  0  0  0  0  0  0  0  0  0
    1.7304    0.2937    0.0819 C   0  0  0  0  0  0  0  0  0  0  0  0
   -5.1591   -1.3961    0.0085 C   0  0  0  0  0  0  0  0  0  0  0  0
    3.0293    0.1967   -0.7217 C   0  0  0  0  0  0  0  0  0  0  0  0
    4.2491    0.1462    0.2010 C   0  0  0  0  0  0  0  0  0  0  0  0
    5.5823    0.1211   -0.5524 C   0  0  0  0  0  0  0  0  0  0  0  0
    6.8020    0.0448    0.3701 C   0  0  0  0  0  0  0  0  0  0  0  0
    8.1027    0.0105   -0.4372 C   0  0  0  0  0  0  0  0  0  0  0  0
    9.3579   -0.0964    0.4336 C   0  0  0  0  0  0  0  0  0  0  0  0
   10.6598   -0.0570   -0.3672 C   0  0  0  0  0  0  0  0  0  0  0  0
   11.8732   -0.1798    0.5420 C   0  0  0  0  0  0  0  0  0  0  0  0
   -1.8915    0.0132   -1.8102 H   0  0  0  0  0  0  0  0  0  0  0  0
   -2.1592    1.6776   -1.2372 H   0  0  0  0  0  0  0  0  0  0  0  0
   -0.7052    1.3504    0.6594 H   0  0  0  0  0  0  0  0  0  0  0  0
   -4.8626    1.6331   -1.5747 H   0  0  0  0  0  0  0  0  0  0  0  0
    0.6208    1.2441   -1.5082 H   0  0  0  0  0  0  0  0  0  0  0  0
    0.4799   -0.5200   -1.4613 H   0  0  0  0  0  0  0  0  0  0  0  0
    1.7660    1.1792    0.7282 H   0  0  0  0  0  0  0  0  0  0  0  0
    1.6437   -0.5811    0.7373 H   0  0  0  0  0  0  0  0  0  0  0  0
   -5.0445   -0.8144   -2.4662 H   0  0  0  0  0  0  0  0  0  0  0  0
    3.1136    1.0630   -1.3891 H   0  0  0  0  0  0  0  0  0  0  0  0
    3.0096   -0.6989   -1.3541 H   0  0  0  0  0  0  0  0  0  0  0  0
    4.2363    1.0173    0.8679 H   0  0  0  0  0  0  0  0  0  0  0  0
    4.1804   -0.7426    0.8405 H   0  0  0  0  0  0  0  0  0  0  0  0
   -6.8507    0.4086    0.0452 H   0  0  0  0  0  0  0  0  0  0  0  0
    5.5901   -0.7394   -1.2329 H   0  0  0  0  0  0  0  0  0  0  0  0
    5.6568    1.0196   -1.1776 H   0  0  0  0  0  0  0  0  0  0  0  0
    6.7340   -0.8536    0.9949 H   0  0  0  0  0  0  0  0  0  0  0  0
    6.8092    0.9094    1.0443 H   0  0  0  0  0  0  0  0  0  0  0  0
   -5.9050   -1.7527    1.7718 H   0  0  0  0  0  0  0  0  0  0  0  0
    8.1682    0.9183   -1.0499 H   0  0  0  0  0  0  0  0  0  0  0  0
    8.0784   -0.8386   -1.1316 H   0  0  0  0  0  0  0  0  0  0  0  0
    9.3131   -1.0284    1.0107 H   0  0  0  0  0  0  0  0  0  0  0  0
    9.3590    0.7254    1.1607 H   0  0  0  0  0  0  0  0  0  0  0  0
   10.6708   -0.8743   -1.0972 H   0  0  0  0  0  0  0  0  0  0  0  0
   10.7219    0.8820   -0.9291 H   0  0  0  0  0  0  0  0  0  0  0  0
   12.7938   -0.1494   -0.0491 H   0  0  0  0  0  0  0  0  0  0  0  0
   11.9064    0.6414    1.2651 H   0  0  0  0  0  0  0  0  0  0  0  0
   11.8555   -1.1246    1.0948 H   0  0  0  0  0  0  0  0  0  0  0  0
  1  9  1  0  0  0  0
  1 16  1  0  0  0  0
  2 12  1  0  0  0  0
  2 14  1  0  0  0  0
  3 10  1  0  0  0  0
  3 35  1  0  0  0  0
  4 13  1  0  0  0  0
  4 40  1  0  0  0  0
  5 14  2  0  0  0  0
  6 18  1  0  0  0  0
  6 45  1  0  0  0  0
  7 16  2  0  0  0  0
  8 18  2  0  0  0  0
  9 10  1  0  0  0  0
  9 11  1  0  0  0  0
  9 14  1  0  0  0  0
 10 13  1  0  0  0  0
 10 18  1  0  0  0  0
 11 12  1  0  0  0  0
 11 27  1  0  0  0  0
 11 28  1  0  0  0  0
 12 15  1  0  0  0  0
 12 29  1  0  0  0  0
 13 16  1  0  0  0  0
 13 30  1  0  0  0  0
 15 17  1  0  0  0  0
 15 31  1  0  0  0  0
 15 32  1  0  0  0  0
 17 19  1  0  0  0  0
 17 33  1  0  0  0  0
 17 34  1  0  0  0  0
 19 20  1  0  0  0  0
 19 36  1  0  0  0  0
 19 37  1  0  0  0  0
 20 21  1  0  0  0  0
 20 38  1  0  0  0  0
 20 39  1  0  0  0  0
 21 22  1  0  0  0  0
 21 41  1  0  0  0  0
 21 42  1  0  0  0  0
 22 23  1  0  0  0  0
 22 43  1  0  0  0  0
 22 44  1  0  0  0  0
 23 24  1  0  0  0  0
 23 46  1  0  0  0  0
 23 47  1  0  0  0  0
 24 25  1  0  0  0  0
 24 48  1  0  0  0  0
 24 49  1  0  0  0  0
 25 26  1  0  0  0  0
 25 50  1  0  0  0  0
 25 51  1  0  0  0  0
 26 52  1  0  0  0  0
 26 53  1  0  0  0  0
 26 54  1  0  0  0  0
M  END
> <PUBCHEM_COMPOUND_CID>
131944

> <PUBCHEM_CONFORMER_RMSD>
1.4

> <PUBCHEM_CONFORMER_DIVERSEORDER>
1
86
50
57
76
72
21
4
69
19
55
17
51
5
40
10
39
24
8
42
81
18
56
43
66
49
59
82
3
74
13
36
53
63
60
37
71
67
70
34
85
9
30
7
64
44
28
83
27
62
11
73
2
33
65
87
58
77
12
15
54
16
35
84
75
22
48
14
23
46
41
6
45
25
79
32
26
47
38
61
68
78
52
31
20
80
29

> <PUBCHEM_MMFF94_PARTIAL_CHARGES>
18
1 -0.43
10 0.34
12 0.28
13 0.34
14 0.66
16 0.66
18 0.66
2 -0.43
3 -0.68
35 0.4
4 -0.68
40 0.4
45 0.5
5 -0.57
6 -0.65
7 -0.57
8 -0.57
9 0.34

> <PUBCHEM_EFFECTIVE_ROTOR_COUNT>
11.2

> <PUBCHEM_PHARMACOPHORE_FEATURES>
12
1 26 hydrophobe
1 3 acceptor
1 3 donor
1 4 acceptor
1 4 donor
1 5 acceptor
1 6 acceptor
1 7 acceptor
1 8 acceptor
3 6 8 18 anion
5 1 9 10 13 16 rings
5 2 9 11 12 14 rings

> <PUBCHEM_HEAVY_ATOM_COUNT>
26

> <PUBCHEM_ATOM_DEF_STEREO_COUNT>
2

> <PUBCHEM_ATOM_UDEF_STEREO_COUNT>
2

> <PUBCHEM_BOND_DEF_STEREO_COUNT>
0

> <PUBCHEM_BOND_UDEF_STEREO_COUNT>
0

> <PUBCHEM_ISOTOPIC_ATOM_COUNT>
0

> <PUBCHEM_COMPONENT_COUNT>
1

> <PUBCHEM_CACTVS_TAUTO_COUNT>
3

> <PUBCHEM_CONFORMER_ID>
0002036800000001

> <PUBCHEM_MMFF94_ENERGY>
31.2402

> <PUBCHEM_FEATURE_SELFOVERLAP>
60.999

> <PUBCHEM_SHAPE_FINGERPRINT>
10291535 26 17131282260002850841
10299344 5 17458062665086126592
11135926 11 16515399664941501426
11315181 36 18410576197249778997
12089408 11 17967534576493359828
12091667 2 18060419118429016061
12104220 1 18260546701784631100
12643181 29 18040435508286379682
13885169 127 18412827959020681776
14251764 18 17967811653070320026
14251764 46 18412824686218445236
15183329 4 17168139049269453864
15461852 350 18341333383602930814
15510794 2 18272092670290100430
17093844 174 18410575072184651329
19489759 90 18342458140726563033
21360443 120 16225761909632355626
21362267 313 18199185098150437778
21756936 100 18339930321230617545
22224240 67 18334573552277799594
232437 2 17603865595189891282
23402539 116 18333730226199828405
23559900 14 18261951946248165761
33684 2 16515401860244438172
4339292 15 17346025784132141231
58260988 114 16081952458803160259
59521270 166 16950555559214302830
67123 10 18411135849823364364

> <PUBCHEM_SHAPE_MULTIPOLES>
488.11
32.08
1.52
1.16
116.69
0.12
0.07
1.27
-1.67
-4.38
-0.39
-1.45
0.08
-0.54

> <PUBCHEM_SHAPE_SELFOVERLAP>
1001.058

> <PUBCHEM_SHAPE_VOLUME>
282.5

> <PUBCHEM_COORDINATE_TYPE>
2
5
10

$$$$
