132040
  -OEChem-03292013323D

 27 28  0     0  0  0  0  0  0999 V2000
    2.7031    2.2226   -0.2896 O   0  0  0  0  0  0  0  0  0  0  0  0
    2.5151   -2.2052   -0.0695 O   0  0  0  0  0  0  0  0  0  0  0  0
   -4.2411    1.4704    0.6529 O   0  0  0  0  0  0  0  0  0  0  0  0
   -4.6035   -0.5212   -0.3808 O   0  0  0  0  0  0  0  0  0  0  0  0
    1.8130    0.0436   -0.1591 N   0  0  0  0  0  0  0  0  0  0  0  0
    4.6648   -0.0206    0.9909 N   0  0  0  0  0  0  0  0  0  0  0  0
    3.8702   -0.0473   -0.2294 C   0  0  0  0  0  0  0  0  0  0  0  0
    2.7565    1.0144   -0.2401 C   0  0  0  0  0  0  0  0  0  0  0  0
    2.6706   -1.0069   -0.1397 C   0  0  0  0  0  0  0  0  0  0  0  0
    0.4202    0.1054   -0.1047 C   0  0  0  0  0  0  0  0  0  0  0  0
   -0.3279   -1.0692   -0.0237 C   0  0  0  0  0  0  0  0  0  0  0  0
   -1.7204   -1.0068    0.0299 C   0  0  0  0  0  0  0  0  0  0  0  0
   -0.2243    1.3422   -0.1322 C   0  0  0  0  0  0  0  0  0  0  0  0
   -2.3647    0.2300    0.0025 C   0  0  0  0  0  0  0  0  0  0  0  0
   -1.6167    1.4045   -0.0785 C   0  0  0  0  0  0  0  0  0  0  0  0
   -2.4975   -2.2798    0.1157 C   0  0  0  0  0  0  0  0  0  0  0  0
   -3.8173    0.3240    0.0554 C   0  0  0  0  0  0  0  0  0  0  0  0
    4.4403   -0.1177   -1.1587 H   0  0  0  0  0  0  0  0  0  0  0  0
    0.1475   -2.0440   -0.0034 H   0  0  0  0  0  0  0  0  0  0  0  0
    0.3166    2.2797   -0.1978 H   0  0  0  0  0  0  0  0  0  0  0  0
    5.3048    0.7708    1.0440 H   0  0  0  0  0  0  0  0  0  0  0  0
    5.2357   -0.8542    1.1246 H   0  0  0  0  0  0  0  0  0  0  0  0
   -2.0896    2.3826   -0.1153 H   0  0  0  0  0  0  0  0  0  0  0  0
   -1.8403   -3.1382    0.2973 H   0  0  0  0  0  0  0  0  0  0  0  0
   -3.2060   -2.2560    0.9504 H   0  0  0  0  0  0  0  0  0  0  0  0
   -3.0264   -2.4749   -0.8226 H   0  0  0  0  0  0  0  0  0  0  0  0
   -5.2200    1.5253    0.6846 H   0  0  0  0  0  0  0  0  0  0  0  0
  1  8  2  0  0  0  0
  2  9  2  0  0  0  0
  3 17  1  0  0  0  0
  3 27  1  0  0  0  0
  4 17  2  0  0  0  0
  5  8  1  0  0  0  0
  5  9  1  0  0  0  0
  5 10  1  0  0  0  0
  6  7  1  0  0  0  0
  6 21  1  0  0  0  0
  6 22  1  0  0  0  0
  7  8  1  0  0  0  0
  7  9  1  0  0  0  0
  7 18  1  0  0  0  0
 10 11  2  0  0  0  0
 10 13  1  0  0  0  0
 11 12  1  0  0  0  0
 11 19  1  0  0  0  0
 12 14  2  0  0  0  0
 12 16  1  0  0  0  0
 13 15  2  0  0  0  0
 13 20  1  0  0  0  0
 14 15  1  0  0  0  0
 14 17  1  0  0  0  0
 15 23  1  0  0  0  0
 16 24  1  0  0  0  0
 16 25  1  0  0  0  0
 16 26  1  0  0  0  0
M  END
> <PUBCHEM_COMPOUND_CID>
132040

> <PUBCHEM_CONFORMER_RMSD>
0.6

> <PUBCHEM_CONFORMER_DIVERSEORDER>
2
4
3
1

> <PUBCHEM_MMFF94_PARTIAL_CHARGES>
23
1 -0.57
10 0.12
11 -0.15
12 -0.14
13 -0.15
14 0.09
15 -0.15
16 0.14
17 0.63
19 0.15
2 -0.57
20 0.15
21 0.36
22 0.36
23 0.15
27 0.5
3 -0.65
4 -0.57
5 -0.24
6 -0.93
7 0.32
8 0.58
9 0.58

> <PUBCHEM_EFFECTIVE_ROTOR_COUNT>
2.4

> <PUBCHEM_PHARMACOPHORE_FEATURES>
10
1 1 acceptor
1 2 acceptor
1 3 acceptor
1 4 acceptor
1 6 cation
1 6 donor
1 7 anion
3 3 4 17 anion
4 5 7 8 9 rings
6 10 11 12 13 14 15 rings

> <PUBCHEM_HEAVY_ATOM_COUNT>
17

> <PUBCHEM_ATOM_DEF_STEREO_COUNT>
0

> <PUBCHEM_ATOM_UDEF_STEREO_COUNT>
0

> <PUBCHEM_BOND_DEF_STEREO_COUNT>
0

> <PUBCHEM_BOND_UDEF_STEREO_COUNT>
0

> <PUBCHEM_ISOTOPIC_ATOM_COUNT>
0

> <PUBCHEM_COMPONENT_COUNT>
1

> <PUBCHEM_CACTVS_TAUTO_COUNT>
1

> <PUBCHEM_CONFORMER_ID>
000203C800000002

> <PUBCHEM_MMFF94_ENERGY>
48.3098

> <PUBCHEM_FEATURE_SELFOVERLAP>
50.804

> <PUBCHEM_SHAPE_FINGERPRINT>
10608611 8 18410292531686825117
10616163 171 18341053016100411647
10967382 1 18410013225668313126
11132069 177 18411981364335246515
11401426 45 18412538795830815885
11471102 20 18409448089871937372
12251169 10 18410011022587499548
13140716 1 18337389456362480456
13221675 6 18335139773819881411
13380535 76 18411139134181349815
13675066 3 17967540068817605937
14144814 61 18410576149857185914
15196674 1 18337955700550341452
15375358 24 18343021090273886950
15442244 35 18267306421967443834
15536298 74 18342459188540496606
16945 1 18409452457584645484
17802600 8 18335696139673035420
18186145 218 18340772529108084181
18522853 276 18413105057035386320
19050596 39 18409448115567887920
200 152 18060135448729226775
20279233 1 18413111666763181934
20510252 161 18200030621178953561
20528008 55 18412261752896312309
20559304 39 18409731734076307156
20645477 70 18413392020669253558
21267235 1 18410302427507843839
21501502 16 18264771128489742788
23402539 116 18343012277486227509
23463225 33 18410295787261213231
23559900 14 18342458115178344318
2748010 2 18265900343952984991
3312278 4 18411706516540754282
335352 9 18337956662454204623
34934 24 18410568487656836662
3545911 37 18412547604529139078
4214541 1 18410856559988007685
474 4 17532098378620407076
5104073 3 18336547221855062096
57005193 9 18409440388732071758
69090 78 18411416202764019527
7364860 26 18341615902172005726
8809292 202 18260552259487739898
9709674 26 18412832373514157615

> <PUBCHEM_SHAPE_MULTIPOLES>
316.41
8.31
2.02
0.67
0.08
0.36
0.05
-0.44
0.85
0.15
-0.02
-0.14
-0.03
-0.27

> <PUBCHEM_SHAPE_SELFOVERLAP>
687.497

> <PUBCHEM_SHAPE_VOLUME>
170.6

> <PUBCHEM_COORDINATE_TYPE>
2
5
10

$$$$
