132030
  -OEChem-03292013323D

 57 61  0     1  0  0  0  0  0999 V2000
   -4.5846   -0.8539    0.8542 O   0  0  0  0  0  0  0  0  0  0  0  0
   -2.6193   -0.1624   -0.2819 O   0  0  0  0  0  0  0  0  0  0  0  0
   -5.4157    3.1242    0.0265 O   0  0  0  0  0  0  0  0  0  0  0  0
   -6.8375    1.0640   -1.3446 O   0  0  0  0  0  0  0  0  0  0  0  0
   -4.5074    1.6733    2.2208 O   0  0  0  0  0  0  0  0  0  0  0  0
    4.6589   -1.8126    0.9831 O   0  0  0  0  0  0  0  0  0  0  0  0
    2.8409   -2.4817   -0.6805 O   0  0  0  0  0  0  0  0  0  0  0  0
   -0.6548    1.4109   -0.8529 O   0  0  0  0  0  0  0  0  0  0  0  0
   -4.8929    1.8120   -0.1673 C   0  0  2  0  0  0  0  0  0  0  0  0
   -6.0464    0.8083   -0.1868 C   0  0  2  0  0  0  0  0  0  0  0  0
   -3.8962    1.4791    0.9443 C   0  0  2  0  0  0  0  0  0  0  0  0
   -5.4978   -0.6249   -0.2237 C   0  0  2  0  0  0  0  0  0  0  0  0
   -3.4509    0.0205    0.8587 C   0  0  1  0  0  0  0  0  0  0  0  0
    6.6549    0.9608    0.6178 C   0  0  1  0  0  0  0  0  0  0  0  0
    5.7527    1.9700   -0.0961 C   0  0  0  0  0  0  0  0  0  0  0  0
    4.3076    1.5345   -0.1774 C   0  0  0  0  0  0  0  0  0  0  0  0
    6.3821   -0.4362    0.0750 C   0  0  0  0  0  0  0  0  0  0  0  0
    3.9041    0.1870   -0.0619 C   0  0  0  0  0  0  0  0  0  0  0  0
    2.5499   -0.1645   -0.2624 C   0  0  0  0  0  0  0  0  0  0  0  0
    4.9458   -0.7913    0.3684 C   0  0  0  0  0  0  0  0  0  0  0  0
   -6.6071   -1.6652   -0.0967 C   0  0  0  0  0  0  0  0  0  0  0  0
    1.6011    0.8499   -0.4653 C   0  0  0  0  0  0  0  0  0  0  0  0
   -0.2922   -0.8410   -0.3189 C   0  0  0  0  0  0  0  0  0  0  0  0
    8.1258    1.3349    0.4560 C   0  0  0  0  0  0  0  0  0  0  0  0
   -1.6569   -1.1240   -0.1983 C   0  0  0  0  0  0  0  0  0  0  0  0
    3.3452    2.5191   -0.4391 C   0  0  0  0  0  0  0  0  0  0  0  0
    0.6450   -1.8662   -0.2143 C   0  0  0  0  0  0  0  0  0  0  0  0
    2.0800   -1.5713   -0.3790 C   0  0  0  0  0  0  0  0  0  0  0  0
    0.1580    0.5380   -0.5748 C   0  0  0  0  0  0  0  0  0  0  0  0
    1.9995    2.1864   -0.5545 C   0  0  0  0  0  0  0  0  0  0  0  0
   -2.0761   -2.4349    0.0304 C   0  0  0  0  0  0  0  0  0  0  0  0
    0.2225   -3.1814    0.0079 C   0  0  0  0  0  0  0  0  0  0  0  0
   -1.1384   -3.4614    0.1334 C   0  0  0  0  0  0  0  0  0  0  0  0
   -4.3896    1.8107   -1.1423 H   0  0  0  0  0  0  0  0  0  0  0  0
   -6.6866    0.9546    0.6919 H   0  0  0  0  0  0  0  0  0  0  0  0
   -3.0409    2.1617    0.8820 H   0  0  0  0  0  0  0  0  0  0  0  0
   -4.9842   -0.8086   -1.1764 H   0  0  0  0  0  0  0  0  0  0  0  0
   -2.8852   -0.2182    1.7697 H   0  0  0  0  0  0  0  0  0  0  0  0
    6.4128    0.9761    1.6898 H   0  0  0  0  0  0  0  0  0  0  0  0
    6.1083    2.1312   -1.1224 H   0  0  0  0  0  0  0  0  0  0  0  0
    5.8186    2.9323    0.4275 H   0  0  0  0  0  0  0  0  0  0  0  0
    7.0296   -1.1700    0.5688 H   0  0  0  0  0  0  0  0  0  0  0  0
    6.5564   -0.5100   -1.0045 H   0  0  0  0  0  0  0  0  0  0  0  0
   -7.3312   -1.5831   -0.9126 H   0  0  0  0  0  0  0  0  0  0  0  0
   -6.1842   -2.6759   -0.1076 H   0  0  0  0  0  0  0  0  0  0  0  0
   -7.1370   -1.5567    0.8561 H   0  0  0  0  0  0  0  0  0  0  0  0
    8.3170    2.3375    0.8528 H   0  0  0  0  0  0  0  0  0  0  0  0
    8.7666    0.6317    0.9984 H   0  0  0  0  0  0  0  0  0  0  0  0
    8.4273    1.3234   -0.5969 H   0  0  0  0  0  0  0  0  0  0  0  0
    3.6405    3.5611   -0.5389 H   0  0  0  0  0  0  0  0  0  0  0  0
    1.2800    2.9827   -0.7251 H   0  0  0  0  0  0  0  0  0  0  0  0
   -4.6628    3.7395    0.0408 H   0  0  0  0  0  0  0  0  0  0  0  0
   -7.1452    1.9850   -1.2899 H   0  0  0  0  0  0  0  0  0  0  0  0
   -3.8301    1.5099    2.8990 H   0  0  0  0  0  0  0  0  0  0  0  0
   -3.1271   -2.6937    0.1067 H   0  0  0  0  0  0  0  0  0  0  0  0
    0.9359   -3.9972    0.0880 H   0  0  0  0  0  0  0  0  0  0  0  0
   -1.4680   -4.4823    0.3037 H   0  0  0  0  0  0  0  0  0  0  0  0
  1 12  1  0  0  0  0
  1 13  1  0  0  0  0
  2 13  1  0  0  0  0
  2 25  1  0  0  0  0
  3  9  1  0  0  0  0
  3 52  1  0  0  0  0
  4 10  1  0  0  0  0
  4 53  1  0  0  0  0
  5 11  1  0  0  0  0
  5 54  1  0  0  0  0
  6 20  2  0  0  0  0
  7 28  2  0  0  0  0
  8 29  2  0  0  0  0
  9 10  1  0  0  0  0
  9 11  1  0  0  0  0
  9 34  1  0  0  0  0
 10 12  1  0  0  0  0
 10 35  1  0  0  0  0
 11 13  1  0  0  0  0
 11 36  1  0  0  0  0
 12 21  1  0  0  0  0
 12 37  1  0  0  0  0
 13 38  1  0  0  0  0
 14 15  1  0  0  0  0
 14 17  1  0  0  0  0
 14 24  1  0  0  0  0
 14 39  1  0  0  0  0
 15 16  1  0  0  0  0
 15 40  1  0  0  0  0
 15 41  1  0  0  0  0
 16 18  2  0  0  0  0
 16 26  1  0  0  0  0
 17 20  1  0  0  0  0
 17 42  1  0  0  0  0
 17 43  1  0  0  0  0
 18 19  1  0  0  0  0
 18 20  1  0  0  0  0
 19 22  2  0  0  0  0
 19 28  1  0  0  0  0
 21 44  1  0  0  0  0
 21 45  1  0  0  0  0
 21 46  1  0  0  0  0
 22 29  1  0  0  0  0
 22 30  1  0  0  0  0
 23 25  1  0  0  0  0
 23 27  2  0  0  0  0
 23 29  1  0  0  0  0
 24 47  1  0  0  0  0
 24 48  1  0  0  0  0
 24 49  1  0  0  0  0
 25 31  2  0  0  0  0
 26 30  2  0  0  0  0
 26 50  1  0  0  0  0
 27 28  1  0  0  0  0
 27 32  1  0  0  0  0
 30 51  1  0  0  0  0
 31 33  1  0  0  0  0
 31 55  1  0  0  0  0
 32 33  2  0  0  0  0
 32 56  1  0  0  0  0
 33 57  1  0  0  0  0
M  END
> <PUBCHEM_COMPOUND_CID>
132030

> <PUBCHEM_CONFORMER_RMSD>
0.8

> <PUBCHEM_CONFORMER_DIVERSEORDER>
3
33
35
39
32
31
37
24
38
29
7
40
36
20
12
34
30
2
19
26
14
16
25
22
15
6
27
9
13
11
17
28
18
5
23
10
8
21
4
1

> <PUBCHEM_MMFF94_PARTIAL_CHARGES>
38
1 -0.56
10 0.28
11 0.28
12 0.28
13 0.56
15 0.14
16 -0.14
17 0.06
18 0.09
19 0.09
2 -0.36
20 0.42
22 0.09
23 0.09
25 0.08
26 -0.15
27 0.09
28 0.4
29 0.4
3 -0.68
30 -0.15
31 -0.15
32 -0.15
33 -0.15
4 -0.68
5 -0.68
50 0.15
51 0.15
52 0.4
53 0.4
54 0.4
55 0.15
56 0.15
57 0.15
6 -0.57
7 -0.57
8 -0.57
9 0.28

> <PUBCHEM_EFFECTIVE_ROTOR_COUNT>
3.8

> <PUBCHEM_PHARMACOPHORE_FEATURES>
16
1 1 acceptor
1 2 acceptor
1 3 acceptor
1 3 donor
1 4 acceptor
1 4 donor
1 5 acceptor
1 5 donor
1 6 acceptor
1 7 acceptor
1 8 acceptor
6 1 9 10 11 12 13 rings
6 14 15 16 17 18 20 rings
6 16 18 19 22 26 30 rings
6 19 22 23 27 28 29 rings
6 23 25 27 31 32 33 rings

> <PUBCHEM_HEAVY_ATOM_COUNT>
33

> <PUBCHEM_ATOM_DEF_STEREO_COUNT>
6

> <PUBCHEM_ATOM_UDEF_STEREO_COUNT>
0

> <PUBCHEM_BOND_DEF_STEREO_COUNT>
0

> <PUBCHEM_BOND_UDEF_STEREO_COUNT>
0

> <PUBCHEM_ISOTOPIC_ATOM_COUNT>
0

> <PUBCHEM_COMPONENT_COUNT>
1

> <PUBCHEM_CACTVS_TAUTO_COUNT>
2

> <PUBCHEM_CONFORMER_ID>
000203BE00000003

> <PUBCHEM_MMFF94_ENERGY>
113.0302

> <PUBCHEM_FEATURE_SELFOVERLAP>
81.346

> <PUBCHEM_SHAPE_FINGERPRINT>
10 15 18187927317850676232
100830 39 18410011074237870355
10411042 1 17617095806830631406
10906281 52 18337403707617765622
11007060 377 18410017658158933139
11136131 41 18189327983769122826
12107183 9 18335975399164241386
12422481 6 18113902645738889092
12788726 201 17846505798899512248
12838862 33 18338217341742917868
12925494 130 17912916473322433632
13140716 1 18264772254261791198
13631057 29 18201996677746850535
13785724 45 17906169547698956042
13811026 1 18412545405854368054
14020679 6 17676492786973139266
14251764 18 18335136522998980852
14394314 77 18343589516575173977
14466204 15 18411420583456835137
14790565 3 18409173224850213564
14849402 71 18270964660483956600
15021287 119 17386006216939901524
15131766 46 16012143473001498564
15142383 8 17313096441640569996
15183329 4 18410296904084890640
15289351 153 18131630055282673824
15461852 350 17561080353781610308
16112460 7 18408880724887503050
18603816 31 14057276575691896035
18608769 82 18269557303254824475
19611394 137 17825118253667132547
20511986 3 18341600538462318010
20642791 178 18042975461909001116
21033648 144 18263078839188908837
21033648 29 17241050878196246565
21298829 104 18341615863291128937
21403212 168 18335412465804619594
21421861 104 17895178988781501698
21859007 373 17677600987034931541
23559900 14 18200870798206893376
23569917 315 18411144661852531703
24771293 8 18412829075248234644
2838139 119 18342453785255009791
335352 9 18409730664835263694
350125 39 18408319982468332476
3633792 109 18339920420940609949
3680242 22 18334577893962300010
4017518 198 17989494018028364214
4073 2 17896041112844572898
4144715 1 18334588961745524906
5104073 3 18334868181884783387
59755656 215 18412832361303885020
6086070 43 17489018387778022872
6328613 192 18336833095469367164
6371009 1 18411979174245323561
7226269 152 18060704983131686216
99344 41 18410571752354331549
9981440 41 18335428971891771379

> <PUBCHEM_SHAPE_MULTIPOLES>
632.17
18.54
3.37
0.95
2.39
1.16
-0.25
-9.07
-2.2
-1.23
0.04
-0.75
-0.3
-0.38

> <PUBCHEM_SHAPE_SELFOVERLAP>
1405.714

> <PUBCHEM_SHAPE_VOLUME>
332.3

> <PUBCHEM_COORDINATE_TYPE>
2
5
10

$$$$
