132059
  -OEChem-03292013323D

 50 53  0     0  0  0  0  0  0999 V2000
    5.3374   -2.3240   -1.2101 S   0  0  0  0  0  0  0  0  0  0  0  0
   -0.5648    2.9114   -0.7119 O   0  0  0  0  0  0  0  0  0  0  0  0
    6.4275   -3.2698   -1.3613 O   0  0  0  0  0  0  0  0  0  0  0  0
    3.9881   -2.7890   -0.9565 O   0  0  0  0  0  0  0  0  0  0  0  0
   -5.9127   -0.3330   -1.5555 N   0  0  0  0  0  0  0  0  0  0  0  0
   -0.3450    1.5607    1.0612 N   0  0  0  0  0  0  0  0  0  0  0  0
   -3.8882   -4.2450    2.2885 N   0  0  0  0  0  0  0  0  0  0  0  0
    0.6372    3.2751   -0.0917 N   0  0  0  0  0  0  0  0  0  0  0  0
    5.8054   -1.1339   -0.0565 N   0  0  0  0  0  0  0  0  0  0  0  0
   -4.1590   -0.2054   -0.1824 C   0  0  0  0  0  0  0  0  0  0  0  0
   -5.0296   -1.2362    0.2697 C   0  0  0  0  0  0  0  0  0  0  0  0
   -4.7362    0.3451   -1.3288 C   0  0  0  0  0  0  0  0  0  0  0  0
   -4.8309   -2.0996    1.4513 C   0  0  0  0  0  0  0  0  0  0  0  0
   -2.9315    0.3136    0.2749 C   0  0  0  0  0  0  0  0  0  0  0  0
   -6.0987   -1.2905   -0.5947 C   0  0  0  0  0  0  0  0  0  0  0  0
   -2.3284    1.3618   -0.4299 C   0  0  0  0  0  0  0  0  0  0  0  0
   -4.1449    1.3930   -2.0435 C   0  0  0  0  0  0  0  0  0  0  0  0
   -4.0522   -3.3872    1.1197 C   0  0  0  0  0  0  0  0  0  0  0  0
   -2.9275    1.8916   -1.5709 C   0  0  0  0  0  0  0  0  0  0  0  0
   -1.0712    1.8993    0.0333 C   0  0  0  0  0  0  0  0  0  0  0  0
    1.8135    2.4498    1.8960 C   0  0  0  0  0  0  0  0  0  0  0  0
    2.8755    1.4973    1.3767 C   0  0  0  0  0  0  0  0  0  0  0  0
    0.6971    2.4338    0.9449 C   0  0  0  0  0  0  0  0  0  0  0  0
    4.8068   -0.2377    0.4311 C   0  0  0  0  0  0  0  0  0  0  0  0
    3.8561    1.9811    0.5321 C   0  0  0  0  0  0  0  0  0  0  0  0
    2.8326    0.1712    1.7622 C   0  0  0  0  0  0  0  0  0  0  0  0
    4.8312    1.1053    0.0548 C   0  0  0  0  0  0  0  0  0  0  0  0
    3.8077   -0.7047    1.2849 C   0  0  0  0  0  0  0  0  0  0  0  0
    5.3047   -1.3338   -2.6875 C   0  0  0  0  0  0  0  0  0  0  0  0
   -4.3033   -1.5434    2.2368 H   0  0  0  0  0  0  0  0  0  0  0  0
   -5.8076   -2.3677    1.8759 H   0  0  0  0  0  0  0  0  0  0  0  0
   -2.4684   -0.1048    1.1648 H   0  0  0  0  0  0  0  0  0  0  0  0
   -6.9746   -1.9239   -0.6146 H   0  0  0  0  0  0  0  0  0  0  0  0
   -6.5467   -0.1499   -2.3210 H   0  0  0  0  0  0  0  0  0  0  0  0
   -4.6110    1.8057   -2.9318 H   0  0  0  0  0  0  0  0  0  0  0  0
   -3.0633   -3.1330    0.7200 H   0  0  0  0  0  0  0  0  0  0  0  0
   -4.5785   -3.9511    0.3410 H   0  0  0  0  0  0  0  0  0  0  0  0
   -2.4743    2.7061   -2.1318 H   0  0  0  0  0  0  0  0  0  0  0  0
    1.4815    2.1398    2.8942 H   0  0  0  0  0  0  0  0  0  0  0  0
    2.2298    3.4579    2.0122 H   0  0  0  0  0  0  0  0  0  0  0  0
    3.8828    3.0249    0.2338 H   0  0  0  0  0  0  0  0  0  0  0  0
    2.0594   -0.2007    2.4280 H   0  0  0  0  0  0  0  0  0  0  0  0
   -3.3748   -3.7427    3.0115 H   0  0  0  0  0  0  0  0  0  0  0  0
   -3.3167   -5.0510    2.0388 H   0  0  0  0  0  0  0  0  0  0  0  0
    5.6044    1.4802   -0.6109 H   0  0  0  0  0  0  0  0  0  0  0  0
    3.7825   -1.7453    1.5976 H   0  0  0  0  0  0  0  0  0  0  0  0
    6.7151   -0.6874   -0.2349 H   0  0  0  0  0  0  0  0  0  0  0  0
    6.2846   -0.8743   -2.8301 H   0  0  0  0  0  0  0  0  0  0  0  0
    5.0814   -1.9940   -3.5288 H   0  0  0  0  0  0  0  0  0  0  0  0
    4.5233   -0.5774   -2.5987 H   0  0  0  0  0  0  0  0  0  0  0  0
  1  3  2  0  0  0  0
  1  4  2  0  0  0  0
  1  9  1  0  0  0  0
  1 29  1  0  0  0  0
  2  8  1  0  0  0  0
  2 20  1  0  0  0  0
  5 12  1  0  0  0  0
  5 15  1  0  0  0  0
  5 34  1  0  0  0  0
  6 20  2  0  0  0  0
  6 23  1  0  0  0  0
  7 18  1  0  0  0  0
  7 43  1  0  0  0  0
  7 44  1  0  0  0  0
  8 23  2  0  0  0  0
  9 24  1  0  0  0  0
  9 47  1  0  0  0  0
 10 11  1  0  0  0  0
 10 12  2  0  0  0  0
 10 14  1  0  0  0  0
 11 13  1  0  0  0  0
 11 15  2  0  0  0  0
 12 17  1  0  0  0  0
 13 18  1  0  0  0  0
 13 30  1  0  0  0  0
 13 31  1  0  0  0  0
 14 16  2  0  0  0  0
 14 32  1  0  0  0  0
 15 33  1  0  0  0  0
 16 19  1  0  0  0  0
 16 20  1  0  0  0  0
 17 19  2  0  0  0  0
 17 35  1  0  0  0  0
 18 36  1  0  0  0  0
 18 37  1  0  0  0  0
 19 38  1  0  0  0  0
 21 22  1  0  0  0  0
 21 23  1  0  0  0  0
 21 39  1  0  0  0  0
 21 40  1  0  0  0  0
 22 25  2  0  0  0  0
 22 26  1  0  0  0  0
 24 27  2  0  0  0  0
 24 28  1  0  0  0  0
 25 27  1  0  0  0  0
 25 41  1  0  0  0  0
 26 28  2  0  0  0  0
 26 42  1  0  0  0  0
 27 45  1  0  0  0  0
 28 46  1  0  0  0  0
 29 48  1  0  0  0  0
 29 49  1  0  0  0  0
 29 50  1  0  0  0  0
M  END
> <PUBCHEM_COMPOUND_CID>
132059

> <PUBCHEM_CONFORMER_RMSD>
1

> <PUBCHEM_CONFORMER_DIVERSEORDER>
1
365
293
366
24
209
505
370
425
227
312
104
60
299
333
439
238
73
387
257
244
37
476
19
357
22
268
136
58
67
14
3
174
74
246
189
179
332
29
217
152
47
40
105
442
93
135
223
10
5
33
56
355
139
11
275
412
191
6
140
128
16
18
17
54
326
402
70
181
353
308
375
124
2
48
13
9
455
38
20
183
133
77
4
172
125
45
231
7
111
15
92
32
98
165
198
294

> <PUBCHEM_MMFF94_PARTIAL_CHARGES>
40
1 1.33
11 -0.18
12 -0.15
13 0.18
14 -0.15
15 -0.3
16 0.05
17 -0.15
18 0.27
19 -0.15
2 -0.02
20 0.43
21 0.32
22 -0.14
23 0.34
24 0.2
25 -0.15
26 -0.15
27 -0.15
28 -0.15
29 0.11
3 -0.65
32 0.15
33 0.15
34 0.27
35 0.15
38 0.15
4 -0.65
41 0.15
42 0.15
43 0.36
44 0.36
45 0.15
46 0.15
47 0.42
5 0.03
6 -0.57
7 -0.99
8 -0.41
9 -0.76

> <PUBCHEM_EFFECTIVE_ROTOR_COUNT>
7

> <PUBCHEM_PHARMACOPHORE_FEATURES>
12
1 3 acceptor
1 4 acceptor
1 5 cation
1 5 donor
1 7 cation
1 7 donor
1 9 donor
3 6 8 23 cation
5 2 6 8 20 23 rings
5 5 10 11 12 15 rings
6 10 12 14 16 17 19 rings
6 22 24 25 26 27 28 rings

> <PUBCHEM_HEAVY_ATOM_COUNT>
29

> <PUBCHEM_ATOM_DEF_STEREO_COUNT>
0

> <PUBCHEM_ATOM_UDEF_STEREO_COUNT>
0

> <PUBCHEM_BOND_DEF_STEREO_COUNT>
0

> <PUBCHEM_BOND_UDEF_STEREO_COUNT>
0

> <PUBCHEM_ISOTOPIC_ATOM_COUNT>
0

> <PUBCHEM_COMPONENT_COUNT>
1

> <PUBCHEM_CACTVS_TAUTO_COUNT>
3

> <PUBCHEM_CONFORMER_ID>
000203DB00000001

> <PUBCHEM_MMFF94_ENERGY>
51.7629

> <PUBCHEM_FEATURE_SELFOVERLAP>
61.006

> <PUBCHEM_SHAPE_FINGERPRINT>
10319926 262 12391515321060468852
10462674 296 17258493873571677970
10462674 369 15432591976169153161
10928967 22 17632287922684582270
11374522 301 18267611102469228987
11387372 6 18268447767151625041
117089 54 18129390315210304206
11796584 16 18187915184046098505
12422481 6 15554174653461368812
12623949 98 17902522819647226811
12633257 1 15626214745507669284
12758862 65 18057579072159534346
13103583 49 14979947065335262808
13383661 66 18193010415344959138
13402501 40 18409161147259713595
1361 87 18410013217078735927
13914758 101 17346591985929796517
13947930 73 18412254035320792326
13955234 65 17559094675017529200
14251764 30 18202282481237854972
14950920 106 14476372955700156662
15320291 9 17260470267129143294
15510800 12 18341889667698608194
15537594 2 17632005438485781612
21033650 10 17386567929710970517
21196832 93 18409176498248542726
21307412 95 18335132103657299831
21682296 61 18272929423553638103
23379529 103 18115868688720264473
23559900 14 17970049240621503421
25122255 55 18412544314531352143
2748736 6 12179853818312678078
2835820 90 18335712683813700563
2838139 119 8430325610157413720
3044373 233 17415580726053700582
3089732 80 18411702101309359018
314194 84 17988634242177824152
345986 75 16558747906059848144
34797466 226 17967528012502255677
3862424 121 18190483686111010878
437795 139 18191025600226875590
439807 62 18269558247877987438
4435113 14 18337400442841773059
46194498 28 18260823834997889388
58902169 19 15864342507380475394
7918774 8 18343306959176058756
7970288 3 18060129951318781214
86090 222 18272083907538997090

> <PUBCHEM_SHAPE_MULTIPOLES>
558.14
17.03
4.37
2.15
3.01
2.51
0.36
14.96
5.63
0.62
-0.98
0.29
0.85
6.05

> <PUBCHEM_SHAPE_SELFOVERLAP>
1207.011

> <PUBCHEM_SHAPE_VOLUME>
309.6

> <PUBCHEM_COORDINATE_TYPE>
2
5
10

$$$$
