132016
  -OEChem-03292013323D

 74 75  0     1  0  0  0  0  0999 V2000
    1.8874   -0.0561   -0.0116 O   0  0  0  0  0  0  0  0  0  0  0  0
    3.8242    1.0149    0.8433 O   0  0  0  0  0  0  0  0  0  0  0  0
    4.9629   -1.6987    1.0655 O   0  0  0  0  0  0  0  0  0  0  0  0
    6.4623    0.3819   -0.3086 O   0  0  0  0  0  0  0  0  0  0  0  0
   -0.1959   -1.7735   -0.7860 O   0  0  0  0  0  0  0  0  0  0  0  0
    5.4685   -1.8833   -1.7306 N   0  0  0  0  0  0  0  0  0  0  0  0
   -1.6206   -2.5244    0.8590 N   0  0  0  0  0  0  0  0  0  0  0  0
    0.7988    0.3859    0.8122 C   0  0  1  0  0  0  0  0  0  0  0  0
   -1.9119    3.1032   -0.1880 C   0  0  1  0  0  0  0  0  0  0  0  0
   -0.0864    1.2928   -0.0652 C   0  0  0  0  0  0  0  0  0  0  0  0
    3.0832   -0.2068    0.7468 C   0  0  2  0  0  0  0  0  0  0  0  0
    4.5604   -0.8696   -1.1945 C   0  0  1  0  0  0  0  0  0  0  0  0
    3.9433   -1.3227    0.1396 C   0  0  1  0  0  0  0  0  0  0  0  0
   -0.9842    2.2583    0.7135 C   0  0  0  0  0  0  0  0  0  0  0  0
    5.2593    0.4933   -1.0676 C   0  0  1  0  0  0  0  0  0  0  0  0
   -2.8653    2.2795   -1.0851 C   0  0  0  0  0  0  0  0  0  0  0  0
   -5.3653   -0.7429   -0.6757 C   0  0  1  0  0  0  0  0  0  0  0  0
    0.1212   -0.8648    1.4440 C   0  0  2  0  0  0  0  0  0  0  0  0
    4.3081    1.5078   -0.4127 C   0  0  2  0  0  0  0  0  0  0  0  0
   -3.6935    1.2186   -0.3484 C   0  0  0  0  0  0  0  0  0  0  0  0
   -4.5846    0.4288   -1.3157 C   0  0  0  0  0  0  0  0  0  0  0  0
   -4.4853   -1.7683    0.0720 C   0  0  0  0  0  0  0  0  0  0  0  0
   -6.4570   -0.2223    0.2658 C   0  0  0  0  0  0  0  0  0  0  0  0
   -2.6992    4.0952    0.6757 C   0  0  0  0  0  0  0  0  0  0  0  0
   -3.4376   -2.4479   -0.8191 C   0  0  0  0  0  0  0  0  0  0  0  0
   -0.5800   -1.7416    0.3848 C   0  0  0  0  0  0  0  0  0  0  0  0
   -0.7639   -0.4868    2.6336 C   0  0  0  0  0  0  0  0  0  0  0  0
    4.9836    2.8481   -0.1444 C   0  0  0  0  0  0  0  0  0  0  0  0
   -2.4648   -3.3194   -0.0196 C   0  0  0  0  0  0  0  0  0  0  0  0
   -7.4676    0.6204   -0.4829 C   0  0  0  0  0  0  0  0  0  0  0  0
    1.2059    1.0198    1.6125 H   0  0  0  0  0  0  0  0  0  0  0  0
   -1.2772    3.6981   -0.8586 H   0  0  0  0  0  0  0  0  0  0  0  0
   -0.6790    0.6797   -0.7485 H   0  0  0  0  0  0  0  0  0  0  0  0
    0.5653    1.8907   -0.7172 H   0  0  0  0  0  0  0  0  0  0  0  0
    2.8546   -0.4938    1.7802 H   0  0  0  0  0  0  0  0  0  0  0  0
    3.7400   -0.7511   -1.9151 H   0  0  0  0  0  0  0  0  0  0  0  0
    3.3234   -2.2107   -0.0384 H   0  0  0  0  0  0  0  0  0  0  0  0
   -1.5922    1.7273    1.4468 H   0  0  0  0  0  0  0  0  0  0  0  0
   -0.3409    2.9356    1.2905 H   0  0  0  0  0  0  0  0  0  0  0  0
    5.5493    0.8558   -2.0611 H   0  0  0  0  0  0  0  0  0  0  0  0
   -2.2763    1.7896   -1.8703 H   0  0  0  0  0  0  0  0  0  0  0  0
   -3.5434    2.9651   -1.6095 H   0  0  0  0  0  0  0  0  0  0  0  0
   -5.8595   -1.2829   -1.4957 H   0  0  0  0  0  0  0  0  0  0  0  0
    0.9102   -1.5177    1.8410 H   0  0  0  0  0  0  0  0  0  0  0  0
    3.4488    1.6854   -1.0716 H   0  0  0  0  0  0  0  0  0  0  0  0
   -3.0170    0.5292    0.1615 H   0  0  0  0  0  0  0  0  0  0  0  0
   -4.3120    1.7003    0.4150 H   0  0  0  0  0  0  0  0  0  0  0  0
   -5.2645    1.1164   -1.8299 H   0  0  0  0  0  0  0  0  0  0  0  0
   -3.9536    0.0249   -2.1172 H   0  0  0  0  0  0  0  0  0  0  0  0
   -5.1297   -2.5513    0.4934 H   0  0  0  0  0  0  0  0  0  0  0  0
   -4.0053   -1.2855    0.9307 H   0  0  0  0  0  0  0  0  0  0  0  0
   -6.0346    0.3469    1.1008 H   0  0  0  0  0  0  0  0  0  0  0  0
   -6.9869   -1.0754    0.7077 H   0  0  0  0  0  0  0  0  0  0  0  0
   -3.3478    4.7237    0.0563 H   0  0  0  0  0  0  0  0  0  0  0  0
   -3.3243    3.5829    1.4140 H   0  0  0  0  0  0  0  0  0  0  0  0
   -2.0174    4.7584    1.2190 H   0  0  0  0  0  0  0  0  0  0  0  0
   -3.9528   -3.0743   -1.5570 H   0  0  0  0  0  0  0  0  0  0  0  0
   -2.8643   -1.7028   -1.3785 H   0  0  0  0  0  0  0  0  0  0  0  0
   -1.7734   -0.2012    2.3252 H   0  0  0  0  0  0  0  0  0  0  0  0
   -0.8691   -1.3383    3.3159 H   0  0  0  0  0  0  0  0  0  0  0  0
   -0.3274    0.3291    3.2187 H   0  0  0  0  0  0  0  0  0  0  0  0
    5.3971    3.2758   -1.0627 H   0  0  0  0  0  0  0  0  0  0  0  0
    4.2604    3.5570    0.2740 H   0  0  0  0  0  0  0  0  0  0  0  0
    5.7853    2.7529    0.5959 H   0  0  0  0  0  0  0  0  0  0  0  0
   -3.0038   -4.0425    0.6009 H   0  0  0  0  0  0  0  0  0  0  0  0
   -1.8153   -3.8720   -0.7071 H   0  0  0  0  0  0  0  0  0  0  0  0
    5.8067   -1.5909   -2.6464 H   0  0  0  0  0  0  0  0  0  0  0  0
    4.9621   -2.7559   -1.8739 H   0  0  0  0  0  0  0  0  0  0  0  0
   -1.8445   -2.5399    1.8475 H   0  0  0  0  0  0  0  0  0  0  0  0
    4.5238   -2.0178    1.8721 H   0  0  0  0  0  0  0  0  0  0  0  0
    6.2206    0.1126    0.5939 H   0  0  0  0  0  0  0  0  0  0  0  0
   -7.0661    1.6008   -0.7546 H   0  0  0  0  0  0  0  0  0  0  0  0
   -7.8226    0.1201   -1.3895 H   0  0  0  0  0  0  0  0  0  0  0  0
   -8.3387    0.8046    0.1554 H   0  0  0  0  0  0  0  0  0  0  0  0
  1  8  1  0  0  0  0
  1 11  1  0  0  0  0
  2 11  1  0  0  0  0
  2 19  1  0  0  0  0
  3 13  1  0  0  0  0
  3 70  1  0  0  0  0
  4 15  1  0  0  0  0
  4 71  1  0  0  0  0
  5 26  2  0  0  0  0
  6 12  1  0  0  0  0
  6 67  1  0  0  0  0
  6 68  1  0  0  0  0
  7 26  1  0  0  0  0
  7 29  1  0  0  0  0
  7 69  1  0  0  0  0
  8 10  1  0  0  0  0
  8 18  1  0  0  0  0
  8 31  1  0  0  0  0
  9 14  1  0  0  0  0
  9 16  1  0  0  0  0
  9 24  1  0  0  0  0
  9 32  1  0  0  0  0
 10 14  1  0  0  0  0
 10 33  1  0  0  0  0
 10 34  1  0  0  0  0
 11 13  1  0  0  0  0
 11 35  1  0  0  0  0
 12 13  1  0  0  0  0
 12 15  1  0  0  0  0
 12 36  1  0  0  0  0
 13 37  1  0  0  0  0
 14 38  1  0  0  0  0
 14 39  1  0  0  0  0
 15 19  1  0  0  0  0
 15 40  1  0  0  0  0
 16 20  1  0  0  0  0
 16 41  1  0  0  0  0
 16 42  1  0  0  0  0
 17 21  1  0  0  0  0
 17 22  1  0  0  0  0
 17 23  1  0  0  0  0
 17 43  1  0  0  0  0
 18 26  1  0  0  0  0
 18 27  1  0  0  0  0
 18 44  1  0  0  0  0
 19 28  1  0  0  0  0
 19 45  1  0  0  0  0
 20 21  1  0  0  0  0
 20 46  1  0  0  0  0
 20 47  1  0  0  0  0
 21 48  1  0  0  0  0
 21 49  1  0  0  0  0
 22 25  1  0  0  0  0
 22 50  1  0  0  0  0
 22 51  1  0  0  0  0
 23 30  1  0  0  0  0
 23 52  1  0  0  0  0
 23 53  1  0  0  0  0
 24 54  1  0  0  0  0
 24 55  1  0  0  0  0
 24 56  1  0  0  0  0
 25 29  1  0  0  0  0
 25 57  1  0  0  0  0
 25 58  1  0  0  0  0
 27 59  1  0  0  0  0
 27 60  1  0  0  0  0
 27 61  1  0  0  0  0
 28 62  1  0  0  0  0
 28 63  1  0  0  0  0
 28 64  1  0  0  0  0
 29 65  1  0  0  0  0
 29 66  1  0  0  0  0
 30 72  1  0  0  0  0
 30 73  1  0  0  0  0
 30 74  1  0  0  0  0
M  END
> <PUBCHEM_COMPOUND_CID>
132016

> <PUBCHEM_CONFORMER_RMSD>
0.8

> <PUBCHEM_CONFORMER_DIVERSEORDER>
1
45
99
32
69
24
148
153
162
167
68
12
140
160
100
112
123
107
177
113
42
144
20
171
134
168
149
98
159
70
95
92
106
60
114
116
118
6
21
93
174
18
164
11
154
170
145
135
35
176
139
109
110
37
9
30
121
52
64
163
125
46
25
48
157
124
89
152
67
54
136
127
40
143
80
65
61
142
58
51
111
36
138
146
173
4
91
150
82
151
165
129
28
172
84
158
117
128
76
133
63
62
120
38
27
126
166
43
75
90
101
96
56
73
94
66
13
132
115
108
178
88
131
169
83
155
103
31
39
44
50
86
53
41
71
55
16
34
78
74
130
49
14
33
47
85
147
77
175
102
26
2
5
17
156
15
7
23
119
97
137
87
72
81
122
29
10
3
59
22
104
105
19
8
57
79
161
141

> <PUBCHEM_MMFF94_PARTIAL_CHARGES>
21
1 -0.56
11 0.56
12 0.27
13 0.28
15 0.28
18 0.06
19 0.28
2 -0.56
26 0.57
29 0.3
3 -0.68
4 -0.68
5 -0.57
6 -0.99
67 0.36
68 0.36
69 0.37
7 -0.73
70 0.4
71 0.4
8 0.28

> <PUBCHEM_EFFECTIVE_ROTOR_COUNT>
6.8

> <PUBCHEM_PHARMACOPHORE_FEATURES>
12
1 1 acceptor
1 2 acceptor
1 3 acceptor
1 3 donor
1 30 hydrophobe
1 4 acceptor
1 4 donor
1 5 acceptor
1 6 cation
1 6 donor
1 7 donor
6 2 11 12 13 15 19 rings

> <PUBCHEM_HEAVY_ATOM_COUNT>
30

> <PUBCHEM_ATOM_DEF_STEREO_COUNT>
9

> <PUBCHEM_ATOM_UDEF_STEREO_COUNT>
0

> <PUBCHEM_BOND_DEF_STEREO_COUNT>
0

> <PUBCHEM_BOND_UDEF_STEREO_COUNT>
0

> <PUBCHEM_ISOTOPIC_ATOM_COUNT>
0

> <PUBCHEM_COMPONENT_COUNT>
1

> <PUBCHEM_CACTVS_TAUTO_COUNT>
2

> <PUBCHEM_CONFORMER_ID>
000203B000000001

> <PUBCHEM_MMFF94_ENERGY>
61.8627

> <PUBCHEM_FEATURE_SELFOVERLAP>
60.949

> <PUBCHEM_SHAPE_FINGERPRINT>
11578080 2 17344047835184533368
11756154 67 17472690335433319378
12467345 10 18114179778160778885
12553582 1 18266435704107609105
12788726 201 18408600370501657114
13402501 40 18342174475569726207
13726171 33 18188486849322054665
13782708 43 16414902189091704167
14251757 5 18335983168153326923
14790565 3 18338516336055032105
14840074 17 18114184112558428405
14931854 50 18337655453120932773
14955137 171 18336552737442278779
15183329 4 18342458149190221899
15276724 80 18411420605021225589
15328829 1 17459446911011700634
15575132 122 17968651628250855373
18222031 100 14404914629965003202
19319366 153 17749372768548795731
19958102 18 18272376338687071118
23559900 14 18341608278357447440
4258327 124 16733567016724092148
469060 322 16370723725555288421
5283173 99 18335699464067191916
563151 40 17983593918173737937
59755656 215 18411698743209260871

> <PUBCHEM_SHAPE_MULTIPOLES>
578.08
15.6
3.84
1.42
1.76
1.76
0.45
-0.06
-5.44
-2.16
0.08
0.4
-0.32
0.22

> <PUBCHEM_SHAPE_SELFOVERLAP>
1140.087

> <PUBCHEM_SHAPE_VOLUME>
341.6

> <PUBCHEM_COORDINATE_TYPE>
2
5
10

$$$$
