132027
  -OEChem-03292013323D

 47 50  0     1  0  0  0  0  0999 V2000
   -0.7055    2.3734   -0.2502 O   0  0  0  0  0  0  0  0  0  0  0  0
   -5.0696   -0.6614   -0.5528 O   0  0  0  0  0  0  0  0  0  0  0  0
    0.6237   -1.6709    1.8838 O   0  0  0  0  0  0  0  0  0  0  0  0
   -3.2064   -3.6586   -1.6494 O   0  0  0  0  0  0  0  0  0  0  0  0
    1.8658    2.6027   -0.9893 O   0  0  0  0  0  0  0  0  0  0  0  0
    4.2007    1.6784   -1.5339 O   0  0  0  0  0  0  0  0  0  0  0  0
    5.3189   -2.5487    0.2974 O   0  0  0  0  0  0  0  0  0  0  0  0
   -2.6174    0.9902    0.4363 C   0  0  1  0  0  0  0  0  0  0  0  0
   -1.6581   -0.0657    1.0622 C   0  0  2  0  0  0  0  0  0  0  0  0
   -1.9526    2.3939    0.4652 C   0  0  0  0  0  0  0  0  0  0  0  0
   -3.0283    0.5569   -0.9937 C   0  0  0  0  0  0  0  0  0  0  0  0
   -3.7238   -0.8068   -1.0055 C   0  0  1  0  0  0  0  0  0  0  0  0
   -0.2113    0.1939    0.6547 C   0  0  0  0  0  0  0  0  0  0  0  0
   -2.1163   -1.4803    0.7693 C   0  0  0  0  0  0  0  0  0  0  0  0
   -3.0493   -1.8251   -0.1335 C   0  0  0  0  0  0  0  0  0  0  0  0
   -2.8175    3.4561   -0.2360 C   0  0  0  0  0  0  0  0  0  0  0  0
   -1.7071    2.8934    1.9046 C   0  0  0  0  0  0  0  0  0  0  0  0
    0.1504    1.3224    0.0145 C   0  0  0  0  0  0  0  0  0  0  0  0
    0.8407   -0.7881    1.0615 C   0  0  0  0  0  0  0  0  0  0  0  0
   -3.4742   -3.2538   -0.3209 C   0  0  0  0  0  0  0  0  0  0  0  0
    1.5445    1.5497   -0.4494 C   0  0  0  0  0  0  0  0  0  0  0  0
    2.1831   -0.6612    0.4702 C   0  0  0  0  0  0  0  0  0  0  0  0
    2.5252    0.4721   -0.2602 C   0  0  0  0  0  0  0  0  0  0  0  0
    3.1260   -1.6788    0.6613 C   0  0  0  0  0  0  0  0  0  0  0  0
    3.8091    0.5951   -0.8045 C   0  0  0  0  0  0  0  0  0  0  0  0
    4.4042   -1.5572    0.1152 C   0  0  0  0  0  0  0  0  0  0  0  0
    4.7453   -0.4217   -0.6166 C   0  0  0  0  0  0  0  0  0  0  0  0
   -3.5292    1.0337    1.0486 H   0  0  0  0  0  0  0  0  0  0  0  0
   -1.7082    0.0513    2.1540 H   0  0  0  0  0  0  0  0  0  0  0  0
   -2.1465    0.5187   -1.6450 H   0  0  0  0  0  0  0  0  0  0  0  0
   -3.7209    1.2889   -1.4226 H   0  0  0  0  0  0  0  0  0  0  0  0
   -3.7693   -1.1547   -2.0431 H   0  0  0  0  0  0  0  0  0  0  0  0
   -1.6852   -2.2695    1.3803 H   0  0  0  0  0  0  0  0  0  0  0  0
   -2.3826    4.4554   -0.1122 H   0  0  0  0  0  0  0  0  0  0  0  0
   -2.8603    3.2951   -1.3183 H   0  0  0  0  0  0  0  0  0  0  0  0
   -3.8361    3.4752    0.1646 H   0  0  0  0  0  0  0  0  0  0  0  0
   -2.6449    2.9597    2.4662 H   0  0  0  0  0  0  0  0  0  0  0  0
   -1.0196    2.2513    2.4630 H   0  0  0  0  0  0  0  0  0  0  0  0
   -1.2392    3.8851    1.8946 H   0  0  0  0  0  0  0  0  0  0  0  0
   -4.5480   -3.3593   -0.1363 H   0  0  0  0  0  0  0  0  0  0  0  0
   -2.9558   -3.9385    0.3585 H   0  0  0  0  0  0  0  0  0  0  0  0
   -5.0554   -0.4135    0.3870 H   0  0  0  0  0  0  0  0  0  0  0  0
    2.8710   -2.5694    1.2305 H   0  0  0  0  0  0  0  0  0  0  0  0
   -2.2464   -3.5942   -1.7920 H   0  0  0  0  0  0  0  0  0  0  0  0
    5.7448   -0.3392   -1.0372 H   0  0  0  0  0  0  0  0  0  0  0  0
    5.1236    1.5638   -1.8179 H   0  0  0  0  0  0  0  0  0  0  0  0
    4.9150   -3.2580    0.8263 H   0  0  0  0  0  0  0  0  0  0  0  0
  1 10  1  0  0  0  0
  1 18  1  0  0  0  0
  2 12  1  0  0  0  0
  2 42  1  0  0  0  0
  3 19  2  0  0  0  0
  4 20  1  0  0  0  0
  4 44  1  0  0  0  0
  5 21  2  0  0  0  0
  6 25  1  0  0  0  0
  6 46  1  0  0  0  0
  7 26  1  0  0  0  0
  7 47  1  0  0  0  0
  8  9  1  0  0  0  0
  8 10  1  0  0  0  0
  8 11  1  0  0  0  0
  8 28  1  0  0  0  0
  9 13  1  0  0  0  0
  9 14  1  0  0  0  0
  9 29  1  0  0  0  0
 10 16  1  0  0  0  0
 10 17  1  0  0  0  0
 11 12  1  0  0  0  0
 11 30  1  0  0  0  0
 11 31  1  0  0  0  0
 12 15  1  0  0  0  0
 12 32  1  0  0  0  0
 13 18  2  0  0  0  0
 13 19  1  0  0  0  0
 14 15  2  0  0  0  0
 14 33  1  0  0  0  0
 15 20  1  0  0  0  0
 16 34  1  0  0  0  0
 16 35  1  0  0  0  0
 16 36  1  0  0  0  0
 17 37  1  0  0  0  0
 17 38  1  0  0  0  0
 17 39  1  0  0  0  0
 18 21  1  0  0  0  0
 19 22  1  0  0  0  0
 20 40  1  0  0  0  0
 20 41  1  0  0  0  0
 21 23  1  0  0  0  0
 22 23  2  0  0  0  0
 22 24  1  0  0  0  0
 23 25  1  0  0  0  0
 24 26  2  0  0  0  0
 24 43  1  0  0  0  0
 25 27  2  0  0  0  0
 26 27  1  0  0  0  0
 27 45  1  0  0  0  0
M  END
> <PUBCHEM_COMPOUND_CID>
132027

> <PUBCHEM_CONFORMER_RMSD>
0.6

> <PUBCHEM_CONFORMER_DIVERSEORDER>
1
3
2

> <PUBCHEM_MMFF94_PARTIAL_CHARGES>
30
1 -0.36
10 0.28
12 0.42
13 -0.12
14 -0.29
15 -0.28
18 0.09
19 0.47
2 -0.68
20 0.42
21 0.47
22 0.09
23 0.09
24 -0.15
25 0.08
26 0.08
27 -0.15
3 -0.57
33 0.15
4 -0.68
42 0.4
43 0.15
44 0.4
45 0.15
46 0.45
47 0.45
5 -0.57
6 -0.53
7 -0.53
9 0.28

> <PUBCHEM_EFFECTIVE_ROTOR_COUNT>
1.8

> <PUBCHEM_PHARMACOPHORE_FEATURES>
14
1 1 acceptor
1 2 acceptor
1 2 donor
1 3 acceptor
1 4 acceptor
1 4 donor
1 5 acceptor
1 6 donor
1 7 donor
3 10 16 17 hydrophobe
6 1 8 9 10 13 18 rings
6 13 18 19 21 22 23 rings
6 22 23 24 25 26 27 rings
6 8 9 11 12 14 15 rings

> <PUBCHEM_HEAVY_ATOM_COUNT>
27

> <PUBCHEM_ATOM_DEF_STEREO_COUNT>
3

> <PUBCHEM_ATOM_UDEF_STEREO_COUNT>
0

> <PUBCHEM_BOND_DEF_STEREO_COUNT>
0

> <PUBCHEM_BOND_UDEF_STEREO_COUNT>
0

> <PUBCHEM_ISOTOPIC_ATOM_COUNT>
0

> <PUBCHEM_COMPONENT_COUNT>
1

> <PUBCHEM_CACTVS_TAUTO_COUNT>
96

> <PUBCHEM_CONFORMER_ID>
000203BB00000001

> <PUBCHEM_MMFF94_ENERGY>
74.0982

> <PUBCHEM_FEATURE_SELFOVERLAP>
71.154

> <PUBCHEM_SHAPE_FINGERPRINT>
10062212 137 18262523580952046200
10616163 171 18340208496770513926
10622 236 18263344954741063762
10756046 5 18261108577895572613
11578080 2 17917421068632741065
12035759 4 18187920647281071515
12553582 1 18267864072216604339
12596599 1 18198074577419292468
12714826 92 17561085799726132234
12788726 201 18343868792823196089
13224815 77 18410571790819042408
13583140 156 16414053194067993874
13631057 29 18269842067912343572
13911987 19 17323533254603045812
14251757 5 18412260628031631799
14790565 3 17979077089805060865
15238133 3 12179832918922759550
16752209 62 18267569244275689001
17349148 13 18040986389159945352
17492 89 18409172121123226874
17909252 39 18269838782077875826
18603816 31 16984035542415329022
19141452 34 18195248806718469024
19862831 5 18113333128416591978
200 152 18410855468728671892
20775438 99 16974453719307065143
20775530 9 17484234528571572495
21267235 1 18189068503192567682
21634736 98 18335420209509309070
221357 26 18190173680299542407
22393880 68 17967519182038367302
23379529 103 18200603604302994878
23402539 116 18190460455349831106
23557571 272 18060132098965953064
23559900 14 18341601633921857736
238 59 17183616036613663511
25147074 1 18261401005629627792
2748010 2 16244069134305361881
3027735 51 18058445409806905711
335352 9 17826802434644555572
4280585 95 17620763786933468318
463206 1 18051132797935315647
633830 44 17023481741705292960
70251023 43 18337107985839265715
7164475 11 18410011057005221236
7471813 234 18336539508484220222
9709674 26 18338245847340634622

> <PUBCHEM_SHAPE_MULTIPOLES>
514.56
9.21
3.9
1.34
6.87
0.1
-0.19
4.88
2.78
-3.4
0.41
-0.23
-0.05
-2.09

> <PUBCHEM_SHAPE_SELFOVERLAP>
1140.884

> <PUBCHEM_SHAPE_VOLUME>
270.6

> <PUBCHEM_COORDINATE_TYPE>
2
5
10

$$$$
