132022
  -OEChem-03292013323D

 42 44  0     0  0  0  0  0  0999 V2000
    1.3587    1.4735    0.8987 O   0  0  0  0  0  0  0  0  0  0  0  0
    5.8251    1.8221   -0.4959 O   0  0  0  0  0  0  0  0  0  0  0  0
   -5.1885    2.7474   -0.5202 O   0  5  0  0  0  0  0  0  0  0  0  0
   -3.2423    1.8345   -0.0550 O   0  0  0  0  0  0  0  0  0  0  0  0
    1.6935   -1.4721    0.5000 N   0  0  0  0  0  0  0  0  0  0  0  0
    4.8682   -0.2965   -0.3993 N   0  0  0  0  0  0  0  0  0  0  0  0
    3.5943    1.6734    0.2032 N   0  0  0  0  0  0  0  0  0  0  0  0
   -4.5102   -0.7084   -0.3783 N   0  0  0  0  0  0  0  0  0  0  0  0
    3.5981   -2.3951   -0.2006 N   0  0  0  0  0  0  0  0  0  0  0  0
   -6.3483    0.3183    0.2864 N   0  0  0  0  0  0  0  0  0  0  0  0
   -4.4898    1.7339   -0.2331 N   0  3  0  0  0  0  0  0  0  0  0  0
    0.3233   -1.3891    0.9457 C   0  0  0  0  0  0  0  0  0  0  0  0
   -0.6870   -1.2211   -0.1929 C   0  0  0  0  0  0  0  0  0  0  0  0
   -2.1289   -1.0726    0.3056 C   0  0  0  0  0  0  0  0  0  0  0  0
    2.5733   -0.4435    0.3210 C   0  0  0  0  0  0  0  0  0  0  0  0
   -3.1396   -0.9103   -0.8335 C   0  0  0  0  0  0  0  0  0  0  0  0
    3.7299   -1.0356   -0.1079 C   0  0  0  0  0  0  0  0  0  0  0  0
    2.3566   -2.6268    0.1732 C   0  0  0  0  0  0  0  0  0  0  0  0
    2.4056    0.9605    0.5132 C   0  0  0  0  0  0  0  0  0  0  0  0
    4.8425    1.1130   -0.2512 C   0  0  0  0  0  0  0  0  0  0  0  0
    6.0771   -0.9727   -0.8531 C   0  0  0  0  0  0  0  0  0  0  0  0
   -5.1058    0.4832   -0.1101 C   0  0  0  0  0  0  0  0  0  0  0  0
    3.5472    3.1233    0.3610 C   0  0  0  0  0  0  0  0  0  0  0  0
   -5.4094   -1.6993   -0.1445 C   0  0  0  0  0  0  0  0  0  0  0  0
   -6.5436   -1.0400    0.2676 C   0  0  0  0  0  0  0  0  0  0  0  0
    0.1067   -2.3124    1.4975 H   0  0  0  0  0  0  0  0  0  0  0  0
    0.2429   -0.5739    1.6714 H   0  0  0  0  0  0  0  0  0  0  0  0
   -0.6213   -2.0826   -0.8693 H   0  0  0  0  0  0  0  0  0  0  0  0
   -0.4213   -0.3387   -0.7886 H   0  0  0  0  0  0  0  0  0  0  0  0
   -2.3965   -1.9576    0.8973 H   0  0  0  0  0  0  0  0  0  0  0  0
   -2.1862   -0.2232    0.9952 H   0  0  0  0  0  0  0  0  0  0  0  0
   -3.1467   -1.8207   -1.4468 H   0  0  0  0  0  0  0  0  0  0  0  0
   -2.8714   -0.0950   -1.5131 H   0  0  0  0  0  0  0  0  0  0  0  0
    1.8868   -3.5997    0.2249 H   0  0  0  0  0  0  0  0  0  0  0  0
    6.8868   -0.2635   -1.0425 H   0  0  0  0  0  0  0  0  0  0  0  0
    5.8564   -1.5121   -1.7793 H   0  0  0  0  0  0  0  0  0  0  0  0
    6.3998   -1.6793   -0.0824 H   0  0  0  0  0  0  0  0  0  0  0  0
    2.5749    3.4813    0.7064 H   0  0  0  0  0  0  0  0  0  0  0  0
    3.7812    3.5869   -0.6027 H   0  0  0  0  0  0  0  0  0  0  0  0
    4.3178    3.4214    1.0791 H   0  0  0  0  0  0  0  0  0  0  0  0
   -5.1840   -2.7479   -0.2803 H   0  0  0  0  0  0  0  0  0  0  0  0
   -7.4909   -1.4745    0.5522 H   0  0  0  0  0  0  0  0  0  0  0  0
  1 19  2  0  0  0  0
  2 20  2  0  0  0  0
  3 11  1  0  0  0  0
  4 11  2  0  0  0  0
  5 12  1  0  0  0  0
  5 15  1  0  0  0  0
  5 18  1  0  0  0  0
  6 17  1  0  0  0  0
  6 20  1  0  0  0  0
  6 21  1  0  0  0  0
  7 19  1  0  0  0  0
  7 20  1  0  0  0  0
  7 23  1  0  0  0  0
  8 16  1  0  0  0  0
  8 22  1  0  0  0  0
  8 24  1  0  0  0  0
  9 17  1  0  0  0  0
  9 18  2  0  0  0  0
 10 22  2  0  0  0  0
 10 25  1  0  0  0  0
 11 22  1  0  0  0  0
 12 13  1  0  0  0  0
 12 26  1  0  0  0  0
 12 27  1  0  0  0  0
 13 14  1  0  0  0  0
 13 28  1  0  0  0  0
 13 29  1  0  0  0  0
 14 16  1  0  0  0  0
 14 30  1  0  0  0  0
 14 31  1  0  0  0  0
 15 17  2  0  0  0  0
 15 19  1  0  0  0  0
 16 32  1  0  0  0  0
 16 33  1  0  0  0  0
 18 34  1  0  0  0  0
 21 35  1  0  0  0  0
 21 36  1  0  0  0  0
 21 37  1  0  0  0  0
 23 38  1  0  0  0  0
 23 39  1  0  0  0  0
 23 40  1  0  0  0  0
 24 25  2  0  0  0  0
 24 41  1  0  0  0  0
 25 42  1  0  0  0  0
M  CHG  2   3  -1  11   1
M  END
> <PUBCHEM_COMPOUND_CID>
132022

> <PUBCHEM_CONFORMER_RMSD>
0.8

> <PUBCHEM_CONFORMER_DIVERSEORDER>
5
103
12
50
66
32
95
51
16
113
96
72
112
100
34
11
26
71
56
102
80
114
59
110
88
93
17
62
49
4
98
28
67
84
69
86
75
43
19
105
46
94
18
39
104
2
24
54
90
58
1
106
41
14
82
33
20
3
31
89
15
76
22
109
48
13
35
61
23
68
111
91
6
7
65
73
79
52
57
40
81
78
92
87
85
47
21
10
8
101
74
9
63
30
38
44
25
60
108
29
27
77
53
45
36
83
37
107
55
70
97
42
99
64

> <PUBCHEM_MMFF94_PARTIAL_CHARGES>
26
1 -0.57
10 -0.57
11 0.96
12 0.26
15 -0.24
16 0.26
17 0.29
18 0.04
19 0.71
2 -0.57
20 0.69
21 0.3
22 0.27
23 0.3
24 -0.3
25 0.08
3 -0.52
34 0.15
4 -0.52
41 0.15
42 0.15
5 0.05
6 -0.42
7 -0.42
8 0.05
9 -0.57

> <PUBCHEM_EFFECTIVE_ROTOR_COUNT>
6

> <PUBCHEM_PHARMACOPHORE_FEATURES>
9
1 1 acceptor
1 2 acceptor
1 3 acceptor
1 4 acceptor
3 5 9 18 cation
4 8 10 11 22 cation
5 5 9 15 17 18 rings
5 8 10 22 24 25 rings
6 6 7 15 17 19 20 rings

> <PUBCHEM_HEAVY_ATOM_COUNT>
25

> <PUBCHEM_ATOM_DEF_STEREO_COUNT>
0

> <PUBCHEM_ATOM_UDEF_STEREO_COUNT>
0

> <PUBCHEM_BOND_DEF_STEREO_COUNT>
0

> <PUBCHEM_BOND_UDEF_STEREO_COUNT>
0

> <PUBCHEM_ISOTOPIC_ATOM_COUNT>
0

> <PUBCHEM_COMPONENT_COUNT>
1

> <PUBCHEM_CACTVS_TAUTO_COUNT>
1

> <PUBCHEM_CONFORMER_ID>
000203B600000005

> <PUBCHEM_MMFF94_ENERGY>
39.2736

> <PUBCHEM_FEATURE_SELFOVERLAP>
45.868

> <PUBCHEM_SHAPE_FINGERPRINT>
10411042 1 18122908621662154246
10595046 47 18410571795293649831
10693767 8 17987808410926528174
12107183 9 17761771767806368299
12730499 353 18334018315136570178
12788726 201 17275114907496075169
14341114 176 18409452479745439959
14528608 73 18411417340840851071
14933364 13 18411141338016322887
15183329 4 18413390921088709403
15196674 1 18410008806616574321
15961568 22 18187364354743665933
17844677 252 18411705357458863923
18608769 82 18263930002538015451
221357 26 18341892999981111625
22224240 67 8430310213570069422
22289505 5 18342175531999812006
23559900 14 18126557921654157275
29717793 49 17489879232537231118
3004659 81 18410573977046897936
335352 9 18410579505382224302
34797466 226 18130796654832308447
4073 2 18113904904765677595
46194498 28 18272940414122020614
5104073 3 18114460063969651331
5312625 73 18410292536340365227
53794403 172 18043818808175386964
54446538 1 18410853265763941935
9996256 80 18412543245322157895

> <PUBCHEM_SHAPE_MULTIPOLES>
456.14
17.33
2.97
0.79
14.37
1.39
-0.01
3.04
2.74
-1.44
-0.06
-0.19
-0.05
0.54

> <PUBCHEM_SHAPE_SELFOVERLAP>
975.395

> <PUBCHEM_SHAPE_VOLUME>
252.8

> <PUBCHEM_COORDINATE_TYPE>
2
5
10

$$$$
