132065
  -OEChem-03292013323D

 58 61  0     1  0  0  0  0  0999 V2000
   -4.6664   -1.6566    2.0064 O   0  0  0  0  0  0  0  0  0  0  0  0
   -7.9086   -1.7660   -1.8515 O   0  0  0  0  0  0  0  0  0  0  0  0
   -5.8018   -1.4021   -2.6128 O   0  0  0  0  0  0  0  0  0  0  0  0
   -7.4274    3.8127   -0.7473 O   0  0  0  0  0  0  0  0  0  0  0  0
   -8.3853    2.6673    0.9609 O   0  0  0  0  0  0  0  0  0  0  0  0
    5.9887   -1.9855   -0.2869 N   0  0  0  0  0  0  0  0  0  0  0  0
    7.8286   -0.6335   -0.5007 N   0  0  0  0  0  0  0  0  0  0  0  0
    7.6806    1.7585   -0.3912 N   0  0  0  0  0  0  0  0  0  0  0  0
    5.6912    2.8326   -0.0098 N   0  0  0  0  0  0  0  0  0  0  0  0
   -4.8715   -0.8394   -0.1538 N   0  0  0  0  0  0  0  0  0  0  0  0
    9.7437    0.7042   -0.7179 N   0  0  0  0  0  0  0  0  0  0  0  0
    1.5324   -0.1766    0.8406 C   0  0  2  0  0  0  0  0  0  0  0  0
    1.8899    1.0837    0.0430 C   0  0  0  0  0  0  0  0  0  0  0  0
    2.3042   -1.3760    0.2666 C   0  0  0  0  0  0  0  0  0  0  0  0
    3.3797    1.4041    0.1848 C   0  0  0  0  0  0  0  0  0  0  0  0
    4.2905    0.2071    0.0069 C   0  0  0  0  0  0  0  0  0  0  0  0
    3.7683   -1.0881    0.0763 C   0  0  0  0  0  0  0  0  0  0  0  0
    0.0388   -0.4409    0.8791 C   0  0  0  0  0  0  0  0  0  0  0  0
    5.6923    0.3741   -0.1745 C   0  0  0  0  0  0  0  0  0  0  0  0
    4.6597   -2.1337   -0.0920 C   0  0  0  0  0  0  0  0  0  0  0  0
   -0.6563   -0.6747   -0.3055 C   0  0  0  0  0  0  0  0  0  0  0  0
   -0.6335   -0.4480    2.0995 C   0  0  0  0  0  0  0  0  0  0  0  0
    6.5094   -0.7565   -0.3229 C   0  0  0  0  0  0  0  0  0  0  0  0
    6.3557    1.6081   -0.2155 C   0  0  0  0  0  0  0  0  0  0  0  0
   -2.0296   -0.9167   -0.2697 C   0  0  0  0  0  0  0  0  0  0  0  0
   -2.0068   -0.6900    2.1356 C   0  0  0  0  0  0  0  0  0  0  0  0
   -2.7048   -0.9243    0.9509 C   0  0  0  0  0  0  0  0  0  0  0  0
   -4.1363   -1.1784    0.9880 C   0  0  0  0  0  0  0  0  0  0  0  0
    8.3482    0.6085   -0.5272 C   0  0  0  0  0  0  0  0  0  0  0  0
   -6.3028   -1.0093   -0.2620 C   0  0  1  0  0  0  0  0  0  0  0  0
   -7.0835    0.2134    0.2352 C   0  0  0  0  0  0  0  0  0  0  0  0
   -6.8460    1.5173   -0.5372 C   0  0  0  0  0  0  0  0  0  0  0  0
   -6.6120   -1.3908   -1.6951 C   0  0  0  0  0  0  0  0  0  0  0  0
   -7.6293    2.6957   -0.0002 C   0  0  0  0  0  0  0  0  0  0  0  0
    1.8783   -0.0195    1.8730 H   0  0  0  0  0  0  0  0  0  0  0  0
    1.2995    1.9428    0.3855 H   0  0  0  0  0  0  0  0  0  0  0  0
    1.6496    0.9431   -1.0194 H   0  0  0  0  0  0  0  0  0  0  0  0
    2.1827   -2.2330    0.9423 H   0  0  0  0  0  0  0  0  0  0  0  0
    1.9024   -1.6771   -0.7089 H   0  0  0  0  0  0  0  0  0  0  0  0
    3.5682    2.1592   -0.5832 H   0  0  0  0  0  0  0  0  0  0  0  0
    3.5289    1.8145    1.1898 H   0  0  0  0  0  0  0  0  0  0  0  0
    4.3224   -3.1661   -0.0736 H   0  0  0  0  0  0  0  0  0  0  0  0
   -0.1507   -0.6756   -1.2670 H   0  0  0  0  0  0  0  0  0  0  0  0
   -0.1038   -0.2660    3.0307 H   0  0  0  0  0  0  0  0  0  0  0  0
   -2.5279   -1.1244   -1.2120 H   0  0  0  0  0  0  0  0  0  0  0  0
   -2.5149   -0.6874    3.0964 H   0  0  0  0  0  0  0  0  0  0  0  0
   -6.5734   -1.8734    0.3579 H   0  0  0  0  0  0  0  0  0  0  0  0
    5.1128    2.9067    0.8165 H   0  0  0  0  0  0  0  0  0  0  0  0
    6.2696    3.6517   -0.1674 H   0  0  0  0  0  0  0  0  0  0  0  0
   -4.4098   -0.3771   -0.9303 H   0  0  0  0  0  0  0  0  0  0  0  0
   -8.1574   -0.0135    0.2090 H   0  0  0  0  0  0  0  0  0  0  0  0
   -6.8381    0.3849    1.2917 H   0  0  0  0  0  0  0  0  0  0  0  0
   -5.7838    1.7823   -0.4956 H   0  0  0  0  0  0  0  0  0  0  0  0
   -7.1335    1.3793   -1.5853 H   0  0  0  0  0  0  0  0  0  0  0  0
   10.2898   -0.1394   -0.8245 H   0  0  0  0  0  0  0  0  0  0  0  0
   10.1805    1.6152   -0.7440 H   0  0  0  0  0  0  0  0  0  0  0  0
   -8.1039   -2.0284   -2.7763 H   0  0  0  0  0  0  0  0  0  0  0  0
   -7.9474    4.5745   -0.4132 H   0  0  0  0  0  0  0  0  0  0  0  0
  1 28  2  0  0  0  0
  2 33  1  0  0  0  0
  2 57  1  0  0  0  0
  3 33  2  0  0  0  0
  4 34  1  0  0  0  0
  4 58  1  0  0  0  0
  5 34  2  0  0  0  0
  6 20  1  0  0  0  0
  6 23  2  0  0  0  0
  7 23  1  0  0  0  0
  7 29  2  0  0  0  0
  8 24  2  0  0  0  0
  8 29  1  0  0  0  0
  9 24  1  0  0  0  0
  9 48  1  0  0  0  0
  9 49  1  0  0  0  0
 10 28  1  0  0  0  0
 10 30  1  0  0  0  0
 10 50  1  0  0  0  0
 11 29  1  0  0  0  0
 11 55  1  0  0  0  0
 11 56  1  0  0  0  0
 12 13  1  0  0  0  0
 12 14  1  0  0  0  0
 12 18  1  0  0  0  0
 12 35  1  0  0  0  0
 13 15  1  0  0  0  0
 13 36  1  0  0  0  0
 13 37  1  0  0  0  0
 14 17  1  0  0  0  0
 14 38  1  0  0  0  0
 14 39  1  0  0  0  0
 15 16  1  0  0  0  0
 15 40  1  0  0  0  0
 15 41  1  0  0  0  0
 16 17  1  0  0  0  0
 16 19  2  0  0  0  0
 17 20  2  0  0  0  0
 18 21  2  0  0  0  0
 18 22  1  0  0  0  0
 19 23  1  0  0  0  0
 19 24  1  0  0  0  0
 20 42  1  0  0  0  0
 21 25  1  0  0  0  0
 21 43  1  0  0  0  0
 22 26  2  0  0  0  0
 22 44  1  0  0  0  0
 25 27  2  0  0  0  0
 25 45  1  0  0  0  0
 26 27  1  0  0  0  0
 26 46  1  0  0  0  0
 27 28  1  0  0  0  0
 30 31  1  0  0  0  0
 30 33  1  0  0  0  0
 30 47  1  0  0  0  0
 31 32  1  0  0  0  0
 31 51  1  0  0  0  0
 31 52  1  0  0  0  0
 32 34  1  0  0  0  0
 32 53  1  0  0  0  0
 32 54  1  0  0  0  0
M  END
> <PUBCHEM_COMPOUND_CID>
132065

> <PUBCHEM_CONFORMER_RMSD>
1

> <PUBCHEM_CONFORMER_DIVERSEORDER>
5
15
86
94
33
59
70
93
49
72
79
98
43
60
36
4
95
91
2
56
77
52
25
47
57
19
32
90
64
41
29
45
89
71
10
18
62
87
65
74
68
66
3
99
78
51
34
9
42
97
37
1
28
8
16
61
53
13
58
48
76
96
14
30
23
81
55
11
84
35
39
75
6
26
92
24
20
85
17
38
83
88
50
21
40
82
67
22
69
12
27
44
73
63
7
54
80
46
31

> <PUBCHEM_MMFF94_PARTIAL_CHARGES>
43
1 -0.57
10 -0.73
11 -0.9
12 0.14
14 0.14
15 0.14
16 -0.14
17 -0.14
18 -0.14
2 -0.65
20 0.16
21 -0.15
22 -0.15
23 0.62
24 0.41
25 -0.15
26 -0.15
27 0.09
28 0.54
29 0.72
3 -0.57
30 0.36
32 0.06
33 0.66
34 0.66
4 -0.65
42 0.15
43 0.15
44 0.15
45 0.15
46 0.15
48 0.4
49 0.4
5 -0.57
50 0.37
55 0.4
56 0.4
57 0.5
58 0.5
6 -0.62
7 -0.62
8 -0.62
9 -0.9

> <PUBCHEM_EFFECTIVE_ROTOR_COUNT>
8.8

> <PUBCHEM_PHARMACOPHORE_FEATURES>
15
1 1 acceptor
1 10 donor
1 11 donor
1 2 acceptor
1 3 acceptor
1 4 acceptor
1 5 acceptor
1 9 donor
3 2 3 33 anion
3 4 5 34 anion
4 7 8 11 29 cation
6 12 13 14 15 16 17 rings
6 18 21 22 25 26 27 rings
6 6 16 17 19 20 23 rings
6 7 8 19 23 24 29 rings

> <PUBCHEM_HEAVY_ATOM_COUNT>
34

> <PUBCHEM_ATOM_DEF_STEREO_COUNT>
1

> <PUBCHEM_ATOM_UDEF_STEREO_COUNT>
1

> <PUBCHEM_BOND_DEF_STEREO_COUNT>
0

> <PUBCHEM_BOND_UDEF_STEREO_COUNT>
0

> <PUBCHEM_ISOTOPIC_ATOM_COUNT>
0

> <PUBCHEM_COMPONENT_COUNT>
1

> <PUBCHEM_CACTVS_TAUTO_COUNT>
24

> <PUBCHEM_CONFORMER_ID>
000203E100000005

> <PUBCHEM_MMFF94_ENERGY>
110.8541

> <PUBCHEM_FEATURE_SELFOVERLAP>
76.295

> <PUBCHEM_SHAPE_FINGERPRINT>
10 15 14056997214197874491
10835480 77 18114181964452392362
10952577 141 18127971911753113221
11181472 205 18198913517354200464
11408170 132 18335711499103541588
11409948 35 16443612512869034426
11578821 258 17968949720330220084
12082328 90 18410574007592113047
12236239 1 17775015595995688626
12522641 126 12750934672705863130
12838862 33 18337385046470063770
13383665 225 17749973080754787748
13782708 43 12463577278763479231
13914758 101 18411418401834520683
14068700 675 16845297171629052144
15064986 266 18412545440841957875
15183329 4 18411417314902073603
15276724 80 18187922829092932925
15461852 350 17917713521772134599
15604295 49 18339357569497837880
1577012 14 18261669299230154075
17686467 74 15267060372149152418
195137 175 18272094872579525817
20554085 129 16588296224937244658
21033648 29 17895750820621782488
21095123 145 11891341945371705049
21150785 3 18060420243816182774
21223535 225 18260544490461802277
21424621 283 17968097482911591737
22164985 6 17131832101167113529
23522609 53 17129894778911655056
23576562 1 18192989546414819815
335352 9 18341341072390650790
3633792 109 18341619196375167634
3711267 37 16298391248893631892
4073 2 17968101961819345658
4098825 35 18413103940443869269
44575985 377 16951433030292782793
44802255 64 18131067114040805511
4516262 110 17896028851377320805
504579 68 17704076213567070974
54039377 194 17059774546533647119
5937810 71 18260825978397241869
6086070 43 17775562048705484849
6475588 51 18261391079855777381
6691757 9 15574999502966071235
9962374 69 12103555390593490042

> <PUBCHEM_SHAPE_MULTIPOLES>
640.47
30.81
2.68
1.5
0.23
2.4
-0.04
13.74
11.19
3.91
0.33
3.29
-0.76
-1.01

> <PUBCHEM_SHAPE_SELFOVERLAP>
1393.291

> <PUBCHEM_SHAPE_VOLUME>
342.7

> <PUBCHEM_COORDINATE_TYPE>
2
5
10

$$$$
