132054
  -OEChem-03292013323D

 31 32  0     0  0  0  0  0  0999 V2000
   -2.1705   -2.0984   -0.0010 S   0  0  0  0  0  0  0  0  0  0  0  0
    3.8046    1.2133   -0.0002 S   0  0  0  0  0  0  0  0  0  0  0  0
   -1.8431   -2.8157    1.2351 O   0  5  0  0  0  0  0  0  0  0  0  0
   -3.4951   -1.4681    0.0009 O   0  0  0  0  0  0  0  0  0  0  0  0
   -1.8479   -2.8124   -1.2405 O   0  0  0  0  0  0  0  0  0  0  0  0
    3.6683    1.7915    1.3421 O   0  5  0  0  0  0  0  0  0  0  0  0
    5.1027    0.5711   -0.2456 O   0  0  0  0  0  0  0  0  0  0  0  0
    3.3519    2.0785   -1.0964 O   0  0  0  0  0  0  0  0  0  0  0  0
   -3.0597    3.1370   -0.0016 O   0  0  0  0  0  0  0  0  0  0  0  0
   -2.9116    0.7847    0.0008 N   0  0  0  0  0  0  0  0  0  0  0  0
    0.3638   -0.9802    0.0003 C   0  0  0  0  0  0  0  0  0  0  0  0
    1.2433    0.1288    0.0004 C   0  0  0  0  0  0  0  0  0  0  0  0
   -1.0228   -0.7572    0.0005 C   0  0  0  0  0  0  0  0  0  0  0  0
    2.6299   -0.0942    0.0004 C   0  0  0  0  0  0  0  0  0  0  0  0
   -1.5350    0.5405    0.0006 C   0  0  0  0  0  0  0  0  0  0  0  0
    0.7101    1.4280    0.0007 C   0  0  0  0  0  0  0  0  0  0  0  0
    0.8970   -2.2794    0.0001 C   0  0  0  0  0  0  0  0  0  0  0  0
   -0.6702    1.6310    0.0008 C   0  0  0  0  0  0  0  0  0  0  0  0
    3.1422   -1.3919    0.0000 C   0  0  0  0  0  0  0  0  0  0  0  0
    2.2773   -2.4823   -0.0001 C   0  0  0  0  0  0  0  0  0  0  0  0
   -3.5681    2.0205    0.0013 C   0  0  0  0  0  0  0  0  0  0  0  0
   -5.0671    1.8549    0.0014 C   0  0  0  0  0  0  0  0  0  0  0  0
    1.3178    2.3244    0.0399 H   0  0  0  0  0  0  0  0  0  0  0  0
    0.2916   -3.1785   -0.0002 H   0  0  0  0  0  0  0  0  0  0  0  0
   -0.9783    2.6658    0.0106 H   0  0  0  0  0  0  0  0  0  0  0  0
    4.2075   -1.6007    0.0090 H   0  0  0  0  0  0  0  0  0  0  0  0
    2.6771   -3.4924    0.0016 H   0  0  0  0  0  0  0  0  0  0  0  0
   -3.5465    0.0076    0.0013 H   0  0  0  0  0  0  0  0  0  0  0  0
   -5.3806    1.3171   -0.8978 H   0  0  0  0  0  0  0  0  0  0  0  0
   -5.5482    2.8368    0.0133 H   0  0  0  0  0  0  0  0  0  0  0  0
   -5.3790    1.2972    0.8891 H   0  0  0  0  0  0  0  0  0  0  0  0
  1  3  1  0  0  0  0
  1  4  2  0  0  0  0
  1  5  2  0  0  0  0
  1 13  1  0  0  0  0
  2  6  1  0  0  0  0
  2  7  2  0  0  0  0
  2  8  2  0  0  0  0
  2 14  1  0  0  0  0
  9 21  2  0  0  0  0
 10 15  1  0  0  0  0
 10 21  1  0  0  0  0
 10 28  1  0  0  0  0
 11 12  2  0  0  0  0
 11 13  1  0  0  0  0
 11 17  1  0  0  0  0
 12 14  1  0  0  0  0
 12 16  1  0  0  0  0
 13 15  2  0  0  0  0
 14 19  2  0  0  0  0
 15 18  1  0  0  0  0
 16 18  2  0  0  0  0
 16 23  1  0  0  0  0
 17 20  2  0  0  0  0
 17 24  1  0  0  0  0
 18 25  1  0  0  0  0
 19 20  1  0  0  0  0
 19 26  1  0  0  0  0
 20 27  1  0  0  0  0
 21 22  1  0  0  0  0
 22 29  1  0  0  0  0
 22 30  1  0  0  0  0
 22 31  1  0  0  0  0
M  CHG  2   3  -1   6  -1
M  END
> <PUBCHEM_COMPOUND_CID>
132054

> <PUBCHEM_CONFORMER_RMSD>
0.6

> <PUBCHEM_CONFORMER_DIVERSEORDER>
1
2
3

> <PUBCHEM_MMFF94_PARTIAL_CHARGES>
26
1 1.46
10 -0.55
13 -0.01
14 -0.01
15 0.12
16 -0.15
17 -0.15
18 -0.15
19 -0.15
2 1.46
20 -0.15
21 0.57
22 0.06
23 0.15
24 0.15
25 0.15
26 0.15
27 0.15
28 0.37
3 -0.82
4 -0.82
5 -0.82
6 -0.82
7 -0.82
8 -0.82
9 -0.57

> <PUBCHEM_EFFECTIVE_ROTOR_COUNT>
4

> <PUBCHEM_PHARMACOPHORE_FEATURES>
12
1 10 donor
1 3 acceptor
1 4 acceptor
1 5 acceptor
1 6 acceptor
1 7 acceptor
1 8 acceptor
1 9 acceptor
4 1 3 4 5 anion
4 2 6 7 8 anion
6 11 12 13 15 16 18 rings
6 11 12 14 17 19 20 rings

> <PUBCHEM_HEAVY_ATOM_COUNT>
22

> <PUBCHEM_ATOM_DEF_STEREO_COUNT>
0

> <PUBCHEM_ATOM_UDEF_STEREO_COUNT>
0

> <PUBCHEM_BOND_DEF_STEREO_COUNT>
0

> <PUBCHEM_BOND_UDEF_STEREO_COUNT>
0

> <PUBCHEM_ISOTOPIC_ATOM_COUNT>
0

> <PUBCHEM_COMPONENT_COUNT>
1

> <PUBCHEM_CACTVS_TAUTO_COUNT>
2

> <PUBCHEM_CONFORMER_ID>
000203D600000001

> <PUBCHEM_MMFF94_ENERGY>
75.9415

> <PUBCHEM_FEATURE_SELFOVERLAP>
61.063

> <PUBCHEM_SHAPE_FINGERPRINT>
10062212 137 18335974359338640922
10411042 1 17617942873223406234
10608611 8 18411698768403739666
10616163 171 18410577322462619374
10967382 1 18266458702602152012
1100329 8 18120369861296051970
11578080 2 12966289281172356234
11680986 33 18338243660785478138
12173636 292 18412258407328045525
12390115 104 18270416004392419816
12403259 415 18129382756262691056
12403260 363 18193544782981302388
12500047 106 18412259523676650744
12507560 14 17764300648597514338
12553582 1 17978513366345426367
13140716 1 18409441458463895290
138480 1 17329710916697374123
14178342 30 18336254730440113440
14790565 3 17904779008543474621
15196674 1 18410575059120362307
15420108 30 15035426952993526384
16752209 62 18267021846314365918
16945 1 18050567649248282250
19591789 44 18048878494350355821
20510252 161 18127133202289646768
20602899 9 15985100812617434991
20739085 24 17832452824531106865
21041028 32 17902240236637746291
21197605 99 18411710859892310075
21267235 1 18337681913655229102
21501502 16 18409442579234068402
21524375 3 18267021644487871671
22182313 1 18270984386994024639
23227448 37 18410293592611994527
2334 1 18338799021821837682
23402539 116 18198056096375458454
23557571 272 18342748454703706092
23558518 356 18260831522398290955
23559900 14 18270397175435038054
25147074 1 18335406964089046826
2748010 2 18411706503967238214
335352 9 18266459806973522750
34934 24 18408882914856470242
350125 39 18410578366239827546
352729 6 18198627635851858931
474 4 18186806859303621484
495365 180 17631997681574040440
5104073 3 18408885113864012827
633830 44 17912362031434929061
69090 78 18337669703199849897
7364860 26 18198060283926276334
7832392 63 18409449172219572116
9709674 26 18412267220353198734
9999458 23 18045224834480757383

> <PUBCHEM_SHAPE_MULTIPOLES>
414.38
8.2
3.58
0.81
0.44
1.01
0.04
-5.29
-0.02
1.66
-0.02
-0.2
0.1
0.01

> <PUBCHEM_SHAPE_SELFOVERLAP>
882.235

> <PUBCHEM_SHAPE_VOLUME>
229.8

> <PUBCHEM_COORDINATE_TYPE>
2
5
10

$$$$
