132026
  -OEChem-03292013323D

 46 49  0     1  0  0  0  0  0999 V2000
    0.7995    2.3665    0.1638 O   0  0  0  0  0  0  0  0  0  0  0  0
   -0.4058   -1.8630   -1.6651 O   0  0  0  0  0  0  0  0  0  0  0  0
    5.0308   -3.2956    0.6304 O   0  0  0  0  0  0  0  0  0  0  0  0
   -1.8004    2.6231    0.7843 O   0  0  0  0  0  0  0  0  0  0  0  0
   -4.1454    1.7182    1.3158 O   0  0  0  0  0  0  0  0  0  0  0  0
   -5.1514   -2.6619   -0.1927 O   0  0  0  0  0  0  0  0  0  0  0  0
    2.7492    0.9542   -0.3281 C   0  0  1  0  0  0  0  0  0  0  0  0
    1.8255   -0.1611   -0.9019 C   0  0  2  0  0  0  0  0  0  0  0  0
    2.0745    2.3423   -0.5005 C   0  0  0  0  0  0  0  0  0  0  0  0
    3.1074    0.6485    1.1454 C   0  0  0  0  0  0  0  0  0  0  0  0
    0.3620    0.1119   -0.5712 C   0  0  0  0  0  0  0  0  0  0  0  0
    3.8098   -0.6987    1.2994 C   0  0  0  0  0  0  0  0  0  0  0  0
    2.2882   -1.5405   -0.4779 C   0  0  0  0  0  0  0  0  0  0  0  0
    3.1835   -1.7945    0.4901 C   0  0  0  0  0  0  0  0  0  0  0  0
   -0.0352    1.2856   -0.0428 C   0  0  0  0  0  0  0  0  0  0  0  0
    1.8830    2.7179   -1.9848 C   0  0  0  0  0  0  0  0  0  0  0  0
    2.9014    3.4688    0.1438 C   0  0  0  0  0  0  0  0  0  0  0  0
   -0.6634   -0.9155   -0.9312 C   0  0  0  0  0  0  0  0  0  0  0  0
   -1.4482    1.5326    0.3478 C   0  0  0  0  0  0  0  0  0  0  0  0
    3.6313   -3.1904    0.8107 C   0  0  0  0  0  0  0  0  0  0  0  0
   -2.0291   -0.7562   -0.4042 C   0  0  0  0  0  0  0  0  0  0  0  0
   -2.4103    0.4303    0.2139 C   0  0  0  0  0  0  0  0  0  0  0  0
   -2.9540   -1.7984   -0.5435 C   0  0  0  0  0  0  0  0  0  0  0  0
   -3.7155    0.5822    0.6969 C   0  0  0  0  0  0  0  0  0  0  0  0
   -4.2537   -1.6474   -0.0589 C   0  0  0  0  0  0  0  0  0  0  0  0
   -4.6338   -0.4588    0.5605 C   0  0  0  0  0  0  0  0  0  0  0  0
    3.6893    0.9513   -0.8994 H   0  0  0  0  0  0  0  0  0  0  0  0
    1.9164   -0.1322   -1.9970 H   0  0  0  0  0  0  0  0  0  0  0  0
    2.2047    0.6577    1.7690 H   0  0  0  0  0  0  0  0  0  0  0  0
    3.7765    1.4137    1.5526 H   0  0  0  0  0  0  0  0  0  0  0  0
    3.8099   -0.9696    2.3620 H   0  0  0  0  0  0  0  0  0  0  0  0
    4.8586   -0.5918    0.9954 H   0  0  0  0  0  0  0  0  0  0  0  0
    1.8957   -2.3829   -1.0419 H   0  0  0  0  0  0  0  0  0  0  0  0
    1.4082    3.7021   -2.0760 H   0  0  0  0  0  0  0  0  0  0  0  0
    2.8418    2.7468   -2.5130 H   0  0  0  0  0  0  0  0  0  0  0  0
    1.2225    2.0245   -2.5140 H   0  0  0  0  0  0  0  0  0  0  0  0
    2.9030    3.3973    1.2366 H   0  0  0  0  0  0  0  0  0  0  0  0
    3.9348    3.4676   -0.2174 H   0  0  0  0  0  0  0  0  0  0  0  0
    2.4626    4.4492   -0.0784 H   0  0  0  0  0  0  0  0  0  0  0  0
    3.1457   -3.9338    0.1697 H   0  0  0  0  0  0  0  0  0  0  0  0
    3.3899   -3.4312    1.8516 H   0  0  0  0  0  0  0  0  0  0  0  0
   -2.6687   -2.7305   -1.0252 H   0  0  0  0  0  0  0  0  0  0  0  0
    5.2836   -4.2044    0.8665 H   0  0  0  0  0  0  0  0  0  0  0  0
   -5.6474   -0.3444    0.9370 H   0  0  0  0  0  0  0  0  0  0  0  0
   -3.4083    2.3317    1.4548 H   0  0  0  0  0  0  0  0  0  0  0  0
   -4.7204   -3.4079   -0.6441 H   0  0  0  0  0  0  0  0  0  0  0  0
  1  9  1  0  0  0  0
  1 15  1  0  0  0  0
  2 18  2  0  0  0  0
  3 20  1  0  0  0  0
  3 43  1  0  0  0  0
  4 19  2  0  0  0  0
  5 24  1  0  0  0  0
  5 45  1  0  0  0  0
  6 25  1  0  0  0  0
  6 46  1  0  0  0  0
  7  8  1  0  0  0  0
  7  9  1  0  0  0  0
  7 10  1  0  0  0  0
  7 27  1  0  0  0  0
  8 11  1  0  0  0  0
  8 13  1  0  0  0  0
  8 28  1  0  0  0  0
  9 16  1  0  0  0  0
  9 17  1  0  0  0  0
 10 12  1  0  0  0  0
 10 29  1  0  0  0  0
 10 30  1  0  0  0  0
 11 15  2  0  0  0  0
 11 18  1  0  0  0  0
 12 14  1  0  0  0  0
 12 31  1  0  0  0  0
 12 32  1  0  0  0  0
 13 14  2  0  0  0  0
 13 33  1  0  0  0  0
 14 20  1  0  0  0  0
 15 19  1  0  0  0  0
 16 34  1  0  0  0  0
 16 35  1  0  0  0  0
 16 36  1  0  0  0  0
 17 37  1  0  0  0  0
 17 38  1  0  0  0  0
 17 39  1  0  0  0  0
 18 21  1  0  0  0  0
 19 22  1  0  0  0  0
 20 40  1  0  0  0  0
 20 41  1  0  0  0  0
 21 22  2  0  0  0  0
 21 23  1  0  0  0  0
 22 24  1  0  0  0  0
 23 25  2  0  0  0  0
 23 42  1  0  0  0  0
 24 26  2  0  0  0  0
 25 26  1  0  0  0  0
 26 44  1  0  0  0  0
M  END
> <PUBCHEM_COMPOUND_CID>
132026

> <PUBCHEM_CONFORMER_RMSD>
0.6

> <PUBCHEM_CONFORMER_DIVERSEORDER>
2
1

> <PUBCHEM_MMFF94_PARTIAL_CHARGES>
28
1 -0.36
11 -0.12
12 0.14
13 -0.29
14 -0.28
15 0.09
18 0.47
19 0.47
2 -0.57
20 0.42
21 0.09
22 0.09
23 -0.15
24 0.08
25 0.08
26 -0.15
3 -0.68
33 0.15
4 -0.57
42 0.15
43 0.4
44 0.15
45 0.45
46 0.45
5 -0.53
6 -0.53
8 0.28
9 0.28

> <PUBCHEM_EFFECTIVE_ROTOR_COUNT>
1.8

> <PUBCHEM_PHARMACOPHORE_FEATURES>
12
1 1 acceptor
1 2 acceptor
1 3 acceptor
1 3 donor
1 4 acceptor
1 5 donor
1 6 donor
3 9 16 17 hydrophobe
6 1 7 8 9 11 15 rings
6 11 15 18 19 21 22 rings
6 21 22 23 24 25 26 rings
6 7 8 10 12 13 14 rings

> <PUBCHEM_HEAVY_ATOM_COUNT>
26

> <PUBCHEM_ATOM_DEF_STEREO_COUNT>
2

> <PUBCHEM_ATOM_UDEF_STEREO_COUNT>
0

> <PUBCHEM_BOND_DEF_STEREO_COUNT>
0

> <PUBCHEM_BOND_UDEF_STEREO_COUNT>
0

> <PUBCHEM_ISOTOPIC_ATOM_COUNT>
0

> <PUBCHEM_COMPONENT_COUNT>
1

> <PUBCHEM_CACTVS_TAUTO_COUNT>
96

> <PUBCHEM_CONFORMER_ID>
000203BA00000002

> <PUBCHEM_MMFF94_ENERGY>
69.8339

> <PUBCHEM_FEATURE_SELFOVERLAP>
61.003

> <PUBCHEM_SHAPE_FINGERPRINT>
10759866 29 18264779920293300037
1100329 8 18338802187317970321
11578080 2 17749941185589279764
12107183 9 18195533588893922681
12403260 363 18343298146483338221
12553582 1 18191297183514381026
12633257 1 18268440040157377299
12644460 14 18336278932301433328
12714826 92 17315068862147044654
12892183 10 18201986729937545818
13009979 54 18200600206988358722
13140716 1 18270961245752009353
13224815 77 18201166558677281805
13533116 47 18262520402903646091
13540713 5 18341905108126960677
14178342 30 17985276174784071737
14420673 8 17910959037265640630
14790565 3 17833272304175366388
14955137 171 18343305864565975228
15042514 8 17905607692818977590
15163728 17 11455307592937816394
15196674 1 18200322151095934613
15230672 131 16248290559262974950
15475509 35 17532682116510674539
16110190 28 18270112401955073458
16728300 4 16596186028014401681
16945 1 18341334405098356309
17349148 13 18059566967406574165
17492 89 18409448107052436707
17818456 19 18199476480446276945
1813 80 17967530130437317430
19319366 153 17906172115423676151
20559304 39 18412266176834135004
20600515 1 17984142561269037044
20715895 44 18196935470889389305
20739085 24 18410856525897561142
21033648 29 16916213348349569658
21267235 1 18198920281943450783
21421861 104 18410300241115893057
2255824 54 18115594897350667860
22950370 63 18264491694192736022
23366157 5 18261683665484672836
23559900 14 17987818309991643015
25147074 1 18343028817537081533
25222932 49 17763753482944837975
2748010 2 17477785480694234341
312423 11 18338245945955863127
335352 9 18267023847895999565
3680242 22 18341062847992111339
394222 165 18195817486073997192
4340502 62 17533774077369639419
4409770 3 17322103434462639372
474 4 17826799431961652236
484985 159 16886645135790462578
5104073 3 18271255992937482987
56633871 153 18196373607029911723
6823239 73 17774181027624961734
7097593 13 18410571760532750954
7970288 3 18189047595345655386
9709674 26 18261396680154657203
9981440 41 17903637732769556160

> <PUBCHEM_SHAPE_MULTIPOLES>
499.85
9.11
3.93
1.25
6.05
0.01
0.23
-5.78
-2.77
-3.82
-0.09
-0.41
0.24
-1.97

> <PUBCHEM_SHAPE_SELFOVERLAP>
1107.903

> <PUBCHEM_SHAPE_VOLUME>
263

> <PUBCHEM_COORDINATE_TYPE>
2
5
10

$$$$
