132029
  -OEChem-03292013323D

 58 62  0     1  0  0  0  0  0999 V2000
   -4.6241   -0.9390    0.8457 O   0  0  0  0  0  0  0  0  0  0  0  0
   -2.6554   -0.2282   -0.2724 O   0  0  0  0  0  0  0  0  0  0  0  0
   -5.4332    3.0645    0.1254 O   0  0  0  0  0  0  0  0  0  0  0  0
   -6.8670    1.0497   -1.2999 O   0  0  0  0  0  0  0  0  0  0  0  0
   -4.5324    1.5502    2.2794 O   0  0  0  0  0  0  0  0  0  0  0  0
    4.6088   -1.9668    0.9633 O   0  0  0  0  0  0  0  0  0  0  0  0
    1.1217    3.1319   -0.6550 O   0  0  0  0  0  0  0  0  0  0  0  0
    2.7897   -2.5782   -0.7214 O   0  0  0  0  0  0  0  0  0  0  0  0
   -0.6743    1.3455   -0.8015 O   0  0  0  0  0  0  0  0  0  0  0  0
   -4.9179    1.7550   -0.1038 C   0  0  2  0  0  0  0  0  0  0  0  0
   -6.0770    0.7586   -0.1496 C   0  0  2  0  0  0  0  0  0  0  0  0
   -3.9227    1.3870    0.9981 C   0  0  2  0  0  0  0  0  0  0  0  0
   -5.5364   -0.6761   -0.2253 C   0  0  2  0  0  0  0  0  0  0  0  0
   -3.4855   -0.0715    0.8732 C   0  0  1  0  0  0  0  0  0  0  0  0
    6.6278    0.7990    0.6741 C   0  0  1  0  0  0  0  0  0  0  0  0
    5.7355    1.8333   -0.0155 C   0  0  0  0  0  0  0  0  0  0  0  0
    4.2872    1.4117   -0.1114 C   0  0  0  0  0  0  0  0  0  0  0  0
    3.8727    0.0650   -0.0317 C   0  0  0  0  0  0  0  0  0  0  0  0
    6.3452   -0.5814    0.0949 C   0  0  0  0  0  0  0  0  0  0  0  0
    2.5161   -0.2703   -0.2444 C   0  0  0  0  0  0  0  0  0  0  0  0
    4.9054   -0.9324    0.3757 C   0  0  0  0  0  0  0  0  0  0  0  0
   -6.6515   -1.7133   -0.1256 C   0  0  0  0  0  0  0  0  0  0  0  0
    1.5760    0.7567   -0.4232 C   0  0  0  0  0  0  0  0  0  0  0  0
   -0.3311   -0.9222   -0.3250 C   0  0  0  0  0  0  0  0  0  0  0  0
    8.1021    1.1652    0.5255 C   0  0  0  0  0  0  0  0  0  0  0  0
    3.3333    2.4105   -0.3499 C   0  0  0  0  0  0  0  0  0  0  0  0
   -1.6983   -1.1972   -0.2148 C   0  0  0  0  0  0  0  0  0  0  0  0
    0.5977   -1.9572   -0.2446 C   0  0  0  0  0  0  0  0  0  0  0  0
    2.0354   -1.6698   -0.3983 C   0  0  0  0  0  0  0  0  0  0  0  0
    1.9853    2.0916   -0.4770 C   0  0  0  0  0  0  0  0  0  0  0  0
    0.1307    0.4593   -0.5442 C   0  0  0  0  0  0  0  0  0  0  0  0
   -2.1286   -2.5102   -0.0211 C   0  0  0  0  0  0  0  0  0  0  0  0
    0.1642   -3.2743   -0.0573 C   0  0  0  0  0  0  0  0  0  0  0  0
   -1.1993   -3.5466    0.0577 C   0  0  0  0  0  0  0  0  0  0  0  0
   -4.4150    1.7770   -1.0786 H   0  0  0  0  0  0  0  0  0  0  0  0
   -6.7161    0.8849    0.7329 H   0  0  0  0  0  0  0  0  0  0  0  0
   -3.0636    2.0662    0.9535 H   0  0  0  0  0  0  0  0  0  0  0  0
   -5.0242   -0.8370   -1.1828 H   0  0  0  0  0  0  0  0  0  0  0  0
   -2.9208   -0.3375    1.7772 H   0  0  0  0  0  0  0  0  0  0  0  0
    6.3831    0.7886    1.7456 H   0  0  0  0  0  0  0  0  0  0  0  0
    6.0949    2.0181   -1.0364 H   0  0  0  0  0  0  0  0  0  0  0  0
    5.8078    2.7812    0.5330 H   0  0  0  0  0  0  0  0  0  0  0  0
    6.9856   -1.3328    0.5712 H   0  0  0  0  0  0  0  0  0  0  0  0
    6.5218   -0.6288   -0.9857 H   0  0  0  0  0  0  0  0  0  0  0  0
   -7.3754   -1.6052   -0.9388 H   0  0  0  0  0  0  0  0  0  0  0  0
   -6.2343   -2.7255   -0.1639 H   0  0  0  0  0  0  0  0  0  0  0  0
   -7.1806   -1.6274    0.8300 H   0  0  0  0  0  0  0  0  0  0  0  0
    8.3003    2.1557    0.9484 H   0  0  0  0  0  0  0  0  0  0  0  0
    8.7358    0.4431    1.0510 H   0  0  0  0  0  0  0  0  0  0  0  0
    8.4060    1.1784   -0.5267 H   0  0  0  0  0  0  0  0  0  0  0  0
    3.6461    3.4507   -0.4192 H   0  0  0  0  0  0  0  0  0  0  0  0
   -4.6768    3.6749    0.1556 H   0  0  0  0  0  0  0  0  0  0  0  0
   -7.1696    1.9705   -1.2203 H   0  0  0  0  0  0  0  0  0  0  0  0
   -3.8558    1.3649    2.9527 H   0  0  0  0  0  0  0  0  0  0  0  0
   -3.1816   -2.7630    0.0460 H   0  0  0  0  0  0  0  0  0  0  0  0
    0.8708   -4.0976    0.0034 H   0  0  0  0  0  0  0  0  0  0  0  0
   -1.5375   -4.5689    0.2008 H   0  0  0  0  0  0  0  0  0  0  0  0
    0.2026    2.8298   -0.6104 H   0  0  0  0  0  0  0  0  0  0  0  0
  1 13  1  0  0  0  0
  1 14  1  0  0  0  0
  2 14  1  0  0  0  0
  2 27  1  0  0  0  0
  3 10  1  0  0  0  0
  3 52  1  0  0  0  0
  4 11  1  0  0  0  0
  4 53  1  0  0  0  0
  5 12  1  0  0  0  0
  5 54  1  0  0  0  0
  6 21  2  0  0  0  0
  7 30  1  0  0  0  0
  7 58  1  0  0  0  0
  8 29  2  0  0  0  0
  9 31  2  0  0  0  0
 10 11  1  0  0  0  0
 10 12  1  0  0  0  0
 10 35  1  0  0  0  0
 11 13  1  0  0  0  0
 11 36  1  0  0  0  0
 12 14  1  0  0  0  0
 12 37  1  0  0  0  0
 13 22  1  0  0  0  0
 13 38  1  0  0  0  0
 14 39  1  0  0  0  0
 15 16  1  0  0  0  0
 15 19  1  0  0  0  0
 15 25  1  0  0  0  0
 15 40  1  0  0  0  0
 16 17  1  0  0  0  0
 16 41  1  0  0  0  0
 16 42  1  0  0  0  0
 17 18  1  0  0  0  0
 17 26  2  0  0  0  0
 18 20  2  0  0  0  0
 18 21  1  0  0  0  0
 19 21  1  0  0  0  0
 19 43  1  0  0  0  0
 19 44  1  0  0  0  0
 20 23  1  0  0  0  0
 20 29  1  0  0  0  0
 22 45  1  0  0  0  0
 22 46  1  0  0  0  0
 22 47  1  0  0  0  0
 23 30  2  0  0  0  0
 23 31  1  0  0  0  0
 24 27  1  0  0  0  0
 24 28  2  0  0  0  0
 24 31  1  0  0  0  0
 25 48  1  0  0  0  0
 25 49  1  0  0  0  0
 25 50  1  0  0  0  0
 26 30  1  0  0  0  0
 26 51  1  0  0  0  0
 27 32  2  0  0  0  0
 28 29  1  0  0  0  0
 28 33  1  0  0  0  0
 32 34  1  0  0  0  0
 32 55  1  0  0  0  0
 33 34  2  0  0  0  0
 33 56  1  0  0  0  0
 34 57  1  0  0  0  0
M  END
> <PUBCHEM_COMPOUND_CID>
132029

> <PUBCHEM_CONFORMER_RMSD>
0.8

> <PUBCHEM_CONFORMER_DIVERSEORDER>
3
32
33
23
38
29
30
19
27
2
28
35
11
37
4
17
34
18
15
24
31
12
16
10
8
26
6
14
36
13
25
5
20
22
21
9
1
7

> <PUBCHEM_MMFF94_PARTIAL_CHARGES>
39
1 -0.56
10 0.28
11 0.28
12 0.28
13 0.28
14 0.56
16 0.14
17 -0.14
18 0.09
19 0.06
2 -0.36
20 0.09
21 0.42
23 0.09
24 0.09
26 -0.15
27 0.08
28 0.09
29 0.4
3 -0.68
30 0.08
31 0.4
32 -0.15
33 -0.15
34 -0.15
4 -0.68
5 -0.68
51 0.15
52 0.4
53 0.4
54 0.4
55 0.15
56 0.15
57 0.15
58 0.45
6 -0.57
7 -0.53
8 -0.57
9 -0.57

> <PUBCHEM_EFFECTIVE_ROTOR_COUNT>
3.8

> <PUBCHEM_PHARMACOPHORE_FEATURES>
17
1 1 acceptor
1 2 acceptor
1 3 acceptor
1 3 donor
1 4 acceptor
1 4 donor
1 5 acceptor
1 5 donor
1 6 acceptor
1 7 donor
1 8 acceptor
1 9 acceptor
6 1 10 11 12 13 14 rings
6 15 16 17 18 19 21 rings
6 17 18 20 23 26 30 rings
6 20 23 24 28 29 31 rings
6 24 27 28 32 33 34 rings

> <PUBCHEM_HEAVY_ATOM_COUNT>
34

> <PUBCHEM_ATOM_DEF_STEREO_COUNT>
6

> <PUBCHEM_ATOM_UDEF_STEREO_COUNT>
0

> <PUBCHEM_BOND_DEF_STEREO_COUNT>
0

> <PUBCHEM_BOND_UDEF_STEREO_COUNT>
0

> <PUBCHEM_ISOTOPIC_ATOM_COUNT>
0

> <PUBCHEM_COMPONENT_COUNT>
1

> <PUBCHEM_CACTVS_TAUTO_COUNT>
27

> <PUBCHEM_CONFORMER_ID>
000203BD00000003

> <PUBCHEM_MMFF94_ENERGY>
118.5591

> <PUBCHEM_FEATURE_SELFOVERLAP>
86.421

> <PUBCHEM_SHAPE_FINGERPRINT>
10 15 18260830436198313290
100830 39 18410292549256882987
10906281 52 18337966657544761206
1100329 8 18337954592707222408
11136131 41 18189892028944472858
12107183 9 18335697274214022360
12133447 93 18340780247755627004
12422481 6 18187086139678371844
12633257 1 18408038528976806406
12838862 33 18338216237915197804
13140716 1 18193557989916177278
13402501 40 18334856104030597109
13631057 29 18130220554406509727
13785724 45 17906452122182052162
13811026 1 18412545405806914782
14020679 6 17749394805893771898
14394314 77 18271530818635698945
14466204 15 18410575054825512137
14790565 3 18409454704201123252
14849402 71 18270401714788572760
15021287 119 17458345285954520612
15131766 46 16156539036600511532
15142383 8 17240757372573151412
15183329 4 18410578379066850068
15238133 3 18187653544035183646
15461852 350 17417808491076772828
16087824 20 18335699416775728860
16112460 7 18409725149770207714
18603816 31 14201673234454886963
18608769 82 18269838773962974075
18681886 176 18339917207951437017
19611394 137 17825399724375282147
20028762 73 18272088270877565079
20511986 3 18342726438395560386
20642791 178 18043538416109955908
21033648 144 18335417908224633429
21033648 29 17241332353194043229
21298829 104 18342178813344796553
21421861 104 17968363577937690466
21792934 111 18336250255648622024
21859007 373 17749940056118135389
23522609 53 17750814297392023436
23569917 315 18411989082503527191
24771293 8 18342459227369399012
3178227 256 18334022704719084707
335352 9 18409730690525874734
350125 39 18409164415550295765
3633792 109 18340483370936196773
3680242 22 18334859373186531138
4017518 198 17918281952711300110
4073 2 17968380177522117650
4144715 1 18335151907340688370
5104073 3 18335430028084441611
513532 50 18059307491468781446
6009941 240 17385725811367505320
6086070 43 17417805218633310130
6328613 192 18336833095432450380
6371009 1 18411980282473389025
7226269 152 17988928864038787960
99344 41 18411417281333658213
9981440 41 18335991921866330675

> <PUBCHEM_SHAPE_MULTIPOLES>
646.88
18.17
3.53
0.95
1.18
1.01
-0.28
-7.57
-2.62
-1.11
0.18
-0.74
-0.29
-0.45

> <PUBCHEM_SHAPE_SELFOVERLAP>
1441.073

> <PUBCHEM_SHAPE_VOLUME>
339.6

> <PUBCHEM_COORDINATE_TYPE>
2
5
10

$$$$
