132172
  -OEChem-03292013323D

 30 30  0     1  0  0  0  0  0999 V2000
   -3.2761    0.2265    0.1305 P   0  0  0  0  0  0  0  0  0  0  0  0
   -0.7715    0.7878   -1.3383 O   0  0  0  0  0  0  0  0  0  0  0  0
    0.3675   -2.3303   -0.8271 O   0  0  0  0  0  0  0  0  0  0  0  0
    1.7882   -2.4850    0.9487 O   0  0  0  0  0  0  0  0  0  0  0  0
   -4.1764   -0.3219    1.3480 O   0  0  0  0  0  0  0  0  0  0  0  0
   -3.2332   -1.0056   -0.9059 O   0  0  0  0  0  0  0  0  0  0  0  0
   -3.6740    1.5454   -0.4364 O   0  0  0  0  0  0  0  0  0  0  0  0
    3.1486   -0.3714   -0.0316 N   0  0  0  0  0  0  0  0  0  0  0  0
    0.8773    0.5625    0.3699 C   0  0  1  0  0  0  0  0  0  0  0  0
    1.7304   -0.4675   -0.3838 C   0  0  2  0  0  0  0  0  0  0  0  0
    1.4331    1.9789    0.2006 C   0  0  0  0  0  0  0  0  0  0  0  0
    2.9221    2.0199    0.5217 C   0  0  0  0  0  0  0  0  0  0  0  0
    3.6818    0.9670   -0.2783 C   0  0  0  0  0  0  0  0  0  0  0  0
   -0.5275    0.5431   -0.1580 C   0  0  0  0  0  0  0  0  0  0  0  0
   -1.6145    0.2079    0.8314 C   0  0  0  0  0  0  0  0  0  0  0  0
    1.3242   -1.8573    0.0084 C   0  0  0  0  0  0  0  0  0  0  0  0
    0.8574    0.3169    1.4404 H   0  0  0  0  0  0  0  0  0  0  0  0
    1.6315   -0.3634   -1.4723 H   0  0  0  0  0  0  0  0  0  0  0  0
    0.8917    2.6777    0.8499 H   0  0  0  0  0  0  0  0  0  0  0  0
    1.2818    2.3334   -0.8275 H   0  0  0  0  0  0  0  0  0  0  0  0
    3.3214    3.0156    0.2983 H   0  0  0  0  0  0  0  0  0  0  0  0
    3.0707    1.8488    1.5953 H   0  0  0  0  0  0  0  0  0  0  0  0
    3.6419    1.1986   -1.3497 H   0  0  0  0  0  0  0  0  0  0  0  0
    4.7372    0.9867    0.0149 H   0  0  0  0  0  0  0  0  0  0  0  0
    3.6835   -1.0479   -0.5766 H   0  0  0  0  0  0  0  0  0  0  0  0
   -1.4149   -0.7873    1.2412 H   0  0  0  0  0  0  0  0  0  0  0  0
   -1.5763    0.9386    1.6455 H   0  0  0  0  0  0  0  0  0  0  0  0
    0.0868   -3.2387   -0.5858 H   0  0  0  0  0  0  0  0  0  0  0  0
   -5.1483   -0.3855    1.2326 H   0  0  0  0  0  0  0  0  0  0  0  0
   -4.0253   -1.1993   -1.4508 H   0  0  0  0  0  0  0  0  0  0  0  0
  1  5  1  0  0  0  0
  1  6  1  0  0  0  0
  1  7  2  0  0  0  0
  1 15  1  0  0  0  0
  2 14  2  0  0  0  0
  3 16  1  0  0  0  0
  3 28  1  0  0  0  0
  4 16  2  0  0  0  0
  5 29  1  0  0  0  0
  6 30  1  0  0  0  0
  8 10  1  0  0  0  0
  8 13  1  0  0  0  0
  8 25  1  0  0  0  0
  9 10  1  0  0  0  0
  9 11  1  0  0  0  0
  9 14  1  0  0  0  0
  9 17  1  0  0  0  0
 10 16  1  0  0  0  0
 10 18  1  0  0  0  0
 11 12  1  0  0  0  0
 11 19  1  0  0  0  0
 11 20  1  0  0  0  0
 12 13  1  0  0  0  0
 12 21  1  0  0  0  0
 12 22  1  0  0  0  0
 13 23  1  0  0  0  0
 13 24  1  0  0  0  0
 14 15  1  0  0  0  0
 15 26  1  0  0  0  0
 15 27  1  0  0  0  0
M  END
> <PUBCHEM_COMPOUND_CID>
132172

> <PUBCHEM_CONFORMER_RMSD>
0.6

> <PUBCHEM_CONFORMER_DIVERSEORDER>
1
260
135
197
229
189
275
32
265
28
276
35
208
130
221
150
199
220
263
27
256
245
234
214
125
215
131
140
55
205
258
182
251
168
159
171
209
262
7
242
264
103
9
207
158
180
273
165
236
57
278
154
96
164
162
284
280
107
188
148
44
22
6
111
39
198
269
12
279
250
172
166
192
201
163
38
119
235
17
267
99
217
195
88
143
193
225
268
52
155
222
237
203
92
123
95
30
246
76
243
15
134
270
228
102
86
97
124
271
277
257
244
206
11
14
34
116
259
127
18
37
156
176
144
185
87
47
79
136
53
202
82
231
227
104
33
120
196
223
16
152
29
70
41
174
216
115
254
74
170
89
13
210
281
200
266
241
274
25
128
21
49
248
10
153
109
213
73
226
105
233
36
141
137
230
94
219
117
149
108
118
175
26
191
239
147
42
178
31
238
224
187
112
211
106
54
161
255
113
72
121
67
194
43
78
253
80
132
20
212
261
157
84
65
100
68
249
184
48
85
3
62
114
64
93
2
218
252
75
58
98
77
179
145
247
69
60
46
186
66
167
61
81
40
8
232
283
204
83
129
91
71
51
142
50
138
59
139
126
190
19
181
240
63
169
272
5
45
56
101
282
90
160
23
133
146
151
177
173
24
110
183
4
122

> <PUBCHEM_MMFF94_PARTIAL_CHARGES>
18
1 1.24
10 0.33
13 0.27
14 0.45
15 0.06
16 0.66
2 -0.57
25 0.36
28 0.5
29 0.5
3 -0.65
30 0.5
4 -0.57
5 -0.77
6 -0.77
7 -0.7
8 -0.9
9 0.06

> <PUBCHEM_EFFECTIVE_ROTOR_COUNT>
5.2

> <PUBCHEM_PHARMACOPHORE_FEATURES>
11
1 2 acceptor
1 3 acceptor
1 4 acceptor
1 5 acceptor
1 6 acceptor
1 7 acceptor
1 8 cation
1 8 donor
3 3 4 16 anion
4 1 5 6 7 anion
6 8 9 10 11 12 13 rings

> <PUBCHEM_HEAVY_ATOM_COUNT>
16

> <PUBCHEM_ATOM_DEF_STEREO_COUNT>
0

> <PUBCHEM_ATOM_UDEF_STEREO_COUNT>
2

> <PUBCHEM_BOND_DEF_STEREO_COUNT>
0

> <PUBCHEM_BOND_UDEF_STEREO_COUNT>
0

> <PUBCHEM_ISOTOPIC_ATOM_COUNT>
0

> <PUBCHEM_COMPONENT_COUNT>
1

> <PUBCHEM_CACTVS_TAUTO_COUNT>
3

> <PUBCHEM_CONFORMER_ID>
0002044C00000001

> <PUBCHEM_MMFF94_ENERGY>
-15.8105

> <PUBCHEM_FEATURE_SELFOVERLAP>
55.915

> <PUBCHEM_SHAPE_FINGERPRINT>
10980938 120 18341894082265234992
11471102 20 18411696560954411116
12932764 1 18341899584598564557
14251717 144 18412541024343784111
15219456 202 18261392222015377405
15309172 13 18338234972050801048
15375462 189 18413108338189882003
15442244 35 17980200781734125425
15502708 68 18411136952501058552
15775835 57 18411139173094063726
16945 1 18261111897920889240
18175812 5 18040437723829958716
18186145 218 18131357448464233316
19049666 15 18115587020259320881
19422 9 17632580482486463165
201361 129 18271816687241847569
204376 136 18266180719755963792
20645477 70 18341325592252440631
21501502 16 18192992621395307185
21524375 3 18199183086829408568
21730867 7 18409731746364967077
23402539 116 16950558874559686036
23557571 272 16805321076885692877
23558518 356 17618493724664722952
2748010 2 18193851563599450482
2871803 45 18268699688258288295
3060560 45 18413389839126164268
33824 294 18409448102519592331
458136 41 18337403715738123582
495365 180 18198039440202322393
528862 383 18412258411427606226
581208 293 18411133662540402440
633830 44 17987812911054812189
7364860 26 18341895130469454774
77492 1 17418089918872204717
81228 2 17400625516905542136
81539 233 18260548931024923540
8272917 22 18200881652090247533

> <PUBCHEM_SHAPE_MULTIPOLES>
292.93
6.56
2.3
0.99
4.64
1
0.02
-1.79
0.58
-1.53
0.1
0.52
0.11
0.07

> <PUBCHEM_SHAPE_SELFOVERLAP>
575.886

> <PUBCHEM_SHAPE_VOLUME>
174.8

> <PUBCHEM_COORDINATE_TYPE>
2
5
10

$$$$
