132132
  -OEChem-03292013323D

 68 70  0     1  0  0  0  0  0999 V2000
   -2.3192    2.3184   -0.0658 O   0  0  0  0  0  0  0  0  0  0  0  0
    2.0400    0.0870   -2.5948 O   0  0  0  0  0  0  0  0  0  0  0  0
    4.1151   -1.9802    1.2828 O   0  0  0  0  0  0  0  0  0  0  0  0
    0.1033    0.4387    1.7864 O   0  0  0  0  0  0  0  0  0  0  0  0
   -0.3920   -1.8084   -1.3563 O   0  0  0  0  0  0  0  0  0  0  0  0
   -4.9422   -1.7428    0.0792 O   0  0  0  0  0  0  0  0  0  0  0  0
    2.6053   -0.2345    3.8002 O   0  0  0  0  0  0  0  0  0  0  0  0
   -2.4900   -4.0277    0.0596 O   0  0  0  0  0  0  0  0  0  0  0  0
    3.2978   -0.9819   -0.7604 C   0  0  1  0  0  0  0  0  0  0  0  0
    2.0873   -0.1984   -1.2365 C   0  0  0  0  0  0  0  0  0  0  0  0
    4.5833   -0.1666   -0.9902 C   0  0  0  0  0  0  0  0  0  0  0  0
    1.0899    0.2205   -0.4314 C   0  0  0  0  0  0  0  0  0  0  0  0
    3.2375   -1.3019    0.7429 C   0  0  0  0  0  0  0  0  0  0  0  0
   -0.0995    0.9679   -0.9857 C   0  0  0  0  0  0  0  0  0  0  0  0
    3.3848   -2.3327   -1.4969 C   0  0  0  0  0  0  0  0  0  0  0  0
    2.1181   -0.7763    1.5729 C   0  0  0  0  0  0  0  0  0  0  0  0
   -1.3882    0.2599   -0.7002 C   0  0  0  0  0  0  0  0  0  0  0  0
    1.1342   -0.0615    1.0032 C   0  0  0  0  0  0  0  0  0  0  0  0
   -2.4951    0.9742   -0.2350 C   0  0  0  0  0  0  0  0  0  0  0  0
   -3.4226    3.1196    0.4092 C   0  0  0  0  0  0  0  0  0  0  0  0
   -3.6951    0.3114    0.0305 C   0  0  0  0  0  0  0  0  0  0  0  0
    4.4832    1.1742   -0.3367 C   0  0  0  0  0  0  0  0  0  0  0  0
   -1.4765   -1.1163   -0.9017 C   0  0  0  0  0  0  0  0  0  0  0  0
   -4.7075    2.3764    0.6903 C   0  0  0  0  0  0  0  0  0  0  0  0
   -2.6717   -1.7819   -0.6383 C   0  0  0  0  0  0  0  0  0  0  0  0
   -3.7791   -1.0711   -0.1733 C   0  0  0  0  0  0  0  0  0  0  0  0
   -4.8416    1.0603    0.5148 C   0  0  0  0  0  0  0  0  0  0  0  0
    2.0779   -1.0256    3.0245 C   0  0  0  0  0  0  0  0  0  0  0  0
   -3.6785    4.1812   -0.6670 C   0  0  0  0  0  0  0  0  0  0  0  0
   -2.9391    3.7964    1.6972 C   0  0  0  0  0  0  0  0  0  0  0  0
    4.5145    2.3823   -0.9307 C   0  0  0  0  0  0  0  0  0  0  0  0
    1.3688   -2.2614    3.5004 C   0  0  0  0  0  0  0  0  0  0  0  0
   -2.7637   -3.2227   -0.8495 C   0  0  0  0  0  0  0  0  0  0  0  0
    4.4088    3.7000   -0.2167 C   0  0  0  0  0  0  0  0  0  0  0  0
    4.6525    2.4938   -2.4258 C   0  0  0  0  0  0  0  0  0  0  0  0
   -3.2005   -3.7703   -2.2013 C   0  0  0  0  0  0  0  0  0  0  0  0
    5.4491   -0.6838   -0.5548 H   0  0  0  0  0  0  0  0  0  0  0  0
    4.7980   -0.1079   -2.0600 H   0  0  0  0  0  0  0  0  0  0  0  0
   -0.0403    1.1196   -2.0701 H   0  0  0  0  0  0  0  0  0  0  0  0
   -0.0715    1.9742   -0.5499 H   0  0  0  0  0  0  0  0  0  0  0  0
    4.2436   -2.9214   -1.1532 H   0  0  0  0  0  0  0  0  0  0  0  0
    2.4876   -2.9373   -1.3171 H   0  0  0  0  0  0  0  0  0  0  0  0
    3.4940   -2.2104   -2.5797 H   0  0  0  0  0  0  0  0  0  0  0  0
    4.4051    1.1655    0.7496 H   0  0  0  0  0  0  0  0  0  0  0  0
   -5.5599    2.9463    1.0521 H   0  0  0  0  0  0  0  0  0  0  0  0
   -5.7806    0.5642    0.7277 H   0  0  0  0  0  0  0  0  0  0  0  0
    2.8588   -0.2261   -3.0110 H   0  0  0  0  0  0  0  0  0  0  0  0
   -2.7638    4.7453   -0.8841 H   0  0  0  0  0  0  0  0  0  0  0  0
   -3.9831    3.7140   -1.6113 H   0  0  0  0  0  0  0  0  0  0  0  0
   -4.4575    4.8910   -0.3675 H   0  0  0  0  0  0  0  0  0  0  0  0
   -3.6850    4.4883    2.1034 H   0  0  0  0  0  0  0  0  0  0  0  0
   -2.7068    3.0500    2.4664 H   0  0  0  0  0  0  0  0  0  0  0  0
   -2.0118    4.3542    1.5206 H   0  0  0  0  0  0  0  0  0  0  0  0
    0.2421    0.2258    2.7219 H   0  0  0  0  0  0  0  0  0  0  0  0
    0.9827   -2.8426    2.6580 H   0  0  0  0  0  0  0  0  0  0  0  0
    0.5296   -1.9728    4.1385 H   0  0  0  0  0  0  0  0  0  0  0  0
    2.0705   -2.8858    4.0595 H   0  0  0  0  0  0  0  0  0  0  0  0
    3.5500    4.2672   -0.5899 H   0  0  0  0  0  0  0  0  0  0  0  0
    5.3160    4.2931   -0.3698 H   0  0  0  0  0  0  0  0  0  0  0  0
    4.2758    3.5639    0.8616 H   0  0  0  0  0  0  0  0  0  0  0  0
    5.2314    1.6874   -2.8805 H   0  0  0  0  0  0  0  0  0  0  0  0
    3.6645    2.5381   -2.8949 H   0  0  0  0  0  0  0  0  0  0  0  0
    5.1853    3.4158   -2.6868 H   0  0  0  0  0  0  0  0  0  0  0  0
   -0.5823   -2.7584   -1.4091 H   0  0  0  0  0  0  0  0  0  0  0  0
   -4.8388   -2.6957   -0.0700 H   0  0  0  0  0  0  0  0  0  0  0  0
   -2.3989   -4.3876   -2.6148 H   0  0  0  0  0  0  0  0  0  0  0  0
   -3.4084   -2.9520   -2.8964 H   0  0  0  0  0  0  0  0  0  0  0  0
   -4.1105   -4.3616   -2.0723 H   0  0  0  0  0  0  0  0  0  0  0  0
  1 19  1  0  0  0  0
  1 20  1  0  0  0  0
  2 10  1  0  0  0  0
  2 47  1  0  0  0  0
  3 13  2  0  0  0  0
  4 18  1  0  0  0  0
  4 54  1  0  0  0  0
  5 23  1  0  0  0  0
  5 64  1  0  0  0  0
  6 26  1  0  0  0  0
  6 65  1  0  0  0  0
  7 28  2  0  0  0  0
  8 33  2  0  0  0  0
  9 10  1  0  0  0  0
  9 11  1  0  0  0  0
  9 13  1  0  0  0  0
  9 15  1  0  0  0  0
 10 12  2  0  0  0  0
 11 22  1  0  0  0  0
 11 37  1  0  0  0  0
 11 38  1  0  0  0  0
 12 14  1  0  0  0  0
 12 18  1  0  0  0  0
 13 16  1  0  0  0  0
 14 17  1  0  0  0  0
 14 39  1  0  0  0  0
 14 40  1  0  0  0  0
 15 41  1  0  0  0  0
 15 42  1  0  0  0  0
 15 43  1  0  0  0  0
 16 18  2  0  0  0  0
 16 28  1  0  0  0  0
 17 19  2  0  0  0  0
 17 23  1  0  0  0  0
 19 21  1  0  0  0  0
 20 24  1  0  0  0  0
 20 29  1  0  0  0  0
 20 30  1  0  0  0  0
 21 26  2  0  0  0  0
 21 27  1  0  0  0  0
 22 31  2  0  0  0  0
 22 44  1  0  0  0  0
 23 25  2  0  0  0  0
 24 27  2  0  0  0  0
 24 45  1  0  0  0  0
 25 26  1  0  0  0  0
 25 33  1  0  0  0  0
 27 46  1  0  0  0  0
 28 32  1  0  0  0  0
 29 48  1  0  0  0  0
 29 49  1  0  0  0  0
 29 50  1  0  0  0  0
 30 51  1  0  0  0  0
 30 52  1  0  0  0  0
 30 53  1  0  0  0  0
 31 34  1  0  0  0  0
 31 35  1  0  0  0  0
 32 55  1  0  0  0  0
 32 56  1  0  0  0  0
 32 57  1  0  0  0  0
 33 36  1  0  0  0  0
 34 58  1  0  0  0  0
 34 59  1  0  0  0  0
 34 60  1  0  0  0  0
 35 61  1  0  0  0  0
 35 62  1  0  0  0  0
 35 63  1  0  0  0  0
 36 66  1  0  0  0  0
 36 67  1  0  0  0  0
 36 68  1  0  0  0  0
M  END
> <PUBCHEM_COMPOUND_CID>
132132

> <PUBCHEM_CONFORMER_RMSD>
1

> <PUBCHEM_CONFORMER_DIVERSEORDER>
2
72
79
46
115
155
42
149
36
64
159
116
80
162
156
129
97
152
128
137
49
91
57
141
52
70
139
10
132
160
40
146
96
95
164
136
163
104
87
73
130
109
98
50
41
18
120
75
19
150
126
86
124
65
133
77
143
51
53
122
161
142
24
106
103
135
69
12
89
158
148
154
134
58
32
81
76
82
112
17
61
151
101
90
119
68
147
88
94
60
108
157
107
28
74
144
145
43
29
93
117
114
102
55
25
100
99
44
118
8
105
4
127
31
20
30
56
85
113
138
21
63
14
16
92
38
121
71
45
83
84
153
67
33
5
59
125
23
111
34
47
11
48
35
110
37
78
54
39
22
140
15
66
123
26
9
27
62
131
1
13
6
3
7

> <PUBCHEM_MMFF94_PARTIAL_CHARGES>
40
1 -0.36
10 -0.06
11 0.14
12 -0.14
13 0.49
14 0.28
16 0.03
17 -0.14
18 0.08
19 0.08
2 -0.53
20 0.42
21 0.03
22 -0.29
23 0.08
24 -0.29
25 0.09
26 0.08
27 -0.18
28 0.49
3 -0.57
31 -0.28
32 0.06
33 0.42
34 0.14
35 0.14
36 0.06
4 -0.53
44 0.15
45 0.15
46 0.15
47 0.45
5 -0.53
54 0.45
6 -0.53
64 0.45
65 0.45
7 -0.57
8 -0.57
9 0.2

> <PUBCHEM_EFFECTIVE_ROTOR_COUNT>
6.6

> <PUBCHEM_PHARMACOPHORE_FEATURES>
14
1 1 acceptor
1 16 anion
1 2 donor
1 3 acceptor
1 4 donor
1 5 donor
1 6 donor
1 7 acceptor
1 8 acceptor
3 20 29 30 hydrophobe
3 31 34 35 hydrophobe
6 1 19 20 21 24 27 rings
6 17 19 21 23 25 26 rings
6 9 10 12 13 16 18 rings

> <PUBCHEM_HEAVY_ATOM_COUNT>
36

> <PUBCHEM_ATOM_DEF_STEREO_COUNT>
0

> <PUBCHEM_ATOM_UDEF_STEREO_COUNT>
1

> <PUBCHEM_BOND_DEF_STEREO_COUNT>
0

> <PUBCHEM_BOND_UDEF_STEREO_COUNT>
0

> <PUBCHEM_ISOTOPIC_ATOM_COUNT>
0

> <PUBCHEM_COMPONENT_COUNT>
1

> <PUBCHEM_CACTVS_TAUTO_COUNT>
551

> <PUBCHEM_CONFORMER_ID>
0002042400000002

> <PUBCHEM_MMFF94_ENERGY>
115.6148

> <PUBCHEM_FEATURE_SELFOVERLAP>
71.076

> <PUBCHEM_SHAPE_FINGERPRINT>
10369192 42 15980015786304055816
11049842 53 18127971893095657186
11421498 54 18192714668286420074
11578080 2 17417523730470997962
12160290 23 18266999731765506319
12596602 18 18041006133151095793
12633046 712 16558484053360326582
12788726 201 18410848906625558475
13583140 156 17169267035855727925
13617811 41 17839728606398705543
13726171 33 18201734971423585088
13782708 43 16988562459119293583
13965767 371 17825114709717973413
14251757 5 18273221902020335041
14400156 96 17048540513942120193
14790565 3 18269849618407347157
14955137 171 17462844268940239586
17349148 13 11815599887684463501
17974551 9 15795667946980459997
19319366 153 18040158400821716113
20511986 3 18187639241303529725
20554085 129 17769074762977897337
21033648 29 17844231940065190257
23559900 14 17915749673920039614
249057 3 18268156353472885270
474 4 17822863107831447284
50080093 196 18115317811567452412
508180 173 18199209415781578908
5265222 85 18272098171463095270
613672 6 17553733529287626943
7808743 9 18343586252209299285

> <PUBCHEM_SHAPE_MULTIPOLES>
693.91
10.72
4.91
2.68
0.71
1.57
2.5
5.11
-1.96
-4.22
-0.95
2.9
-1.36
-3.52

> <PUBCHEM_SHAPE_SELFOVERLAP>
1498.655

> <PUBCHEM_SHAPE_VOLUME>
380.7

> <PUBCHEM_COORDINATE_TYPE>
2
5
10

$$$$
