132131
  -OEChem-03292013323D

 68 70  0     1  0  0  0  0  0999 V2000
   -1.5476   -2.2052   -1.7811 O   0  0  0  0  0  0  0  0  0  0  0  0
    4.2553    0.4823    0.4699 O   0  0  0  0  0  0  0  0  0  0  0  0
   -5.1166   -0.6358    1.1195 O   0  0  0  0  0  0  0  0  0  0  0  0
   -2.0951    2.4550   -0.7557 O   0  0  0  0  0  0  0  0  0  0  0  0
    0.8714   -1.8554   -2.0782 O   0  0  0  0  0  0  0  0  0  0  0  0
    0.3313    2.7385   -0.9297 O   0  0  0  0  0  0  0  0  0  0  0  0
   -3.9121    2.4430    1.9768 O   0  0  0  0  0  0  0  0  0  0  0  0
    3.4923    3.6171   -0.2094 O   0  0  0  0  0  0  0  0  0  0  0  0
   -3.3846   -1.6405   -0.2333 C   0  0  1  0  0  0  0  0  0  0  0  0
   -2.2334   -1.1959   -1.1180 C   0  0  0  0  0  0  0  0  0  0  0  0
   -2.8627   -2.5210    0.9167 C   0  0  0  0  0  0  0  0  0  0  0  0
   -1.8566    0.0880   -1.2849 C   0  0  0  0  0  0  0  0  0  0  0  0
   -4.1211   -0.4552    0.4138 C   0  0  0  0  0  0  0  0  0  0  0  0
   -4.4302   -2.4115   -1.0622 C   0  0  0  0  0  0  0  0  0  0  0  0
   -0.7199    0.4545   -2.2092 C   0  0  0  0  0  0  0  0  0  0  0  0
   -3.6247    0.9337    0.2072 C   0  0  0  0  0  0  0  0  0  0  0  0
   -2.5616    1.1594   -0.5816 C   0  0  0  0  0  0  0  0  0  0  0  0
    0.6019    0.4382   -1.5049 C   0  0  0  0  0  0  0  0  0  0  0  0
    5.0906   -0.6926    0.5544 C   0  0  0  0  0  0  0  0  0  0  0  0
   -1.7982   -1.8082    1.6873 C   0  0  0  0  0  0  0  0  0  0  0  0
    2.5928   -0.7542   -0.8096 C   0  0  0  0  0  0  0  0  0  0  0  0
    1.3567   -0.7340   -1.4670 C   0  0  0  0  0  0  0  0  0  0  0  0
    3.0631    0.4069   -0.1932 C   0  0  0  0  0  0  0  0  0  0  0  0
    1.0737    1.5944   -0.8893 C   0  0  0  0  0  0  0  0  0  0  0  0
    2.3041    1.5796   -0.2335 C   0  0  0  0  0  0  0  0  0  0  0  0
   -4.2849    2.0734    0.8677 C   0  0  0  0  0  0  0  0  0  0  0  0
    4.5581   -1.9335   -0.1230 C   0  0  0  0  0  0  0  0  0  0  0  0
    3.3881   -1.9690   -0.7640 C   0  0  0  0  0  0  0  0  0  0  0  0
   -0.5096   -2.1698    1.8358 C   0  0  0  0  0  0  0  0  0  0  0  0
    5.2838   -0.9765    2.0485 C   0  0  0  0  0  0  0  0  0  0  0  0
    6.4347   -0.3106   -0.0767 C   0  0  0  0  0  0  0  0  0  0  0  0
    2.7911    2.7965    0.4097 C   0  0  0  0  0  0  0  0  0  0  0  0
   -5.4047    2.7525    0.1319 C   0  0  0  0  0  0  0  0  0  0  0  0
    0.5165   -1.4085    2.6262 C   0  0  0  0  0  0  0  0  0  0  0  0
    0.0135   -3.4175    1.1752 C   0  0  0  0  0  0  0  0  0  0  0  0
    2.4447    3.0818    1.8639 C   0  0  0  0  0  0  0  0  0  0  0  0
   -3.6763   -2.7495    1.6189 H   0  0  0  0  0  0  0  0  0  0  0  0
   -2.5407   -3.4971    0.5435 H   0  0  0  0  0  0  0  0  0  0  0  0
   -5.2836   -2.7177   -0.4455 H   0  0  0  0  0  0  0  0  0  0  0  0
   -4.8263   -1.7883   -1.8732 H   0  0  0  0  0  0  0  0  0  0  0  0
   -4.0179   -3.3217   -1.5105 H   0  0  0  0  0  0  0  0  0  0  0  0
   -0.8963    1.4279   -2.6857 H   0  0  0  0  0  0  0  0  0  0  0  0
   -0.6939   -0.2220   -3.0747 H   0  0  0  0  0  0  0  0  0  0  0  0
   -2.1163   -0.9072    2.2099 H   0  0  0  0  0  0  0  0  0  0  0  0
    5.1646   -2.8354   -0.0884 H   0  0  0  0  0  0  0  0  0  0  0  0
    3.0720   -2.8851   -1.2445 H   0  0  0  0  0  0  0  0  0  0  0  0
   -1.9208   -3.0624   -1.5211 H   0  0  0  0  0  0  0  0  0  0  0  0
    5.9675   -1.8145    2.2230 H   0  0  0  0  0  0  0  0  0  0  0  0
    5.6804   -0.0947    2.5656 H   0  0  0  0  0  0  0  0  0  0  0  0
    4.3252   -1.2087    2.5284 H   0  0  0  0  0  0  0  0  0  0  0  0
    6.8515    0.5827    0.4033 H   0  0  0  0  0  0  0  0  0  0  0  0
    7.1705   -1.1185    0.0021 H   0  0  0  0  0  0  0  0  0  0  0  0
    6.3107   -0.0602   -1.1372 H   0  0  0  0  0  0  0  0  0  0  0  0
   -2.6013    3.0823   -0.2170 H   0  0  0  0  0  0  0  0  0  0  0  0
   -5.6054    2.2580   -0.8228 H   0  0  0  0  0  0  0  0  0  0  0  0
   -5.1298    3.7921   -0.0640 H   0  0  0  0  0  0  0  0  0  0  0  0
   -6.3118    2.7107    0.7406 H   0  0  0  0  0  0  0  0  0  0  0  0
    1.1642   -2.6478   -1.6017 H   0  0  0  0  0  0  0  0  0  0  0  0
    1.3430   -1.0915    1.9847 H   0  0  0  0  0  0  0  0  0  0  0  0
    0.0877   -0.5107    3.0833 H   0  0  0  0  0  0  0  0  0  0  0  0
    0.9181   -2.0344    3.4295 H   0  0  0  0  0  0  0  0  0  0  0  0
    1.0566   -3.2752    0.8724 H   0  0  0  0  0  0  0  0  0  0  0  0
   -0.5190   -3.7055    0.2680 H   0  0  0  0  0  0  0  0  0  0  0  0
   -0.0144   -4.2536    1.8815 H   0  0  0  0  0  0  0  0  0  0  0  0
    0.7897    3.4679   -0.4834 H   0  0  0  0  0  0  0  0  0  0  0  0
    3.3668    3.1411    2.4476 H   0  0  0  0  0  0  0  0  0  0  0  0
    1.8209    2.2816    2.2723 H   0  0  0  0  0  0  0  0  0  0  0  0
    1.8926    4.0230    1.9241 H   0  0  0  0  0  0  0  0  0  0  0  0
  1 10  1  0  0  0  0
  1 47  1  0  0  0  0
  2 19  1  0  0  0  0
  2 23  1  0  0  0  0
  3 13  2  0  0  0  0
  4 17  1  0  0  0  0
  4 54  1  0  0  0  0
  5 22  1  0  0  0  0
  5 58  1  0  0  0  0
  6 24  1  0  0  0  0
  6 65  1  0  0  0  0
  7 26  2  0  0  0  0
  8 32  2  0  0  0  0
  9 10  1  0  0  0  0
  9 11  1  0  0  0  0
  9 13  1  0  0  0  0
  9 14  1  0  0  0  0
 10 12  2  0  0  0  0
 11 20  1  0  0  0  0
 11 37  1  0  0  0  0
 11 38  1  0  0  0  0
 12 15  1  0  0  0  0
 12 17  1  0  0  0  0
 13 16  1  0  0  0  0
 14 39  1  0  0  0  0
 14 40  1  0  0  0  0
 14 41  1  0  0  0  0
 15 18  1  0  0  0  0
 15 42  1  0  0  0  0
 15 43  1  0  0  0  0
 16 17  2  0  0  0  0
 16 26  1  0  0  0  0
 18 22  1  0  0  0  0
 18 24  2  0  0  0  0
 19 27  1  0  0  0  0
 19 30  1  0  0  0  0
 19 31  1  0  0  0  0
 20 29  2  0  0  0  0
 20 44  1  0  0  0  0
 21 22  2  0  0  0  0
 21 23  1  0  0  0  0
 21 28  1  0  0  0  0
 23 25  2  0  0  0  0
 24 25  1  0  0  0  0
 25 32  1  0  0  0  0
 26 33  1  0  0  0  0
 27 28  2  0  0  0  0
 27 45  1  0  0  0  0
 28 46  1  0  0  0  0
 29 34  1  0  0  0  0
 29 35  1  0  0  0  0
 30 48  1  0  0  0  0
 30 49  1  0  0  0  0
 30 50  1  0  0  0  0
 31 51  1  0  0  0  0
 31 52  1  0  0  0  0
 31 53  1  0  0  0  0
 32 36  1  0  0  0  0
 33 55  1  0  0  0  0
 33 56  1  0  0  0  0
 33 57  1  0  0  0  0
 34 59  1  0  0  0  0
 34 60  1  0  0  0  0
 34 61  1  0  0  0  0
 35 62  1  0  0  0  0
 35 63  1  0  0  0  0
 35 64  1  0  0  0  0
 36 66  1  0  0  0  0
 36 67  1  0  0  0  0
 36 68  1  0  0  0  0
M  END
> <PUBCHEM_COMPOUND_CID>
132131

> <PUBCHEM_CONFORMER_RMSD>
1

> <PUBCHEM_CONFORMER_DIVERSEORDER>
12
73
182
185
33
31
183
173
188
92
178
147
160
141
151
122
170
153
61
46
65
36
126
91
117
108
164
165
125
129
24
14
154
189
96
29
98
133
169
186
84
138
175
134
54
81
143
104
71
132
157
162
69
166
115
60
168
23
82
11
142
67
105
130
111
35
103
18
176
22
90
49
163
76
180
58
94
116
179
43
68
156
181
135
131
174
150
75
161
27
123
52
32
124
152
172
127
80
112
187
167
83
88
55
158
13
149
17
59
26
8
63
107
140
19
21
100
51
6
144
113
128
177
119
136
72
109
184
56
159
102
40
171
28
95
9
146
20
42
78
47
66
137
7
37
99
4
148
50
77
64
44
85
87
93
145
155
41
34
16
45
86
97
139
38
1
101
106
114
62
70
25
110
10
15
121
118
39
57
5
3
30
79
89
74
120
2
53
48

> <PUBCHEM_MMFF94_PARTIAL_CHARGES>
40
1 -0.53
10 -0.06
11 0.14
12 -0.14
13 0.49
15 0.28
16 0.03
17 0.08
18 -0.14
19 0.42
2 -0.36
20 -0.29
21 0.03
22 0.08
23 0.08
24 0.08
25 0.09
26 0.49
27 -0.29
28 -0.18
29 -0.28
3 -0.57
32 0.42
33 0.06
34 0.14
35 0.14
36 0.06
4 -0.53
44 0.15
45 0.15
46 0.15
47 0.45
5 -0.53
54 0.45
58 0.45
6 -0.53
65 0.45
7 -0.57
8 -0.57
9 0.2

> <PUBCHEM_EFFECTIVE_ROTOR_COUNT>
6.6

> <PUBCHEM_PHARMACOPHORE_FEATURES>
14
1 1 donor
1 16 anion
1 2 acceptor
1 3 acceptor
1 4 donor
1 5 donor
1 6 donor
1 7 acceptor
1 8 acceptor
3 19 30 31 hydrophobe
3 29 34 35 hydrophobe
6 18 21 22 23 24 25 rings
6 2 19 21 23 27 28 rings
6 9 10 12 13 16 17 rings

> <PUBCHEM_HEAVY_ATOM_COUNT>
36

> <PUBCHEM_ATOM_DEF_STEREO_COUNT>
0

> <PUBCHEM_ATOM_UDEF_STEREO_COUNT>
1

> <PUBCHEM_BOND_DEF_STEREO_COUNT>
0

> <PUBCHEM_BOND_UDEF_STEREO_COUNT>
0

> <PUBCHEM_ISOTOPIC_ATOM_COUNT>
0

> <PUBCHEM_COMPONENT_COUNT>
1

> <PUBCHEM_CACTVS_TAUTO_COUNT>
513

> <PUBCHEM_CONFORMER_ID>
000204230000000C

> <PUBCHEM_MMFF94_ENERGY>
116.1256

> <PUBCHEM_FEATURE_SELFOVERLAP>
71.124

> <PUBCHEM_SHAPE_FINGERPRINT>
10366900 7 18053106412748478181
1100329 8 16605466945192005116
11578080 2 17388287721359393612
12107698 1 18340483460713745999
12156800 1 16256178476357825634
12166972 35 16917063391196846046
12422481 6 18272649017944734140
12467345 10 18343304725851132939
12633257 1 18335985289751016164
13140716 1 18411138039012162509
13782708 43 15720217390025826034
14020679 6 18334863779448307040
14466204 15 18339642239807948922
14950920 106 18335698407262800082
15209289 33 18113058220429111118
15238133 3 18340499859009762700
16112460 7 17968105247943677272
17974551 9 18413111688079990353
1813 80 17386013836348593268
20715895 44 17844537600150391921
20764821 26 18040714822672656576
21033648 29 17346016914998190186
21403212 168 18190739731340475781
23558518 356 18336273452556036653
23559900 14 17823978038296350372
2838139 119 12967126121290638554
3117164 225 18343300344895008284
3493558 16 17415291528614170267
35225 105 17394692478831283361
392239 28 18187356585353198138
5104073 3 18411419544064187145
5265222 85 17677632907674973822
9896288 288 16753233624981082162

> <PUBCHEM_SHAPE_MULTIPOLES>
693.91
11.24
4.01
2.09
4.2
1.52
0.44
1
2.89
-0.99
1.12
-0.09
-0.6
-0.35

> <PUBCHEM_SHAPE_SELFOVERLAP>
1498.771

> <PUBCHEM_SHAPE_VOLUME>
380.2

> <PUBCHEM_COORDINATE_TYPE>
2
5
10

$$$$
