132133
  -OEChem-03292013323D

 70 71  0     1  0  0  0  0  0999 V2000
    0.6102   -2.1605   -0.8740 O   0  0  0  0  0  0  0  0  0  0  0  0
   -3.8885   -2.8466    0.8306 O   0  0  0  0  0  0  0  0  0  0  0  0
   -2.8383    1.1293   -1.4691 O   0  0  0  0  0  0  0  0  0  0  0  0
    2.3437   -0.3735   -0.8923 O   0  0  0  0  0  0  0  0  0  0  0  0
   -5.0488    0.3657    0.8328 O   0  0  0  0  0  0  0  0  0  0  0  0
   -1.1274    2.8872   -1.3672 O   0  0  0  0  0  0  0  0  0  0  0  0
    2.7772    3.8567    1.2348 O   0  0  0  0  0  0  0  0  0  0  0  0
    0.5268    5.6955   -0.5017 O   0  0  0  0  0  0  0  0  0  0  0  0
   -1.5808   -2.6871    0.1317 C   0  0  2  0  0  0  0  0  0  0  0  0
   -1.0361   -2.8327    1.5643 C   0  0  0  0  0  0  0  0  0  0  0  0
   -0.7000   -1.7467   -0.6717 C   0  0  0  0  0  0  0  0  0  0  0  0
   -3.0266   -2.1768    0.2560 C   0  0  0  0  0  0  0  0  0  0  0  0
   -1.1138   -0.5685   -1.1804 C   0  0  0  0  0  0  0  0  0  0  0  0
   -1.6558   -4.0659   -0.5523 C   0  0  0  0  0  0  0  0  0  0  0  0
   -3.3996   -0.8489   -0.3059 C   0  0  0  0  0  0  0  0  0  0  0  0
   -2.4872   -0.1144   -0.9629 C   0  0  0  0  0  0  0  0  0  0  0  0
   -0.1860    0.2981   -1.9983 C   0  0  0  0  0  0  0  0  0  0  0  0
   -0.8947   -1.4941    2.2149 C   0  0  0  0  0  0  0  0  0  0  0  0
    0.5941    1.2472   -1.1415 C   0  0  0  0  0  0  0  0  0  0  0  0
   -4.7657   -0.3214   -0.1436 C   0  0  0  0  0  0  0  0  0  0  0  0
    0.2357   -0.9098    2.6553 C   0  0  0  0  0  0  0  0  0  0  0  0
    1.8302    0.8605   -0.6272 C   0  0  0  0  0  0  0  0  0  0  0  0
    0.0834    2.5130   -0.8608 C   0  0  0  0  0  0  0  0  0  0  0  0
    0.8117    3.3955   -0.0629 C   0  0  0  0  0  0  0  0  0  0  0  0
   -5.7710   -0.6491   -1.2107 C   0  0  0  0  0  0  0  0  0  0  0  0
    2.5584    1.7429    0.1708 C   0  0  0  0  0  0  0  0  0  0  0  0
    1.5621   -1.6066    2.5073 C   0  0  0  0  0  0  0  0  0  0  0  0
    0.3139    0.4433    3.3035 C   0  0  0  0  0  0  0  0  0  0  0  0
    2.0491    3.0105    0.4528 C   0  0  0  0  0  0  0  0  0  0  0  0
    0.2805    4.7212    0.2333 C   0  0  0  0  0  0  0  0  0  0  0  0
    3.7645   -0.4886   -0.9343 C   0  0  0  0  0  0  0  0  0  0  0  0
   -0.5938    4.9377    1.4610 C   0  0  0  0  0  0  0  0  0  0  0  0
    4.1411   -1.8988   -1.2642 C   0  0  0  0  0  0  0  0  0  0  0  0
    4.9052   -2.7449   -0.5476 C   0  0  0  0  0  0  0  0  0  0  0  0
    5.5490   -2.4325    0.7735 C   0  0  0  0  0  0  0  0  0  0  0  0
    5.1775   -4.1371   -1.0537 C   0  0  0  0  0  0  0  0  0  0  0  0
   -0.1120   -3.4164    1.5708 H   0  0  0  0  0  0  0  0  0  0  0  0
   -1.7344   -3.4197    2.1770 H   0  0  0  0  0  0  0  0  0  0  0  0
   -2.3091   -4.7520   -0.0001 H   0  0  0  0  0  0  0  0  0  0  0  0
   -2.0635   -3.9798   -1.5669 H   0  0  0  0  0  0  0  0  0  0  0  0
   -0.6754   -4.5486   -0.6255 H   0  0  0  0  0  0  0  0  0  0  0  0
    0.5013   -0.3242   -2.5881 H   0  0  0  0  0  0  0  0  0  0  0  0
   -0.7356    0.8389   -2.7800 H   0  0  0  0  0  0  0  0  0  0  0  0
   -1.8220   -0.9452    2.3732 H   0  0  0  0  0  0  0  0  0  0  0  0
    0.7506   -3.0005   -0.4087 H   0  0  0  0  0  0  0  0  0  0  0  0
   -3.7521    1.3542   -1.2363 H   0  0  0  0  0  0  0  0  0  0  0  0
   -5.3343   -1.2948   -1.9780 H   0  0  0  0  0  0  0  0  0  0  0  0
   -6.1096    0.2761   -1.6839 H   0  0  0  0  0  0  0  0  0  0  0  0
   -6.6172   -1.1729   -0.7584 H   0  0  0  0  0  0  0  0  0  0  0  0
    3.5107    1.4943    0.6238 H   0  0  0  0  0  0  0  0  0  0  0  0
    2.3428   -0.8772    2.2619 H   0  0  0  0  0  0  0  0  0  0  0  0
    1.8399   -2.0851    3.4520 H   0  0  0  0  0  0  0  0  0  0  0  0
    1.6024   -2.3530    1.7135 H   0  0  0  0  0  0  0  0  0  0  0  0
   -0.6735    0.9101    3.3810 H   0  0  0  0  0  0  0  0  0  0  0  0
    0.9534    1.1140    2.7238 H   0  0  0  0  0  0  0  0  0  0  0  0
    0.7240    0.3567    4.3148 H   0  0  0  0  0  0  0  0  0  0  0  0
   -1.3462    3.7962   -1.1078 H   0  0  0  0  0  0  0  0  0  0  0  0
    4.2064   -0.2181    0.0224 H   0  0  0  0  0  0  0  0  0  0  0  0
    4.1644    0.1724   -1.7130 H   0  0  0  0  0  0  0  0  0  0  0  0
   -1.5755    5.2985    1.1440 H   0  0  0  0  0  0  0  0  0  0  0  0
   -0.7238    3.9993    2.0077 H   0  0  0  0  0  0  0  0  0  0  0  0
   -0.1137    5.6651    2.1204 H   0  0  0  0  0  0  0  0  0  0  0  0
    2.3208    4.7073    1.3363 H   0  0  0  0  0  0  0  0  0  0  0  0
    3.7372   -2.2548   -2.2114 H   0  0  0  0  0  0  0  0  0  0  0  0
    6.6364   -2.5365    0.6924 H   0  0  0  0  0  0  0  0  0  0  0  0
    5.3485   -1.4278    1.1474 H   0  0  0  0  0  0  0  0  0  0  0  0
    5.1949   -3.1353    1.5355 H   0  0  0  0  0  0  0  0  0  0  0  0
    6.2539   -4.2890   -1.1848 H   0  0  0  0  0  0  0  0  0  0  0  0
    4.8056   -4.8792   -0.3395 H   0  0  0  0  0  0  0  0  0  0  0  0
    4.6951   -4.3337   -2.0170 H   0  0  0  0  0  0  0  0  0  0  0  0
  1 11  1  0  0  0  0
  1 45  1  0  0  0  0
  2 12  2  0  0  0  0
  3 16  1  0  0  0  0
  3 46  1  0  0  0  0
  4 22  1  0  0  0  0
  4 31  1  0  0  0  0
  5 20  2  0  0  0  0
  6 23  1  0  0  0  0
  6 57  1  0  0  0  0
  7 29  1  0  0  0  0
  7 63  1  0  0  0  0
  8 30  2  0  0  0  0
  9 10  1  0  0  0  0
  9 11  1  0  0  0  0
  9 12  1  0  0  0  0
  9 14  1  0  0  0  0
 10 18  1  0  0  0  0
 10 37  1  0  0  0  0
 10 38  1  0  0  0  0
 11 13  2  0  0  0  0
 12 15  1  0  0  0  0
 13 16  1  0  0  0  0
 13 17  1  0  0  0  0
 14 39  1  0  0  0  0
 14 40  1  0  0  0  0
 14 41  1  0  0  0  0
 15 16  2  0  0  0  0
 15 20  1  0  0  0  0
 17 19  1  0  0  0  0
 17 42  1  0  0  0  0
 17 43  1  0  0  0  0
 18 21  2  0  0  0  0
 18 44  1  0  0  0  0
 19 22  2  0  0  0  0
 19 23  1  0  0  0  0
 20 25  1  0  0  0  0
 21 27  1  0  0  0  0
 21 28  1  0  0  0  0
 22 26  1  0  0  0  0
 23 24  2  0  0  0  0
 24 29  1  0  0  0  0
 24 30  1  0  0  0  0
 25 47  1  0  0  0  0
 25 48  1  0  0  0  0
 25 49  1  0  0  0  0
 26 29  2  0  0  0  0
 26 50  1  0  0  0  0
 27 51  1  0  0  0  0
 27 52  1  0  0  0  0
 27 53  1  0  0  0  0
 28 54  1  0  0  0  0
 28 55  1  0  0  0  0
 28 56  1  0  0  0  0
 30 32  1  0  0  0  0
 31 33  1  0  0  0  0
 31 58  1  0  0  0  0
 31 59  1  0  0  0  0
 32 60  1  0  0  0  0
 32 61  1  0  0  0  0
 32 62  1  0  0  0  0
 33 34  2  0  0  0  0
 33 64  1  0  0  0  0
 34 35  1  0  0  0  0
 34 36  1  0  0  0  0
 35 65  1  0  0  0  0
 35 66  1  0  0  0  0
 35 67  1  0  0  0  0
 36 68  1  0  0  0  0
 36 69  1  0  0  0  0
 36 70  1  0  0  0  0
M  END
> <PUBCHEM_COMPOUND_CID>
132133

> <PUBCHEM_CONFORMER_RMSD>
1

> <PUBCHEM_CONFORMER_DIVERSEORDER>
10
143
120
227
73
205
241
222
130
121
246
66
47
179
211
139
195
236
147
125
174
30
127
159
112
123
219
167
28
235
126
133
202
85
64
245
134
39
87
72
15
62
41
223
57
152
150
50
184
4
229
244
237
132
168
6
221
144
59
106
86
91
104
93
83
34
78
44
185
228
206
7
136
220
55
67
25
247
177
84
173
115
161
186
194
162
215
97
38
114
226
29
9
200
24
61
210
176
49
214
203
154
233
37
193
164
71
19
146
48
92
212
45
74
240
88
46
105
209
117
101
128
82
189
75
138
20
42
180
182
142
111
18
183
113
95
90
231
103
188
23
118
196
56
156
54
149
171
178
166
199
157
68
32
197
158
65
201
155
217
81
36
53
35
238
27
33
100
96
207
187
208
99
190
192
94
124
175
181
119
170
243
51
137
52
76
165
140
12
26
172
122
213
151
69
191
77
31
153
204
242
22
63
239
13
141
148
17
107
40
8
80
89
3
21
79
110
11
232
131
14
160
230
225
129
198
60
1
218
109
234
5
98
2
16
58
70
135
163
169
145
102
216
43
224
116
108

> <PUBCHEM_MMFF94_PARTIAL_CHARGES>
42
1 -0.53
10 0.14
11 -0.06
12 0.49
13 -0.14
15 0.03
16 0.08
17 0.28
18 -0.29
19 -0.14
2 -0.57
20 0.49
21 -0.28
22 0.08
23 0.08
24 0.09
25 0.06
26 -0.15
27 0.14
28 0.14
29 0.08
3 -0.53
30 0.42
31 0.42
32 0.06
33 -0.29
34 -0.28
35 0.14
36 0.14
4 -0.36
44 0.15
45 0.45
46 0.45
5 -0.57
50 0.15
57 0.45
6 -0.53
63 0.45
64 0.15
7 -0.53
8 -0.57
9 0.2

> <PUBCHEM_EFFECTIVE_ROTOR_COUNT>
9.2

> <PUBCHEM_PHARMACOPHORE_FEATURES>
13
1 1 donor
1 15 anion
1 2 acceptor
1 3 donor
1 4 acceptor
1 5 acceptor
1 6 donor
1 7 donor
1 8 acceptor
3 21 27 28 hydrophobe
3 34 35 36 hydrophobe
6 19 22 23 24 26 29 rings
6 9 11 12 13 15 16 rings

> <PUBCHEM_HEAVY_ATOM_COUNT>
36

> <PUBCHEM_ATOM_DEF_STEREO_COUNT>
0

> <PUBCHEM_ATOM_UDEF_STEREO_COUNT>
1

> <PUBCHEM_BOND_DEF_STEREO_COUNT>
0

> <PUBCHEM_BOND_UDEF_STEREO_COUNT>
0

> <PUBCHEM_ISOTOPIC_ATOM_COUNT>
0

> <PUBCHEM_COMPONENT_COUNT>
1

> <PUBCHEM_CACTVS_TAUTO_COUNT>
418

> <PUBCHEM_CONFORMER_ID>
000204250000000A

> <PUBCHEM_MMFF94_ENERGY>
107.6184

> <PUBCHEM_FEATURE_SELFOVERLAP>
65.996

> <PUBCHEM_SHAPE_FINGERPRINT>
11578080 2 17557424580957153763
12058002 1 17344379728994010143
12156800 1 17836061400360160218
12633257 1 17682934936942971545
12788726 201 18263092020211723494
14866123 147 17907022776825890550
14955137 171 18335435551555009995
15351334 14 12687956765125551074
23559900 14 18267303329506608077
24893992 56 18339932507664539105
3027735 51 17909275684915783198
6086070 43 18263343847303250181
9981440 41 17331112209886014121

> <PUBCHEM_SHAPE_MULTIPOLES>
693.91
8.56
6.82
2.25
2.64
8.94
1.91
-9.88
-2.54
2.2
0.72
0.22
-0.36
1.04

> <PUBCHEM_SHAPE_SELFOVERLAP>
1464.65

> <PUBCHEM_SHAPE_VOLUME>
388.5

> <PUBCHEM_COORDINATE_TYPE>
2
5
10

$$$$
