132117
  -OEChem-03292013323D

 30 30  0     1  0  0  0  0  0999 V2000
    2.4877    1.1730   -1.4176 S   0  0  0  0  0  0  0  0  0  0  0  0
    1.6831   -0.6097    1.6820 O   0  0  0  0  0  0  0  0  0  0  0  0
   -0.2156    0.6466   -2.3391 O   0  0  0  0  0  0  0  0  0  0  0  0
    2.0292    2.1964    1.3336 O   0  5  0  0  0  0  0  0  0  0  0  0
   -0.0465    2.6289    0.5084 O   0  0  0  0  0  0  0  0  0  0  0  0
    3.2914   -2.1323   -0.1478 N   0  0  0  0  0  0  0  0  0  0  0  0
    1.1028    0.6883   -0.2893 C   0  0  2  0  0  0  0  0  0  0  0  0
    1.8807   -1.8256   -0.3752 C   0  0  2  0  0  0  0  0  0  0  0  0
    1.5547   -0.5811    0.4550 C   0  0  0  0  0  0  0  0  0  0  0  0
   -0.1796    0.5036   -1.1172 C   0  0  0  0  0  0  0  0  0  0  0  0
   -1.4447    0.0968   -0.4407 C   0  0  0  0  0  0  0  0  0  0  0  0
    0.9984   -2.9964    0.0402 C   0  0  0  0  0  0  0  0  0  0  0  0
    1.0256    1.9610    0.5994 C   0  0  0  0  0  0  0  0  0  0  0  0
   -1.4304   -0.1045    0.9211 C   0  0  0  0  0  0  0  0  0  0  0  0
   -2.5797   -0.0623   -1.2035 C   0  0  0  0  0  0  0  0  0  0  0  0
   -2.6139   -0.4853    1.5538 C   0  0  0  0  0  0  0  0  0  0  0  0
   -3.7631   -0.4430   -0.5709 C   0  0  0  0  0  0  0  0  0  0  0  0
   -3.7801   -0.6545    0.8078 C   0  0  0  0  0  0  0  0  0  0  0  0
    1.7176   -1.6311   -1.4393 H   0  0  0  0  0  0  0  0  0  0  0  0
    1.1174   -3.2379    1.1026 H   0  0  0  0  0  0  0  0  0  0  0  0
    1.2370   -3.8940   -0.5405 H   0  0  0  0  0  0  0  0  0  0  0  0
   -0.0584   -2.7623   -0.1243 H   0  0  0  0  0  0  0  0  0  0  0  0
    3.8688   -1.3794   -0.5209 H   0  0  0  0  0  0  0  0  0  0  0  0
    3.5473   -2.9705   -0.6685 H   0  0  0  0  0  0  0  0  0  0  0  0
    1.8788    2.2318   -1.9729 H   0  0  0  0  0  0  0  0  0  0  0  0
   -0.5836    0.0531    1.5683 H   0  0  0  0  0  0  0  0  0  0  0  0
   -2.5919    0.0970   -2.2772 H   0  0  0  0  0  0  0  0  0  0  0  0
   -2.6309   -0.6396    2.6289 H   0  0  0  0  0  0  0  0  0  0  0  0
   -4.6717   -0.5741   -1.1513 H   0  0  0  0  0  0  0  0  0  0  0  0
   -4.7022   -0.9484    1.3007 H   0  0  0  0  0  0  0  0  0  0  0  0
  1  7  1  0  0  0  0
  1 25  1  0  0  0  0
  2  9  2  0  0  0  0
  3 10  2  0  0  0  0
  4 13  1  0  0  0  0
  5 13  2  0  0  0  0
  6  8  1  0  0  0  0
  6 23  1  0  0  0  0
  6 24  1  0  0  0  0
  7  9  1  0  0  0  0
  7 10  1  0  0  0  0
  7 13  1  0  0  0  0
  8  9  1  0  0  0  0
  8 12  1  0  0  0  0
  8 19  1  0  0  0  0
 10 11  1  0  0  0  0
 11 14  2  0  0  0  0
 11 15  1  0  0  0  0
 12 20  1  0  0  0  0
 12 21  1  0  0  0  0
 12 22  1  0  0  0  0
 14 16  1  0  0  0  0
 14 26  1  0  0  0  0
 15 17  2  0  0  0  0
 15 27  1  0  0  0  0
 16 18  2  0  0  0  0
 16 28  1  0  0  0  0
 17 18  1  0  0  0  0
 17 29  1  0  0  0  0
 18 30  1  0  0  0  0
M  CHG  1   4  -1
M  END
> <PUBCHEM_COMPOUND_CID>
132117

> <PUBCHEM_CONFORMER_RMSD>
0.6

> <PUBCHEM_CONFORMER_DIVERSEORDER>
2
99
3
31
150
204
72
181
34
161
153
66
174
177
166
67
185
43
68
76
189
157
205
22
194
184
199
173
93
142
47
137
186
33
132
196
188
83
86
84
180
135
203
198
54
105
195
9
190
162
59
52
89
187
75
123
62
25
77
178
45
18
193
42
79
69
117
143
61
107
26
140
58
102
109
97
147
141
82
200
35
151
197
60
148
56
201
28
133
41
12
126
171
125
114
30
192
80
51
100
155
32
57
202
116
95
172
104
154
164
165
182
90
179
170
183
106
128
36
207
1
101
92
129
8
111
206
70
78
17
139
124
23
88
119
98
63
38
74
160
5
10
11
108
156
113
15
110
175
163
24
40
48
21
169
138
44
103
39
136
16
131
121
85
191
146
29
176
127
73
64
50
96
112
81
71
14
152
159
6
19
49
46
4
167
27
13
94
134
149
120
20
65
168
145
91
7
130
87
55
122
37
144
53
118
115
158

> <PUBCHEM_MMFF94_PARTIAL_CHARGES>
25
1 -0.41
10 0.42
11 0.09
13 0.91
14 -0.15
15 -0.15
16 -0.15
17 -0.15
18 -0.15
2 -0.57
23 0.36
24 0.36
25 0.18
26 0.15
27 0.15
28 0.15
29 0.15
3 -0.57
30 0.15
4 -0.9
5 -0.9
6 -0.99
7 0.25
8 0.33
9 0.45

> <PUBCHEM_EFFECTIVE_ROTOR_COUNT>
5

> <PUBCHEM_PHARMACOPHORE_FEATURES>
8
1 2 acceptor
1 3 acceptor
1 4 acceptor
1 5 acceptor
1 6 cation
1 6 donor
3 4 5 13 anion
6 11 14 15 16 17 18 rings

> <PUBCHEM_HEAVY_ATOM_COUNT>
18

> <PUBCHEM_ATOM_DEF_STEREO_COUNT>
1

> <PUBCHEM_ATOM_UDEF_STEREO_COUNT>
1

> <PUBCHEM_BOND_DEF_STEREO_COUNT>
0

> <PUBCHEM_BOND_UDEF_STEREO_COUNT>
0

> <PUBCHEM_ISOTOPIC_ATOM_COUNT>
0

> <PUBCHEM_COMPONENT_COUNT>
1

> <PUBCHEM_CACTVS_TAUTO_COUNT>
4

> <PUBCHEM_CONFORMER_ID>
0002041500000002

> <PUBCHEM_MMFF94_ENERGY>
51.4119

> <PUBCHEM_FEATURE_SELFOVERLAP>
40.656

> <PUBCHEM_SHAPE_FINGERPRINT>
107287 299 18115313400503130741
12326174 3 18131079276164236749
12423570 1 16626354668259391800
12932764 1 18343024436628267797
13533116 47 18411428319647795459
13583140 156 18197245675017628435
14817 1 17049102367838570372
15001771 113 18045231444234770860
15852999 172 18043518628720947443
16945 1 18338519767031950237
1813 80 17702677540514178286
19049666 15 18261662680638448229
19765921 60 17198525323907396497
20645477 70 18186795903216641503
20671657 53 17604158004051083406
21061003 4 18340760430111520546
21731516 1 18200319796905204334
22721475 48 18115029580506314659
22802520 49 17676490488891055951
23419403 2 17538233494525939632
23559900 14 16951667118351886258
2748010 2 17530962501514721215
430814 3 17344908739777630732
4340502 62 17840291539678613711
495365 180 18265593503448186869
568465 68 18335406942429451234
576247 118 18263928730683999682
7364860 26 18342454871855459235
77492 1 17346312743438689789
81228 2 17616244784977172200

> <PUBCHEM_SHAPE_MULTIPOLES>
345.82
5.11
2.51
1.64
3.92
0.74
-0.19
1.42
0.06
-2.53
0.39
0.08
-0.49
0.31

> <PUBCHEM_SHAPE_SELFOVERLAP>
715.434

> <PUBCHEM_SHAPE_VOLUME>
199

> <PUBCHEM_COORDINATE_TYPE>
2
5
10

$$$$
