132166
  -OEChem-03292013323D

 42 46  0     0  0  0  0  0  0999 V2000
   -0.1870    0.1171    1.9613 O   0  0  0  0  0  0  0  0  0  0  0  0
    2.7176   -0.3472   -0.8592 O   0  0  0  0  0  0  0  0  0  0  0  0
   -2.1087    0.4096    3.2181 O   0  0  0  0  0  0  0  0  0  0  0  0
    3.7949    4.2578   -0.6926 O   0  0  0  0  0  0  0  0  0  0  0  0
    2.4916   -5.0606   -0.5003 O   0  0  0  0  0  0  0  0  0  0  0  0
   -5.9268   -0.5159   -1.3974 N   0  0  0  0  0  0  0  0  0  0  0  0
    0.1872    0.0358    0.5493 C   0  0  0  0  0  0  0  0  0  0  0  0
   -1.1370    0.2074   -0.1227 C   0  0  0  0  0  0  0  0  0  0  0  0
    1.1524    1.1658    0.2505 C   0  0  0  0  0  0  0  0  0  0  0  0
    0.8035   -1.3268    0.3015 C   0  0  0  0  0  0  0  0  0  0  0  0
   -2.1284    0.3654    0.8289 C   0  0  0  0  0  0  0  0  0  0  0  0
    2.3389    0.9067   -0.4449 C   0  0  0  0  0  0  0  0  0  0  0  0
    2.0118   -1.4314   -0.3969 C   0  0  0  0  0  0  0  0  0  0  0  0
   -1.5313    0.3088    2.1543 C   0  0  0  0  0  0  0  0  0  0  0  0
   -1.4565    0.2246   -1.4713 C   0  0  0  0  0  0  0  0  0  0  0  0
    0.8769    2.4920    0.6279 C   0  0  0  0  0  0  0  0  0  0  0  0
    0.1768   -2.5102    0.7304 C   0  0  0  0  0  0  0  0  0  0  0  0
   -3.4592    0.5452    0.4998 C   0  0  0  0  0  0  0  0  0  0  0  0
   -3.7888    0.5639   -0.8557 C   0  0  0  0  0  0  0  0  0  0  0  0
   -2.7942    0.4046   -1.8352 C   0  0  0  0  0  0  0  0  0  0  0  0
    3.2222    1.9433   -0.7648 C   0  0  0  0  0  0  0  0  0  0  0  0
    2.5752   -2.6826   -0.6694 C   0  0  0  0  0  0  0  0  0  0  0  0
    1.7617    3.5254    0.3149 C   0  0  0  0  0  0  0  0  0  0  0  0
    0.7425   -3.7585    0.4645 C   0  0  0  0  0  0  0  0  0  0  0  0
    2.9335    3.2510   -0.3832 C   0  0  0  0  0  0  0  0  0  0  0  0
    1.9409   -3.8446   -0.2372 C   0  0  0  0  0  0  0  0  0  0  0  0
   -5.2096    0.7536   -1.2706 C   0  0  0  0  0  0  0  0  0  0  0  0
   -0.6930    0.1019   -2.2321 H   0  0  0  0  0  0  0  0  0  0  0  0
   -0.0353    2.7366    1.1662 H   0  0  0  0  0  0  0  0  0  0  0  0
   -0.7646   -2.4732    1.2729 H   0  0  0  0  0  0  0  0  0  0  0  0
   -4.2153    0.6652    1.2682 H   0  0  0  0  0  0  0  0  0  0  0  0
   -3.0559    0.4181   -2.8906 H   0  0  0  0  0  0  0  0  0  0  0  0
    4.1373    1.7218   -1.3092 H   0  0  0  0  0  0  0  0  0  0  0  0
    3.5127   -2.7500   -1.2164 H   0  0  0  0  0  0  0  0  0  0  0  0
    1.5268    4.5427    0.6161 H   0  0  0  0  0  0  0  0  0  0  0  0
    0.2340   -4.6554    0.8081 H   0  0  0  0  0  0  0  0  0  0  0  0
   -5.7345    1.3898   -0.5481 H   0  0  0  0  0  0  0  0  0  0  0  0
   -5.2584    1.2888   -2.2263 H   0  0  0  0  0  0  0  0  0  0  0  0
   -5.9038   -1.0164   -0.5098 H   0  0  0  0  0  0  0  0  0  0  0  0
   -5.4583   -1.1114   -2.0791 H   0  0  0  0  0  0  0  0  0  0  0  0
    4.5526    3.8872   -1.1769 H   0  0  0  0  0  0  0  0  0  0  0  0
    1.9189   -5.7532   -0.1281 H   0  0  0  0  0  0  0  0  0  0  0  0
  1  7  1  0  0  0  0
  1 14  1  0  0  0  0
  2 12  1  0  0  0  0
  2 13  1  0  0  0  0
  3 14  2  0  0  0  0
  4 25  1  0  0  0  0
  4 41  1  0  0  0  0
  5 26  1  0  0  0  0
  5 42  1  0  0  0  0
  6 27  1  0  0  0  0
  6 39  1  0  0  0  0
  6 40  1  0  0  0  0
  7  8  1  0  0  0  0
  7  9  1  0  0  0  0
  7 10  1  0  0  0  0
  8 11  2  0  0  0  0
  8 15  1  0  0  0  0
  9 12  2  0  0  0  0
  9 16  1  0  0  0  0
 10 13  2  0  0  0  0
 10 17  1  0  0  0  0
 11 14  1  0  0  0  0
 11 18  1  0  0  0  0
 12 21  1  0  0  0  0
 13 22  1  0  0  0  0
 15 20  2  0  0  0  0
 15 28  1  0  0  0  0
 16 23  2  0  0  0  0
 16 29  1  0  0  0  0
 17 24  2  0  0  0  0
 17 30  1  0  0  0  0
 18 19  2  0  0  0  0
 18 31  1  0  0  0  0
 19 20  1  0  0  0  0
 19 27  1  0  0  0  0
 20 32  1  0  0  0  0
 21 25  2  0  0  0  0
 21 33  1  0  0  0  0
 22 26  2  0  0  0  0
 22 34  1  0  0  0  0
 23 25  1  0  0  0  0
 23 35  1  0  0  0  0
 24 26  1  0  0  0  0
 24 36  1  0  0  0  0
 27 37  1  0  0  0  0
 27 38  1  0  0  0  0
M  END
> <PUBCHEM_COMPOUND_CID>
132166

> <PUBCHEM_CONFORMER_RMSD>
0.6

> <PUBCHEM_CONFORMER_DIVERSEORDER>
1

> <PUBCHEM_MMFF94_PARTIAL_CHARGES>
40
1 -0.43
10 -0.14
11 0.09
12 0.08
13 0.08
14 0.63
15 -0.15
16 -0.15
17 -0.15
18 -0.15
19 -0.14
2 -0.17
20 -0.15
21 -0.15
22 -0.15
23 -0.15
24 -0.15
25 0.08
26 0.08
27 0.41
28 0.15
29 0.15
3 -0.57
30 0.15
31 0.15
32 0.15
33 0.15
34 0.15
35 0.15
36 0.15
39 0.36
4 -0.53
40 0.36
41 0.45
42 0.45
5 -0.53
6 -0.99
7 0.71
8 -0.14
9 -0.14

> <PUBCHEM_EFFECTIVE_ROTOR_COUNT>
1.4

> <PUBCHEM_PHARMACOPHORE_FEATURES>
11
1 2 acceptor
1 3 acceptor
1 4 donor
1 5 donor
1 6 cation
1 6 donor
5 1 7 8 11 14 rings
6 10 13 17 22 24 26 rings
6 2 7 9 10 12 13 rings
6 8 11 15 18 19 20 rings
6 9 12 16 21 23 25 rings

> <PUBCHEM_HEAVY_ATOM_COUNT>
27

> <PUBCHEM_ATOM_DEF_STEREO_COUNT>
0

> <PUBCHEM_ATOM_UDEF_STEREO_COUNT>
0

> <PUBCHEM_BOND_DEF_STEREO_COUNT>
0

> <PUBCHEM_BOND_UDEF_STEREO_COUNT>
0

> <PUBCHEM_ISOTOPIC_ATOM_COUNT>
0

> <PUBCHEM_COMPONENT_COUNT>
1

> <PUBCHEM_CACTVS_TAUTO_COUNT>
5

> <PUBCHEM_CONFORMER_ID>
0002044600000001

> <PUBCHEM_MMFF94_ENERGY>
78.8411

> <PUBCHEM_FEATURE_SELFOVERLAP>
55.968

> <PUBCHEM_SHAPE_FINGERPRINT>
10165383 225 17614051568639165444
105312 117 18047193239647316284
10693767 8 18130791110188038846
11045515 52 17903636276522025647
11101153 10 17904769878435085622
11115154 58 17832135027385018653
11578080 2 17389423426185923537
11582403 64 17678155291029196993
11725454 13 17604415414257332617
12160290 23 17326365584113542064
12293681 160 17701822308845462689
12553582 1 17907039291049425322
12730499 353 18335140942589010645
12788726 201 16892861718260768658
13004483 165 17619049647519131878
13009979 54 17416406459349033955
13140716 1 18124345880594824218
133893 2 18270131118725820897
13583140 156 18050036349320485025
13681431 1 18192703454263700616
13911987 19 18190202126020827862
15219462 58 17904247781745652697
15324884 4 17750818698730849913
15842332 3 17845670139960460985
16087824 20 16896526386422827289
16945 1 18266760029086497208
17539 30 17185588019154890886
17980427 26 17982208640348192281
1813 80 17842557340568934159
18219364 16 18191885610876068824
18915476 22 18336554892924926593
19319366 153 18129646634426223815
19930381 70 18408882940995838189
20101258 96 17618517475833980202
21304303 282 17263238184550852196
22182313 1 17604164687537017987
22907989 373 17256812720223873564
23419403 2 17752519527460481771
23559900 14 18196630940564403671
238 59 18408040714835370701
3886686 26 17910652574875493488
4409770 3 17474379653148469286
46194498 28 18189319218140979965
474 4 18340764939816761796
495365 180 18335973259537297961
497634 4 16541337440298886556
57527295 17 17607808292619209387
6442390 28 18049435139376001055
70251023 43 18265612083576767085
7471813 234 18050567344147420374
81228 2 17179962930852550264

> <PUBCHEM_SHAPE_MULTIPOLES>
521.32
7.18
5.12
1.76
10.41
2.79
1.12
-2.23
-4.05
-9.18
-0.67
1.82
-0.23
-0.1

> <PUBCHEM_SHAPE_SELFOVERLAP>
1194.84

> <PUBCHEM_SHAPE_VOLUME>
269.1

> <PUBCHEM_COORDINATE_TYPE>
2
5
10

$$$$
