132274385
  -OEChem-03292013293D

 50 53  0     0  0  0  0  0  0999 V2000
    1.8845    0.0440   -0.8013 O   0  0  0  0  0  0  0  0  0  0  0  0
   -2.2432    2.0057   -1.4935 O   0  0  0  0  0  0  0  0  0  0  0  0
   -5.8214    1.2061    1.4345 O   0  0  0  0  0  0  0  0  0  0  0  0
   -1.3571   -0.7767   -0.8113 N   0  0  0  0  0  0  0  0  0  0  0  0
   -4.2629   -0.4869    1.1229 N   0  0  0  0  0  0  0  0  0  0  0  0
   -4.0412    1.6289   -0.0345 N   0  0  0  0  0  0  0  0  0  0  0  0
   -2.4708   -2.0915    0.6033 N   0  0  0  0  0  0  0  0  0  0  0  0
   -0.4652   -2.9223   -0.4343 N   0  0  0  0  0  0  0  0  0  0  0  0
    0.5832    1.8635   -0.8320 N   0  0  0  0  0  0  0  0  0  0  0  0
    1.8004    2.2180   -0.2807 N   0  0  0  0  0  0  0  0  0  0  0  0
   -2.4339   -0.0536   -0.3848 C   0  0  0  0  0  0  0  0  0  0  0  0
   -3.0981   -0.8811    0.4789 C   0  0  0  0  0  0  0  0  0  0  0  0
   -1.4226   -1.9964   -0.1887 C   0  0  0  0  0  0  0  0  0  0  0  0
   -0.3416   -0.3359   -1.7416 C   0  0  0  0  0  0  0  0  0  0  0  0
   -2.8475    1.2715   -0.7159 C   0  0  0  0  0  0  0  0  0  0  0  0
   -4.7880    0.8080    0.8857 C   0  0  0  0  0  0  0  0  0  0  0  0
    0.6778    0.5866   -1.1210 C   0  0  0  0  0  0  0  0  0  0  0  0
   -4.9338   -1.4057    2.0345 C   0  0  0  0  0  0  0  0  0  0  0  0
   -4.5461    2.9707   -0.3091 C   0  0  0  0  0  0  0  0  0  0  0  0
    0.7740   -3.0093    0.3677 C   0  0  0  0  0  0  0  0  0  0  0  0
   -0.5839   -3.9105   -1.5276 C   0  0  0  0  0  0  0  0  0  0  0  0
    2.5278    1.1254   -0.2825 C   0  0  0  0  0  0  0  0  0  0  0  0
    3.8703    0.9000    0.1687 C   0  0  0  0  0  0  0  0  0  0  0  0
    4.4386   -0.3694    0.0616 C   0  0  0  0  0  0  0  0  0  0  0  0
    4.6079    1.9505    0.7148 C   0  0  0  0  0  0  0  0  0  0  0  0
    5.7445   -0.5883    0.5002 C   0  0  0  0  0  0  0  0  0  0  0  0
    5.9137    1.7316    1.1537 C   0  0  0  0  0  0  0  0  0  0  0  0
    6.4822    0.4623    1.0463 C   0  0  0  0  0  0  0  0  0  0  0  0
    6.3529   -1.9453    0.3861 C   0  0  0  0  0  0  0  0  0  0  0  0
   -0.8447    0.1730   -2.5710 H   0  0  0  0  0  0  0  0  0  0  0  0
    0.1581   -1.2045   -2.1806 H   0  0  0  0  0  0  0  0  0  0  0  0
   -4.2469   -1.6669    2.8454 H   0  0  0  0  0  0  0  0  0  0  0  0
   -5.2163   -2.3089    1.4849 H   0  0  0  0  0  0  0  0  0  0  0  0
   -5.8337   -0.9593    2.4651 H   0  0  0  0  0  0  0  0  0  0  0  0
   -3.7752    3.6984   -0.0358 H   0  0  0  0  0  0  0  0  0  0  0  0
   -5.4635    3.1953    0.2390 H   0  0  0  0  0  0  0  0  0  0  0  0
   -4.7366    3.0608   -1.3835 H   0  0  0  0  0  0  0  0  0  0  0  0
    1.6493   -2.9053   -0.2811 H   0  0  0  0  0  0  0  0  0  0  0  0
    0.2716   -3.8269   -2.2053 H   0  0  0  0  0  0  0  0  0  0  0  0
   -1.4993   -3.7514   -2.1078 H   0  0  0  0  0  0  0  0  0  0  0  0
   -0.6107   -4.9227   -1.1122 H   0  0  0  0  0  0  0  0  0  0  0  0
    0.8209   -3.9777    0.8755 H   0  0  0  0  0  0  0  0  0  0  0  0
    0.8119   -2.2199    1.1261 H   0  0  0  0  0  0  0  0  0  0  0  0
    3.8862   -1.2053   -0.3618 H   0  0  0  0  0  0  0  0  0  0  0  0
    4.1854    2.9481    0.8082 H   0  0  0  0  0  0  0  0  0  0  0  0
    6.4882    2.5496    1.5786 H   0  0  0  0  0  0  0  0  0  0  0  0
    7.5011    0.3058    1.3902 H   0  0  0  0  0  0  0  0  0  0  0  0
    5.6070   -2.7256    0.5724 H   0  0  0  0  0  0  0  0  0  0  0  0
    6.7696   -2.0870   -0.6160 H   0  0  0  0  0  0  0  0  0  0  0  0
    7.1540   -2.0866    1.1195 H   0  0  0  0  0  0  0  0  0  0  0  0
  1 17  1  0  0  0  0
  1 22  1  0  0  0  0
  2 15  2  0  0  0  0
  3 16  2  0  0  0  0
  4 11  1  0  0  0  0
  4 13  1  0  0  0  0
  4 14  1  0  0  0  0
  5 12  1  0  0  0  0
  5 16  1  0  0  0  0
  5 18  1  0  0  0  0
  6 15  1  0  0  0  0
  6 16  1  0  0  0  0
  6 19  1  0  0  0  0
  7 12  1  0  0  0  0
  7 13  2  0  0  0  0
  8 13  1  0  0  0  0
  8 20  1  0  0  0  0
  8 21  1  0  0  0  0
  9 10  1  0  0  0  0
  9 17  2  0  0  0  0
 10 22  2  0  0  0  0
 11 12  2  0  0  0  0
 11 15  1  0  0  0  0
 14 17  1  0  0  0  0
 14 30  1  0  0  0  0
 14 31  1  0  0  0  0
 18 32  1  0  0  0  0
 18 33  1  0  0  0  0
 18 34  1  0  0  0  0
 19 35  1  0  0  0  0
 19 36  1  0  0  0  0
 19 37  1  0  0  0  0
 20 38  1  0  0  0  0
 20 42  1  0  0  0  0
 20 43  1  0  0  0  0
 21 39  1  0  0  0  0
 21 40  1  0  0  0  0
 21 41  1  0  0  0  0
 22 23  1  0  0  0  0
 23 24  1  0  0  0  0
 23 25  2  0  0  0  0
 24 26  2  0  0  0  0
 24 44  1  0  0  0  0
 25 27  1  0  0  0  0
 25 45  1  0  0  0  0
 26 28  1  0  0  0  0
 26 29  1  0  0  0  0
 27 28  2  0  0  0  0
 27 46  1  0  0  0  0
 28 47  1  0  0  0  0
 29 48  1  0  0  0  0
 29 49  1  0  0  0  0
 29 50  1  0  0  0  0
M  END
> <PUBCHEM_COMPOUND_CID>
132274385

> <PUBCHEM_CONFORMER_RMSD>
0.8

> <PUBCHEM_CONFORMER_DIVERSEORDER>
5
37
43
12
35
34
30
24
4
33
27
44
38
9
39
13
16
10
25
32
28
41
7
36
21
18
40
15
19
11
1
42
14
22
8
31
3
6
17
20
2
23
29
26

> <PUBCHEM_MMFF94_PARTIAL_CHARGES>
33
1 -0.28
10 -0.34
11 -0.24
12 0.29
13 0.27
14 0.44
15 0.71
16 0.69
17 0.3
18 0.3
19 0.3
2 -0.57
20 0.37
21 0.37
22 0.43
23 0.05
24 -0.15
25 -0.15
26 -0.14
27 -0.15
28 -0.15
29 0.14
3 -0.57
4 0.05
44 0.15
45 0.15
46 0.15
47 0.15
5 -0.42
6 -0.42
7 -0.57
8 -0.82
9 -0.34

> <PUBCHEM_EFFECTIVE_ROTOR_COUNT>
4

> <PUBCHEM_PHARMACOPHORE_FEATURES>
7
1 2 acceptor
1 3 acceptor
4 4 7 8 13 cation
5 1 9 10 17 22 rings
5 4 7 11 12 13 rings
6 23 24 25 26 27 28 rings
6 5 6 11 12 15 16 rings

> <PUBCHEM_HEAVY_ATOM_COUNT>
29

> <PUBCHEM_ATOM_DEF_STEREO_COUNT>
0

> <PUBCHEM_ATOM_UDEF_STEREO_COUNT>
0

> <PUBCHEM_BOND_DEF_STEREO_COUNT>
0

> <PUBCHEM_BOND_UDEF_STEREO_COUNT>
0

> <PUBCHEM_ISOTOPIC_ATOM_COUNT>
0

> <PUBCHEM_COMPONENT_COUNT>
1

> <PUBCHEM_CACTVS_TAUTO_COUNT>
8

> <PUBCHEM_CONFORMER_ID>
07E258D100000005

> <PUBCHEM_MMFF94_ENERGY>
71.006

> <PUBCHEM_FEATURE_SELFOVERLAP>
35.638

> <PUBCHEM_SHAPE_FINGERPRINT>
10319926 262 18261967287939483523
10498660 4 10592050171989735926
10692045 39 17917160407415666510
10928967 22 16371270217368079096
11370993 144 18341043090994914652
11552529 35 17771334564204748710
12107183 9 18341330020611837514
12166972 35 12391504317670033872
12293681 160 10519716565846535183
12422481 6 18187370904267663098
12633257 1 18270407229320196052
12925494 130 18192146001947948785
13004483 165 17409080744086067191
14341114 176 18409729556654891336
14420673 8 18188210892971773938
14466204 15 18411984632890281145
15064986 96 18269274564793039242
15209289 33 17458341983134803512
15420108 30 18342450396948456135
15537594 2 16805598132209531648
16110190 28 18261394485642730932
16994733 274 15482407361175045987
17913733 40 18272380728581159763
1813 80 16660360398796530676
21033648 29 18272665544694377389
21403212 168 18411695452968646395
22122407 14 16343420730366729904
23559900 14 18119831130504503151
2838139 119 15841552955366826074
3117164 225 18412261774740712864
392239 28 18130240340946121161
4280585 95 10231754448946381046
5104073 3 18334845148439560912
5265222 85 18264502827011101366
5385378 56 18198635341128852131
5924683 9 18057032734559377262
7226269 152 17917992776340807608
9981440 41 18412268303227834795

> <PUBCHEM_SHAPE_MULTIPOLES>
544.33
14.67
3.56
1.42
13.72
2.24
-0.07
-5.07
-8.43
-1.31
0.75
-1.21
0.22
0.93

> <PUBCHEM_SHAPE_SELFOVERLAP>
1187.636

> <PUBCHEM_SHAPE_VOLUME>
294.8

> <PUBCHEM_COORDINATE_TYPE>
2
5
10

$$$$
