132293
  -OEChem-03292013323D

 46 47  0     1  0  0  0  0  0999 V2000
    1.8604    2.2632    0.7324 S   0  0  0  0  0  0  0  0  0  0  0  0
    3.4739   -2.0176    0.3346 O   0  0  0  0  0  0  0  0  0  0  0  0
    0.0374   -1.4301   -0.7230 O   0  0  0  0  0  0  0  0  0  0  0  0
    1.0416   -4.0912   -1.1885 O   0  0  0  0  0  0  0  0  0  0  0  0
    2.7017    3.1002   -0.1017 O   0  0  0  0  0  0  0  0  0  0  0  0
    1.6260    2.6164    2.1195 O   0  0  0  0  0  0  0  0  0  0  0  0
   -0.6216   -5.3359    0.6071 O   0  0  0  0  0  0  0  0  0  0  0  0
    4.7332    1.1001   -0.4904 O   0  0  0  0  0  0  0  0  0  0  0  0
    2.4127    0.6582    0.6607 N   0  0  0  0  0  0  0  0  0  0  0  0
   -4.3774    0.6957   -0.1698 N   0  0  0  0  0  0  0  0  0  0  0  0
   -4.4839   -0.3220   -0.8852 N   0  3  0  0  0  0  0  0  0  0  0  0
   -4.5914   -1.2492   -1.5421 N   0  5  0  0  0  0  0  0  0  0  0  0
    2.4289   -1.5288   -0.5184 C   0  0  1  0  0  0  0  0  0  0  0  0
    1.0850   -2.0085    0.0680 C   0  0  2  0  0  0  0  0  0  0  0  0
    2.5758   -0.0083   -0.6520 C   0  0  2  0  0  0  0  0  0  0  0  0
    0.8894   -3.5330    0.1178 C   0  0  1  0  0  0  0  0  0  0  0  0
    0.2765    2.1384   -0.0425 C   0  0  0  0  0  0  0  0  0  0  0  0
   -0.5026   -3.9165    0.6189 C   0  0  0  0  0  0  0  0  0  0  0  0
    3.9444    0.4195   -1.1386 C   0  0  0  0  0  0  0  0  0  0  0  0
   -0.8046    1.4859    0.5594 C   0  0  0  0  0  0  0  0  0  0  0  0
   -2.0402    1.4315   -0.1285 C   0  0  0  0  0  0  0  0  0  0  0  0
    0.1597    2.7299   -1.2955 C   0  0  0  0  0  0  0  0  0  0  0  0
   -0.6958    0.8860    1.8246 C   0  0  0  0  0  0  0  0  0  0  0  0
   -2.1491    2.0317   -1.3935 C   0  0  0  0  0  0  0  0  0  0  0  0
   -1.0554    2.6764   -1.9720 C   0  0  0  0  0  0  0  0  0  0  0  0
   -3.1306    0.7785    0.4691 C   0  0  0  0  0  0  0  0  0  0  0  0
   -1.7896    0.2416    2.4032 C   0  0  0  0  0  0  0  0  0  0  0  0
   -3.0047    0.1879    1.7267 C   0  0  0  0  0  0  0  0  0  0  0  0
    2.5865   -1.9661   -1.5122 H   0  0  0  0  0  0  0  0  0  0  0  0
    0.9713   -1.6279    1.0893 H   0  0  0  0  0  0  0  0  0  0  0  0
    1.8472    0.3670   -1.3751 H   0  0  0  0  0  0  0  0  0  0  0  0
    1.6517   -3.9959    0.7541 H   0  0  0  0  0  0  0  0  0  0  0  0
    2.4885    0.0859    1.5095 H   0  0  0  0  0  0  0  0  0  0  0  0
   -1.2878   -3.5321   -0.0392 H   0  0  0  0  0  0  0  0  0  0  0  0
   -0.6828   -3.5528    1.6351 H   0  0  0  0  0  0  0  0  0  0  0  0
    4.2077    0.0758   -2.1541 H   0  0  0  0  0  0  0  0  0  0  0  0
    3.5317   -2.9795    0.2081 H   0  0  0  0  0  0  0  0  0  0  0  0
    0.1151   -1.7928   -1.6221 H   0  0  0  0  0  0  0  0  0  0  0  0
    0.9868    3.2368   -1.7822 H   0  0  0  0  0  0  0  0  0  0  0  0
    0.9163   -5.0526   -1.1121 H   0  0  0  0  0  0  0  0  0  0  0  0
    0.2207    0.8427    2.3985 H   0  0  0  0  0  0  0  0  0  0  0  0
   -3.0811    2.0161   -1.9536 H   0  0  0  0  0  0  0  0  0  0  0  0
   -1.1529    3.1363   -2.9511 H   0  0  0  0  0  0  0  0  0  0  0  0
   -1.6902   -0.2280    3.3775 H   0  0  0  0  0  0  0  0  0  0  0  0
   -3.8486   -0.3188    2.1882 H   0  0  0  0  0  0  0  0  0  0  0  0
    0.0534   -5.6905    1.2106 H   0  0  0  0  0  0  0  0  0  0  0  0
  1  5  2  0  0  0  0
  1  6  2  0  0  0  0
  1  9  1  0  0  0  0
  1 17  1  0  0  0  0
  2 13  1  0  0  0  0
  2 37  1  0  0  0  0
  3 14  1  0  0  0  0
  3 38  1  0  0  0  0
  4 16  1  0  0  0  0
  4 40  1  0  0  0  0
  7 18  1  0  0  0  0
  7 46  1  0  0  0  0
  8 19  2  0  0  0  0
  9 15  1  0  0  0  0
  9 33  1  0  0  0  0
 10 11  2  0  0  0  0
 10 26  1  0  0  0  0
 11 12  2  0  0  0  0
 13 14  1  0  0  0  0
 13 15  1  0  0  0  0
 13 29  1  0  0  0  0
 14 16  1  0  0  0  0
 14 30  1  0  0  0  0
 15 19  1  0  0  0  0
 15 31  1  0  0  0  0
 16 18  1  0  0  0  0
 16 32  1  0  0  0  0
 17 20  1  0  0  0  0
 17 22  2  0  0  0  0
 18 34  1  0  0  0  0
 18 35  1  0  0  0  0
 19 36  1  0  0  0  0
 20 21  2  0  0  0  0
 20 23  1  0  0  0  0
 21 24  1  0  0  0  0
 21 26  1  0  0  0  0
 22 25  1  0  0  0  0
 22 39  1  0  0  0  0
 23 27  2  0  0  0  0
 23 41  1  0  0  0  0
 24 25  2  0  0  0  0
 24 42  1  0  0  0  0
 25 43  1  0  0  0  0
 26 28  2  0  0  0  0
 27 28  1  0  0  0  0
 27 44  1  0  0  0  0
 28 45  1  0  0  0  0
M  CHG  2  11   1  12  -1
M  END
> <PUBCHEM_COMPOUND_CID>
132293

> <PUBCHEM_CONFORMER_RMSD>
1

> <PUBCHEM_CONFORMER_DIVERSEORDER>
1
145
115
72
15
56
79
159
67
36
133
149
94
20
123
7
69
57
105
74
138
114
104
83
137
35
122
160
37
112
85
58
32
126
45
131
148
124
40
106
118
75
11
71
141
146
116
27
65
128
100
63
26
87
50
119
90
89
28
143
121
84
46
21
86
76
150
31
14
55
157
73
3
8
29
61
54
49
111
25
53
113
12
30
70
13
4
103
120
44
51
163
88
19
60
136
108
156
135
48
24
95
97
129
99
132
64
127
152
107
23
52
2
66
162
98
102
41
155
147
22
153
5
39
96
59
33
125
82
38
110
140
9
81
80
91
42
142
10
158
151
62
77
130
34
18
139
92
144
6
68
43
47
161
16
134
93
78
109
154
101
117
17

> <PUBCHEM_MMFF94_PARTIAL_CHARGES>
38
1 1.45
10 -0.5
11 0.69
12 -0.37
13 0.28
14 0.28
15 0.42
16 0.28
17 -0.01
18 0.28
19 0.45
2 -0.68
22 -0.15
23 -0.15
24 -0.15
25 -0.15
26 0.18
27 -0.15
28 -0.15
3 -0.68
33 0.42
36 0.06
37 0.4
38 0.4
39 0.15
4 -0.68
40 0.4
41 0.15
42 0.15
43 0.15
44 0.15
45 0.15
46 0.4
5 -0.65
6 -0.65
7 -0.68
8 -0.57
9 -0.91

> <PUBCHEM_EFFECTIVE_ROTOR_COUNT>
9

> <PUBCHEM_PHARMACOPHORE_FEATURES>
14
1 2 acceptor
1 2 donor
1 3 acceptor
1 3 donor
1 4 acceptor
1 4 donor
1 5 acceptor
1 6 acceptor
1 7 acceptor
1 7 donor
1 8 acceptor
1 9 donor
6 17 20 21 22 24 25 rings
6 20 21 23 26 27 28 rings

> <PUBCHEM_HEAVY_ATOM_COUNT>
28

> <PUBCHEM_ATOM_DEF_STEREO_COUNT>
4

> <PUBCHEM_ATOM_UDEF_STEREO_COUNT>
0

> <PUBCHEM_BOND_DEF_STEREO_COUNT>
0

> <PUBCHEM_BOND_UDEF_STEREO_COUNT>
0

> <PUBCHEM_ISOTOPIC_ATOM_COUNT>
0

> <PUBCHEM_COMPONENT_COUNT>
1

> <PUBCHEM_CACTVS_TAUTO_COUNT>
2

> <PUBCHEM_CONFORMER_ID>
000204C500000001

> <PUBCHEM_MMFF94_ENERGY>
64.2366

> <PUBCHEM_FEATURE_SELFOVERLAP>
71.116

> <PUBCHEM_SHAPE_FINGERPRINT>
10064457 181 17982201042472002520
104564 63 17332531675192013800
11578080 2 13555948905567419572
11796584 16 17703789254460592437
12596599 1 17631185090556332583
128993 33 9363058946298082314
1361 2 18263076764350465397
14659021 117 16100778979177445074
14787075 74 17988932214324495760
15210252 30 15885475537187883983
17093844 170 17907281501529580663
17138139 8 17485628666496859319
17492 54 18261393385735178767
19930381 70 18192711150813413933
21285901 2 17895478008177630141
23559900 14 17685207275205161942
238 59 18334011674810493042
3052486 1 17973440202968302660
463206 1 18267021644361868867
66674814 147 17977074054443724399
70251023 43 17763195639612189619
9709674 26 17755311071355867686

> <PUBCHEM_SHAPE_MULTIPOLES>
519.07
6.57
5.35
1.81
1.69
7.13
0.5
-0.31
-1.83
-2.54
-0.44
1.16
-0.78
0.41

> <PUBCHEM_SHAPE_SELFOVERLAP>
1085.495

> <PUBCHEM_SHAPE_VOLUME>
292

> <PUBCHEM_COORDINATE_TYPE>
2
5
10

$$$$
