132246
  -OEChem-03292013323D

 63 65  0     1  0  0  0  0  0999 V2000
    3.9373    2.3907    1.1269 O   0  0  0  0  0  0  0  0  0  0  0  0
    6.6555   -0.3053   -2.1522 O   0  0  0  0  0  0  0  0  0  0  0  0
    4.5254   -0.0813   -2.9024 O   0  0  0  0  0  0  0  0  0  0  0  0
    4.0929   -4.3232    0.9881 O   0  0  0  0  0  0  0  0  0  0  0  0
    5.5523   -3.0747    2.1958 O   0  0  0  0  0  0  0  0  0  0  0  0
   -2.0720   -1.2687    1.3826 N   0  0  0  0  0  0  0  0  0  0  0  0
    3.6420    0.7802   -0.5158 N   0  0  0  0  0  0  0  0  0  0  0  0
   -2.7898   -3.2606    0.4453 N   0  0  0  0  0  0  0  0  0  0  0  0
   -4.6624   -3.3370   -1.0670 N   0  0  0  0  0  0  0  0  0  0  0  0
   -5.8210   -1.4074   -1.6420 N   0  0  0  0  0  0  0  0  0  0  0  0
   -3.5039   -5.2897   -0.4943 N   0  0  0  0  0  0  0  0  0  0  0  0
   -2.3898    3.1191    0.0718 C   0  0  1  0  0  0  0  0  0  0  0  0
   -3.2492    2.3115    1.0939 C   0  0  0  0  0  0  0  0  0  0  0  0
   -2.6764    4.6369    0.2744 C   0  0  0  0  0  0  0  0  0  0  0  0
   -0.9404    2.7751    0.1390 C   0  0  0  0  0  0  0  0  0  0  0  0
   -3.1792    0.8176    0.8765 C   0  0  0  0  0  0  0  0  0  0  0  0
   -4.0560    0.1363    0.0507 C   0  0  0  0  0  0  0  0  0  0  0  0
   -1.9981    5.5096   -0.7754 C   0  0  0  0  0  0  0  0  0  0  0  0
   -0.2994    2.2332   -0.9750 C   0  0  0  0  0  0  0  0  0  0  0  0
   -0.2255    2.9966    1.3161 C   0  0  0  0  0  0  0  0  0  0  0  0
   -3.9284   -1.2524   -0.1000 C   0  0  0  0  0  0  0  0  0  0  0  0
   -2.2111    0.0725    1.5155 C   0  0  0  0  0  0  0  0  0  0  0  0
    1.7717    2.1342    0.2651 C   0  0  0  0  0  0  0  0  0  0  0  0
    1.0567    1.9129   -0.9119 C   0  0  0  0  0  0  0  0  0  0  0  0
    1.1305    2.6762    1.3791 C   0  0  0  0  0  0  0  0  0  0  0  0
   -5.1023    0.9605   -0.6360 C   0  0  0  0  0  0  0  0  0  0  0  0
   -2.9169   -1.9362    0.5848 C   0  0  0  0  0  0  0  0  0  0  0  0
    5.0069    0.3193   -0.5488 C   0  0  1  0  0  0  0  0  0  0  0  0
    3.2159    1.7927    0.3327 C   0  0  0  0  0  0  0  0  0  0  0  0
    5.2759   -0.8084    0.4550 C   0  0  0  0  0  0  0  0  0  0  0  0
   -4.7714   -2.0070   -0.9120 C   0  0  0  0  0  0  0  0  0  0  0  0
    4.4843   -2.1035    0.2331 C   0  0  0  0  0  0  0  0  0  0  0  0
    5.3322   -0.0477   -1.9822 C   0  0  0  0  0  0  0  0  0  0  0  0
   -3.6624   -3.8921   -0.3679 C   0  0  0  0  0  0  0  0  0  0  0  0
    4.7761   -3.1797    1.2564 C   0  0  0  0  0  0  0  0  0  0  0  0
   -2.7607    2.8682   -0.9320 H   0  0  0  0  0  0  0  0  0  0  0  0
   -4.2849    2.6673    1.1278 H   0  0  0  0  0  0  0  0  0  0  0  0
   -2.8934    2.5190    2.1137 H   0  0  0  0  0  0  0  0  0  0  0  0
   -2.3607    4.9634    1.2723 H   0  0  0  0  0  0  0  0  0  0  0  0
   -3.7585    4.8075    0.2141 H   0  0  0  0  0  0  0  0  0  0  0  0
   -2.2979    6.5542   -0.6432 H   0  0  0  0  0  0  0  0  0  0  0  0
   -2.2840    5.2016   -1.7861 H   0  0  0  0  0  0  0  0  0  0  0  0
   -0.9079    5.4658   -0.6945 H   0  0  0  0  0  0  0  0  0  0  0  0
   -0.8405    2.0604   -1.9016 H   0  0  0  0  0  0  0  0  0  0  0  0
   -0.7030    3.4200    2.1953 H   0  0  0  0  0  0  0  0  0  0  0  0
   -1.4952    0.5234    2.1948 H   0  0  0  0  0  0  0  0  0  0  0  0
    1.5238    1.5222   -1.8110 H   0  0  0  0  0  0  0  0  0  0  0  0
    1.6693    2.8524    2.3064 H   0  0  0  0  0  0  0  0  0  0  0  0
   -5.1255    0.7659   -1.7123 H   0  0  0  0  0  0  0  0  0  0  0  0
   -4.9233    2.0369   -0.6297 H   0  0  0  0  0  0  0  0  0  0  0  0
   -6.0800    0.8225   -0.1642 H   0  0  0  0  0  0  0  0  0  0  0  0
    5.6461    1.1742   -0.2931 H   0  0  0  0  0  0  0  0  0  0  0  0
    5.0642   -0.4401    1.4676 H   0  0  0  0  0  0  0  0  0  0  0  0
    6.3465   -1.0510    0.4412 H   0  0  0  0  0  0  0  0  0  0  0  0
    2.9721    0.2754   -1.0868 H   0  0  0  0  0  0  0  0  0  0  0  0
    3.4103   -1.8913    0.2764 H   0  0  0  0  0  0  0  0  0  0  0  0
    4.7224   -2.5132   -0.7546 H   0  0  0  0  0  0  0  0  0  0  0  0
   -6.2772   -2.0367   -2.2954 H   0  0  0  0  0  0  0  0  0  0  0  0
   -6.4794   -0.8506   -1.1128 H   0  0  0  0  0  0  0  0  0  0  0  0
   -4.1324   -5.8091   -1.0914 H   0  0  0  0  0  0  0  0  0  0  0  0
   -2.7637   -5.7538    0.0137 H   0  0  0  0  0  0  0  0  0  0  0  0
    6.8678   -0.5271   -3.0838 H   0  0  0  0  0  0  0  0  0  0  0  0
    4.2929   -5.0295    1.6388 H   0  0  0  0  0  0  0  0  0  0  0  0
  1 29  2  0  0  0  0
  2 33  1  0  0  0  0
  2 62  1  0  0  0  0
  3 33  2  0  0  0  0
  4 35  1  0  0  0  0
  4 63  1  0  0  0  0
  5 35  2  0  0  0  0
  6 22  1  0  0  0  0
  6 27  2  0  0  0  0
  7 28  1  0  0  0  0
  7 29  1  0  0  0  0
  7 55  1  0  0  0  0
  8 27  1  0  0  0  0
  8 34  2  0  0  0  0
  9 31  2  0  0  0  0
  9 34  1  0  0  0  0
 10 31  1  0  0  0  0
 10 58  1  0  0  0  0
 10 59  1  0  0  0  0
 11 34  1  0  0  0  0
 11 60  1  0  0  0  0
 11 61  1  0  0  0  0
 12 13  1  0  0  0  0
 12 14  1  0  0  0  0
 12 15  1  0  0  0  0
 12 36  1  0  0  0  0
 13 16  1  0  0  0  0
 13 37  1  0  0  0  0
 13 38  1  0  0  0  0
 14 18  1  0  0  0  0
 14 39  1  0  0  0  0
 14 40  1  0  0  0  0
 15 19  2  0  0  0  0
 15 20  1  0  0  0  0
 16 17  1  0  0  0  0
 16 22  2  0  0  0  0
 17 21  2  0  0  0  0
 17 26  1  0  0  0  0
 18 41  1  0  0  0  0
 18 42  1  0  0  0  0
 18 43  1  0  0  0  0
 19 24  1  0  0  0  0
 19 44  1  0  0  0  0
 20 25  2  0  0  0  0
 20 45  1  0  0  0  0
 21 27  1  0  0  0  0
 21 31  1  0  0  0  0
 22 46  1  0  0  0  0
 23 24  2  0  0  0  0
 23 25  1  0  0  0  0
 23 29  1  0  0  0  0
 24 47  1  0  0  0  0
 25 48  1  0  0  0  0
 26 49  1  0  0  0  0
 26 50  1  0  0  0  0
 26 51  1  0  0  0  0
 28 30  1  0  0  0  0
 28 33  1  0  0  0  0
 28 52  1  0  0  0  0
 30 32  1  0  0  0  0
 30 53  1  0  0  0  0
 30 54  1  0  0  0  0
 32 35  1  0  0  0  0
 32 56  1  0  0  0  0
 32 57  1  0  0  0  0
M  END
> <PUBCHEM_COMPOUND_CID>
132246

> <PUBCHEM_CONFORMER_RMSD>
1

> <PUBCHEM_CONFORMER_DIVERSEORDER>
1
125
55
102
145
101
82
137
118
18
36
98
99
62
15
78
97
109
77
156
64
58
9
151
104
153
85
149
129
69
96
116
88
51
44
21
150
67
139
148
152
95
124
40
113
143
81
91
11
87
159
114
138
134
128
133
86
146
22
7
31
63
45
30
131
123
50
155
83
115
68
46
140
141
107
132
59
100
12
75
93
130
89
70
28
37
41
65
94
23
161
144
121
117
17
122
43
61
157
35
126
106
14
34
127
54
71
53
142
39
120
112
47
48
136
84
52
80
105
103
25
60
42
27
92
57
79
110
74
38
111
10
160
90
3
24
72
119
66
26
76
16
8
49
158
147
154
19
29
20
5
135
32
73
13
33
56
4
108
6
2

> <PUBCHEM_MMFF94_PARTIAL_CHARGES>
43
1 -0.57
10 -0.9
11 -0.9
12 0.14
13 0.14
15 -0.14
16 -0.14
17 -0.14
19 -0.15
2 -0.65
20 -0.15
22 0.16
23 0.09
24 -0.15
25 -0.15
26 0.14
27 0.62
28 0.36
29 0.54
3 -0.57
31 0.41
32 0.06
33 0.66
34 0.72
35 0.66
4 -0.65
44 0.15
45 0.15
46 0.15
47 0.15
48 0.15
5 -0.57
55 0.37
58 0.4
59 0.4
6 -0.62
60 0.4
61 0.4
62 0.5
63 0.5
7 -0.73
8 -0.62
9 -0.62

> <PUBCHEM_EFFECTIVE_ROTOR_COUNT>
11

> <PUBCHEM_PHARMACOPHORE_FEATURES>
15
1 1 acceptor
1 10 donor
1 11 donor
1 18 hydrophobe
1 2 acceptor
1 3 acceptor
1 4 acceptor
1 5 acceptor
1 7 donor
3 2 3 33 anion
3 4 5 35 anion
4 8 9 11 34 cation
6 15 19 20 23 24 25 rings
6 6 16 17 21 22 27 rings
6 8 9 21 27 31 34 rings

> <PUBCHEM_HEAVY_ATOM_COUNT>
35

> <PUBCHEM_ATOM_DEF_STEREO_COUNT>
1

> <PUBCHEM_ATOM_UDEF_STEREO_COUNT>
1

> <PUBCHEM_BOND_DEF_STEREO_COUNT>
0

> <PUBCHEM_BOND_UDEF_STEREO_COUNT>
0

> <PUBCHEM_ISOTOPIC_ATOM_COUNT>
0

> <PUBCHEM_COMPONENT_COUNT>
1

> <PUBCHEM_CACTVS_TAUTO_COUNT>
24

> <PUBCHEM_CONFORMER_ID>
0002049600000001

> <PUBCHEM_MMFF94_ENERGY>
116.2033

> <PUBCHEM_FEATURE_SELFOVERLAP>
76.275

> <PUBCHEM_SHAPE_FINGERPRINT>
10483366 6 18338784634488654485
10622 236 18188204291575274826
10864689 126 17042326039396947238
10928967 22 18339381715750293298
12977781 61 17976218484326822568
1361 87 17342125627472798748
13690498 29 18337691753414969396
14347332 77 18410568462145476561
15001296 14 18412823612144422474
15250474 111 18334860472697781848
16628084 112 18262238807793899579
17138139 8 18335712663198070290
19958102 18 18262787480997168933
20764821 26 17908155278282297574
20775530 9 18341342196279528275
21133410 171 17906688748593241042
21703447 108 18270955877470878704
23559900 14 17980470489275788025
23572383 38 18127123306626616769
4017518 198 17618212910717213558
4435113 14 17559419988518786076
463206 1 18265054815801885515
50080093 196 16112038678404746870
508706 21 18200607916122365372
57591035 28 14584530102417587988
613672 6 18122336045863219785
7970288 3 18267297828006812465

> <PUBCHEM_SHAPE_MULTIPOLES>
661.05
14.54
7.22
1.76
16.07
1.54
0.54
12.61
4.14
-6.18
-0.61
2.27
0.34
-2.76

> <PUBCHEM_SHAPE_SELFOVERLAP>
1413.205

> <PUBCHEM_SHAPE_VOLUME>
362.5

> <PUBCHEM_COORDINATE_TYPE>
2
5
10

$$$$
