132283
  -OEChem-03292013323D

 59 61  0     1  0  0  0  0  0999 V2000
    1.3677    0.1959   -2.3197 O   0  0  0  0  0  0  0  0  0  0  0  0
   -0.8919   -0.5366    1.8824 O   0  0  0  0  0  0  0  0  0  0  0  0
    1.6524   -2.0518   -2.2434 O   0  0  0  0  0  0  0  0  0  0  0  0
   -4.3353    5.2518    1.2581 O   0  0  0  0  0  0  0  0  0  0  0  0
   -4.6508    5.4509   -0.9840 O   0  0  0  0  0  0  0  0  0  0  0  0
    1.2302   -1.9564    0.4829 N   0  0  0  0  0  0  0  0  0  0  0  0
   -1.3994   -0.0665   -0.3600 N   0  0  0  0  0  0  0  0  0  0  0  0
    1.7967   -0.7755   -0.1748 C   0  0  1  0  0  0  0  0  0  0  0  0
   -0.1841   -2.0857    0.1737 C   0  0  1  0  0  0  0  0  0  0  0  0
    3.2834   -0.6582    0.1889 C   0  0  0  0  0  0  0  0  0  0  0  0
   -0.7707   -3.3383    0.8439 C   0  0  0  0  0  0  0  0  0  0  0  0
    3.9947    0.5589   -0.4230 C   0  0  0  0  0  0  0  0  0  0  0  0
   -0.8712   -0.8172    0.6866 C   0  0  0  0  0  0  0  0  0  0  0  0
   -2.2370   -3.5374    0.5398 C   0  0  0  0  0  0  0  0  0  0  0  0
    1.6123   -0.9703   -1.6696 C   0  0  0  0  0  0  0  0  0  0  0  0
    5.4358    0.7174   -0.0043 C   0  0  0  0  0  0  0  0  0  0  0  0
   -3.1859   -2.9702    1.3749 C   0  0  0  0  0  0  0  0  0  0  0  0
   -2.6049   -4.2828   -0.5685 C   0  0  0  0  0  0  0  0  0  0  0  0
    5.7378    1.4636    1.1242 C   0  0  0  0  0  0  0  0  0  0  0  0
    6.4324    0.1136   -0.7553 C   0  0  0  0  0  0  0  0  0  0  0  0
   -2.1004    1.1594   -0.2756 C   0  0  0  0  0  0  0  0  0  0  0  0
   -4.5398   -3.1537    1.0941 C   0  0  0  0  0  0  0  0  0  0  0  0
   -3.9588   -4.4662   -0.8493 C   0  0  0  0  0  0  0  0  0  0  0  0
    7.0699    1.6100    1.5113 C   0  0  0  0  0  0  0  0  0  0  0  0
    7.7644    0.2599   -0.3680 C   0  0  0  0  0  0  0  0  0  0  0  0
   -4.9263   -3.9016   -0.0180 C   0  0  0  0  0  0  0  0  0  0  0  0
    8.0830    1.0081    0.7654 C   0  0  0  0  0  0  0  0  0  0  0  0
   -2.5535    1.7620   -1.4377 C   0  0  0  0  0  0  0  0  0  0  0  0
   -2.3202    1.7308    0.9668 C   0  0  0  0  0  0  0  0  0  0  0  0
   -3.2456    2.9702   -1.3550 C   0  0  0  0  0  0  0  0  0  0  0  0
   -3.0124    2.9391    1.0495 C   0  0  0  0  0  0  0  0  0  0  0  0
   -3.4750    3.5587   -0.1115 C   0  0  0  0  0  0  0  0  0  0  0  0
   -4.1975    4.8179   -0.0248 C   0  0  0  0  0  0  0  0  0  0  0  0
    1.3038    0.1480    0.1459 H   0  0  0  0  0  0  0  0  0  0  0  0
   -0.3653   -2.2064   -0.8994 H   0  0  0  0  0  0  0  0  0  0  0  0
    3.8172   -1.5654   -0.1273 H   0  0  0  0  0  0  0  0  0  0  0  0
    3.3807   -0.6111    1.2822 H   0  0  0  0  0  0  0  0  0  0  0  0
    1.7319   -2.7956    0.1930 H   0  0  0  0  0  0  0  0  0  0  0  0
   -0.6374   -3.2918    1.9340 H   0  0  0  0  0  0  0  0  0  0  0  0
   -0.2154   -4.2300    0.5216 H   0  0  0  0  0  0  0  0  0  0  0  0
    3.4440    1.4719   -0.1600 H   0  0  0  0  0  0  0  0  0  0  0  0
    3.9560    0.5035   -1.5182 H   0  0  0  0  0  0  0  0  0  0  0  0
   -1.2840   -0.4238   -1.3054 H   0  0  0  0  0  0  0  0  0  0  0  0
   -2.9001   -2.3942    2.2497 H   0  0  0  0  0  0  0  0  0  0  0  0
   -1.8586   -4.7240   -1.2229 H   0  0  0  0  0  0  0  0  0  0  0  0
    4.9554    1.9341    1.7128 H   0  0  0  0  0  0  0  0  0  0  0  0
    6.1939   -0.4730   -1.6379 H   0  0  0  0  0  0  0  0  0  0  0  0
   -5.2932   -2.7158    1.7424 H   0  0  0  0  0  0  0  0  0  0  0  0
   -4.2599   -5.0480   -1.7156 H   0  0  0  0  0  0  0  0  0  0  0  0
    1.2377    0.0578   -3.2821 H   0  0  0  0  0  0  0  0  0  0  0  0
    7.3181    2.1920    2.3941 H   0  0  0  0  0  0  0  0  0  0  0  0
    8.5535   -0.2092   -0.9483 H   0  0  0  0  0  0  0  0  0  0  0  0
   -5.9805   -4.0446   -0.2365 H   0  0  0  0  0  0  0  0  0  0  0  0
    9.1202    1.1217    1.0670 H   0  0  0  0  0  0  0  0  0  0  0  0
   -2.3797    1.3119   -2.4112 H   0  0  0  0  0  0  0  0  0  0  0  0
   -1.9975    1.3128    1.9087 H   0  0  0  0  0  0  0  0  0  0  0  0
   -3.5979    3.4368   -2.2711 H   0  0  0  0  0  0  0  0  0  0  0  0
   -3.1705    3.3630    2.0374 H   0  0  0  0  0  0  0  0  0  0  0  0
   -4.8241    6.1010    1.3056 H   0  0  0  0  0  0  0  0  0  0  0  0
  1 15  1  0  0  0  0
  1 50  1  0  0  0  0
  2 13  2  0  0  0  0
  3 15  2  0  0  0  0
  4 33  1  0  0  0  0
  4 59  1  0  0  0  0
  5 33  2  0  0  0  0
  6  8  1  0  0  0  0
  6  9  1  0  0  0  0
  6 38  1  0  0  0  0
  7 13  1  0  0  0  0
  7 21  1  0  0  0  0
  7 43  1  0  0  0  0
  8 10  1  0  0  0  0
  8 15  1  0  0  0  0
  8 34  1  0  0  0  0
  9 11  1  0  0  0  0
  9 13  1  0  0  0  0
  9 35  1  0  0  0  0
 10 12  1  0  0  0  0
 10 36  1  0  0  0  0
 10 37  1  0  0  0  0
 11 14  1  0  0  0  0
 11 39  1  0  0  0  0
 11 40  1  0  0  0  0
 12 16  1  0  0  0  0
 12 41  1  0  0  0  0
 12 42  1  0  0  0  0
 14 17  2  0  0  0  0
 14 18  1  0  0  0  0
 16 19  2  0  0  0  0
 16 20  1  0  0  0  0
 17 22  1  0  0  0  0
 17 44  1  0  0  0  0
 18 23  2  0  0  0  0
 18 45  1  0  0  0  0
 19 24  1  0  0  0  0
 19 46  1  0  0  0  0
 20 25  2  0  0  0  0
 20 47  1  0  0  0  0
 21 28  2  0  0  0  0
 21 29  1  0  0  0  0
 22 26  2  0  0  0  0
 22 48  1  0  0  0  0
 23 26  1  0  0  0  0
 23 49  1  0  0  0  0
 24 27  2  0  0  0  0
 24 51  1  0  0  0  0
 25 27  1  0  0  0  0
 25 52  1  0  0  0  0
 26 53  1  0  0  0  0
 27 54  1  0  0  0  0
 28 30  1  0  0  0  0
 28 55  1  0  0  0  0
 29 31  2  0  0  0  0
 29 56  1  0  0  0  0
 30 32  2  0  0  0  0
 30 57  1  0  0  0  0
 31 32  1  0  0  0  0
 31 58  1  0  0  0  0
 32 33  1  0  0  0  0
M  END
> <PUBCHEM_COMPOUND_CID>
132283

> <PUBCHEM_CONFORMER_RMSD>
1.2

> <PUBCHEM_CONFORMER_DIVERSEORDER>
1
44
33
59
27
54
20
4
56
38
30
50
34
60
8
14
2
47
55
46
7
10
13
11
26
31
35
37
12
42
24
52
51
9
16
45
53
43
58
17
19
5
40
49
57
15
6
32
41
28
21
22
18
48
36
3
25
39
23
29

> <PUBCHEM_MMFF94_PARTIAL_CHARGES>
50
1 -0.65
11 0.14
12 0.14
13 0.57
14 -0.14
15 0.66
16 -0.14
17 -0.15
18 -0.15
19 -0.15
2 -0.57
20 -0.15
21 0.12
22 -0.15
23 -0.15
24 -0.15
25 -0.15
26 -0.15
27 -0.15
28 -0.15
29 -0.15
3 -0.57
30 -0.15
31 -0.15
32 0.09
33 0.63
38 0.36
4 -0.65
43 0.37
44 0.15
45 0.15
46 0.15
47 0.15
48 0.15
49 0.15
5 -0.57
50 0.5
51 0.15
52 0.15
53 0.15
54 0.15
55 0.15
56 0.15
57 0.15
58 0.15
59 0.5
6 -0.9
7 -0.55
8 0.33
9 0.33

> <PUBCHEM_EFFECTIVE_ROTOR_COUNT>
12

> <PUBCHEM_PHARMACOPHORE_FEATURES>
13
1 1 acceptor
1 2 acceptor
1 3 acceptor
1 4 acceptor
1 5 acceptor
1 6 cation
1 6 donor
1 7 donor
3 1 3 15 anion
3 4 5 33 anion
6 14 17 18 22 23 26 rings
6 16 19 20 24 25 27 rings
6 21 28 29 30 31 32 rings

> <PUBCHEM_HEAVY_ATOM_COUNT>
33

> <PUBCHEM_ATOM_DEF_STEREO_COUNT>
0

> <PUBCHEM_ATOM_UDEF_STEREO_COUNT>
2

> <PUBCHEM_BOND_DEF_STEREO_COUNT>
0

> <PUBCHEM_BOND_UDEF_STEREO_COUNT>
0

> <PUBCHEM_ISOTOPIC_ATOM_COUNT>
0

> <PUBCHEM_COMPONENT_COUNT>
1

> <PUBCHEM_CACTVS_TAUTO_COUNT>
3

> <PUBCHEM_CONFORMER_ID>
000204BB00000001

> <PUBCHEM_MMFF94_ENERGY>
90.4707

> <PUBCHEM_FEATURE_SELFOVERLAP>
66.089

> <PUBCHEM_SHAPE_FINGERPRINT>
10050765 1 18410291372784757234
10930396 42 17981022426695718842
10985338 15 18054815908906625633
11297750 10 18056471979054552920
12107183 9 18044644314417710322
12107698 1 18192428791643081224
12677640 9 18410013268856480501
12788726 201 18117860982157014447
12857493 111 18268706289227785745
12977781 61 17987536839664010142
13540713 4 18201173052905678598
14068700 675 17971749123777692126
14118638 360 18187075201146236210
14150022 121 18264484156556500740
14294032 229 18337404776600554633
14705955 166 18338508772553716712
15198563 99 18339076111710545999
15324884 4 17758437030532919211
15336146 87 18194407912858668204
15420108 30 18188204282853230602
15439362 3 18051129190631596814
16087824 20 18410292528763540147
16114785 44 18342181021405736361
18470217 77 18411983602356566916
20238998 120 18195243558616839683
21033648 29 18190191100644547588
21304303 282 18337101298664687671
2132832 1 17896885558969797772
23929065 36 18339353171223499112
24180151 40 18114444717477269499
244849 19 17916324783184410574
249057 25 17749391520765763236
255183 313 18267607787438882475
27425 322 17982729671753172853
283562 15 18334008432374799515
4394409 98 16238725473039981533
5969126 39 18267861855670536263
6677587 24 15872734963718724887
6695519 79 17979946842536685345

> <PUBCHEM_SHAPE_MULTIPOLES>
639.82
16.6
7.56
1.61
43.14
6.65
-0.38
5.36
3.06
-22.03
0.14
0.12
0.06
1.54

> <PUBCHEM_SHAPE_SELFOVERLAP>
1367.582

> <PUBCHEM_SHAPE_VOLUME>
351.4

> <PUBCHEM_COORDINATE_TYPE>
2
5
10

$$$$
