132221
  -OEChem-03292013323D

 21 20  0     1  0  0  0  0  0999 V2000
   -1.4543   -0.5910    1.5588 F   0  0  0  0  0  0  0  0  0  0  0  0
   -1.9919   -1.3452   -0.4064 F   0  0  0  0  0  0  0  0  0  0  0  0
    0.1241   -0.1310   -1.6250 O   0  0  0  0  0  0  0  0  0  0  0  0
    0.7791   -1.8261    1.4634 O   0  0  0  0  0  0  0  0  0  0  0  0
    1.1941   -2.3849   -0.6980 O   0  0  0  0  0  0  0  0  0  0  0  0
   -2.6823    0.9970   -1.2897 O   0  0  0  0  0  0  0  0  0  0  0  0
    2.8855    2.1515    0.5785 O   0  0  0  0  0  0  0  0  0  0  0  0
   -2.2036    1.9159    0.7330 O   0  0  0  0  0  0  0  0  0  0  0  0
    2.8661    0.3678   -0.8238 O   0  0  0  0  0  0  0  0  0  0  0  0
    0.0987   -0.2559   -0.2024 C   0  0  2  0  0  0  0  0  0  0  0  0
   -1.3814   -0.3039    0.2290 C   0  0  0  0  0  0  0  0  0  0  0  0
    0.8462    0.9358    0.4266 C   0  0  0  0  0  0  0  0  0  0  0  0
    0.7519   -1.5959    0.1263 C   0  0  0  0  0  0  0  0  0  0  0  0
   -2.1230    0.9827   -0.0547 C   0  0  0  0  0  0  0  0  0  0  0  0
    2.2910    1.0831   -0.0156 C   0  0  0  0  0  0  0  0  0  0  0  0
    0.3637    1.8743    0.1305 H   0  0  0  0  0  0  0  0  0  0  0  0
    0.8368    0.8573    1.5196 H   0  0  0  0  0  0  0  0  0  0  0  0
    1.0509   -0.1025   -1.9159 H   0  0  0  0  0  0  0  0  0  0  0  0
    1.1943   -2.6886    1.6779 H   0  0  0  0  0  0  0  0  0  0  0  0
   -3.1553    1.8376   -1.4679 H   0  0  0  0  0  0  0  0  0  0  0  0
    3.8152    2.2615    0.2858 H   0  0  0  0  0  0  0  0  0  0  0  0
  1 11  1  0  0  0  0
  2 11  1  0  0  0  0
  3 10  1  0  0  0  0
  3 18  1  0  0  0  0
  4 13  1  0  0  0  0
  4 19  1  0  0  0  0
  5 13  2  0  0  0  0
  6 14  1  0  0  0  0
  6 20  1  0  0  0  0
  7 15  1  0  0  0  0
  7 21  1  0  0  0  0
  8 14  2  0  0  0  0
  9 15  2  0  0  0  0
 10 11  1  0  0  0  0
 10 12  1  0  0  0  0
 10 13  1  0  0  0  0
 11 14  1  0  0  0  0
 12 15  1  0  0  0  0
 12 16  1  0  0  0  0
 12 17  1  0  0  0  0
M  END
> <PUBCHEM_COMPOUND_CID>
132221

> <PUBCHEM_CONFORMER_RMSD>
0.6

> <PUBCHEM_CONFORMER_DIVERSEORDER>
1
59
68
40
70
51
71
29
65
27
47
69
53
45
52
64
5
20
41
66
23
31
63
36
54
8
58
19
17
67
21
3
49
56
61
12
42
48
44
57
22
7
4
11
43
32
62
50
46
28
60
18
6
39
13
16
30
2
24
38
55
15
35
37
14
26
33
34
25
10
9

> <PUBCHEM_MMFF94_PARTIAL_CHARGES>
19
1 -0.34
10 0.34
11 0.74
12 0.06
13 0.66
14 0.66
15 0.66
18 0.4
19 0.5
2 -0.34
20 0.5
21 0.5
3 -0.68
4 -0.65
5 -0.57
6 -0.65
7 -0.65
8 -0.57
9 -0.57

> <PUBCHEM_EFFECTIVE_ROTOR_COUNT>
5

> <PUBCHEM_PHARMACOPHORE_FEATURES>
11
1 3 acceptor
1 3 donor
1 4 acceptor
1 5 acceptor
1 6 acceptor
1 7 acceptor
1 8 acceptor
1 9 acceptor
3 4 5 13 anion
3 6 8 14 anion
3 7 9 15 anion

> <PUBCHEM_HEAVY_ATOM_COUNT>
15

> <PUBCHEM_ATOM_DEF_STEREO_COUNT>
0

> <PUBCHEM_ATOM_UDEF_STEREO_COUNT>
1

> <PUBCHEM_BOND_DEF_STEREO_COUNT>
0

> <PUBCHEM_BOND_UDEF_STEREO_COUNT>
0

> <PUBCHEM_ISOTOPIC_ATOM_COUNT>
0

> <PUBCHEM_COMPONENT_COUNT>
1

> <PUBCHEM_CACTVS_TAUTO_COUNT>
1

> <PUBCHEM_CONFORMER_ID>
0002047D00000001

> <PUBCHEM_MMFF94_ENERGY>
19.4137

> <PUBCHEM_FEATURE_SELFOVERLAP>
56.012

> <PUBCHEM_SHAPE_FINGERPRINT>
12423570 1 14139190870043923806
13024252 1 17753877626099786552
13380535 21 18337689524310436155
13380536 237 18188194434371804135
14614273 12 18262224621121431413
15219459 52 18056188073358343711
15775835 57 18272376424580843256
15852999 172 17749380473387288379
16945 1 18271531892376528216
20653085 51 18060150854914392360
21028194 46 18334294309629015556
21501502 16 18336263453334178995
21524375 3 18336538412961526672
23211744 41 18270975655467462196
23559900 14 18270976687378036644
25 1 18338528447472052924
2748010 2 18339084894750062020
305870 269 18335690655310781536
5084963 1 17987524890637158456
5706482 22 18268693069433791960
7364860 26 18270116790794152902
81228 2 17475520946234003002

> <PUBCHEM_SHAPE_MULTIPOLES>
253.06
3.7
2.2
1.2
0.32
0.42
0
-2.23
0.36
0.76
-0.32
-0.21
0.2
0.2

> <PUBCHEM_SHAPE_SELFOVERLAP>
517.984

> <PUBCHEM_SHAPE_VOLUME>
144.1

> <PUBCHEM_COORDINATE_TYPE>
2
5
10

$$$$
