132229
  -OEChem-03292013323D

 38 40  0     0  0  0  0  0  0999 V2000
    3.4054    0.5101   -0.6121 S   0  0  0  0  0  0  0  0  0  0  0  0
    0.2647   -2.8640   -0.3432 O   0  0  0  0  0  0  0  0  0  0  0  0
    3.8704   -0.6965   -1.2916 O   0  0  0  0  0  0  0  0  0  0  0  0
    3.7216    1.8046   -1.2102 O   0  0  0  0  0  0  0  0  0  0  0  0
   -2.6750    0.3552    0.0751 N   0  0  0  0  0  0  0  0  0  0  0  0
   -5.5253    0.2435    0.1864 N   0  0  0  0  0  0  0  0  0  0  0  0
    3.9989    0.4920    1.0143 N   0  0  0  0  0  0  0  0  0  0  0  0
   -0.8883   -2.1130   -0.1922 N   0  0  0  0  0  0  0  0  0  0  0  0
    1.3902   -2.0651   -0.4503 N   0  0  0  0  0  0  0  0  0  0  0  0
   -3.4790    1.0397   -0.9464 C   0  0  0  0  0  0  0  0  0  0  0  0
   -3.3400   -0.7511    0.7722 C   0  0  0  0  0  0  0  0  0  0  0  0
   -4.8529    1.4082   -0.3876 C   0  0  0  0  0  0  0  0  0  0  0  0
   -4.7198   -0.3193    1.2687 C   0  0  0  0  0  0  0  0  0  0  0  0
   -1.2845    0.3396   -0.0831 C   0  0  0  0  0  0  0  0  0  0  0  0
   -0.4960   -0.8330   -0.2034 C   0  0  0  0  0  0  0  0  0  0  0  0
    1.6790    0.4012   -0.4188 C   0  0  0  0  0  0  0  0  0  0  0  0
   -0.5191    1.5309   -0.1391 C   0  0  0  0  0  0  0  0  0  0  0  0
    0.9525   -0.8025   -0.3675 C   0  0  0  0  0  0  0  0  0  0  0  0
    0.8914    1.5606   -0.2988 C   0  0  0  0  0  0  0  0  0  0  0  0
    3.5487    1.5792    1.9202 C   0  0  0  0  0  0  0  0  0  0  0  0
    4.0572   -0.8202    1.7073 C   0  0  0  0  0  0  0  0  0  0  0  0
   -3.5888    0.3820   -1.8183 H   0  0  0  0  0  0  0  0  0  0  0  0
   -2.9921    1.9587   -1.2926 H   0  0  0  0  0  0  0  0  0  0  0  0
   -2.7519   -1.0734    1.6401 H   0  0  0  0  0  0  0  0  0  0  0  0
   -3.4544   -1.6057    0.0939 H   0  0  0  0  0  0  0  0  0  0  0  0
   -4.7541    2.1944    0.3715 H   0  0  0  0  0  0  0  0  0  0  0  0
   -5.4716    1.8169   -1.1939 H   0  0  0  0  0  0  0  0  0  0  0  0
   -5.2396   -1.1876    1.6880 H   0  0  0  0  0  0  0  0  0  0  0  0
   -4.6175    0.4148    2.0779 H   0  0  0  0  0  0  0  0  0  0  0  0
   -6.4327    0.5270    0.5549 H   0  0  0  0  0  0  0  0  0  0  0  0
   -1.0287    2.4901   -0.0430 H   0  0  0  0  0  0  0  0  0  0  0  0
    1.3668    2.5405   -0.3200 H   0  0  0  0  0  0  0  0  0  0  0  0
    3.5385    2.5389    1.3965 H   0  0  0  0  0  0  0  0  0  0  0  0
    4.2518    1.6735    2.7539 H   0  0  0  0  0  0  0  0  0  0  0  0
    2.5532    1.3681    2.3204 H   0  0  0  0  0  0  0  0  0  0  0  0
    4.5208   -1.5749    1.0667 H   0  0  0  0  0  0  0  0  0  0  0  0
    3.0564   -1.1489    2.0001 H   0  0  0  0  0  0  0  0  0  0  0  0
    4.6769   -0.7354    2.6057 H   0  0  0  0  0  0  0  0  0  0  0  0
  1  3  2  0  0  0  0
  1  4  2  0  0  0  0
  1  7  1  0  0  0  0
  1 16  1  0  0  0  0
  2  8  1  0  0  0  0
  2  9  1  0  0  0  0
  5 10  1  0  0  0  0
  5 11  1  0  0  0  0
  5 14  1  0  0  0  0
  6 12  1  0  0  0  0
  6 13  1  0  0  0  0
  6 30  1  0  0  0  0
  7 20  1  0  0  0  0
  7 21  1  0  0  0  0
  8 15  2  0  0  0  0
  9 18  2  0  0  0  0
 10 12  1  0  0  0  0
 10 22  1  0  0  0  0
 10 23  1  0  0  0  0
 11 13  1  0  0  0  0
 11 24  1  0  0  0  0
 11 25  1  0  0  0  0
 12 26  1  0  0  0  0
 12 27  1  0  0  0  0
 13 28  1  0  0  0  0
 13 29  1  0  0  0  0
 14 15  1  0  0  0  0
 14 17  2  0  0  0  0
 15 18  1  0  0  0  0
 16 18  1  0  0  0  0
 16 19  2  0  0  0  0
 17 19  1  0  0  0  0
 17 31  1  0  0  0  0
 19 32  1  0  0  0  0
 20 33  1  0  0  0  0
 20 34  1  0  0  0  0
 20 35  1  0  0  0  0
 21 36  1  0  0  0  0
 21 37  1  0  0  0  0
 21 38  1  0  0  0  0
M  END
> <PUBCHEM_COMPOUND_CID>
132229

> <PUBCHEM_CONFORMER_RMSD>
0.6

> <PUBCHEM_CONFORMER_DIVERSEORDER>
2
8
25
34
33
13
28
10
29
19
15
31
11
21
7
27
3
9
16
23
12
22
14
5
18
20
24
1
4
30
6
26
17
32

> <PUBCHEM_MMFF94_PARTIAL_CHARGES>
24
1 1.45
10 0.37
11 0.37
12 0.27
13 0.27
14 0.1
15 0.29
16 -0.01
17 -0.15
18 0.29
19 -0.15
2 0.24
20 0.36
21 0.36
3 -0.65
30 0.36
31 0.15
32 0.15
4 -0.65
5 -0.84
6 -0.9
7 -0.85
8 -0.41
9 -0.41

> <PUBCHEM_EFFECTIVE_ROTOR_COUNT>
4.2

> <PUBCHEM_PHARMACOPHORE_FEATURES>
10
1 3 acceptor
1 4 acceptor
1 5 cation
1 6 cation
1 6 donor
1 8 acceptor
1 9 acceptor
5 2 8 9 15 18 rings
6 14 15 16 17 18 19 rings
6 5 6 10 11 12 13 rings

> <PUBCHEM_HEAVY_ATOM_COUNT>
21

> <PUBCHEM_ATOM_DEF_STEREO_COUNT>
0

> <PUBCHEM_ATOM_UDEF_STEREO_COUNT>
0

> <PUBCHEM_BOND_DEF_STEREO_COUNT>
0

> <PUBCHEM_BOND_UDEF_STEREO_COUNT>
0

> <PUBCHEM_ISOTOPIC_ATOM_COUNT>
0

> <PUBCHEM_COMPONENT_COUNT>
1

> <PUBCHEM_CACTVS_TAUTO_COUNT>
1

> <PUBCHEM_CONFORMER_ID>
0002048500000002

> <PUBCHEM_MMFF94_ENERGY>
50.806

> <PUBCHEM_FEATURE_SELFOVERLAP>
50.943

> <PUBCHEM_SHAPE_FINGERPRINT>
10759866 29 17822019747889258236
11132069 177 18413668028168011175
11796584 16 16153427246868715755
12236239 1 17603588534817127188
12403259 118 18041270032752625637
12403259 415 18412545409553281844
12592029 89 18261114054015766067
12633257 1 18057576916001132944
12670546 56 16370718244982170693
12788726 201 17684934991633187954
12839892 36 18335695066184692123
13140716 1 18267582601091275160
13167823 11 16660362584549931073
13583140 156 16878769616956010084
13675066 3 18342459261549509941
13760787 19 17095531711680144914
14178342 30 18122622747873535016
14366163 111 15052012364175047035
15196674 1 18337399321891718887
15219456 202 18261681376862871479
15375358 24 18333735693735205419
15788980 27 15936408923238979053
16945 1 18413107268769269124
17349148 13 18333449828996216565
1813 80 12685089246286815803
18186145 218 17775570857377264480
19026448 5 16081371855785207965
204376 136 18341051895282180607
20645477 70 18200031716875402391
21452121 103 18270674251694980563
21618674 25 17417521514753247360
22079108 93 17917995022814145555
22182313 1 18192143806918519285
23557571 272 17531252695512504661
23559900 14 18116156566918687422
2748010 2 18193839240963667364
350125 39 18339082562877972596
4072396 5 18335410236616327387
42630746 31 18343299236998992503
465052 167 17822017509741707755
474 4 17203038698843351136
5104073 3 18187090533683429025
58807428 26 18339065060723276602
633830 44 17561368395784532113
6913067 236 18187915197510827133

> <PUBCHEM_SHAPE_MULTIPOLES>
393.51
10.1
2.1
1.32
6.78
0.9
0.52
-2.71
2.47
-0.62
-0.3
-1.32
-0.18
0.59

> <PUBCHEM_SHAPE_SELFOVERLAP>
814.525

> <PUBCHEM_SHAPE_VOLUME>
226.7

> <PUBCHEM_COORDINATE_TYPE>
2
5
10

$$$$
