132266
  -OEChem-03292013323D

 59 63  0     1  0  0  0  0  0999 V2000
   -4.6014    0.3372   -2.3069 O   0  0  0  0  0  0  0  0  0  0  0  0
   -5.8407   -0.4467    0.8498 O   0  0  0  0  0  0  0  0  0  0  0  0
    6.2265    1.7808   -0.5102 O   0  0  0  0  0  0  0  0  0  0  0  0
    7.0574   -0.8401   -0.1083 O   0  0  0  0  0  0  0  0  0  0  0  0
   -0.5863   -0.1946    0.2821 N   0  0  0  0  0  0  0  0  0  0  0  0
   -3.3745    0.2072   -0.3441 N   0  0  0  0  0  0  0  0  0  0  0  0
    1.6830    0.4568    0.0200 N   0  0  0  0  0  0  0  0  0  0  0  0
    1.1107   -1.8427    0.4581 N   0  0  0  0  0  0  0  0  0  0  0  0
    2.7868   -3.4846    0.6337 N   0  0  0  0  0  0  0  0  0  0  0  0
   -1.0494    1.1810    0.0314 C   0  0  1  0  0  0  0  0  0  0  0  0
   -2.3621    1.1805   -0.8023 C   0  0  2  0  0  0  0  0  0  0  0  0
   -1.1369    1.9621    1.3579 C   0  0  0  0  0  0  0  0  0  0  0  0
   -2.9306    2.6114   -0.9005 C   0  0  0  0  0  0  0  0  0  0  0  0
   -1.7462    3.3469    1.1836 C   0  0  0  0  0  0  0  0  0  0  0  0
   -3.0834    3.2794    0.4613 C   0  0  0  0  0  0  0  0  0  0  0  0
   -1.5880   -1.2386    0.5294 C   0  0  0  0  0  0  0  0  0  0  0  0
   -2.9863   -0.6750    0.7565 C   0  0  0  0  0  0  0  0  0  0  0  0
    0.7705   -0.5377    0.2529 C   0  0  0  0  0  0  0  0  0  0  0  0
   -4.5346   -0.0085   -1.1252 C   0  0  0  0  0  0  0  0  0  0  0  0
   -5.6789   -0.6511   -0.4782 C   0  0  0  0  0  0  0  0  0  0  0  0
    2.9881    0.1344   -0.0100 C   0  0  0  0  0  0  0  0  0  0  0  0
    2.4254   -2.1307    0.4216 C   0  0  0  0  0  0  0  0  0  0  0  0
    3.4218   -1.1862    0.1914 C   0  0  0  0  0  0  0  0  0  0  0  0
   -6.6632   -1.4564   -0.9818 C   0  0  0  0  0  0  0  0  0  0  0  0
    3.9564    1.1081   -0.2433 C   0  0  0  0  0  0  0  0  0  0  0  0
   -7.4979   -1.7757    0.1156 C   0  0  0  0  0  0  0  0  0  0  0  0
    4.7890   -1.5116    0.1579 C   0  0  0  0  0  0  0  0  0  0  0  0
   -6.9553   -1.1375    1.2065 C   0  0  0  0  0  0  0  0  0  0  0  0
    5.3179    0.7925   -0.2781 C   0  0  0  0  0  0  0  0  0  0  0  0
    5.7350   -0.5185   -0.0773 C   0  0  0  0  0  0  0  0  0  0  0  0
    6.7412    2.4684    0.6284 C   0  0  0  0  0  0  0  0  0  0  0  0
    7.6059   -1.2108   -1.3721 C   0  0  0  0  0  0  0  0  0  0  0  0
   -0.3171    1.7083   -0.5963 H   0  0  0  0  0  0  0  0  0  0  0  0
   -2.1062    0.8578   -1.8216 H   0  0  0  0  0  0  0  0  0  0  0  0
   -0.1313    2.0676    1.7847 H   0  0  0  0  0  0  0  0  0  0  0  0
   -1.7120    1.4141    2.1098 H   0  0  0  0  0  0  0  0  0  0  0  0
   -3.8978    2.6246   -1.4136 H   0  0  0  0  0  0  0  0  0  0  0  0
   -2.2504    3.2165   -1.5144 H   0  0  0  0  0  0  0  0  0  0  0  0
   -1.0536    3.9820    0.6174 H   0  0  0  0  0  0  0  0  0  0  0  0
   -1.8779    3.8172    2.1645 H   0  0  0  0  0  0  0  0  0  0  0  0
   -3.8119    2.7307    1.0701 H   0  0  0  0  0  0  0  0  0  0  0  0
   -3.4765    4.2937    0.3281 H   0  0  0  0  0  0  0  0  0  0  0  0
   -1.3121   -1.8284    1.4122 H   0  0  0  0  0  0  0  0  0  0  0  0
   -1.6081   -1.9162   -0.3337 H   0  0  0  0  0  0  0  0  0  0  0  0
   -3.6692   -1.5254    0.8369 H   0  0  0  0  0  0  0  0  0  0  0  0
   -3.0613   -0.1113    1.6894 H   0  0  0  0  0  0  0  0  0  0  0  0
   -6.7749   -1.7794   -2.0070 H   0  0  0  0  0  0  0  0  0  0  0  0
    3.6480    2.1402   -0.4036 H   0  0  0  0  0  0  0  0  0  0  0  0
   -8.3840   -2.3937    0.1120 H   0  0  0  0  0  0  0  0  0  0  0  0
    5.1357   -2.5303    0.3135 H   0  0  0  0  0  0  0  0  0  0  0  0
   -7.2275   -1.0782    2.2501 H   0  0  0  0  0  0  0  0  0  0  0  0
    3.2180   -3.9276   -0.1727 H   0  0  0  0  0  0  0  0  0  0  0  0
    3.3267   -3.6395    1.4805 H   0  0  0  0  0  0  0  0  0  0  0  0
    7.4557    3.2196    0.2808 H   0  0  0  0  0  0  0  0  0  0  0  0
    7.2608    1.7737    1.2959 H   0  0  0  0  0  0  0  0  0  0  0  0
    5.9345    2.9752    1.1673 H   0  0  0  0  0  0  0  0  0  0  0  0
    7.5099   -0.3897   -2.0894 H   0  0  0  0  0  0  0  0  0  0  0  0
    7.1092   -2.1070   -1.7573 H   0  0  0  0  0  0  0  0  0  0  0  0
    8.6677   -1.4315   -1.2331 H   0  0  0  0  0  0  0  0  0  0  0  0
  1 19  2  0  0  0  0
  2 20  1  0  0  0  0
  2 28  1  0  0  0  0
  3 29  1  0  0  0  0
  3 31  1  0  0  0  0
  4 30  1  0  0  0  0
  4 32  1  0  0  0  0
  5 10  1  0  0  0  0
  5 16  1  0  0  0  0
  5 18  1  0  0  0  0
  6 11  1  0  0  0  0
  6 17  1  0  0  0  0
  6 19  1  0  0  0  0
  7 18  2  0  0  0  0
  7 21  1  0  0  0  0
  8 18  1  0  0  0  0
  8 22  2  0  0  0  0
  9 22  1  0  0  0  0
  9 52  1  0  0  0  0
  9 53  1  0  0  0  0
 10 11  1  0  0  0  0
 10 12  1  0  0  0  0
 10 33  1  0  0  0  0
 11 13  1  0  0  0  0
 11 34  1  0  0  0  0
 12 14  1  0  0  0  0
 12 35  1  0  0  0  0
 12 36  1  0  0  0  0
 13 15  1  0  0  0  0
 13 37  1  0  0  0  0
 13 38  1  0  0  0  0
 14 15  1  0  0  0  0
 14 39  1  0  0  0  0
 14 40  1  0  0  0  0
 15 41  1  0  0  0  0
 15 42  1  0  0  0  0
 16 17  1  0  0  0  0
 16 43  1  0  0  0  0
 16 44  1  0  0  0  0
 17 45  1  0  0  0  0
 17 46  1  0  0  0  0
 19 20  1  0  0  0  0
 20 24  2  0  0  0  0
 21 23  1  0  0  0  0
 21 25  2  0  0  0  0
 22 23  1  0  0  0  0
 23 27  2  0  0  0  0
 24 26  1  0  0  0  0
 24 47  1  0  0  0  0
 25 29  1  0  0  0  0
 25 48  1  0  0  0  0
 26 28  2  0  0  0  0
 26 49  1  0  0  0  0
 27 30  1  0  0  0  0
 27 50  1  0  0  0  0
 28 51  1  0  0  0  0
 29 30  2  0  0  0  0
 31 54  1  0  0  0  0
 31 55  1  0  0  0  0
 31 56  1  0  0  0  0
 32 57  1  0  0  0  0
 32 58  1  0  0  0  0
 32 59  1  0  0  0  0
M  END
> <PUBCHEM_COMPOUND_CID>
132266

> <PUBCHEM_CONFORMER_RMSD>
0.8

> <PUBCHEM_CONFORMER_DIVERSEORDER>
1
65
43
139
36
117
64
133
41
125
102
114
42
9
93
141
8
111
71
122
113
4
21
14
129
90
63
22
72
130
87
20
135
6
108
67
32
62
121
13
11
74
123
84
70
45
115
53
10
51
81
119
110
89
116
23
37
61
96
136
12
2
124
98
103
142
56
52
33
120
101
44
138
105
112
66
50
18
106
85
100
16
126
95
5
79
57
17
47
107
134
15
59
77
46
109
92
35
48
55
39
49
78
137
97
76
88
68
75
31
91
118
82
99
54
58
127
25
86
104
94
140
128
73
29
28
30
3
38
83
80
131
69
7
34
60
24
19
26
132
27
40

> <PUBCHEM_MMFF94_PARTIAL_CHARGES>
34
1 -0.57
10 0.37
11 0.3
16 0.37
17 0.3
18 0.72
19 0.71
2 -0.28
20 0.05
21 0.31
22 0.41
24 -0.15
25 -0.15
26 -0.15
27 -0.15
28 -0.01
29 0.08
3 -0.36
30 0.08
31 0.28
32 0.28
4 -0.36
47 0.15
48 0.15
49 0.15
5 -0.84
50 0.15
51 0.15
52 0.4
53 0.4
6 -0.66
7 -0.62
8 -0.62
9 -0.9

> <PUBCHEM_EFFECTIVE_ROTOR_COUNT>
6.6

> <PUBCHEM_PHARMACOPHORE_FEATURES>
11
1 1 acceptor
1 2 acceptor
1 3 acceptor
1 4 acceptor
1 9 donor
4 5 7 8 18 cation
5 2 20 24 26 28 rings
6 10 11 12 13 14 15 rings
6 21 23 25 27 29 30 rings
6 5 6 10 11 16 17 rings
6 7 8 18 21 22 23 rings

> <PUBCHEM_HEAVY_ATOM_COUNT>
32

> <PUBCHEM_ATOM_DEF_STEREO_COUNT>
2

> <PUBCHEM_ATOM_UDEF_STEREO_COUNT>
0

> <PUBCHEM_BOND_DEF_STEREO_COUNT>
0

> <PUBCHEM_BOND_UDEF_STEREO_COUNT>
0

> <PUBCHEM_ISOTOPIC_ATOM_COUNT>
0

> <PUBCHEM_COMPONENT_COUNT>
1

> <PUBCHEM_CACTVS_TAUTO_COUNT>
3

> <PUBCHEM_CONFORMER_ID>
000204AA00000001

> <PUBCHEM_MMFF94_ENERGY>
125.7

> <PUBCHEM_FEATURE_SELFOVERLAP>
55.942

> <PUBCHEM_SHAPE_FINGERPRINT>
10 15 17749948981482175400
10050765 1 18193840340528250187
10076449 9 18411705408819091019
10299344 5 17917996100634912327
10595046 47 18410291376467067072
11101153 10 18410013251507422669
12166972 35 18113901580202378237
12516196 113 18343018921921849675
12788726 201 18338227177244328635
13631057 29 18411135814466665385
14118638 360 18113899317134252050
14394314 77 18411987945264699233
14840074 17 18060416937192382439
14856354 85 16486972938603487637
150020 25 18113896061612248095
15064986 266 18337684056669719768
15131766 46 15121792985733021642
15142383 8 11383834861860823322
15276724 80 18339078186528136341
15439362 3 8141269540366931385
15461852 350 14057010433337098091
15537594 2 18201711877906374895
16994733 274 16081635666463770973
17492 89 18196370316879305783
18608769 82 18337107968374462243
19319366 153 18336255808272105058
19427546 20 18336825269991689109
2026 5 17559125268518179814
21049683 271 18337672048605928093
21236236 1 18411420571220675761
21267235 1 18412268328454397182
21403212 168 9295021145670922333
21521721 280 18270964656272495322
221357 26 18343865520126629800
22149856 69 18336559256749005665
23516275 137 17630915787787335215
23522609 53 17915485919736383849
23559900 14 18336540641770381384
23569917 315 18335140844106567490
2747138 104 18335147526478346889
335352 9 18335426764890569022
34797466 226 17917716820855722196
3552219 110 17988374740633563369
4093350 32 15841273765761648808
4258327 124 16734129975304325670
497634 4 18263079933688365357
5104073 3 18266452105637959218
59755656 215 18260268542802182434
6371380 46 12031791370186289261

> <PUBCHEM_SHAPE_MULTIPOLES>
610.16
20.6
3.21
1.18
5.94
1.72
-0.28
-6.67
-3.41
0.11
0.84
-1.2
0.16
0.27

> <PUBCHEM_SHAPE_SELFOVERLAP>
1330.463

> <PUBCHEM_SHAPE_VOLUME>
328.4

> <PUBCHEM_COORDINATE_TYPE>
2
5
10

$$$$
