132279
  -OEChem-03292013323D

 29 29  0     1  0  0  0  0  0999 V2000
   -2.2317   -2.0231   -0.1940 O   0  0  0  0  0  0  0  0  0  0  0  0
   -4.2311   -1.3999    0.6776 O   0  0  0  0  0  0  0  0  0  0  0  0
    5.2748   -0.8230   -0.3126 O   0  0  0  0  0  0  0  0  0  0  0  0
    3.2086   -1.4530   -1.0113 O   0  0  0  0  0  0  0  0  0  0  0  0
   -4.2947    0.7075   -1.0790 N   0  0  0  0  0  0  0  0  0  0  0  0
   -2.2889    1.2098    0.2399 C   0  0  0  0  0  0  0  0  0  0  0  0
   -0.7922    1.0105    0.3064 C   0  0  0  0  0  0  0  0  0  0  0  0
   -2.9863    0.1947   -0.6790 C   0  0  1  0  0  0  0  0  0  0  0  0
    1.9505    0.6459    0.4284 C   0  0  0  0  0  0  0  0  0  0  0  0
    0.0199    1.6717   -0.5998 C   0  0  0  0  0  0  0  0  0  0  0  0
   -0.2629    0.1709    1.2722 C   0  0  0  0  0  0  0  0  0  0  0  0
    1.4013    1.4880   -0.5384 C   0  0  0  0  0  0  0  0  0  0  0  0
    1.1184   -0.0126    1.3337 C   0  0  0  0  0  0  0  0  0  0  0  0
    3.4272    0.4490    0.4937 C   0  0  0  0  0  0  0  0  0  0  0  0
   -3.2344   -1.1316    0.0190 C   0  0  0  0  0  0  0  0  0  0  0  0
    3.9215   -0.7047   -0.3568 C   0  0  0  0  0  0  0  0  0  0  0  0
   -2.7084    1.1691    1.2546 H   0  0  0  0  0  0  0  0  0  0  0  0
   -2.4756    2.2345   -0.1111 H   0  0  0  0  0  0  0  0  0  0  0  0
   -2.4111    0.0096   -1.5934 H   0  0  0  0  0  0  0  0  0  0  0  0
   -0.3987    2.3270   -1.3580 H   0  0  0  0  0  0  0  0  0  0  0  0
   -0.9017   -0.3448    1.9833 H   0  0  0  0  0  0  0  0  0  0  0  0
    2.0385    2.0047   -1.2513 H   0  0  0  0  0  0  0  0  0  0  0  0
    1.5337   -0.6727    2.0907 H   0  0  0  0  0  0  0  0  0  0  0  0
    3.7338    0.2643    1.5303 H   0  0  0  0  0  0  0  0  0  0  0  0
    3.9378    1.3614    0.1623 H   0  0  0  0  0  0  0  0  0  0  0  0
   -4.1764    1.5789   -1.5951 H   0  0  0  0  0  0  0  0  0  0  0  0
   -4.8404    0.9474   -0.2515 H   0  0  0  0  0  0  0  0  0  0  0  0
   -2.4051   -2.8809    0.2491 H   0  0  0  0  0  0  0  0  0  0  0  0
    5.5941   -1.5700   -0.8626 H   0  0  0  0  0  0  0  0  0  0  0  0
  1 15  1  0  0  0  0
  1 28  1  0  0  0  0
  2 15  2  0  0  0  0
  3 16  1  0  0  0  0
  3 29  1  0  0  0  0
  4 16  2  0  0  0  0
  5  8  1  0  0  0  0
  5 26  1  0  0  0  0
  5 27  1  0  0  0  0
  6  7  1  0  0  0  0
  6  8  1  0  0  0  0
  6 17  1  0  0  0  0
  6 18  1  0  0  0  0
  7 10  2  0  0  0  0
  7 11  1  0  0  0  0
  8 15  1  0  0  0  0
  8 19  1  0  0  0  0
  9 12  2  0  0  0  0
  9 13  1  0  0  0  0
  9 14  1  0  0  0  0
 10 12  1  0  0  0  0
 10 20  1  0  0  0  0
 11 13  2  0  0  0  0
 11 21  1  0  0  0  0
 12 22  1  0  0  0  0
 13 23  1  0  0  0  0
 14 16  1  0  0  0  0
 14 24  1  0  0  0  0
 14 25  1  0  0  0  0
M  END
> <PUBCHEM_COMPOUND_CID>
132279

> <PUBCHEM_CONFORMER_RMSD>
0.6

> <PUBCHEM_CONFORMER_DIVERSEORDER>
1
51
13
10
36
59
27
37
42
57
47
45
4
6
24
38
55
16
28
29
7
54
5
32
48
11
52
18
15
9
40
46
14
49
56
60
58
39
50
8
53
35
12
20
2
30
19
3
26
34
31
41
23
44
33
17
21
22
25
43

> <PUBCHEM_MMFF94_PARTIAL_CHARGES>
24
1 -0.65
10 -0.15
11 -0.15
12 -0.15
13 -0.15
14 0.2
15 0.66
16 0.66
2 -0.57
20 0.15
21 0.15
22 0.15
23 0.15
26 0.36
27 0.36
28 0.5
29 0.5
3 -0.65
4 -0.57
5 -0.99
6 0.14
7 -0.14
8 0.33
9 -0.14

> <PUBCHEM_EFFECTIVE_ROTOR_COUNT>
5

> <PUBCHEM_PHARMACOPHORE_FEATURES>
9
1 1 acceptor
1 2 acceptor
1 3 acceptor
1 4 acceptor
1 5 cation
1 5 donor
3 1 2 15 anion
3 3 4 16 anion
6 7 9 10 11 12 13 rings

> <PUBCHEM_HEAVY_ATOM_COUNT>
16

> <PUBCHEM_ATOM_DEF_STEREO_COUNT>
1

> <PUBCHEM_ATOM_UDEF_STEREO_COUNT>
0

> <PUBCHEM_BOND_DEF_STEREO_COUNT>
0

> <PUBCHEM_BOND_UDEF_STEREO_COUNT>
0

> <PUBCHEM_ISOTOPIC_ATOM_COUNT>
0

> <PUBCHEM_COMPONENT_COUNT>
1

> <PUBCHEM_CACTVS_TAUTO_COUNT>
1

> <PUBCHEM_CONFORMER_ID>
000204B700000001

> <PUBCHEM_MMFF94_ENERGY>
28.2615

> <PUBCHEM_FEATURE_SELFOVERLAP>
45.788

> <PUBCHEM_SHAPE_FINGERPRINT>
10465860 71 18114181938508313652
106641 1 13829548974152379534
10751810 167 17748823021028747263
11769659 78 18130785646662017944
12032990 46 18409731780730168737
12119455 92 12685092588235290528
12251169 10 12751227125581694140
12346645 44 10087644788467334012
124424 183 16845569790726244945
12596602 18 13901612044247535166
12644460 14 15841256156352952786
12670546 177 17894638075635187604
13296908 3 18335414712035787105
13705890 14 18411699902713150560
14123255 352 9367342622383523898
14251710 61 18410298046519700763
14289901 80 17346303938608365272
14350558 41 18273221919136920084
14911166 2 17530686489662733352
15209294 21 10447929455921724272
16945 1 17095523985087214320
17834072 8 18261385638115200173
17834074 16 18272369754686452174
18186145 218 17385997407845763541
19107657 162 18342171184949420578
193927 3 18342188772877622382
200 152 17775564221879476712
20281475 54 17916586573819418577
20374829 77 18334853892575847290
20432913 95 16773794779666077374
20645476 183 17676481744622893531
20645477 70 18270669961117571493
20671657 53 18333452057894507944
20871999 31 18040995133417843687
21634736 98 18041560350913855500
221490 88 18116721904936715808
22854114 59 11312057651323804048
22959321 60 10592044665171827348
23379529 103 17972894831984533547
23382010 3 16443354216559292112
23402539 116 17676486121357676116
23402655 69 17095794421997824829
23557571 272 18269550551276065292
23559900 14 18271517684973321336
2748010 2 17097795696501178688
351380 180 7997974552692956798
449060 23 18408600383296679713
4990 188 18113899351330180608
58051976 100 17968089833490609989
7364860 26 18195528322926920272
76465 3 16844993702483416781
9709674 26 18190460665191299019

> <PUBCHEM_SHAPE_MULTIPOLES>
300.81
8.59
1.72
1.08
2.31
0.27
-0.15
3.84
1.91
-0.62
0.29
0.02
0
0.68

> <PUBCHEM_SHAPE_SELFOVERLAP>
620.915

> <PUBCHEM_SHAPE_VOLUME>
171.1

> <PUBCHEM_COORDINATE_TYPE>
2
5
10

$$$$
