132303
  -OEChem-03292013323D

 58 59  0     1  0  0  0  0  0999 V2000
    2.8396   -0.5508    2.5482 S   0  0  0  0  0  0  0  0  0  0  0  0
   -2.0621   -2.5053   -1.9113 S   0  0  0  0  0  0  0  0  0  0  0  0
    5.0281    0.2113   -0.0117 O   0  0  0  0  0  0  0  0  0  0  0  0
   -2.4474    3.3821    0.9867 O   0  0  0  0  0  0  0  0  0  0  0  0
   -1.5546   -3.6009   -2.7146 O   0  0  0  0  0  0  0  0  0  0  0  0
   -2.4495   -1.2512   -2.5261 O   0  0  0  0  0  0  0  0  0  0  0  0
   -7.8779    0.3841    0.1263 O   0  0  0  0  0  0  0  0  0  0  0  0
    0.0160   -1.1305    1.2439 N   0  0  0  0  0  0  0  0  0  0  0  0
   -1.6491   -0.0441   -0.1025 N   0  0  0  0  0  0  0  0  0  0  0  0
   -0.9724   -2.2275   -0.6209 N   0  0  0  0  0  0  0  0  0  0  0  0
    6.8038    1.1207   -2.5180 N   0  0  0  0  0  0  0  0  0  0  0  0
   -2.5176    2.2058    0.1806 C   0  0  1  0  0  0  0  0  0  0  0  0
   -1.5624    1.1464    0.7310 C   0  0  0  0  0  0  0  0  0  0  0  0
   -3.9482    1.7199    0.1657 C   0  0  0  0  0  0  0  0  0  0  0  0
    0.8632   -2.2515    1.5792 C   0  0  0  0  0  0  0  0  0  0  0  0
    1.7145   -1.9566    2.8078 C   0  0  0  0  0  0  0  0  0  0  0  0
   -0.8898   -1.0462    0.2000 C   0  0  0  0  0  0  0  0  0  0  0  0
    4.0836   -1.3964    1.5471 C   0  0  0  0  0  0  0  0  0  0  0  0
    5.1932   -0.4632    1.1562 C   0  0  0  0  0  0  0  0  0  0  0  0
   -4.6655    1.6979   -1.0304 C   0  0  0  0  0  0  0  0  0  0  0  0
   -4.5516    1.2931    1.3487 C   0  0  0  0  0  0  0  0  0  0  0  0
    6.1319    0.9878   -0.1715 C   0  0  0  0  0  0  0  0  0  0  0  0
    6.3903   -0.1260    1.7438 C   0  0  0  0  0  0  0  0  0  0  0  0
    6.1732    1.8174   -1.3839 C   0  0  0  0  0  0  0  0  0  0  0  0
    7.0000    0.8162    0.8815 C   0  0  0  0  0  0  0  0  0  0  0  0
   -5.9861    1.2492   -1.0436 C   0  0  0  0  0  0  0  0  0  0  0  0
   -5.8722    0.8444    1.3356 C   0  0  0  0  0  0  0  0  0  0  0  0
   -6.5895    0.8224    0.1395 C   0  0  0  0  0  0  0  0  0  0  0  0
   -3.4537   -3.1215   -0.9947 C   0  0  0  0  0  0  0  0  0  0  0  0
    6.8124    1.9727   -3.6925 C   0  0  0  0  0  0  0  0  0  0  0  0
   -2.2079    2.4865   -0.8336 H   0  0  0  0  0  0  0  0  0  0  0  0
   -1.7921    0.9190    1.7794 H   0  0  0  0  0  0  0  0  0  0  0  0
   -0.5443    1.5571    0.7140 H   0  0  0  0  0  0  0  0  0  0  0  0
    0.2334   -3.1201    1.8054 H   0  0  0  0  0  0  0  0  0  0  0  0
    1.4936   -2.5217    0.7257 H   0  0  0  0  0  0  0  0  0  0  0  0
    1.0669   -1.7016    3.6540 H   0  0  0  0  0  0  0  0  0  0  0  0
    2.2923   -2.8397    3.0992 H   0  0  0  0  0  0  0  0  0  0  0  0
    0.1153   -0.3204    1.8494 H   0  0  0  0  0  0  0  0  0  0  0  0
    4.5029   -2.2315    2.1180 H   0  0  0  0  0  0  0  0  0  0  0  0
    3.6269   -1.8002    0.6385 H   0  0  0  0  0  0  0  0  0  0  0  0
   -4.2086    2.0259   -1.9601 H   0  0  0  0  0  0  0  0  0  0  0  0
   -4.0153    1.3130    2.2932 H   0  0  0  0  0  0  0  0  0  0  0  0
   -0.3873   -3.0312   -0.3655 H   0  0  0  0  0  0  0  0  0  0  0  0
    6.7773   -0.5100    2.6768 H   0  0  0  0  0  0  0  0  0  0  0  0
    5.1501    2.1077   -1.6543 H   0  0  0  0  0  0  0  0  0  0  0  0
    6.7227    2.7418   -1.1659 H   0  0  0  0  0  0  0  0  0  0  0  0
    7.9534    1.3073    1.0134 H   0  0  0  0  0  0  0  0  0  0  0  0
   -6.5395    1.2336   -1.9785 H   0  0  0  0  0  0  0  0  0  0  0  0
   -6.3317    0.5168    2.2643 H   0  0  0  0  0  0  0  0  0  0  0  0
   -1.5246    3.6884    0.9777 H   0  0  0  0  0  0  0  0  0  0  0  0
   -4.2416   -3.3749   -1.7074 H   0  0  0  0  0  0  0  0  0  0  0  0
   -3.1508   -4.0145   -0.4448 H   0  0  0  0  0  0  0  0  0  0  0  0
   -3.8071   -2.3431   -0.3157 H   0  0  0  0  0  0  0  0  0  0  0  0
    7.7646    0.8816   -2.2725 H   0  0  0  0  0  0  0  0  0  0  0  0
    5.7955    2.2332   -4.0037 H   0  0  0  0  0  0  0  0  0  0  0  0
    7.2823    1.4410   -4.5258 H   0  0  0  0  0  0  0  0  0  0  0  0
    7.3802    2.8931   -3.5210 H   0  0  0  0  0  0  0  0  0  0  0  0
   -8.1328    0.1281    1.0293 H   0  0  0  0  0  0  0  0  0  0  0  0
  1 16  1  0  0  0  0
  1 18  1  0  0  0  0
  2  5  2  0  0  0  0
  2  6  2  0  0  0  0
  2 10  1  0  0  0  0
  2 29  1  0  0  0  0
  3 19  1  0  0  0  0
  3 22  1  0  0  0  0
  4 12  1  0  0  0  0
  4 50  1  0  0  0  0
  7 28  1  0  0  0  0
  7 58  1  0  0  0  0
  8 15  1  0  0  0  0
  8 17  1  0  0  0  0
  8 38  1  0  0  0  0
  9 13  1  0  0  0  0
  9 17  2  0  0  0  0
 10 17  1  0  0  0  0
 10 43  1  0  0  0  0
 11 24  1  0  0  0  0
 11 30  1  0  0  0  0
 11 54  1  0  0  0  0
 12 13  1  0  0  0  0
 12 14  1  0  0  0  0
 12 31  1  0  0  0  0
 13 32  1  0  0  0  0
 13 33  1  0  0  0  0
 14 20  2  0  0  0  0
 14 21  1  0  0  0  0
 15 16  1  0  0  0  0
 15 34  1  0  0  0  0
 15 35  1  0  0  0  0
 16 36  1  0  0  0  0
 16 37  1  0  0  0  0
 18 19  1  0  0  0  0
 18 39  1  0  0  0  0
 18 40  1  0  0  0  0
 19 23  2  0  0  0  0
 20 26  1  0  0  0  0
 20 41  1  0  0  0  0
 21 27  2  0  0  0  0
 21 42  1  0  0  0  0
 22 24  1  0  0  0  0
 22 25  2  0  0  0  0
 23 25  1  0  0  0  0
 23 44  1  0  0  0  0
 24 45  1  0  0  0  0
 24 46  1  0  0  0  0
 25 47  1  0  0  0  0
 26 28  2  0  0  0  0
 26 48  1  0  0  0  0
 27 28  1  0  0  0  0
 27 49  1  0  0  0  0
 29 51  1  0  0  0  0
 29 52  1  0  0  0  0
 29 53  1  0  0  0  0
 30 55  1  0  0  0  0
 30 56  1  0  0  0  0
 30 57  1  0  0  0  0
M  END
> <PUBCHEM_COMPOUND_CID>
132303

> <PUBCHEM_CONFORMER_RMSD>
1.2

> <PUBCHEM_CONFORMER_DIVERSEORDER>
3
104
24
31
142
284
42
183
211
232
297
144
169
82
212
40
182
243
16
33
149
234
51
235
101
6
109
154
163
137
27
174
188
147
223
282
206
258
252
89
274
127
171
43
229
116
233
44
186
271
226
213
245
122
248
165
185
39
23
184
290
55
126
216
79
77
41
247
230
265
72
239
249
242
65
221
241
36
135
100
276
295
270
58
98
228
285
194
254
257
15
117
47
238
68
30
225
145
300
160
293
152
262
84
11
291
134
85
150
244
301
18
294
75
112
90
81
52
62
80
130
172
299
19
240
115
156
155
111
17
199
124
29
143
173
218
205
56
45
255
273
202
277
200
215
64
71
268
281
302
204
128
118
180
120
113
197
49
22
181
217
236
175
266
123
269
286
289
107
13
10
275
94
219
110
153
59
46
99
256
267
108
83
192
162
1
159
35
93
148
92
157
279
176
195
253
25
63
50
272
103
69
303
298
70
224
106
261
198
168
260
207
278
292
231
7
76
57
201
283
38
151
264
170
166
8
208
210
237
86
251
91
179
250
133
129
139
95
191
54
131
193
88
87
48
138
12
26
296
209
73
167
259
102
5
114
178
14
304
97
2
67
280
96
20
61
220
125
140
246
164
146
141
66
21
189
32
9
78
37
288
187
263
28
203
222
53
196
287
74
4
60
119
34
105
227
136
177
158
161
121
132
190
214

> <PUBCHEM_MMFF94_PARTIAL_CHARGES>
41
1 -0.46
10 -0.79
11 -0.9
12 0.42
13 0.25
14 -0.14
15 0.37
16 0.23
17 0.74
18 0.41
19 -0.04
2 1.33
20 -0.15
21 -0.15
22 -0.04
23 -0.15
24 0.45
25 -0.15
26 -0.15
27 -0.15
28 0.08
29 0.11
3 -0.28
30 0.27
38 0.4
4 -0.68
41 0.15
42 0.15
43 0.42
44 0.15
47 0.15
48 0.15
49 0.15
5 -0.65
50 0.4
54 0.36
58 0.45
6 -0.65
7 -0.53
8 -0.82
9 -0.7

> <PUBCHEM_EFFECTIVE_ROTOR_COUNT>
13

> <PUBCHEM_PHARMACOPHORE_FEATURES>
12
1 10 donor
1 11 cation
1 11 donor
1 3 acceptor
1 4 acceptor
1 4 donor
1 5 acceptor
1 6 acceptor
1 7 donor
1 8 donor
5 3 19 22 23 25 rings
6 14 20 21 26 27 28 rings

> <PUBCHEM_HEAVY_ATOM_COUNT>
30

> <PUBCHEM_ATOM_DEF_STEREO_COUNT>
0

> <PUBCHEM_ATOM_UDEF_STEREO_COUNT>
1

> <PUBCHEM_BOND_DEF_STEREO_COUNT>
0

> <PUBCHEM_BOND_UDEF_STEREO_COUNT>
0

> <PUBCHEM_ISOTOPIC_ATOM_COUNT>
0

> <PUBCHEM_COMPONENT_COUNT>
1

> <PUBCHEM_CACTVS_TAUTO_COUNT>
6

> <PUBCHEM_CONFORMER_ID>
000204CF00000003

> <PUBCHEM_MMFF94_ENERGY>
41.1696

> <PUBCHEM_FEATURE_SELFOVERLAP>
60.951

> <PUBCHEM_SHAPE_FINGERPRINT>
10794284 68 18118699935526216483
11273773 42 18041846224490666622
13782708 43 10374142403752048085
13911987 19 18126261101149473997
14400156 162 14189578551115507077
1454969 45 18200580429354920377
14565420 104 16588023507441159304
14840074 17 18339912737180735921
15064981 194 17678184995867613114
15131766 46 17386291012263733988
15183329 4 13110956531084757651
15575132 122 18197485247866734761
15685185 35 17678186095136349060
16114785 44 13354366063159973211
19319366 153 18262507096820696234
21458453 9 14996584883976703472
21814621 53 12822711878952864027
25269216 80 18128259076648225398
3610482 184 18335425703294850206

> <PUBCHEM_SHAPE_MULTIPOLES>
575.81
21.24
3.48
3.05
15.42
0.3
2.71
-15.49
1
1.17
1.41
1.52
1.01
-6.91

> <PUBCHEM_SHAPE_SELFOVERLAP>
1148.775

> <PUBCHEM_SHAPE_VOLUME>
342.7

> <PUBCHEM_COORDINATE_TYPE>
2
5
10

$$$$
