132399059
  -OEChem-03292013293D

 48 50  0     1  0  0  0  0  0999 V2000
    0.7478   -1.1579   -0.3228 O   0  0  0  0  0  0  0  0  0  0  0  0
    2.2543    0.6031   -0.5932 O   0  0  0  0  0  0  0  0  0  0  0  0
   -0.5112    0.8174   -0.0530 O   0  0  0  0  0  0  0  0  0  0  0  0
   -2.9546   -1.2422    1.6584 O   0  0  0  0  0  0  0  0  0  0  0  0
   -5.3112    0.9142    0.4521 O   0  0  0  0  0  0  0  0  0  0  0  0
    2.6581   -2.5200    1.2595 O   0  0  0  0  0  0  0  0  0  0  0  0
    5.4151   -1.7527    0.5586 O   0  0  0  0  0  0  0  0  0  0  0  0
    5.6941    1.1245    0.5514 O   0  0  0  0  0  0  0  0  0  0  0  0
    2.4108    3.3223   -0.9635 O   0  0  0  0  0  0  0  0  0  0  0  0
   -4.0837    2.7872    0.6612 O   0  0  0  0  0  0  0  0  0  0  0  0
   -2.9705   -0.7491    0.3066 C   0  0  1  0  0  0  0  0  0  0  0  0
   -1.7115   -1.3399   -0.3848 C   0  0  2  0  0  0  0  0  0  0  0  0
   -0.4695   -0.5991    0.1700 C   0  0  1  0  0  0  0  0  0  0  0  0
    1.8842   -0.4977    0.2338 C   0  0  2  0  0  0  0  0  0  0  0  0
    3.0243   -1.5125    0.3170 C   0  0  1  0  0  0  0  0  0  0  0  0
    4.3275   -0.8495    0.7635 C   0  0  2  0  0  0  0  0  0  0  0  0
    4.6077    0.4187   -0.0427 C   0  0  1  0  0  0  0  0  0  0  0  0
   -4.2879   -1.1856   -0.3339 C   0  0  0  0  0  0  0  0  0  0  0  0
    3.3743    1.3243   -0.0768 C   0  0  1  0  0  0  0  0  0  0  0  0
   -2.9004    0.7507    0.3444 C   0  0  0  0  0  0  0  0  0  0  0  0
   -5.4521   -0.5208    0.3774 C   0  0  0  0  0  0  0  0  0  0  0  0
   -1.7655   -1.2838   -1.8886 C   0  0  0  0  0  0  0  0  0  0  0  0
   -1.7387    1.3974    0.1522 C   0  0  0  0  0  0  0  0  0  0  0  0
    3.5910    2.5401   -0.9722 C   0  0  0  0  0  0  0  0  0  0  0  0
   -4.1238    1.5707    0.5056 C   0  0  0  0  0  0  0  0  0  0  0  0
   -1.7084   -2.3602   -2.6801 C   0  0  0  0  0  0  0  0  0  0  0  0
   -1.6052   -2.3944   -0.0900 H   0  0  0  0  0  0  0  0  0  0  0  0
   -0.4574   -0.7509    1.2595 H   0  0  0  0  0  0  0  0  0  0  0  0
    1.6497   -0.1357    1.2452 H   0  0  0  0  0  0  0  0  0  0  0  0
    3.1604   -2.0161   -0.6474 H   0  0  0  0  0  0  0  0  0  0  0  0
    4.3089   -0.6332    1.8382 H   0  0  0  0  0  0  0  0  0  0  0  0
    4.9116    0.1482   -1.0614 H   0  0  0  0  0  0  0  0  0  0  0  0
   -4.4108   -2.2738   -0.2847 H   0  0  0  0  0  0  0  0  0  0  0  0
   -4.3239   -0.8887   -1.3891 H   0  0  0  0  0  0  0  0  0  0  0  0
    3.1221    1.6857    0.9296 H   0  0  0  0  0  0  0  0  0  0  0  0
   -6.3832   -0.7275   -0.1603 H   0  0  0  0  0  0  0  0  0  0  0  0
   -5.5741   -0.8969    1.3988 H   0  0  0  0  0  0  0  0  0  0  0  0
   -1.8510   -0.3084   -2.3611 H   0  0  0  0  0  0  0  0  0  0  0  0
   -1.6328    2.4734    0.1059 H   0  0  0  0  0  0  0  0  0  0  0  0
    3.7803    2.2340   -2.0065 H   0  0  0  0  0  0  0  0  0  0  0  0
    4.4234    3.1561   -0.6189 H   0  0  0  0  0  0  0  0  0  0  0  0
   -3.0612   -2.2084    1.6274 H   0  0  0  0  0  0  0  0  0  0  0  0
    2.5311   -2.0929    2.1238 H   0  0  0  0  0  0  0  0  0  0  0  0
    5.4470   -1.9782   -0.3868 H   0  0  0  0  0  0  0  0  0  0  0  0
    5.4293    1.3812    1.4512 H   0  0  0  0  0  0  0  0  0  0  0  0
   -1.7498   -2.2514   -3.7584 H   0  0  0  0  0  0  0  0  0  0  0  0
   -1.6205   -3.3613   -2.2730 H   0  0  0  0  0  0  0  0  0  0  0  0
    2.5691    4.0874   -1.5424 H   0  0  0  0  0  0  0  0  0  0  0  0
  1 13  1  0  0  0  0
  1 14  1  0  0  0  0
  2 14  1  0  0  0  0
  2 19  1  0  0  0  0
  3 13  1  0  0  0  0
  3 23  1  0  0  0  0
  4 11  1  0  0  0  0
  4 42  1  0  0  0  0
  5 21  1  0  0  0  0
  5 25  1  0  0  0  0
  6 15  1  0  0  0  0
  6 43  1  0  0  0  0
  7 16  1  0  0  0  0
  7 44  1  0  0  0  0
  8 17  1  0  0  0  0
  8 45  1  0  0  0  0
  9 24  1  0  0  0  0
  9 48  1  0  0  0  0
 10 25  2  0  0  0  0
 11 12  1  0  0  0  0
 11 18  1  0  0  0  0
 11 20  1  0  0  0  0
 12 13  1  0  0  0  0
 12 22  1  0  0  0  0
 12 27  1  0  0  0  0
 13 28  1  0  0  0  0
 14 15  1  0  0  0  0
 14 29  1  0  0  0  0
 15 16  1  0  0  0  0
 15 30  1  0  0  0  0
 16 17  1  0  0  0  0
 16 31  1  0  0  0  0
 17 19  1  0  0  0  0
 17 32  1  0  0  0  0
 18 21  1  0  0  0  0
 18 33  1  0  0  0  0
 18 34  1  0  0  0  0
 19 24  1  0  0  0  0
 19 35  1  0  0  0  0
 20 23  2  0  0  0  0
 20 25  1  0  0  0  0
 21 36  1  0  0  0  0
 21 37  1  0  0  0  0
 22 26  2  0  0  0  0
 22 38  1  0  0  0  0
 23 39  1  0  0  0  0
 24 40  1  0  0  0  0
 24 41  1  0  0  0  0
 26 46  1  0  0  0  0
 26 47  1  0  0  0  0
M  END
> <PUBCHEM_COMPOUND_CID>
132399059

> <PUBCHEM_CONFORMER_RMSD>
0.8

> <PUBCHEM_CONFORMER_DIVERSEORDER>
1
41
43
11
30
5
48
18
36
46
7
26
31
23
45
2
12
34
50
28
33
17
25
53
3
24
15
10
51
40
54
44
22
38
19
29
21
37
6
47
39
27
4
49
16
13
32
52
20
35
14
9
8
42

> <PUBCHEM_MMFF94_PARTIAL_CHARGES>
34
1 -0.56
10 -0.57
11 0.42
12 0.14
13 0.56
14 0.56
15 0.28
16 0.28
17 0.28
19 0.28
2 -0.56
20 -0.12
21 0.28
22 -0.29
23 -0.07
24 0.28
25 0.71
26 -0.3
3 -0.36
38 0.15
39 0.15
4 -0.68
42 0.4
43 0.4
44 0.4
45 0.4
46 0.15
47 0.15
48 0.4
5 -0.43
6 -0.68
7 -0.68
8 -0.68
9 -0.68

> <PUBCHEM_EFFECTIVE_ROTOR_COUNT>
6.4

> <PUBCHEM_PHARMACOPHORE_FEATURES>
18
1 1 acceptor
1 10 acceptor
1 2 acceptor
1 26 hydrophobe
1 3 acceptor
1 4 acceptor
1 4 donor
1 6 acceptor
1 6 donor
1 7 acceptor
1 7 donor
1 8 acceptor
1 8 donor
1 9 acceptor
1 9 donor
6 2 14 15 16 17 19 rings
6 3 11 12 13 20 23 rings
6 5 11 18 20 21 25 rings

> <PUBCHEM_HEAVY_ATOM_COUNT>
26

> <PUBCHEM_ATOM_DEF_STEREO_COUNT>
8

> <PUBCHEM_ATOM_UDEF_STEREO_COUNT>
0

> <PUBCHEM_BOND_DEF_STEREO_COUNT>
0

> <PUBCHEM_BOND_UDEF_STEREO_COUNT>
0

> <PUBCHEM_ISOTOPIC_ATOM_COUNT>
0

> <PUBCHEM_COMPONENT_COUNT>
1

> <PUBCHEM_CACTVS_TAUTO_COUNT>
1

> <PUBCHEM_CONFORMER_ID>
07E43FD300000001

> <PUBCHEM_MMFF94_ENERGY>
73.995

> <PUBCHEM_FEATURE_SELFOVERLAP>
91.481

> <PUBCHEM_SHAPE_FINGERPRINT>
10366900 7 17385730175238809618
12107183 9 17760082917602959859
12236239 1 18342454850433636514
12403259 118 18411696552464547537
12633257 1 17530676637197537496
13167823 11 18410011035229847395
13583140 156 18041552547322210871
14341114 176 18335425651343623650
14849402 71 18187650271365653516
15163728 17 17416704457491966577
15196674 1 18410575067694375400
17818456 19 18059014965161493840
17844677 252 18409456872832228859
17980427 23 18410299082377206277
1813 80 16515409538527684086
20511986 3 18339626893715805009
20715895 44 17980481166206283553
21033648 29 17559373782870296666
21267235 1 18409175393571334162
23559900 14 18333448737731554419
23598288 3 18272928349574677799
24771293 8 18197200642708159008
2838139 119 18263073337352094597
3633792 109 17968082124335680111
38570 142 18044678596693790236
4214541 1 18336547127481909889
474 4 18187927334909161056
5104073 3 18335701624525329016
633830 44 18335424625279119142
67856867 119 18337390542878689728
9709674 26 18335710416060165339

> <PUBCHEM_SHAPE_MULTIPOLES>
476.37
12.13
2.85
1.37
3.58
1.23
-0.74
2.25
2.85
0.75
-0.74
-0.45
-0.87
-2.3

> <PUBCHEM_SHAPE_SELFOVERLAP>
1004.775

> <PUBCHEM_SHAPE_VOLUME>
262.3

> <PUBCHEM_COORDINATE_TYPE>
2
5
10

$$$$
