132497
  -OEChem-03292013323D

 38 40  0     0  0  0  0  0  0999 V2000
   -5.9432    0.0453    0.2690 S   0  0  0  0  0  0  0  0  0  0  0  0
   -7.2310   -0.6098    0.4030 O   0  0  0  0  0  0  0  0  0  0  0  0
   -5.4286    0.8835    1.3336 O   0  0  0  0  0  0  0  0  0  0  0  0
   -4.7796   -1.1330   -0.2040 N   0  0  0  0  0  0  0  0  0  0  0  0
    1.5521   -0.7309   -0.0316 N   0  0  0  0  0  0  0  0  0  0  0  0
    2.4650    1.8811   -0.0049 N   0  0  0  0  0  0  0  0  0  0  0  0
    4.6548    1.1308    0.0547 N   0  0  0  0  0  0  0  0  0  0  0  0
    0.2258    2.6631   -0.0653 N   0  0  0  0  0  0  0  0  0  0  0  0
    5.1547   -1.2143    0.0666 N   0  0  0  0  0  0  0  0  0  0  0  0
    3.3903   -2.7848    0.0170 N   0  0  0  0  0  0  0  0  0  0  0  0
    6.8752    0.3731    0.1155 N   0  0  0  0  0  0  0  0  0  0  0  0
   -0.6987   -0.0625   -0.0924 C   0  0  0  0  0  0  0  0  0  0  0  0
    0.6975    0.3035   -0.0541 C   0  0  0  0  0  0  0  0  0  0  0  0
   -3.3991   -0.7710   -0.1663 C   0  0  0  0  0  0  0  0  0  0  0  0
   -1.3430   -0.2391   -1.3184 C   0  0  0  0  0  0  0  0  0  0  0  0
   -1.4088   -0.2412    1.0967 C   0  0  0  0  0  0  0  0  0  0  0  0
   -2.6919   -0.5929   -1.3553 C   0  0  0  0  0  0  0  0  0  0  0  0
   -2.7576   -0.5951    1.0597 C   0  0  0  0  0  0  0  0  0  0  0  0
    2.8671   -0.4425    0.0044 C   0  0  0  0  0  0  0  0  0  0  0  0
    1.1494    1.5945   -0.0409 C   0  0  0  0  0  0  0  0  0  0  0  0
    3.3421    0.8706    0.0184 C   0  0  0  0  0  0  0  0  0  0  0  0
    3.8282   -1.4350    0.0300 C   0  0  0  0  0  0  0  0  0  0  0  0
   -6.0157    1.0275   -1.2124 C   0  0  0  0  0  0  0  0  0  0  0  0
    5.4950    0.0793    0.0771 C   0  0  0  0  0  0  0  0  0  0  0  0
   -0.8065   -0.1041   -2.2546 H   0  0  0  0  0  0  0  0  0  0  0  0
   -0.9229   -0.1109    2.0609 H   0  0  0  0  0  0  0  0  0  0  0  0
   -3.1819   -0.7260   -2.3164 H   0  0  0  0  0  0  0  0  0  0  0  0
   -3.2915   -0.7427    1.9948 H   0  0  0  0  0  0  0  0  0  0  0  0
   -5.0399   -1.6992   -1.0228 H   0  0  0  0  0  0  0  0  0  0  0  0
   -5.0493    1.5069   -1.3761 H   0  0  0  0  0  0  0  0  0  0  0  0
   -6.2850    0.3850   -2.0529 H   0  0  0  0  0  0  0  0  0  0  0  0
   -6.7843    1.7909   -1.0712 H   0  0  0  0  0  0  0  0  0  0  0  0
    0.6137    3.5986   -0.0480 H   0  0  0  0  0  0  0  0  0  0  0  0
   -0.6610    2.5336   -0.5357 H   0  0  0  0  0  0  0  0  0  0  0  0
    4.1060   -3.5008    0.0267 H   0  0  0  0  0  0  0  0  0  0  0  0
    2.5021   -2.9960   -0.4211 H   0  0  0  0  0  0  0  0  0  0  0  0
    7.5443   -0.3842    0.1341 H   0  0  0  0  0  0  0  0  0  0  0  0
    7.1781    1.3372    0.1254 H   0  0  0  0  0  0  0  0  0  0  0  0
  1  2  2  0  0  0  0
  1  3  2  0  0  0  0
  1  4  1  0  0  0  0
  1 23  1  0  0  0  0
  4 14  1  0  0  0  0
  4 29  1  0  0  0  0
  5 13  2  0  0  0  0
  5 19  1  0  0  0  0
  6 20  2  0  0  0  0
  6 21  1  0  0  0  0
  7 21  2  0  0  0  0
  7 24  1  0  0  0  0
  8 20  1  0  0  0  0
  8 33  1  0  0  0  0
  8 34  1  0  0  0  0
  9 22  1  0  0  0  0
  9 24  2  0  0  0  0
 10 22  1  0  0  0  0
 10 35  1  0  0  0  0
 10 36  1  0  0  0  0
 11 24  1  0  0  0  0
 11 37  1  0  0  0  0
 11 38  1  0  0  0  0
 12 13  1  0  0  0  0
 12 15  2  0  0  0  0
 12 16  1  0  0  0  0
 13 20  1  0  0  0  0
 14 17  2  0  0  0  0
 14 18  1  0  0  0  0
 15 17  1  0  0  0  0
 15 25  1  0  0  0  0
 16 18  2  0  0  0  0
 16 26  1  0  0  0  0
 17 27  1  0  0  0  0
 18 28  1  0  0  0  0
 19 21  1  0  0  0  0
 19 22  2  0  0  0  0
 23 30  1  0  0  0  0
 23 31  1  0  0  0  0
 23 32  1  0  0  0  0
M  END
> <PUBCHEM_COMPOUND_CID>
132497

> <PUBCHEM_CONFORMER_RMSD>
0.6

> <PUBCHEM_CONFORMER_DIVERSEORDER>
1
20
12
3
9
16
18
5
19
8
10
15
2
14
17
4
7
11
6
13
21

> <PUBCHEM_MMFF94_PARTIAL_CHARGES>
34
1 1.33
10 -0.9
11 -0.9
13 0.31
14 0.2
15 -0.15
16 -0.15
17 -0.15
18 -0.15
19 0.31
2 -0.65
20 0.41
21 0.62
22 0.41
23 0.11
24 0.72
25 0.15
26 0.15
27 0.15
28 0.15
29 0.42
3 -0.65
33 0.4
34 0.4
35 0.4
36 0.4
37 0.4
38 0.4
4 -0.76
5 -0.62
6 -0.62
7 -0.62
8 -0.9
9 -0.62

> <PUBCHEM_EFFECTIVE_ROTOR_COUNT>
3

> <PUBCHEM_PHARMACOPHORE_FEATURES>
13
1 10 cation
1 10 donor
1 11 donor
1 2 acceptor
1 3 acceptor
1 4 donor
1 5 acceptor
1 8 donor
3 6 8 20 cation
4 7 9 11 24 cation
6 12 14 15 16 17 18 rings
6 5 6 13 19 20 21 rings
6 7 9 19 21 22 24 rings

> <PUBCHEM_HEAVY_ATOM_COUNT>
24

> <PUBCHEM_ATOM_DEF_STEREO_COUNT>
0

> <PUBCHEM_ATOM_UDEF_STEREO_COUNT>
0

> <PUBCHEM_BOND_DEF_STEREO_COUNT>
0

> <PUBCHEM_BOND_UDEF_STEREO_COUNT>
0

> <PUBCHEM_ISOTOPIC_ATOM_COUNT>
0

> <PUBCHEM_COMPONENT_COUNT>
1

> <PUBCHEM_CACTVS_TAUTO_COUNT>
106

> <PUBCHEM_CONFORMER_ID>
0002059100000001

> <PUBCHEM_MMFF94_ENERGY>
94.4325

> <PUBCHEM_FEATURE_SELFOVERLAP>
66.032

> <PUBCHEM_SHAPE_FINGERPRINT>
10688039 33 18114181912939503093
10906281 52 18338255815758891758
11089746 13 17275100652172811857
11796584 16 17489590103422494591
12107183 9 17623300368262151955
12166972 35 17988924509406245009
12236239 1 17847061107583600862
12516196 113 18413106169268242760
12596602 18 17274536645873694026
12788726 201 18263073340713372337
12838862 33 18340469141798910400
12916748 109 15285354011814039142
13140716 1 18195241351161561122
13533116 47 14907909223672393550
13590594 115 18411698768921724321
13685833 64 18333453148979608179
14251764 18 18272934934207707631
14294032 229 16486150388184738905
14341114 176 18409169909298634029
14386348 63 17894351089994110506
14856354 85 14346085209508727683
15142383 8 18334008359201606165
15183329 4 18411975850130059917
15527383 91 18341894108198815920
15849732 13 18060702801171904365
17349148 13 16917069962770946537
17844677 252 17167865266384297221
17980427 23 17489319576887315561
19141452 34 18261393398900031831
19489759 90 15913330191515204531
200 152 18343862229585478050
20511986 3 17774707740601591890
20567600 75 18114179701479023887
20645477 70 18409446956106566366
21033648 29 17895460510866091861
21033650 10 14563653155677074894
21236236 1 18340486656465267913
21267235 1 18411984625154628998
21279426 13 18189048690861976117
21641784 216 18041295283372067292
21792961 116 18041550344383588246
22224240 67 18271801359468795898
23035841 295 13695587750452897329
23402539 116 14764626417733789345
23536379 177 18412826885130989531
23557571 272 17095234809413022708
23559900 14 18339076094240474241
23622692 88 17775565355445030885
29717793 49 17418099819241197260
300161 21 17917987295693291190
3004659 81 18040997319894028218
345986 75 18199740358656652442
34797466 226 15913052049312108304
4073 2 18042127711809447651
4340502 62 16588020217464639514
4463277 17 18410572894504285532
542803 24 17703790323158180271
59755656 215 18261111850760950262
7495541 125 13768217115853340223
8272917 22 18413393128818197646

> <PUBCHEM_SHAPE_MULTIPOLES>
446.17
16.17
1.8
0.99
7.51
0.19
0.08
-1.01
-0.91
-1.61
0.04
1.36
0
0.15

> <PUBCHEM_SHAPE_SELFOVERLAP>
967.086

> <PUBCHEM_SHAPE_VOLUME>
246.7

> <PUBCHEM_COORDINATE_TYPE>
2
5
10

$$$$
