132489980
  -OEChem-03292013293D

 49 51  0     1  0  0  0  0  0999 V2000
    3.9015   -2.7495   -0.7885 O   0  0  0  0  0  0  0  0  0  0  0  0
    6.1145   -2.3794   -1.0709 O   0  0  0  0  0  0  0  0  0  0  0  0
    3.3145    1.8774   -1.3736 O   0  0  0  0  0  0  0  0  0  0  0  0
   -1.2107    3.7074   -0.1497 O   0  0  0  0  0  0  0  0  0  0  0  0
   -1.2355   -2.2930   -0.3497 O   0  0  0  0  0  0  0  0  0  0  0  0
   -3.4680    2.5359    0.1578 O   0  0  0  0  0  0  0  0  0  0  0  0
   -5.7984    1.5203    0.4755 O   0  0  0  0  0  0  0  0  0  0  0  0
   -6.1421   -3.2035    0.3683 O   0  0  0  0  0  0  0  0  0  0  0  0
    3.2972   -0.2255   -0.3965 N   0  0  0  0  0  0  0  0  0  0  0  0
    5.5259    0.0180    0.6973 C   0  0  2  0  0  0  0  0  0  0  0  0
    4.7141   -0.4809   -0.5231 C   0  0  1  0  0  0  0  0  0  0  0  0
    4.8770   -0.4817    2.0063 C   0  0  0  0  0  0  0  0  0  0  0  0
    5.7080    1.5422    0.6985 C   0  0  0  0  0  0  0  0  0  0  0  0
    5.6528   -0.0948    3.2582 C   0  0  0  0  0  0  0  0  0  0  0  0
   -0.9195    0.0345   -0.3181 C   0  0  0  0  0  0  0  0  0  0  0  0
    4.9943   -1.9492   -0.8175 C   0  0  0  0  0  0  0  0  0  0  0  0
   -1.5030    1.2963   -0.1861 C   0  0  0  0  0  0  0  0  0  0  0  0
    1.2484    1.0695   -0.6141 C   0  0  0  0  0  0  0  0  0  0  0  0
    2.6812    0.9522   -0.8355 C   0  0  0  0  0  0  0  0  0  0  0  0
    0.4594   -0.0782   -0.5326 C   0  0  0  0  0  0  0  0  0  0  0  0
   -3.7841    0.2090    0.1248 C   0  0  0  0  0  0  0  0  0  0  0  0
   -3.2007   -1.0528   -0.0072 C   0  0  0  0  0  0  0  0  0  0  0  0
   -1.7471   -1.1862   -0.2332 C   0  0  0  0  0  0  0  0  0  0  0  0
   -2.9566    1.4297    0.0408 C   0  0  0  0  0  0  0  0  0  0  0  0
   -0.7075    2.4455   -0.2686 C   0  0  0  0  0  0  0  0  0  0  0  0
    0.6661    2.3286   -0.4824 C   0  0  0  0  0  0  0  0  0  0  0  0
   -5.1633    0.3216    0.3383 C   0  0  0  0  0  0  0  0  0  0  0  0
   -3.9962   -2.2020    0.0747 C   0  0  0  0  0  0  0  0  0  0  0  0
   -5.3700   -2.0853    0.2877 C   0  0  0  0  0  0  0  0  0  0  0  0
   -5.9523   -0.8261    0.4190 C   0  0  0  0  0  0  0  0  0  0  0  0
    6.5344   -0.4133    0.6363 H   0  0  0  0  0  0  0  0  0  0  0  0
    5.0561    0.0504   -1.4212 H   0  0  0  0  0  0  0  0  0  0  0  0
    3.8594   -0.0874    2.1115 H   0  0  0  0  0  0  0  0  0  0  0  0
    4.7946   -1.5750    1.9786 H   0  0  0  0  0  0  0  0  0  0  0  0
    4.7744    2.0593    0.9406 H   0  0  0  0  0  0  0  0  0  0  0  0
    6.4602    1.8472    1.4331 H   0  0  0  0  0  0  0  0  0  0  0  0
    6.0546    1.8937   -0.2790 H   0  0  0  0  0  0  0  0  0  0  0  0
    2.7558   -0.9260    0.0989 H   0  0  0  0  0  0  0  0  0  0  0  0
    6.6967   -0.4163    3.1890 H   0  0  0  0  0  0  0  0  0  0  0  0
    5.6301    0.9854    3.4292 H   0  0  0  0  0  0  0  0  0  0  0  0
    5.2088   -0.5749    4.1365 H   0  0  0  0  0  0  0  0  0  0  0  0
    0.8908   -1.0659   -0.6674 H   0  0  0  0  0  0  0  0  0  0  0  0
    1.2736    3.2291   -0.5397 H   0  0  0  0  0  0  0  0  0  0  0  0
   -3.5534   -3.1899   -0.0262 H   0  0  0  0  0  0  0  0  0  0  0  0
   -7.0236   -0.7403    0.5850 H   0  0  0  0  0  0  0  0  0  0  0  0
    4.1256   -3.6836   -0.9869 H   0  0  0  0  0  0  0  0  0  0  0  0
   -2.1685    3.6842   -0.0071 H   0  0  0  0  0  0  0  0  0  0  0  0
   -5.1696    2.2536    0.4025 H   0  0  0  0  0  0  0  0  0  0  0  0
   -5.5768   -3.9870    0.2558 H   0  0  0  0  0  0  0  0  0  0  0  0
  1 16  1  0  0  0  0
  1 46  1  0  0  0  0
  2 16  2  0  0  0  0
  3 19  2  0  0  0  0
  4 25  1  0  0  0  0
  4 47  1  0  0  0  0
  5 23  2  0  0  0  0
  6 24  2  0  0  0  0
  7 27  1  0  0  0  0
  7 48  1  0  0  0  0
  8 29  1  0  0  0  0
  8 49  1  0  0  0  0
  9 11  1  0  0  0  0
  9 19  1  0  0  0  0
  9 38  1  0  0  0  0
 10 11  1  0  0  0  0
 10 12  1  0  0  0  0
 10 13  1  0  0  0  0
 10 31  1  0  0  0  0
 11 16  1  0  0  0  0
 11 32  1  0  0  0  0
 12 14  1  0  0  0  0
 12 33  1  0  0  0  0
 12 34  1  0  0  0  0
 13 35  1  0  0  0  0
 13 36  1  0  0  0  0
 13 37  1  0  0  0  0
 14 39  1  0  0  0  0
 14 40  1  0  0  0  0
 14 41  1  0  0  0  0
 15 17  2  0  0  0  0
 15 20  1  0  0  0  0
 15 23  1  0  0  0  0
 17 24  1  0  0  0  0
 17 25  1  0  0  0  0
 18 19  1  0  0  0  0
 18 20  2  0  0  0  0
 18 26  1  0  0  0  0
 20 42  1  0  0  0  0
 21 22  2  0  0  0  0
 21 24  1  0  0  0  0
 21 27  1  0  0  0  0
 22 23  1  0  0  0  0
 22 28  1  0  0  0  0
 25 26  2  0  0  0  0
 26 43  1  0  0  0  0
 27 30  2  0  0  0  0
 28 29  2  0  0  0  0
 28 44  1  0  0  0  0
 29 30  1  0  0  0  0
 30 45  1  0  0  0  0
M  END
> <PUBCHEM_COMPOUND_CID>
132489980

> <PUBCHEM_CONFORMER_RMSD>
0.8

> <PUBCHEM_CONFORMER_DIVERSEORDER>
2
10
4
6
34
9
29
8
22
13
33
5
3
7
17
35
15
1
18
28
14
16
19
12
27
37
11
21
36
31
25
20
30
32
26
38
23
24

> <PUBCHEM_MMFF94_PARTIAL_CHARGES>
35
1 -0.65
11 0.36
15 0.09
16 0.66
17 0.09
18 0.09
19 0.54
2 -0.57
20 -0.15
21 0.09
22 0.09
23 0.4
24 0.4
25 0.08
26 -0.15
27 0.08
28 -0.15
29 0.08
3 -0.57
30 -0.15
38 0.37
4 -0.53
42 0.15
43 0.15
44 0.15
45 0.15
46 0.5
47 0.45
48 0.45
49 0.45
5 -0.57
6 -0.57
7 -0.53
8 -0.53
9 -0.73

> <PUBCHEM_EFFECTIVE_ROTOR_COUNT>
6

> <PUBCHEM_PHARMACOPHORE_FEATURES>
15
1 1 acceptor
1 13 hydrophobe
1 14 hydrophobe
1 2 acceptor
1 3 acceptor
1 4 donor
1 5 acceptor
1 6 acceptor
1 7 donor
1 8 donor
1 9 donor
3 1 2 16 anion
6 15 17 18 20 25 26 rings
6 15 17 21 22 23 24 rings
6 21 22 27 28 29 30 rings

> <PUBCHEM_HEAVY_ATOM_COUNT>
30

> <PUBCHEM_ATOM_DEF_STEREO_COUNT>
2

> <PUBCHEM_ATOM_UDEF_STEREO_COUNT>
0

> <PUBCHEM_BOND_DEF_STEREO_COUNT>
0

> <PUBCHEM_BOND_UDEF_STEREO_COUNT>
0

> <PUBCHEM_ISOTOPIC_ATOM_COUNT>
0

> <PUBCHEM_COMPONENT_COUNT>
1

> <PUBCHEM_CACTVS_TAUTO_COUNT>
114

> <PUBCHEM_CONFORMER_ID>
07E5A2FC00000002

> <PUBCHEM_MMFF94_ENERGY>
84.2558

> <PUBCHEM_FEATURE_SELFOVERLAP>
76.225

> <PUBCHEM_SHAPE_FINGERPRINT>
10319926 262 18342737390482875200
10939801 23 18265894855676143408
11443803 9 18115317812869848780
12236239 1 17967532393363174197
12342043 65 17916596319691252430
12422481 6 17989207031695450055
13533116 47 17632297827000680278
13692114 37 16959827534323589332
13782708 43 17775286023942182150
14211702 104 18187653560593002411
14347332 77 18260265278716169381
14394314 77 18333729122050978529
15001296 14 17895755217940300218
15042514 8 18410580556963539437
15131766 46 15624785415051895808
15183329 4 17967250905733624975
15196674 1 18338243755770540085
17492 89 18410014304333040502
17857418 61 17967809461650425520
17980427 23 13182743688734236457
1813 80 17530967977661327764
18608769 82 18412827959041969430
1979834 28 18131074844291146766
20028762 73 18410295830322474446
21033648 29 17632566150159523776
21130935 74 18273220793734812303
21267235 1 18336560347248731263
21279426 13 18334857212764870151
21792934 111 18342459236502503473
21859007 373 17896585207438625077
22061861 79 13984659235503406306
22122407 14 15841267043372751608
23559900 14 18412263956167536716
23569914 152 12110826417827245387
3004659 81 18114187449373166094
312425 54 18130511825106019857
335352 9 18410017603253019893
3383291 50 18260833747666598307
3680242 22 17967529060895970442
3882209 13 17192038248048294278
3886686 26 17254816600177147362
397830 11 16056312976634571143
5104073 3 18201723907850996264
6823239 73 18342178813940297726

> <PUBCHEM_SHAPE_MULTIPOLES>
565.45
16.52
3.33
1.38
3.87
0.25
1.21
-8.8
5.31
-1.88
-0.65
3.5
-0.23
0.77

> <PUBCHEM_SHAPE_SELFOVERLAP>
1238.57

> <PUBCHEM_SHAPE_VOLUME>
302.8

> <PUBCHEM_COORDINATE_TYPE>
2
5
10

$$$$
