13248214
  -OEChem-03292013303D

 32 33  0     1  0  0  0  0  0999 V2000
    1.5790   -0.2053   -0.9943 O   0  0  0  0  0  0  0  0  0  0  0  0
    3.8279    1.6094    0.0163 O   0  0  0  0  0  0  0  0  0  0  0  0
    2.3018   -2.8766   -0.5518 O   0  0  0  0  0  0  0  0  0  0  0  0
   -1.1626    2.8009   -0.4065 O   0  0  0  0  0  0  0  0  0  0  0  0
   -4.3857   -0.4048    0.0825 O   0  0  0  0  0  0  0  0  0  0  0  0
   -0.4466    0.6022   -0.1459 N   0  0  0  0  0  0  0  0  0  0  0  0
   -2.1686   -1.1104    0.1153 N   0  0  0  0  0  0  0  0  0  0  0  0
   -2.7192    1.1702    0.0175 N   0  0  0  0  0  0  0  0  0  0  0  0
    0.9436    0.8983   -0.3336 C   0  0  1  0  0  0  0  0  0  0  0  0
    1.6798    1.1268    0.9764 C   0  0  0  0  0  0  0  0  0  0  0  0
    3.0627    0.5996    0.6705 C   0  0  1  0  0  0  0  0  0  0  0  0
    2.7891   -0.5480   -0.2916 C   0  0  1  0  0  0  0  0  0  0  0  0
   -0.7867   -0.7235    0.3395 C   0  0  0  0  0  0  0  0  0  0  0  0
    2.5579   -1.8751    0.4194 C   0  0  0  0  0  0  0  0  0  0  0  0
   -1.4074    1.6135   -0.1844 C   0  0  0  0  0  0  0  0  0  0  0  0
   -3.1798   -0.1494    0.0846 C   0  0  0  0  0  0  0  0  0  0  0  0
   -2.4853   -2.5278    0.1860 C   0  0  0  0  0  0  0  0  0  0  0  0
    1.0535    1.7747   -0.9830 H   0  0  0  0  0  0  0  0  0  0  0  0
    1.2411    0.5469    1.7957 H   0  0  0  0  0  0  0  0  0  0  0  0
    1.6589    2.1820    1.2672 H   0  0  0  0  0  0  0  0  0  0  0  0
    3.6170    0.2918    1.5621 H   0  0  0  0  0  0  0  0  0  0  0  0
    3.5767   -0.6559   -1.0456 H   0  0  0  0  0  0  0  0  0  0  0  0
   -0.1804   -1.4713   -0.1720 H   0  0  0  0  0  0  0  0  0  0  0  0
   -0.6012   -0.7652    1.4176 H   0  0  0  0  0  0  0  0  0  0  0  0
    1.7119   -1.8463    1.1108 H   0  0  0  0  0  0  0  0  0  0  0  0
    3.4480   -2.1717    0.9827 H   0  0  0  0  0  0  0  0  0  0  0  0
    3.9315    2.3468    0.6418 H   0  0  0  0  0  0  0  0  0  0  0  0
   -3.4368    1.8900    0.0064 H   0  0  0  0  0  0  0  0  0  0  0  0
   -3.5436   -2.7082   -0.0192 H   0  0  0  0  0  0  0  0  0  0  0  0
   -2.2505   -2.8893    1.1913 H   0  0  0  0  0  0  0  0  0  0  0  0
   -1.8816   -3.0658   -0.5503 H   0  0  0  0  0  0  0  0  0  0  0  0
    1.5520   -2.5800   -1.0947 H   0  0  0  0  0  0  0  0  0  0  0  0
  1  9  1  0  0  0  0
  1 12  1  0  0  0  0
  2 11  1  0  0  0  0
  2 27  1  0  0  0  0
  3 14  1  0  0  0  0
  3 32  1  0  0  0  0
  4 15  2  0  0  0  0
  5 16  2  0  0  0  0
  6  9  1  0  0  0  0
  6 13  1  0  0  0  0
  6 15  1  0  0  0  0
  7 13  1  0  0  0  0
  7 16  1  0  0  0  0
  7 17  1  0  0  0  0
  8 15  1  0  0  0  0
  8 16  1  0  0  0  0
  8 28  1  0  0  0  0
  9 10  1  0  0  0  0
  9 18  1  0  0  0  0
 10 11  1  0  0  0  0
 10 19  1  0  0  0  0
 10 20  1  0  0  0  0
 11 12  1  0  0  0  0
 11 21  1  0  0  0  0
 12 14  1  0  0  0  0
 12 22  1  0  0  0  0
 13 23  1  0  0  0  0
 13 24  1  0  0  0  0
 14 25  1  0  0  0  0
 14 26  1  0  0  0  0
 17 29  1  0  0  0  0
 17 30  1  0  0  0  0
 17 31  1  0  0  0  0
M  END
> <PUBCHEM_COMPOUND_CID>
13248214

> <PUBCHEM_CONFORMER_RMSD>
0.6

> <PUBCHEM_CONFORMER_DIVERSEORDER>
1
9
13
7
12
10
6
11
8
2
4
5
3

> <PUBCHEM_MMFF94_PARTIAL_CHARGES>
19
1 -0.56
11 0.28
12 0.28
13 0.6
14 0.28
15 0.69
16 0.69
17 0.3
2 -0.68
27 0.4
28 0.37
3 -0.68
32 0.4
4 -0.57
5 -0.57
6 -0.66
7 -0.66
8 -0.49
9 0.58

> <PUBCHEM_EFFECTIVE_ROTOR_COUNT>
3.8

> <PUBCHEM_PHARMACOPHORE_FEATURES>
10
1 1 acceptor
1 2 acceptor
1 2 donor
1 3 acceptor
1 3 donor
1 4 acceptor
1 5 acceptor
1 8 donor
5 1 9 10 11 12 rings
6 6 7 8 13 15 16 rings

> <PUBCHEM_HEAVY_ATOM_COUNT>
17

> <PUBCHEM_ATOM_DEF_STEREO_COUNT>
3

> <PUBCHEM_ATOM_UDEF_STEREO_COUNT>
0

> <PUBCHEM_BOND_DEF_STEREO_COUNT>
0

> <PUBCHEM_BOND_UDEF_STEREO_COUNT>
0

> <PUBCHEM_ISOTOPIC_ATOM_COUNT>
0

> <PUBCHEM_COMPONENT_COUNT>
1

> <PUBCHEM_CACTVS_TAUTO_COUNT>
3

> <PUBCHEM_CONFORMER_ID>
00CA26D600000001

> <PUBCHEM_MMFF94_ENERGY>
40.6624

> <PUBCHEM_FEATURE_SELFOVERLAP>
50.753

> <PUBCHEM_SHAPE_FINGERPRINT>
10366900 7 18130218367170741369
10608611 8 18411413973565443896
10616163 171 18338237184006580642
10618630 7 18334295374775474287
10922523 26 18187927240135011567
10967382 1 18410292535970950523
12382932 28 18338234976345742539
12500047 106 18336820892681081277
12553582 1 18047767175994996979
14144814 61 18410012109066480537
14178342 30 18196084662999162595
14252887 29 18335993046609340963
15219456 202 18341608192183690688
15375358 24 18335696195470303761
15375462 6 18411417315134207932
15442244 35 18194682566614325274
16945 1 18409450288573627788
17804303 29 18267309716175932350
17834074 16 18411700963285106106
19049666 15 18198053686376591784
19107657 46 18338516455617569695
19784866 170 18339359789821116000
20201158 50 18412262865076551266
20510252 161 18341049627719277393
20645477 70 18342453716694184991
20711985 365 18264767666624646441
21501502 16 18340769239073503456
23184049 29 18337667491059687930
23402539 116 18115858762882083496
23559900 14 18410851036829038980
2748010 2 18191020097598218373
34934 24 18337947991189624591
58051976 378 18411136970002941108
69090 78 18342452656179985063
7364860 26 18341613685874104214
81228 2 18259991444249401497
8809292 202 18339365141260539962
9709674 26 18411139099848030678

> <PUBCHEM_SHAPE_MULTIPOLES>
305.56
6.39
2.69
0.77
1.51
0.85
0.03
0.88
0.41
-0.11
-0.22
-0.34
-0.01
0.48

> <PUBCHEM_SHAPE_SELFOVERLAP>
632.227

> <PUBCHEM_SHAPE_VOLUME>
173.8

> <PUBCHEM_COORDINATE_TYPE>
2
5
10

$$$$
