132472107
  -OEChem-03292013293D

 65 68  0     1  0  0  0  0  0999 V2000
   -0.4011   -2.4533    0.4160 O   0  0  0  0  0  0  0  0  0  0  0  0
   -0.7236   -0.3466   -2.5058 O   0  0  0  0  0  0  0  0  0  0  0  0
   -2.0425    3.3508    0.4037 O   0  0  0  0  0  0  0  0  0  0  0  0
    3.7241    0.9422   -0.6632 O   0  0  0  0  0  0  0  0  0  0  0  0
   -2.9378    1.2189   -2.3897 O   0  0  0  0  0  0  0  0  0  0  0  0
   -0.5321   -4.1989   -1.0914 O   0  0  0  0  0  0  0  0  0  0  0  0
    5.7541    1.5270    0.2718 O   0  0  0  0  0  0  0  0  0  0  0  0
    0.3394    0.5285    0.8955 C   0  0  1  0  0  0  0  0  0  0  0  0
   -0.9785    1.1494    0.2208 C   0  0  1  0  0  0  0  0  0  0  0  0
   -1.9380    0.0918   -0.4279 C   0  0  1  0  0  0  0  0  0  0  0  0
    0.9945   -0.4823   -0.1296 C   0  0  2  0  0  0  0  0  0  0  0  0
   -1.2146   -0.9491   -1.3017 C   0  0  2  0  0  0  0  0  0  0  0  0
    0.0064   -1.5783   -0.6199 C   0  0  2  0  0  0  0  0  0  0  0  0
    2.4525   -0.9898    0.2154 C   0  0  0  0  0  0  0  0  0  0  0  0
   -2.8639   -0.5518    0.6273 C   0  0  0  0  0  0  0  0  0  0  0  0
   -1.7464    2.1583    1.1465 C   0  0  2  0  0  0  0  0  0  0  0  0
    1.3631    1.6889    1.1240 C   0  0  0  0  0  0  0  0  0  0  0  0
   -3.8143    0.5855    1.0015 C   0  0  1  0  0  0  0  0  0  0  0  0
   -3.0483    1.6460    1.8043 C   0  0  0  0  0  0  0  0  0  0  0  0
    3.3726    0.2311    0.5289 C   0  0  2  0  0  0  0  0  0  0  0  0
   -3.0202    0.8332   -1.2350 C   0  0  0  0  0  0  0  0  0  0  0  0
    0.0322   -0.0794    2.2850 C   0  0  0  0  0  0  0  0  0  0  0  0
    2.7701    1.2262    1.5169 C   0  0  0  0  0  0  0  0  0  0  0  0
   -4.1998    1.0831   -0.3570 C   0  0  0  0  0  0  0  0  0  0  0  0
    2.5256   -1.9944    1.3830 C   0  0  0  0  0  0  0  0  0  0  0  0
    3.0518   -1.7321   -1.0131 C   0  0  0  0  0  0  0  0  0  0  0  0
   -5.3548    1.6009   -0.7745 C   0  0  0  0  0  0  0  0  0  0  0  0
   -0.6388   -3.7442    0.0395 C   0  0  0  0  0  0  0  0  0  0  0  0
    4.9489    1.5429   -0.6494 C   0  0  0  0  0  0  0  0  0  0  0  0
   -1.0597   -4.5492    1.2315 C   0  0  0  0  0  0  0  0  0  0  0  0
    5.1792    2.2446   -1.9534 C   0  0  0  0  0  0  0  0  0  0  0  0
   -0.6052    1.7475   -0.6262 H   0  0  0  0  0  0  0  0  0  0  0  0
    1.1693    0.1394   -1.0238 H   0  0  0  0  0  0  0  0  0  0  0  0
   -1.9179   -1.7340   -1.6059 H   0  0  0  0  0  0  0  0  0  0  0  0
    0.5336   -2.1436   -1.3970 H   0  0  0  0  0  0  0  0  0  0  0  0
   -2.3503   -0.9474    1.5019 H   0  0  0  0  0  0  0  0  0  0  0  0
   -3.4316   -1.3876    0.1931 H   0  0  0  0  0  0  0  0  0  0  0  0
   -1.0955    2.5143    1.9487 H   0  0  0  0  0  0  0  0  0  0  0  0
    1.0098    2.3741    1.9025 H   0  0  0  0  0  0  0  0  0  0  0  0
    1.4455    2.2876    0.2072 H   0  0  0  0  0  0  0  0  0  0  0  0
   -4.6743    0.2127    1.5671 H   0  0  0  0  0  0  0  0  0  0  0  0
   -3.7183    2.4873    2.0224 H   0  0  0  0  0  0  0  0  0  0  0  0
   -2.7924    1.1971    2.7721 H   0  0  0  0  0  0  0  0  0  0  0  0
    4.2925   -0.1714    0.9761 H   0  0  0  0  0  0  0  0  0  0  0  0
    0.9201   -0.1851    2.9080 H   0  0  0  0  0  0  0  0  0  0  0  0
   -0.6269    0.5595    2.8763 H   0  0  0  0  0  0  0  0  0  0  0  0
   -0.4281   -1.0633    2.2437 H   0  0  0  0  0  0  0  0  0  0  0  0
    3.4043    2.1183    1.5901 H   0  0  0  0  0  0  0  0  0  0  0  0
    2.7573    0.7885    2.5199 H   0  0  0  0  0  0  0  0  0  0  0  0
    1.8974   -2.8715    1.2130 H   0  0  0  0  0  0  0  0  0  0  0  0
    4.1281   -1.8977   -0.8831 H   0  0  0  0  0  0  0  0  0  0  0  0
    2.9143   -1.1630   -1.9390 H   0  0  0  0  0  0  0  0  0  0  0  0
    2.5975   -2.7184   -1.1554 H   0  0  0  0  0  0  0  0  0  0  0  0
    2.2587   -1.5652    2.3461 H   0  0  0  0  0  0  0  0  0  0  0  0
    3.5504   -2.3705    1.4984 H   0  0  0  0  0  0  0  0  0  0  0  0
   -1.4908   -0.1181   -3.0569 H   0  0  0  0  0  0  0  0  0  0  0  0
   -2.4320    3.9941    1.0201 H   0  0  0  0  0  0  0  0  0  0  0  0
   -6.1813    1.7353   -0.0849 H   0  0  0  0  0  0  0  0  0  0  0  0
   -5.5045    1.9025   -1.8053 H   0  0  0  0  0  0  0  0  0  0  0  0
   -0.2609   -4.5513    1.9773 H   0  0  0  0  0  0  0  0  0  0  0  0
   -1.2525   -5.5807    0.9233 H   0  0  0  0  0  0  0  0  0  0  0  0
   -1.9786   -4.1334    1.6524 H   0  0  0  0  0  0  0  0  0  0  0  0
    5.1548    1.5215   -2.7725 H   0  0  0  0  0  0  0  0  0  0  0  0
    6.1629    2.7225   -1.9395 H   0  0  0  0  0  0  0  0  0  0  0  0
    4.4189    3.0164   -2.0978 H   0  0  0  0  0  0  0  0  0  0  0  0
  1 13  1  0  0  0  0
  1 28  1  0  0  0  0
  2 12  1  0  0  0  0
  2 56  1  0  0  0  0
  3 16  1  0  0  0  0
  3 57  1  0  0  0  0
  4 20  1  0  0  0  0
  4 29  1  0  0  0  0
  5 21  2  0  0  0  0
  6 28  2  0  0  0  0
  7 29  2  0  0  0  0
  8  9  1  0  0  0  0
  8 11  1  0  0  0  0
  8 17  1  0  0  0  0
  8 22  1  0  0  0  0
  9 10  1  0  0  0  0
  9 16  1  0  0  0  0
  9 32  1  0  0  0  0
 10 12  1  0  0  0  0
 10 15  1  0  0  0  0
 10 21  1  0  0  0  0
 11 13  1  0  0  0  0
 11 14  1  0  0  0  0
 11 33  1  0  0  0  0
 12 13  1  0  0  0  0
 12 34  1  0  0  0  0
 13 35  1  0  0  0  0
 14 20  1  0  0  0  0
 14 25  1  0  0  0  0
 14 26  1  0  0  0  0
 15 18  1  0  0  0  0
 15 36  1  0  0  0  0
 15 37  1  0  0  0  0
 16 19  1  0  0  0  0
 16 38  1  0  0  0  0
 17 23  1  0  0  0  0
 17 39  1  0  0  0  0
 17 40  1  0  0  0  0
 18 19  1  0  0  0  0
 18 24  1  0  0  0  0
 18 41  1  0  0  0  0
 19 42  1  0  0  0  0
 19 43  1  0  0  0  0
 20 23  1  0  0  0  0
 20 44  1  0  0  0  0
 21 24  1  0  0  0  0
 22 45  1  0  0  0  0
 22 46  1  0  0  0  0
 22 47  1  0  0  0  0
 23 48  1  0  0  0  0
 23 49  1  0  0  0  0
 24 27  2  0  0  0  0
 25 50  1  0  0  0  0
 25 54  1  0  0  0  0
 25 55  1  0  0  0  0
 26 51  1  0  0  0  0
 26 52  1  0  0  0  0
 26 53  1  0  0  0  0
 27 58  1  0  0  0  0
 27 59  1  0  0  0  0
 28 30  1  0  0  0  0
 29 31  1  0  0  0  0
 30 60  1  0  0  0  0
 30 61  1  0  0  0  0
 30 62  1  0  0  0  0
 31 63  1  0  0  0  0
 31 64  1  0  0  0  0
 31 65  1  0  0  0  0
M  END
> <PUBCHEM_COMPOUND_CID>
132472107

> <PUBCHEM_CONFORMER_RMSD>
0.8

> <PUBCHEM_CONFORMER_DIVERSEORDER>
3
4
2
1

> <PUBCHEM_MMFF94_PARTIAL_CHARGES>
24
1 -0.43
10 0.06
12 0.28
13 0.28
16 0.28
18 0.14
2 -0.68
20 0.28
21 0.49
24 -0.12
27 -0.3
28 0.66
29 0.66
3 -0.68
30 0.06
31 0.06
4 -0.43
5 -0.57
56 0.4
57 0.4
58 0.15
59 0.15
6 -0.57
7 -0.57

> <PUBCHEM_EFFECTIVE_ROTOR_COUNT>
5.8

> <PUBCHEM_PHARMACOPHORE_FEATURES>
11
1 2 acceptor
1 2 donor
1 3 acceptor
1 3 donor
1 5 acceptor
1 6 acceptor
1 7 acceptor
3 14 25 26 hydrophobe
6 8 11 14 17 20 23 rings
6 8 9 10 11 12 13 rings
8 9 10 15 16 18 19 21 24 rings

> <PUBCHEM_HEAVY_ATOM_COUNT>
31

> <PUBCHEM_ATOM_DEF_STEREO_COUNT>
8

> <PUBCHEM_ATOM_UDEF_STEREO_COUNT>
1

> <PUBCHEM_BOND_DEF_STEREO_COUNT>
0

> <PUBCHEM_BOND_UDEF_STEREO_COUNT>
0

> <PUBCHEM_ISOTOPIC_ATOM_COUNT>
0

> <PUBCHEM_COMPONENT_COUNT>
1

> <PUBCHEM_CACTVS_TAUTO_COUNT>
1

> <PUBCHEM_CONFORMER_ID>
07E55D2B00000003

> <PUBCHEM_MMFF94_ENERGY>
127.3451

> <PUBCHEM_FEATURE_SELFOVERLAP>
55.856

> <PUBCHEM_SHAPE_FINGERPRINT>
10165383 225 18408608079862275893
10863032 1 18412260632057625827
11582403 64 15362143869396337255
12156800 1 17616578284882651351
12160290 23 18123730200584630734
12173636 292 18340493283050711828
12788726 201 18194951070648344943
13140716 1 18269816697524799363
13224815 77 18058721399572322025
133893 2 17908412564097856899
13583140 156 17385725755754346512
13911987 19 18408599267075149429
14713325 29 18195539309895965754
14787075 74 18341889727759656559
14790565 3 18271253715835202129
15131766 46 17025165278865553692
15463212 79 18115016528453682194
16752209 62 17346313752471551305
16945 1 17774991376031352431
17492 54 18202561774255491877
17980427 23 17167868590825874621
20691752 17 18126536055664033697
20905425 154 17339277814504114363
21033650 10 17345776104851154304
21120745 212 17539424523111312527
21756936 100 18272655666580599032
23227448 37 18264214793076309396
23366157 5 17905050248855192451
23559900 14 17827915131621612887
35225 105 18114450275465260539
3759504 43 18410012173375081703
4058900 60 18265061245056704161
469060 322 17024026149783984199
474 4 18341047398303793535
633830 44 18128542565510650519
7808743 9 18188773984716852556

> <PUBCHEM_SHAPE_MULTIPOLES>
596.88
8.76
4.06
1.94
5.7
5.34
0.32
-8.1
2.47
-0.37
-0.31
-0.2
-0.37
-0.57

> <PUBCHEM_SHAPE_SELFOVERLAP>
1273.69

> <PUBCHEM_SHAPE_VOLUME>
322.1

> <PUBCHEM_COORDINATE_TYPE>
2
5
10

$$$$
