132489
  -OEChem-03292013323D

 47 48  0     1  0  0  0  0  0999 V2000
    0.5662   -0.3251    1.4614 O   0  0  0  0  0  0  0  0  0  0  0  0
    3.7481   -0.3346    1.4764 O   0  0  0  0  0  0  0  0  0  0  0  0
   -1.8458   -0.0606   -1.5223 O   0  0  0  0  0  0  0  0  0  0  0  0
   -5.1431   -2.3902   -0.6607 O   0  0  0  0  0  0  0  0  0  0  0  0
    1.9409   -0.4064   -0.3988 N   0  0  0  0  0  0  0  0  0  0  0  0
   -1.0846    1.2563    0.2420 N   0  0  0  0  0  0  0  0  0  0  0  0
   -4.2596   -0.2220   -0.6322 N   0  0  0  0  0  0  0  0  0  0  0  0
    4.2245   -2.5844    1.3990 N   0  0  0  0  0  0  0  0  0  0  0  0
    2.5591   -1.6899   -0.0931 C   0  0  1  0  0  0  0  0  0  0  0  0
    3.2372   -2.1122   -1.3912 C   0  0  0  0  0  0  0  0  0  0  0  0
    2.4053    0.1091   -1.6841 C   0  0  0  0  0  0  0  0  0  0  0  0
    3.5773   -0.7838   -2.0623 C   0  0  0  0  0  0  0  0  0  0  0  0
    0.2829    1.3815   -0.1744 C   0  0  2  0  0  0  0  0  0  0  0  0
    0.9317    0.1384    0.3799 C   0  0  0  0  0  0  0  0  0  0  0  0
    0.9266    2.6458    0.3744 C   0  0  0  0  0  0  0  0  0  0  0  0
   -3.3791    0.5508    0.1974 C   0  0  1  0  0  0  0  0  0  0  0  0
    3.5540   -1.4515    1.0027 C   0  0  0  0  0  0  0  0  0  0  0  0
   -3.3816   -0.1938    1.5190 C   0  0  0  0  0  0  0  0  0  0  0  0
   -2.0411    0.5420   -0.4699 C   0  0  0  0  0  0  0  0  0  0  0  0
   -3.6905   -1.6410    1.1364 C   0  0  0  0  0  0  0  0  0  0  0  0
    0.3191    3.9149   -0.2282 C   0  0  0  0  0  0  0  0  0  0  0  0
   -4.4762   -1.5065   -0.1450 C   0  0  0  0  0  0  0  0  0  0  0  0
    1.0285    5.1631    0.2735 C   0  0  0  0  0  0  0  0  0  0  0  0
    1.8071   -2.4085    0.2501 H   0  0  0  0  0  0  0  0  0  0  0  0
    4.1211   -2.7439   -1.2662 H   0  0  0  0  0  0  0  0  0  0  0  0
    2.5201   -2.6560   -2.0188 H   0  0  0  0  0  0  0  0  0  0  0  0
    1.5907    0.0002   -2.4085 H   0  0  0  0  0  0  0  0  0  0  0  0
    2.6857    1.1628   -1.6098 H   0  0  0  0  0  0  0  0  0  0  0  0
    3.7066   -0.8729   -3.1444 H   0  0  0  0  0  0  0  0  0  0  0  0
    4.5062   -0.3821   -1.6398 H   0  0  0  0  0  0  0  0  0  0  0  0
    0.2917    1.3868   -1.2672 H   0  0  0  0  0  0  0  0  0  0  0  0
    0.8279    2.6795    1.4676 H   0  0  0  0  0  0  0  0  0  0  0  0
    2.0038    2.6292    0.1673 H   0  0  0  0  0  0  0  0  0  0  0  0
   -3.7524    1.5756    0.2815 H   0  0  0  0  0  0  0  0  0  0  0  0
   -1.3527    1.6814    1.1253 H   0  0  0  0  0  0  0  0  0  0  0  0
   -4.1972    0.1859    2.1477 H   0  0  0  0  0  0  0  0  0  0  0  0
   -2.4571   -0.1165    2.0983 H   0  0  0  0  0  0  0  0  0  0  0  0
   -4.2782   -2.1480    1.9055 H   0  0  0  0  0  0  0  0  0  0  0  0
   -2.7746   -2.2038    0.9304 H   0  0  0  0  0  0  0  0  0  0  0  0
    0.3916    3.8787   -1.3215 H   0  0  0  0  0  0  0  0  0  0  0  0
   -0.7448    3.9841    0.0251 H   0  0  0  0  0  0  0  0  0  0  0  0
   -4.6536    0.1148   -1.5052 H   0  0  0  0  0  0  0  0  0  0  0  0
    4.9285   -2.5451    2.1286 H   0  0  0  0  0  0  0  0  0  0  0  0
    4.0358   -3.4974    0.9977 H   0  0  0  0  0  0  0  0  0  0  0  0
    0.9520    5.2464    1.3623 H   0  0  0  0  0  0  0  0  0  0  0  0
    2.0892    5.1472    0.0033 H   0  0  0  0  0  0  0  0  0  0  0  0
    0.5791    6.0578   -0.1685 H   0  0  0  0  0  0  0  0  0  0  0  0
  1 14  2  0  0  0  0
  2 17  2  0  0  0  0
  3 19  2  0  0  0  0
  4 22  2  0  0  0  0
  5  9  1  0  0  0  0
  5 11  1  0  0  0  0
  5 14  1  0  0  0  0
  6 13  1  0  0  0  0
  6 19  1  0  0  0  0
  6 35  1  0  0  0  0
  7 16  1  0  0  0  0
  7 22  1  0  0  0  0
  7 42  1  0  0  0  0
  8 17  1  0  0  0  0
  8 43  1  0  0  0  0
  8 44  1  0  0  0  0
  9 10  1  0  0  0  0
  9 17  1  0  0  0  0
  9 24  1  0  0  0  0
 10 12  1  0  0  0  0
 10 25  1  0  0  0  0
 10 26  1  0  0  0  0
 11 12  1  0  0  0  0
 11 27  1  0  0  0  0
 11 28  1  0  0  0  0
 12 29  1  0  0  0  0
 12 30  1  0  0  0  0
 13 14  1  0  0  0  0
 13 15  1  0  0  0  0
 13 31  1  0  0  0  0
 15 21  1  0  0  0  0
 15 32  1  0  0  0  0
 15 33  1  0  0  0  0
 16 18  1  0  0  0  0
 16 19  1  0  0  0  0
 16 34  1  0  0  0  0
 18 20  1  0  0  0  0
 18 36  1  0  0  0  0
 18 37  1  0  0  0  0
 20 22  1  0  0  0  0
 20 38  1  0  0  0  0
 20 39  1  0  0  0  0
 21 23  1  0  0  0  0
 21 40  1  0  0  0  0
 21 41  1  0  0  0  0
 23 45  1  0  0  0  0
 23 46  1  0  0  0  0
 23 47  1  0  0  0  0
M  END
> <PUBCHEM_COMPOUND_CID>
132489

> <PUBCHEM_CONFORMER_RMSD>
1

> <PUBCHEM_CONFORMER_DIVERSEORDER>
1
47
48
38
58
63
78
100
66
99
74
98
6
93
56
53
61
86
91
68
31
20
83
65
29
21
94
54
88
9
22
84
67
95
7
90
19
8
72
73
79
87
85
36
46
64
55
76
80
77
4
10
70
45
40
49
50
13
52
25
39
12
5
16
43
33
103
57
42
34
102
82
75
15
18
101
41
71
14
89
69
32
27
60
23
26
104
17
30
105
35
96
59
44
11
97
51
106
37
92
81
24
2
62
28
3

> <PUBCHEM_MMFF94_PARTIAL_CHARGES>
21
1 -0.57
11 0.3
13 0.36
14 0.57
16 0.36
17 0.57
19 0.57
2 -0.57
20 0.06
22 0.57
3 -0.57
35 0.37
4 -0.57
42 0.37
43 0.37
44 0.37
5 -0.66
6 -0.73
7 -0.73
8 -0.8
9 0.36

> <PUBCHEM_EFFECTIVE_ROTOR_COUNT>
9.8

> <PUBCHEM_PHARMACOPHORE_FEATURES>
10
1 1 acceptor
1 2 acceptor
1 23 hydrophobe
1 3 acceptor
1 4 acceptor
1 6 donor
1 7 donor
1 8 donor
5 5 9 10 11 12 rings
5 7 16 18 20 22 rings

> <PUBCHEM_HEAVY_ATOM_COUNT>
23

> <PUBCHEM_ATOM_DEF_STEREO_COUNT>
3

> <PUBCHEM_ATOM_UDEF_STEREO_COUNT>
0

> <PUBCHEM_BOND_DEF_STEREO_COUNT>
0

> <PUBCHEM_BOND_UDEF_STEREO_COUNT>
0

> <PUBCHEM_ISOTOPIC_ATOM_COUNT>
0

> <PUBCHEM_COMPONENT_COUNT>
1

> <PUBCHEM_CACTVS_TAUTO_COUNT>
12

> <PUBCHEM_CONFORMER_ID>
0002058900000001

> <PUBCHEM_MMFF94_ENERGY>
50.4336

> <PUBCHEM_FEATURE_SELFOVERLAP>
50.747

> <PUBCHEM_SHAPE_FINGERPRINT>
11578080 2 17677592238123733324
121448 382 10954609780173188121
12363563 72 18409731729317161659
12553582 1 18338531750254313875
12596599 1 18272942613367029819
12707595 3 18408610270532954159
12788726 201 18046926882522496144
12892183 10 16128375952356269491
13533116 47 17985555687757611875
13681431 1 18342462572811533552
13878862 14 9870100868816397331
13955234 65 18122347045527860953
14251757 5 18120387457956483245
14787075 74 18040992973413446912
15342816 4 18410015420607832030
15842332 3 17463997669612023974
1813 80 18343867701363439005
18186145 218 12252195051442096798
18222031 100 18273217495378796759
20600515 1 18271236106516657321
20645477 70 18267581502291667519
20671657 53 18409726266414134545
21304303 282 17108156050935625964
21452121 199 18335420158159975816
2255824 54 18197785607255346733
23366157 5 18191030199588574061
23557571 272 18123742068074849472
23559900 14 18338507647340979857
23598288 3 17901121732158237001
3286 77 18187919612420806303
38570 142 13469822906387818546
463206 1 18187362104223449235
621550 5 17130166221177135636
633830 44 11746940901373660747
6669772 16 17905893931189343564
7615 1 17534641308876728580
81228 2 17981608165192074776
9709674 26 18190174775684507843
9841814 1 18411142471349586585
9981440 41 13770499779782140804

> <PUBCHEM_SHAPE_MULTIPOLES>
429.93
8.95
4.28
1.6
6.73
7.61
0.13
-9.42
0.04
-2.14
-0.42
-1.25
-0.82
-0.31

> <PUBCHEM_SHAPE_SELFOVERLAP>
887.263

> <PUBCHEM_SHAPE_VOLUME>
247.7

> <PUBCHEM_COORDINATE_TYPE>
2
5
10

$$$$
