132488008
  -OEChem-03292013293D

 57 58  0     1  0  0  0  0  0999 V2000
   -0.5953   -2.0906   -0.5518 O   0  0  0  0  0  0  0  0  0  0  0  0
    6.2041   -1.5140   -0.4981 O   0  0  0  0  0  0  0  0  0  0  0  0
   -1.0968    2.9334    1.0934 O   0  0  0  0  0  0  0  0  0  0  0  0
   -3.1073    0.2630    2.2678 O   0  0  0  0  0  0  0  0  0  0  0  0
    3.1893    2.0982    1.3285 O   0  0  0  0  0  0  0  0  0  0  0  0
    0.9157   -1.0731    0.8895 N   0  0  0  0  0  0  0  0  0  0  0  0
    2.0148    2.5717   -0.6263 N   0  0  0  0  0  0  0  0  0  0  0  0
   -4.8178   -0.3659    0.8749 N   0  0  0  0  0  0  0  0  0  0  0  0
   -2.2264   -0.7186   -2.3432 N   0  0  0  0  0  0  0  0  0  0  0  0
   -1.1100    0.1232    0.3248 C   0  0  2  0  0  0  0  0  0  0  0  0
    1.9203   -2.1330    0.9801 C   0  0  2  0  0  0  0  0  0  0  0  0
    2.5247   -2.5083   -0.3917 C   0  0  0  0  0  0  0  0  0  0  0  0
   -0.5547    1.2657   -0.5443 C   0  0  0  0  0  0  0  0  0  0  0  0
    4.0600   -2.6237   -0.3468 C   0  0  0  0  0  0  0  0  0  0  0  0
   -0.2625   -1.1440    0.1573 C   0  0  0  0  0  0  0  0  0  0  0  0
   -2.5338   -0.1971   -0.0047 C   0  0  0  0  0  0  0  0  0  0  0  0
   -0.2628    2.5209    0.2794 C   0  0  0  0  0  0  0  0  0  0  0  0
    4.8112   -1.3395   -0.7523 C   0  0  1  0  0  0  0  0  0  0  0  0
    1.3700   -3.3579    1.7108 C   0  0  0  0  0  0  0  0  0  0  0  0
    0.9658    3.3806   -0.0340 C   0  0  2  0  0  0  0  0  0  0  0  0
   -2.9963   -0.5726   -1.2197 C   0  0  0  0  0  0  0  0  0  0  0  0
   -3.4959   -0.0758    1.1511 C   0  0  0  0  0  0  0  0  0  0  0  0
    4.3292   -0.1123   -0.0315 C   0  0  0  0  0  0  0  0  0  0  0  0
    0.5704    4.5139   -0.9690 C   0  0  0  0  0  0  0  0  0  0  0  0
   -4.4172   -0.8522   -1.3841 C   0  0  0  0  0  0  0  0  0  0  0  0
   -5.2775   -0.7464   -0.3618 C   0  0  0  0  0  0  0  0  0  0  0  0
    3.6526    0.8611   -0.6564 C   0  0  0  0  0  0  0  0  0  0  0  0
    2.9685    1.9151    0.1366 C   0  0  0  0  0  0  0  0  0  0  0  0
   -6.7424   -1.0218   -0.4788 C   0  0  0  0  0  0  0  0  0  0  0  0
   -1.0096    0.4003    1.3807 H   0  0  0  0  0  0  0  0  0  0  0  0
    2.6996   -1.7067    1.6219 H   0  0  0  0  0  0  0  0  0  0  0  0
    2.2338   -1.7921   -1.1697 H   0  0  0  0  0  0  0  0  0  0  0  0
    2.1167   -3.4756   -0.7120 H   0  0  0  0  0  0  0  0  0  0  0  0
   -1.2539    1.5991   -1.3204 H   0  0  0  0  0  0  0  0  0  0  0  0
    0.3428    0.9300   -1.0674 H   0  0  0  0  0  0  0  0  0  0  0  0
    4.3985   -2.9716    0.6378 H   0  0  0  0  0  0  0  0  0  0  0  0
    4.3688   -3.4144   -1.0442 H   0  0  0  0  0  0  0  0  0  0  0  0
    1.1007   -0.2299    1.4252 H   0  0  0  0  0  0  0  0  0  0  0  0
    4.7036   -1.2016   -1.8356 H   0  0  0  0  0  0  0  0  0  0  0  0
    0.5571   -3.8333    1.1523 H   0  0  0  0  0  0  0  0  0  0  0  0
    0.9734   -3.0765    2.6925 H   0  0  0  0  0  0  0  0  0  0  0  0
    2.1571   -4.1035    1.8645 H   0  0  0  0  0  0  0  0  0  0  0  0
    1.3334    3.7857    0.9157 H   0  0  0  0  0  0  0  0  0  0  0  0
    4.4668   -0.0909    1.0464 H   0  0  0  0  0  0  0  0  0  0  0  0
    1.9323    2.3557   -1.6161 H   0  0  0  0  0  0  0  0  0  0  0  0
    0.1807    4.1292   -1.9185 H   0  0  0  0  0  0  0  0  0  0  0  0
    1.4322    5.1506   -1.1959 H   0  0  0  0  0  0  0  0  0  0  0  0
   -0.2091    5.1391   -0.5208 H   0  0  0  0  0  0  0  0  0  0  0  0
   -4.7696   -1.1525   -2.3670 H   0  0  0  0  0  0  0  0  0  0  0  0
   -5.4943   -0.2948    1.6298 H   0  0  0  0  0  0  0  0  0  0  0  0
    3.4814    0.8219   -1.7272 H   0  0  0  0  0  0  0  0  0  0  0  0
   -2.6518   -1.0077   -3.2156 H   0  0  0  0  0  0  0  0  0  0  0  0
   -1.2263   -0.5734   -2.3065 H   0  0  0  0  0  0  0  0  0  0  0  0
    6.4957   -2.3014   -0.9887 H   0  0  0  0  0  0  0  0  0  0  0  0
   -7.3217   -0.1291   -0.2203 H   0  0  0  0  0  0  0  0  0  0  0  0
   -7.0229   -1.3182   -1.4951 H   0  0  0  0  0  0  0  0  0  0  0  0
   -7.0348   -1.8322    0.1972 H   0  0  0  0  0  0  0  0  0  0  0  0
  1 15  2  0  0  0  0
  2 18  1  0  0  0  0
  2 54  1  0  0  0  0
  3 17  2  0  0  0  0
  4 22  2  0  0  0  0
  5 28  2  0  0  0  0
  6 11  1  0  0  0  0
  6 15  1  0  0  0  0
  6 38  1  0  0  0  0
  7 20  1  0  0  0  0
  7 28  1  0  0  0  0
  7 45  1  0  0  0  0
  8 22  1  0  0  0  0
  8 26  1  0  0  0  0
  8 50  1  0  0  0  0
  9 21  1  0  0  0  0
  9 52  1  0  0  0  0
  9 53  1  0  0  0  0
 10 13  1  0  0  0  0
 10 15  1  0  0  0  0
 10 16  1  0  0  0  0
 10 30  1  0  0  0  0
 11 12  1  0  0  0  0
 11 19  1  0  0  0  0
 11 31  1  0  0  0  0
 12 14  1  0  0  0  0
 12 32  1  0  0  0  0
 12 33  1  0  0  0  0
 13 17  1  0  0  0  0
 13 34  1  0  0  0  0
 13 35  1  0  0  0  0
 14 18  1  0  0  0  0
 14 36  1  0  0  0  0
 14 37  1  0  0  0  0
 16 21  2  0  0  0  0
 16 22  1  0  0  0  0
 17 20  1  0  0  0  0
 18 23  1  0  0  0  0
 18 39  1  0  0  0  0
 19 40  1  0  0  0  0
 19 41  1  0  0  0  0
 19 42  1  0  0  0  0
 20 24  1  0  0  0  0
 20 43  1  0  0  0  0
 21 25  1  0  0  0  0
 23 27  2  0  0  0  0
 23 44  1  0  0  0  0
 24 46  1  0  0  0  0
 24 47  1  0  0  0  0
 24 48  1  0  0  0  0
 25 26  2  0  0  0  0
 25 49  1  0  0  0  0
 26 29  1  0  0  0  0
 27 28  1  0  0  0  0
 27 51  1  0  0  0  0
 29 55  1  0  0  0  0
 29 56  1  0  0  0  0
 29 57  1  0  0  0  0
M  END
> <PUBCHEM_COMPOUND_CID>
132488008

> <PUBCHEM_CONFORMER_RMSD>
0.8

> <PUBCHEM_CONFORMER_DIVERSEORDER>
1
16
5
12
17
6
20
8
18
10
21
11
14
2
22
19
4
15
7
3
13
9

> <PUBCHEM_MMFF94_PARTIAL_CHARGES>
34
1 -0.57
10 0.2
11 0.3
13 0.06
15 0.57
16 -0.12
17 0.45
18 0.42
2 -0.68
20 0.36
21 0.1
22 0.62
23 -0.29
25 -0.15
26 -0.03
27 -0.14
28 0.62
29 0.14
3 -0.57
38 0.37
4 -0.57
44 0.15
45 0.37
49 0.15
5 -0.57
50 0.37
51 0.15
52 0.4
53 0.4
54 0.4
6 -0.73
7 -0.73
8 -0.54
9 -0.9

> <PUBCHEM_EFFECTIVE_ROTOR_COUNT>
2.8

> <PUBCHEM_PHARMACOPHORE_FEATURES>
12
1 1 acceptor
1 2 acceptor
1 2 donor
1 3 acceptor
1 4 acceptor
1 5 acceptor
1 6 donor
1 7 donor
1 8 donor
1 9 cation
1 9 donor
6 8 16 21 22 25 26 rings

> <PUBCHEM_HEAVY_ATOM_COUNT>
29

> <PUBCHEM_ATOM_DEF_STEREO_COUNT>
4

> <PUBCHEM_ATOM_UDEF_STEREO_COUNT>
0

> <PUBCHEM_BOND_DEF_STEREO_COUNT>
1

> <PUBCHEM_BOND_UDEF_STEREO_COUNT>
0

> <PUBCHEM_ISOTOPIC_ATOM_COUNT>
0

> <PUBCHEM_COMPONENT_COUNT>
1

> <PUBCHEM_CACTVS_TAUTO_COUNT>
1001

> <PUBCHEM_CONFORMER_ID>
07E59B4800000001

> <PUBCHEM_MMFF94_ENERGY>
70.3676

> <PUBCHEM_FEATURE_SELFOVERLAP>
60.9

> <PUBCHEM_SHAPE_FINGERPRINT>
10366900 7 17749393637198514683
10670039 82 18119267086426671670
10675989 125 18266458891961599541
10693767 8 18343010112464579591
10906281 52 18122344855332377632
11135609 187 18195244653011002652
11578080 2 16879910729879576141
12236239 1 17989208183537631095
12422481 6 17702116776208363397
12553582 1 18338508660520868418
12592029 89 18262790904211983001
12788726 201 17685206184568279617
13140716 1 18048591818031177992
13533116 47 18059292175014133377
13782708 43 17604438534667817499
13911987 19 18041297512238352110
14681490 219 18410011018403529716
14784336 7 17844245344689730449
14931854 50 18335149652978009446
14955137 171 18272654588575534051
15420108 30 17697337122038328273
1813 80 18200319818517385999
20511986 3 17560227162939758445
20905425 154 18195810661708366172
23559900 14 18337670944002273955
23598288 3 17907007379220467374
463206 1 18339358677414095494
474 4 18267303325100968024
484989 97 18042138707147648186
5309563 4 18409729530362341572
6443956 14 18335420188040234860
70251023 43 18339079259542356498

> <PUBCHEM_SHAPE_MULTIPOLES>
547.54
11.25
4.33
1.47
6.45
3.84
-0.15
-6.83
2.32
-4.43
-0.25
0.99
-0.31
-0.4

> <PUBCHEM_SHAPE_SELFOVERLAP>
1130.137

> <PUBCHEM_SHAPE_VOLUME>
308.9

> <PUBCHEM_COORDINATE_TYPE>
2
5
10

$$$$
