132497578
  -OEChem-03292013293D

 56 60  0     1  0  0  0  0  0999 V2000
   -0.4349   -1.7218   -2.1985 O   0  0  0  0  0  0  0  0  0  0  0  0
   -1.7300   -3.0937    1.9616 O   0  0  0  0  0  0  0  0  0  0  0  0
   -1.2026    3.2657   -1.6481 O   0  0  0  0  0  0  0  0  0  0  0  0
    4.2617   -1.9753   -2.0945 O   0  0  0  0  0  0  0  0  0  0  0  0
   -5.6513   -0.6509    0.9860 O   0  0  0  0  0  0  0  0  0  0  0  0
    5.7178   -0.6274   -0.5103 O   0  0  0  0  0  0  0  0  0  0  0  0
    3.5686    2.1811    2.6342 O   0  0  0  0  0  0  0  0  0  0  0  0
   -5.4043    1.5532   -0.3141 O   0  0  0  0  0  0  0  0  0  0  0  0
    0.7126   -0.4273   -0.4463 C   0  0  2  0  0  0  0  0  0  0  0  0
   -0.0127   -1.1907    0.7073 C   0  0  0  0  0  0  0  0  0  0  0  0
    2.1090   -0.0216    0.0643 C   0  0  0  0  0  0  0  0  0  0  0  0
   -1.5147   -1.0519    0.7014 C   0  0  0  0  0  0  0  0  0  0  0  0
   -0.0447    0.8324   -0.8704 C   0  0  0  0  0  0  0  0  0  0  0  0
   -2.1273    0.0686    0.1181 C   0  0  0  0  0  0  0  0  0  0  0  0
    0.7915   -1.3635   -1.6550 C   0  0  0  0  0  0  0  0  0  0  0  0
   -1.3421    1.0908   -0.6084 C   0  0  0  0  0  0  0  0  0  0  0  0
    3.2887   -0.5380   -0.4929 C   0  0  0  0  0  0  0  0  0  0  0  0
   -3.5214    0.2183    0.2172 C   0  0  0  0  0  0  0  0  0  0  0  0
   -2.2990   -2.0080    1.3625 C   0  0  0  0  0  0  0  0  0  0  0  0
    1.9254   -1.8414   -2.1798 C   0  0  0  0  0  0  0  0  0  0  0  0
    2.2333    0.9039    1.1229 C   0  0  0  0  0  0  0  0  0  0  0  0
   -2.0087    2.2991   -1.0797 C   0  0  0  0  0  0  0  0  0  0  0  0
    3.2414   -1.4893   -1.6201 C   0  0  0  0  0  0  0  0  0  0  0  0
   -4.2969   -0.7474    0.8679 C   0  0  0  0  0  0  0  0  0  0  0  0
    4.5449   -0.1527    0.0000 C   0  0  0  0  0  0  0  0  0  0  0  0
   -3.6827   -1.8608    1.4356 C   0  0  0  0  0  0  0  0  0  0  0  0
   -4.1875    1.4154   -0.3530 C   0  0  0  0  0  0  0  0  0  0  0  0
   -3.3337    2.4627   -0.9665 C   0  0  0  0  0  0  0  0  0  0  0  0
    3.4830    1.2877    1.6111 C   0  0  0  0  0  0  0  0  0  0  0  0
    4.6385    0.7572    1.0506 C   0  0  0  0  0  0  0  0  0  0  0  0
   -0.5089   -1.3226   -3.5493 C   0  0  0  0  0  0  0  0  0  0  0  0
   -1.3482   -2.9514    3.3276 C   0  0  0  0  0  0  0  0  0  0  0  0
   -0.7421    4.1701   -0.6653 C   0  0  0  0  0  0  0  0  0  0  0  0
    4.8773    2.5294    3.0841 C   0  0  0  0  0  0  0  0  0  0  0  0
    0.3142   -0.8248    1.6892 H   0  0  0  0  0  0  0  0  0  0  0  0
    0.2735   -2.2513    0.6750 H   0  0  0  0  0  0  0  0  0  0  0  0
    0.5361    1.5403   -1.4618 H   0  0  0  0  0  0  0  0  0  0  0  0
    1.9275   -2.5267   -3.0204 H   0  0  0  0  0  0  0  0  0  0  0  0
    1.3429    1.3344    1.5778 H   0  0  0  0  0  0  0  0  0  0  0  0
   -4.2819   -2.6098    1.9480 H   0  0  0  0  0  0  0  0  0  0  0  0
   -3.8258    3.3595   -1.3271 H   0  0  0  0  0  0  0  0  0  0  0  0
    5.6380    1.0153    1.3851 H   0  0  0  0  0  0  0  0  0  0  0  0
   -1.5606   -1.3593   -3.8512 H   0  0  0  0  0  0  0  0  0  0  0  0
   -0.1609   -0.2944   -3.7049 H   0  0  0  0  0  0  0  0  0  0  0  0
    0.0371   -2.0120   -4.2018 H   0  0  0  0  0  0  0  0  0  0  0  0
   -5.9833    0.1357    0.5286 H   0  0  0  0  0  0  0  0  0  0  0  0
    5.5585   -1.2542   -1.2307 H   0  0  0  0  0  0  0  0  0  0  0  0
   -0.8397   -3.8684    3.6376 H   0  0  0  0  0  0  0  0  0  0  0  0
   -2.2337   -2.8145    3.9564 H   0  0  0  0  0  0  0  0  0  0  0  0
   -0.6620   -2.1102    3.4628 H   0  0  0  0  0  0  0  0  0  0  0  0
   -0.0926    4.9020   -1.1551 H   0  0  0  0  0  0  0  0  0  0  0  0
   -0.1531    3.6685    0.1105 H   0  0  0  0  0  0  0  0  0  0  0  0
   -1.5742    4.7165   -0.2071 H   0  0  0  0  0  0  0  0  0  0  0  0
    4.7571    3.2487    3.9008 H   0  0  0  0  0  0  0  0  0  0  0  0
    5.4527    3.0312    2.2987 H   0  0  0  0  0  0  0  0  0  0  0  0
    5.4050    1.6628    3.4968 H   0  0  0  0  0  0  0  0  0  0  0  0
  1 15  1  0  0  0  0
  1 31  1  0  0  0  0
  2 19  1  0  0  0  0
  2 32  1  0  0  0  0
  3 22  1  0  0  0  0
  3 33  1  0  0  0  0
  4 23  2  0  0  0  0
  5 24  1  0  0  0  0
  5 46  1  0  0  0  0
  6 25  1  0  0  0  0
  6 47  1  0  0  0  0
  7 29  1  0  0  0  0
  7 34  1  0  0  0  0
  8 27  2  0  0  0  0
  9 10  1  0  0  0  0
  9 11  1  0  0  0  0
  9 13  1  0  0  0  0
  9 15  1  0  0  0  0
 10 12  1  0  0  0  0
 10 35  1  0  0  0  0
 10 36  1  0  0  0  0
 11 17  1  0  0  0  0
 11 21  2  0  0  0  0
 12 14  1  0  0  0  0
 12 19  2  0  0  0  0
 13 16  2  0  0  0  0
 13 37  1  0  0  0  0
 14 16  1  0  0  0  0
 14 18  2  0  0  0  0
 15 20  2  0  0  0  0
 16 22  1  0  0  0  0
 17 23  1  0  0  0  0
 17 25  2  0  0  0  0
 18 24  1  0  0  0  0
 18 27  1  0  0  0  0
 19 26  1  0  0  0  0
 20 23  1  0  0  0  0
 20 38  1  0  0  0  0
 21 29  1  0  0  0  0
 21 39  1  0  0  0  0
 22 28  2  0  0  0  0
 24 26  2  0  0  0  0
 25 30  1  0  0  0  0
 26 40  1  0  0  0  0
 27 28  1  0  0  0  0
 28 41  1  0  0  0  0
 29 30  2  0  0  0  0
 30 42  1  0  0  0  0
 31 43  1  0  0  0  0
 31 44  1  0  0  0  0
 31 45  1  0  0  0  0
 32 48  1  0  0  0  0
 32 49  1  0  0  0  0
 32 50  1  0  0  0  0
 33 51  1  0  0  0  0
 33 52  1  0  0  0  0
 33 53  1  0  0  0  0
 34 54  1  0  0  0  0
 34 55  1  0  0  0  0
 34 56  1  0  0  0  0
M  END
> <PUBCHEM_COMPOUND_CID>
132497578

> <PUBCHEM_CONFORMER_RMSD>
0.8

> <PUBCHEM_CONFORMER_DIVERSEORDER>
2
3
8
6
7
5
1
4

> <PUBCHEM_MMFF94_PARTIAL_CHARGES>
42
1 -0.36
10 0.14
11 -0.14
12 -0.14
13 -0.29
14 0.03
15 -0.06
16 -0.03
17 0.09
18 0.09
19 0.08
2 -0.36
20 -0.14
21 -0.15
22 0.08
23 0.47
24 0.08
25 0.08
26 -0.15
27 0.47
28 -0.14
29 0.08
3 -0.36
30 -0.15
31 0.28
32 0.28
33 0.28
34 0.28
37 0.15
38 0.15
39 0.15
4 -0.57
40 0.15
41 0.15
42 0.15
46 0.45
47 0.45
5 -0.53
6 -0.53
7 -0.36
8 -0.57
9 0.42

> <PUBCHEM_EFFECTIVE_ROTOR_COUNT>
4.2

> <PUBCHEM_PHARMACOPHORE_FEATURES>
13
1 1 acceptor
1 2 acceptor
1 3 acceptor
1 4 acceptor
1 5 donor
1 6 donor
1 7 acceptor
1 8 acceptor
6 11 17 21 25 29 30 rings
6 12 14 18 19 24 26 rings
6 14 16 18 22 27 28 rings
6 9 10 12 13 14 16 rings
6 9 11 15 17 20 23 rings

> <PUBCHEM_HEAVY_ATOM_COUNT>
34

> <PUBCHEM_ATOM_DEF_STEREO_COUNT>
0

> <PUBCHEM_ATOM_UDEF_STEREO_COUNT>
1

> <PUBCHEM_BOND_DEF_STEREO_COUNT>
0

> <PUBCHEM_BOND_UDEF_STEREO_COUNT>
0

> <PUBCHEM_ISOTOPIC_ATOM_COUNT>
0

> <PUBCHEM_COMPONENT_COUNT>
1

> <PUBCHEM_CACTVS_TAUTO_COUNT>
35

> <PUBCHEM_CONFORMER_ID>
07E5C0AA00000002

> <PUBCHEM_MMFF94_ENERGY>
141.8867

> <PUBCHEM_FEATURE_SELFOVERLAP>
66.061

> <PUBCHEM_SHAPE_FINGERPRINT>
10319926 262 18261094267771229912
11582403 64 17761730088889820492
11725454 13 18342163436913061526
12128747 34 18262798437653848146
12236239 1 16298394551791981734
12788726 201 17677637356543387729
13034934 17 18271519892053215400
13140716 1 17681290063879988595
13402501 40 18341612590367468776
13583140 156 18341607071582653726
13782708 43 18342746191056169582
15219462 58 18116409489290158022
15324884 4 18270134503239567631
15629462 23 17052756066964605702
17349148 13 16805614650526891087
20511986 3 16298109817024738838
20554085 129 18041832897328745465
20600515 1 18113899394517659365
21033648 144 16844714456953844504
21033648 29 18342451564788800472
21792961 116 18200607883071135894
22122407 14 16988574480806225033
23557571 272 18334866012509443365
23559900 14 18261965037572169974
3380486 145 18058171798867639739
3493558 16 17534372164503582444
469060 322 17839441625315937222
50150288 127 15866364555949661177
57527293 21 18341335611978963098
602551 16 18040718078057484850

> <PUBCHEM_SHAPE_MULTIPOLES>
652.75
10.05
3.63
2.97
3.17
2.13
0.24
2.03
3.91
-1.57
0.59
1.98
-1.42
4.99

> <PUBCHEM_SHAPE_SELFOVERLAP>
1467.659

> <PUBCHEM_SHAPE_VOLUME>
343

> <PUBCHEM_COORDINATE_TYPE>
2
5
10

$$$$
