132427643
  -OEChem-03292013293D

 51 53  0     1  0  0  0  0  0999 V2000
    2.8929    0.4370   -1.1076 S   0  0  0  0  0  0  0  0  0  0  0  0
    1.7416   -0.5941   -0.5837 O   0  0  0  0  0  0  0  0  0  0  0  0
    0.8950   -3.0303    1.9871 O   0  0  0  0  0  0  0  0  0  0  0  0
    4.2627   -2.0612    0.0425 O   0  0  0  0  0  0  0  0  0  0  0  0
    3.0797   -4.4958   -1.2594 O   0  0  0  0  0  0  0  0  0  0  0  0
    2.0450    1.6054   -1.8673 O   0  0  0  0  0  0  0  0  0  0  0  0
    3.5057    1.0338    0.0646 O   0  0  0  0  0  0  0  0  0  0  0  0
    3.7145   -0.2337   -2.0979 O   0  0  0  0  0  0  0  0  0  0  0  0
   -1.2630    4.3397   -1.1847 O   0  0  0  0  0  0  0  0  0  0  0  0
    2.3722    3.5424    1.5123 O   0  0  0  0  0  0  0  0  0  0  0  0
   -0.7563    0.1107    1.1015 N   0  0  0  0  0  0  0  0  0  0  0  0
   -2.1705    1.8639   -0.6170 N   0  0  0  0  0  0  0  0  0  0  0  0
    0.8481    1.8638    1.3163 N   0  0  0  0  0  0  0  0  0  0  0  0
    0.5845    3.9570    0.1782 N   0  0  0  0  0  0  0  0  0  0  0  0
    0.6546   -1.8967    1.1522 C   0  0  2  0  0  0  0  0  0  0  0  0
    1.9920   -1.4072    0.5617 C   0  0  1  0  0  0  0  0  0  0  0  0
   -0.0532   -0.8198    1.9830 C   0  0  0  0  0  0  0  0  0  0  0  0
    2.9281   -2.5601    0.1525 C   0  0  1  0  0  0  0  0  0  0  0  0
   -1.9716   -0.3123    0.5194 C   0  0  0  0  0  0  0  0  0  0  0  0
   -0.2579    1.3799    0.8324 C   0  0  0  0  0  0  0  0  0  0  0  0
   -2.6567    0.5781   -0.3324 C   0  0  0  0  0  0  0  0  0  0  0  0
    2.5321   -3.1833   -1.1852 C   0  0  0  0  0  0  0  0  0  0  0  0
   -2.5420   -1.5798    0.7426 C   0  0  0  0  0  0  0  0  0  0  0  0
   -1.0585    2.2597   -0.0881 C   0  0  0  0  0  0  0  0  0  0  0  0
   -3.7478   -1.9511    0.1421 C   0  0  0  0  0  0  0  0  0  0  0  0
   -3.8672    0.1953   -0.9304 C   0  0  0  0  0  0  0  0  0  0  0  0
   -4.4109   -1.0636   -0.6948 C   0  0  0  0  0  0  0  0  0  0  0  0
   -0.6036    3.6393   -0.4360 C   0  0  0  0  0  0  0  0  0  0  0  0
   -4.3053   -3.3099    0.4156 C   0  0  0  0  0  0  0  0  0  0  0  0
   -5.7001   -1.4353   -1.3495 C   0  0  0  0  0  0  0  0  0  0  0  0
    1.3158    3.1282    1.0297 C   0  0  0  0  0  0  0  0  0  0  0  0
    0.0227   -2.2493    0.3320 H   0  0  0  0  0  0  0  0  0  0  0  0
    2.5059   -0.8159    1.3300 H   0  0  0  0  0  0  0  0  0  0  0  0
   -0.7390   -1.2631    2.7166 H   0  0  0  0  0  0  0  0  0  0  0  0
    0.6783   -0.2963    2.6122 H   0  0  0  0  0  0  0  0  0  0  0  0
    2.9785   -3.3244    0.9343 H   0  0  0  0  0  0  0  0  0  0  0  0
    1.4469   -3.2887   -1.2730 H   0  0  0  0  0  0  0  0  0  0  0  0
    2.9141   -2.6238   -2.0415 H   0  0  0  0  0  0  0  0  0  0  0  0
   -2.0659   -2.3038    1.3972 H   0  0  0  0  0  0  0  0  0  0  0  0
    1.4401   -2.7351    2.7367 H   0  0  0  0  0  0  0  0  0  0  0  0
   -4.3801    0.8976   -1.5850 H   0  0  0  0  0  0  0  0  0  0  0  0
    4.8298   -2.8020   -0.2323 H   0  0  0  0  0  0  0  0  0  0  0  0
   -5.2870   -3.2343    0.8945 H   0  0  0  0  0  0  0  0  0  0  0  0
   -4.3960   -3.8834   -0.5126 H   0  0  0  0  0  0  0  0  0  0  0  0
   -3.6621   -3.8876    1.0887 H   0  0  0  0  0  0  0  0  0  0  0  0
   -5.5650   -2.3037   -2.0023 H   0  0  0  0  0  0  0  0  0  0  0  0
   -6.4641   -1.6597   -0.5981 H   0  0  0  0  0  0  0  0  0  0  0  0
   -6.0892   -0.6215   -1.9715 H   0  0  0  0  0  0  0  0  0  0  0  0
    0.9679    4.8800   -0.0047 H   0  0  0  0  0  0  0  0  0  0  0  0
    2.8065   -4.8714   -2.1138 H   0  0  0  0  0  0  0  0  0  0  0  0
    2.5809    2.3543   -2.2196 H   0  0  0  0  0  0  0  0  0  0  0  0
  1  2  1  0  0  0  0
  1  6  1  0  0  0  0
  1  7  2  0  0  0  0
  1  8  2  0  0  0  0
  2 16  1  0  0  0  0
  3 15  1  0  0  0  0
  3 40  1  0  0  0  0
  4 18  1  0  0  0  0
  4 42  1  0  0  0  0
  5 22  1  0  0  0  0
  5 50  1  0  0  0  0
  6 51  1  0  0  0  0
  9 28  2  0  0  0  0
 10 31  2  0  0  0  0
 11 17  1  0  0  0  0
 11 19  1  0  0  0  0
 11 20  1  0  0  0  0
 12 21  1  0  0  0  0
 12 24  2  0  0  0  0
 13 20  2  0  0  0  0
 13 31  1  0  0  0  0
 14 28  1  0  0  0  0
 14 31  1  0  0  0  0
 14 49  1  0  0  0  0
 15 16  1  0  0  0  0
 15 17  1  0  0  0  0
 15 32  1  0  0  0  0
 16 18  1  0  0  0  0
 16 33  1  0  0  0  0
 17 34  1  0  0  0  0
 17 35  1  0  0  0  0
 18 22  1  0  0  0  0
 18 36  1  0  0  0  0
 19 21  2  0  0  0  0
 19 23  1  0  0  0  0
 20 24  1  0  0  0  0
 21 26  1  0  0  0  0
 22 37  1  0  0  0  0
 22 38  1  0  0  0  0
 23 25  2  0  0  0  0
 23 39  1  0  0  0  0
 24 28  1  0  0  0  0
 25 27  1  0  0  0  0
 25 29  1  0  0  0  0
 26 27  2  0  0  0  0
 26 41  1  0  0  0  0
 27 30  1  0  0  0  0
 29 43  1  0  0  0  0
 29 44  1  0  0  0  0
 29 45  1  0  0  0  0
 30 46  1  0  0  0  0
 30 47  1  0  0  0  0
 30 48  1  0  0  0  0
M  END
> <PUBCHEM_COMPOUND_CID>
132427643

> <PUBCHEM_CONFORMER_RMSD>
1

> <PUBCHEM_CONFORMER_DIVERSEORDER>
1
49
50
57
63
7
22
32
55
40
26
39
17
59
13
29
61
44
5
36
21
38
8
28
54
18
14
42
2
58
34
6
35
62
24
19
41
12
53
52
27
15
37
23
20
31
48
11
47
25
56
4
45
60
9
46
43
10
3
33
30
51
16

> <PUBCHEM_MMFF94_PARTIAL_CHARGES>
38
1 1.67
10 -0.57
11 -0.52
12 -0.63
13 -0.66
14 -0.49
15 0.28
16 0.28
17 0.37
18 0.28
19 0.1
2 -0.46
20 0.5
21 0.18
22 0.28
23 -0.15
24 0.45
25 -0.14
26 -0.15
27 -0.14
28 0.63
29 0.14
3 -0.68
30 0.14
31 0.84
39 0.15
4 -0.68
40 0.4
41 0.15
42 0.4
49 0.37
5 -0.68
50 0.4
51 0.5
6 -0.68
7 -0.65
8 -0.65
9 -0.57

> <PUBCHEM_EFFECTIVE_ROTOR_COUNT>
7

> <PUBCHEM_PHARMACOPHORE_FEATURES>
18
1 10 acceptor
1 12 acceptor
1 13 donor
1 14 donor
1 3 acceptor
1 3 donor
1 4 acceptor
1 4 donor
1 5 acceptor
1 5 donor
1 6 acceptor
1 7 acceptor
1 8 acceptor
1 9 acceptor
4 1 6 7 8 anion
6 11 12 19 20 21 24 rings
6 13 14 20 24 28 31 rings
6 19 21 23 25 26 27 rings

> <PUBCHEM_HEAVY_ATOM_COUNT>
31

> <PUBCHEM_ATOM_DEF_STEREO_COUNT>
3

> <PUBCHEM_ATOM_UDEF_STEREO_COUNT>
0

> <PUBCHEM_BOND_DEF_STEREO_COUNT>
0

> <PUBCHEM_BOND_UDEF_STEREO_COUNT>
0

> <PUBCHEM_ISOTOPIC_ATOM_COUNT>
0

> <PUBCHEM_COMPONENT_COUNT>
1

> <PUBCHEM_CACTVS_TAUTO_COUNT>
24

> <PUBCHEM_CONFORMER_ID>
07E4AF7B00000001

> <PUBCHEM_MMFF94_ENERGY>
86.1483

> <PUBCHEM_FEATURE_SELFOVERLAP>
91.523

> <PUBCHEM_SHAPE_FINGERPRINT>
11578080 2 16519576679165178511
12553582 1 18410587188187088795
12788726 201 17904478511472627595
13402501 40 18193554704029306336
13911987 19 18047493380519948116
15297060 5 16614468651373875496
15475509 8 18199181777650250175
15664445 248 18335978787344921885
15968369 26 17973148819195955277
16728300 4 17899938787323503440
17492 54 18190753122615689356
17909252 39 18339363062760275547
19930381 70 18265899231746372383
20028762 73 17331111110717478799
20691752 17 18335708277097822000
20764821 26 16968021618642663862
20775438 99 17835473290726196173
20775530 9 18267311940895366070
20905425 154 18410009897285118476
22182313 1 17972316489353041867
23419403 2 17392146933741257272
23557571 272 17982712104999062106
23559900 14 18261671596731760765
238 59 17977678824039720230
2748010 2 17471595676742716210
4017518 198 17767683129276175088
4066623 53 17970879247113814757
4280585 95 18338498786122374219
463206 1 18410018744675531831
6669772 16 17912077558586668288
70251023 43 18266467503307374011
7164475 11 18266464200440151846

> <PUBCHEM_SHAPE_MULTIPOLES>
569.07
7.93
5.65
1.65
7.75
1.73
0
-6.24
3.4
-3.66
0.38
-0.8
-0.28
1.39

> <PUBCHEM_SHAPE_SELFOVERLAP>
1207.096

> <PUBCHEM_SHAPE_VOLUME>
318.2

> <PUBCHEM_COORDINATE_TYPE>
2
5
10

$$$$
