132489991
  -OEChem-03292013293D

 74 76  0     1  0  0  0  0  0999 V2000
    0.9775    1.8453   -1.4949 O   0  0  0  0  0  0  0  0  0  0  0  0
    5.1246   -2.1159    0.1783 O   0  0  0  0  0  0  0  0  0  0  0  0
    4.7842   -3.1889   -1.8390 O   0  0  0  0  0  0  0  0  0  0  0  0
   -5.8063   -3.7843    0.8938 O   0  0  0  0  0  0  0  0  0  0  0  0
   -3.7480   -2.8509    1.1301 O   0  0  0  0  0  0  0  0  0  0  0  0
   -4.9148    0.4455   -0.6190 N   0  0  0  0  0  0  0  0  0  0  0  0
   -2.4628   -1.7341   -1.9687 N   0  0  0  0  0  0  0  0  0  0  0  0
    1.8429    0.7296    0.5387 C   0  0  1  0  0  0  0  0  0  0  0  0
    3.3018    1.2417    0.2063 C   0  0  2  0  0  0  0  0  0  0  0  0
    0.7964    1.7783   -0.0683 C   0  0  1  0  0  0  0  0  0  0  0  0
    4.4908    0.2365    0.4655 C   0  0  0  0  0  0  0  0  0  0  0  0
    1.6623   -0.6747   -0.1078 C   0  0  0  0  0  0  0  0  0  0  0  0
    1.0590    3.2171    0.4849 C   0  0  1  0  0  0  0  0  0  0  0  0
    3.5331    2.6505    0.7884 C   0  0  0  0  0  0  0  0  0  0  0  0
    4.1400   -1.1414   -0.1652 C   0  0  2  0  0  0  0  0  0  0  0  0
    2.5144    3.6546    0.2581 C   0  0  0  0  0  0  0  0  0  0  0  0
    2.7678   -1.6655    0.2417 C   0  0  0  0  0  0  0  0  0  0  0  0
    1.5820    0.5851    2.0616 C   0  0  0  0  0  0  0  0  0  0  0  0
   -0.6757    1.3806    0.1647 C   0  0  0  0  0  0  0  0  0  0  0  0
    4.8899    0.0885    1.9495 C   0  0  0  0  0  0  0  0  0  0  0  0
    5.7671    0.7539   -0.2602 C   0  0  0  0  0  0  0  0  0  0  0  0
    0.1372    4.2884   -0.1210 C   0  0  0  0  0  0  0  0  0  0  0  0
   -1.5676    1.9663   -0.9197 C   0  0  0  0  0  0  0  0  0  0  0  0
   -3.0080    1.5814   -0.6978 C   0  0  0  0  0  0  0  0  0  0  0  0
    5.3452   -3.0857   -0.7566 C   0  0  0  0  0  0  0  0  0  0  0  0
   -3.5928    0.3647   -0.9714 C   0  0  0  0  0  0  0  0  0  0  0  0
   -4.0136    2.4233   -0.1623 C   0  0  0  0  0  0  0  0  0  0  0  0
    6.3966   -4.0327   -0.2626 C   0  0  0  0  0  0  0  0  0  0  0  0
   -5.1825    1.6954   -0.1247 C   0  0  0  0  0  0  0  0  0  0  0  0
   -5.8951   -0.6117   -0.7408 C   0  0  0  0  0  0  0  0  0  0  0  0
   -2.9703   -0.7913   -1.5208 C   0  0  0  0  0  0  0  0  0  0  0  0
   -6.6096   -0.9555    0.5731 C   0  0  0  0  0  0  0  0  0  0  0  0
   -5.6989   -1.5274    1.6583 C   0  0  0  0  0  0  0  0  0  0  0  0
   -4.9667   -2.7667    1.2079 C   0  0  0  0  0  0  0  0  0  0  0  0
    3.3147    1.3771   -0.8871 H   0  0  0  0  0  0  0  0  0  0  0  0
    0.7112   -1.1257    0.1948 H   0  0  0  0  0  0  0  0  0  0  0  0
    1.6359   -0.5996   -1.1998 H   0  0  0  0  0  0  0  0  0  0  0  0
    0.8767    3.2242    1.5668 H   0  0  0  0  0  0  0  0  0  0  0  0
    4.5260    3.0244    0.5209 H   0  0  0  0  0  0  0  0  0  0  0  0
    3.4961    2.6381    1.8822 H   0  0  0  0  0  0  0  0  0  0  0  0
    4.1310   -0.9956   -1.2555 H   0  0  0  0  0  0  0  0  0  0  0  0
    2.6915    4.6211    0.7466 H   0  0  0  0  0  0  0  0  0  0  0  0
    2.6939    3.8139   -0.8132 H   0  0  0  0  0  0  0  0  0  0  0  0
    2.7526   -1.9251    1.3056 H   0  0  0  0  0  0  0  0  0  0  0  0
    2.5673   -2.6126   -0.2754 H   0  0  0  0  0  0  0  0  0  0  0  0
    1.7748    1.5056    2.6168 H   0  0  0  0  0  0  0  0  0  0  0  0
    2.1787   -0.1977    2.5258 H   0  0  0  0  0  0  0  0  0  0  0  0
    0.5416    0.3048    2.2585 H   0  0  0  0  0  0  0  0  0  0  0  0
   -1.0113    1.6960    1.1606 H   0  0  0  0  0  0  0  0  0  0  0  0
   -0.7949    0.2945    0.1415 H   0  0  0  0  0  0  0  0  0  0  0  0
    6.5752    0.0139   -0.2261 H   0  0  0  0  0  0  0  0  0  0  0  0
    5.0312    1.0597    2.4329 H   0  0  0  0  0  0  0  0  0  0  0  0
    4.1658   -0.4795    2.5322 H   0  0  0  0  0  0  0  0  0  0  0  0
    5.8417   -0.4481    2.0487 H   0  0  0  0  0  0  0  0  0  0  0  0
    5.5658    0.9679   -1.3159 H   0  0  0  0  0  0  0  0  0  0  0  0
    6.1590    1.6663    0.1999 H   0  0  0  0  0  0  0  0  0  0  0  0
   -0.8627    4.2503    0.3195 H   0  0  0  0  0  0  0  0  0  0  0  0
    0.1093    4.2584   -1.2140 H   0  0  0  0  0  0  0  0  0  0  0  0
    0.5103    5.2867    0.1430 H   0  0  0  0  0  0  0  0  0  0  0  0
    0.7238    0.9950   -1.8878 H   0  0  0  0  0  0  0  0  0  0  0  0
   -1.3011    1.5647   -1.9059 H   0  0  0  0  0  0  0  0  0  0  0  0
   -1.5654    3.0411   -1.0429 H   0  0  0  0  0  0  0  0  0  0  0  0
   -3.9037    3.4493    0.1609 H   0  0  0  0  0  0  0  0  0  0  0  0
    7.3312   -3.4923   -0.0928 H   0  0  0  0  0  0  0  0  0  0  0  0
    6.5727   -4.8048   -1.0170 H   0  0  0  0  0  0  0  0  0  0  0  0
    6.0575   -4.5152    0.6575 H   0  0  0  0  0  0  0  0  0  0  0  0
   -6.1744    1.9738    0.2044 H   0  0  0  0  0  0  0  0  0  0  0  0
   -6.6333   -0.2572   -1.4710 H   0  0  0  0  0  0  0  0  0  0  0  0
   -5.4307   -1.5028   -1.1722 H   0  0  0  0  0  0  0  0  0  0  0  0
   -7.1214   -0.0726    0.9735 H   0  0  0  0  0  0  0  0  0  0  0  0
   -7.3966   -1.6855    0.3455 H   0  0  0  0  0  0  0  0  0  0  0  0
   -6.2800   -1.7810    2.5521 H   0  0  0  0  0  0  0  0  0  0  0  0
   -4.9559   -0.7835    1.9672 H   0  0  0  0  0  0  0  0  0  0  0  0
   -5.3192   -4.5833    0.5998 H   0  0  0  0  0  0  0  0  0  0  0  0
  1 10  1  0  0  0  0
  1 60  1  0  0  0  0
  2 15  1  0  0  0  0
  2 25  1  0  0  0  0
  3 25  2  0  0  0  0
  4 34  1  0  0  0  0
  4 74  1  0  0  0  0
  5 34  2  0  0  0  0
  6 26  1  0  0  0  0
  6 29  1  0  0  0  0
  6 30  1  0  0  0  0
  7 31  3  0  0  0  0
  8  9  1  0  0  0  0
  8 10  1  0  0  0  0
  8 12  1  0  0  0  0
  8 18  1  0  0  0  0
  9 11  1  0  0  0  0
  9 14  1  0  0  0  0
  9 35  1  0  0  0  0
 10 13  1  0  0  0  0
 10 19  1  0  0  0  0
 11 15  1  0  0  0  0
 11 20  1  0  0  0  0
 11 21  1  0  0  0  0
 12 17  1  0  0  0  0
 12 36  1  0  0  0  0
 12 37  1  0  0  0  0
 13 16  1  0  0  0  0
 13 22  1  0  0  0  0
 13 38  1  0  0  0  0
 14 16  1  0  0  0  0
 14 39  1  0  0  0  0
 14 40  1  0  0  0  0
 15 17  1  0  0  0  0
 15 41  1  0  0  0  0
 16 42  1  0  0  0  0
 16 43  1  0  0  0  0
 17 44  1  0  0  0  0
 17 45  1  0  0  0  0
 18 46  1  0  0  0  0
 18 47  1  0  0  0  0
 18 48  1  0  0  0  0
 19 23  1  0  0  0  0
 19 49  1  0  0  0  0
 19 50  1  0  0  0  0
 20 52  1  0  0  0  0
 20 53  1  0  0  0  0
 20 54  1  0  0  0  0
 21 51  1  0  0  0  0
 21 55  1  0  0  0  0
 21 56  1  0  0  0  0
 22 57  1  0  0  0  0
 22 58  1  0  0  0  0
 22 59  1  0  0  0  0
 23 24  1  0  0  0  0
 23 61  1  0  0  0  0
 23 62  1  0  0  0  0
 24 26  2  0  0  0  0
 24 27  1  0  0  0  0
 25 28  1  0  0  0  0
 26 31  1  0  0  0  0
 27 29  2  0  0  0  0
 27 63  1  0  0  0  0
 28 64  1  0  0  0  0
 28 65  1  0  0  0  0
 28 66  1  0  0  0  0
 29 67  1  0  0  0  0
 30 32  1  0  0  0  0
 30 68  1  0  0  0  0
 30 69  1  0  0  0  0
 32 33  1  0  0  0  0
 32 70  1  0  0  0  0
 32 71  1  0  0  0  0
 33 34  1  0  0  0  0
 33 72  1  0  0  0  0
 33 73  1  0  0  0  0
M  END
> <PUBCHEM_COMPOUND_CID>
132489991

> <PUBCHEM_CONFORMER_RMSD>
1

> <PUBCHEM_CONFORMER_DIVERSEORDER>
5
43
96
35
95
93
92
63
60
108
85
72
64
62
40
14
66
106
46
90
17
57
86
109
99
70
10
100
87
23
52
105
59
39
71
22
47
103
29
36
107
44
8
80
84
55
41
51
33
77
45
69
18
102
48
101
88
58
97
11
82
31
56
13
25
6
37
19
104
53
54
91
15
78
61
50
4
49
79
67
65
98
42
16
83
3
89
38
28
81
2
20
26
12
68
21
94
76
74
75
27
7
9
73
34
30
32
1
24

> <PUBCHEM_MMFF94_PARTIAL_CHARGES>
24
1 -0.68
10 0.28
15 0.28
2 -0.43
23 0.18
24 -0.18
25 0.66
26 -0.13
27 -0.15
28 0.06
29 -0.3
3 -0.57
30 0.26
31 0.54
33 0.06
34 0.66
4 -0.65
5 -0.57
6 0.05
60 0.4
63 0.15
67 0.15
7 -0.56
74 0.5

> <PUBCHEM_EFFECTIVE_ROTOR_COUNT>
10.6

> <PUBCHEM_PHARMACOPHORE_FEATURES>
12
1 1 acceptor
1 1 donor
1 3 acceptor
1 4 acceptor
1 5 acceptor
1 6 cation
1 7 acceptor
3 11 20 21 hydrophobe
3 4 5 34 anion
5 6 24 26 27 29 rings
6 8 9 10 13 14 16 rings
6 8 9 11 12 15 17 rings

> <PUBCHEM_HEAVY_ATOM_COUNT>
34

> <PUBCHEM_ATOM_DEF_STEREO_COUNT>
5

> <PUBCHEM_ATOM_UDEF_STEREO_COUNT>
0

> <PUBCHEM_BOND_DEF_STEREO_COUNT>
0

> <PUBCHEM_BOND_UDEF_STEREO_COUNT>
0

> <PUBCHEM_ISOTOPIC_ATOM_COUNT>
0

> <PUBCHEM_COMPONENT_COUNT>
1

> <PUBCHEM_CACTVS_TAUTO_COUNT>
1

> <PUBCHEM_CONFORMER_ID>
07E5A30700000005

> <PUBCHEM_MMFF94_ENERGY>
97.8399

> <PUBCHEM_FEATURE_SELFOVERLAP>
60.967

> <PUBCHEM_SHAPE_FINGERPRINT>
10010297 198 18124035895234884535
10622 236 17414119677264023143
10864689 126 18189047599945758675
11135609 12 18335699489673439633
117089 54 18410300207110387839
12107183 9 17985832523589706169
12422481 6 18273219716172378727
12633257 1 16486975145910826017
1361 4 18408042901274703434
13782708 43 18113333094156911715
14251764 30 18409735019309557102
14420673 8 18267867190367525429
14950920 106 17916316103261006057
14955137 171 18412265012813640757
15064986 96 17774731866144979277
15510800 12 18409726227944454506
15799311 1 18263381294558808881
17492 89 18411416250298732149
17909252 39 18411422847310931616
1813 80 17822568313929257532
18608769 82 18262237857862302520
23424784 1240 18409171042737801979
23559900 14 18336256934223079369
24771750 20 17899706949158362020
4073 2 18335417984811715177
4144715 1 18408326584012200105
4435113 14 18410865334285089814
46194498 28 17894907455963530668
484989 97 18334304192965844890
5104073 3 18339354262314777377
7970288 3 18336827494066901275
8863177 126 18408045125856792275
999808 66 18336271158801095563

> <PUBCHEM_SHAPE_MULTIPOLES>
660.4
16.7
5.14
1.49
7.7
0.9
0.15
16.14
1.5
-2.84
-0.02
0.37
0.69
3.42

> <PUBCHEM_SHAPE_SELFOVERLAP>
1370.69

> <PUBCHEM_SHAPE_VOLUME>
371

> <PUBCHEM_COORDINATE_TYPE>
2
5
10

$$$$
