13241290
  -OEChem-03292013303D

 57 60  0     1  0  0  0  0  0999 V2000
   -0.9153   -0.8364   -2.4960 O   0  0  0  0  0  0  0  0  0  0  0  0
   -3.1712   -2.1729    0.5173 O   0  0  0  0  0  0  0  0  0  0  0  0
   -0.6750    2.5740   -0.1019 O   0  0  0  0  0  0  0  0  0  0  0  0
   -1.1569    1.3779   -2.7874 O   0  0  0  0  0  0  0  0  0  0  0  0
    3.5237    0.7294   -0.1921 O   0  0  0  0  0  0  0  0  0  0  0  0
    2.2427   -1.0100   -2.5381 O   0  0  0  0  0  0  0  0  0  0  0  0
    4.4770    1.8970    1.5588 O   0  0  0  0  0  0  0  0  0  0  0  0
   -0.2778   -1.5761   -0.2157 C   0  0  1  0  0  0  0  0  0  0  0  0
   -1.3043   -0.5559    0.4081 C   0  0  1  0  0  0  0  0  0  0  0  0
   -1.8293    0.4779   -0.6552 C   0  0  1  0  0  0  0  0  0  0  0  0
    1.1524   -0.8917   -0.3857 C   0  0  1  0  0  0  0  0  0  0  0  0
   -2.4832   -1.1561    1.2425 C   0  0  1  0  0  0  0  0  0  0  0  0
   -3.3745    0.4961   -0.7605 C   0  0  0  0  0  0  0  0  0  0  0  0
   -0.1008   -2.8892    0.5929 C   0  0  0  0  0  0  0  0  0  0  0  0
    2.0807   -0.8381    0.8887 C   0  0  1  0  0  0  0  0  0  0  0  0
   -3.8020    0.9830    0.6247 C   0  0  1  0  0  0  0  0  0  0  0  0
   -0.8907   -1.9512   -1.5915 C   0  0  0  0  0  0  0  0  0  0  0  0
   -3.5127   -0.0930    1.6891 C   0  0  0  0  0  0  0  0  0  0  0  0
   -1.6555    1.8537   -0.0139 C   0  0  0  0  0  0  0  0  0  0  0  0
    0.6787   -2.7276    1.8916 C   0  0  0  0  0  0  0  0  0  0  0  0
    2.0804   -2.1893    1.6322 C   0  0  0  0  0  0  0  0  0  0  0  0
   -1.2564    0.3955   -2.0563 C   0  0  0  0  0  0  0  0  0  0  0  0
   -2.8758    2.1616    0.7877 C   0  0  0  0  0  0  0  0  0  0  0  0
    3.5442   -0.4993    0.4939 C   0  0  0  0  0  0  0  0  0  0  0  0
    1.6616    0.2852    1.8668 C   0  0  0  0  0  0  0  0  0  0  0  0
    1.9009   -1.5780   -1.5061 C   0  0  0  0  0  0  0  0  0  0  0  0
   -3.0708    3.3057    1.4434 C   0  0  0  0  0  0  0  0  0  0  0  0
    4.2551    1.7505    0.3645 C   0  0  0  0  0  0  0  0  0  0  0  0
    4.7547    2.6776   -0.7017 C   0  0  0  0  0  0  0  0  0  0  0  0
   -0.7550    0.0167    1.1554 H   0  0  0  0  0  0  0  0  0  0  0  0
    1.0072    0.1412   -0.7271 H   0  0  0  0  0  0  0  0  0  0  0  0
   -2.0855   -1.6368    2.1426 H   0  0  0  0  0  0  0  0  0  0  0  0
   -3.8041   -0.4705   -1.0388 H   0  0  0  0  0  0  0  0  0  0  0  0
   -3.7094    1.2050   -1.5331 H   0  0  0  0  0  0  0  0  0  0  0  0
    0.4330   -3.6243   -0.0253 H   0  0  0  0  0  0  0  0  0  0  0  0
   -1.0624   -3.3632    0.8097 H   0  0  0  0  0  0  0  0  0  0  0  0
   -4.8525    1.2903    0.6463 H   0  0  0  0  0  0  0  0  0  0  0  0
   -0.3093   -2.7395   -2.0828 H   0  0  0  0  0  0  0  0  0  0  0  0
   -1.9073   -2.3478   -1.5167 H   0  0  0  0  0  0  0  0  0  0  0  0
   -3.1639    0.3809    2.6156 H   0  0  0  0  0  0  0  0  0  0  0  0
   -4.4587   -0.5929    1.9337 H   0  0  0  0  0  0  0  0  0  0  0  0
    0.1384   -2.0830    2.5906 H   0  0  0  0  0  0  0  0  0  0  0  0
    0.7617   -3.7060    2.3803 H   0  0  0  0  0  0  0  0  0  0  0  0
    2.6106   -2.0964    2.5887 H   0  0  0  0  0  0  0  0  0  0  0  0
    2.6377   -2.9348    1.0499 H   0  0  0  0  0  0  0  0  0  0  0  0
    3.9791   -1.2579   -0.1659 H   0  0  0  0  0  0  0  0  0  0  0  0
    4.1919   -0.4794    1.3805 H   0  0  0  0  0  0  0  0  0  0  0  0
    2.4426    0.4718    2.6137 H   0  0  0  0  0  0  0  0  0  0  0  0
    1.4639    1.2285    1.3473 H   0  0  0  0  0  0  0  0  0  0  0  0
    0.7730    0.0307    2.4475 H   0  0  0  0  0  0  0  0  0  0  0  0
    2.1436   -2.6432   -1.3530 H   0  0  0  0  0  0  0  0  0  0  0  0
   -3.8287   -2.5694    1.1137 H   0  0  0  0  0  0  0  0  0  0  0  0
   -3.9934    3.4809    1.9864 H   0  0  0  0  0  0  0  0  0  0  0  0
   -2.3216    4.0896    1.4568 H   0  0  0  0  0  0  0  0  0  0  0  0
    3.9082    3.1141   -1.2377 H   0  0  0  0  0  0  0  0  0  0  0  0
    5.4064    2.1328   -1.3893 H   0  0  0  0  0  0  0  0  0  0  0  0
    5.3300    3.4854   -0.2406 H   0  0  0  0  0  0  0  0  0  0  0  0
  1 17  1  0  0  0  0
  1 22  1  0  0  0  0
  2 12  1  0  0  0  0
  2 52  1  0  0  0  0
  3 19  2  0  0  0  0
  4 22  2  0  0  0  0
  5 24  1  0  0  0  0
  5 28  1  0  0  0  0
  6 26  2  0  0  0  0
  7 28  2  0  0  0  0
  8  9  1  0  0  0  0
  8 11  1  0  0  0  0
  8 14  1  0  0  0  0
  8 17  1  0  0  0  0
  9 10  1  0  0  0  0
  9 12  1  0  0  0  0
  9 30  1  0  0  0  0
 10 13  1  0  0  0  0
 10 19  1  0  0  0  0
 10 22  1  0  0  0  0
 11 15  1  0  0  0  0
 11 26  1  0  0  0  0
 11 31  1  0  0  0  0
 12 18  1  0  0  0  0
 12 32  1  0  0  0  0
 13 16  1  0  0  0  0
 13 33  1  0  0  0  0
 13 34  1  0  0  0  0
 14 20  1  0  0  0  0
 14 35  1  0  0  0  0
 14 36  1  0  0  0  0
 15 21  1  0  0  0  0
 15 24  1  0  0  0  0
 15 25  1  0  0  0  0
 16 18  1  0  0  0  0
 16 23  1  0  0  0  0
 16 37  1  0  0  0  0
 17 38  1  0  0  0  0
 17 39  1  0  0  0  0
 18 40  1  0  0  0  0
 18 41  1  0  0  0  0
 19 23  1  0  0  0  0
 20 21  1  0  0  0  0
 20 42  1  0  0  0  0
 20 43  1  0  0  0  0
 21 44  1  0  0  0  0
 21 45  1  0  0  0  0
 23 27  2  0  0  0  0
 24 46  1  0  0  0  0
 24 47  1  0  0  0  0
 25 48  1  0  0  0  0
 25 49  1  0  0  0  0
 25 50  1  0  0  0  0
 26 51  1  0  0  0  0
 27 53  1  0  0  0  0
 27 54  1  0  0  0  0
 28 29  1  0  0  0  0
 29 55  1  0  0  0  0
 29 56  1  0  0  0  0
 29 57  1  0  0  0  0
M  END
> <PUBCHEM_COMPOUND_CID>
13241290

> <PUBCHEM_CONFORMER_RMSD>
0.8

> <PUBCHEM_CONFORMER_DIVERSEORDER>
9
14
16
22
25
8
3
18
19
29
12
15
17
2
7
27
6
1
21
24
5
23
13
4
11
26
20
28
30
10

> <PUBCHEM_MMFF94_PARTIAL_CHARGES>
24
1 -0.43
10 0.12
11 0.06
12 0.28
16 0.14
17 0.28
19 0.49
2 -0.68
22 0.66
23 -0.12
24 0.28
26 0.45
27 -0.3
28 0.66
29 0.06
3 -0.57
4 -0.57
5 -0.43
51 0.06
52 0.4
53 0.15
54 0.15
6 -0.57
7 -0.57

> <PUBCHEM_EFFECTIVE_ROTOR_COUNT>
6

> <PUBCHEM_PHARMACOPHORE_FEATURES>
9
1 2 acceptor
1 2 donor
1 3 acceptor
1 4 acceptor
1 6 acceptor
1 7 acceptor
6 1 8 9 10 17 22 rings
6 8 11 14 15 20 21 rings
8 9 10 12 13 16 18 19 23 rings

> <PUBCHEM_HEAVY_ATOM_COUNT>
29

> <PUBCHEM_ATOM_DEF_STEREO_COUNT>
7

> <PUBCHEM_ATOM_UDEF_STEREO_COUNT>
0

> <PUBCHEM_BOND_DEF_STEREO_COUNT>
0

> <PUBCHEM_BOND_UDEF_STEREO_COUNT>
0

> <PUBCHEM_ISOTOPIC_ATOM_COUNT>
0

> <PUBCHEM_COMPONENT_COUNT>
1

> <PUBCHEM_CACTVS_TAUTO_COUNT>
2

> <PUBCHEM_CONFORMER_ID>
00CA0BCA00000009

> <PUBCHEM_MMFF94_ENERGY>
116.7154

> <PUBCHEM_FEATURE_SELFOVERLAP>
45.7

> <PUBCHEM_SHAPE_FINGERPRINT>
10165383 225 17829355512975096558
10863032 1 18408606933116817474
10948715 1 18272371927670703187
1100329 8 17686345673736303483
11221954 11 18271811164003621040
11578080 2 17531516595224785069
11640471 11 17197659699013344923
12156800 1 16827911792718747592
12173636 292 18341607135647986416
12633257 1 17827355475702172203
128993 33 18271799086534323464
13140716 1 18188214195331912051
13224815 77 18270398274587489113
13583140 156 17897435099629281390
13965767 371 17677900011058115213
13994607 96 18340204223103688733
14142880 1 18260820544646154341
14223421 5 17823412708430107834
14713325 29 17843403127483564726
14787075 74 18265613363281991799
15163728 17 16987455113523780321
15238133 3 17619358601806820210
16945 1 18264216816127146703
17974551 9 15072537858153389552
18981168 100 17969204664871117802
20600515 1 17826521259841250255
20775530 9 7925327646256220384
21756936 100 18340483482673840336
21864079 5 18200589203150517696
23227448 37 18199752616482810284
23419403 2 15980374072206771423
23559900 14 17981334382870575783
392239 28 18263373640699929497
4280585 95 11167946836442391178
469060 322 16371842031838625354
5081480 168 16985504575622081612
57527585 103 17038069267323719178
57527585 21 18059568071166463061
6287921 2 18113911441921510366
7097593 13 17537715491326604995
7288768 16 18261111924102429400

> <PUBCHEM_SHAPE_MULTIPOLES>
555.72
7.2
3.45
2.3
4.57
0.77
-1.16
5.72
2.08
0.6
1.05
-0.01
-0.38
-0.39

> <PUBCHEM_SHAPE_SELFOVERLAP>
1199.629

> <PUBCHEM_SHAPE_VOLUME>
298.3

> <PUBCHEM_COORDINATE_TYPE>
2
5
10

$$$$
