132487406
  -OEChem-03292013293D

 60 63  0     1  0  0  0  0  0999 V2000
    1.1174    2.3408    0.4062 O   0  0  0  0  0  0  0  0  0  0  0  0
    0.5298   -2.7490   -1.4374 O   0  0  0  0  0  0  0  0  0  0  0  0
    2.2476   -2.1429    1.6919 O   0  0  0  0  0  0  0  0  0  0  0  0
   -2.1676   -2.4478    0.4486 O   0  0  0  0  0  0  0  0  0  0  0  0
    4.2282    0.9040    1.3606 O   0  0  0  0  0  0  0  0  0  0  0  0
   -4.2972   -0.8233    1.7272 O   0  0  0  0  0  0  0  0  0  0  0  0
    2.8170    3.0930    1.6776 O   0  0  0  0  0  0  0  0  0  0  0  0
    1.2986    0.2799   -1.0132 C   0  0  2  0  0  0  0  0  0  0  0  0
    0.2711   -0.6269   -0.2099 C   0  0  1  0  0  0  0  0  0  0  0  0
   -1.2792   -0.3376   -0.5055 C   0  0  2  0  0  0  0  0  0  0  0  0
    2.7387    0.1067   -0.4079 C   0  0  2  0  0  0  0  0  0  0  0  0
    0.9063    1.7716   -0.9047 C   0  0  1  0  0  0  0  0  0  0  0  0
   -1.5070    1.2164   -0.3255 C   0  0  1  0  0  0  0  0  0  0  0  0
    0.7113   -2.1208   -0.1771 C   0  0  2  0  0  0  0  0  0  0  0  0
   -0.5699    2.0354   -1.2353 C   0  0  0  0  0  0  0  0  0  0  0  0
    3.1653   -1.3961   -0.4365 C   0  0  2  0  0  0  0  0  0  0  0  0
    2.1662   -2.3229    0.2800 C   0  0  1  0  0  0  0  0  0  0  0  0
   -2.2056   -1.0238    0.5670 C   0  0  1  0  0  0  0  0  0  0  0  0
    1.4077   -0.0355   -2.5338 C   0  0  0  0  0  0  0  0  0  0  0  0
    2.8663    0.7897    0.9633 C   0  0  2  0  0  0  0  0  0  0  0  0
   -1.7348   -0.8275   -1.9041 C   0  0  0  0  0  0  0  0  0  0  0  0
   -2.9722    1.6337   -0.3798 C   0  0  0  0  0  0  0  0  0  0  0  0
   -3.6900   -0.6246    0.4479 C   0  0  2  0  0  0  0  0  0  0  0  0
    4.5957   -1.6443    0.0563 C   0  0  0  0  0  0  0  0  0  0  0  0
    2.3122    2.1911    1.0165 C   0  0  0  0  0  0  0  0  0  0  0  0
   -3.9393    0.7801   -0.0026 C   0  0  0  0  0  0  0  0  0  0  0  0
   -3.3263    3.0401   -0.7735 C   0  0  0  0  0  0  0  0  0  0  0  0
   -5.6901   -1.0593    1.6036 C   0  0  0  0  0  0  0  0  0  0  0  0
    0.3767   -0.3075    0.8382 H   0  0  0  0  0  0  0  0  0  0  0  0
    3.4488    0.6331   -1.0647 H   0  0  0  0  0  0  0  0  0  0  0  0
    1.5172    2.3720   -1.5925 H   0  0  0  0  0  0  0  0  0  0  0  0
   -1.2130    1.4632    0.7075 H   0  0  0  0  0  0  0  0  0  0  0  0
    0.0862   -2.6570    0.5397 H   0  0  0  0  0  0  0  0  0  0  0  0
   -0.7868    1.8447   -2.2906 H   0  0  0  0  0  0  0  0  0  0  0  0
   -0.7462    3.1064   -1.0749 H   0  0  0  0  0  0  0  0  0  0  0  0
    3.1772   -1.7019   -1.4908 H   0  0  0  0  0  0  0  0  0  0  0  0
    2.4666   -3.3597    0.0808 H   0  0  0  0  0  0  0  0  0  0  0  0
   -1.8330   -0.7832    1.5716 H   0  0  0  0  0  0  0  0  0  0  0  0
    0.5886    0.3764   -3.1225 H   0  0  0  0  0  0  0  0  0  0  0  0
    1.4749   -1.0987   -2.7611 H   0  0  0  0  0  0  0  0  0  0  0  0
    2.3089    0.4274   -2.9564 H   0  0  0  0  0  0  0  0  0  0  0  0
    2.3469    0.2299    1.7442 H   0  0  0  0  0  0  0  0  0  0  0  0
   -1.6500   -1.9123   -2.0066 H   0  0  0  0  0  0  0  0  0  0  0  0
   -1.1826   -0.3770   -2.7227 H   0  0  0  0  0  0  0  0  0  0  0  0
   -2.7840   -0.5896   -2.1051 H   0  0  0  0  0  0  0  0  0  0  0  0
   -4.1668   -1.3004   -0.2763 H   0  0  0  0  0  0  0  0  0  0  0  0
    4.6963   -1.5191    1.1380 H   0  0  0  0  0  0  0  0  0  0  0  0
    5.3015   -0.9709   -0.4408 H   0  0  0  0  0  0  0  0  0  0  0  0
    4.9017   -2.6704   -0.1772 H   0  0  0  0  0  0  0  0  0  0  0  0
   -4.9725    1.1132   -0.0500 H   0  0  0  0  0  0  0  0  0  0  0  0
    0.7483   -3.6909   -1.3359 H   0  0  0  0  0  0  0  0  0  0  0  0
    1.6623   -2.7981    2.1083 H   0  0  0  0  0  0  0  0  0  0  0  0
   -2.7211   -2.8154    1.1587 H   0  0  0  0  0  0  0  0  0  0  0  0
   -4.3999    3.2388   -0.6836 H   0  0  0  0  0  0  0  0  0  0  0  0
   -3.0487    3.2303   -1.8150 H   0  0  0  0  0  0  0  0  0  0  0  0
   -2.8101    3.7584   -0.1285 H   0  0  0  0  0  0  0  0  0  0  0  0
    4.2424    1.1866    2.2912 H   0  0  0  0  0  0  0  0  0  0  0  0
   -6.0852   -1.2624    2.6034 H   0  0  0  0  0  0  0  0  0  0  0  0
   -5.8861   -1.9388    0.9819 H   0  0  0  0  0  0  0  0  0  0  0  0
   -6.2208   -0.1891    1.2092 H   0  0  0  0  0  0  0  0  0  0  0  0
  1 12  1  0  0  0  0
  1 25  1  0  0  0  0
  2 14  1  0  0  0  0
  2 51  1  0  0  0  0
  3 17  1  0  0  0  0
  3 52  1  0  0  0  0
  4 18  1  0  0  0  0
  4 53  1  0  0  0  0
  5 20  1  0  0  0  0
  5 57  1  0  0  0  0
  6 23  1  0  0  0  0
  6 28  1  0  0  0  0
  7 25  2  0  0  0  0
  8  9  1  0  0  0  0
  8 11  1  0  0  0  0
  8 12  1  0  0  0  0
  8 19  1  0  0  0  0
  9 10  1  0  0  0  0
  9 14  1  0  0  0  0
  9 29  1  0  0  0  0
 10 13  1  0  0  0  0
 10 18  1  0  0  0  0
 10 21  1  0  0  0  0
 11 16  1  0  0  0  0
 11 20  1  0  0  0  0
 11 30  1  0  0  0  0
 12 15  1  0  0  0  0
 12 31  1  0  0  0  0
 13 15  1  0  0  0  0
 13 22  1  0  0  0  0
 13 32  1  0  0  0  0
 14 17  1  0  0  0  0
 14 33  1  0  0  0  0
 15 34  1  0  0  0  0
 15 35  1  0  0  0  0
 16 17  1  0  0  0  0
 16 24  1  0  0  0  0
 16 36  1  0  0  0  0
 17 37  1  0  0  0  0
 18 23  1  0  0  0  0
 18 38  1  0  0  0  0
 19 39  1  0  0  0  0
 19 40  1  0  0  0  0
 19 41  1  0  0  0  0
 20 25  1  0  0  0  0
 20 42  1  0  0  0  0
 21 43  1  0  0  0  0
 21 44  1  0  0  0  0
 21 45  1  0  0  0  0
 22 26  2  0  0  0  0
 22 27  1  0  0  0  0
 23 26  1  0  0  0  0
 23 46  1  0  0  0  0
 24 47  1  0  0  0  0
 24 48  1  0  0  0  0
 24 49  1  0  0  0  0
 26 50  1  0  0  0  0
 27 54  1  0  0  0  0
 27 55  1  0  0  0  0
 27 56  1  0  0  0  0
 28 58  1  0  0  0  0
 28 59  1  0  0  0  0
 28 60  1  0  0  0  0
M  END
> <PUBCHEM_COMPOUND_CID>
132487406

> <PUBCHEM_CONFORMER_RMSD>
0.6

> <PUBCHEM_CONFORMER_DIVERSEORDER>
1
3
2

> <PUBCHEM_MMFF94_PARTIAL_CHARGES>
24
1 -0.43
12 0.28
13 0.14
14 0.28
17 0.28
18 0.28
2 -0.68
20 0.34
22 -0.28
23 0.42
25 0.66
26 -0.29
27 0.14
28 0.28
3 -0.68
4 -0.68
5 -0.68
50 0.15
51 0.4
52 0.4
53 0.4
57 0.4
6 -0.56
7 -0.57

> <PUBCHEM_EFFECTIVE_ROTOR_COUNT>
2.6

> <PUBCHEM_PHARMACOPHORE_FEATURES>
14
1 2 acceptor
1 2 donor
1 3 acceptor
1 3 donor
1 4 acceptor
1 4 donor
1 5 acceptor
1 5 donor
1 6 acceptor
1 7 acceptor
6 1 8 11 12 20 25 rings
6 10 13 18 22 23 26 rings
6 8 9 10 12 13 15 rings
6 8 9 11 14 16 17 rings

> <PUBCHEM_HEAVY_ATOM_COUNT>
28

> <PUBCHEM_ATOM_DEF_STEREO_COUNT>
11

> <PUBCHEM_ATOM_UDEF_STEREO_COUNT>
1

> <PUBCHEM_BOND_DEF_STEREO_COUNT>
0

> <PUBCHEM_BOND_UDEF_STEREO_COUNT>
0

> <PUBCHEM_ISOTOPIC_ATOM_COUNT>
0

> <PUBCHEM_COMPONENT_COUNT>
1

> <PUBCHEM_CACTVS_TAUTO_COUNT>
1

> <PUBCHEM_CONFORMER_ID>
07E598EE00000001

> <PUBCHEM_MMFF94_ENERGY>
120.2755

> <PUBCHEM_FEATURE_SELFOVERLAP>
71.22

> <PUBCHEM_SHAPE_FINGERPRINT>
10076449 9 18200611211470420926
10165383 225 18127420170466537288
10366900 7 18334583481255504209
10675989 125 16462753626158649756
10863032 1 18191021209873285692
1100329 8 16395211717611261928
11640471 11 14979952562381828948
12011746 2 18125151641749426740
12035758 1 18271798026447632346
12553582 1 18189349029371980391
12633257 1 18060421338921813866
13140716 1 17975140047828676475
13224815 77 18340194237536730255
13583140 156 18339919321185953757
13692114 37 18265331700208045481
14178342 30 18188202203735462571
14223421 5 18410570733898131363
14790565 3 18337390569371543812
14866123 147 15602865099968728115
14955137 171 18201170844970546214
16945 1 17823123554505247540
17349148 13 17531248413456542027
1813 80 16805323284187737716
20600515 1 17757837723544252350
20691752 17 18190175882936822207
20905425 154 18262521364379883630
21033648 29 18200580424100195585
21421861 104 17896334673690494529
21756936 100 17623845039405239680
21792934 111 18334585642726516937
22182313 1 18260540122374261733
23419403 2 17683208436201694020
23559900 14 18186242810117926605
2748010 2 18337098021293346068
2838139 119 14188428539040732546
350125 39 18335995202709446341
392239 28 18337943618686077426
394222 165 16158229020021378573
4340502 62 17986967430274693883
495365 180 17986084362959407333
5104073 3 18263643970030811128

> <PUBCHEM_SHAPE_MULTIPOLES>
535.14
8.1
3.27
1.71
5.21
0.86
0.27
-1.51
-4.03
-0.52
-0.5
-0.19
0.06
1.81

> <PUBCHEM_SHAPE_SELFOVERLAP>
1139.636

> <PUBCHEM_SHAPE_VOLUME>
288.7

> <PUBCHEM_COORDINATE_TYPE>
2
5
10

$$$$
