132494147
  -OEChem-03292013293D

 47 50  0     1  0  0  0  0  0999 V2000
   -4.0216   -0.0217   -0.2525 O   0  0  0  0  0  0  0  0  0  0  0  0
    0.6303   -0.1214   -0.0351 O   0  0  0  0  0  0  0  0  0  0  0  0
   -4.1948   -2.2693    1.5129 O   0  0  0  0  0  0  0  0  0  0  0  0
    3.1711    2.5447   -0.0294 O   0  0  0  0  0  0  0  0  0  0  0  0
   -1.6982    4.1515    0.1117 O   0  0  0  0  0  0  0  0  0  0  0  0
    0.8852    3.9691    0.1921 O   0  0  0  0  0  0  0  0  0  0  0  0
    6.1493   -3.0289    0.2786 O   0  0  0  0  0  0  0  0  0  0  0  0
   -3.5169   -1.3389   -0.5938 C   0  0  1  0  0  0  0  0  0  0  0  0
   -2.0381   -1.4228   -0.1872 C   0  0  0  0  0  0  0  0  0  0  0  0
   -4.3720   -2.3879    0.0981 C   0  0  0  0  0  0  0  0  0  0  0  0
   -1.7163    0.0226   -0.1516 C   0  0  0  0  0  0  0  0  0  0  0  0
   -2.8943    0.7548   -0.1680 C   0  0  0  0  0  0  0  0  0  0  0  0
   -0.4902    0.6579   -0.0596 C   0  0  0  0  0  0  0  0  0  0  0  0
   -0.4776    2.0538    0.0356 C   0  0  0  0  0  0  0  0  0  0  0  0
    1.8285    0.5725   -0.4162 C   0  0  1  0  0  0  0  0  0  0  0  0
    2.0171    1.8479    0.4072 C   0  0  2  0  0  0  0  0  0  0  0  0
   -5.8565   -2.1875   -0.2181 C   0  0  0  0  0  0  0  0  0  0  0  0
   -3.9313   -3.7986   -0.2976 C   0  0  0  0  0  0  0  0  0  0  0  0
   -2.9033    2.1340   -0.0842 C   0  0  0  0  0  0  0  0  0  0  0  0
    0.8167    2.7458    0.1981 C   0  0  0  0  0  0  0  0  0  0  0  0
   -1.6758    2.7914    0.0164 C   0  0  0  0  0  0  0  0  0  0  0  0
    2.9848   -0.3918   -0.2307 C   0  0  0  0  0  0  0  0  0  0  0  0
    3.7337   -0.8039   -1.3331 C   0  0  0  0  0  0  0  0  0  0  0  0
    3.2994   -0.8660    1.0428 C   0  0  0  0  0  0  0  0  0  0  0  0
    4.7969   -1.6903   -1.1620 C   0  0  0  0  0  0  0  0  0  0  0  0
    4.3627   -1.7525    1.2140 C   0  0  0  0  0  0  0  0  0  0  0  0
    5.1113   -2.1647    0.1116 C   0  0  0  0  0  0  0  0  0  0  0  0
   -3.6091   -1.4354   -1.6855 H   0  0  0  0  0  0  0  0  0  0  0  0
   -1.4523   -1.9718   -0.9304 H   0  0  0  0  0  0  0  0  0  0  0  0
   -1.8719   -1.8573    0.8032 H   0  0  0  0  0  0  0  0  0  0  0  0
    1.7519    0.8241   -1.4845 H   0  0  0  0  0  0  0  0  0  0  0  0
    2.0976    1.6514    1.4824 H   0  0  0  0  0  0  0  0  0  0  0  0
   -3.9963   -3.9511   -1.3799 H   0  0  0  0  0  0  0  0  0  0  0  0
   -6.0466   -2.2215   -1.2958 H   0  0  0  0  0  0  0  0  0  0  0  0
   -2.9053   -4.0081    0.0237 H   0  0  0  0  0  0  0  0  0  0  0  0
   -4.5583   -4.5537    0.1913 H   0  0  0  0  0  0  0  0  0  0  0  0
   -6.2258   -1.2335    0.1744 H   0  0  0  0  0  0  0  0  0  0  0  0
   -6.4643   -2.9638    0.2613 H   0  0  0  0  0  0  0  0  0  0  0  0
   -3.8368    2.6870   -0.0923 H   0  0  0  0  0  0  0  0  0  0  0  0
   -4.7530   -2.9391    1.9437 H   0  0  0  0  0  0  0  0  0  0  0  0
    3.2979    3.3037    0.5653 H   0  0  0  0  0  0  0  0  0  0  0  0
    3.5013   -0.4431   -2.3314 H   0  0  0  0  0  0  0  0  0  0  0  0
    2.7215   -0.5658    1.9125 H   0  0  0  0  0  0  0  0  0  0  0  0
   -0.7982    4.5057    0.1706 H   0  0  0  0  0  0  0  0  0  0  0  0
    5.3768   -2.0077   -2.0244 H   0  0  0  0  0  0  0  0  0  0  0  0
    4.5961   -2.1166    2.2109 H   0  0  0  0  0  0  0  0  0  0  0  0
    6.2243   -3.2528    1.2222 H   0  0  0  0  0  0  0  0  0  0  0  0
  1  8  1  0  0  0  0
  1 12  1  0  0  0  0
  2 13  1  0  0  0  0
  2 15  1  0  0  0  0
  3 10  1  0  0  0  0
  3 40  1  0  0  0  0
  4 16  1  0  0  0  0
  4 41  1  0  0  0  0
  5 21  1  0  0  0  0
  5 44  1  0  0  0  0
  6 20  2  0  0  0  0
  7 27  1  0  0  0  0
  7 47  1  0  0  0  0
  8  9  1  0  0  0  0
  8 10  1  0  0  0  0
  8 28  1  0  0  0  0
  9 11  1  0  0  0  0
  9 29  1  0  0  0  0
  9 30  1  0  0  0  0
 10 17  1  0  0  0  0
 10 18  1  0  0  0  0
 11 12  2  0  0  0  0
 11 13  1  0  0  0  0
 12 19  1  0  0  0  0
 13 14  2  0  0  0  0
 14 20  1  0  0  0  0
 14 21  1  0  0  0  0
 15 16  1  0  0  0  0
 15 22  1  0  0  0  0
 15 31  1  0  0  0  0
 16 20  1  0  0  0  0
 16 32  1  0  0  0  0
 17 34  1  0  0  0  0
 17 37  1  0  0  0  0
 17 38  1  0  0  0  0
 18 33  1  0  0  0  0
 18 35  1  0  0  0  0
 18 36  1  0  0  0  0
 19 21  2  0  0  0  0
 19 39  1  0  0  0  0
 22 23  2  0  0  0  0
 22 24  1  0  0  0  0
 23 25  1  0  0  0  0
 23 42  1  0  0  0  0
 24 26  2  0  0  0  0
 24 43  1  0  0  0  0
 25 27  2  0  0  0  0
 25 45  1  0  0  0  0
 26 27  1  0  0  0  0
 26 46  1  0  0  0  0
M  END
> <PUBCHEM_COMPOUND_CID>
132494147

> <PUBCHEM_CONFORMER_RMSD>
0.8

> <PUBCHEM_CONFORMER_DIVERSEORDER>
1
4
5
3
2
6
7

> <PUBCHEM_MMFF94_PARTIAL_CHARGES>
34
1 -0.36
10 0.28
11 -0.14
12 0.08
13 0.08
14 0.09
15 0.42
16 0.34
19 -0.15
2 -0.36
20 0.42
21 0.08
22 -0.14
23 -0.15
24 -0.15
25 -0.15
26 -0.15
27 0.08
3 -0.68
39 0.15
4 -0.68
40 0.4
41 0.4
42 0.15
43 0.15
44 0.45
45 0.15
46 0.15
47 0.45
5 -0.53
6 -0.57
7 -0.53
8 0.28
9 0.14

> <PUBCHEM_EFFECTIVE_ROTOR_COUNT>
3.2

> <PUBCHEM_PHARMACOPHORE_FEATURES>
14
1 1 acceptor
1 2 acceptor
1 3 acceptor
1 3 donor
1 4 acceptor
1 4 donor
1 5 donor
1 6 acceptor
1 7 donor
3 10 17 18 hydrophobe
5 1 8 9 11 12 rings
6 11 12 13 14 19 21 rings
6 2 13 14 15 16 20 rings
6 22 23 24 25 26 27 rings

> <PUBCHEM_HEAVY_ATOM_COUNT>
27

> <PUBCHEM_ATOM_DEF_STEREO_COUNT>
3

> <PUBCHEM_ATOM_UDEF_STEREO_COUNT>
0

> <PUBCHEM_BOND_DEF_STEREO_COUNT>
0

> <PUBCHEM_BOND_UDEF_STEREO_COUNT>
0

> <PUBCHEM_ISOTOPIC_ATOM_COUNT>
0

> <PUBCHEM_COMPONENT_COUNT>
1

> <PUBCHEM_CACTVS_TAUTO_COUNT>
150

> <PUBCHEM_CONFORMER_ID>
07E5B34300000001

> <PUBCHEM_MMFF94_ENERGY>
83.1261

> <PUBCHEM_FEATURE_SELFOVERLAP>
71.188

> <PUBCHEM_SHAPE_FINGERPRINT>
10050765 1 18411418418735685205
10319926 262 17909805680323341922
10411042 1 18411135848721116519
10622 236 17606385563370667634
10928967 22 18337123340015403035
1100329 8 18339079272801882737
11796584 16 17980761533508667102
11963148 33 18122336054796688534
12107183 9 18270698545058720283
12236239 1 17607257450774337070
12403259 226 18411133662540623341
12422481 6 17845673477261092095
12553582 1 18338516339579229403
12633257 1 18270410399227554561
12760667 363 18410853261727963735
12788726 201 18335996306521692878
12990986 174 18339078194690640598
13140716 1 18342455907096058736
13540713 4 18339060658134085749
13690498 29 18337404768052727486
138480 1 15168828460981828957
13911852 28 18339640174335394143
13955234 65 17981891057555050505
14347424 109 18272098248898418387
14790565 3 17332249697604669416
14844126 61 18337670798158515739
14863182 85 17688029025690561004
14866123 147 18340209562523354977
15042514 8 18267586814422433341
15250474 111 17972029246230517074
15352361 1 18411135844278534142
16120349 21 18270691857377791851
17138139 8 17967531264362178818
17492 89 18410852200316874230
17909252 39 18341338876839520634
20775438 99 17760913439714632395
20775530 9 18261391182501475119
21033648 29 17058626501162989834
21279426 13 18262506075308945607
21478907 32 18410856568688815969
21703447 108 18338784719512118696
22033318 11 17909590360769771875
22122407 14 15482090688387171072
221490 88 18410295851896849036
23379529 103 18341901791953707822
23557571 272 18057599855236713672
23559900 14 18410845590546906437
25222932 49 17766282350560393703
3004659 81 18113614594835334950
312423 11 18336838562192289796
3178227 256 18121515566130936209
335352 9 18339358553276937821
3421961 26 18268992157791723971
345986 75 17773891955067349865
44062 13 18337108964854107255
4409770 3 17973719177968715989
463206 1 18261956361665048123
5104073 3 18273497870527427345
5486654 36 18335992995148874211
59755656 215 18193276527655888444
633830 44 10810158081593995467
70251023 43 18335704978805206883
7288768 16 15188217923198949208
7970288 3 18410853244253208558
9709674 26 18263925621370432987

> <PUBCHEM_SHAPE_MULTIPOLES>
514.56
11.78
4.92
0.93
3.5
2.43
0.05
-15.1
0.07
-1.77
0.38
0.61
-0.47
0.06

> <PUBCHEM_SHAPE_SELFOVERLAP>
1144.175

> <PUBCHEM_SHAPE_VOLUME>
274.2

> <PUBCHEM_COORDINATE_TYPE>
2
5
10

$$$$
