132489951
  -OEChem-03292013293D

 61 60  0     1  0  0  0  0  0999 V2000
   -0.2895    2.1000   -2.3709 O   0  0  0  0  0  0  0  0  0  0  0  0
    1.9581   -0.3921    1.4367 O   0  0  0  0  0  0  0  0  0  0  0  0
    1.7415   -3.3328    0.3465 O   0  0  0  0  0  0  0  0  0  0  0  0
   -4.2212   -3.6377    0.1600 O   0  0  0  0  0  0  0  0  0  0  0  0
   -5.5123   -1.8795   -0.4717 O   0  0  0  0  0  0  0  0  0  0  0  0
   -1.8524    1.2620   -0.8834 N   0  0  0  0  0  0  0  0  0  0  0  0
    1.4330    0.4579   -0.6576 N   0  0  0  0  0  0  0  0  0  0  0  0
    4.0976   -1.7252    0.3332 N   0  0  0  0  0  0  0  0  0  0  0  0
    5.2775    0.1389   -0.6174 N   0  0  0  0  0  0  0  0  0  0  0  0
    6.2488   -1.1653    0.9798 N   0  0  0  0  0  0  0  0  0  0  0  0
   -2.1727    0.7481    0.4468 C   0  0  1  0  0  0  0  0  0  0  0  0
    0.5476    1.5049   -0.2021 C   0  0  1  0  0  0  0  0  0  0  0  0
   -2.4996    1.9035    1.4264 C   0  0  0  0  0  0  0  0  0  0  0  0
    1.2934    2.8317    0.0625 C   0  0  0  0  0  0  0  0  0  0  0  0
   -0.5626    1.6651   -1.2463 C   0  0  0  0  0  0  0  0  0  0  0  0
   -3.2814   -0.2655    0.2884 C   0  0  0  0  0  0  0  0  0  0  0  0
   -3.6961    2.7591    0.9935 C   0  0  0  0  0  0  0  0  0  0  0  0
   -2.7208    1.3860    2.8511 C   0  0  0  0  0  0  0  0  0  0  0  0
    2.0166    2.8615    1.4138 C   0  0  0  0  0  0  0  0  0  0  0  0
    2.2857    3.1355   -1.0642 C   0  0  0  0  0  0  0  0  0  0  0  0
   -2.9831    1.3213   -1.8029 C   0  0  0  0  0  0  0  0  0  0  0  0
    2.0713   -0.4131    0.2130 C   0  0  0  0  0  0  0  0  0  0  0  0
   -3.1539   -1.5641   -0.0457 C   0  0  0  0  0  0  0  0  0  0  0  0
    2.9432   -1.4215   -0.5199 C   0  0  2  0  0  0  0  0  0  0  0  0
   -1.8629   -2.2890   -0.2864 C   0  0  0  0  0  0  0  0  0  0  0  0
    2.1930   -2.7066   -0.8488 C   0  0  0  0  0  0  0  0  0  0  0  0
   -4.4258   -2.3354   -0.1498 C   0  0  0  0  0  0  0  0  0  0  0  0
    5.1268   -0.9477    0.2152 C   0  0  0  0  0  0  0  0  0  0  0  0
   -1.3336    0.1849    0.8582 H   0  0  0  0  0  0  0  0  0  0  0  0
    0.1709    1.2112    0.7709 H   0  0  0  0  0  0  0  0  0  0  0  0
   -1.6326    2.5760    1.4648 H   0  0  0  0  0  0  0  0  0  0  0  0
    0.5504    3.6405    0.0832 H   0  0  0  0  0  0  0  0  0  0  0  0
   -4.2893    0.1060    0.4625 H   0  0  0  0  0  0  0  0  0  0  0  0
   -4.6216    2.1876    0.8900 H   0  0  0  0  0  0  0  0  0  0  0  0
   -3.8885    3.5335    1.7462 H   0  0  0  0  0  0  0  0  0  0  0  0
   -3.4924    3.2927    0.0608 H   0  0  0  0  0  0  0  0  0  0  0  0
   -3.6197    0.7652    2.9241 H   0  0  0  0  0  0  0  0  0  0  0  0
   -2.8356    2.2207    3.5512 H   0  0  0  0  0  0  0  0  0  0  0  0
   -1.8650    0.7901    3.1854 H   0  0  0  0  0  0  0  0  0  0  0  0
    1.5924    0.3672   -1.6571 H   0  0  0  0  0  0  0  0  0  0  0  0
    1.3271    2.6314    2.2325 H   0  0  0  0  0  0  0  0  0  0  0  0
    1.8126    3.1786   -2.0473 H   0  0  0  0  0  0  0  0  0  0  0  0
    2.4342    3.8567    1.6019 H   0  0  0  0  0  0  0  0  0  0  0  0
    2.8437    2.1459    1.4464 H   0  0  0  0  0  0  0  0  0  0  0  0
    2.7474    4.1158   -0.8967 H   0  0  0  0  0  0  0  0  0  0  0  0
    3.1007    2.4060   -1.1054 H   0  0  0  0  0  0  0  0  0  0  0  0
   -3.1154    0.3425   -2.2750 H   0  0  0  0  0  0  0  0  0  0  0  0
   -2.7549    2.0275   -2.6082 H   0  0  0  0  0  0  0  0  0  0  0  0
   -3.9134    1.6485   -1.3382 H   0  0  0  0  0  0  0  0  0  0  0  0
    3.2540   -1.0130   -1.4883 H   0  0  0  0  0  0  0  0  0  0  0  0
   -1.6282   -2.9458    0.5573 H   0  0  0  0  0  0  0  0  0  0  0  0
   -1.0186   -1.6098   -0.4295 H   0  0  0  0  0  0  0  0  0  0  0  0
   -1.9322   -2.8989   -1.1936 H   0  0  0  0  0  0  0  0  0  0  0  0
    2.8459   -3.4105   -1.3756 H   0  0  0  0  0  0  0  0  0  0  0  0
    1.3189   -2.4969   -1.4739 H   0  0  0  0  0  0  0  0  0  0  0  0
    1.2609   -4.1361    0.0833 H   0  0  0  0  0  0  0  0  0  0  0  0
   -5.0463   -4.1644    0.0958 H   0  0  0  0  0  0  0  0  0  0  0  0
    7.0659   -0.5693    0.9046 H   0  0  0  0  0  0  0  0  0  0  0  0
    4.5443    0.4762   -1.2290 H   0  0  0  0  0  0  0  0  0  0  0  0
    6.1419    0.6700   -0.6209 H   0  0  0  0  0  0  0  0  0  0  0  0
    6.2898   -1.9312    1.6434 H   0  0  0  0  0  0  0  0  0  0  0  0
  1 15  2  0  0  0  0
  2 22  2  0  0  0  0
  3 26  1  0  0  0  0
  3 56  1  0  0  0  0
  4 27  1  0  0  0  0
  4 57  1  0  0  0  0
  5 27  2  0  0  0  0
  6 11  1  0  0  0  0
  6 15  1  0  0  0  0
  6 21  1  0  0  0  0
  7 12  1  0  0  0  0
  7 22  1  0  0  0  0
  7 40  1  0  0  0  0
  8 24  1  0  0  0  0
  8 28  2  0  0  0  0
  9 28  1  0  0  0  0
  9 59  1  0  0  0  0
  9 60  1  0  0  0  0
 10 28  1  0  0  0  0
 10 58  1  0  0  0  0
 10 61  1  0  0  0  0
 11 13  1  0  0  0  0
 11 16  1  0  0  0  0
 11 29  1  0  0  0  0
 12 14  1  0  0  0  0
 12 15  1  0  0  0  0
 12 30  1  0  0  0  0
 13 17  1  0  0  0  0
 13 18  1  0  0  0  0
 13 31  1  0  0  0  0
 14 19  1  0  0  0  0
 14 20  1  0  0  0  0
 14 32  1  0  0  0  0
 16 23  2  0  0  0  0
 16 33  1  0  0  0  0
 17 34  1  0  0  0  0
 17 35  1  0  0  0  0
 17 36  1  0  0  0  0
 18 37  1  0  0  0  0
 18 38  1  0  0  0  0
 18 39  1  0  0  0  0
 19 41  1  0  0  0  0
 19 43  1  0  0  0  0
 19 44  1  0  0  0  0
 20 42  1  0  0  0  0
 20 45  1  0  0  0  0
 20 46  1  0  0  0  0
 21 47  1  0  0  0  0
 21 48  1  0  0  0  0
 21 49  1  0  0  0  0
 22 24  1  0  0  0  0
 23 25  1  0  0  0  0
 23 27  1  0  0  0  0
 24 26  1  0  0  0  0
 24 50  1  0  0  0  0
 25 51  1  0  0  0  0
 25 52  1  0  0  0  0
 25 53  1  0  0  0  0
 26 54  1  0  0  0  0
 26 55  1  0  0  0  0
M  END
> <PUBCHEM_COMPOUND_CID>
132489951

> <PUBCHEM_CONFORMER_RMSD>
1

> <PUBCHEM_CONFORMER_DIVERSEORDER>
1
21
17
24
10
16
4
20
8
11
19
23
6
18
15
22
3
5
9
2
7
12
13
14

> <PUBCHEM_MMFF94_PARTIAL_CHARGES>
30
1 -0.57
10 -0.85
11 0.44
12 0.36
15 0.57
16 -0.29
2 -0.57
21 0.3
22 0.57
23 -0.12
24 0.31
25 0.14
26 0.28
27 0.71
28 0.55
3 -0.68
33 0.15
4 -0.65
40 0.37
5 -0.57
56 0.4
57 0.5
58 0.4
59 0.4
6 -0.66
60 0.4
61 0.4
7 -0.73
8 -0.7
9 -0.85

> <PUBCHEM_EFFECTIVE_ROTOR_COUNT>
12

> <PUBCHEM_PHARMACOPHORE_FEATURES>
14
1 1 acceptor
1 10 donor
1 2 acceptor
1 25 hydrophobe
1 3 acceptor
1 3 donor
1 4 acceptor
1 5 acceptor
1 7 donor
1 9 donor
3 13 17 18 hydrophobe
3 14 19 20 hydrophobe
3 4 5 27 anion
4 8 9 10 28 cation

> <PUBCHEM_HEAVY_ATOM_COUNT>
28

> <PUBCHEM_ATOM_DEF_STEREO_COUNT>
3

> <PUBCHEM_ATOM_UDEF_STEREO_COUNT>
0

> <PUBCHEM_BOND_DEF_STEREO_COUNT>
1

> <PUBCHEM_BOND_UDEF_STEREO_COUNT>
0

> <PUBCHEM_ISOTOPIC_ATOM_COUNT>
0

> <PUBCHEM_COMPONENT_COUNT>
1

> <PUBCHEM_CACTVS_TAUTO_COUNT>
4

> <PUBCHEM_CONFORMER_ID>
07E5A2DF00000001

> <PUBCHEM_MMFF94_ENERGY>
78.46

> <PUBCHEM_FEATURE_SELFOVERLAP>
71.162

> <PUBCHEM_SHAPE_FINGERPRINT>
11552529 35 18131625668987304191
12553582 1 18193853552121894532
12596599 1 18270133322007061706
12633257 1 18130245786737857313
12788726 201 17702404990674603009
13583140 156 17131543955789616472
14068700 675 18271238430299361047
14178342 30 18343023250689734298
14251757 17 17969477425976454983
14787075 74 18259708904631867574
14863182 85 17902801000104238743
15415430 10 18408322185469816638
16114785 44 17837760132746110136
17349148 13 13480003142783410648
20600515 1 18198350563280482772
20775530 9 18337102488360241291
21033650 10 15936671715107901053
21285901 2 17752466910517986151
21421861 104 18198084632101002907
23559900 14 18340475768622614673
23622692 118 18341048601126796981
329604 57 18260265278721768934
3380486 145 18189343363719428961
350125 39 18339926016575802869
3633792 109 18339913811207896781
463206 1 17981605176375001807
469060 322 18113621166187928234
59755656 215 18123470750669608532
7097593 13 18270978842439184777

> <PUBCHEM_SHAPE_MULTIPOLES>
521.98
10.33
4.44
1.7
6.2
0.86
-0.26
6.99
-1.75
-1.58
-0.01
-0.88
-1.43
-1.06

> <PUBCHEM_SHAPE_SELFOVERLAP>
1028.634

> <PUBCHEM_SHAPE_VOLUME>
308.8

> <PUBCHEM_COORDINATE_TYPE>
2
5
10

$$$$
