132488016
  -OEChem-03292013293D

 38 39  0     1  0  0  0  0  0999 V2000
    4.2716    0.5193   -0.2760 O   0  0  0  0  0  0  0  0  0  0  0  0
    2.1615   -1.0448   -1.6191 O   0  0  0  0  0  0  0  0  0  0  0  0
   -2.9191   -1.7348    0.0186 O   0  0  0  0  0  0  0  0  0  0  0  0
   -2.2546    2.3532    0.1506 O   0  0  0  0  0  0  0  0  0  0  0  0
   -1.0363   -2.0738   -1.1868 O   0  0  0  0  0  0  0  0  0  0  0  0
    0.3959    2.1943    1.3208 N   0  0  0  0  0  0  0  0  0  0  0  0
    3.1580   -0.0675    0.3737 C   0  0  1  0  0  0  0  0  0  0  0  0
    0.9104    0.5814   -0.4154 C   0  0  0  0  0  0  0  0  0  0  0  0
    2.5117    0.9405    1.3285 C   0  0  0  0  0  0  0  0  0  0  0  0
   -0.2713    0.5995   -1.3092 C   0  0  1  0  0  0  0  0  0  0  0  0
    1.1789    1.2688    0.7031 C   0  0  0  0  0  0  0  0  0  0  0  0
    2.0821   -0.2824   -0.6662 C   0  0  0  0  0  0  0  0  0  0  0  0
   -1.5197    0.1745   -0.5923 C   0  0  0  0  0  0  0  0  0  0  0  0
   -0.4691    1.9847   -1.9315 C   0  0  0  0  0  0  0  0  0  0  0  0
    3.5265   -1.3662    1.0062 C   0  0  0  0  0  0  0  0  0  0  0  0
   -2.3775    0.9872    0.0445 C   0  0  0  0  0  0  0  0  0  0  0  0
   -1.7912   -1.2905   -0.6182 C   0  0  0  0  0  0  0  0  0  0  0  0
   -3.5497    0.4761    0.7006 C   0  0  0  0  0  0  0  0  0  0  0  0
    4.7554   -1.8925    0.9739 C   0  0  0  0  0  0  0  0  0  0  0  0
   -3.7918   -0.8389    0.6758 C   0  0  0  0  0  0  0  0  0  0  0  0
   -4.9718   -1.4881    1.3182 C   0  0  0  0  0  0  0  0  0  0  0  0
    3.1177    1.8476    1.4389 H   0  0  0  0  0  0  0  0  0  0  0  0
    2.3479    0.5173    2.3274 H   0  0  0  0  0  0  0  0  0  0  0  0
   -0.1074   -0.0695   -2.1634 H   0  0  0  0  0  0  0  0  0  0  0  0
   -0.3861    2.8238   -1.2358 H   0  0  0  0  0  0  0  0  0  0  0  0
   -1.4221    2.0615   -2.4684 H   0  0  0  0  0  0  0  0  0  0  0  0
    0.3168    2.1545   -2.6798 H   0  0  0  0  0  0  0  0  0  0  0  0
    2.7449   -1.9185    1.5233 H   0  0  0  0  0  0  0  0  0  0  0  0
   -0.4834    2.4851    0.9214 H   0  0  0  0  0  0  0  0  0  0  0  0
    0.7271    2.6388    2.1681 H   0  0  0  0  0  0  0  0  0  0  0  0
    4.0083    1.3919   -0.6154 H   0  0  0  0  0  0  0  0  0  0  0  0
   -4.2277    1.1530    1.2091 H   0  0  0  0  0  0  0  0  0  0  0  0
    4.9478   -2.8450    1.4571 H   0  0  0  0  0  0  0  0  0  0  0  0
    5.5916   -1.4109    0.4810 H   0  0  0  0  0  0  0  0  0  0  0  0
   -2.9995    2.7174    0.6574 H   0  0  0  0  0  0  0  0  0  0  0  0
   -5.5688   -2.0149    0.5670 H   0  0  0  0  0  0  0  0  0  0  0  0
   -4.6420   -2.2138    2.0684 H   0  0  0  0  0  0  0  0  0  0  0  0
   -5.6211   -0.7603    1.8154 H   0  0  0  0  0  0  0  0  0  0  0  0
  1  7  1  0  0  0  0
  1 31  1  0  0  0  0
  2 12  2  0  0  0  0
  3 17  1  0  0  0  0
  3 20  1  0  0  0  0
  4 16  1  0  0  0  0
  4 35  1  0  0  0  0
  5 17  2  0  0  0  0
  6 11  1  0  0  0  0
  6 29  1  0  0  0  0
  6 30  1  0  0  0  0
  7  9  1  0  0  0  0
  7 12  1  0  0  0  0
  7 15  1  0  0  0  0
  8 10  1  0  0  0  0
  8 11  2  0  0  0  0
  8 12  1  0  0  0  0
  9 11  1  0  0  0  0
  9 22  1  0  0  0  0
  9 23  1  0  0  0  0
 10 13  1  0  0  0  0
 10 14  1  0  0  0  0
 10 24  1  0  0  0  0
 13 16  2  0  0  0  0
 13 17  1  0  0  0  0
 14 25  1  0  0  0  0
 14 26  1  0  0  0  0
 14 27  1  0  0  0  0
 15 19  2  0  0  0  0
 15 28  1  0  0  0  0
 16 18  1  0  0  0  0
 18 20  2  0  0  0  0
 18 32  1  0  0  0  0
 19 33  1  0  0  0  0
 19 34  1  0  0  0  0
 20 21  1  0  0  0  0
 21 36  1  0  0  0  0
 21 37  1  0  0  0  0
 21 38  1  0  0  0  0
M  END
> <PUBCHEM_COMPOUND_CID>
132488016

> <PUBCHEM_CONFORMER_RMSD>
0.6

> <PUBCHEM_CONFORMER_DIVERSEORDER>
2
14
17
23
29
27
32
28
8
16
31
24
11
34
25
10
12
20
26
21
6
18
30
4
19
33
5
1
13
9
7
15
3
22

> <PUBCHEM_MMFF94_PARTIAL_CHARGES>
28
1 -0.68
10 0.28
11 -0.04
12 0.49
13 -0.12
15 -0.29
16 0.08
17 0.71
18 -0.15
19 -0.3
2 -0.57
20 -0.06
21 0.14
28 0.15
29 0.4
3 -0.23
30 0.4
31 0.4
32 0.15
33 0.15
34 0.15
35 0.45
4 -0.53
5 -0.57
6 -0.9
7 0.48
8 -0.12
9 0.14

> <PUBCHEM_EFFECTIVE_ROTOR_COUNT>
3.4

> <PUBCHEM_PHARMACOPHORE_FEATURES>
11
1 1 acceptor
1 1 donor
1 14 hydrophobe
1 19 hydrophobe
1 2 acceptor
1 4 donor
1 5 acceptor
1 6 cation
1 6 donor
5 7 8 9 11 12 rings
6 3 13 16 17 18 20 rings

> <PUBCHEM_HEAVY_ATOM_COUNT>
21

> <PUBCHEM_ATOM_DEF_STEREO_COUNT>
2

> <PUBCHEM_ATOM_UDEF_STEREO_COUNT>
0

> <PUBCHEM_BOND_DEF_STEREO_COUNT>
0

> <PUBCHEM_BOND_UDEF_STEREO_COUNT>
0

> <PUBCHEM_ISOTOPIC_ATOM_COUNT>
0

> <PUBCHEM_COMPONENT_COUNT>
1

> <PUBCHEM_CACTVS_TAUTO_COUNT>
40

> <PUBCHEM_CONFORMER_ID>
07E59B5000000002

> <PUBCHEM_MMFF94_ENERGY>
46.9301

> <PUBCHEM_FEATURE_SELFOVERLAP>
55.823

> <PUBCHEM_SHAPE_FINGERPRINT>
10366900 7 17917426561879502703
10618630 7 17676202459673120366
11578080 2 16878770720900347357
11640471 11 13686292478513407917
12251169 10 17845660364540853269
12382932 28 18131628959200888582
12553582 1 18201996642642897788
12596599 1 15719688613919124187
12633257 1 17846216691343818787
12714826 92 18261948540565518292
12824470 246 18041273275362815442
12892183 10 18411698794147163435
13965767 371 14835857131308073859
14420673 8 17905327330133977402
15061688 2 11887952155244411562
15209289 33 18260546718895681802
15238133 3 16056332703297757226
15375462 189 18410005550978681618
15653759 3 18413666928672370137
16945 1 18130503127860672125
17780758 139 18123450697730970394
17804303 29 18412550911669651367
1813 80 17749106733398797213
18186145 218 10951780710641783477
19049666 15 17915469285200763245
19422 9 18040721337737299488
19784866 135 18113610145285684971
19862831 5 9295298222363491711
200 152 15357694197325086636
20361792 2 17385998520400308629
21731516 1 17676472960855441448
21756936 100 16340310315125150760
23402539 116 16588017979712753180
23419403 2 16053460857010896509
23503958 8 18186802448334882945
23559900 14 18057901164298622916
2748010 2 17844817970740116061
2838139 119 13685195072179536211
3060560 45 12613030651595049090
3472631 163 11671782654834003451
465052 167 17823715220953453435
5104073 3 18411696548296304920
6786 2 16524102058587947421
7097593 13 18128808823323168968
7970288 3 17603586335119386363

> <PUBCHEM_SHAPE_MULTIPOLES>
397.84
8.25
2.27
1.51
0.44
0.12
-0.24
-5.37
3.41
-0.51
0.06
0.13
0.23
0.13

> <PUBCHEM_SHAPE_SELFOVERLAP>
853.799

> <PUBCHEM_SHAPE_VOLUME>
220.8

> <PUBCHEM_COORDINATE_TYPE>
2
5
10

$$$$
