132451973
  -OEChem-03292013293D

 45 47  0     0  0  0  0  0  0999 V2000
   -0.5459    0.5133    0.2311 O   0  0  0  0  0  0  0  0  0  0  0  0
    2.4181   -1.8290    0.9505 O   0  0  0  0  0  0  0  0  0  0  0  0
    1.1762    2.0855   -1.5417 O   0  0  0  0  0  0  0  0  0  0  0  0
   -2.3135    2.2261    1.3663 O   0  0  0  0  0  0  0  0  0  0  0  0
    5.0208   -0.9231    1.0258 O   0  0  0  0  0  0  0  0  0  0  0  0
   -4.2147   -2.4752   -0.8198 O   0  0  0  0  0  0  0  0  0  0  0  0
   -1.7230   -3.0087   -1.4451 O   0  0  0  0  0  0  0  0  0  0  0  0
   -5.0133    1.6262    1.4244 O   0  0  0  0  0  0  0  0  0  0  0  0
    1.7632    0.1144   -0.2947 C   0  0  0  0  0  0  0  0  0  0  0  0
    0.3657   -0.3608   -0.3412 C   0  0  0  0  0  0  0  0  0  0  0  0
   -2.3431   -1.0243   -0.3217 C   0  0  0  0  0  0  0  0  0  0  0  0
   -1.8728    0.1648    0.2328 C   0  0  0  0  0  0  0  0  0  0  0  0
    2.7382   -0.6436    0.3538 C   0  0  0  0  0  0  0  0  0  0  0  0
    0.0357   -1.5303   -0.9119 C   0  0  0  0  0  0  0  0  0  0  0  0
   -1.3801   -1.9498   -0.9375 C   0  0  0  0  0  0  0  0  0  0  0  0
   -2.7655    1.0606    0.8217 C   0  0  0  0  0  0  0  0  0  0  0  0
    2.1075    1.3230   -0.9000 C   0  0  0  0  0  0  0  0  0  0  0  0
   -3.7064   -1.3271   -0.2920 C   0  0  0  0  0  0  0  0  0  0  0  0
    4.0575   -0.1928    0.3973 C   0  0  0  0  0  0  0  0  0  0  0  0
   -4.1279    0.7619    0.8536 C   0  0  0  0  0  0  0  0  0  0  0  0
   -4.5971   -0.4294    0.2978 C   0  0  0  0  0  0  0  0  0  0  0  0
    3.4268    1.7738   -0.8568 C   0  0  0  0  0  0  0  0  0  0  0  0
    4.4018    1.0158   -0.2080 C   0  0  0  0  0  0  0  0  0  0  0  0
    2.0211   -1.7762    2.3182 C   0  0  0  0  0  0  0  0  0  0  0  0
    0.9803    1.8330   -2.9311 C   0  0  0  0  0  0  0  0  0  0  0  0
   -2.2529    3.3612    0.5055 C   0  0  0  0  0  0  0  0  0  0  0  0
    6.3434   -0.3892    1.0230 C   0  0  0  0  0  0  0  0  0  0  0  0
    0.7639   -2.1913   -1.3686 H   0  0  0  0  0  0  0  0  0  0  0  0
   -5.6588   -0.6641    0.3214 H   0  0  0  0  0  0  0  0  0  0  0  0
    3.7016    2.7149   -1.3257 H   0  0  0  0  0  0  0  0  0  0  0  0
    5.4046    1.4286   -0.2146 H   0  0  0  0  0  0  0  0  0  0  0  0
   -3.5064   -3.0189   -1.1973 H   0  0  0  0  0  0  0  0  0  0  0  0
   -5.9096    1.2554    1.3534 H   0  0  0  0  0  0  0  0  0  0  0  0
    2.8456   -1.4182    2.9428 H   0  0  0  0  0  0  0  0  0  0  0  0
    1.1467   -1.1312    2.4492 H   0  0  0  0  0  0  0  0  0  0  0  0
    1.7573   -2.7884    2.6367 H   0  0  0  0  0  0  0  0  0  0  0  0
    0.1742    2.4811   -3.2855 H   0  0  0  0  0  0  0  0  0  0  0  0
    0.6922    0.7919   -3.1056 H   0  0  0  0  0  0  0  0  0  0  0  0
    1.8899    2.0683   -3.4927 H   0  0  0  0  0  0  0  0  0  0  0  0
   -1.8654    4.2066    1.0806 H   0  0  0  0  0  0  0  0  0  0  0  0
   -3.2506    3.6179    0.1357 H   0  0  0  0  0  0  0  0  0  0  0  0
   -1.5783    3.1726   -0.3356 H   0  0  0  0  0  0  0  0  0  0  0  0
    6.9777   -1.0977    1.5660 H   0  0  0  0  0  0  0  0  0  0  0  0
    6.3959    0.5622    1.5633 H   0  0  0  0  0  0  0  0  0  0  0  0
    6.7470   -0.3156    0.0075 H   0  0  0  0  0  0  0  0  0  0  0  0
  1 10  1  0  0  0  0
  1 12  1  0  0  0  0
  2 13  1  0  0  0  0
  2 24  1  0  0  0  0
  3 17  1  0  0  0  0
  3 25  1  0  0  0  0
  4 16  1  0  0  0  0
  4 26  1  0  0  0  0
  5 19  1  0  0  0  0
  5 27  1  0  0  0  0
  6 18  1  0  0  0  0
  6 32  1  0  0  0  0
  7 15  2  0  0  0  0
  8 20  1  0  0  0  0
  8 33  1  0  0  0  0
  9 10  1  0  0  0  0
  9 13  1  0  0  0  0
  9 17  2  0  0  0  0
 10 14  2  0  0  0  0
 11 12  2  0  0  0  0
 11 15  1  0  0  0  0
 11 18  1  0  0  0  0
 12 16  1  0  0  0  0
 13 19  2  0  0  0  0
 14 15  1  0  0  0  0
 14 28  1  0  0  0  0
 16 20  2  0  0  0  0
 17 22  1  0  0  0  0
 18 21  2  0  0  0  0
 19 23  1  0  0  0  0
 20 21  1  0  0  0  0
 21 29  1  0  0  0  0
 22 23  2  0  0  0  0
 22 30  1  0  0  0  0
 23 31  1  0  0  0  0
 24 34  1  0  0  0  0
 24 35  1  0  0  0  0
 24 36  1  0  0  0  0
 25 37  1  0  0  0  0
 25 38  1  0  0  0  0
 25 39  1  0  0  0  0
 26 40  1  0  0  0  0
 26 41  1  0  0  0  0
 26 42  1  0  0  0  0
 27 43  1  0  0  0  0
 27 44  1  0  0  0  0
 27 45  1  0  0  0  0
M  END
> <PUBCHEM_COMPOUND_CID>
132451973

> <PUBCHEM_CONFORMER_RMSD>
0.8

> <PUBCHEM_CONFORMER_DIVERSEORDER>
2
5
6
10
12
4
1
7
11
8
3
9

> <PUBCHEM_MMFF94_PARTIAL_CHARGES>
33
1 -0.16
10 0.05
11 0.09
12 0.08
13 0.08
14 -0.14
15 0.47
16 0.08
17 0.08
18 0.08
19 0.08
2 -0.36
20 0.08
21 -0.15
22 -0.15
23 -0.15
24 0.28
25 0.28
26 0.28
27 0.28
28 0.15
29 0.15
3 -0.36
30 0.15
31 0.15
32 0.45
33 0.45
4 -0.36
5 -0.36
6 -0.53
7 -0.57
8 -0.53
9 0.03

> <PUBCHEM_EFFECTIVE_ROTOR_COUNT>
5

> <PUBCHEM_PHARMACOPHORE_FEATURES>
11
1 1 acceptor
1 2 acceptor
1 3 acceptor
1 4 acceptor
1 5 acceptor
1 6 donor
1 7 acceptor
1 8 donor
6 1 10 11 12 14 15 rings
6 11 12 16 18 20 21 rings
6 9 13 17 19 22 23 rings

> <PUBCHEM_HEAVY_ATOM_COUNT>
27

> <PUBCHEM_ATOM_DEF_STEREO_COUNT>
0

> <PUBCHEM_ATOM_UDEF_STEREO_COUNT>
0

> <PUBCHEM_BOND_DEF_STEREO_COUNT>
0

> <PUBCHEM_BOND_UDEF_STEREO_COUNT>
0

> <PUBCHEM_ISOTOPIC_ATOM_COUNT>
0

> <PUBCHEM_COMPONENT_COUNT>
1

> <PUBCHEM_CACTVS_TAUTO_COUNT>
12

> <PUBCHEM_CONFORMER_ID>
07E50E8500000002

> <PUBCHEM_MMFF94_ENERGY>
123.9651

> <PUBCHEM_FEATURE_SELFOVERLAP>
55.866

> <PUBCHEM_SHAPE_FINGERPRINT>
10366900 7 15068887698708283183
10906281 52 18115034125689099942
11578080 2 18048558720976765260
11640471 11 18263940984426116669
12107183 9 17761771763316111970
12166972 35 18189325948180627007
12236239 1 18409728495623408666
12422481 6 18124299520776542194
12467345 10 18411418393318439282
12633257 1 18131637780932443752
12788726 201 18125444361193923087
13009979 54 18337391668291756334
13140716 1 18268429225108160883
13583140 156 17603868858684560673
13965767 371 17905060156997143504
14251764 3 15913321369051069708
14294032 229 18059579045519729225
14739800 52 17842270652135344584
14787075 74 17539423432596145411
14849402 71 18265611164939965848
15420108 30 18049720715804223816
16752209 62 18059569230823106223
16992727 255 18270101437547126197
17349148 13 18260833738558704203
17818456 19 18342743996358808692
17980427 23 18272368697861020037
1813 80 17822017467562337318
20511986 3 18337096939077748489
20600515 1 17632302323303886449
20715895 44 18048035173876256645
20739085 24 17749115500097117460
21033648 29 17916288455929209552
21133410 90 18268972294402612885
22149856 69 17842588188316362417
23175994 123 16081088194722891589
23402539 116 18060131076980066487
23557571 272 17417550110202548637
23559900 14 17559698181971787572
23598288 3 18340490083796227943
23598291 2 18333455330743652478
25147074 1 18335144245545598604
3633792 109 18115006564309553239
38570 142 17826546463278971564
474 4 17823703151567492916
5104073 3 18337674225573625024
513202 73 17460868498116485546
6034566 193 16304599328300617108
7064713 232 18272374131131701769
7097593 13 18191301581038516603
9849439 229 17341552751871750473
9981440 41 18271252629888724443

> <PUBCHEM_SHAPE_MULTIPOLES>
508.69
10.44
2.93
1.74
4.93
0.67
-0.45
-0.6
4.08
-1.78
-0.47
0.27
0.28
-3.11

> <PUBCHEM_SHAPE_SELFOVERLAP>
1115.261

> <PUBCHEM_SHAPE_VOLUME>
278.1

> <PUBCHEM_COORDINATE_TYPE>
2
5
10

$$$$
