132427
  -OEChem-03292013323D

 34 35  0     0  0  0  0  0  0999 V2000
   -4.5081    0.7836    0.1767 N   0  0  0  0  0  0  0  0  0  0  0  0
   -0.0267    0.7562   -0.4875 N   0  0  0  0  0  0  0  0  0  0  0  0
    0.7621   -1.8348    0.0797 N   0  0  0  0  0  0  0  0  0  0  0  0
   -1.4816   -2.5684   -0.1910 N   0  0  0  0  0  0  0  0  0  0  0  0
    2.9504   -1.1262    0.3451 N   0  0  0  0  0  0  0  0  0  0  0  0
    3.5419    1.1810    0.0669 N   0  0  0  0  0  0  0  0  0  0  0  0
    1.8710    2.7567   -0.4862 N   0  0  0  0  0  0  0  0  0  0  0  0
    5.1700   -0.4111    0.6115 N   0  0  0  0  0  0  0  0  0  0  0  0
   -2.3276    0.1000   -0.7800 C   0  0  0  0  0  0  0  0  0  0  0  0
   -3.1177    0.4664    0.4849 C   0  0  0  0  0  0  0  0  0  0  0  0
   -0.9120   -0.2522   -0.4757 C   0  0  0  0  0  0  0  0  0  0  0  0
   -0.5215   -1.5328   -0.1953 C   0  0  0  0  0  0  0  0  0  0  0  0
    1.2562    0.4524   -0.2125 C   0  0  0  0  0  0  0  0  0  0  0  0
   -5.2507    1.0850    1.4015 C   0  0  0  0  0  0  0  0  0  0  0  0
   -5.1412   -0.3229   -0.5422 C   0  0  0  0  0  0  0  0  0  0  0  0
    1.6687   -0.8502    0.0754 C   0  0  0  0  0  0  0  0  0  0  0  0
    2.2447    1.4179   -0.1993 C   0  0  0  0  0  0  0  0  0  0  0  0
    3.8224   -0.1006    0.3279 C   0  0  0  0  0  0  0  0  0  0  0  0
   -2.3333    0.9613   -1.4626 H   0  0  0  0  0  0  0  0  0  0  0  0
   -2.7740   -0.7189   -1.3516 H   0  0  0  0  0  0  0  0  0  0  0  0
   -2.6415    1.3359    0.9570 H   0  0  0  0  0  0  0  0  0  0  0  0
   -3.0583   -0.3553    1.2116 H   0  0  0  0  0  0  0  0  0  0  0  0
   -4.7920    1.9269    1.9322 H   0  0  0  0  0  0  0  0  0  0  0  0
   -5.2907    0.2276    2.0833 H   0  0  0  0  0  0  0  0  0  0  0  0
   -6.2772    1.3872    1.1656 H   0  0  0  0  0  0  0  0  0  0  0  0
   -4.8034   -0.3800   -1.5814 H   0  0  0  0  0  0  0  0  0  0  0  0
   -6.2243   -0.1621   -0.6118 H   0  0  0  0  0  0  0  0  0  0  0  0
   -4.9831   -1.2900   -0.0508 H   0  0  0  0  0  0  0  0  0  0  0  0
   -1.1360   -3.4997    0.0082 H   0  0  0  0  0  0  0  0  0  0  0  0
   -2.4273   -2.3575    0.1016 H   0  0  0  0  0  0  0  0  0  0  0  0
    2.6045    3.4541   -0.4634 H   0  0  0  0  0  0  0  0  0  0  0  0
    0.9237    3.0453   -0.2743 H   0  0  0  0  0  0  0  0  0  0  0  0
    5.8611    0.3261    0.6088 H   0  0  0  0  0  0  0  0  0  0  0  0
    5.4279   -1.3673    0.8131 H   0  0  0  0  0  0  0  0  0  0  0  0
  1 10  1  0  0  0  0
  1 14  1  0  0  0  0
  1 15  1  0  0  0  0
  2 11  1  0  0  0  0
  2 13  2  0  0  0  0
  3 12  1  0  0  0  0
  3 16  2  0  0  0  0
  4 12  1  0  0  0  0
  4 29  1  0  0  0  0
  4 30  1  0  0  0  0
  5 16  1  0  0  0  0
  5 18  2  0  0  0  0
  6 17  2  0  0  0  0
  6 18  1  0  0  0  0
  7 17  1  0  0  0  0
  7 31  1  0  0  0  0
  7 32  1  0  0  0  0
  8 18  1  0  0  0  0
  8 33  1  0  0  0  0
  8 34  1  0  0  0  0
  9 10  1  0  0  0  0
  9 11  1  0  0  0  0
  9 19  1  0  0  0  0
  9 20  1  0  0  0  0
 10 21  1  0  0  0  0
 10 22  1  0  0  0  0
 11 12  2  0  0  0  0
 13 16  1  0  0  0  0
 13 17  1  0  0  0  0
 14 23  1  0  0  0  0
 14 24  1  0  0  0  0
 14 25  1  0  0  0  0
 15 26  1  0  0  0  0
 15 27  1  0  0  0  0
 15 28  1  0  0  0  0
M  END
> <PUBCHEM_COMPOUND_CID>
132427

> <PUBCHEM_CONFORMER_RMSD>
0.6

> <PUBCHEM_CONFORMER_DIVERSEORDER>
1
2
6
4
3
8
5
7

> <PUBCHEM_MMFF94_PARTIAL_CHARGES>
24
1 -0.81
10 0.27
11 0.17
12 0.41
13 0.31
14 0.27
15 0.27
16 0.62
17 0.41
18 0.72
2 -0.62
29 0.4
3 -0.62
30 0.4
31 0.4
32 0.4
33 0.4
34 0.4
4 -0.9
5 -0.62
6 -0.62
7 -0.9
8 -0.9
9 0.14

> <PUBCHEM_EFFECTIVE_ROTOR_COUNT>
3

> <PUBCHEM_PHARMACOPHORE_FEATURES>
9
1 1 cation
1 2 acceptor
1 4 cation
1 4 donor
1 7 donor
1 8 donor
4 5 6 8 18 cation
6 2 3 11 12 13 16 rings
6 5 6 13 16 17 18 rings

> <PUBCHEM_HEAVY_ATOM_COUNT>
18

> <PUBCHEM_ATOM_DEF_STEREO_COUNT>
0

> <PUBCHEM_ATOM_UDEF_STEREO_COUNT>
0

> <PUBCHEM_BOND_DEF_STEREO_COUNT>
0

> <PUBCHEM_BOND_UDEF_STEREO_COUNT>
0

> <PUBCHEM_ISOTOPIC_ATOM_COUNT>
0

> <PUBCHEM_COMPONENT_COUNT>
1

> <PUBCHEM_CACTVS_TAUTO_COUNT>
66

> <PUBCHEM_CONFORMER_ID>
0002054B00000001

> <PUBCHEM_MMFF94_ENERGY>
69.4339

> <PUBCHEM_FEATURE_SELFOVERLAP>
45.714

> <PUBCHEM_SHAPE_FINGERPRINT>
10354089 29 18411424990187869097
11471102 20 18408037411884252852
12236239 1 17989485208110565105
12251169 10 18408038519980553318
12390115 104 17977399548461467756
12644460 14 18187078417090024402
13140716 1 18336261366132820224
13380535 76 18413107273011878687
13583140 156 17023169523236295005
13862211 1 18335693906516875210
15196674 1 18337106886216458438
15295992 7 17988359385650317025
15375462 189 17822276965059505882
15475509 8 18057066648069383588
16945 1 18262502746144924926
18186145 218 18341614798101738253
19784866 9 18342461400590812913
204376 136 18410296913096753415
21267235 1 18262519187749440210
21501502 16 18192147320528944574
21524375 3 18343863333830040095
21637258 2 14923935748250869512
22854114 59 18335139769946783789
23184049 59 18333732424811666053
23402539 116 17846210055830206581
23557571 272 15123501536935272953
23558518 356 17973724976110949818
23559900 14 18201716306518530808
25147074 1 18191014810825702030
2838139 119 15625072378933383824
2916195 48 17346586491531930225
33382 64 15285914703110633088
335352 9 18410008836792122118
474 4 18412830175007268977
5104073 3 18263635329173705706
633830 44 18202010897929516989
69090 78 18409725184003371327
7832392 63 18339357578086719974
9999458 23 17894632565055009478

> <PUBCHEM_SHAPE_MULTIPOLES>
330.58
9.95
2.02
0.85
6.63
0.07
0.11
-2.42
2.7
-0.6
-0.15
0.67
-0.15
-0.95

> <PUBCHEM_SHAPE_SELFOVERLAP>
702.279

> <PUBCHEM_SHAPE_VOLUME>
177.1

> <PUBCHEM_COORDINATE_TYPE>
2
5
10

$$$$
