132419
  -OEChem-03292013323D

 48 48  0     1  0  0  0  0  0999 V2000
   -0.6344    2.2597    2.0597 S   0  0  0  0  0  0  0  0  0  0  0  0
    1.4215    3.0979    0.0796 O   0  0  0  0  0  0  0  0  0  0  0  0
   -4.7874    0.5887   -1.0915 O   0  0  0  0  0  0  0  0  0  0  0  0
   -5.2952    0.7904    1.1027 O   0  0  0  0  0  0  0  0  0  0  0  0
   -2.0570   -3.0765    0.0785 O   0  0  0  0  0  0  0  0  0  0  0  0
    2.1075    0.9421   -0.5206 N   0  0  0  0  0  0  0  0  0  0  0  0
   -2.7093   -0.9800   -0.6971 N   0  0  0  0  0  0  0  0  0  0  0  0
    2.2174    1.1387   -1.9741 C   0  0  0  0  0  0  0  0  0  0  0  0
   -2.3354    0.1859    1.4391 C   0  0  0  0  0  0  0  0  0  0  0  0
   -3.3399   -0.5081    0.5089 C   0  0  1  0  0  0  0  0  0  0  0  0
   -1.8195    1.5210    0.8971 C   0  0  0  0  0  0  0  0  0  0  0  0
    1.4643    1.8869    0.3109 C   0  0  0  0  0  0  0  0  0  0  0  0
    2.6744   -0.2535    0.0755 C   0  0  0  0  0  0  0  0  0  0  0  0
    3.0189    2.3975   -2.2790 C   0  0  0  0  0  0  0  0  0  0  0  0
    0.8349    1.1965   -2.6119 C   0  0  0  0  0  0  0  0  0  0  0  0
    0.8299    1.3194    1.5722 C   0  0  0  0  0  0  0  0  0  0  0  0
    3.6730   -0.1440    1.0433 C   0  0  0  0  0  0  0  0  0  0  0  0
    2.2203   -1.5123   -0.3187 C   0  0  0  0  0  0  0  0  0  0  0  0
   -4.5541    0.3636    0.2240 C   0  0  0  0  0  0  0  0  0  0  0  0
    4.2177   -1.2930    1.6168 C   0  0  0  0  0  0  0  0  0  0  0  0
    2.7651   -2.6613    0.2549 C   0  0  0  0  0  0  0  0  0  0  0  0
   -2.1190   -2.2300   -0.8093 C   0  0  0  0  0  0  0  0  0  0  0  0
    3.7637   -2.5515    1.2226 C   0  0  0  0  0  0  0  0  0  0  0  0
   -1.5575   -2.4780   -2.1836 C   0  0  0  0  0  0  0  0  0  0  0  0
    2.7606    0.2851   -2.3984 H   0  0  0  0  0  0  0  0  0  0  0  0
   -1.5042   -0.5033    1.6294 H   0  0  0  0  0  0  0  0  0  0  0  0
   -2.8264    0.3622    2.4058 H   0  0  0  0  0  0  0  0  0  0  0  0
   -3.7302   -1.3942    1.0264 H   0  0  0  0  0  0  0  0  0  0  0  0
   -1.3590    1.4083   -0.0892 H   0  0  0  0  0  0  0  0  0  0  0  0
   -2.6466    2.2299    0.7902 H   0  0  0  0  0  0  0  0  0  0  0  0
    2.4707    3.3179   -2.0594 H   0  0  0  0  0  0  0  0  0  0  0  0
    3.9571    2.4161   -1.7136 H   0  0  0  0  0  0  0  0  0  0  0  0
    3.2726    2.4304   -3.3447 H   0  0  0  0  0  0  0  0  0  0  0  0
    0.2613    2.0639   -2.2677 H   0  0  0  0  0  0  0  0  0  0  0  0
    0.2532    0.3028   -2.3682 H   0  0  0  0  0  0  0  0  0  0  0  0
    0.9150    1.2610   -3.7022 H   0  0  0  0  0  0  0  0  0  0  0  0
    1.5633    1.4079    2.3801 H   0  0  0  0  0  0  0  0  0  0  0  0
    0.5679    0.2658    1.4676 H   0  0  0  0  0  0  0  0  0  0  0  0
   -2.6850   -0.3535   -1.4968 H   0  0  0  0  0  0  0  0  0  0  0  0
    4.0409    0.8301    1.3552 H   0  0  0  0  0  0  0  0  0  0  0  0
    1.4403   -1.6135   -1.0672 H   0  0  0  0  0  0  0  0  0  0  0  0
    4.9962   -1.2077    2.3692 H   0  0  0  0  0  0  0  0  0  0  0  0
    2.4104   -3.6412   -0.0510 H   0  0  0  0  0  0  0  0  0  0  0  0
    4.1877   -3.4461    1.6692 H   0  0  0  0  0  0  0  0  0  0  0  0
   -0.6642   -1.8684   -2.3321 H   0  0  0  0  0  0  0  0  0  0  0  0
   -1.2905   -3.5335   -2.2867 H   0  0  0  0  0  0  0  0  0  0  0  0
   -2.3001   -2.2285   -2.9469 H   0  0  0  0  0  0  0  0  0  0  0  0
   -5.5909    1.1333   -1.2334 H   0  0  0  0  0  0  0  0  0  0  0  0
  1 11  1  0  0  0  0
  1 16  1  0  0  0  0
  2 12  2  0  0  0  0
  3 19  1  0  0  0  0
  3 48  1  0  0  0  0
  4 19  2  0  0  0  0
  5 22  2  0  0  0  0
  6  8  1  0  0  0  0
  6 12  1  0  0  0  0
  6 13  1  0  0  0  0
  7 10  1  0  0  0  0
  7 22  1  0  0  0  0
  7 39  1  0  0  0  0
  8 14  1  0  0  0  0
  8 15  1  0  0  0  0
  8 25  1  0  0  0  0
  9 10  1  0  0  0  0
  9 11  1  0  0  0  0
  9 26  1  0  0  0  0
  9 27  1  0  0  0  0
 10 19  1  0  0  0  0
 10 28  1  0  0  0  0
 11 29  1  0  0  0  0
 11 30  1  0  0  0  0
 12 16  1  0  0  0  0
 13 17  2  0  0  0  0
 13 18  1  0  0  0  0
 14 31  1  0  0  0  0
 14 32  1  0  0  0  0
 14 33  1  0  0  0  0
 15 34  1  0  0  0  0
 15 35  1  0  0  0  0
 15 36  1  0  0  0  0
 16 37  1  0  0  0  0
 16 38  1  0  0  0  0
 17 20  1  0  0  0  0
 17 40  1  0  0  0  0
 18 21  2  0  0  0  0
 18 41  1  0  0  0  0
 20 23  2  0  0  0  0
 20 42  1  0  0  0  0
 21 23  1  0  0  0  0
 21 43  1  0  0  0  0
 22 24  1  0  0  0  0
 23 44  1  0  0  0  0
 24 45  1  0  0  0  0
 24 46  1  0  0  0  0
 24 47  1  0  0  0  0
M  END
> <PUBCHEM_COMPOUND_CID>
132419

> <PUBCHEM_CONFORMER_RMSD>
1

> <PUBCHEM_CONFORMER_DIVERSEORDER>
1
6
139
64
89
63
79
24
133
144
71
30
57
142
65
67
74
140
26
115
75
97
112
41
127
39
98
8
83
31
45
104
72
129
34
20
130
11
49
113
99
86
15
38
9
87
109
53
131
125
36
3
77
73
124
18
43
119
58
46
118
66
145
116
102
84
37
128
60
22
123
141
7
120
29
33
100
110
96
92
42
101
12
69
23
105
48
68
122
85
143
10
93
47
27
135
54
13
103
106
134
4
19
32
138
2
50
55
146
16
17
117
25
28
108
121
51
132
40
76
94
91
61
5
78
136
107
114
81
70
95
14
111
44
82
59
126
21
56
62
88
80
90
137
35
52

> <PUBCHEM_MMFF94_PARTIAL_CHARGES>
28
1 -0.46
10 0.36
11 0.23
12 0.57
13 0.12
16 0.29
17 -0.15
18 -0.15
19 0.66
2 -0.57
20 -0.15
21 -0.15
22 0.57
23 -0.15
24 0.06
3 -0.65
39 0.37
4 -0.57
40 0.15
41 0.15
42 0.15
43 0.15
44 0.15
48 0.5
5 -0.57
6 -0.48
7 -0.73
8 0.3

> <PUBCHEM_EFFECTIVE_ROTOR_COUNT>
11

> <PUBCHEM_PHARMACOPHORE_FEATURES>
9
1 2 acceptor
1 3 acceptor
1 4 acceptor
1 5 acceptor
1 7 donor
3 3 4 19 anion
3 8 14 15 hydrophobe
4 1 9 11 16 hydrophobe
6 13 17 18 20 21 23 rings

> <PUBCHEM_HEAVY_ATOM_COUNT>
24

> <PUBCHEM_ATOM_DEF_STEREO_COUNT>
1

> <PUBCHEM_ATOM_UDEF_STEREO_COUNT>
0

> <PUBCHEM_BOND_DEF_STEREO_COUNT>
0

> <PUBCHEM_BOND_UDEF_STEREO_COUNT>
0

> <PUBCHEM_ISOTOPIC_ATOM_COUNT>
0

> <PUBCHEM_COMPONENT_COUNT>
1

> <PUBCHEM_CACTVS_TAUTO_COUNT>
2

> <PUBCHEM_CONFORMER_ID>
0002054300000001

> <PUBCHEM_MMFF94_ENERGY>
71.6023

> <PUBCHEM_FEATURE_SELFOVERLAP>
45.732

> <PUBCHEM_SHAPE_FINGERPRINT>
10366900 7 14620525531513738704
10369192 42 16157117349488692716
10759866 29 18263939867497210220
12422481 6 17977403646292700793
12553582 1 17988380229274563713
12633257 1 18131631192700011429
12670545 2 18201726149971571953
12788726 201 17631754685204651553
13004483 165 18194949769520245832
14022347 108 17702127870188335009
14114207 22 17396685502924111091
14251751 93 11314301699001394074
16752209 62 17915761811355420225
1813 80 17896042040494230802
20600515 1 17846776299791520289
20715895 44 18122058703172808669
20905425 154 16982358073516122275
21315764 371 13182729399093511069
22113638 7 18201709648522760207
23419403 2 17549203421163270202
23557571 272 16845301488066084832
23559900 14 15338854022939830393
23598288 3 18199190770531877887
339767 52 18339910550567719994
46194498 28 17312830385116189573
8509985 295 18342739590001879229

> <PUBCHEM_SHAPE_MULTIPOLES>
464.32
8.59
3.57
2.36
6.96
0.97
-1.22
2.18
1.85
-1.48
-0.38
-1.04
-0.95
-2.84

> <PUBCHEM_SHAPE_SELFOVERLAP>
919.276

> <PUBCHEM_SHAPE_VOLUME>
276.6

> <PUBCHEM_COORDINATE_TYPE>
2
5
10

$$$$
