132445
  -OEChem-03292013323D

 55 59  0     1  0  0  0  0  0999 V2000
   -1.5176    2.1894   -1.8011 S   0  0  0  0  0  0  0  0  0  0  0  0
   -5.0276   -0.8143   -0.7338 S   0  0  0  0  0  0  0  0  0  0  0  0
    0.4283    0.6329    2.1257 O   0  0  0  0  0  0  0  0  0  0  0  0
   -2.5373   -1.1202    1.8721 O   0  5  0  0  0  0  0  0  0  0  0  0
   -3.1980    0.6778    3.1229 O   0  0  0  0  0  0  0  0  0  0  0  0
   -1.2635    1.5347    0.7564 N   0  0  0  0  0  0  0  0  0  0  0  0
    1.2964    1.6284   -0.8582 N   0  0  0  0  0  0  0  0  0  0  0  0
    5.3525    0.7975   -0.8666 N   0  3  0  0  0  0  0  0  0  0  0  0
   -7.3036   -2.2922   -0.9408 N   0  0  0  0  0  0  0  0  0  0  0  0
   -7.5808   -0.4361    0.1458 N   0  0  0  0  0  0  0  0  0  0  0  0
   -8.5974   -2.2784   -0.5910 N   0  0  0  0  0  0  0  0  0  0  0  0
   -8.7610   -1.1410    0.0737 N   0  0  0  0  0  0  0  0  0  0  0  0
   -0.9290    2.6182   -0.1473 C   0  0  1  0  0  0  0  0  0  0  0  0
    0.5489    2.2915    0.1656 C   0  0  1  0  0  0  0  0  0  0  0  0
   -0.0244    1.3350    1.2522 C   0  0  0  0  0  0  0  0  0  0  0  0
   -2.5099    1.0182    0.9047 C   0  0  0  0  0  0  0  0  0  0  0  0
   -3.4872    1.2833    0.0074 C   0  0  0  0  0  0  0  0  0  0  0  0
   -3.2623    2.0834   -1.2732 C   0  0  0  0  0  0  0  0  0  0  0  0
    2.6712    1.3469   -0.8614 C   0  0  0  0  0  0  0  0  0  0  0  0
   -4.9066    0.7746    0.1032 C   0  0  0  0  0  0  0  0  0  0  0  0
   -2.7761    0.0963    2.0895 C   0  0  0  0  0  0  0  0  0  0  0  0
    3.2514    0.6825   -1.9423 C   0  0  0  0  0  0  0  0  0  0  0  0
    3.4699    1.7287    0.2167 C   0  0  0  0  0  0  0  0  0  0  0  0
    4.6132    0.4173   -1.9176 C   0  0  0  0  0  0  0  0  0  0  0  0
    4.8262    1.4370    0.1868 C   0  0  0  0  0  0  0  0  0  0  0  0
    6.7827    0.5042   -0.8686 C   0  0  0  0  0  0  0  0  0  0  0  0
   -6.7405   -1.1769   -0.4808 C   0  0  0  0  0  0  0  0  0  0  0  0
    7.0646   -0.8363   -0.2470 C   0  0  0  0  0  0  0  0  0  0  0  0
    7.0837   -1.9714   -1.0466 C   0  0  0  0  0  0  0  0  0  0  0  0
    7.3025   -0.9216    1.1185 C   0  0  0  0  0  0  0  0  0  0  0  0
   -6.7634   -3.3990   -1.6891 C   0  0  0  0  0  0  0  0  0  0  0  0
    7.3453   -3.2144   -0.4705 C   0  0  0  0  0  0  0  0  0  0  0  0
    7.5641   -2.1648    1.6946 C   0  0  0  0  0  0  0  0  0  0  0  0
    7.5855   -3.3111    0.9000 C   0  0  0  0  0  0  0  0  0  0  0  0
   -1.2559    3.5975    0.2219 H   0  0  0  0  0  0  0  0  0  0  0  0
    1.0781    3.1589    0.5755 H   0  0  0  0  0  0  0  0  0  0  0  0
    0.7680    1.2438   -1.6352 H   0  0  0  0  0  0  0  0  0  0  0  0
   -3.6535    3.0979   -1.1382 H   0  0  0  0  0  0  0  0  0  0  0  0
   -3.8018    1.6307   -2.1112 H   0  0  0  0  0  0  0  0  0  0  0  0
   -5.2090    0.6604    1.1496 H   0  0  0  0  0  0  0  0  0  0  0  0
   -5.5994    1.4980   -0.3424 H   0  0  0  0  0  0  0  0  0  0  0  0
    2.6565    0.3730   -2.7964 H   0  0  0  0  0  0  0  0  0  0  0  0
    3.0695    2.2415    1.0846 H   0  0  0  0  0  0  0  0  0  0  0  0
    5.1153   -0.0932   -2.7305 H   0  0  0  0  0  0  0  0  0  0  0  0
    5.4922    1.7108    0.9961 H   0  0  0  0  0  0  0  0  0  0  0  0
    7.1491    0.5473   -1.9022 H   0  0  0  0  0  0  0  0  0  0  0  0
    7.3072    1.3073   -0.3352 H   0  0  0  0  0  0  0  0  0  0  0  0
    6.9006   -1.9086   -2.1155 H   0  0  0  0  0  0  0  0  0  0  0  0
    7.2910   -0.0359    1.7472 H   0  0  0  0  0  0  0  0  0  0  0  0
   -5.9682   -3.8623   -1.1001 H   0  0  0  0  0  0  0  0  0  0  0  0
   -7.5530   -4.1305   -1.8805 H   0  0  0  0  0  0  0  0  0  0  0  0
   -6.3746   -3.0211   -2.6379 H   0  0  0  0  0  0  0  0  0  0  0  0
    7.3625   -4.1069   -1.0891 H   0  0  0  0  0  0  0  0  0  0  0  0
    7.7517   -2.2403    2.7616 H   0  0  0  0  0  0  0  0  0  0  0  0
    7.7894   -4.2790    1.3486 H   0  0  0  0  0  0  0  0  0  0  0  0
  1 13  1  0  0  0  0
  1 18  1  0  0  0  0
  2 20  1  0  0  0  0
  2 27  1  0  0  0  0
  3 15  2  0  0  0  0
  4 21  1  0  0  0  0
  5 21  2  0  0  0  0
  6 13  1  0  0  0  0
  6 15  1  0  0  0  0
  6 16  1  0  0  0  0
  7 14  1  0  0  0  0
  7 19  1  0  0  0  0
  7 37  1  0  0  0  0
  8 24  2  0  0  0  0
  8 25  1  0  0  0  0
  8 26  1  0  0  0  0
  9 11  1  0  0  0  0
  9 27  1  0  0  0  0
  9 31  1  0  0  0  0
 10 12  1  0  0  0  0
 10 27  2  0  0  0  0
 11 12  2  0  0  0  0
 13 14  1  0  0  0  0
 13 35  1  0  0  0  0
 14 15  1  0  0  0  0
 14 36  1  0  0  0  0
 16 17  2  0  0  0  0
 16 21  1  0  0  0  0
 17 18  1  0  0  0  0
 17 20  1  0  0  0  0
 18 38  1  0  0  0  0
 18 39  1  0  0  0  0
 19 22  2  0  0  0  0
 19 23  1  0  0  0  0
 20 40  1  0  0  0  0
 20 41  1  0  0  0  0
 22 24  1  0  0  0  0
 22 42  1  0  0  0  0
 23 25  2  0  0  0  0
 23 43  1  0  0  0  0
 24 44  1  0  0  0  0
 25 45  1  0  0  0  0
 26 28  1  0  0  0  0
 26 46  1  0  0  0  0
 26 47  1  0  0  0  0
 28 29  2  0  0  0  0
 28 30  1  0  0  0  0
 29 32  1  0  0  0  0
 29 48  1  0  0  0  0
 30 33  2  0  0  0  0
 30 49  1  0  0  0  0
 31 50  1  0  0  0  0
 31 51  1  0  0  0  0
 31 52  1  0  0  0  0
 32 34  2  0  0  0  0
 32 53  1  0  0  0  0
 33 34  1  0  0  0  0
 33 54  1  0  0  0  0
 34 55  1  0  0  0  0
M  CHG  2   4  -1   8   1
M  END
> <PUBCHEM_COMPOUND_CID>
132445

> <PUBCHEM_CONFORMER_RMSD>
1

> <PUBCHEM_CONFORMER_DIVERSEORDER>
1
234
205
48
310
321
294
221
309
324
262
253
112
188
70
319
131
218
127
103
135
41
229
197
275
143
215
182
5
171
138
325
252
195
288
38
283
284
183
260
163
302
11
276
149
73
296
314
122
162
254
199
313
161
259
74
322
152
303
189
247
100
307
95
185
107
206
193
237
17
265
88
257
274
316
50
166
251
295
117
225
301
167
267
299
120
212
172
104
200
83
305
68
290
279
280
287
148
89
179
8
268
155
217
20
203
320
315
55
145
318
49
271
286
261
227
241
124
266
289
106
213
239
180
219
60
153
186
306
32
222
248
243
317
278
71
3
77
7
216
292
140
228
240
119
264
233
273
184
245
27
93
249
35
173
57
223
211
105
113
242
300
281
102
311
116
270
90
258
23
85
56
178
323
123
263
151
147
29
91
220
108
146
272
304
42
256
176
82
298
160
308
202
204
62
39
158
231
291
159
15
232
174
36
150
115
235
277
109
293
168
66
87
209
133
2
72
58
165
136
121
177
59
111
214
169
101
118
196
198
98
80
6
126
53
76
207
54
4
236
192
40
187
125
16
81
14
52
128
226
26
92
282
67
37
63
96
46
246
156
201
285
297
61
269
31
64
210
164
139
24
44
194
144
244
191
13
175
224
208
18
12
110
25
230
141
129
86
255
75
9
30
84
154
97
33
114
130
69
28
238
21
22
45
34
157
132
312
250
170
19
47
137
99
79
134
190
94
142
43
181
10
51
65
78

> <PUBCHEM_MMFF94_PARTIAL_CHARGES>
43
1 -0.45
10 -0.34
11 -0.42
13 0.44
14 0.3
15 0.58
16 -0.14
17 -0.28
18 0.37
19 0.1
2 -0.29
20 0.37
21 1.05
22 -0.15
23 -0.15
24 0.21
25 0.21
26 0.63
27 0.24
28 -0.14
29 -0.15
3 -0.57
30 -0.15
31 0.26
32 -0.15
33 -0.15
34 -0.15
37 0.4
4 -0.9
42 0.15
43 0.15
44 0.15
45 0.15
48 0.15
49 0.15
5 -0.9
53 0.15
54 0.15
55 0.15
6 -0.39
7 -0.75
8 -0.21
9 0.31

> <PUBCHEM_EFFECTIVE_ROTOR_COUNT>
8.6

> <PUBCHEM_PHARMACOPHORE_FEATURES>
12
1 3 acceptor
1 4 acceptor
1 5 acceptor
1 7 cation
1 7 donor
3 4 5 21 anion
3 9 10 27 cation
4 6 13 14 15 rings
5 9 10 11 12 27 rings
6 1 6 13 16 17 18 rings
6 28 29 30 32 33 34 rings
6 8 19 22 23 24 25 rings

> <PUBCHEM_HEAVY_ATOM_COUNT>
34

> <PUBCHEM_ATOM_DEF_STEREO_COUNT>
2

> <PUBCHEM_ATOM_UDEF_STEREO_COUNT>
0

> <PUBCHEM_BOND_DEF_STEREO_COUNT>
0

> <PUBCHEM_BOND_UDEF_STEREO_COUNT>
0

> <PUBCHEM_ISOTOPIC_ATOM_COUNT>
0

> <PUBCHEM_COMPONENT_COUNT>
1

> <PUBCHEM_CACTVS_TAUTO_COUNT>
1

> <PUBCHEM_CONFORMER_ID>
0002055D00000001

> <PUBCHEM_MMFF94_ENERGY>
94.6572

> <PUBCHEM_FEATURE_SELFOVERLAP>
61.213

> <PUBCHEM_SHAPE_FINGERPRINT>
10 15 13973967605862587760
10119406 146 17530690875151059473
10930396 42 14908178638861042563
11103572 95 17844816884319345671
11386260 185 16370732568988150468
11399510 152 15338574721385148950
11973863 73 18341060640489548171
12120059 9 17845073204310576223
12895837 130 10809344447437356441
13383665 225 14780084418161734455
13540713 4 16519076612356406753
13782708 43 18410855418028198404
14931854 50 16805315596328497125
15064981 194 13407091296861593109
15183329 4 16153425051740078228
15198563 99 16805590461835863485
15347590 135 15626504973638272294
16990366 60 18201433731217750667
16994733 274 11097846419930131805
18393751 57 12607407676058838237
19301676 85 18187368756816456803
19377110 9 15913038765347513868
19841028 212 18343302595663463342
19958102 18 16950567662563816464
20105231 36 18115031918303302859
2026 5 18263079929678676122
21130935 74 18200594680019524168
21307412 95 17676494981832990659
21585483 132 18041550331520669218
21987483 16 18200869707860063626
22002106 203 18043239164686458274
23559900 14 17458918123366268884
23569943 247 18408887313541564787
2747138 104 16056889034912471712
3525247 18 8787449195365149886
406291 66 18336262358476532966
4258327 124 11818996279672414721
439807 62 18412826901915232983
4403749 210 11455885872152107237
4756088 132 17050754328569089479
4874694 18 17531250617175678624
504579 68 16008750216867309768
5104073 3 15338568107335817300
5109719 28 14261342562590154994
5718773 13 18410572877403401364
5874358 3 17823120265040964138
6081469 158 18114178640463826967
9689198 14 8574710225921471708

> <PUBCHEM_SHAPE_MULTIPOLES>
654.93
27.67
3.57
2.05
1.6
2.41
0.81
32.49
-3.86
-0.44
-0.94
0.29
0.04
-3.03

> <PUBCHEM_SHAPE_SELFOVERLAP>
1396.264

> <PUBCHEM_SHAPE_VOLUME>
366.6

> <PUBCHEM_COORDINATE_TYPE>
2
5
10

$$$$
