132437
  -OEChem-03292013323D

 62 63  0     1  0  0  0  0  0999 V2000
    1.9054   -1.4090   -1.9805 O   0  0  0  0  0  0  0  0  0  0  0  0
    0.6411    1.7235    1.1852 O   0  0  0  0  0  0  0  0  0  0  0  0
   -2.1788    0.2870   -1.3686 O   0  0  0  0  0  0  0  0  0  0  0  0
    2.4858    0.4780    1.6954 O   0  0  0  0  0  0  0  0  0  0  0  0
    0.0575    3.6815   -2.5776 O   0  0  0  0  0  0  0  0  0  0  0  0
   -2.6446   -3.3627   -1.0411 O   0  0  0  0  0  0  0  0  0  0  0  0
   -3.4356   -0.0353    2.0660 O   0  0  0  0  0  0  0  0  0  0  0  0
   -1.0784    2.8731   -0.7496 O   0  0  0  0  0  0  0  0  0  0  0  0
    2.5611   -3.3954   -0.3707 N   0  0  0  0  0  0  0  0  0  0  0  0
    1.2161   -0.0376   -0.2134 N   0  0  0  0  0  0  0  0  0  0  0  0
    0.0860    0.3927   -0.9477 N   0  0  0  0  0  0  0  0  0  0  0  0
   -2.6883   -1.5747    0.4697 N   0  0  0  0  0  0  0  0  0  0  0  0
    2.5904   -2.0442    0.1894 C   0  0  1  0  0  0  0  0  0  0  0  0
    4.0651   -1.6875    0.3538 C   0  0  0  0  0  0  0  0  0  0  0  0
    4.8182   -2.9202   -0.1242 C   0  0  0  0  0  0  0  0  0  0  0  0
    3.8073   -4.0357    0.0382 C   0  0  0  0  0  0  0  0  0  0  0  0
    1.8827   -1.1494   -0.7746 C   0  0  0  0  0  0  0  0  0  0  0  0
    0.3972    1.3917   -1.9584 C   0  0  1  0  0  0  0  0  0  0  0  0
   -1.1976   -0.0921   -0.7251 C   0  0  0  0  0  0  0  0  0  0  0  0
   -1.3245   -1.1419    0.3679 C   0  0  0  0  0  0  0  0  0  0  0  0
    1.5322    0.7033    0.9544 C   0  0  0  0  0  0  0  0  0  0  0  0
    0.8828    2.5224    2.3488 C   0  0  0  0  0  0  0  0  0  0  0  0
   -4.6663   -2.7886    0.1350 C   0  0  0  0  0  0  0  0  0  0  0  0
   -4.9283   -1.6926    1.1545 C   0  0  0  0  0  0  0  0  0  0  0  0
    0.0206    0.8732   -3.3375 C   0  0  0  0  0  0  0  0  0  0  0  0
   -3.2199   -2.6392   -0.2399 C   0  0  0  0  0  0  0  0  0  0  0  0
   -3.6160   -0.9799    1.3098 C   0  0  0  0  0  0  0  0  0  0  0  0
   -0.2976    2.7168   -1.6831 C   0  0  0  0  0  0  0  0  0  0  0  0
    0.8204    1.6198    3.5802 C   0  0  0  0  0  0  0  0  0  0  0  0
   -0.2082    3.5893    2.4092 C   0  0  0  0  0  0  0  0  0  0  0  0
    2.2608    3.1693    2.2168 C   0  0  0  0  0  0  0  0  0  0  0  0
   -0.5467    4.9644   -2.3822 C   0  0  0  0  0  0  0  0  0  0  0  0
    2.0748   -2.0493    1.1559 H   0  0  0  0  0  0  0  0  0  0  0  0
    4.3737   -0.7973   -0.2042 H   0  0  0  0  0  0  0  0  0  0  0  0
    4.2906   -1.5193    1.4137 H   0  0  0  0  0  0  0  0  0  0  0  0
    5.7331   -3.0953    0.4492 H   0  0  0  0  0  0  0  0  0  0  0  0
    5.0933   -2.8030   -1.1798 H   0  0  0  0  0  0  0  0  0  0  0  0
    4.0432   -4.9050   -0.5823 H   0  0  0  0  0  0  0  0  0  0  0  0
    3.7400   -4.3630    1.0820 H   0  0  0  0  0  0  0  0  0  0  0  0
    2.5595   -3.3442   -1.3908 H   0  0  0  0  0  0  0  0  0  0  0  0
    1.4766    1.5917   -1.9317 H   0  0  0  0  0  0  0  0  0  0  0  0
   -0.6964   -2.0018    0.1174 H   0  0  0  0  0  0  0  0  0  0  0  0
   -1.0093   -0.7100    1.3224 H   0  0  0  0  0  0  0  0  0  0  0  0
   -4.8360   -3.7806    0.5636 H   0  0  0  0  0  0  0  0  0  0  0  0
   -5.2928   -2.6653   -0.7532 H   0  0  0  0  0  0  0  0  0  0  0  0
   -5.6893   -0.9913    0.8000 H   0  0  0  0  0  0  0  0  0  0  0  0
   -5.2390   -2.1091    2.1171 H   0  0  0  0  0  0  0  0  0  0  0  0
    0.3826   -0.1432   -3.5137 H   0  0  0  0  0  0  0  0  0  0  0  0
    0.4522    1.5134   -4.1156 H   0  0  0  0  0  0  0  0  0  0  0  0
   -1.0617    0.8759   -3.5035 H   0  0  0  0  0  0  0  0  0  0  0  0
   -0.0428    0.9459    3.5275 H   0  0  0  0  0  0  0  0  0  0  0  0
    1.7048    0.9974    3.7364 H   0  0  0  0  0  0  0  0  0  0  0  0
    0.7203    2.2221    4.4910 H   0  0  0  0  0  0  0  0  0  0  0  0
   -1.2023    3.1279    2.4267 H   0  0  0  0  0  0  0  0  0  0  0  0
   -0.1770    4.2286    1.5197 H   0  0  0  0  0  0  0  0  0  0  0  0
   -0.1059    4.2271    3.2933 H   0  0  0  0  0  0  0  0  0  0  0  0
    3.1003    2.5052    2.4369 H   0  0  0  0  0  0  0  0  0  0  0  0
    2.4145    3.5624    1.2051 H   0  0  0  0  0  0  0  0  0  0  0  0
    2.3583    4.0057    2.9195 H   0  0  0  0  0  0  0  0  0  0  0  0
   -1.6341    4.8885   -2.4767 H   0  0  0  0  0  0  0  0  0  0  0  0
   -0.2703    5.3678   -1.4034 H   0  0  0  0  0  0  0  0  0  0  0  0
   -0.1729    5.6379   -3.1579 H   0  0  0  0  0  0  0  0  0  0  0  0
  1 17  2  0  0  0  0
  2 21  1  0  0  0  0
  2 22  1  0  0  0  0
  3 19  2  0  0  0  0
  4 21  2  0  0  0  0
  5 28  1  0  0  0  0
  5 32  1  0  0  0  0
  6 26  2  0  0  0  0
  7 27  2  0  0  0  0
  8 28  2  0  0  0  0
  9 13  1  0  0  0  0
  9 16  1  0  0  0  0
  9 40  1  0  0  0  0
 10 11  1  0  0  0  0
 10 17  1  0  0  0  0
 10 21  1  0  0  0  0
 11 18  1  0  0  0  0
 11 19  1  0  0  0  0
 12 20  1  0  0  0  0
 12 26  1  0  0  0  0
 12 27  1  0  0  0  0
 13 14  1  0  0  0  0
 13 17  1  0  0  0  0
 13 33  1  0  0  0  0
 14 15  1  0  0  0  0
 14 34  1  0  0  0  0
 14 35  1  0  0  0  0
 15 16  1  0  0  0  0
 15 36  1  0  0  0  0
 15 37  1  0  0  0  0
 16 38  1  0  0  0  0
 16 39  1  0  0  0  0
 18 25  1  0  0  0  0
 18 28  1  0  0  0  0
 18 41  1  0  0  0  0
 19 20  1  0  0  0  0
 20 42  1  0  0  0  0
 20 43  1  0  0  0  0
 22 29  1  0  0  0  0
 22 30  1  0  0  0  0
 22 31  1  0  0  0  0
 23 24  1  0  0  0  0
 23 26  1  0  0  0  0
 23 44  1  0  0  0  0
 23 45  1  0  0  0  0
 24 27  1  0  0  0  0
 24 46  1  0  0  0  0
 24 47  1  0  0  0  0
 25 48  1  0  0  0  0
 25 49  1  0  0  0  0
 25 50  1  0  0  0  0
 29 51  1  0  0  0  0
 29 52  1  0  0  0  0
 29 53  1  0  0  0  0
 30 54  1  0  0  0  0
 30 55  1  0  0  0  0
 30 56  1  0  0  0  0
 31 57  1  0  0  0  0
 31 58  1  0  0  0  0
 31 59  1  0  0  0  0
 32 60  1  0  0  0  0
 32 61  1  0  0  0  0
 32 62  1  0  0  0  0
M  END
> <PUBCHEM_COMPOUND_CID>
132437

> <PUBCHEM_CONFORMER_RMSD>
1.2

> <PUBCHEM_CONFORMER_DIVERSEORDER>
1
64
25
71
21
37
66
60
79
44
38
57
78
12
8
80
23
55
61
10
53
28
73
67
65
74
49
69
22
29
32
24
16
75
59
39
34
70
33
42
40
46
27
43
47
76
72
58
48
62
20
63
19
31
11
17
35
68
51
30
56
36
50
45
14
15
41
5
52
3
18
26
9
13
77
54
4
6
7
2

> <PUBCHEM_MMFF94_PARTIAL_CHARGES>
27
1 -0.57
10 -0.12
11 -0.36
12 -0.42
13 0.33
16 0.27
17 0.57
18 0.36
19 0.57
2 -0.43
20 0.36
21 0.78
22 0.28
23 0.06
24 0.06
26 0.57
27 0.57
28 0.66
3 -0.57
32 0.28
4 -0.57
40 0.36
5 -0.43
6 -0.57
7 -0.57
8 -0.57
9 -0.9

> <PUBCHEM_EFFECTIVE_ROTOR_COUNT>
13.6

> <PUBCHEM_PHARMACOPHORE_FEATURES>
11
1 1 acceptor
1 3 acceptor
1 4 acceptor
1 6 acceptor
1 7 acceptor
1 8 acceptor
1 9 cation
1 9 donor
4 22 29 30 31 hydrophobe
5 12 23 24 26 27 rings
5 9 13 14 15 16 rings

> <PUBCHEM_HEAVY_ATOM_COUNT>
32

> <PUBCHEM_ATOM_DEF_STEREO_COUNT>
2

> <PUBCHEM_ATOM_UDEF_STEREO_COUNT>
0

> <PUBCHEM_BOND_DEF_STEREO_COUNT>
0

> <PUBCHEM_BOND_UDEF_STEREO_COUNT>
0

> <PUBCHEM_ISOTOPIC_ATOM_COUNT>
0

> <PUBCHEM_COMPONENT_COUNT>
1

> <PUBCHEM_CACTVS_TAUTO_COUNT>
3

> <PUBCHEM_CONFORMER_ID>
0002055500000001

> <PUBCHEM_MMFF94_ENERGY>
74.954

> <PUBCHEM_FEATURE_SELFOVERLAP>
55.826

> <PUBCHEM_SHAPE_FINGERPRINT>
11578080 2 18410567423022178381
12160290 23 17837786529619639695
12633257 1 17774457013797498435
12788726 201 17983326775107306938
13533116 47 18199467847942164131
13583140 156 17987790964420373327
14400156 350 17537984146226753573
15775530 1 18194933354076164120
17974551 9 18340223954811441563
1813 80 18040719185911581763
20600515 1 18055373356811852685
20739085 24 17976523229019104504
20775438 99 12906384850653993067
21756936 100 16336655615298505640
23419403 2 18268408252719239325
23559900 14 18116719710831647243
25222932 49 16408433925342124751
3552219 110 18196400103173166766
4409770 3 17977947878060818235
469060 322 17244456026346251730
484985 159 17691692182123221914
59444896 2 17619686492785736036
59755656 520 17188981120907885710
7097593 13 17988643051129452819
9999458 23 17699006506932161328

> <PUBCHEM_SHAPE_MULTIPOLES>
591.67
6.95
6.09
3.19
2.35
3.09
-0.11
-11.63
-2.43
-1.5
1.3
-0.08
4.61
1.89

> <PUBCHEM_SHAPE_SELFOVERLAP>
1223.748

> <PUBCHEM_SHAPE_VOLUME>
338.3

> <PUBCHEM_COORDINATE_TYPE>
2
5
10

$$$$
