132491878
  -OEChem-03292013293D

 57 60  0     1  0  0  0  0  0999 V2000
    0.7915    2.3703    0.3027 O   0  0  0  0  0  0  0  0  0  0  0  0
    0.4019   -2.8280   -1.2713 O   0  0  0  0  0  0  0  0  0  0  0  0
    2.2728   -1.9729    1.7086 O   0  0  0  0  0  0  0  0  0  0  0  0
   -2.1848   -2.5941    0.7727 O   0  0  0  0  0  0  0  0  0  0  0  0
    4.0383    1.1647    1.1133 O   0  0  0  0  0  0  0  0  0  0  0  0
   -4.3252   -1.0368    2.1153 O   0  0  0  0  0  0  0  0  0  0  0  0
    2.5184    3.2805    1.4252 O   0  0  0  0  0  0  0  0  0  0  0  0
    1.0089    0.2575   -1.0329 C   0  0  2  0  0  0  0  0  0  0  0  0
    0.0914   -0.6680   -0.1245 C   0  0  1  0  0  0  0  0  0  0  0  0
   -1.4892   -0.4841   -0.3301 C   0  0  2  0  0  0  0  0  0  0  0  0
    2.4922    0.1978   -0.5165 C   0  0  2  0  0  0  0  0  0  0  0  0
    0.5336    1.7273   -0.9650 C   0  0  1  0  0  0  0  0  0  0  0  0
   -1.7999    1.0608   -0.2045 C   0  0  1  0  0  0  0  0  0  0  0  0
    0.6235   -2.1304   -0.0546 C   0  0  2  0  0  0  0  0  0  0  0  0
   -0.9740    1.8884   -1.2093 C   0  0  0  0  0  0  0  0  0  0  0  0
    3.0073   -1.2772   -0.5065 C   0  0  2  0  0  0  0  0  0  0  0  0
    2.1139   -2.2251    0.3144 C   0  0  1  0  0  0  0  0  0  0  0  0
   -2.3025   -1.1707    0.8302 C   0  0  1  0  0  0  0  0  0  0  0  0
    1.0412   -0.1238   -2.5420 C   0  0  0  0  0  0  0  0  0  0  0  0
    2.6637    0.9523    0.8118 C   0  0  2  0  0  0  0  0  0  0  0  0
   -2.0010   -1.0664   -1.6727 C   0  0  0  0  0  0  0  0  0  0  0  0
   -3.2885    1.3889   -0.1808 C   0  0  0  0  0  0  0  0  0  0  0  0
   -3.8131   -0.8649    0.7913 C   0  0  2  0  0  0  0  0  0  0  0  0
    4.4784   -1.4175   -0.0982 C   0  0  0  0  0  0  0  0  0  0  0  0
    2.0292    2.3199    0.8392 C   0  0  0  0  0  0  0  0  0  0  0  0
   -4.1758    0.4997    0.2965 C   0  0  0  0  0  0  0  0  0  0  0  0
   -3.7522    2.7518   -0.6124 C   0  0  0  0  0  0  0  0  0  0  0  0
    0.2430   -0.2929    0.8992 H   0  0  0  0  0  0  0  0  0  0  0  0
    3.1259    0.7325   -1.2412 H   0  0  0  0  0  0  0  0  0  0  0  0
    1.0621    2.3285   -1.7173 H   0  0  0  0  0  0  0  0  0  0  0  0
   -1.4572    1.3739    0.7949 H   0  0  0  0  0  0  0  0  0  0  0  0
    0.0788   -2.6670    0.7248 H   0  0  0  0  0  0  0  0  0  0  0  0
   -1.2446    1.6351   -2.2387 H   0  0  0  0  0  0  0  0  0  0  0  0
   -1.2050    2.9537   -1.0851 H   0  0  0  0  0  0  0  0  0  0  0  0
    2.9717   -1.6322   -1.5447 H   0  0  0  0  0  0  0  0  0  0  0  0
    2.4641   -3.2510    0.1420 H   0  0  0  0  0  0  0  0  0  0  0  0
   -1.8827   -0.8609    1.7965 H   0  0  0  0  0  0  0  0  0  0  0  0
    0.1619    0.2087   -3.0927 H   0  0  0  0  0  0  0  0  0  0  0  0
    1.1611   -1.1908   -2.7258 H   0  0  0  0  0  0  0  0  0  0  0  0
    1.8827    0.3717   -3.0434 H   0  0  0  0  0  0  0  0  0  0  0  0
    2.2297    0.4014    1.6491 H   0  0  0  0  0  0  0  0  0  0  0  0
   -1.8502   -2.1469   -1.7356 H   0  0  0  0  0  0  0  0  0  0  0  0
   -1.5361   -0.6188   -2.5454 H   0  0  0  0  0  0  0  0  0  0  0  0
   -3.0752   -0.9072   -1.8100 H   0  0  0  0  0  0  0  0  0  0  0  0
   -4.3259   -1.6064    0.1661 H   0  0  0  0  0  0  0  0  0  0  0  0
    4.6390   -1.2348    0.9680 H   0  0  0  0  0  0  0  0  0  0  0  0
    5.1090   -0.7288   -0.6699 H   0  0  0  0  0  0  0  0  0  0  0  0
    4.8315   -2.4341   -0.3057 H   0  0  0  0  0  0  0  0  0  0  0  0
   -5.2321    0.7576    0.3243 H   0  0  0  0  0  0  0  0  0  0  0  0
    0.6837   -3.7495   -1.1427 H   0  0  0  0  0  0  0  0  0  0  0  0
    1.7562   -2.6403    2.1911 H   0  0  0  0  0  0  0  0  0  0  0  0
   -2.6658   -2.9586    1.5353 H   0  0  0  0  0  0  0  0  0  0  0  0
   -3.5524    2.9079   -1.6771 H   0  0  0  0  0  0  0  0  0  0  0  0
   -4.8284    2.8903   -0.4615 H   0  0  0  0  0  0  0  0  0  0  0  0
   -3.2423    3.5293   -0.0344 H   0  0  0  0  0  0  0  0  0  0  0  0
    4.0937    1.4922    2.0275 H   0  0  0  0  0  0  0  0  0  0  0  0
   -5.2883   -0.9049    2.0816 H   0  0  0  0  0  0  0  0  0  0  0  0
  1 12  1  0  0  0  0
  1 25  1  0  0  0  0
  2 14  1  0  0  0  0
  2 50  1  0  0  0  0
  3 17  1  0  0  0  0
  3 51  1  0  0  0  0
  4 18  1  0  0  0  0
  4 52  1  0  0  0  0
  5 20  1  0  0  0  0
  5 56  1  0  0  0  0
  6 23  1  0  0  0  0
  6 57  1  0  0  0  0
  7 25  2  0  0  0  0
  8  9  1  0  0  0  0
  8 11  1  0  0  0  0
  8 12  1  0  0  0  0
  8 19  1  0  0  0  0
  9 10  1  0  0  0  0
  9 14  1  0  0  0  0
  9 28  1  0  0  0  0
 10 13  1  0  0  0  0
 10 18  1  0  0  0  0
 10 21  1  0  0  0  0
 11 16  1  0  0  0  0
 11 20  1  0  0  0  0
 11 29  1  0  0  0  0
 12 15  1  0  0  0  0
 12 30  1  0  0  0  0
 13 15  1  0  0  0  0
 13 22  1  0  0  0  0
 13 31  1  0  0  0  0
 14 17  1  0  0  0  0
 14 32  1  0  0  0  0
 15 33  1  0  0  0  0
 15 34  1  0  0  0  0
 16 17  1  0  0  0  0
 16 24  1  0  0  0  0
 16 35  1  0  0  0  0
 17 36  1  0  0  0  0
 18 23  1  0  0  0  0
 18 37  1  0  0  0  0
 19 38  1  0  0  0  0
 19 39  1  0  0  0  0
 19 40  1  0  0  0  0
 20 25  1  0  0  0  0
 20 41  1  0  0  0  0
 21 42  1  0  0  0  0
 21 43  1  0  0  0  0
 21 44  1  0  0  0  0
 22 26  2  0  0  0  0
 22 27  1  0  0  0  0
 23 26  1  0  0  0  0
 23 45  1  0  0  0  0
 24 46  1  0  0  0  0
 24 47  1  0  0  0  0
 24 48  1  0  0  0  0
 26 49  1  0  0  0  0
 27 53  1  0  0  0  0
 27 54  1  0  0  0  0
 27 55  1  0  0  0  0
M  END
> <PUBCHEM_COMPOUND_CID>
132491878

> <PUBCHEM_CONFORMER_RMSD>
0.6

> <PUBCHEM_CONFORMER_DIVERSEORDER>
1
4
3
2

> <PUBCHEM_MMFF94_PARTIAL_CHARGES>
24
1 -0.43
12 0.28
13 0.14
14 0.28
17 0.28
18 0.28
2 -0.68
20 0.34
22 -0.28
23 0.42
25 0.66
26 -0.29
27 0.14
3 -0.68
4 -0.68
49 0.15
5 -0.68
50 0.4
51 0.4
52 0.4
56 0.4
57 0.4
6 -0.68
7 -0.57

> <PUBCHEM_EFFECTIVE_ROTOR_COUNT>
1.6

> <PUBCHEM_PHARMACOPHORE_FEATURES>
15
1 2 acceptor
1 2 donor
1 3 acceptor
1 3 donor
1 4 acceptor
1 4 donor
1 5 acceptor
1 5 donor
1 6 acceptor
1 6 donor
1 7 acceptor
6 1 8 11 12 20 25 rings
6 10 13 18 22 23 26 rings
6 8 9 10 12 13 15 rings
6 8 9 11 14 16 17 rings

> <PUBCHEM_HEAVY_ATOM_COUNT>
27

> <PUBCHEM_ATOM_DEF_STEREO_COUNT>
11

> <PUBCHEM_ATOM_UDEF_STEREO_COUNT>
1

> <PUBCHEM_BOND_DEF_STEREO_COUNT>
0

> <PUBCHEM_BOND_UDEF_STEREO_COUNT>
0

> <PUBCHEM_ISOTOPIC_ATOM_COUNT>
0

> <PUBCHEM_COMPONENT_COUNT>
1

> <PUBCHEM_CACTVS_TAUTO_COUNT>
1

> <PUBCHEM_CONFORMER_ID>
07E5AA6600000001

> <PUBCHEM_MMFF94_ENERGY>
113.0937

> <PUBCHEM_FEATURE_SELFOVERLAP>
76.297

> <PUBCHEM_SHAPE_FINGERPRINT>
10366900 7 18335137540679461255
10675989 125 16677799426060206172
10863032 1 18336264531196741052
10948715 1 17987231303879137780
1100329 8 16610259707814225016
11578080 2 17532915139650277220
11640471 11 15554446305573443309
12011746 2 18196086647147264468
12422481 6 18054757746960676800
12633257 1 18193550060794606673
12788726 201 17763460613302800490
13140716 1 18411981377336459289
13224815 77 18411693296921535055
13583140 156 18411417285311854557
14178342 30 18187924057511471699
14223421 5 18337953505753487971
14787075 74 18335147488161419902
14790565 3 18264775535691405612
14866123 147 15818193470047831467
14955137 171 18199765681963508302
15295992 7 18339365167510573817
1601671 61 18269276755505239774
16945 1 18054785358651255276
17804303 29 18336271154041521468
1813 80 16660363675539962180
19049666 15 18336828593942662197
20600515 1 17902523583824312694
20691752 17 17967242092170316821
20905425 154 18261676952324149374
21033648 29 18271796904617259729
21756936 100 17623002817740621936
23419403 2 17754705292046716940
23559900 14 18260269620406223580
2748010 2 18408877451674056772
350125 39 18334870398261902717
35225 105 16329569232718469000
394222 165 16013832365558727141
495365 180 18057301943151538705
5104073 3 18262239906540643369
5265222 85 17834121119638163404

> <PUBCHEM_SHAPE_MULTIPOLES>
514.56
7.15
3.29
1.62
2.23
0.8
0.3
0.02
-2.46
-0.57
-0.7
-0.01
-0.12
1.48

> <PUBCHEM_SHAPE_SELFOVERLAP>
1101.222

> <PUBCHEM_SHAPE_VOLUME>
275.2

> <PUBCHEM_COORDINATE_TYPE>
2
5
10

$$$$
