132494169
  -OEChem-03292013293D

 61 62  0     1  0  0  0  0  0999 V2000
  -12.2458   -1.7290   -0.4741 Cl  0  0  0  0  0  0  0  0  0  0  0  0
    5.4679   -1.4765    1.0619 O   0  0  0  0  0  0  0  0  0  0  0  0
    5.2849   -0.9765   -1.7727 O   0  0  0  0  0  0  0  0  0  0  0  0
    8.0318    0.7269   -0.1072 O   0  0  0  0  0  0  0  0  0  0  0  0
    7.3142   -2.7715   -0.8080 O   0  0  0  0  0  0  0  0  0  0  0  0
    3.1251   -2.2072   -0.0368 O   0  0  0  0  0  0  0  0  0  0  0  0
    0.8417    1.8440    0.6949 O   0  0  0  0  0  0  0  0  0  0  0  0
    0.3390   -2.3748   -0.1741 O   0  0  0  0  0  0  0  0  0  0  0  0
    2.4970    4.1148    0.8870 O   0  0  0  0  0  0  0  0  0  0  0  0
    3.8058    0.0162    0.4276 N   0  0  0  0  0  0  0  0  0  0  0  0
    2.7770    4.3821   -1.3798 N   0  0  0  0  0  0  0  0  0  0  0  0
    5.2292   -0.1855    0.5035 C   0  0  2  0  0  0  0  0  0  0  0  0
    5.8978   -0.0568   -0.8694 C   0  0  1  0  0  0  0  0  0  0  0  0
    7.3971   -0.3642   -0.7708 C   0  0  2  0  0  0  0  0  0  0  0  0
    3.2279    1.3494    0.6684 C   0  0  2  0  0  0  0  0  0  0  0  0
    7.6640   -1.6567    0.0096 C   0  0  1  0  0  0  0  0  0  0  0  0
    6.8565   -1.7117    1.3065 C   0  0  0  0  0  0  0  0  0  0  0  0
    2.9081   -1.0294    0.1853 C   0  0  0  0  0  0  0  0  0  0  0  0
    1.7500    1.0405    0.5639 C   0  0  0  0  0  0  0  0  0  0  0  0
    3.6424    2.3820   -0.3635 C   0  0  0  0  0  0  0  0  0  0  0  0
    1.5808   -0.3958    0.2682 C   0  0  0  0  0  0  0  0  0  0  0  0
    2.9154    3.6999   -0.1900 C   0  0  0  0  0  0  0  0  0  0  0  0
    0.4079   -1.0232    0.1015 C   0  0  0  0  0  0  0  0  0  0  0  0
   -0.8640   -0.3320    0.1978 C   0  0  0  0  0  0  0  0  0  0  0  0
   -2.0722   -0.8975    0.0425 C   0  0  0  0  0  0  0  0  0  0  0  0
   -3.3088   -0.1524    0.1499 C   0  0  0  0  0  0  0  0  0  0  0  0
   -4.5172   -0.7145   -0.0047 C   0  0  0  0  0  0  0  0  0  0  0  0
   -5.7528    0.0307    0.1025 C   0  0  0  0  0  0  0  0  0  0  0  0
   -6.9612   -0.5315   -0.0521 C   0  0  0  0  0  0  0  0  0  0  0  0
   -8.1970    0.2139    0.0547 C   0  0  0  0  0  0  0  0  0  0  0  0
   -9.4061   -0.3481   -0.0999 C   0  0  0  0  0  0  0  0  0  0  0  0
  -10.6400    0.4043    0.0078 C   0  0  0  0  0  0  0  0  0  0  0  0
  -11.8904   -0.0676   -0.1304 C   0  0  0  0  0  0  0  0  0  0  0  0
  -13.1058    0.7977   -0.0002 C   0  0  0  0  0  0  0  0  0  0  0  0
    5.6293    0.5641    1.1983 H   0  0  0  0  0  0  0  0  0  0  0  0
    5.7551    0.9464   -1.2789 H   0  0  0  0  0  0  0  0  0  0  0  0
    7.8208   -0.4457   -1.7790 H   0  0  0  0  0  0  0  0  0  0  0  0
    3.4591    1.6478    1.6967 H   0  0  0  0  0  0  0  0  0  0  0  0
    8.7306   -1.7430    0.2465 H   0  0  0  0  0  0  0  0  0  0  0  0
    6.9345   -2.7043    1.7619 H   0  0  0  0  0  0  0  0  0  0  0  0
    7.2222   -0.9783    2.0344 H   0  0  0  0  0  0  0  0  0  0  0  0
    3.4651    1.9982   -1.3762 H   0  0  0  0  0  0  0  0  0  0  0  0
    4.7115    2.6039   -0.2746 H   0  0  0  0  0  0  0  0  0  0  0  0
    5.7136   -0.8666   -2.6385 H   0  0  0  0  0  0  0  0  0  0  0  0
    8.9849    0.5366   -0.0764 H   0  0  0  0  0  0  0  0  0  0  0  0
    7.5149   -3.5792   -0.3052 H   0  0  0  0  0  0  0  0  0  0  0  0
   -0.8940    0.7254    0.4097 H   0  0  0  0  0  0  0  0  0  0  0  0
    3.1378    4.0269   -2.2595 H   0  0  0  0  0  0  0  0  0  0  0  0
    2.3077    5.2811   -1.4120 H   0  0  0  0  0  0  0  0  0  0  0  0
    1.2367   -2.7420   -0.2183 H   0  0  0  0  0  0  0  0  0  0  0  0
   -2.1605   -1.9592   -0.1745 H   0  0  0  0  0  0  0  0  0  0  0  0
   -3.2307    0.9108    0.3665 H   0  0  0  0  0  0  0  0  0  0  0  0
   -4.5983   -1.7774   -0.2213 H   0  0  0  0  0  0  0  0  0  0  0  0
   -5.6718    1.0937    0.3188 H   0  0  0  0  0  0  0  0  0  0  0  0
   -7.0422   -1.5945   -0.2684 H   0  0  0  0  0  0  0  0  0  0  0  0
   -8.1146    1.2769    0.2706 H   0  0  0  0  0  0  0  0  0  0  0  0
   -9.4745   -1.4106   -0.3153 H   0  0  0  0  0  0  0  0  0  0  0  0
  -10.5195    1.4653    0.2239 H   0  0  0  0  0  0  0  0  0  0  0  0
  -13.6855    0.7891   -0.9293 H   0  0  0  0  0  0  0  0  0  0  0  0
  -13.7466    0.4411    0.8132 H   0  0  0  0  0  0  0  0  0  0  0  0
  -12.8463    1.8394    0.2169 H   0  0  0  0  0  0  0  0  0  0  0  0
  1 33  1  0  0  0  0
  2 12  1  0  0  0  0
  2 17  1  0  0  0  0
  3 13  1  0  0  0  0
  3 44  1  0  0  0  0
  4 14  1  0  0  0  0
  4 45  1  0  0  0  0
  5 16  1  0  0  0  0
  5 46  1  0  0  0  0
  6 18  2  0  0  0  0
  7 19  2  0  0  0  0
  8 23  1  0  0  0  0
  8 50  1  0  0  0  0
  9 22  2  0  0  0  0
 10 12  1  0  0  0  0
 10 15  1  0  0  0  0
 10 18  1  0  0  0  0
 11 22  1  0  0  0  0
 11 48  1  0  0  0  0
 11 49  1  0  0  0  0
 12 13  1  0  0  0  0
 12 35  1  0  0  0  0
 13 14  1  0  0  0  0
 13 36  1  0  0  0  0
 14 16  1  0  0  0  0
 14 37  1  0  0  0  0
 15 19  1  0  0  0  0
 15 20  1  0  0  0  0
 15 38  1  0  0  0  0
 16 17  1  0  0  0  0
 16 39  1  0  0  0  0
 17 40  1  0  0  0  0
 17 41  1  0  0  0  0
 18 21  1  0  0  0  0
 19 21  1  0  0  0  0
 20 22  1  0  0  0  0
 20 42  1  0  0  0  0
 20 43  1  0  0  0  0
 21 23  2  0  0  0  0
 23 24  1  0  0  0  0
 24 25  2  0  0  0  0
 24 47  1  0  0  0  0
 25 26  1  0  0  0  0
 25 51  1  0  0  0  0
 26 27  2  0  0  0  0
 26 52  1  0  0  0  0
 27 28  1  0  0  0  0
 27 53  1  0  0  0  0
 28 29  2  0  0  0  0
 28 54  1  0  0  0  0
 29 30  1  0  0  0  0
 29 55  1  0  0  0  0
 30 31  2  0  0  0  0
 30 56  1  0  0  0  0
 31 32  1  0  0  0  0
 31 57  1  0  0  0  0
 32 33  2  0  0  0  0
 32 58  1  0  0  0  0
 33 34  1  0  0  0  0
 34 59  1  0  0  0  0
 34 60  1  0  0  0  0
 34 61  1  0  0  0  0
M  END
> <PUBCHEM_COMPOUND_CID>
132494169

> <PUBCHEM_CONFORMER_RMSD>
1

> <PUBCHEM_CONFORMER_DIVERSEORDER>
1
63
41
67
46
60
44
49
56
2
22
48
31
43
68
34
42
65
72
18
32
75
40
58
28
12
71
61
27
35
64
52
4
29
57
19
5
53
15
66
62
59
69
76
25
21
33
6
73
9
23
54
38
55
8
51
45
37
17
74
30
11
36
16
3
70
47
20
7
39
79
77
13
14
26
78
10
50
24

> <PUBCHEM_MMFF94_PARTIAL_CHARGES>
48
1 -0.14
10 -0.66
11 -0.8
12 0.58
13 0.28
14 0.28
15 0.36
16 0.28
17 0.28
18 0.62
19 0.49
2 -0.56
20 0.06
21 0.03
22 0.57
23 0.08
24 -0.15
25 -0.15
26 -0.15
27 -0.15
28 -0.15
29 -0.15
3 -0.68
30 -0.15
31 -0.15
32 -0.15
34 0.14
4 -0.68
44 0.4
45 0.4
46 0.4
47 0.15
48 0.37
49 0.37
5 -0.68
50 0.45
51 0.15
52 0.15
53 0.15
54 0.15
55 0.15
56 0.15
57 0.15
58 0.15
6 -0.57
7 -0.57
8 -0.53
9 -0.57

> <PUBCHEM_EFFECTIVE_ROTOR_COUNT>
9.6

> <PUBCHEM_PHARMACOPHORE_FEATURES>
15
1 11 donor
1 2 acceptor
1 21 anion
1 3 acceptor
1 3 donor
1 4 acceptor
1 4 donor
1 5 acceptor
1 5 donor
1 6 acceptor
1 7 acceptor
1 8 donor
1 9 acceptor
5 10 15 18 19 21 rings
6 2 12 13 14 16 17 rings

> <PUBCHEM_HEAVY_ATOM_COUNT>
34

> <PUBCHEM_ATOM_DEF_STEREO_COUNT>
5

> <PUBCHEM_ATOM_UDEF_STEREO_COUNT>
0

> <PUBCHEM_BOND_DEF_STEREO_COUNT>
6

> <PUBCHEM_BOND_UDEF_STEREO_COUNT>
0

> <PUBCHEM_ISOTOPIC_ATOM_COUNT>
0

> <PUBCHEM_COMPONENT_COUNT>
1

> <PUBCHEM_CACTVS_TAUTO_COUNT>
287

> <PUBCHEM_CONFORMER_ID>
07E5B35900000001

> <PUBCHEM_MMFF94_ENERGY>
79.599

> <PUBCHEM_FEATURE_SELFOVERLAP>
76.147

> <PUBCHEM_SHAPE_FINGERPRINT>
10050765 1 18122625217152676019
10162869 55 18272652351324698211
11409948 35 17168697523466916947
12013929 2 18187645787577428395
12522641 33 16732700533433077243
12664476 115 18113897161661907013
13383668 1 13470420932990882476
14251764 46 15770055026518852851
15061470 23 17675922085320939269
15347591 1 18193277627257264867
15439362 3 18119532291851376244
15510794 2 18333454245093496411
15840311 113 18334576889098416301
16087824 20 18410856573400423756
16728433 110 18335419088960935144
20812841 46 18334292076151128280
22899556 56 15624544424726664898
232437 2 18410855465758115635
24893992 56 18408885148878287587
249057 3 18343300383528725431
335352 9 18412548721384179446
335507 130 18059853957749053461
33684 2 17988923358792651091
4625314 4 18337672018899781735
4874694 18 11312054353738909245
58083652 198 18341058493069840713
59520647 119 18190738619271884173
59521099 67 18060700615002987592
6081469 158 18186518792037220117
67123 10 18408885127914913299
9663363 56 18412824682171547330
9937071 3 17060341817065815111

> <PUBCHEM_SHAPE_MULTIPOLES>
644.66
41.53
3.18
0.93
162.52
4.21
0.11
-11.33
4.33
-7.29
0.4
-1.51
0.06
-0.56

> <PUBCHEM_SHAPE_SELFOVERLAP>
1329.33

> <PUBCHEM_SHAPE_VOLUME>
364.6

> <PUBCHEM_COORDINATE_TYPE>
2
5
10

$$$$
