132449
  -OEChem-03292013323D

 30 30  0     0  0  0  0  0  0999 V2000
   -2.1264    1.5618    0.0049 P   0  0  0  0  0  0  0  0  0  0  0  0
   -1.9419   -1.6074    0.0130 P   0  0  0  0  0  0  0  0  0  0  0  0
   -0.1775    0.0127   -0.8027 O   0  0  0  0  0  0  0  0  0  0  0  0
   -3.3322    1.3978    1.0701 O   0  0  0  0  0  0  0  0  0  0  0  0
   -2.8381    1.2755   -1.4169 O   0  0  0  0  0  0  0  0  0  0  0  0
   -3.1826   -1.5995    1.0495 O   0  0  0  0  0  0  0  0  0  0  0  0
   -2.6501   -1.4423   -1.4301 O   0  0  0  0  0  0  0  0  0  0  0  0
   -1.3596    2.8451    0.1216 O   0  0  0  0  0  0  0  0  0  0  0  0
   -1.0124   -2.7782    0.1371 O   0  0  0  0  0  0  0  0  0  0  0  0
    5.1979    0.0454    0.4158 O   0  0  0  0  0  0  0  0  0  0  0  0
   -1.1197    0.0395    0.2895 C   0  0  0  0  0  0  0  0  0  0  0  0
   -0.5221    0.0749    1.7073 C   0  0  0  0  0  0  0  0  0  0  0  0
    1.1523    0.0209   -0.5010 C   0  0  0  0  0  0  0  0  0  0  0  0
    1.8308   -1.1826   -0.3172 C   0  0  0  0  0  0  0  0  0  0  0  0
    1.8296    1.2325   -0.3776 C   0  0  0  0  0  0  0  0  0  0  0  0
    3.1912   -1.1744   -0.0089 C   0  0  0  0  0  0  0  0  0  0  0  0
    3.1901    1.2409   -0.0694 C   0  0  0  0  0  0  0  0  0  0  0  0
    3.8707    0.0373    0.1150 C   0  0  0  0  0  0  0  0  0  0  0  0
    0.1184   -0.7891    1.9067 H   0  0  0  0  0  0  0  0  0  0  0  0
   -1.3237    0.0590    2.4526 H   0  0  0  0  0  0  0  0  0  0  0  0
    0.0614    0.9847    1.8774 H   0  0  0  0  0  0  0  0  0  0  0  0
   -3.4951    0.5272    1.4913 H   0  0  0  0  0  0  0  0  0  0  0  0
   -3.4190    1.9639   -1.8048 H   0  0  0  0  0  0  0  0  0  0  0  0
   -3.7510   -2.3961    1.1156 H   0  0  0  0  0  0  0  0  0  0  0  0
   -3.1214   -2.2098   -1.8185 H   0  0  0  0  0  0  0  0  0  0  0  0
    1.3249   -2.1343   -0.4309 H   0  0  0  0  0  0  0  0  0  0  0  0
    1.3084    2.1739   -0.5243 H   0  0  0  0  0  0  0  0  0  0  0  0
    3.7170   -2.1152    0.1288 H   0  0  0  0  0  0  0  0  0  0  0  0
    3.7082    2.1916    0.0234 H   0  0  0  0  0  0  0  0  0  0  0  0
    5.5048    0.9671    0.4626 H   0  0  0  0  0  0  0  0  0  0  0  0
  1  4  1  0  0  0  0
  1  5  1  0  0  0  0
  1  8  2  0  0  0  0
  1 11  1  0  0  0  0
  2  6  1  0  0  0  0
  2  7  1  0  0  0  0
  2  9  2  0  0  0  0
  2 11  1  0  0  0  0
  3 11  1  0  0  0  0
  3 13  1  0  0  0  0
  4 22  1  0  0  0  0
  5 23  1  0  0  0  0
  6 24  1  0  0  0  0
  7 25  1  0  0  0  0
 10 18  1  0  0  0  0
 10 30  1  0  0  0  0
 11 12  1  0  0  0  0
 12 19  1  0  0  0  0
 12 20  1  0  0  0  0
 12 21  1  0  0  0  0
 13 14  2  0  0  0  0
 13 15  1  0  0  0  0
 14 16  1  0  0  0  0
 14 26  1  0  0  0  0
 15 17  2  0  0  0  0
 15 27  1  0  0  0  0
 16 18  2  0  0  0  0
 16 28  1  0  0  0  0
 17 18  1  0  0  0  0
 17 29  1  0  0  0  0
M  END
> <PUBCHEM_COMPOUND_CID>
132449

> <PUBCHEM_CONFORMER_RMSD>
0.6

> <PUBCHEM_CONFORMER_DIVERSEORDER>
1
2
4
3

> <PUBCHEM_MMFF94_PARTIAL_CHARGES>
26
1 1.24
10 -0.53
11 0.28
13 0.08
14 -0.15
15 -0.15
16 -0.15
17 -0.15
18 0.08
2 1.24
22 0.5
23 0.5
24 0.5
25 0.5
26 0.15
27 0.15
28 0.15
29 0.15
3 -0.36
30 0.45
4 -0.77
5 -0.77
6 -0.77
7 -0.77
8 -0.7
9 -0.7

> <PUBCHEM_EFFECTIVE_ROTOR_COUNT>
4

> <PUBCHEM_PHARMACOPHORE_FEATURES>
11
1 10 donor
1 3 acceptor
1 4 acceptor
1 5 acceptor
1 6 acceptor
1 7 acceptor
1 8 acceptor
1 9 acceptor
4 1 4 5 8 anion
4 2 6 7 9 anion
6 13 14 15 16 17 18 rings

> <PUBCHEM_HEAVY_ATOM_COUNT>
18

> <PUBCHEM_ATOM_DEF_STEREO_COUNT>
0

> <PUBCHEM_ATOM_UDEF_STEREO_COUNT>
0

> <PUBCHEM_BOND_DEF_STEREO_COUNT>
0

> <PUBCHEM_BOND_UDEF_STEREO_COUNT>
0

> <PUBCHEM_ISOTOPIC_ATOM_COUNT>
0

> <PUBCHEM_COMPONENT_COUNT>
1

> <PUBCHEM_CACTVS_TAUTO_COUNT>
2

> <PUBCHEM_CONFORMER_ID>
0002056100000001

> <PUBCHEM_MMFF94_ENERGY>
-5.3693

> <PUBCHEM_FEATURE_SELFOVERLAP>
55.904

> <PUBCHEM_SHAPE_FINGERPRINT>
12251169 10 18335706014071744276
12403814 3 18341338876581031867
12500047 106 18411694362141853312
13296909 8 18410009953119641388
13380535 76 18341891844772020310
13583140 156 17022621940228050713
14965852 173 18410575089438048678
15442244 35 18265893562790585078
16945 1 18192717734929752365
18186145 218 18269840804774993212
200 152 18272078448281661966
20510252 161 18341617018225335835
20525323 117 18342742961171398567
20645477 56 18410014299558174368
21501502 16 18336834185889711972
2306618 200 17988927768573882601
23402539 116 18342168990764484095
23419403 2 17415538055880018497
23557571 272 18130797779955224268
23559900 14 18200590294710488186
2748010 2 18266755600859553710
305870 269 17905048049600061997
4340502 62 18055937402630930913
5104073 3 18410288121583334640
6333449 129 18409448081055227245
69090 78 18337391548090570729
6992083 37 18113624451890638228
9709674 26 18341897389780943582

> <PUBCHEM_SHAPE_MULTIPOLES>
331.18
6.91
2.38
1.12
6.15
0.04
-0.09
-0.28
-0.48
-1.96
0.04
-0.86
0.01
-0.02

> <PUBCHEM_SHAPE_SELFOVERLAP>
651.534

> <PUBCHEM_SHAPE_VOLUME>
198.3

> <PUBCHEM_COORDINATE_TYPE>
2
5
10

$$$$
