132571668
  -OEChem-03292013293D

 38 38  0     1  0  0  0  0  0999 V2000
   -0.6967   -1.9440    1.0807 O   0  0  0  0  0  0  0  0  0  0  0  0
   -0.3551    0.2889    1.7269 O   0  0  0  0  0  0  0  0  0  0  0  0
    0.1429   -4.0407    0.7375 O   0  0  0  0  0  0  0  0  0  0  0  0
   -5.1301    0.4874    0.1081 O   0  0  0  0  0  0  0  0  0  0  0  0
    1.6784    1.9571    1.3341 O   0  0  0  0  0  0  0  0  0  0  0  0
    4.0248    0.8017   -0.4024 O   0  0  0  0  0  0  0  0  0  0  0  0
   -3.8015    0.6412   -1.7717 O   0  0  0  0  0  0  0  0  0  0  0  0
    0.7165    2.3959   -0.7140 O   0  0  0  0  0  0  0  0  0  0  0  0
    3.2833   -1.0362   -1.5793 O   0  0  0  0  0  0  0  0  0  0  0  0
   -0.4220   -0.6114    0.6269 C   0  0  1  0  0  0  0  0  0  0  0  0
    0.9098   -0.7188   -0.0370 C   0  0  0  0  0  0  0  0  0  0  0  0
   -1.5211   -0.1872   -0.3443 C   0  0  0  0  0  0  0  0  0  0  0  0
    1.2095   -2.1484   -0.3139 C   0  0  0  0  0  0  0  0  0  0  0  0
   -2.8631   -0.0434    0.3651 C   0  0  0  0  0  0  0  0  0  0  0  0
    0.1891   -2.8335    0.5466 C   0  0  0  0  0  0  0  0  0  0  0  0
    1.7648    0.2840   -0.2740 C   0  0  0  0  0  0  0  0  0  0  0  0
   -3.9542    0.4008   -0.5820 C   0  0  0  0  0  0  0  0  0  0  0  0
    1.3062    1.6566    0.0609 C   0  0  0  0  0  0  0  0  0  0  0  0
    3.0866   -0.0762   -0.8482 C   0  0  0  0  0  0  0  0  0  0  0  0
   -6.2659    0.8991   -0.6592 C   0  0  0  0  0  0  0  0  0  0  0  0
    5.3631    0.5557   -0.8465 C   0  0  0  0  0  0  0  0  0  0  0  0
    1.3348    3.2713    1.7858 C   0  0  0  0  0  0  0  0  0  0  0  0
   -1.6213   -0.9216   -1.1547 H   0  0  0  0  0  0  0  0  0  0  0  0
   -1.2786    0.7733   -0.8123 H   0  0  0  0  0  0  0  0  0  0  0  0
    1.0241   -2.4142   -1.3576 H   0  0  0  0  0  0  0  0  0  0  0  0
    2.1940   -2.4648    0.0406 H   0  0  0  0  0  0  0  0  0  0  0  0
   -2.7961    0.7056    1.1619 H   0  0  0  0  0  0  0  0  0  0  0  0
   -3.1642   -1.0029    0.7999 H   0  0  0  0  0  0  0  0  0  0  0  0
    0.4937    0.1602    2.1834 H   0  0  0  0  0  0  0  0  0  0  0  0
   -6.1039    1.9010   -1.0678 H   0  0  0  0  0  0  0  0  0  0  0  0
   -6.4615    0.1809   -1.4612 H   0  0  0  0  0  0  0  0  0  0  0  0
   -7.1332    0.9273    0.0057 H   0  0  0  0  0  0  0  0  0  0  0  0
    1.6758    3.3752    2.8193 H   0  0  0  0  0  0  0  0  0  0  0  0
    6.0102    1.3259   -0.4185 H   0  0  0  0  0  0  0  0  0  0  0  0
    0.2497    3.4100    1.7583 H   0  0  0  0  0  0  0  0  0  0  0  0
    1.8371    4.0249    1.1719 H   0  0  0  0  0  0  0  0  0  0  0  0
    5.4172    0.6177   -1.9376 H   0  0  0  0  0  0  0  0  0  0  0  0
    5.7039   -0.4236   -0.4971 H   0  0  0  0  0  0  0  0  0  0  0  0
  1 10  1  0  0  0  0
  1 15  1  0  0  0  0
  2 10  1  0  0  0  0
  2 29  1  0  0  0  0
  3 15  2  0  0  0  0
  4 17  1  0  0  0  0
  4 20  1  0  0  0  0
  5 18  1  0  0  0  0
  5 22  1  0  0  0  0
  6 19  1  0  0  0  0
  6 21  1  0  0  0  0
  7 17  2  0  0  0  0
  8 18  2  0  0  0  0
  9 19  2  0  0  0  0
 10 11  1  0  0  0  0
 10 12  1  0  0  0  0
 11 13  1  0  0  0  0
 11 16  2  0  0  0  0
 12 14  1  0  0  0  0
 12 23  1  0  0  0  0
 12 24  1  0  0  0  0
 13 15  1  0  0  0  0
 13 25  1  0  0  0  0
 13 26  1  0  0  0  0
 14 17  1  0  0  0  0
 14 27  1  0  0  0  0
 14 28  1  0  0  0  0
 16 18  1  0  0  0  0
 16 19  1  0  0  0  0
 20 30  1  0  0  0  0
 20 31  1  0  0  0  0
 20 32  1  0  0  0  0
 21 34  1  0  0  0  0
 21 37  1  0  0  0  0
 21 38  1  0  0  0  0
 22 33  1  0  0  0  0
 22 35  1  0  0  0  0
 22 36  1  0  0  0  0
M  END
> <PUBCHEM_COMPOUND_CID>
132571668

> <PUBCHEM_CONFORMER_RMSD>
0.8

> <PUBCHEM_CONFORMER_DIVERSEORDER>
1
83
127
160
80
133
161
159
146
177
173
143
155
166
151
118
132
84
119
93
195
150
23
21
144
106
116
174
77
51
145
158
134
125
14
50
167
187
47
57
193
140
182
123
86
52
71
122
82
109
90
178
189
27
120
157
91
48
115
95
179
141
165
7
35
45
81
194
138
94
103
148
128
74
149
108
43
162
96
105
170
192
49
114
185
130
60
69
65
42
98
107
40
66
11
102
53
186
30
183
59
72
63
70
113
34
89
92
129
190
101
54
97
36
126
79
10
85
75
142
22
62
99
9
29
18
68
112
8
100
111
55
15
58
176
139
3
152
171
87
44
13
25
4
188
67
61
196
104
41
2
37
76
164
64
31
24
28
56
169
5
131
163
17
20
181
78
117
172
168
6
110
124
191
136
39
153
26
121
175
32
184
38
16
73
46
135
12
88
154
33
147
180
156
19
137

> <PUBCHEM_MMFF94_PARTIAL_CHARGES>
22
1 -0.43
10 0.7
11 -0.28
13 0.2
14 0.06
15 0.66
16 0.03
17 0.66
18 0.71
19 0.71
2 -0.68
20 0.28
21 0.28
22 0.28
29 0.4
3 -0.57
4 -0.43
5 -0.43
6 -0.43
7 -0.57
8 -0.57
9 -0.57

> <PUBCHEM_EFFECTIVE_ROTOR_COUNT>
8.6

> <PUBCHEM_PHARMACOPHORE_FEATURES>
8
1 16 anion
1 2 acceptor
1 2 donor
1 3 acceptor
1 7 acceptor
1 8 acceptor
1 9 acceptor
5 1 10 11 13 15 rings

> <PUBCHEM_HEAVY_ATOM_COUNT>
22

> <PUBCHEM_ATOM_DEF_STEREO_COUNT>
0

> <PUBCHEM_ATOM_UDEF_STEREO_COUNT>
1

> <PUBCHEM_BOND_DEF_STEREO_COUNT>
0

> <PUBCHEM_BOND_UDEF_STEREO_COUNT>
0

> <PUBCHEM_ISOTOPIC_ATOM_COUNT>
0

> <PUBCHEM_COMPONENT_COUNT>
1

> <PUBCHEM_CACTVS_TAUTO_COUNT>
4

> <PUBCHEM_CONFORMER_ID>
07E6E21400000001

> <PUBCHEM_MMFF94_ENERGY>
49.2743

> <PUBCHEM_FEATURE_SELFOVERLAP>
40.599

> <PUBCHEM_SHAPE_FINGERPRINT>
10165383 225 18260552221080739893
10693767 8 18129942252329736095
10764073 3 16023031575463173585
10906281 52 18058470823197130016
11578080 2 18047196534008525444
12035758 1 18338231678201366656
12403259 415 18265900331442727113
12730499 353 18334020471737251107
12769317 202 18336254657468049317
13134695 92 18131915957527108732
13149001 5 18198354029297367766
13294875 104 18335404799393680234
15210252 30 17822016350280789525
16945 1 18060701688749117522
17980427 26 18127100126456187492
18186145 218 18339353162892105061
18219364 16 18263382402412139947
21029758 11 18202009832619735472
22112679 90 17627515934476709915
221357 26 18272931592523406029
22289505 5 18264480681838275021
23402539 116 18411135866043274486
23558518 356 17767428798339482564
23559900 14 18340498859057556860
23598291 2 17842568336170099099
25 1 18409449180572292231
2748010 2 17909278214613817546
298252 57 17967536791509750058
3060560 45 18410289198982049247
3084891 8 18188771617783762012
3250762 1 17836649995536957490
350125 39 18049176745289957307
70251023 43 17839755759055837127
81228 2 17468758941064791363

> <PUBCHEM_SHAPE_MULTIPOLES>
399.93
9.02
3.22
1.38
10.32
1.45
0.17
-4.06
-4.85
-1.66
1.73
-0.19
-0.45
0.95

> <PUBCHEM_SHAPE_SELFOVERLAP>
826.752

> <PUBCHEM_SHAPE_VOLUME>
228.5

> <PUBCHEM_COORDINATE_TYPE>
2
5
10

$$$$
