132594
  -OEChem-03292013323D

 34 35  0     1  0  0  0  0  0999 V2000
    2.0488    1.2005   -0.4998 O   0  0  0  0  0  0  0  0  0  0  0  0
    4.8590   -1.7923   -0.3004 O   0  0  0  0  0  0  0  0  0  0  0  0
    0.3673   -0.2696    0.1813 O   0  0  0  0  0  0  0  0  0  0  0  0
    2.3696   -2.0633    1.1373 O   0  0  0  0  0  0  0  0  0  0  0  0
    5.6913    1.0351   -0.3876 O   0  0  0  0  0  0  0  0  0  0  0  0
   -0.3412    1.8530    0.6798 O   0  0  0  0  0  0  0  0  0  0  0  0
   -5.3740    1.4670    0.1852 O   0  0  0  0  0  0  0  0  0  0  0  0
   -5.7949   -1.1836   -0.5390 O   0  0  0  0  0  0  0  0  0  0  0  0
    4.0983   -0.6920    0.1998 C   0  0  2  0  0  0  0  0  0  0  0  0
    2.6188   -1.0715    0.1414 C   0  0  2  0  0  0  0  0  0  0  0  0
    4.3792    0.5490   -0.6468 C   0  0  1  0  0  0  0  0  0  0  0  0
    1.7180    0.1386    0.3932 C   0  0  1  0  0  0  0  0  0  0  0  0
    3.3856    1.6555   -0.3222 C   0  0  0  0  0  0  0  0  0  0  0  0
   -0.5899    0.6956    0.3584 C   0  0  0  0  0  0  0  0  0  0  0  0
   -1.9517    0.2079    0.1245 C   0  0  0  0  0  0  0  0  0  0  0  0
   -3.0263    1.0769    0.2671 C   0  0  0  0  0  0  0  0  0  0  0  0
   -2.1528   -1.1184   -0.2373 C   0  0  0  0  0  0  0  0  0  0  0  0
   -4.3225    0.6124    0.0444 C   0  0  0  0  0  0  0  0  0  0  0  0
   -3.4490   -1.5830   -0.4600 C   0  0  0  0  0  0  0  0  0  0  0  0
   -4.5339   -0.7176   -0.3192 C   0  0  0  0  0  0  0  0  0  0  0  0
    4.4249   -0.5323    1.2349 H   0  0  0  0  0  0  0  0  0  0  0  0
    2.3874   -1.5285   -0.8291 H   0  0  0  0  0  0  0  0  0  0  0  0
    4.3204    0.2927   -1.7116 H   0  0  0  0  0  0  0  0  0  0  0  0
    1.8126    0.4741    1.4352 H   0  0  0  0  0  0  0  0  0  0  0  0
    3.5204    2.0344    0.6989 H   0  0  0  0  0  0  0  0  0  0  0  0
    3.5473    2.5092   -0.9895 H   0  0  0  0  0  0  0  0  0  0  0  0
    4.6471   -2.5663    0.2491 H   0  0  0  0  0  0  0  0  0  0  0  0
    1.4214   -2.2768    1.1030 H   0  0  0  0  0  0  0  0  0  0  0  0
    6.3114    0.3077   -0.5672 H   0  0  0  0  0  0  0  0  0  0  0  0
   -2.8689    2.1147    0.5502 H   0  0  0  0  0  0  0  0  0  0  0  0
   -1.3348   -1.8228   -0.3568 H   0  0  0  0  0  0  0  0  0  0  0  0
   -3.6075   -2.6202   -0.7429 H   0  0  0  0  0  0  0  0  0  0  0  0
   -5.0388    2.3438    0.4401 H   0  0  0  0  0  0  0  0  0  0  0  0
   -6.4204   -0.4518   -0.3969 H   0  0  0  0  0  0  0  0  0  0  0  0
  1 12  1  0  0  0  0
  1 13  1  0  0  0  0
  2  9  1  0  0  0  0
  2 27  1  0  0  0  0
  3 12  1  0  0  0  0
  3 14  1  0  0  0  0
  4 10  1  0  0  0  0
  4 28  1  0  0  0  0
  5 11  1  0  0  0  0
  5 29  1  0  0  0  0
  6 14  2  0  0  0  0
  7 18  1  0  0  0  0
  7 33  1  0  0  0  0
  8 20  1  0  0  0  0
  8 34  1  0  0  0  0
  9 10  1  0  0  0  0
  9 11  1  0  0  0  0
  9 21  1  0  0  0  0
 10 12  1  0  0  0  0
 10 22  1  0  0  0  0
 11 13  1  0  0  0  0
 11 23  1  0  0  0  0
 12 24  1  0  0  0  0
 13 25  1  0  0  0  0
 13 26  1  0  0  0  0
 14 15  1  0  0  0  0
 15 16  2  0  0  0  0
 15 17  1  0  0  0  0
 16 18  1  0  0  0  0
 16 30  1  0  0  0  0
 17 19  2  0  0  0  0
 17 31  1  0  0  0  0
 18 20  2  0  0  0  0
 19 20  1  0  0  0  0
 19 32  1  0  0  0  0
M  END
> <PUBCHEM_COMPOUND_CID>
132594

> <PUBCHEM_CONFORMER_RMSD>
0.6

> <PUBCHEM_CONFORMER_DIVERSEORDER>
1
81
31
121
42
58
33
34
109
129
25
83
104
82
28
15
68
29
111
134
89
116
48
112
55
103
20
85
41
14
35
60
6
66
59
40
106
79
26
67
107
84
90
27
57
76
114
22
36
133
51
125
94
118
19
110
70
56
102
132
105
49
5
80
130
7
47
100
11
69
93
119
12
88
46
131
77
71
127
117
32
2
45
86
113
78
44
87
74
91
126
43
120
54
122
10
18
124
97
73
21
75
38
50
115
52
30
17
39
96
24
65
92
108
72
53
98
123
95
64
37
16
99
128
101
13
23
63
61
4
9
62
3
8

> <PUBCHEM_MMFF94_PARTIAL_CHARGES>
28
1 -0.56
10 0.28
11 0.28
12 0.56
13 0.28
14 0.63
15 0.09
16 -0.15
17 -0.15
18 0.08
19 -0.15
2 -0.68
20 0.08
27 0.4
28 0.4
29 0.4
3 -0.43
30 0.15
31 0.15
32 0.15
33 0.45
34 0.45
4 -0.68
5 -0.68
6 -0.57
7 -0.53
8 -0.53
9 0.28

> <PUBCHEM_EFFECTIVE_ROTOR_COUNT>
4.2

> <PUBCHEM_PHARMACOPHORE_FEATURES>
12
1 1 acceptor
1 2 acceptor
1 2 donor
1 4 acceptor
1 4 donor
1 5 acceptor
1 5 donor
1 6 acceptor
1 7 donor
1 8 donor
6 1 9 10 11 12 13 rings
6 15 16 17 18 19 20 rings

> <PUBCHEM_HEAVY_ATOM_COUNT>
20

> <PUBCHEM_ATOM_DEF_STEREO_COUNT>
4

> <PUBCHEM_ATOM_UDEF_STEREO_COUNT>
0

> <PUBCHEM_BOND_DEF_STEREO_COUNT>
0

> <PUBCHEM_BOND_UDEF_STEREO_COUNT>
0

> <PUBCHEM_ISOTOPIC_ATOM_COUNT>
0

> <PUBCHEM_COMPONENT_COUNT>
1

> <PUBCHEM_CACTVS_TAUTO_COUNT>
12

> <PUBCHEM_CONFORMER_ID>
000205F200000001

> <PUBCHEM_MMFF94_ENERGY>
54.2891

> <PUBCHEM_FEATURE_SELFOVERLAP>
60.916

> <PUBCHEM_SHAPE_FINGERPRINT>
10595046 47 18411420656423624437
10616163 171 18341332292238554487
12107183 9 17689433789386167433
12236239 1 18411138026079332676
12788726 201 17845942822902032417
13167823 11 18411135840104658775
13760787 19 18411418414598200447
14251764 18 18272091600473543051
14528608 73 18408606993610200524
15196674 1 18411982455357328871
15242433 33 18411420604852127863
15788980 27 18409452479175584881
17804303 29 18059852883511389537
17834072 33 18412544331500211575
18186145 218 17458622328413730859
18681886 176 18272367603456222736
200 152 18413671318012733041
20281475 54 18341890762403273473
20645477 70 18410012109409735678
21054139 6 18263638618813257158
21267235 1 18412552019871804239
221490 88 18193562391635105234
22646028 1 18411980256344466913
23402539 116 18342455941371108725
23402655 69 18409168818224005428
23522609 53 17984732106219651049
23559900 14 18201995551479001576
239999 70 17989210382529485212
2871803 45 18260828194167479154
29717793 49 18272931591989967702
300161 21 18411414012077497393
3004659 81 18409167680316427166
34797466 226 17346043384739210300
3545911 37 18335703870466228253
4073 2 18040722514579691514
4214541 1 18411981347593422093
474 4 17749957772926743988
4921388 177 16805612524750403299
5104073 3 18411419513967326395
542803 24 17676207982842775148
543358 83 18336266756258838898
559249 180 18341046316235986983
67856867 119 18338793524554070184
77779 3 18410575102011746701
9709674 26 18410581673175189618

> <PUBCHEM_SHAPE_MULTIPOLES>
364.64
12.89
1.88
0.76
1.55
0.2
0.04
0.75
-2.18
-0.41
0.11
-0.18
0.07
-1

> <PUBCHEM_SHAPE_SELFOVERLAP>
774.887

> <PUBCHEM_SHAPE_VOLUME>
200.2

> <PUBCHEM_COORDINATE_TYPE>
2
5
10

$$$$
