132575228
  -OEChem-03292013293D

 40 43  0     1  0  0  0  0  0999 V2000
    0.2214    0.0117   -0.0029 O   0  0  0  0  0  0  0  0  0  0  0  0
    1.2828   -1.9874   -1.7803 O   0  0  0  0  0  0  0  0  0  0  0  0
   -4.5644    0.4792    0.1230 O   0  0  0  0  0  0  0  0  0  0  0  0
   -2.6552   -3.8802    0.1418 O   0  0  0  0  0  0  0  0  0  0  0  0
    5.9665    0.1623    1.6150 O   0  0  0  0  0  0  0  0  0  0  0  0
   -3.0555    3.8465    0.0215 O   0  0  0  0  0  0  0  0  0  0  0  0
    6.1962    1.9466   -0.5036 O   0  0  0  0  0  0  0  0  0  0  0  0
   -5.5153    2.5585    0.1150 O   0  0  0  0  0  0  0  0  0  0  0  0
    1.2875   -2.1705   -0.3640 C   0  0  1  0  0  0  0  0  0  0  0  0
    1.3274   -0.8242    0.3683 C   0  0  1  0  0  0  0  0  0  0  0  0
    0.0107   -2.9114    0.0210 C   0  0  0  0  0  0  0  0  0  0  0  0
   -1.1753   -1.9829    0.0542 C   0  0  0  0  0  0  0  0  0  0  0  0
   -1.0139   -0.5858    0.0496 C   0  0  0  0  0  0  0  0  0  0  0  0
    2.6317   -0.0833    0.1382 C   0  0  0  0  0  0  0  0  0  0  0  0
   -2.1371    0.2572    0.0588 C   0  0  0  0  0  0  0  0  0  0  0  0
   -2.4664   -2.5293    0.1105 C   0  0  0  0  0  0  0  0  0  0  0  0
   -3.4036   -0.3209    0.1042 C   0  0  0  0  0  0  0  0  0  0  0  0
   -3.5843   -1.7008    0.1348 C   0  0  0  0  0  0  0  0  0  0  0  0
    3.7153   -0.2978    0.9899 C   0  0  0  0  0  0  0  0  0  0  0  0
    2.7471    0.8113   -0.9257 C   0  0  0  0  0  0  0  0  0  0  0  0
   -2.0514    1.7129    0.0308 C   0  0  0  0  0  0  0  0  0  0  0  0
    4.9146    0.3823    0.7776 C   0  0  0  0  0  0  0  0  0  0  0  0
    3.9463    1.4916   -1.1377 C   0  0  0  0  0  0  0  0  0  0  0  0
   -3.1527    2.4699    0.0485 C   0  0  0  0  0  0  0  0  0  0  0  0
    5.0301    1.2771   -0.2861 C   0  0  0  0  0  0  0  0  0  0  0  0
   -4.5024    1.8676    0.0975 C   0  0  0  0  0  0  0  0  0  0  0  0
    2.1636   -2.7813   -0.1170 H   0  0  0  0  0  0  0  0  0  0  0  0
    1.2414   -0.9940    1.4519 H   0  0  0  0  0  0  0  0  0  0  0  0
    0.1289   -3.3426    1.0227 H   0  0  0  0  0  0  0  0  0  0  0  0
   -0.1739   -3.7263   -0.6892 H   0  0  0  0  0  0  0  0  0  0  0  0
   -4.5870   -2.1172    0.1746 H   0  0  0  0  0  0  0  0  0  0  0  0
    1.2962   -2.8687   -2.1910 H   0  0  0  0  0  0  0  0  0  0  0  0
    3.6249   -0.9978    1.8172 H   0  0  0  0  0  0  0  0  0  0  0  0
    1.9197    0.9877   -1.6075 H   0  0  0  0  0  0  0  0  0  0  0  0
   -1.0719    2.1781   -0.0048 H   0  0  0  0  0  0  0  0  0  0  0  0
    4.0234    2.1843   -1.9716 H   0  0  0  0  0  0  0  0  0  0  0  0
   -3.6085   -4.0691    0.1795 H   0  0  0  0  0  0  0  0  0  0  0  0
    5.7040   -0.4865    2.2904 H   0  0  0  0  0  0  0  0  0  0  0  0
   -3.9604    4.2032    0.0409 H   0  0  0  0  0  0  0  0  0  0  0  0
    6.0915    2.5203   -1.2820 H   0  0  0  0  0  0  0  0  0  0  0  0
  1 10  1  0  0  0  0
  1 13  1  0  0  0  0
  2  9  1  0  0  0  0
  2 32  1  0  0  0  0
  3 17  1  0  0  0  0
  3 26  1  0  0  0  0
  4 16  1  0  0  0  0
  4 37  1  0  0  0  0
  5 22  1  0  0  0  0
  5 38  1  0  0  0  0
  6 24  1  0  0  0  0
  6 39  1  0  0  0  0
  7 25  1  0  0  0  0
  7 40  1  0  0  0  0
  8 26  2  0  0  0  0
  9 10  1  0  0  0  0
  9 11  1  0  0  0  0
  9 27  1  0  0  0  0
 10 14  1  0  0  0  0
 10 28  1  0  0  0  0
 11 12  1  0  0  0  0
 11 29  1  0  0  0  0
 11 30  1  0  0  0  0
 12 13  1  0  0  0  0
 12 16  2  0  0  0  0
 13 15  2  0  0  0  0
 14 19  2  0  0  0  0
 14 20  1  0  0  0  0
 15 17  1  0  0  0  0
 15 21  1  0  0  0  0
 16 18  1  0  0  0  0
 17 18  2  0  0  0  0
 18 31  1  0  0  0  0
 19 22  1  0  0  0  0
 19 33  1  0  0  0  0
 20 23  2  0  0  0  0
 20 34  1  0  0  0  0
 21 24  2  0  0  0  0
 21 35  1  0  0  0  0
 22 25  2  0  0  0  0
 23 25  1  0  0  0  0
 23 36  1  0  0  0  0
 24 26  1  0  0  0  0
M  END
> <PUBCHEM_COMPOUND_CID>
132575228

> <PUBCHEM_CONFORMER_RMSD>
0.6

> <PUBCHEM_CONFORMER_DIVERSEORDER>
2
9
5
4
10
7
6
3
8
1

> <PUBCHEM_MMFF94_PARTIAL_CHARGES>
36
1 -0.36
10 0.42
11 0.14
12 -0.14
13 0.08
14 -0.14
15 0.03
16 0.08
17 0.08
18 -0.15
19 -0.15
2 -0.68
20 -0.15
21 -0.18
22 0.08
23 -0.15
24 0.09
25 0.08
26 0.71
3 -0.23
31 0.15
32 0.4
33 0.15
34 0.15
35 0.15
36 0.15
37 0.45
38 0.45
39 0.45
4 -0.53
40 0.45
5 -0.53
6 -0.53
7 -0.53
8 -0.57
9 0.28

> <PUBCHEM_EFFECTIVE_ROTOR_COUNT>
1.8

> <PUBCHEM_PHARMACOPHORE_FEATURES>
12
1 1 acceptor
1 2 acceptor
1 2 donor
1 4 donor
1 5 donor
1 6 donor
1 7 donor
1 8 acceptor
6 1 9 10 11 12 13 rings
6 12 13 15 16 17 18 rings
6 14 19 20 22 23 25 rings
6 3 15 17 21 24 26 rings

> <PUBCHEM_HEAVY_ATOM_COUNT>
26

> <PUBCHEM_ATOM_DEF_STEREO_COUNT>
2

> <PUBCHEM_ATOM_UDEF_STEREO_COUNT>
0

> <PUBCHEM_BOND_DEF_STEREO_COUNT>
0

> <PUBCHEM_BOND_UDEF_STEREO_COUNT>
0

> <PUBCHEM_ISOTOPIC_ATOM_COUNT>
0

> <PUBCHEM_COMPONENT_COUNT>
1

> <PUBCHEM_CACTVS_TAUTO_COUNT>
80

> <PUBCHEM_CONFORMER_ID>
07E6EFFC00000002

> <PUBCHEM_MMFF94_ENERGY>
81.255

> <PUBCHEM_FEATURE_SELFOVERLAP>
60.96

> <PUBCHEM_SHAPE_FINGERPRINT>
10319926 262 18269818935656143042
10411042 1 17762059143973944563
10595046 47 18189616232335714600
10615611 76 17604729883331112948
10670039 82 18336276707993586820
10675989 125 17544752336012272665
11135609 187 18264198137900465453
12107183 9 18190167989599510778
12173636 292 18411134749067038271
12236239 1 18114740560057593794
12390115 104 18271540718782365105
12403259 118 18337382851077046176
12403259 415 17988924530806799496
12596602 18 17240761830316506400
12633257 1 18040711450975843932
12788726 201 17973738157476454934
12969540 114 16630528461938254718
12978246 48 18335423434951413105
13140716 1 18194968676156167075
13540713 4 18269295507385922879
138480 1 17257090364321779659
13965767 371 17751642043950956997
14117953 113 18189896422352976205
14251764 75 18054800485780104657
14294032 229 18201443618776090143
14341114 328 18040712589184271472
14466204 15 18411975858767837944
14508225 48 17910382116173495823
14739800 52 18049718826868309952
14767858 380 18340750599801545941
14790565 3 18196661683730208361
15131766 46 16155417482831209805
17818456 19 18335979788382940544
17980427 23 18187085087168733269
20511986 3 17967799566310097576
20715895 44 18046901585418674541
21033650 10 18191612876742893748
21065198 48 18187077399789157034
21756936 100 18270953648603728860
21859007 373 17099451286182104245
22149856 69 18122373228418761025
22182313 1 18128839536624526423
23227448 37 18411421730392178493
23557571 272 18272101529435767678
23559900 14 18270691844430158206
350125 39 18338518655041537689
44802255 64 17773047565040373012
469060 322 18194143995264775827
474 4 18263365802379390769
5104073 3 18333732390320176538
56616090 163 18341623572509057190
59755656 215 18270404872037259110
6327066 14 18335698308932460397
6700243 42 17624172620232926982
7064713 232 18408319978041515796
7808743 9 18410293622692856024
9981440 41 18408041805958213155

> <PUBCHEM_SHAPE_MULTIPOLES>
488.11
12.02
3.81
0.95
10.39
0.41
0.07
-9.11
-1.7
-5.01
0.3
1.25
0.09
-0.47

> <PUBCHEM_SHAPE_SELFOVERLAP>
1092.968

> <PUBCHEM_SHAPE_VOLUME>
256.4

> <PUBCHEM_COORDINATE_TYPE>
2
5
10

$$$$
