132560576
  -OEChem-03292013293D

 40 39  0     1  0  0  0  0  0999 V2000
    4.7303    1.3051   -0.6401 S   0  0  0  0  0  0  0  0  0  0  0  0
    0.3085    0.9803    1.7163 O   0  0  0  0  0  0  0  0  0  0  0  0
   -0.0281   -1.1492   -1.6291 O   0  0  0  0  0  0  0  0  0  0  0  0
   -4.6700    0.4016    0.5740 O   0  0  0  0  0  0  0  0  0  0  0  0
   -3.9429    2.3039   -0.4355 O   0  0  0  0  0  0  0  0  0  0  0  0
    1.0745   -2.7122    1.4065 O   0  0  0  0  0  0  0  0  0  0  0  0
    1.4836   -4.7754    0.5558 O   0  0  0  0  0  0  0  0  0  0  0  0
   -0.7430    1.1766   -0.3431 N   0  0  0  0  0  0  0  0  0  0  0  0
    1.1959    3.5923    1.4617 N   0  0  0  0  0  0  0  0  0  0  0  0
   -1.1220   -2.3241    0.0472 N   0  0  0  0  0  0  0  0  0  0  0  0
   -1.6107    0.0273   -0.2210 C   0  0  1  0  0  0  0  0  0  0  0  0
    0.9353    2.8130    0.2530 C   0  0  1  0  0  0  0  0  0  0  0  0
    2.2342    2.4668   -0.4954 C   0  0  0  0  0  0  0  0  0  0  0  0
    0.1533    1.5621    0.6444 C   0  0  0  0  0  0  0  0  0  0  0  0
   -2.9027    0.2010   -1.0151 C   0  0  0  0  0  0  0  0  0  0  0  0
    3.2311    1.6483    0.3295 C   0  0  0  0  0  0  0  0  0  0  0  0
   -0.8374   -1.1929   -0.7048 C   0  0  0  0  0  0  0  0  0  0  0  0
   -3.8786    1.0907   -0.2851 C   0  0  0  0  0  0  0  0  0  0  0  0
   -0.4799   -3.5967   -0.1855 C   0  0  0  0  0  0  0  0  0  0  0  0
    4.0836   -0.0475   -1.6489 C   0  0  0  0  0  0  0  0  0  0  0  0
    0.7848   -3.7711    0.6151 C   0  0  0  0  0  0  0  0  0  0  0  0
   -1.8400   -0.0984    0.8449 H   0  0  0  0  0  0  0  0  0  0  0  0
    0.3116    3.4278   -0.4079 H   0  0  0  0  0  0  0  0  0  0  0  0
    1.9609    1.9162   -1.4037 H   0  0  0  0  0  0  0  0  0  0  0  0
    2.7082    3.4017   -0.8240 H   0  0  0  0  0  0  0  0  0  0  0  0
   -0.7424    1.6766   -1.2276 H   0  0  0  0  0  0  0  0  0  0  0  0
   -2.7194    0.6305   -2.0075 H   0  0  0  0  0  0  0  0  0  0  0  0
   -3.3940   -0.7640   -1.1924 H   0  0  0  0  0  0  0  0  0  0  0  0
    2.8017    0.7036    0.6757 H   0  0  0  0  0  0  0  0  0  0  0  0
    3.5430    2.2114    1.2147 H   0  0  0  0  0  0  0  0  0  0  0  0
    0.3133    3.9067    1.8635 H   0  0  0  0  0  0  0  0  0  0  0  0
    1.7150    4.4354    1.2198 H   0  0  0  0  0  0  0  0  0  0  0  0
   -1.7964   -2.2671    0.8046 H   0  0  0  0  0  0  0  0  0  0  0  0
   -0.2356   -3.6893   -1.2479 H   0  0  0  0  0  0  0  0  0  0  0  0
   -1.1891   -4.3756    0.1081 H   0  0  0  0  0  0  0  0  0  0  0  0
    4.8972   -0.4601   -2.2519 H   0  0  0  0  0  0  0  0  0  0  0  0
    3.3047    0.3060   -2.3283 H   0  0  0  0  0  0  0  0  0  0  0  0
    3.6878   -0.8466   -1.0164 H   0  0  0  0  0  0  0  0  0  0  0  0
   -5.2942    0.9904    1.0494 H   0  0  0  0  0  0  0  0  0  0  0  0
    1.9017   -2.8494    1.9157 H   0  0  0  0  0  0  0  0  0  0  0  0
  1 16  1  0  0  0  0
  1 20  1  0  0  0  0
  2 14  2  0  0  0  0
  3 17  2  0  0  0  0
  4 18  1  0  0  0  0
  4 39  1  0  0  0  0
  5 18  2  0  0  0  0
  6 21  1  0  0  0  0
  6 40  1  0  0  0  0
  7 21  2  0  0  0  0
  8 11  1  0  0  0  0
  8 14  1  0  0  0  0
  8 26  1  0  0  0  0
  9 12  1  0  0  0  0
  9 31  1  0  0  0  0
  9 32  1  0  0  0  0
 10 17  1  0  0  0  0
 10 19  1  0  0  0  0
 10 33  1  0  0  0  0
 11 15  1  0  0  0  0
 11 17  1  0  0  0  0
 11 22  1  0  0  0  0
 12 13  1  0  0  0  0
 12 14  1  0  0  0  0
 12 23  1  0  0  0  0
 13 16  1  0  0  0  0
 13 24  1  0  0  0  0
 13 25  1  0  0  0  0
 15 18  1  0  0  0  0
 15 27  1  0  0  0  0
 15 28  1  0  0  0  0
 16 29  1  0  0  0  0
 16 30  1  0  0  0  0
 19 21  1  0  0  0  0
 19 34  1  0  0  0  0
 19 35  1  0  0  0  0
 20 36  1  0  0  0  0
 20 37  1  0  0  0  0
 20 38  1  0  0  0  0
M  END
> <PUBCHEM_COMPOUND_CID>
132560576

> <PUBCHEM_CONFORMER_RMSD>
1

> <PUBCHEM_CONFORMER_DIVERSEORDER>
1
27
29
42
30
39
36
40
35
21
16
38
19
22
41
5
11
32
28
20
25
34
3
37
46
4
17
44
15
31
13
12
10
2
7
8
45
6
33
24
18
26
14
43
23
9

> <PUBCHEM_MMFF94_PARTIAL_CHARGES>
26
1 -0.46
10 -0.73
11 0.36
12 0.33
14 0.57
15 0.06
16 0.23
17 0.57
18 0.66
19 0.36
2 -0.57
20 0.23
21 0.66
26 0.37
3 -0.57
31 0.36
32 0.36
33 0.37
39 0.5
4 -0.65
40 0.5
5 -0.57
6 -0.65
7 -0.57
8 -0.73
9 -0.99

> <PUBCHEM_EFFECTIVE_ROTOR_COUNT>
12

> <PUBCHEM_PHARMACOPHORE_FEATURES>
13
1 10 donor
1 2 acceptor
1 20 hydrophobe
1 3 acceptor
1 4 acceptor
1 5 acceptor
1 6 acceptor
1 7 acceptor
1 8 donor
1 9 cation
1 9 donor
3 4 5 18 anion
3 6 7 21 anion

> <PUBCHEM_HEAVY_ATOM_COUNT>
21

> <PUBCHEM_ATOM_DEF_STEREO_COUNT>
2

> <PUBCHEM_ATOM_UDEF_STEREO_COUNT>
0

> <PUBCHEM_BOND_DEF_STEREO_COUNT>
0

> <PUBCHEM_BOND_UDEF_STEREO_COUNT>
0

> <PUBCHEM_ISOTOPIC_ATOM_COUNT>
0

> <PUBCHEM_COMPONENT_COUNT>
1

> <PUBCHEM_CACTVS_TAUTO_COUNT>
4

> <PUBCHEM_CONFORMER_ID>
07E6B6C000000001

> <PUBCHEM_MMFF94_ENERGY>
30.0143

> <PUBCHEM_FEATURE_SELFOVERLAP>
66.09

> <PUBCHEM_SHAPE_FINGERPRINT>
107951 10 18338524148151800374
12592029 89 18409170995740971145
12788726 201 17323790544502146737
14866123 147 18265895954702851442
17859628 97 18408600366533691482
19591789 44 18337391668376041771
21524375 3 18272087262182359245
21665056 4 18192987338479661479
23419403 2 17693991492917343431
23557571 272 17183888710870185808
23558518 356 17836635693006029925
59755656 215 18409163325551755869
81228 2 17334195219416128065
9709674 26 17838331140220981508

> <PUBCHEM_SHAPE_MULTIPOLES>
385.86
6.96
5.48
1.31
2.84
7.03
-0.05
-5.19
2.16
-1.1
-1.95
0.6
0.06
0.75

> <PUBCHEM_SHAPE_SELFOVERLAP>
737.328

> <PUBCHEM_SHAPE_VOLUME>
236.3

> <PUBCHEM_COORDINATE_TYPE>
2
5
10

$$$$
