132577714
  -OEChem-03292013293D

 58 61  0     1  0  0  0  0  0999 V2000
   -4.8529    0.6823   -0.8662 O   0  0  0  0  0  0  0  0  0  0  0  0
    2.7356    2.7716   -0.1271 O   0  0  0  0  0  0  0  0  0  0  0  0
    4.3376    1.1381    0.3885 O   0  0  0  0  0  0  0  0  0  0  0  0
    3.7308   -0.2180   -1.7262 O   0  0  0  0  0  0  0  0  0  0  0  0
    1.1080    4.0543    0.8625 O   0  0  0  0  0  0  0  0  0  0  0  0
    2.3168    1.4611   -2.4458 O   0  0  0  0  0  0  0  0  0  0  0  0
    1.5923   -4.7889    1.4932 O   0  0  0  0  0  0  0  0  0  0  0  0
   -5.4297   -0.6358   -0.9284 C   0  0  0  0  0  0  0  0  0  0  0  0
   -4.3543   -1.7205   -1.1022 C   0  0  0  0  0  0  0  0  0  0  0  0
   -3.3300   -1.6726    0.0227 C   0  0  0  0  0  0  0  0  0  0  0  0
   -2.9044   -0.2566    0.2744 C   0  0  0  0  0  0  0  0  0  0  0  0
   -3.6811    0.8200   -0.1698 C   0  0  0  0  0  0  0  0  0  0  0  0
   -6.3392   -0.6378   -2.1657 C   0  0  0  0  0  0  0  0  0  0  0  0
   -6.3007   -0.8578    0.3175 C   0  0  0  0  0  0  0  0  0  0  0  0
   -1.7279   -0.0002    0.9917 C   0  0  0  0  0  0  0  0  0  0  0  0
   -1.3206    1.3110    1.2385 C   0  0  0  0  0  0  0  0  0  0  0  0
   -0.0631    1.5706    1.9965 C   0  0  0  0  0  0  0  0  0  0  0  0
    1.1359    1.6743    1.1294 C   0  0  0  0  0  0  0  0  0  0  0  0
   -3.2656    2.1328    0.0707 C   0  0  0  0  0  0  0  0  0  0  0  0
    1.9813    0.7529    0.6566 C   0  0  0  0  0  0  0  0  0  0  0  0
   -2.0876    2.3771    0.7749 C   0  0  0  0  0  0  0  0  0  0  0  0
    3.0591    1.3825   -0.1522 C   0  0  1  0  0  0  0  0  0  0  0  0
    1.6216    2.9722    0.6343 C   0  0  0  0  0  0  0  0  0  0  0  0
    1.8810   -0.6946    0.8745 C   0  0  0  0  0  0  0  0  0  0  0  0
    2.9735    0.9058   -1.5755 C   0  0  0  0  0  0  0  0  0  0  0  0
    2.5039   -1.2789    1.9773 C   0  0  0  0  0  0  0  0  0  0  0  0
    1.1616   -1.4864   -0.0207 C   0  0  0  0  0  0  0  0  0  0  0  0
    2.4072   -2.6547    2.1853 C   0  0  0  0  0  0  0  0  0  0  0  0
    1.0648   -2.8622    0.1871 C   0  0  0  0  0  0  0  0  0  0  0  0
    1.6876   -3.4463    1.2901 C   0  0  0  0  0  0  0  0  0  0  0  0
    3.7398   -0.7814   -3.0417 C   0  0  0  0  0  0  0  0  0  0  0  0
    4.6189   -2.0138   -3.0442 C   0  0  0  0  0  0  0  0  0  0  0  0
   -3.8254   -1.5522   -2.0509 H   0  0  0  0  0  0  0  0  0  0  0  0
   -4.8020   -2.7198   -1.1574 H   0  0  0  0  0  0  0  0  0  0  0  0
   -2.4651   -2.2870   -0.2541 H   0  0  0  0  0  0  0  0  0  0  0  0
   -3.7519   -2.0896    0.9443 H   0  0  0  0  0  0  0  0  0  0  0  0
   -6.7814   -1.8414    0.2991 H   0  0  0  0  0  0  0  0  0  0  0  0
   -5.7629   -0.4238   -3.0734 H   0  0  0  0  0  0  0  0  0  0  0  0
   -6.8452   -1.6003   -2.2947 H   0  0  0  0  0  0  0  0  0  0  0  0
   -5.7222   -0.7744    1.2431 H   0  0  0  0  0  0  0  0  0  0  0  0
   -7.0826   -0.0922    0.3832 H   0  0  0  0  0  0  0  0  0  0  0  0
   -7.1003    0.1479   -2.0937 H   0  0  0  0  0  0  0  0  0  0  0  0
   -1.1527   -0.8347    1.3820 H   0  0  0  0  0  0  0  0  0  0  0  0
   -0.1734    2.4792    2.6031 H   0  0  0  0  0  0  0  0  0  0  0  0
    0.0843    0.7750    2.7394 H   0  0  0  0  0  0  0  0  0  0  0  0
   -3.8602    2.9712   -0.2830 H   0  0  0  0  0  0  0  0  0  0  0  0
   -1.7822    3.4038    0.9577 H   0  0  0  0  0  0  0  0  0  0  0  0
    3.0636   -0.6762    2.6883 H   0  0  0  0  0  0  0  0  0  0  0  0
    0.6708   -1.0481   -0.8864 H   0  0  0  0  0  0  0  0  0  0  0  0
    4.2575    0.7447    1.2722 H   0  0  0  0  0  0  0  0  0  0  0  0
    2.8956   -3.0975    3.0491 H   0  0  0  0  0  0  0  0  0  0  0  0
    0.5023   -3.4733   -0.5135 H   0  0  0  0  0  0  0  0  0  0  0  0
    2.7182   -1.0550   -3.3281 H   0  0  0  0  0  0  0  0  0  0  0  0
    4.1321   -0.0450   -3.7518 H   0  0  0  0  0  0  0  0  0  0  0  0
    5.6400   -1.7593   -2.7415 H   0  0  0  0  0  0  0  0  0  0  0  0
    4.2488   -2.7516   -2.3245 H   0  0  0  0  0  0  0  0  0  0  0  0
    4.6481   -2.4718   -4.0367 H   0  0  0  0  0  0  0  0  0  0  0  0
    2.0816   -5.0207    2.3013 H   0  0  0  0  0  0  0  0  0  0  0  0
  1  8  1  0  0  0  0
  1 12  1  0  0  0  0
  2 22  1  0  0  0  0
  2 23  1  0  0  0  0
  3 22  1  0  0  0  0
  3 50  1  0  0  0  0
  4 25  1  0  0  0  0
  4 31  1  0  0  0  0
  5 23  2  0  0  0  0
  6 25  2  0  0  0  0
  7 30  1  0  0  0  0
  7 58  1  0  0  0  0
  8  9  1  0  0  0  0
  8 13  1  0  0  0  0
  8 14  1  0  0  0  0
  9 10  1  0  0  0  0
  9 33  1  0  0  0  0
  9 34  1  0  0  0  0
 10 11  1  0  0  0  0
 10 35  1  0  0  0  0
 10 36  1  0  0  0  0
 11 12  2  0  0  0  0
 11 15  1  0  0  0  0
 12 19  1  0  0  0  0
 13 38  1  0  0  0  0
 13 39  1  0  0  0  0
 13 42  1  0  0  0  0
 14 37  1  0  0  0  0
 14 40  1  0  0  0  0
 14 41  1  0  0  0  0
 15 16  2  0  0  0  0
 15 43  1  0  0  0  0
 16 17  1  0  0  0  0
 16 21  1  0  0  0  0
 17 18  1  0  0  0  0
 17 44  1  0  0  0  0
 17 45  1  0  0  0  0
 18 20  2  0  0  0  0
 18 23  1  0  0  0  0
 19 21  2  0  0  0  0
 19 46  1  0  0  0  0
 20 22  1  0  0  0  0
 20 24  1  0  0  0  0
 21 47  1  0  0  0  0
 22 25  1  0  0  0  0
 24 26  2  0  0  0  0
 24 27  1  0  0  0  0
 26 28  1  0  0  0  0
 26 48  1  0  0  0  0
 27 29  2  0  0  0  0
 27 49  1  0  0  0  0
 28 30  2  0  0  0  0
 28 51  1  0  0  0  0
 29 30  1  0  0  0  0
 29 52  1  0  0  0  0
 31 32  1  0  0  0  0
 31 53  1  0  0  0  0
 31 54  1  0  0  0  0
 32 55  1  0  0  0  0
 32 56  1  0  0  0  0
 32 57  1  0  0  0  0
M  END
> <PUBCHEM_COMPOUND_CID>
132577714

> <PUBCHEM_CONFORMER_RMSD>
1

> <PUBCHEM_CONFORMER_DIVERSEORDER>
3
60
17
42
24
59
29
28
8
23
61
21
54
57
33
13
51
36
22
26
1
37
35
56
18
49
20
46
11
10
19
45
40
25
53
52
50
6
27
12
16
15
14
47
55
38
4
31
32
34
5
44
39
9
43
30
2
7
41
48
58

> <PUBCHEM_MMFF94_PARTIAL_CHARGES>
37
1 -0.36
10 0.14
11 -0.14
12 0.08
15 -0.15
16 -0.14
17 0.28
18 -0.12
19 -0.15
2 -0.43
20 -0.17
21 -0.15
22 0.76
23 0.71
24 0.03
25 0.66
26 -0.15
27 -0.15
28 -0.15
29 -0.15
3 -0.68
30 0.08
31 0.28
4 -0.43
43 0.15
46 0.15
47 0.15
48 0.15
49 0.15
5 -0.57
50 0.4
51 0.15
52 0.15
58 0.45
6 -0.57
7 -0.53
8 0.28

> <PUBCHEM_EFFECTIVE_ROTOR_COUNT>
7.2

> <PUBCHEM_PHARMACOPHORE_FEATURES>
11
1 1 acceptor
1 3 acceptor
1 3 donor
1 5 acceptor
1 6 acceptor
1 7 donor
3 8 13 14 hydrophobe
5 2 18 20 22 23 rings
6 1 8 9 10 11 12 rings
6 11 12 15 16 19 21 rings
6 24 26 27 28 29 30 rings

> <PUBCHEM_HEAVY_ATOM_COUNT>
32

> <PUBCHEM_ATOM_DEF_STEREO_COUNT>
1

> <PUBCHEM_ATOM_UDEF_STEREO_COUNT>
0

> <PUBCHEM_BOND_DEF_STEREO_COUNT>
0

> <PUBCHEM_BOND_UDEF_STEREO_COUNT>
0

> <PUBCHEM_ISOTOPIC_ATOM_COUNT>
0

> <PUBCHEM_COMPONENT_COUNT>
1

> <PUBCHEM_CACTVS_TAUTO_COUNT>
130

> <PUBCHEM_CONFORMER_ID>
07E6F9B200000003

> <PUBCHEM_MMFF94_ENERGY>
77.2397

> <PUBCHEM_FEATURE_SELFOVERLAP>
55.851

> <PUBCHEM_SHAPE_FINGERPRINT>
10369192 42 16158832458826314332
108634 29 17907302405156658802
10928967 22 18343577456907872967
11069576 57 18337935814820788207
11285246 1 18124913163833378070
12035759 4 17904225649762961678
12549972 3 14763221104138990489
12633046 712 15215278687244470249
12788726 201 17917994958653575753
13004483 165 17252007343230042258
14068700 675 18120641445358628178
14674994 50 16745352346680563790
14863182 85 18336530673578127258
15183329 4 18059281133797888757
15324884 4 16905261478461613968
15475509 35 14620512367866342407
17909252 39 17560537131114217374
19319366 153 18336815494166205135
20775438 99 17558246972758104207
20775530 9 18195234521620722283
21304303 282 16739747556542006336
21304303 94 18200880689506084887
21860390 5 16081084900620093126
22393880 68 18340209587544423236
23559900 14 17917713461806220349
238 59 18261399991320903792
239999 70 18129939117087518049
25223398 141 17388542880353797578
340366 18 17685208379365659001
404807 78 17461449302265294451
4280585 95 17984994687286605758
44802255 64 15868344829012691582
460360 51 18338796694524537761
463206 1 18336830801159863243
513532 50 18131343112174531758
6669772 16 18198053884509642056
6823239 73 17560802074297562159
70251023 43 17988374727526698961

> <PUBCHEM_SHAPE_MULTIPOLES>
617.46
11.1
4.26
2.51
16.98
0.99
-1.65
3.7
-7.69
-3.48
2.06
-3.18
1.43
-0.89

> <PUBCHEM_SHAPE_SELFOVERLAP>
1349.734

> <PUBCHEM_SHAPE_VOLUME>
333.9

> <PUBCHEM_COORDINATE_TYPE>
2
5
10

$$$$
