13255596
  -OEChem-03292013303D

 47 48  0     1  0  0  0  0  0999 V2000
    3.4644    1.4986   -1.0989 P   0  0  2  0  0  0  0  0  0  0  0  0
   -0.7759    2.0292   -0.6167 O   0  0  0  0  0  0  0  0  0  0  0  0
   -1.4932    4.1211    1.6021 O   0  0  0  0  0  0  0  0  0  0  0  0
   -0.9255    0.5846    2.0085 O   0  0  0  0  0  0  0  0  0  0  0  0
    1.9926    2.1449   -0.9053 O   0  0  0  0  0  0  0  0  0  0  0  0
    3.3600    0.0213   -0.4433 O   0  0  0  0  0  0  0  0  0  0  0  0
   -4.6291    0.7365   -0.1230 O   0  0  0  0  0  0  0  0  0  0  0  0
    4.3926    2.3023   -0.0443 O   0  0  0  0  0  0  0  0  0  0  0  0
    3.9792    1.5210   -2.5096 O   0  0  0  0  0  0  0  0  0  0  0  0
    1.1395   -3.4348    2.6544 O   0  0  0  0  0  0  0  0  0  0  0  0
    2.5095   -4.5699    1.2431 O   0  0  0  0  0  0  0  0  0  0  0  0
   -2.3690    0.3301   -0.3547 N   0  0  0  0  0  0  0  0  0  0  0  0
   -4.0505   -1.3309   -0.8597 N   0  0  0  0  0  0  0  0  0  0  0  0
   -3.4508   -3.4479   -1.6125 N   0  0  0  0  0  0  0  0  0  0  0  0
   -0.7174    2.9248    1.5983 C   0  0  1  0  0  0  0  0  0  0  0  0
   -1.6448    1.7282    1.5621 C   0  0  1  0  0  0  0  0  0  0  0  0
    0.0287    2.8385    0.2657 C   0  0  1  0  0  0  0  0  0  0  0  0
   -1.9659    1.6344    0.0786 C   0  0  1  0  0  0  0  0  0  0  0  0
    1.3976    2.1828    0.3803 C   0  0  0  0  0  0  0  0  0  0  0  0
   -1.3914   -0.5899   -0.7096 C   0  0  0  0  0  0  0  0  0  0  0  0
   -3.7344   -0.0528   -0.4317 C   0  0  0  0  0  0  0  0  0  0  0  0
   -1.6747   -1.8238   -1.1224 C   0  0  0  0  0  0  0  0  0  0  0  0
   -3.1153   -2.1826   -1.1898 C   0  0  0  0  0  0  0  0  0  0  0  0
    2.8989   -1.0458   -1.2541 C   0  0  0  0  0  0  0  0  0  0  0  0
    2.8769   -2.3390   -0.4492 C   0  0  0  0  0  0  0  0  0  0  0  0
    1.9721   -2.2408    0.7804 C   0  0  0  0  0  0  0  0  0  0  0  0
    1.9259   -3.5401    1.5513 C   0  0  0  0  0  0  0  0  0  0  0  0
   -0.0495    2.9460    2.4650 H   0  0  0  0  0  0  0  0  0  0  0  0
   -2.5504    1.8347    2.1673 H   0  0  0  0  0  0  0  0  0  0  0  0
    0.1313    3.8184   -0.2149 H   0  0  0  0  0  0  0  0  0  0  0  0
   -2.7428    2.3641   -0.1815 H   0  0  0  0  0  0  0  0  0  0  0  0
    1.3139    1.1563    0.7486 H   0  0  0  0  0  0  0  0  0  0  0  0
    2.0380    2.7541    1.0595 H   0  0  0  0  0  0  0  0  0  0  0  0
   -0.8729    4.8700    1.5920 H   0  0  0  0  0  0  0  0  0  0  0  0
   -0.7031    0.7268    2.9444 H   0  0  0  0  0  0  0  0  0  0  0  0
   -0.3565   -0.2805   -0.6332 H   0  0  0  0  0  0  0  0  0  0  0  0
   -0.9160   -2.5447   -1.3960 H   0  0  0  0  0  0  0  0  0  0  0  0
    1.8984   -0.8059   -1.6279 H   0  0  0  0  0  0  0  0  0  0  0  0
    3.5704   -1.1594   -2.1113 H   0  0  0  0  0  0  0  0  0  0  0  0
    2.5484   -3.1620   -1.0946 H   0  0  0  0  0  0  0  0  0  0  0  0
    3.8960   -2.5746   -0.1177 H   0  0  0  0  0  0  0  0  0  0  0  0
    5.3649    2.1775   -0.0779 H   0  0  0  0  0  0  0  0  0  0  0  0
    0.9519   -1.9982    0.4743 H   0  0  0  0  0  0  0  0  0  0  0  0
    2.3370   -1.4611    1.4576 H   0  0  0  0  0  0  0  0  0  0  0  0
   -2.7483   -4.1315   -1.8745 H   0  0  0  0  0  0  0  0  0  0  0  0
   -4.4215   -3.7361   -1.6732 H   0  0  0  0  0  0  0  0  0  0  0  0
    1.1036   -4.2751    3.1591 H   0  0  0  0  0  0  0  0  0  0  0  0
  1  5  1  0  0  0  0
  1  6  1  0  0  0  0
  1  8  1  0  0  0  0
  1  9  2  0  0  0  0
  2 17  1  0  0  0  0
  2 18  1  0  0  0  0
  3 15  1  0  0  0  0
  3 34  1  0  0  0  0
  4 16  1  0  0  0  0
  4 35  1  0  0  0  0
  5 19  1  0  0  0  0
  6 24  1  0  0  0  0
  7 21  2  0  0  0  0
  8 42  1  0  0  0  0
 10 27  1  0  0  0  0
 10 47  1  0  0  0  0
 11 27  2  0  0  0  0
 12 18  1  0  0  0  0
 12 20  1  0  0  0  0
 12 21  1  0  0  0  0
 13 21  1  0  0  0  0
 13 23  2  0  0  0  0
 14 23  1  0  0  0  0
 14 45  1  0  0  0  0
 14 46  1  0  0  0  0
 15 16  1  0  0  0  0
 15 17  1  0  0  0  0
 15 28  1  0  0  0  0
 16 18  1  0  0  0  0
 16 29  1  0  0  0  0
 17 19  1  0  0  0  0
 17 30  1  0  0  0  0
 18 31  1  0  0  0  0
 19 32  1  0  0  0  0
 19 33  1  0  0  0  0
 20 22  2  0  0  0  0
 20 36  1  0  0  0  0
 22 23  1  0  0  0  0
 22 37  1  0  0  0  0
 24 25  1  0  0  0  0
 24 38  1  0  0  0  0
 24 39  1  0  0  0  0
 25 26  1  0  0  0  0
 25 40  1  0  0  0  0
 25 41  1  0  0  0  0
 26 27  1  0  0  0  0
 26 43  1  0  0  0  0
 26 44  1  0  0  0  0
M  END
> <PUBCHEM_COMPOUND_CID>
13255596

> <PUBCHEM_CONFORMER_RMSD>
1

> <PUBCHEM_CONFORMER_DIVERSEORDER>
1
38
26
30
175
106
139
155
156
169
163
173
69
5
127
151
90
177
158
148
92
124
133
179
168
130
129
83
61
160
20
54
63
166
86
89
174
192
34
171
154
40
185
172
145
33
14
62
113
88
94
114
131
12
121
144
109
184
189
138
157
147
125
57
98
79
65
117
73
115
187
142
162
180
99
74
50
112
52
183
126
161
143
68
76
96
85
77
84
64
4
100
190
82
53
182
28
186
152
58
135
56
153
136
141
146
18
24
31
75
93
132
191
105
60
72
116
44
49
176
19
188
159
150
55
118
95
107
91
35
140
119
137
110
178
51
41
43
29
16
13
37
120
134
70
17
47
21
103
7
59
167
6
71
36
149
22
27
101
123
165
164
67
97
9
104
181
111
3
78
15
66
102
25
122
8
11
32
108
170
48
81
2
87
80
128
10
45
46
39
23
42

> <PUBCHEM_MMFF94_PARTIAL_CHARGES>
34
1 1.51
10 -0.65
11 -0.57
12 -0.47
13 -0.66
14 -0.85
15 0.28
16 0.28
17 0.28
18 0.58
19 0.28
2 -0.56
20 -0.04
21 0.84
22 -0.14
23 0.49
24 0.28
26 0.06
27 0.66
3 -0.68
34 0.4
35 0.4
36 0.15
37 0.15
4 -0.68
42 0.5
45 0.4
46 0.4
47 0.5
5 -0.55
6 -0.55
7 -0.57
8 -0.77
9 -0.7

> <PUBCHEM_EFFECTIVE_ROTOR_COUNT>
10

> <PUBCHEM_PHARMACOPHORE_FEATURES>
15
1 10 acceptor
1 11 acceptor
1 13 donor
1 14 donor
1 2 acceptor
1 3 acceptor
1 3 donor
1 4 acceptor
1 4 donor
1 7 acceptor
1 8 acceptor
1 9 acceptor
3 10 11 27 anion
5 2 15 16 17 18 rings
6 12 13 20 21 22 23 rings

> <PUBCHEM_HEAVY_ATOM_COUNT>
27

> <PUBCHEM_ATOM_DEF_STEREO_COUNT>
4

> <PUBCHEM_ATOM_UDEF_STEREO_COUNT>
0

> <PUBCHEM_BOND_DEF_STEREO_COUNT>
0

> <PUBCHEM_BOND_UDEF_STEREO_COUNT>
0

> <PUBCHEM_ISOTOPIC_ATOM_COUNT>
0

> <PUBCHEM_COMPONENT_COUNT>
1

> <PUBCHEM_CACTVS_TAUTO_COUNT>
3

> <PUBCHEM_CONFORMER_ID>
00CA43AC00000001

> <PUBCHEM_MMFF94_ENERGY>
43.2462

> <PUBCHEM_FEATURE_SELFOVERLAP>
76.244

> <PUBCHEM_SHAPE_FINGERPRINT>
114674 6 17693363852071252463
12539773 59 17766012596770583656
12788726 201 17987525822956726913
13032168 30 18199761400076318856
13583140 156 17463436926807926417
14114211 68 17969808391128341190
14117953 113 17114096664989044093
14725015 67 17617928579561442586
14931854 50 18267585895405129486
15403338 16 16017780226434981913
17138139 8 18124314063171212102
17909252 39 17845954974044929974
19319366 153 18335422412780624503
23559900 14 17987522498372543663
463206 1 18339642359771692539
7097593 13 17976262327094179150

> <PUBCHEM_SHAPE_MULTIPOLES>
485.86
7.4
5.68
2
0.19
2.45
0.64
1.66
-3.43
-1.83
2.65
-0.85
0.74
-3.99

> <PUBCHEM_SHAPE_SELFOVERLAP>
986.719

> <PUBCHEM_SHAPE_VOLUME>
282.8

> <PUBCHEM_COORDINATE_TYPE>
2
5
10

$$$$
