132516386
  -OEChem-03292013293D

 56 58  0     1  0  0  0  0  0999 V2000
    2.7526    0.8494   -0.5230 O   0  0  0  0  0  0  0  0  0  0  0  0
    1.3821   -0.9490    0.1802 O   0  0  0  0  0  0  0  0  0  0  0  0
   -2.0045    2.7683   -0.3549 O   0  0  0  0  0  0  0  0  0  0  0  0
    5.5515    0.5639   -1.7865 O   0  0  0  0  0  0  0  0  0  0  0  0
   -4.5472    2.8941   -0.5407 O   0  0  0  0  0  0  0  0  0  0  0  0
   -0.9179    0.7478   -0.0148 N   0  0  0  0  0  0  0  0  0  0  0  0
    5.5680    0.7221    0.5327 N   0  0  0  0  0  0  0  0  0  0  0  0
   -3.2784   -0.4812    0.0307 N   0  0  0  0  0  0  0  0  0  0  0  0
    0.4218    1.2779    0.0088 C   0  0  1  0  0  0  0  0  0  0  0  0
    3.1929    1.2125    0.7911 C   0  0  2  0  0  0  0  0  0  0  0  0
    0.8110    1.7295    1.4160 C   0  0  0  0  0  0  0  0  0  0  0  0
    2.2484    2.2405    1.4177 C   0  0  0  0  0  0  0  0  0  0  0  0
    1.4408    0.2765   -0.5469 C   0  0  1  0  0  0  0  0  0  0  0  0
    4.6034    1.7732    0.6665 C   0  0  0  0  0  0  0  0  0  0  0  0
   -2.0348    1.5505   -0.1975 C   0  0  0  0  0  0  0  0  0  0  0  0
    5.9709    0.1941   -0.6934 C   0  0  0  0  0  0  0  0  0  0  0  0
    6.9815   -0.9305   -0.5245 C   0  0  0  0  0  0  0  0  0  0  0  0
    6.4459   -2.1296    0.2724 C   0  0  0  0  0  0  0  0  0  0  0  0
   -3.3470    0.8546   -0.1704 C   0  0  0  0  0  0  0  0  0  0  0  0
    5.2241   -2.7509   -0.4094 C   0  0  0  0  0  0  0  0  0  0  0  0
    7.5411   -3.1864    0.4305 C   0  0  0  0  0  0  0  0  0  0  0  0
   -4.5255    1.5523   -0.3411 C   0  0  0  0  0  0  0  0  0  0  0  0
   -4.4291   -1.1795    0.0674 C   0  0  0  0  0  0  0  0  0  0  0  0
   -5.7097    0.8301   -0.3027 C   0  0  0  0  0  0  0  0  0  0  0  0
   -5.6838   -0.5558   -0.0967 C   0  0  0  0  0  0  0  0  0  0  0  0
   -4.4040   -2.5563    0.2721 C   0  0  0  0  0  0  0  0  0  0  0  0
   -6.8651   -1.3154   -0.0527 C   0  0  0  0  0  0  0  0  0  0  0  0
   -5.5783   -3.3118    0.3159 C   0  0  0  0  0  0  0  0  0  0  0  0
   -6.8106   -2.6910    0.1534 C   0  0  0  0  0  0  0  0  0  0  0  0
    0.4456    2.1682   -0.6346 H   0  0  0  0  0  0  0  0  0  0  0  0
    3.2145    0.3112    1.4182 H   0  0  0  0  0  0  0  0  0  0  0  0
    0.7127    0.8974    2.1250 H   0  0  0  0  0  0  0  0  0  0  0  0
    0.1370    2.5196    1.7679 H   0  0  0  0  0  0  0  0  0  0  0  0
    2.2851    3.1730    0.8398 H   0  0  0  0  0  0  0  0  0  0  0  0
    2.5592    2.4770    2.4415 H   0  0  0  0  0  0  0  0  0  0  0  0
    1.1959    0.0529   -1.5917 H   0  0  0  0  0  0  0  0  0  0  0  0
    4.8819    2.3285    1.5684 H   0  0  0  0  0  0  0  0  0  0  0  0
    4.6861    2.4441   -0.1960 H   0  0  0  0  0  0  0  0  0  0  0  0
   -1.0455   -0.2451    0.1600 H   0  0  0  0  0  0  0  0  0  0  0  0
    5.9877    0.3649    1.3855 H   0  0  0  0  0  0  0  0  0  0  0  0
    1.6976   -1.6498   -0.4151 H   0  0  0  0  0  0  0  0  0  0  0  0
    7.8647   -0.5111   -0.0265 H   0  0  0  0  0  0  0  0  0  0  0  0
    7.3003   -1.2479   -1.5250 H   0  0  0  0  0  0  0  0  0  0  0  0
    6.1449   -1.8083    1.2764 H   0  0  0  0  0  0  0  0  0  0  0  0
    4.3925   -2.0408   -0.4605 H   0  0  0  0  0  0  0  0  0  0  0  0
    8.4116   -2.7682    0.9468 H   0  0  0  0  0  0  0  0  0  0  0  0
    4.8726   -3.6258    0.1482 H   0  0  0  0  0  0  0  0  0  0  0  0
    7.1801   -4.0361    1.0196 H   0  0  0  0  0  0  0  0  0  0  0  0
    7.8730   -3.5652   -0.5423 H   0  0  0  0  0  0  0  0  0  0  0  0
    5.4592   -3.0732   -1.4295 H   0  0  0  0  0  0  0  0  0  0  0  0
   -6.6607    1.3428   -0.4331 H   0  0  0  0  0  0  0  0  0  0  0  0
   -3.4512   -3.0663    0.4022 H   0  0  0  0  0  0  0  0  0  0  0  0
   -7.8350   -0.8395   -0.1788 H   0  0  0  0  0  0  0  0  0  0  0  0
   -5.4701    3.1856   -0.6369 H   0  0  0  0  0  0  0  0  0  0  0  0
   -5.5264   -4.3846    0.4771 H   0  0  0  0  0  0  0  0  0  0  0  0
   -7.7254   -3.2747    0.1868 H   0  0  0  0  0  0  0  0  0  0  0  0
  1 10  1  0  0  0  0
  1 13  1  0  0  0  0
  2 13  1  0  0  0  0
  2 41  1  0  0  0  0
  3 15  2  0  0  0  0
  4 16  2  0  0  0  0
  5 22  1  0  0  0  0
  5 54  1  0  0  0  0
  6  9  1  0  0  0  0
  6 15  1  0  0  0  0
  6 39  1  0  0  0  0
  7 14  1  0  0  0  0
  7 16  1  0  0  0  0
  7 40  1  0  0  0  0
  8 19  2  0  0  0  0
  8 23  1  0  0  0  0
  9 11  1  0  0  0  0
  9 13  1  0  0  0  0
  9 30  1  0  0  0  0
 10 12  1  0  0  0  0
 10 14  1  0  0  0  0
 10 31  1  0  0  0  0
 11 12  1  0  0  0  0
 11 32  1  0  0  0  0
 11 33  1  0  0  0  0
 12 34  1  0  0  0  0
 12 35  1  0  0  0  0
 13 36  1  0  0  0  0
 14 37  1  0  0  0  0
 14 38  1  0  0  0  0
 15 19  1  0  0  0  0
 16 17  1  0  0  0  0
 17 18  1  0  0  0  0
 17 42  1  0  0  0  0
 17 43  1  0  0  0  0
 18 20  1  0  0  0  0
 18 21  1  0  0  0  0
 18 44  1  0  0  0  0
 19 22  1  0  0  0  0
 20 45  1  0  0  0  0
 20 47  1  0  0  0  0
 20 50  1  0  0  0  0
 21 46  1  0  0  0  0
 21 48  1  0  0  0  0
 21 49  1  0  0  0  0
 22 24  2  0  0  0  0
 23 25  1  0  0  0  0
 23 26  2  0  0  0  0
 24 25  1  0  0  0  0
 24 51  1  0  0  0  0
 25 27  2  0  0  0  0
 26 28  1  0  0  0  0
 26 52  1  0  0  0  0
 27 29  1  0  0  0  0
 27 53  1  0  0  0  0
 28 29  2  0  0  0  0
 28 55  1  0  0  0  0
 29 56  1  0  0  0  0
M  END
> <PUBCHEM_COMPOUND_CID>
132516386

> <PUBCHEM_CONFORMER_RMSD>
1.2

> <PUBCHEM_CONFORMER_DIVERSEORDER>
1
25
74
78
68
82
55
81
53
36
77
71
28
83
38
35
80
29
52
20
72
19
8
18
65
14
62
48
42
24
60
75
59
41
61
84
23
5
2
16
12
34
17
44
45
40
69
79
37
57
67
10
76
73
66
21
63
31
49
9
13
50
70
30
58
6
33
27
26
43
64
47
3
39
56
46
51
22
32
11
7
15
4
54

> <PUBCHEM_MMFF94_PARTIAL_CHARGES>
32
1 -0.56
10 0.28
13 0.56
14 0.3
15 0.54
16 0.57
17 0.06
19 0.4
2 -0.68
22 0.08
23 0.31
24 -0.15
26 -0.15
27 -0.15
28 -0.15
29 -0.15
3 -0.57
39 0.37
4 -0.57
40 0.37
41 0.4
5 -0.53
51 0.15
52 0.15
53 0.15
54 0.45
55 0.15
56 0.15
6 -0.73
7 -0.73
8 -0.62
9 0.3

> <PUBCHEM_EFFECTIVE_ROTOR_COUNT>
9.2

> <PUBCHEM_PHARMACOPHORE_FEATURES>
13
1 1 acceptor
1 2 acceptor
1 2 donor
1 3 acceptor
1 4 acceptor
1 5 donor
1 6 donor
1 7 donor
1 8 acceptor
3 18 20 21 hydrophobe
6 1 9 10 11 12 13 rings
6 23 25 26 27 28 29 rings
6 8 19 22 23 24 25 rings

> <PUBCHEM_HEAVY_ATOM_COUNT>
29

> <PUBCHEM_ATOM_DEF_STEREO_COUNT>
3

> <PUBCHEM_ATOM_UDEF_STEREO_COUNT>
0

> <PUBCHEM_BOND_DEF_STEREO_COUNT>
0

> <PUBCHEM_BOND_UDEF_STEREO_COUNT>
0

> <PUBCHEM_ISOTOPIC_ATOM_COUNT>
0

> <PUBCHEM_COMPONENT_COUNT>
1

> <PUBCHEM_CACTVS_TAUTO_COUNT>
18

> <PUBCHEM_CONFORMER_ID>
07E60A2200000001

> <PUBCHEM_MMFF94_ENERGY>
58.9209

> <PUBCHEM_FEATURE_SELFOVERLAP>
66.044

> <PUBCHEM_SHAPE_FINGERPRINT>
10209105 3 18336263548900444603
10319926 262 18341883083207632697
10730089 47 18409729543780006240
11135609 99 18341047433523888566
11524674 6 17060340747302135927
11801155 225 18339915013245676434
11963148 33 18337946891689429846
11991303 11 13984957241704037472
12166972 35 18334298699059881164
12661589 4 18336255817520832426
1361 4 18409731742845836686
13782708 43 18343016722328894681
14211702 104 18271814484356310286
14251764 30 18410854373733979812
14347332 77 18408886205155126196
14931854 50 17894899781352753243
15183329 4 16877940546982445106
15230672 131 18263075518641267939
15352257 5 18411420613553215534
15510800 12 17846227601367898726
18335252 98 18339924926466843888
18927931 339 18261954150483701731
19841028 212 18192147106730912490
20281389 69 10591774181127060431
21033650 10 17095799915814955917
21130935 74 18343020016563484506
21267235 1 18262802990650783089
21623969 137 17561371698566721964
21781051 124 18060431205432598678
2303208 19 18272934955002510416
23522609 53 18123223226998572240
23559900 14 18411130364459654513
23569943 247 18117274745023043410
3004659 81 17750508658744279213
394071 54 15913033345188100344
4046055 25 18187649064105453532
4073 2 18408324405878199201
4169191 19 8070027782938779502
439807 62 18410014333807117022
465052 167 18131070425085835844
484989 97 18341056238164621014
504843 32 12901556757673306209
5104073 3 17847063281101115888
5718773 13 18411980269219254554
59755656 215 18335418001954609003
8863177 126 18271524303074435642

> <PUBCHEM_SHAPE_MULTIPOLES>
552.52
22.66
3.78
0.96
10.59
2.04
-0.03
18.8
1.66
-0.71
-0.55
1.06
-0.36
1.26

> <PUBCHEM_SHAPE_SELFOVERLAP>
1167.87

> <PUBCHEM_SHAPE_VOLUME>
306.2

> <PUBCHEM_COORDINATE_TYPE>
2
5
10

$$$$
