132560
  -OEChem-03292013323D

 27 27  0     1  0  0  0  0  0999 V2000
   -0.8850   -1.1833   -0.1921 P   0  0  2  0  0  0  0  0  0  0  0  0
   -3.0768    0.7676    0.0180 P   0  0  0  0  0  0  0  0  0  0  0  0
    4.4654    0.1032   -0.4248 O   0  0  0  0  0  0  0  0  0  0  0  0
    0.7004   -0.9586    0.0413 O   0  0  0  0  0  0  0  0  0  0  0  0
   -1.5343    0.2864   -0.0133 O   0  0  0  0  0  0  0  0  0  0  0  0
   -1.3800   -1.9707    1.1317 O   0  0  0  0  0  0  0  0  0  0  0  0
   -1.2407   -1.8599   -1.4841 O   0  0  0  0  0  0  0  0  0  0  0  0
   -3.5875    0.4592   -1.4842 O   0  0  0  0  0  0  0  0  0  0  0  0
   -2.9643    2.3795    0.0558 O   0  0  0  0  0  0  0  0  0  0  0  0
   -3.9013    0.1562    1.1121 O   0  0  0  0  0  0  0  0  0  0  0  0
    3.1824    0.5395    0.0200 C   0  0  1  0  0  0  0  0  0  0  0  0
    3.3524   -0.1523   -1.2913 C   0  0  0  0  0  0  0  0  0  0  0  0
    2.6802   -0.2410    1.1978 C   0  0  0  0  0  0  0  0  0  0  0  0
    3.0290    2.0038    0.0879 C   0  0  0  0  0  0  0  0  0  0  0  0
    1.1602   -0.3296    1.2251 C   0  0  0  0  0  0  0  0  0  0  0  0
    3.0368   -1.1822   -1.3984 H   0  0  0  0  0  0  0  0  0  0  0  0
    3.2839    0.4290   -2.2023 H   0  0  0  0  0  0  0  0  0  0  0  0
    3.0877   -1.2601    1.1659 H   0  0  0  0  0  0  0  0  0  0  0  0
    3.0394    0.2130    2.1288 H   0  0  0  0  0  0  0  0  0  0  0  0
    3.5478    2.5082   -0.7352 H   0  0  0  0  0  0  0  0  0  0  0  0
    1.9742    2.2904    0.0305 H   0  0  0  0  0  0  0  0  0  0  0  0
    3.4389    2.4003    1.0229 H   0  0  0  0  0  0  0  0  0  0  0  0
    0.8427   -0.9173    2.0922 H   0  0  0  0  0  0  0  0  0  0  0  0
    0.7135    0.6666    1.3015 H   0  0  0  0  0  0  0  0  0  0  0  0
   -1.2271   -2.9376    1.1932 H   0  0  0  0  0  0  0  0  0  0  0  0
   -4.5358    0.5880   -1.6992 H   0  0  0  0  0  0  0  0  0  0  0  0
   -3.7828    2.9104    0.1586 H   0  0  0  0  0  0  0  0  0  0  0  0
  1  4  1  0  0  0  0
  1  5  1  0  0  0  0
  1  6  1  0  0  0  0
  1  7  2  0  0  0  0
  2  5  1  0  0  0  0
  2  8  1  0  0  0  0
  2  9  1  0  0  0  0
  2 10  2  0  0  0  0
  3 11  1  0  0  0  0
  3 12  1  0  0  0  0
  4 15  1  0  0  0  0
  6 25  1  0  0  0  0
  8 26  1  0  0  0  0
  9 27  1  0  0  0  0
 11 12  1  0  0  0  0
 11 13  1  0  0  0  0
 11 14  1  0  0  0  0
 12 16  1  0  0  0  0
 12 17  1  0  0  0  0
 13 15  1  0  0  0  0
 13 18  1  0  0  0  0
 13 19  1  0  0  0  0
 14 20  1  0  0  0  0
 14 21  1  0  0  0  0
 14 22  1  0  0  0  0
 15 23  1  0  0  0  0
 15 24  1  0  0  0  0
M  END
> <PUBCHEM_COMPOUND_CID>
132560

> <PUBCHEM_CONFORMER_RMSD>
0.8

> <PUBCHEM_CONFORMER_DIVERSEORDER>
1
79
36
73
55
14
70
12
42
49
23
28
15
71
58
65
34
8
78
29
3
44
64
74
13
51
60
63
33
38
22
80
27
26
50
39
31
18
75
35
59
41
7
54
53
77
24
5
45
69
72
11
25
30
66
68
4
16
43
46
47
52
57
32
67
37
56
10
6
40
20
62
76
61
48
9
21
19
2
17

> <PUBCHEM_MMFF94_PARTIAL_CHARGES>
20
1 1.51
10 -0.7
11 -0.04
12 -0.05
13 0.09
14 0.09
15 0.28
16 0.1
17 0.1
2 1.51
25 0.5
26 0.5
27 0.5
3 -0.3
4 -0.55
5 -0.54
6 -0.77
7 -0.7
8 -0.77
9 -0.77

> <PUBCHEM_EFFECTIVE_ROTOR_COUNT>
6.6

> <PUBCHEM_PHARMACOPHORE_FEATURES>
7
1 10 acceptor
1 3 acceptor
1 6 acceptor
1 7 acceptor
1 8 acceptor
1 9 acceptor
4 2 8 9 10 anion

> <PUBCHEM_HEAVY_ATOM_COUNT>
15

> <PUBCHEM_ATOM_DEF_STEREO_COUNT>
0

> <PUBCHEM_ATOM_UDEF_STEREO_COUNT>
1

> <PUBCHEM_BOND_DEF_STEREO_COUNT>
0

> <PUBCHEM_BOND_UDEF_STEREO_COUNT>
0

> <PUBCHEM_ISOTOPIC_ATOM_COUNT>
0

> <PUBCHEM_COMPONENT_COUNT>
1

> <PUBCHEM_CACTVS_TAUTO_COUNT>
1

> <PUBCHEM_CONFORMER_ID>
000205D000000001

> <PUBCHEM_MMFF94_ENERGY>
-31.3824

> <PUBCHEM_FEATURE_SELFOVERLAP>
35.571

> <PUBCHEM_SHAPE_FINGERPRINT>
12173636 292 18187363276363891867
122479 349 18409451388232734337
12932764 1 16370992045152899834
13693222 15 11530475653588066520
13705890 14 14764336163527258762
13764800 53 18187369864948959371
14123255 52 18260543428961015680
14123260 362 17894910745491182231
14251764 30 15768632357003487223
14289901 80 15864070953335171705
15775835 57 18040151825374543276
17834072 14 10879991324474204778
17834072 32 18337390427262927137
18186145 218 16917057833303281027
200 152 13686296876913359874
20233049 118 18335983086865452984
20279233 1 16917063399955572754
20281407 28 9223227455455086683
20645477 56 17988358277685845952
20645477 70 17060350600067719950
20653085 51 18271809055100708778
20671657 1 18336536106543236850
20671657 53 14333408956335635634
21069387 34 15195296304723436334
21524375 3 18335693893415559083
22485316 2 9295285032302712865
22959321 28 16370724811992129524
23402539 116 17417810604459261816
23557571 272 17699546332897712026
251288 83 12901558952648675128
7832392 63 18408602595616625108
81228 2 17627769131605378455
93112 12 18131069376696895828
9882013 296 14634874166682658504

> <PUBCHEM_SHAPE_MULTIPOLES>
269.44
7.91
1.88
1.32
0.57
0.4
-0.12
3.22
-0.97
-0.95
-0.04
-0.11
-0.39
0.03

> <PUBCHEM_SHAPE_SELFOVERLAP>
497.318

> <PUBCHEM_SHAPE_VOLUME>
171.8

> <PUBCHEM_COORDINATE_TYPE>
2
5
10

$$$$
