132576240
  -OEChem-03292013293D

 53 55  0     1  0  0  0  0  0999 V2000
   -2.4168   -0.1391   -0.7555 O   0  0  0  0  0  0  0  0  0  0  0  0
    1.6663    1.5181    1.2666 O   0  0  0  0  0  0  0  0  0  0  0  0
   -3.3418   -1.9507    0.3168 O   0  0  0  0  0  0  0  0  0  0  0  0
    4.7399   -1.8765   -0.1676 O   0  0  0  0  0  0  0  0  0  0  0  0
    2.1758   -1.0588    0.3601 O   0  0  0  0  0  0  0  0  0  0  0  0
   -8.5555   -1.9034    0.2900 O   0  0  0  0  0  0  0  0  0  0  0  0
    6.2235   -3.4831   -0.8476 O   0  0  0  0  0  0  0  0  0  0  0  0
   -8.5434   -0.6629    2.2259 N   0  0  0  0  0  0  0  0  0  0  0  0
   -2.9313    0.9738   -1.4996 C   0  0  2  0  0  0  0  0  0  0  0  0
   -2.5190    2.2699   -0.8169 C   0  0  0  0  0  0  0  0  0  0  0  0
   -4.7126   -0.3544   -0.8219 C   0  0  0  0  0  0  0  0  0  0  0  0
   -4.3930    0.7510   -1.4903 C   0  0  0  0  0  0  0  0  0  0  0  0
   -6.0390   -0.9551   -0.5652 C   0  0  0  0  0  0  0  0  0  0  0  0
   -1.0181    2.4314   -0.7572 C   0  0  0  0  0  0  0  0  0  0  0  0
   -3.4504   -0.9306   -0.3419 C   0  0  0  0  0  0  0  0  0  0  0  0
   -6.6493   -0.4762    0.7545 C   0  0  0  0  0  0  0  0  0  0  0  0
   -0.3032    2.4943    0.3830 C   0  0  0  0  0  0  0  0  0  0  0  0
   -0.3252    2.4947   -2.0934 C   0  0  0  0  0  0  0  0  0  0  0  0
    1.1806    2.6270    0.5195 C   0  0  0  0  0  0  0  0  0  0  0  0
   -8.0025   -1.1004    1.0360 C   0  0  0  0  0  0  0  0  0  0  0  0
    2.9473    1.1102    1.0024 C   0  0  0  0  0  0  0  0  0  0  0  0
    3.2002   -0.1823    0.5480 C   0  0  0  0  0  0  0  0  0  0  0  0
    4.5158   -0.5623    0.2907 C   0  0  0  0  0  0  0  0  0  0  0  0
    5.5811    0.3150    0.4758 C   0  0  0  0  0  0  0  0  0  0  0  0
    4.0037    2.0038    1.1937 C   0  0  0  0  0  0  0  0  0  0  0  0
    5.3188    1.6090    0.9312 C   0  0  0  0  0  0  0  0  0  0  0  0
    6.9281   -0.1477    0.1879 C   0  0  0  0  0  0  0  0  0  0  0  0
    7.1320   -1.3942   -0.2455 C   0  0  0  0  0  0  0  0  0  0  0  0
    6.0203   -2.3415   -0.4490 C   0  0  0  0  0  0  0  0  0  0  0  0
    1.5675   -1.0789   -0.9305 C   0  0  0  0  0  0  0  0  0  0  0  0
   -2.5497    0.9107   -2.5247 H   0  0  0  0  0  0  0  0  0  0  0  0
   -2.9515    3.1314   -1.3414 H   0  0  0  0  0  0  0  0  0  0  0  0
   -2.9221    2.2943    0.2049 H   0  0  0  0  0  0  0  0  0  0  0  0
   -5.1076    1.4028   -1.9726 H   0  0  0  0  0  0  0  0  0  0  0  0
   -6.7206   -0.7053   -1.3889 H   0  0  0  0  0  0  0  0  0  0  0  0
   -5.9606   -2.0495   -0.5697 H   0  0  0  0  0  0  0  0  0  0  0  0
   -6.7737    0.6139    0.7391 H   0  0  0  0  0  0  0  0  0  0  0  0
   -5.9822   -0.7235    1.5898 H   0  0  0  0  0  0  0  0  0  0  0  0
   -0.8469    2.4401    1.3250 H   0  0  0  0  0  0  0  0  0  0  0  0
   -0.0757    1.4906   -2.4481 H   0  0  0  0  0  0  0  0  0  0  0  0
   -0.9843    2.9576   -2.8373 H   0  0  0  0  0  0  0  0  0  0  0  0
    0.5776    3.1097   -2.0905 H   0  0  0  0  0  0  0  0  0  0  0  0
    1.3994    3.5453    1.0766 H   0  0  0  0  0  0  0  0  0  0  0  0
    1.6967    2.6885   -0.4420 H   0  0  0  0  0  0  0  0  0  0  0  0
    3.8186    3.0118    1.5558 H   0  0  0  0  0  0  0  0  0  0  0  0
    6.1267    2.3192    1.0883 H   0  0  0  0  0  0  0  0  0  0  0  0
    7.7604    0.5326    0.3305 H   0  0  0  0  0  0  0  0  0  0  0  0
   -8.0671    0.0024    2.8266 H   0  0  0  0  0  0  0  0  0  0  0  0
   -9.4474   -0.9976    2.5425 H   0  0  0  0  0  0  0  0  0  0  0  0
    8.1344   -1.7469   -0.4623 H   0  0  0  0  0  0  0  0  0  0  0  0
    0.6843   -1.7218   -0.8835 H   0  0  0  0  0  0  0  0  0  0  0  0
    1.2545   -0.0755   -1.2296 H   0  0  0  0  0  0  0  0  0  0  0  0
    2.2620   -1.4893   -1.6699 H   0  0  0  0  0  0  0  0  0  0  0  0
  1  9  1  0  0  0  0
  1 15  1  0  0  0  0
  2 19  1  0  0  0  0
  2 21  1  0  0  0  0
  3 15  2  0  0  0  0
  4 23  1  0  0  0  0
  4 29  1  0  0  0  0
  5 22  1  0  0  0  0
  5 30  1  0  0  0  0
  6 20  2  0  0  0  0
  7 29  2  0  0  0  0
  8 20  1  0  0  0  0
  8 48  1  0  0  0  0
  8 49  1  0  0  0  0
  9 10  1  0  0  0  0
  9 12  1  0  0  0  0
  9 31  1  0  0  0  0
 10 14  1  0  0  0  0
 10 32  1  0  0  0  0
 10 33  1  0  0  0  0
 11 12  2  0  0  0  0
 11 13  1  0  0  0  0
 11 15  1  0  0  0  0
 12 34  1  0  0  0  0
 13 16  1  0  0  0  0
 13 35  1  0  0  0  0
 13 36  1  0  0  0  0
 14 17  2  0  0  0  0
 14 18  1  0  0  0  0
 16 20  1  0  0  0  0
 16 37  1  0  0  0  0
 16 38  1  0  0  0  0
 17 19  1  0  0  0  0
 17 39  1  0  0  0  0
 18 40  1  0  0  0  0
 18 41  1  0  0  0  0
 18 42  1  0  0  0  0
 19 43  1  0  0  0  0
 19 44  1  0  0  0  0
 21 22  2  0  0  0  0
 21 25  1  0  0  0  0
 22 23  1  0  0  0  0
 23 24  2  0  0  0  0
 24 26  1  0  0  0  0
 24 27  1  0  0  0  0
 25 26  2  0  0  0  0
 25 45  1  0  0  0  0
 26 46  1  0  0  0  0
 27 28  2  0  0  0  0
 27 47  1  0  0  0  0
 28 29  1  0  0  0  0
 28 50  1  0  0  0  0
 30 51  1  0  0  0  0
 30 52  1  0  0  0  0
 30 53  1  0  0  0  0
M  END
> <PUBCHEM_COMPOUND_CID>
132576240

> <PUBCHEM_CONFORMER_RMSD>
1.2

> <PUBCHEM_CONFORMER_DIVERSEORDER>
1
4
74
93
7
31
80
55
40
105
91
36
116
2
56
130
25
96
57
52
47
111
3
67
64
90
73
69
112
22
29
76
94
92
10
95
5
37
109
79
43
114
123
119
34
62
38
11
115
101
125
104
75
13
113
53
63
19
21
70
45
14
44
15
82
8
84
117
102
106
17
122
41
97
99
20
28
49
68
35
126
124
59
110
87
58
77
42
27
78
83
108
9
16
12
6
26
60
88
81
18
128
32
98
51
120
48
85
121
129
24
39
46
54
61
89
23
33
118
100
127
107
30
50
103
66
71
65
131
86
72

> <PUBCHEM_MMFF94_PARTIAL_CHARGES>
38
1 -0.43
10 0.14
11 -0.12
12 -0.29
13 0.14
14 -0.28
15 0.71
16 0.06
17 -0.29
18 0.14
19 0.42
2 -0.36
20 0.57
21 0.08
22 0.08
23 0.08
24 0.03
25 -0.15
26 -0.15
27 -0.18
28 -0.14
29 0.71
3 -0.57
30 0.28
34 0.15
39 0.15
4 -0.23
45 0.15
46 0.15
47 0.15
48 0.37
49 0.37
5 -0.36
50 0.15
6 -0.57
7 -0.57
8 -0.8
9 0.42

> <PUBCHEM_EFFECTIVE_ROTOR_COUNT>
9.4

> <PUBCHEM_PHARMACOPHORE_FEATURES>
10
1 18 hydrophobe
1 2 acceptor
1 3 acceptor
1 5 acceptor
1 6 acceptor
1 7 acceptor
1 8 donor
5 1 9 11 12 15 rings
6 21 22 23 24 25 26 rings
6 4 23 24 27 28 29 rings

> <PUBCHEM_HEAVY_ATOM_COUNT>
30

> <PUBCHEM_ATOM_DEF_STEREO_COUNT>
1

> <PUBCHEM_ATOM_UDEF_STEREO_COUNT>
0

> <PUBCHEM_BOND_DEF_STEREO_COUNT>
1

> <PUBCHEM_BOND_UDEF_STEREO_COUNT>
0

> <PUBCHEM_ISOTOPIC_ATOM_COUNT>
0

> <PUBCHEM_COMPONENT_COUNT>
1

> <PUBCHEM_CACTVS_TAUTO_COUNT>
3

> <PUBCHEM_CONFORMER_ID>
07E6F3F000000001

> <PUBCHEM_MMFF94_ENERGY>
81.7786

> <PUBCHEM_FEATURE_SELFOVERLAP>
50.78

> <PUBCHEM_SHAPE_FINGERPRINT>
11374522 101 12175321644658485474
11408170 108 18411980304850643799
117089 54 17842845413422949070
12778500 126 14979964665884297724
13402501 40 18410847772163199335
13673619 4 18187079577190402781
13685833 64 18335418002291985209
13782708 43 18264197025097104166
14341114 176 18412820300445107780
15064986 96 17417536808920798965
15142383 8 12751239212257767384
15510800 12 17895202134038395947
18335252 98 18410572886663248772
18608769 82 17968097555757880211
20511986 3 12035743015757477964
21267235 1 18410011039540781788
21344244 181 18333732424965043866
221357 26 18341322328256597852
22149856 69 18272933825874673952
22393880 68 18118671137917663580
23559900 14 18338220601359676476
2747138 104 18113339734725094457
329604 57 18341889650745306524
3383291 50 17894914062071553283
404807 78 16950573219618736211
437815 12 18114183081903505793
439807 62 18338513045814151676
46194498 28 17894903070701830868
484989 97 18341049598350799422
9555976 147 17273994600428429515
999808 66 18407761435167177507

> <PUBCHEM_SHAPE_MULTIPOLES>
571.32
23.53
3.16
1.47
23.97
0.31
0.03
-18.88
-7.07
-2.67
0.56
1.77
0.5
3.31

> <PUBCHEM_SHAPE_SELFOVERLAP>
1215.057

> <PUBCHEM_SHAPE_VOLUME>
317.9

> <PUBCHEM_COORDINATE_TYPE>
2
5
10

$$$$
