132574801
  -OEChem-03292013293D

 50 50  0     1  0  0  0  0  0999 V2000
    0.3405    0.2767   -0.2261 O   0  0  0  0  0  0  0  0  0  0  0  0
   -2.2298   -1.0731    0.3088 O   0  0  0  0  0  0  0  0  0  0  0  0
    1.0291   -1.9435   -1.7080 O   0  0  0  0  0  0  0  0  0  0  0  0
    2.0897   -3.4561   -0.3049 O   0  0  0  0  0  0  0  0  0  0  0  0
   -4.7078    3.9991   -0.2426 O   0  0  0  0  0  0  0  0  0  0  0  0
    5.8708    1.7239    1.4246 O   0  0  0  0  0  0  0  0  0  0  0  0
   -3.4000    3.2538   -1.9485 O   0  0  0  0  0  0  0  0  0  0  0  0
    4.4795    3.1911    0.3818 O   0  0  0  0  0  0  0  0  0  0  0  0
   -0.3285    0.2746    1.0490 C   0  0  2  0  0  0  0  0  0  0  0  0
   -1.8624    0.2182    0.8191 C   0  0  1  0  0  0  0  0  0  0  0  0
    1.7121   -0.1577   -0.2085 C   0  0  1  0  0  0  0  0  0  0  0  0
    2.0122   -0.8977   -1.5373 C   0  0  2  0  0  0  0  0  0  0  0  0
   -2.5570   -2.0397    1.3234 C   0  0  2  0  0  0  0  0  0  0  0  0
    0.0617    1.5048    1.8684 C   0  0  0  0  0  0  0  0  0  0  0  0
   -2.2126   -3.4421    0.7861 C   0  0  0  0  0  0  0  0  0  0  0  0
   -2.3631    1.2393   -0.1553 C   0  0  0  0  0  0  0  0  0  0  0  0
    1.8893   -0.0119   -2.7770 C   0  0  0  0  0  0  0  0  0  0  0  0
    2.6294    1.0094   -0.0260 C   0  0  0  0  0  0  0  0  0  0  0  0
   -4.0466   -1.9440    1.6395 C   0  0  0  0  0  0  0  0  0  0  0  0
   -0.7424   -3.5003    0.4853 C   0  0  0  0  0  0  0  0  0  0  0  0
   -3.2817    2.1641    0.1557 C   0  0  0  0  0  0  0  0  0  0  0  0
    1.1198   -3.0415   -0.9142 C   0  0  0  0  0  0  0  0  0  0  0  0
   -0.2684   -3.5104   -0.7674 C   0  0  0  0  0  0  0  0  0  0  0  0
    3.8171    0.9223    0.5883 C   0  0  0  0  0  0  0  0  0  0  0  0
   -3.7862    3.1780   -0.7911 C   0  0  0  0  0  0  0  0  0  0  0  0
    4.7351    2.0628    0.7768 C   0  0  0  0  0  0  0  0  0  0  0  0
   -0.0374   -0.6284    1.5985 H   0  0  0  0  0  0  0  0  0  0  0  0
   -2.3623    0.3677    1.7854 H   0  0  0  0  0  0  0  0  0  0  0  0
    1.8423   -0.8725    0.6136 H   0  0  0  0  0  0  0  0  0  0  0  0
    3.0156   -1.3421   -1.5200 H   0  0  0  0  0  0  0  0  0  0  0  0
   -1.9749   -1.8502    2.2347 H   0  0  0  0  0  0  0  0  0  0  0  0
   -0.0316    2.4224    1.2781 H   0  0  0  0  0  0  0  0  0  0  0  0
    1.1026    1.4407    2.1981 H   0  0  0  0  0  0  0  0  0  0  0  0
   -0.5571    1.5962    2.7668 H   0  0  0  0  0  0  0  0  0  0  0  0
   -2.7953   -3.6502   -0.1199 H   0  0  0  0  0  0  0  0  0  0  0  0
   -2.4617   -4.2112    1.5255 H   0  0  0  0  0  0  0  0  0  0  0  0
   -1.9612    1.2029   -1.1650 H   0  0  0  0  0  0  0  0  0  0  0  0
    0.8911    0.4335   -2.8508 H   0  0  0  0  0  0  0  0  0  0  0  0
    2.0280   -0.6122   -3.6834 H   0  0  0  0  0  0  0  0  0  0  0  0
    2.6343    0.7886   -2.7837 H   0  0  0  0  0  0  0  0  0  0  0  0
    2.3063    1.9634   -0.4362 H   0  0  0  0  0  0  0  0  0  0  0  0
   -4.6479   -2.0884    0.7351 H   0  0  0  0  0  0  0  0  0  0  0  0
   -4.3013   -0.9531    2.0291 H   0  0  0  0  0  0  0  0  0  0  0  0
   -4.3426   -2.6917    2.3816 H   0  0  0  0  0  0  0  0  0  0  0  0
   -0.0714   -3.3598    1.3300 H   0  0  0  0  0  0  0  0  0  0  0  0
   -3.6955    2.2011    1.1597 H   0  0  0  0  0  0  0  0  0  0  0  0
   -0.9148   -3.5434   -1.6363 H   0  0  0  0  0  0  0  0  0  0  0  0
    4.1488   -0.0321    0.9881 H   0  0  0  0  0  0  0  0  0  0  0  0
   -5.0336    4.6670   -0.8830 H   0  0  0  0  0  0  0  0  0  0  0  0
    6.4706    2.4912    1.5425 H   0  0  0  0  0  0  0  0  0  0  0  0
  1  9  1  0  0  0  0
  1 11  1  0  0  0  0
  2 10  1  0  0  0  0
  2 13  1  0  0  0  0
  3 12  1  0  0  0  0
  3 22  1  0  0  0  0
  4 22  2  0  0  0  0
  5 25  1  0  0  0  0
  5 49  1  0  0  0  0
  6 26  1  0  0  0  0
  6 50  1  0  0  0  0
  7 25  2  0  0  0  0
  8 26  2  0  0  0  0
  9 10  1  0  0  0  0
  9 14  1  0  0  0  0
  9 27  1  0  0  0  0
 10 16  1  0  0  0  0
 10 28  1  0  0  0  0
 11 12  1  0  0  0  0
 11 18  1  0  0  0  0
 11 29  1  0  0  0  0
 12 17  1  0  0  0  0
 12 30  1  0  0  0  0
 13 15  1  0  0  0  0
 13 19  1  0  0  0  0
 13 31  1  0  0  0  0
 14 32  1  0  0  0  0
 14 33  1  0  0  0  0
 14 34  1  0  0  0  0
 15 20  1  0  0  0  0
 15 35  1  0  0  0  0
 15 36  1  0  0  0  0
 16 21  2  0  0  0  0
 16 37  1  0  0  0  0
 17 38  1  0  0  0  0
 17 39  1  0  0  0  0
 17 40  1  0  0  0  0
 18 24  2  0  0  0  0
 18 41  1  0  0  0  0
 19 42  1  0  0  0  0
 19 43  1  0  0  0  0
 19 44  1  0  0  0  0
 20 23  2  0  0  0  0
 20 45  1  0  0  0  0
 21 25  1  0  0  0  0
 21 46  1  0  0  0  0
 22 23  1  0  0  0  0
 23 47  1  0  0  0  0
 24 26  1  0  0  0  0
 24 48  1  0  0  0  0
M  END
> <PUBCHEM_COMPOUND_CID>
132574801

> <PUBCHEM_CONFORMER_RMSD>
0.8

> <PUBCHEM_CONFORMER_DIVERSEORDER>
1
64
283
37
243
228
251
232
197
226
124
179
139
152
146
188
112
73
358
220
328
134
241
66
122
324
52
348
306
344
39
89
187
129
7
191
276
332
203
237
336
204
72
313
212
161
266
339
113
162
198
36
184
337
319
268
183
269
293
255
224
359
351
141
30
333
126
107
199
345
38
213
105
274
217
210
327
194
201
61
304
231
310
200
58
318
143
132
282
242
10
340
82
123
138
208
196
186
98
211
128
182
300
76
53
321
235
78
91
244
346
279
137
84
252
175
207
317
68
57
360
355
271
81
88
214
216
65
323
22
299
292
17
108
225
28
222
302
341
117
144
259
189
47
301
156
55
334
254
75
9
272
330
202
193
294
338
219
286
14
150
16
163
176
290
238
69
115
262
86
357
361
101
159
120
171
110
97
256
20
119
54
148
94
305
12
287
160
147
315
118
21
74
295
356
13
50
185
49
170
298
311
248
6
155
326
250
103
127
350
32
206
8
261
33
178
364
353
264
362
142
111
26
99
164
303
125
278
180
230
205
102
31
80
246
190
11
240
45
109
4
100
297
174
215
145
354
257
285
167
34
173
77
41
218
116
121
192
277
59
25
19
85
166
104
247
234
48
221
42
27
291
165
168
352
363
136
71
56
177
70
270
131
229
43
288
320
331
83
309
227
325
140
149
233
153
135
96
312
62
209
236
329
172
249
106
79
335
35
29
169
265
44
51
60
5
93
258
281
63
263
273
267
296
280
307
114
322
151
308
158
154
195
23
46
245
157
275
24
87
314
347
18
130
67
40
349
15
3
316
342
239
2
95
343
284
253
260
289
181
90
223
133
92

> <PUBCHEM_MMFF94_PARTIAL_CHARGES>
31
1 -0.56
10 0.42
11 0.42
12 0.28
13 0.28
15 0.14
16 -0.29
18 -0.29
2 -0.56
20 -0.29
21 -0.14
22 0.71
23 -0.14
24 -0.14
25 0.71
26 0.71
3 -0.43
37 0.15
4 -0.57
41 0.15
45 0.15
46 0.15
47 0.15
48 0.15
49 0.5
5 -0.65
50 0.5
6 -0.65
7 -0.57
8 -0.57
9 0.28

> <PUBCHEM_EFFECTIVE_ROTOR_COUNT>
5.8

> <PUBCHEM_PHARMACOPHORE_FEATURES>
9
1 1 acceptor
1 2 acceptor
1 4 acceptor
1 5 acceptor
1 6 acceptor
1 7 acceptor
1 8 acceptor
3 5 7 25 anion
3 6 8 26 anion

> <PUBCHEM_HEAVY_ATOM_COUNT>
26

> <PUBCHEM_ATOM_DEF_STEREO_COUNT>
0

> <PUBCHEM_ATOM_UDEF_STEREO_COUNT>
5

> <PUBCHEM_BOND_DEF_STEREO_COUNT>
3

> <PUBCHEM_BOND_UDEF_STEREO_COUNT>
0

> <PUBCHEM_ISOTOPIC_ATOM_COUNT>
0

> <PUBCHEM_COMPONENT_COUNT>
1

> <PUBCHEM_CACTVS_TAUTO_COUNT>
1

> <PUBCHEM_CONFORMER_ID>
07E6EE5100000001

> <PUBCHEM_MMFF94_ENERGY>
66.8151

> <PUBCHEM_FEATURE_SELFOVERLAP>
45.793

> <PUBCHEM_SHAPE_FINGERPRINT>
11578080 2 18339095790792201429
11595378 159 17973167519953223044
12597179 24 18337663118693576132
12788726 201 17751946823894826265
12930653 34 18409729581812388606
13140716 1 18197516042365425003
14178342 30 18186809092448913839
17876694 64 17607243448474239876
17980427 23 17603589664098562716
17980427 26 17978208484044730189
20600515 1 17764890368960713959
22182313 1 18272105906276448148
23559900 14 18125718985517773122
4409770 3 18267854167546739771
495365 180 18119534223794628317
7399639 24 18338812190338935697
9862522 239 17915460712804976758
9981440 41 18341038666556172993

> <PUBCHEM_SHAPE_MULTIPOLES>
488.11
8.57
5.63
1.86
6.58
0.52
0.78
-9.48
-2.77
-4.96
1.05
0.42
-0.17
3.79

> <PUBCHEM_SHAPE_SELFOVERLAP>
979.118

> <PUBCHEM_SHAPE_VOLUME>
283.5

> <PUBCHEM_COORDINATE_TYPE>
2
5
10

$$$$
