132519288
  -OEChem-03292013293D

 60 63  0     1  0  0  0  0  0999 V2000
    0.7740   -0.4126   -0.9823 O   0  0  0  0  0  0  0  0  0  0  0  0
   -3.4043    2.8449   -1.2279 O   0  0  0  0  0  0  0  0  0  0  0  0
   -1.6556    1.2797    2.0988 O   0  0  0  0  0  0  0  0  0  0  0  0
    0.3291   -4.1907    1.2702 O   0  0  0  0  0  0  0  0  0  0  0  0
   -2.3824    2.9023   -3.2885 O   0  0  0  0  0  0  0  0  0  0  0  0
    2.0507   -0.9167   -2.8303 O   0  0  0  0  0  0  0  0  0  0  0  0
    0.2647    1.6746    3.3210 O   0  0  0  0  0  0  0  0  0  0  0  0
    6.2905    1.3176    1.3921 O   0  0  0  0  0  0  0  0  0  0  0  0
   -1.4556   -1.4010   -0.6555 C   0  0  2  0  0  0  0  0  0  0  0  0
   -2.0053   -0.2885    0.3309 C   0  0  2  0  0  0  0  0  0  0  0  0
   -1.1325   -2.7982   -0.0075 C   0  0  2  0  0  0  0  0  0  0  0  0
   -3.2092   -0.8846    1.0976 C   0  0  0  0  0  0  0  0  0  0  0  0
   -0.4003   -0.8456   -1.6563 C   0  0  1  0  0  0  0  0  0  0  0  0
   -2.3458   -3.2476    0.8511 C   0  0  0  0  0  0  0  0  0  0  0  0
   -2.4284    0.8975   -0.5164 C   0  0  0  0  0  0  0  0  0  0  0  0
   -2.8643   -2.1875    1.8168 C   0  0  0  0  0  0  0  0  0  0  0  0
   -0.9959    0.2836    1.3498 C   0  0  0  0  0  0  0  0  0  0  0  0
   -0.9736    0.3180   -2.4952 C   0  0  0  0  0  0  0  0  0  0  0  0
   -1.9541    1.1363   -1.7380 C   0  0  0  0  0  0  0  0  0  0  0  0
    0.1549   -2.8596    0.8327 C   0  0  0  0  0  0  0  0  0  0  0  0
   -0.9626   -3.8635   -1.1244 C   0  0  0  0  0  0  0  0  0  0  0  0
   -3.3725    1.9561   -0.1023 C   0  0  0  0  0  0  0  0  0  0  0  0
   -2.5749    2.3758   -2.2066 C   0  0  0  0  0  0  0  0  0  0  0  0
    1.9355   -0.5024   -1.6874 C   0  0  0  0  0  0  0  0  0  0  0  0
   -0.9087    1.9077    3.0641 C   0  0  0  0  0  0  0  0  0  0  0  0
    3.0823   -0.0220   -0.8758 C   0  0  0  0  0  0  0  0  0  0  0  0
   -1.7354    2.9354    3.7755 C   0  0  0  0  0  0  0  0  0  0  0  0
    4.1842    0.5607   -1.5020 C   0  0  0  0  0  0  0  0  0  0  0  0
    3.0585   -0.1544    0.5125 C   0  0  0  0  0  0  0  0  0  0  0  0
    5.2622    1.0108   -0.7398 C   0  0  0  0  0  0  0  0  0  0  0  0
    4.1365    0.2956    1.2748 C   0  0  0  0  0  0  0  0  0  0  0  0
    5.2383    0.8782    0.6485 C   0  0  0  0  0  0  0  0  0  0  0  0
   -2.3214   -1.6305   -1.3043 H   0  0  0  0  0  0  0  0  0  0  0  0
   -4.0291   -1.0852    0.3934 H   0  0  0  0  0  0  0  0  0  0  0  0
   -3.6183   -0.1772    1.8293 H   0  0  0  0  0  0  0  0  0  0  0  0
   -0.1440   -1.6469   -2.3588 H   0  0  0  0  0  0  0  0  0  0  0  0
   -2.1240   -4.1630    1.4127 H   0  0  0  0  0  0  0  0  0  0  0  0
   -3.1747   -3.5130    0.1793 H   0  0  0  0  0  0  0  0  0  0  0  0
   -2.1355   -2.0112    2.6144 H   0  0  0  0  0  0  0  0  0  0  0  0
   -3.7671   -2.5688    2.3093 H   0  0  0  0  0  0  0  0  0  0  0  0
   -0.1357    0.7438    0.8554 H   0  0  0  0  0  0  0  0  0  0  0  0
   -0.6322   -0.4697    2.0447 H   0  0  0  0  0  0  0  0  0  0  0  0
   -1.4931   -0.1001   -3.3664 H   0  0  0  0  0  0  0  0  0  0  0  0
   -0.1685    0.9612   -2.8677 H   0  0  0  0  0  0  0  0  0  0  0  0
    0.1248   -2.2349    1.7207 H   0  0  0  0  0  0  0  0  0  0  0  0
    1.0328   -2.5937    0.2406 H   0  0  0  0  0  0  0  0  0  0  0  0
   -0.0179   -3.7411   -1.6649 H   0  0  0  0  0  0  0  0  0  0  0  0
   -1.7758   -3.8012   -1.8569 H   0  0  0  0  0  0  0  0  0  0  0  0
   -0.9789   -4.8844   -0.7251 H   0  0  0  0  0  0  0  0  0  0  0  0
   -4.3829    1.5714    0.0623 H   0  0  0  0  0  0  0  0  0  0  0  0
   -3.0579    2.5425    0.7605 H   0  0  0  0  0  0  0  0  0  0  0  0
    1.1528   -4.2203    1.7861 H   0  0  0  0  0  0  0  0  0  0  0  0
   -2.0501    3.7087    3.0704 H   0  0  0  0  0  0  0  0  0  0  0  0
   -1.1367    3.4016    4.5631 H   0  0  0  0  0  0  0  0  0  0  0  0
   -2.6038    2.4575    4.2357 H   0  0  0  0  0  0  0  0  0  0  0  0
    4.2168    0.6737   -2.5825 H   0  0  0  0  0  0  0  0  0  0  0  0
    2.2182   -0.6079    1.0294 H   0  0  0  0  0  0  0  0  0  0  0  0
    6.1175    1.4645   -1.2331 H   0  0  0  0  0  0  0  0  0  0  0  0
    4.1061    0.1859    2.3555 H   0  0  0  0  0  0  0  0  0  0  0  0
    6.1052    1.1469    2.3316 H   0  0  0  0  0  0  0  0  0  0  0  0
  1 13  1  0  0  0  0
  1 24  1  0  0  0  0
  2 22  1  0  0  0  0
  2 23  1  0  0  0  0
  3 17  1  0  0  0  0
  3 25  1  0  0  0  0
  4 20  1  0  0  0  0
  4 52  1  0  0  0  0
  5 23  2  0  0  0  0
  6 24  2  0  0  0  0
  7 25  2  0  0  0  0
  8 32  1  0  0  0  0
  8 60  1  0  0  0  0
  9 10  1  0  0  0  0
  9 11  1  0  0  0  0
  9 13  1  0  0  0  0
  9 33  1  0  0  0  0
 10 12  1  0  0  0  0
 10 15  1  0  0  0  0
 10 17  1  0  0  0  0
 11 14  1  0  0  0  0
 11 20  1  0  0  0  0
 11 21  1  0  0  0  0
 12 16  1  0  0  0  0
 12 34  1  0  0  0  0
 12 35  1  0  0  0  0
 13 18  1  0  0  0  0
 13 36  1  0  0  0  0
 14 16  1  0  0  0  0
 14 37  1  0  0  0  0
 14 38  1  0  0  0  0
 15 19  2  0  0  0  0
 15 22  1  0  0  0  0
 16 39  1  0  0  0  0
 16 40  1  0  0  0  0
 17 41  1  0  0  0  0
 17 42  1  0  0  0  0
 18 19  1  0  0  0  0
 18 43  1  0  0  0  0
 18 44  1  0  0  0  0
 19 23  1  0  0  0  0
 20 45  1  0  0  0  0
 20 46  1  0  0  0  0
 21 47  1  0  0  0  0
 21 48  1  0  0  0  0
 21 49  1  0  0  0  0
 22 50  1  0  0  0  0
 22 51  1  0  0  0  0
 24 26  1  0  0  0  0
 25 27  1  0  0  0  0
 26 28  2  0  0  0  0
 26 29  1  0  0  0  0
 27 53  1  0  0  0  0
 27 54  1  0  0  0  0
 27 55  1  0  0  0  0
 28 30  1  0  0  0  0
 28 56  1  0  0  0  0
 29 31  2  0  0  0  0
 29 57  1  0  0  0  0
 30 32  2  0  0  0  0
 30 58  1  0  0  0  0
 31 32  1  0  0  0  0
 31 59  1  0  0  0  0
M  END
> <PUBCHEM_COMPOUND_CID>
132519288

> <PUBCHEM_CONFORMER_RMSD>
1

> <PUBCHEM_CONFORMER_DIVERSEORDER>
1
9
4
10
5
3
2
11
8
7
6

> <PUBCHEM_MMFF94_PARTIAL_CHARGES>
32
1 -0.43
10 0.14
13 0.28
15 -0.28
17 0.28
18 0.14
19 -0.12
2 -0.43
20 0.28
22 0.42
23 0.71
24 0.63
25 0.66
26 0.09
27 0.06
28 -0.15
29 -0.15
3 -0.43
30 -0.15
31 -0.15
32 0.08
4 -0.68
5 -0.57
52 0.4
56 0.15
57 0.15
58 0.15
59 0.15
6 -0.57
60 0.45
7 -0.57
8 -0.53

> <PUBCHEM_EFFECTIVE_ROTOR_COUNT>
8.6

> <PUBCHEM_PHARMACOPHORE_FEATURES>
10
1 4 acceptor
1 4 donor
1 5 acceptor
1 6 acceptor
1 7 acceptor
1 8 donor
5 2 15 19 22 23 rings
6 26 28 29 30 31 32 rings
6 9 10 11 12 14 16 rings
6 9 10 13 15 18 19 rings

> <PUBCHEM_HEAVY_ATOM_COUNT>
32

> <PUBCHEM_ATOM_DEF_STEREO_COUNT>
4

> <PUBCHEM_ATOM_UDEF_STEREO_COUNT>
0

> <PUBCHEM_BOND_DEF_STEREO_COUNT>
0

> <PUBCHEM_BOND_UDEF_STEREO_COUNT>
0

> <PUBCHEM_ISOTOPIC_ATOM_COUNT>
0

> <PUBCHEM_COMPONENT_COUNT>
1

> <PUBCHEM_CACTVS_TAUTO_COUNT>
4

> <PUBCHEM_CONFORMER_ID>
07E6157800000001

> <PUBCHEM_MMFF94_ENERGY>
92.9757

> <PUBCHEM_FEATURE_SELFOVERLAP>
50.835

> <PUBCHEM_SHAPE_FINGERPRINT>
10305334 12 15792281571330912273
10930396 42 17975673289145262656
11578080 2 17686088023201672393
12156800 1 17033536912727187367
12422481 6 17605578573480215721
12633257 1 18267599081081119930
12788726 201 17896329197222382438
13004483 165 17898296262326690423
133893 2 17690006634786093107
13583140 156 18340472470366838314
13642711 20 18059564755398131585
13994607 96 17918000498417698740
14856354 85 15358274697474884582
15230672 131 17823702954965323022
17974551 9 16588589686862151240
20600515 1 17981632638115933999
20775438 99 10659246794445767932
21033648 29 18335421210653927860
22956985 138 16320613835613417186
23419403 2 17481404394421028199
3380486 77 17610938898687371195
35225 105 18411139159967029938
469060 322 17897187894413092371
56638632 33 17836090348044135107
57527585 21 17489875920685280096
7288768 16 18129399132229049336
9981440 41 18042396933218114789

> <PUBCHEM_SHAPE_MULTIPOLES>
611.59
8.15
4.15
3.54
16.8
2.44
-0.37
-4.13
-0.57
-4.32
-1.67
-1.88
-3.19
1.69

> <PUBCHEM_SHAPE_SELFOVERLAP>
1320.718

> <PUBCHEM_SHAPE_VOLUME>
329.3

> <PUBCHEM_COORDINATE_TYPE>
2
5
10

$$$$
