132535158
  -OEChem-03292013293D

 35 36  0     1  0  0  0  0  0999 V2000
   -0.0557   -1.4785   -0.7088 S   0  0  1  0  0  0  0  0  0  0  0  0
   -1.8007    0.7247    0.3804 S   0  0  2  0  0  0  0  0  0  0  0  0
    2.8065    1.2479   -0.8146 O   0  0  0  0  0  0  0  0  0  0  0  0
    1.5141    0.4067    2.0923 O   0  0  0  0  0  0  0  0  0  0  0  0
    2.4086   -2.8532    0.5939 O   0  0  0  0  0  0  0  0  0  0  0  0
   -0.0820   -2.2293   -2.0078 O   0  0  0  0  0  0  0  0  0  0  0  0
    1.3302    2.4638    1.2288 O   0  0  0  0  0  0  0  0  0  0  0  0
   -2.2217    2.1325    0.1067 O   0  0  0  0  0  0  0  0  0  0  0  0
    1.5682    0.6848   -0.3701 C   0  0  2  0  0  0  0  0  0  0  0  0
    1.6583   -0.8282   -0.4969 C   0  0  1  0  0  0  0  0  0  0  0  0
    0.4041    1.1426   -1.2782 C   0  0  2  0  0  0  0  0  0  0  0  0
   -0.7613    0.1801   -1.0207 C   0  0  1  0  0  0  0  0  0  0  0  0
    2.3596   -1.4381    0.7034 C   0  0  1  0  0  0  0  0  0  0  0  0
    1.4503    1.2530    1.0400 C   0  0  0  0  0  0  0  0  0  0  0  0
    0.7698    1.1628   -2.7716 C   0  0  0  0  0  0  0  0  0  0  0  0
    1.6740   -1.0184    1.9853 C   0  0  0  0  0  0  0  0  0  0  0  0
   -3.2103   -0.2946   -0.0107 C   0  0  0  0  0  0  0  0  0  0  0  0
   -4.2847   -0.2305    0.7873 C   0  0  0  0  0  0  0  0  0  0  0  0
   -5.5273   -1.0280    0.5615 C   0  0  0  0  0  0  0  0  0  0  0  0
    2.1982   -1.1191   -1.4068 H   0  0  0  0  0  0  0  0  0  0  0  0
    0.1203    2.1751   -1.0383 H   0  0  0  0  0  0  0  0  0  0  0  0
   -1.4099    0.1199   -1.9014 H   0  0  0  0  0  0  0  0  0  0  0  0
    3.3951   -1.0752    0.7164 H   0  0  0  0  0  0  0  0  0  0  0  0
    1.1064    0.1859   -3.1313 H   0  0  0  0  0  0  0  0  0  0  0  0
    1.5644    1.8886   -2.9723 H   0  0  0  0  0  0  0  0  0  0  0  0
   -0.0969    1.4592   -3.3728 H   0  0  0  0  0  0  0  0  0  0  0  0
    0.6929   -1.4885    2.1138 H   0  0  0  0  0  0  0  0  0  0  0  0
    2.2713   -1.3445    2.8445 H   0  0  0  0  0  0  0  0  0  0  0  0
    2.6878    2.2098   -0.8976 H   0  0  0  0  0  0  0  0  0  0  0  0
    2.8598   -3.1938    1.3850 H   0  0  0  0  0  0  0  0  0  0  0  0
   -3.2227   -0.9711   -0.8599 H   0  0  0  0  0  0  0  0  0  0  0  0
   -4.2932    0.4323    1.6493 H   0  0  0  0  0  0  0  0  0  0  0  0
   -5.7225   -1.6662    1.4288 H   0  0  0  0  0  0  0  0  0  0  0  0
   -5.4562   -1.6680   -0.3236 H   0  0  0  0  0  0  0  0  0  0  0  0
   -6.3814   -0.3569    0.4291 H   0  0  0  0  0  0  0  0  0  0  0  0
  1  6  2  0  0  0  0
  1 10  1  0  0  0  0
  1 12  1  0  0  0  0
  2  8  2  0  0  0  0
  2 12  1  0  0  0  0
  2 17  1  0  0  0  0
  3  9  1  0  0  0  0
  3 29  1  0  0  0  0
  4 14  1  0  0  0  0
  4 16  1  0  0  0  0
  5 13  1  0  0  0  0
  5 30  1  0  0  0  0
  7 14  2  0  0  0  0
  9 10  1  0  0  0  0
  9 11  1  0  0  0  0
  9 14  1  0  0  0  0
 10 13  1  0  0  0  0
 10 20  1  0  0  0  0
 11 12  1  0  0  0  0
 11 15  1  0  0  0  0
 11 21  1  0  0  0  0
 12 22  1  0  0  0  0
 13 16  1  0  0  0  0
 13 23  1  0  0  0  0
 15 24  1  0  0  0  0
 15 25  1  0  0  0  0
 15 26  1  0  0  0  0
 16 27  1  0  0  0  0
 16 28  1  0  0  0  0
 17 18  2  0  0  0  0
 17 31  1  0  0  0  0
 18 19  1  0  0  0  0
 18 32  1  0  0  0  0
 19 33  1  0  0  0  0
 19 34  1  0  0  0  0
 19 35  1  0  0  0  0
M  END
> <PUBCHEM_COMPOUND_CID>
132535158

> <PUBCHEM_CONFORMER_RMSD>
0.6

> <PUBCHEM_CONFORMER_DIVERSEORDER>
1
162
211
167
160
96
23
275
248
33
98
190
9
69
129
249
137
192
82
224
233
29
281
113
168
272
142
169
10
215
161
140
112
156
289
87
164
179
143
43
220
66
285
232
256
83
166
238
198
151
159
243
141
278
47
258
149
207
250
244
231
199
89
212
128
111
241
221
209
125
242
227
80
194
186
170
265
50
216
39
274
268
56
213
276
235
260
218
178
187
240
21
7
205
108
59
197
20
172
206
88
71
68
271
107
46
136
252
102
223
5
22
171
121
259
226
222
284
120
267
18
290
118
12
45
16
287
67
251
53
15
135
165
115
24
158
91
32
73
261
236
147
210
201
253
273
180
3
51
181
30
78
106
6
139
26
283
77
4
175
133
132
48
79
145
40
25
229
245
144
28
122
19
75
204
17
200
246
92
266
95
291
44
126
11
185
42
189
228
177
34
188
155
74
93
100
54
234
150
184
57
64
279
85
8
37
13
104
262
61
255
55
237
2
208
254
76
38
286
146
280
27
103
127
153
49
257
110
183
65
97
270
176
52
154
72
101
117
36
81
225
116
263
148
193
277
99
247
70
63
14
288
191
35
173
219
195
84
269
58
130
264
134
124
214
94
292
90
282
114
119
196
138
31
239
182
123
131
203
163
217
202
41
174
62
105
109
152
86
60
157
230

> <PUBCHEM_MMFF94_PARTIAL_CHARGES>
21
1 0.11
10 0.19
12 0.39
13 0.28
14 0.66
16 0.28
17 -0.09
18 -0.29
19 0.14
2 0.25
29 0.4
3 -0.68
30 0.4
31 0.15
32 0.15
4 -0.43
5 -0.68
6 -0.5
7 -0.57
8 -0.5
9 0.34

> <PUBCHEM_EFFECTIVE_ROTOR_COUNT>
3

> <PUBCHEM_PHARMACOPHORE_FEATURES>
10
1 19 hydrophobe
1 3 acceptor
1 3 donor
1 5 acceptor
1 5 donor
1 6 acceptor
1 7 acceptor
1 8 acceptor
5 1 9 10 11 12 rings
6 4 9 10 13 14 16 rings

> <PUBCHEM_HEAVY_ATOM_COUNT>
19

> <PUBCHEM_ATOM_DEF_STEREO_COUNT>
2

> <PUBCHEM_ATOM_UDEF_STEREO_COUNT>
5

> <PUBCHEM_BOND_DEF_STEREO_COUNT>
1

> <PUBCHEM_BOND_UDEF_STEREO_COUNT>
0

> <PUBCHEM_ISOTOPIC_ATOM_COUNT>
0

> <PUBCHEM_COMPONENT_COUNT>
1

> <PUBCHEM_CACTVS_TAUTO_COUNT>
1

> <PUBCHEM_CONFORMER_ID>
07E6537600000001

> <PUBCHEM_MMFF94_ENERGY>
39.8257

> <PUBCHEM_FEATURE_SELFOVERLAP>
50.962

> <PUBCHEM_SHAPE_FINGERPRINT>
11067466 332 18339374049217923205
11086676 242 18410002213404068026
12400797 245 17968363589862476347
12423570 1 18042664153836179548
13464514 151 10519691315443884890
13571099 52 11671478119745122938
14817 1 16481320516074493228
16945 1 18197474381208533428
18981168 100 13829281874278312175
20559304 39 18341616996971980219
20600515 1 17613722518103540820
20645477 70 16950853625855223931
21731516 1 16879623765713160304
23419403 2 18048003338944999760
23526113 38 16772422614671157495
23558518 356 17046814799458791761
23559900 14 18113902650345196319
3060560 45 17846512451639907247
31174 14 18272365404095760081
427121 178 18058451074372630603
430814 3 17970357129134771236
568465 68 17627773241646071906
9999458 23 18267588085870403332

> <PUBCHEM_SHAPE_MULTIPOLES>
363.49
6.04
2.38
2.03
11.86
0.41
-0.41
2.25
1.78
-1.52
-0.2
-1.12
-0.29
-0.31

> <PUBCHEM_SHAPE_SELFOVERLAP>
723.298

> <PUBCHEM_SHAPE_VOLUME>
216.1

> <PUBCHEM_COORDINATE_TYPE>
2
5
10

$$$$
