132519885
  -OEChem-03292013293D

 60 64  0     1  0  0  0  0  0999 V2000
   -0.1733    1.0296   -2.8300 O   0  0  0  0  0  0  0  0  0  0  0  0
   -5.9237   -2.1447    1.6192 O   0  0  0  0  0  0  0  0  0  0  0  0
   -1.3504    3.3694   -2.1950 O   0  0  0  0  0  0  0  0  0  0  0  0
   -5.2027   -1.3039   -0.3731 O   0  0  0  0  0  0  0  0  0  0  0  0
    3.6763    2.2669   -0.2522 O   0  0  0  0  0  0  0  0  0  0  0  0
    3.6982    1.6453    1.9293 O   0  0  0  0  0  0  0  0  0  0  0  0
   -2.6455   -1.2170    0.6549 N   0  0  3  0  0  0  0  0  0  0  0  0
    0.7518   -1.6579   -1.1737 N   0  0  0  0  0  0  0  0  0  0  0  0
    5.9853    0.0632    0.8028 N   0  3  0  0  0  0  0  0  0  0  0  0
   -3.2354    3.2671    0.2183 N   0  0  0  0  0  0  0  0  0  0  0  0
    2.8762   -2.2897   -1.3137 N   0  0  0  0  0  0  0  0  0  0  0  0
   -0.7247   -1.5292   -1.5228 C   0  0  1  0  0  0  0  0  0  0  0  0
   -2.2210   -0.1201   -0.1068 C   0  0  0  0  0  0  0  0  0  0  0  0
   -1.5450   -2.7165   -0.9582 C   0  0  0  0  0  0  0  0  0  0  0  0
   -1.3297   -0.2010   -1.1190 C   0  0  0  0  0  0  0  0  0  0  0  0
   -1.9912   -2.5196    0.4962 C   0  0  0  0  0  0  0  0  0  0  0  0
   -3.7973   -1.1407    1.5901 C   0  0  1  0  0  0  0  0  0  0  0  0
   -2.7743    1.1317    0.2402 C   0  0  0  0  0  0  0  0  0  0  0  0
   -3.9968    0.2548    2.2483 C   0  0  0  0  0  0  0  0  0  0  0  0
   -3.6253    1.3604    1.3246 C   0  0  0  0  0  0  0  0  0  0  0  0
   -2.5087    2.2938   -0.4221 C   0  0  0  0  0  0  0  0  0  0  0  0
   -0.9702    1.0400   -1.9019 C   0  0  0  0  0  0  0  0  0  0  0  0
    4.5998    0.1262    0.2539 C   0  0  1  0  0  0  0  0  0  0  0  0
   -3.9131    2.7091    1.2909 C   0  0  0  0  0  0  0  0  0  0  0  0
   -1.6218    2.3748   -1.5412 C   0  0  0  0  0  0  0  0  0  0  0  0
    3.8252   -1.1523    0.6631 C   0  0  0  0  0  0  0  0  0  0  0  0
   -5.0264   -1.5223    0.8163 C   0  0  0  0  0  0  0  0  0  0  0  0
    1.3855   -1.0774   -0.1113 C   0  0  0  0  0  0  0  0  0  0  0  0
    2.6953   -1.4820   -0.2189 C   0  0  0  0  0  0  0  0  0  0  0  0
    1.6866   -2.3757   -1.8664 C   0  0  0  0  0  0  0  0  0  0  0  0
    6.6359    1.4503    0.7807 C   0  0  0  0  0  0  0  0  0  0  0  0
    6.8504   -0.8895   -0.0289 C   0  0  0  0  0  0  0  0  0  0  0  0
    5.9675   -0.4393    2.2502 C   0  0  0  0  0  0  0  0  0  0  0  0
    3.9425    1.3962    0.7563 C   0  0  0  0  0  0  0  0  0  0  0  0
   -0.7322   -1.6079   -2.6187 H   0  0  0  0  0  0  0  0  0  0  0  0
   -0.9846   -3.6548   -1.0456 H   0  0  0  0  0  0  0  0  0  0  0  0
   -2.4461   -2.8306   -1.5768 H   0  0  0  0  0  0  0  0  0  0  0  0
   -2.6677   -3.3357    0.7755 H   0  0  0  0  0  0  0  0  0  0  0  0
   -1.1263   -2.5675    1.1676 H   0  0  0  0  0  0  0  0  0  0  0  0
   -3.6529   -1.8820    2.3871 H   0  0  0  0  0  0  0  0  0  0  0  0
   -3.3433    0.3209    3.1278 H   0  0  0  0  0  0  0  0  0  0  0  0
   -5.0280    0.3800    2.5983 H   0  0  0  0  0  0  0  0  0  0  0  0
    4.6867    0.1872   -0.8394 H   0  0  0  0  0  0  0  0  0  0  0  0
   -4.5204    3.3335    1.9311 H   0  0  0  0  0  0  0  0  0  0  0  0
   -3.2551    4.2460   -0.0326 H   0  0  0  0  0  0  0  0  0  0  0  0
    3.4368   -1.0534    1.6858 H   0  0  0  0  0  0  0  0  0  0  0  0
    4.4637   -2.0416    0.6602 H   0  0  0  0  0  0  0  0  0  0  0  0
    0.8781   -0.4543    0.6118 H   0  0  0  0  0  0  0  0  0  0  0  0
    1.4441   -2.9371   -2.7582 H   0  0  0  0  0  0  0  0  0  0  0  0
    5.2730    0.1479    2.8519 H   0  0  0  0  0  0  0  0  0  0  0  0
    7.8577   -0.8997    0.3994 H   0  0  0  0  0  0  0  0  0  0  0  0
    6.8828   -0.5144   -1.0562 H   0  0  0  0  0  0  0  0  0  0  0  0
    6.4304   -1.8965   -0.0012 H   0  0  0  0  0  0  0  0  0  0  0  0
    6.9786   -0.3107    2.6528 H   0  0  0  0  0  0  0  0  0  0  0  0
    7.6992    1.3287    1.0136 H   0  0  0  0  0  0  0  0  0  0  0  0
    6.1871    2.0922    1.5432 H   0  0  0  0  0  0  0  0  0  0  0  0
    6.5279    1.8709   -0.2237 H   0  0  0  0  0  0  0  0  0  0  0  0
    5.7282   -1.5049    2.2835 H   0  0  0  0  0  0  0  0  0  0  0  0
   -6.7354   -2.4010    1.1317 H   0  0  0  0  0  0  0  0  0  0  0  0
    3.2653    3.0939    0.0785 H   0  0  0  0  0  0  0  0  0  0  0  0
  1 22  2  0  0  0  0
  2 27  1  0  0  0  0
  2 59  1  0  0  0  0
  3 25  2  0  0  0  0
  4 27  2  0  0  0  0
  5 34  1  0  0  0  0
  5 60  1  0  0  0  0
  6 34  2  0  0  0  0
  7 13  1  0  0  0  0
  7 16  1  0  0  0  0
  7 17  1  0  0  0  0
  8 12  1  0  0  0  0
  8 28  1  0  0  0  0
  8 30  1  0  0  0  0
  9 23  1  0  0  0  0
  9 31  1  0  0  0  0
  9 32  1  0  0  0  0
  9 33  1  0  0  0  0
 10 21  1  0  0  0  0
 10 24  1  0  0  0  0
 10 45  1  0  0  0  0
 11 29  1  0  0  0  0
 11 30  2  0  0  0  0
 12 14  1  0  0  0  0
 12 15  1  0  0  0  0
 12 35  1  0  0  0  0
 13 15  2  0  0  0  0
 13 18  1  0  0  0  0
 14 16  1  0  0  0  0
 14 36  1  0  0  0  0
 14 37  1  0  0  0  0
 15 22  1  0  0  0  0
 16 38  1  0  0  0  0
 16 39  1  0  0  0  0
 17 19  1  0  0  0  0
 17 27  1  0  0  0  0
 17 40  1  0  0  0  0
 18 20  1  0  0  0  0
 18 21  2  0  0  0  0
 19 20  1  0  0  0  0
 19 41  1  0  0  0  0
 19 42  1  0  0  0  0
 20 24  2  0  0  0  0
 21 25  1  0  0  0  0
 22 25  1  0  0  0  0
 23 26  1  0  0  0  0
 23 34  1  0  0  0  0
 23 43  1  0  0  0  0
 24 44  1  0  0  0  0
 26 29  1  0  0  0  0
 26 46  1  0  0  0  0
 26 47  1  0  0  0  0
 28 29  2  0  0  0  0
 28 48  1  0  0  0  0
 30 49  1  0  0  0  0
 31 55  1  0  0  0  0
 31 56  1  0  0  0  0
 31 57  1  0  0  0  0
 32 51  1  0  0  0  0
 32 52  1  0  0  0  0
 32 53  1  0  0  0  0
 33 50  1  0  0  0  0
 33 54  1  0  0  0  0
 33 58  1  0  0  0  0
M  CHG  1   9   1
M  END
> <PUBCHEM_COMPOUND_CID>
132519885

> <PUBCHEM_CONFORMER_RMSD>
1

> <PUBCHEM_CONFORMER_DIVERSEORDER>
1
28
21
24
13
8
6
12
14
32
5
30
11
19
26
4
9
18
31
3
20
29
17
7
16
10
22
15
27
2
23
25

> <PUBCHEM_MMFF94_PARTIAL_CHARGES>
39
1 -0.57
10 0.03
11 -0.57
12 0.39
13 0.15
15 -0.12
16 0.37
17 0.43
18 -0.05
19 0.18
2 -0.65
20 -0.18
21 -0.24
22 0.56
23 0.56
24 -0.3
25 0.65
26 0.18
27 0.66
28 -0.3
29 0.05
3 -0.57
30 0.04
31 0.5
32 0.5
33 0.5
34 0.66
4 -0.57
44 0.15
45 0.27
48 0.15
49 0.15
5 -0.65
59 0.5
6 -0.57
60 0.5
7 -0.84
8 0.05
9 -1.01

> <PUBCHEM_EFFECTIVE_ROTOR_COUNT>
7

> <PUBCHEM_PHARMACOPHORE_FEATURES>
18
1 1 acceptor
1 10 cation
1 10 donor
1 2 acceptor
1 3 acceptor
1 4 acceptor
1 5 acceptor
1 6 acceptor
1 7 cation
1 9 cation
3 2 4 27 anion
3 5 6 34 anion
3 8 11 30 cation
5 10 18 20 21 24 rings
5 8 11 28 29 30 rings
6 13 15 18 21 22 25 rings
6 7 12 13 14 15 16 rings
6 7 13 17 18 19 20 rings

> <PUBCHEM_HEAVY_ATOM_COUNT>
34

> <PUBCHEM_ATOM_DEF_STEREO_COUNT>
3

> <PUBCHEM_ATOM_UDEF_STEREO_COUNT>
0

> <PUBCHEM_BOND_DEF_STEREO_COUNT>
0

> <PUBCHEM_BOND_UDEF_STEREO_COUNT>
0

> <PUBCHEM_ISOTOPIC_ATOM_COUNT>
0

> <PUBCHEM_COMPONENT_COUNT>
1

> <PUBCHEM_CACTVS_TAUTO_COUNT>
13

> <PUBCHEM_CONFORMER_ID>
07E617CD00000001

> <PUBCHEM_MMFF94_ENERGY>
82.8483

> <PUBCHEM_FEATURE_SELFOVERLAP>
91.733

> <PUBCHEM_SHAPE_FINGERPRINT>
10165383 225 17774729765458078306
10319926 262 18262801740441468170
10369192 42 17917715755661608764
10674148 151 12180113307362778535
10930396 42 18191281957443497123
11135609 201 17489010661332778762
11497681 19 17346874576849087887
11578080 2 17702116772683458403
11595378 159 17749107764502093594
12166972 35 15936694873170977931
12422481 6 18410013209174337060
12633257 1 18260267421794346292
12925494 130 18130227030389296985
13140716 1 17257697767560988365
13583140 156 17823401730894541278
13994607 96 17131830937220407441
14279260 333 17274551923932104886
14840074 17 18266465497382956429
14856354 85 17967542293970062978
14950920 106 17822008739930199138
15119646 57 15266486491223796458
15183329 4 14189571902300462548
15274700 34 18041858263796349745
18393751 57 18341897441020273331
19315092 285 14925097991849093667
21033648 29 18194418696961996137
21756936 100 15985101911939547598
22122407 14 17128747782057259001
23559900 14 17977971002259991335
25019877 29 17417540236410950127
339767 52 12685084900312357072
3459 110 18335419041267843528
392239 28 18113623416671644699
5081480 168 16771852978186938092
508706 21 18336259042624299556
5104073 3 18267590113052899330
552612 73 18270133309877099750
59755656 520 16343704348184233942
613672 6 12829484827540126970

> <PUBCHEM_SHAPE_MULTIPOLES>
639.58
14.02
3.54
2.19
18.82
1.11
-0.4
0.68
9.4
-2.73
-0.95
-0.67
0.44
1.65

> <PUBCHEM_SHAPE_SELFOVERLAP>
1407.089

> <PUBCHEM_SHAPE_VOLUME>
345.2

> <PUBCHEM_COORDINATE_TYPE>
2
5
10

$$$$
