132512005
  -OEChem-03292013293D

 53 55  0     1  0  0  0  0  0999 V2000
    3.0216    2.5947    0.9649 O   0  0  0  0  0  0  0  0  0  0  0  0
    0.9712    0.8381   -1.6383 O   0  0  0  0  0  0  0  0  0  0  0  0
    5.6362   -2.9405   -1.2516 O   0  0  0  0  0  0  0  0  0  0  0  0
    2.3499   -0.7483    2.6332 O   0  0  0  0  0  0  0  0  0  0  0  0
   -1.5265    0.8394   -2.1284 O   0  0  0  0  0  0  0  0  0  0  0  0
   -2.6620   -1.1572    2.6967 O   0  0  0  0  0  0  0  0  0  0  0  0
   -4.0013    0.9112   -2.7779 O   0  0  0  0  0  0  0  0  0  0  0  0
   -7.1354   -0.5994    0.4370 O   0  0  0  0  0  0  0  0  0  0  0  0
    4.3248    3.3063   -0.8050 O   0  0  0  0  0  0  0  0  0  0  0  0
    3.0790    0.3091    0.1058 C   0  0  1  0  0  0  0  0  0  0  0  0
    3.9652   -0.9696    0.1128 C   0  0  0  0  0  0  0  0  0  0  0  0
    1.6546    0.0504    0.4830 C   0  0  0  0  0  0  0  0  0  0  0  0
    3.4308   -2.0644   -0.8244 C   0  0  0  0  0  0  0  0  0  0  0  0
    3.7452    1.3696    1.0179 C   0  0  0  0  0  0  0  0  0  0  0  0
    0.6274    0.3289   -0.4191 C   0  0  0  0  0  0  0  0  0  0  0  0
    4.3268   -3.3074   -0.8262 C   0  0  1  0  0  0  0  0  0  0  0  0
   -0.7039    0.0852   -0.0606 C   0  0  0  0  0  0  0  0  0  0  0  0
    1.3578   -0.4706    1.7410 C   0  0  0  0  0  0  0  0  0  0  0  0
   -1.0012   -0.4366    1.2001 C   0  0  0  0  0  0  0  0  0  0  0  0
    0.0326   -0.7149    2.1023 C   0  0  0  0  0  0  0  0  0  0  0  0
   -1.7849    0.3831   -1.0222 C   0  0  0  0  0  0  0  0  0  0  0  0
   -3.1851    0.1223   -0.6305 C   0  0  0  0  0  0  0  0  0  0  0  0
   -2.4013   -0.6983    1.5915 C   0  0  0  0  0  0  0  0  0  0  0  0
   -3.4824   -0.3995    0.6302 C   0  0  0  0  0  0  0  0  0  0  0  0
    3.7859   -4.3745   -1.7686 C   0  0  0  0  0  0  0  0  0  0  0  0
   -4.2191    0.4011   -1.5323 C   0  0  0  0  0  0  0  0  0  0  0  0
   -4.8136   -0.6424    0.9892 C   0  0  0  0  0  0  0  0  0  0  0  0
   -5.8410   -0.3631    0.0875 C   0  0  0  0  0  0  0  0  0  0  0  0
   -5.5443    0.1574   -1.1706 C   0  0  0  0  0  0  0  0  0  0  0  0
    3.4190    3.4769   -0.0001 C   0  0  0  0  0  0  0  0  0  0  0  0
    2.5740    4.7131    0.0628 C   0  0  0  0  0  0  0  0  0  0  0  0
    3.1321    0.7090   -0.9139 H   0  0  0  0  0  0  0  0  0  0  0  0
    4.9739   -0.6841   -0.2136 H   0  0  0  0  0  0  0  0  0  0  0  0
    4.0835   -1.3802    1.1206 H   0  0  0  0  0  0  0  0  0  0  0  0
    2.4181   -2.3606   -0.5297 H   0  0  0  0  0  0  0  0  0  0  0  0
    3.3741   -1.6519   -1.8398 H   0  0  0  0  0  0  0  0  0  0  0  0
    3.7784    1.0644    2.0672 H   0  0  0  0  0  0  0  0  0  0  0  0
    4.7934    1.5224    0.7293 H   0  0  0  0  0  0  0  0  0  0  0  0
    4.4020   -3.7131    0.1890 H   0  0  0  0  0  0  0  0  0  0  0  0
   -0.1876   -1.1215    3.0864 H   0  0  0  0  0  0  0  0  0  0  0  0
    3.7577   -4.0086   -2.8009 H   0  0  0  0  0  0  0  0  0  0  0  0
    4.4380   -5.2546   -1.7651 H   0  0  0  0  0  0  0  0  0  0  0  0
    2.7785   -4.6878   -1.4784 H   0  0  0  0  0  0  0  0  0  0  0  0
    0.1871    1.0077   -2.1802 H   0  0  0  0  0  0  0  0  0  0  0  0
   -5.0578   -1.0483    1.9678 H   0  0  0  0  0  0  0  0  0  0  0  0
    6.1882   -3.7406   -1.2258 H   0  0  0  0  0  0  0  0  0  0  0  0
    1.9559   -1.1026    3.4486 H   0  0  0  0  0  0  0  0  0  0  0  0
   -6.3485    0.3735   -1.8699 H   0  0  0  0  0  0  0  0  0  0  0  0
    1.5269    4.4544   -0.1139 H   0  0  0  0  0  0  0  0  0  0  0  0
    2.8959    5.4127   -0.7139 H   0  0  0  0  0  0  0  0  0  0  0  0
    2.6932    5.1944    1.0367 H   0  0  0  0  0  0  0  0  0  0  0  0
   -3.0551    1.0477   -2.9337 H   0  0  0  0  0  0  0  0  0  0  0  0
   -7.1582   -0.9589    1.3404 H   0  0  0  0  0  0  0  0  0  0  0  0
  1 14  1  0  0  0  0
  1 30  1  0  0  0  0
  2 15  1  0  0  0  0
  2 44  1  0  0  0  0
  3 16  1  0  0  0  0
  3 46  1  0  0  0  0
  4 18  1  0  0  0  0
  4 47  1  0  0  0  0
  5 21  2  0  0  0  0
  6 23  2  0  0  0  0
  7 26  1  0  0  0  0
  7 52  1  0  0  0  0
  8 28  1  0  0  0  0
  8 53  1  0  0  0  0
  9 30  2  0  0  0  0
 10 11  1  0  0  0  0
 10 12  1  0  0  0  0
 10 14  1  0  0  0  0
 10 32  1  0  0  0  0
 11 13  1  0  0  0  0
 11 33  1  0  0  0  0
 11 34  1  0  0  0  0
 12 15  1  0  0  0  0
 12 18  2  0  0  0  0
 13 16  1  0  0  0  0
 13 35  1  0  0  0  0
 13 36  1  0  0  0  0
 14 37  1  0  0  0  0
 14 38  1  0  0  0  0
 15 17  2  0  0  0  0
 16 25  1  0  0  0  0
 16 39  1  0  0  0  0
 17 19  1  0  0  0  0
 17 21  1  0  0  0  0
 18 20  1  0  0  0  0
 19 20  2  0  0  0  0
 19 23  1  0  0  0  0
 20 40  1  0  0  0  0
 21 22  1  0  0  0  0
 22 24  1  0  0  0  0
 22 26  2  0  0  0  0
 23 24  1  0  0  0  0
 24 27  2  0  0  0  0
 25 41  1  0  0  0  0
 25 42  1  0  0  0  0
 25 43  1  0  0  0  0
 26 29  1  0  0  0  0
 27 28  1  0  0  0  0
 27 45  1  0  0  0  0
 28 29  2  0  0  0  0
 29 48  1  0  0  0  0
 30 31  1  0  0  0  0
 31 49  1  0  0  0  0
 31 50  1  0  0  0  0
 31 51  1  0  0  0  0
M  END
> <PUBCHEM_COMPOUND_CID>
132512005

> <PUBCHEM_CONFORMER_RMSD>
1

> <PUBCHEM_CONFORMER_DIVERSEORDER>
1
29
15
2
38
30
12
35
5
42
9
22
34
4
26
13
47
28
39
11
25
3
18
31
40
36
10
23
14
41
27
46
24
45
33
37
21
17
32
43
6
16
44
20
8
19
7

> <PUBCHEM_MMFF94_PARTIAL_CHARGES>
36
1 -0.43
10 0.14
12 -0.14
14 0.28
15 0.08
16 0.28
17 0.09
18 0.08
19 0.09
2 -0.53
20 -0.15
21 0.4
22 0.09
23 0.4
24 0.09
26 0.08
27 -0.15
28 0.08
29 -0.15
3 -0.68
30 0.66
31 0.06
4 -0.53
40 0.15
44 0.45
45 0.15
46 0.4
47 0.45
48 0.15
5 -0.57
52 0.45
53 0.45
6 -0.57
7 -0.53
8 -0.53
9 -0.57

> <PUBCHEM_EFFECTIVE_ROTOR_COUNT>
7

> <PUBCHEM_PHARMACOPHORE_FEATURES>
12
1 2 donor
1 3 acceptor
1 3 donor
1 4 donor
1 5 acceptor
1 6 acceptor
1 7 donor
1 8 donor
1 9 acceptor
6 12 15 17 18 19 20 rings
6 17 19 21 22 23 24 rings
6 22 24 26 27 28 29 rings

> <PUBCHEM_HEAVY_ATOM_COUNT>
31

> <PUBCHEM_ATOM_DEF_STEREO_COUNT>
0

> <PUBCHEM_ATOM_UDEF_STEREO_COUNT>
2

> <PUBCHEM_BOND_DEF_STEREO_COUNT>
0

> <PUBCHEM_BOND_UDEF_STEREO_COUNT>
0

> <PUBCHEM_ISOTOPIC_ATOM_COUNT>
0

> <PUBCHEM_COMPONENT_COUNT>
1

> <PUBCHEM_CACTVS_TAUTO_COUNT>
998

> <PUBCHEM_CONFORMER_ID>
07E5F90500000001

> <PUBCHEM_MMFF94_ENERGY>
85.9257

> <PUBCHEM_FEATURE_SELFOVERLAP>
60.941

> <PUBCHEM_SHAPE_FINGERPRINT>
10319926 262 17096905053707946048
10670039 82 16153994530049155583
11112241 14 17907570686057809081
11135609 149 18126273161079998326
11578080 2 18045505463591809705
12236239 1 16989125344188781531
12403259 415 17676477355292891613
13140716 1 16372418210613370729
13533116 47 18272655644868509075
13955234 65 18272926146462046506
15131766 46 17844240951186762657
15196674 1 16733530630019375827
15320294 125 16486403266446344151
15324884 4 17606711224722551562
15840311 113 18408611345277728273
1813 80 17701554917730737990
18915476 22 18338526347385863504
19311894 1 17834675994013591064
21365058 113 18339653230903651028
23559900 14 18412824707308420026
239999 70 18259979388386373834
3004659 81 16774085059151573942
34797466 226 18335698377925665427
376196 1 17900819663346196616
4093350 32 18411138065114028325
46194498 28 18408602556914141646
5104073 3 17023728041127040857
5223283 242 18122906422047159077
6823239 73 17385731300499161532
70251023 43 18341615863042546616

> <PUBCHEM_SHAPE_MULTIPOLES>
585.14
12.82
3.97
2.24
12.69
1.66
-0.37
-4.17
3.17
-11.3
1.88
1.16
-0.58
2.53

> <PUBCHEM_SHAPE_SELFOVERLAP>
1274.42

> <PUBCHEM_SHAPE_VOLUME>
316.1

> <PUBCHEM_COORDINATE_TYPE>
2
5
10

$$$$
