132579590
  -OEChem-03292013293D

 46 47  0     1  0  0  0  0  0999 V2000
    3.7440   -1.1493   -0.7816 O   0  0  0  0  0  0  0  0  0  0  0  0
   -0.1907    0.3192    1.4358 O   0  0  0  0  0  0  0  0  0  0  0  0
    1.1648    2.6896   -0.1469 O   0  0  0  0  0  0  0  0  0  0  0  0
   -1.3123    2.6043    0.0897 O   0  0  0  0  0  0  0  0  0  0  0  0
    1.5005   -2.5055   -1.0753 O   0  0  0  0  0  0  0  0  0  0  0  0
   -5.9976   -1.5612    0.3449 O   0  0  0  0  0  0  0  0  0  0  0  0
    0.2331   -0.6574   -0.6447 N   0  0  0  0  0  0  0  0  0  0  0  0
    2.4823    0.8315   -0.1658 N   0  0  0  0  0  0  0  0  0  0  0  0
    2.6248   -0.6256   -0.0544 C   0  0  2  0  0  0  0  0  0  0  0  0
    0.0230    0.5889    0.0643 C   0  0  1  0  0  0  0  0  0  0  0  0
    2.8358   -0.9934    1.4151 C   0  0  0  0  0  0  0  0  0  0  0  0
   -1.1928    1.3126   -0.5076 C   0  0  1  0  0  0  0  0  0  0  0  0
    1.4170   -1.3585   -0.6328 C   0  0  0  0  0  0  0  0  0  0  0  0
    1.3098    1.3499   -0.1058 C   0  0  0  0  0  0  0  0  0  0  0  0
    3.0386   -2.4979    1.5634 C   0  0  0  0  0  0  0  0  0  0  0  0
    4.0235   -0.2282    1.9898 C   0  0  0  0  0  0  0  0  0  0  0  0
   -2.4763    0.5452   -0.2805 C   0  0  0  0  0  0  0  0  0  0  0  0
   -3.2015    0.7327    0.8962 C   0  0  0  0  0  0  0  0  0  0  0  0
   -2.9345   -0.3501   -1.2470 C   0  0  0  0  0  0  0  0  0  0  0  0
    3.8676   -0.5375   -2.0579 C   0  0  0  0  0  0  0  0  0  0  0  0
    2.3870    3.3930   -0.3076 C   0  0  0  0  0  0  0  0  0  0  0  0
   -4.3850    0.0252    1.1063 C   0  0  0  0  0  0  0  0  0  0  0  0
   -4.1180   -1.0577   -1.0371 C   0  0  0  0  0  0  0  0  0  0  0  0
   -4.8433   -0.8700    0.1396 C   0  0  0  0  0  0  0  0  0  0  0  0
    1.9589   -0.7227    2.0120 H   0  0  0  0  0  0  0  0  0  0  0  0
   -1.0578    1.4881   -1.5832 H   0  0  0  0  0  0  0  0  0  0  0  0
   -0.5700   -1.1654   -0.9970 H   0  0  0  0  0  0  0  0  0  0  0  0
    3.8799   -2.8736    0.9722 H   0  0  0  0  0  0  0  0  0  0  0  0
    4.9478   -0.4341    1.4396 H   0  0  0  0  0  0  0  0  0  0  0  0
    2.1417   -3.0635    1.2952 H   0  0  0  0  0  0  0  0  0  0  0  0
    3.2520   -2.7448    2.6103 H   0  0  0  0  0  0  0  0  0  0  0  0
    4.1936   -0.5152    3.0337 H   0  0  0  0  0  0  0  0  0  0  0  0
    3.8553    0.8535    1.9825 H   0  0  0  0  0  0  0  0  0  0  0  0
   -0.3396    1.1674    1.8878 H   0  0  0  0  0  0  0  0  0  0  0  0
   -2.0919    3.0408   -0.2950 H   0  0  0  0  0  0  0  0  0  0  0  0
   -2.8634    1.4181    1.6684 H   0  0  0  0  0  0  0  0  0  0  0  0
   -2.3879   -0.4982   -2.1745 H   0  0  0  0  0  0  0  0  0  0  0  0
    4.6307   -1.0868   -2.6173 H   0  0  0  0  0  0  0  0  0  0  0  0
    4.2133    0.4964   -1.9619 H   0  0  0  0  0  0  0  0  0  0  0  0
    2.9369   -0.5781   -2.6320 H   0  0  0  0  0  0  0  0  0  0  0  0
    2.8809    3.1243   -1.2477 H   0  0  0  0  0  0  0  0  0  0  0  0
    3.0506    3.2355    0.5493 H   0  0  0  0  0  0  0  0  0  0  0  0
    2.1531    4.4611   -0.3519 H   0  0  0  0  0  0  0  0  0  0  0  0
   -4.9399    0.1788    2.0279 H   0  0  0  0  0  0  0  0  0  0  0  0
   -4.4712   -1.7518   -1.7947 H   0  0  0  0  0  0  0  0  0  0  0  0
   -6.3667   -1.3087    1.2086 H   0  0  0  0  0  0  0  0  0  0  0  0
  1  9  1  0  0  0  0
  1 20  1  0  0  0  0
  2 10  1  0  0  0  0
  2 34  1  0  0  0  0
  3 14  1  0  0  0  0
  3 21  1  0  0  0  0
  4 12  1  0  0  0  0
  4 35  1  0  0  0  0
  5 13  2  0  0  0  0
  6 24  1  0  0  0  0
  6 46  1  0  0  0  0
  7 10  1  0  0  0  0
  7 13  1  0  0  0  0
  7 27  1  0  0  0  0
  8  9  1  0  0  0  0
  8 14  2  0  0  0  0
  9 11  1  0  0  0  0
  9 13  1  0  0  0  0
 10 12  1  0  0  0  0
 10 14  1  0  0  0  0
 11 15  1  0  0  0  0
 11 16  1  0  0  0  0
 11 25  1  0  0  0  0
 12 17  1  0  0  0  0
 12 26  1  0  0  0  0
 15 28  1  0  0  0  0
 15 30  1  0  0  0  0
 15 31  1  0  0  0  0
 16 29  1  0  0  0  0
 16 32  1  0  0  0  0
 16 33  1  0  0  0  0
 17 18  2  0  0  0  0
 17 19  1  0  0  0  0
 18 22  1  0  0  0  0
 18 36  1  0  0  0  0
 19 23  2  0  0  0  0
 19 37  1  0  0  0  0
 20 38  1  0  0  0  0
 20 39  1  0  0  0  0
 20 40  1  0  0  0  0
 21 41  1  0  0  0  0
 21 42  1  0  0  0  0
 21 43  1  0  0  0  0
 22 24  2  0  0  0  0
 22 44  1  0  0  0  0
 23 24  1  0  0  0  0
 23 45  1  0  0  0  0
M  END
> <PUBCHEM_COMPOUND_CID>
132579590

> <PUBCHEM_CONFORMER_RMSD>
0.8

> <PUBCHEM_CONFORMER_DIVERSEORDER>
1
6
7
2
11
8
5
4
9
10
3

> <PUBCHEM_MMFF94_PARTIAL_CHARGES>
29
1 -0.56
10 0.64
12 0.42
13 0.57
14 0.54
17 -0.14
18 -0.15
19 -0.15
2 -0.68
20 0.28
21 0.28
22 -0.15
23 -0.15
24 0.08
27 0.37
3 -0.43
34 0.4
35 0.4
36 0.15
37 0.15
4 -0.68
44 0.15
45 0.15
46 0.45
5 -0.57
6 -0.53
7 -0.73
8 -0.7
9 0.59

> <PUBCHEM_EFFECTIVE_ROTOR_COUNT>
5.6

> <PUBCHEM_PHARMACOPHORE_FEATURES>
11
1 1 acceptor
1 2 acceptor
1 2 donor
1 4 acceptor
1 4 donor
1 5 acceptor
1 6 donor
1 7 donor
3 11 15 16 hydrophobe
6 17 18 19 22 23 24 rings
6 7 8 9 10 13 14 rings

> <PUBCHEM_HEAVY_ATOM_COUNT>
24

> <PUBCHEM_ATOM_DEF_STEREO_COUNT>
3

> <PUBCHEM_ATOM_UDEF_STEREO_COUNT>
0

> <PUBCHEM_BOND_DEF_STEREO_COUNT>
0

> <PUBCHEM_BOND_UDEF_STEREO_COUNT>
0

> <PUBCHEM_ISOTOPIC_ATOM_COUNT>
0

> <PUBCHEM_COMPONENT_COUNT>
1

> <PUBCHEM_CACTVS_TAUTO_COUNT>
4

> <PUBCHEM_CONFORMER_ID>
07E7010600000001

> <PUBCHEM_MMFF94_ENERGY>
84.4123

> <PUBCHEM_FEATURE_SELFOVERLAP>
55.879

> <PUBCHEM_SHAPE_FINGERPRINT>
10366900 7 17968107429523170291
11543360 7 15791738502938729439
11552529 35 14404316504387397799
11578080 2 17531792585127598788
11796584 16 17023173891181495651
12363563 72 18114461167396281977
12553582 1 18412263909027949951
12596602 18 16128377103951187763
12633257 1 18409166632265448147
12644460 14 18335701701755936608
12788726 201 18119823417028543345
12892183 10 17275388681812766307
12895836 83 11670913048674087090
13083527 12 18336252513947137049
13140716 1 18195519513827163810
13224815 77 18130781239904330887
13464513 79 18342462543015307030
13583140 156 17896295005013911199
13675066 3 17346598547800509029
14178342 30 18127688227669509352
14848160 33 18333723611654858035
16945 1 18412258407048236652
1813 80 18410576167285234837
18222031 100 18272365369698780143
20028762 73 18130504249401979695
20645477 70 18337391647001458165
21033648 29 16772942585155840619
2255824 54 18338519741378217172
23419403 2 17534586461981160004
23557571 272 17978773628805508432
23559900 14 17988652852244315461
239999 70 18341057409883136310
3286 77 17894901919343918741
5104073 3 18200870669468482275
6669772 16 18191031308270132204
7495541 125 17967814980841740755
76465 3 18187076213787573691
7970288 3 18339083687685696383
9841814 1 18408037416448453432

> <PUBCHEM_SHAPE_MULTIPOLES>
448.73
9.53
2.7
1.56
10.27
1.68
-0.08
-4.77
-1.04
-2.05
0
-1.35
-0.65
-0.57

> <PUBCHEM_SHAPE_SELFOVERLAP>
952.599

> <PUBCHEM_SHAPE_VOLUME>
247.1

> <PUBCHEM_COORDINATE_TYPE>
2
5
10

$$$$
