132525355
  -OEChem-03292013293D

 66 68  0     1  0  0  0  0  0999 V2000
   -1.9666    0.0680    0.3733 O   0  0  0  0  0  0  0  0  0  0  0  0
   -2.8725    2.8995   -2.1664 O   0  0  0  0  0  0  0  0  0  0  0  0
   -0.2742    2.4513   -0.9687 O   0  0  0  0  0  0  0  0  0  0  0  0
   -2.3798   -0.0267   -1.8897 O   0  0  0  0  0  0  0  0  0  0  0  0
   -3.3841   -4.6881    1.1982 O   0  0  0  0  0  0  0  0  0  0  0  0
    0.5127   -5.0736   -1.5316 O   0  0  0  0  0  0  0  0  0  0  0  0
    4.0554    0.6233   -2.9383 O   0  0  0  0  0  0  0  0  0  0  0  0
    1.9062    0.4199   -2.2268 O   0  0  0  0  0  0  0  0  0  0  0  0
    1.7724    1.2379    0.4221 N   0  0  0  0  0  0  0  0  0  0  0  0
    0.7709    1.1098    1.4663 C   0  0  2  0  0  0  0  0  0  0  0  0
    0.1731   -0.3332    1.4614 C   0  0  2  0  0  0  0  0  0  0  0  0
   -0.2159    2.3103    1.4611 C   0  0  2  0  0  0  0  0  0  0  0  0
   -0.7319   -0.6650    0.2442 C   0  0  1  0  0  0  0  0  0  0  0  0
   -2.1748    3.4471    0.1289 C   0  0  2  0  0  0  0  0  0  0  0  0
   -0.8384    2.6881    0.1002 C   0  0  0  0  0  0  0  0  0  0  0  0
   -3.2632    2.8391   -0.7926 C   0  0  2  0  0  0  0  0  0  0  0  0
   -3.7340    1.4017   -0.4838 C   0  0  1  0  0  0  0  0  0  0  0  0
   -0.5350   -0.6045    2.8025 C   0  0  0  0  0  0  0  0  0  0  0  0
    0.4777    3.5586    2.0233 C   0  0  0  0  0  0  0  0  0  0  0  0
   -0.9814   -2.1581    0.0976 C   0  0  0  0  0  0  0  0  0  0  0  0
   -1.8994    4.9094   -0.2441 C   0  0  0  0  0  0  0  0  0  0  0  0
   -2.6436    0.3810   -0.7645 C   0  0  0  0  0  0  0  0  0  0  0  0
    3.0236    0.6642    0.4998 C   0  0  0  0  0  0  0  0  0  0  0  0
   -4.3455    1.2589    0.9097 C   0  0  0  0  0  0  0  0  0  0  0  0
   -0.1095   -2.9404   -0.6596 C   0  0  0  0  0  0  0  0  0  0  0  0
   -2.0817   -2.7457    0.7221 C   0  0  0  0  0  0  0  0  0  0  0  0
    3.7006    0.2637   -0.6520 C   0  0  0  0  0  0  0  0  0  0  0  0
    3.6120    0.4870    1.7519 C   0  0  0  0  0  0  0  0  0  0  0  0
   -2.3099   -4.1154    0.5893 C   0  0  0  0  0  0  0  0  0  0  0  0
   -0.3377   -4.3101   -0.7923 C   0  0  0  0  0  0  0  0  0  0  0  0
   -1.4380   -4.8975   -0.1679 C   0  0  0  0  0  0  0  0  0  0  0  0
    4.9662   -0.3141   -0.5517 C   0  0  0  0  0  0  0  0  0  0  0  0
    4.8777   -0.0910    1.8524 C   0  0  0  0  0  0  0  0  0  0  0  0
    5.5548   -0.4915    0.7005 C   0  0  0  0  0  0  0  0  0  0  0  0
    3.1137    0.4361   -1.9749 C   0  0  0  0  0  0  0  0  0  0  0  0
    1.2561    1.2021    2.4425 H   0  0  0  0  0  0  0  0  0  0  0  0
    1.0221   -1.0313    1.4316 H   0  0  0  0  0  0  0  0  0  0  0  0
   -1.0426    2.0641    2.1369 H   0  0  0  0  0  0  0  0  0  0  0  0
   -0.2241   -0.3209   -0.6652 H   0  0  0  0  0  0  0  0  0  0  0  0
   -2.5512    3.4359    1.1577 H   0  0  0  0  0  0  0  0  0  0  0  0
   -4.1479    3.4846   -0.7155 H   0  0  0  0  0  0  0  0  0  0  0  0
   -4.5315    1.1491   -1.1979 H   0  0  0  0  0  0  0  0  0  0  0  0
   -0.7595   -1.6681    2.9246 H   0  0  0  0  0  0  0  0  0  0  0  0
    0.1069   -0.3260    3.6455 H   0  0  0  0  0  0  0  0  0  0  0  0
   -1.4720   -0.0481    2.8981 H   0  0  0  0  0  0  0  0  0  0  0  0
    1.4327    1.4833   -0.5006 H   0  0  0  0  0  0  0  0  0  0  0  0
    0.9703    3.3469    2.9782 H   0  0  0  0  0  0  0  0  0  0  0  0
   -0.2461    4.3571    2.2117 H   0  0  0  0  0  0  0  0  0  0  0  0
    1.2286    3.9472    1.3268 H   0  0  0  0  0  0  0  0  0  0  0  0
   -1.4887    4.9953   -1.2561 H   0  0  0  0  0  0  0  0  0  0  0  0
   -1.1766    5.3696    0.4352 H   0  0  0  0  0  0  0  0  0  0  0  0
   -2.8202    5.5002   -0.1993 H   0  0  0  0  0  0  0  0  0  0  0  0
   -3.6255    1.4725    1.7057 H   0  0  0  0  0  0  0  0  0  0  0  0
   -4.7089    0.2372    1.0668 H   0  0  0  0  0  0  0  0  0  0  0  0
   -5.1941    1.9403    1.0305 H   0  0  0  0  0  0  0  0  0  0  0  0
   -2.0371    2.4133   -2.2666 H   0  0  0  0  0  0  0  0  0  0  0  0
    0.7495   -2.4819   -1.1438 H   0  0  0  0  0  0  0  0  0  0  0  0
   -2.7699   -2.1526    1.3189 H   0  0  0  0  0  0  0  0  0  0  0  0
    3.1528    0.8045    2.6808 H   0  0  0  0  0  0  0  0  0  0  0  0
   -1.6101   -5.9656   -0.2757 H   0  0  0  0  0  0  0  0  0  0  0  0
    5.5146   -0.6490   -1.4283 H   0  0  0  0  0  0  0  0  0  0  0  0
    5.3394   -0.2237    2.8265 H   0  0  0  0  0  0  0  0  0  0  0  0
    6.5396   -0.9427    0.7792 H   0  0  0  0  0  0  0  0  0  0  0  0
   -3.3881   -5.6404    1.0002 H   0  0  0  0  0  0  0  0  0  0  0  0
    1.2160   -4.5053   -1.8900 H   0  0  0  0  0  0  0  0  0  0  0  0
    3.6525    0.7383   -3.8253 H   0  0  0  0  0  0  0  0  0  0  0  0
  1 13  1  0  0  0  0
  1 22  1  0  0  0  0
  2 16  1  0  0  0  0
  2 56  1  0  0  0  0
  3 15  2  0  0  0  0
  4 22  2  0  0  0  0
  5 29  1  0  0  0  0
  5 64  1  0  0  0  0
  6 30  1  0  0  0  0
  6 65  1  0  0  0  0
  7 35  1  0  0  0  0
  7 66  1  0  0  0  0
  8 35  2  0  0  0  0
  9 10  1  0  0  0  0
  9 23  1  0  0  0  0
  9 46  1  0  0  0  0
 10 11  1  0  0  0  0
 10 12  1  0  0  0  0
 10 36  1  0  0  0  0
 11 13  1  0  0  0  0
 11 18  1  0  0  0  0
 11 37  1  0  0  0  0
 12 15  1  0  0  0  0
 12 19  1  0  0  0  0
 12 38  1  0  0  0  0
 13 20  1  0  0  0  0
 13 39  1  0  0  0  0
 14 15  1  0  0  0  0
 14 16  1  0  0  0  0
 14 21  1  0  0  0  0
 14 40  1  0  0  0  0
 16 17  1  0  0  0  0
 16 41  1  0  0  0  0
 17 22  1  0  0  0  0
 17 24  1  0  0  0  0
 17 42  1  0  0  0  0
 18 43  1  0  0  0  0
 18 44  1  0  0  0  0
 18 45  1  0  0  0  0
 19 47  1  0  0  0  0
 19 48  1  0  0  0  0
 19 49  1  0  0  0  0
 20 25  2  0  0  0  0
 20 26  1  0  0  0  0
 21 50  1  0  0  0  0
 21 51  1  0  0  0  0
 21 52  1  0  0  0  0
 23 27  1  0  0  0  0
 23 28  2  0  0  0  0
 24 53  1  0  0  0  0
 24 54  1  0  0  0  0
 24 55  1  0  0  0  0
 25 30  1  0  0  0  0
 25 57  1  0  0  0  0
 26 29  2  0  0  0  0
 26 58  1  0  0  0  0
 27 32  2  0  0  0  0
 27 35  1  0  0  0  0
 28 33  1  0  0  0  0
 28 59  1  0  0  0  0
 29 31  1  0  0  0  0
 30 31  2  0  0  0  0
 31 60  1  0  0  0  0
 32 34  1  0  0  0  0
 32 61  1  0  0  0  0
 33 34  2  0  0  0  0
 33 62  1  0  0  0  0
 34 63  1  0  0  0  0
M  END
> <PUBCHEM_COMPOUND_CID>
132525355

> <PUBCHEM_CONFORMER_RMSD>
0.8

> <PUBCHEM_CONFORMER_DIVERSEORDER>
1
13
35
3
14
34
31
5
22
26
4
23
21
17
6
25
28
12
9
7
18
16
24
33
32
30
29
11
8
19
15
27
20
10
2

> <PUBCHEM_MMFF94_PARTIAL_CHARGES>
42
1 -0.43
10 0.37
12 0.06
13 0.42
14 0.06
15 0.45
16 0.28
17 0.06
2 -0.68
20 -0.14
22 0.66
23 0.1
25 -0.15
26 -0.15
27 0.09
28 -0.15
29 0.08
3 -0.57
30 0.08
31 -0.15
32 -0.15
33 -0.15
34 -0.15
35 0.63
4 -0.57
46 0.4
5 -0.53
56 0.4
57 0.15
58 0.15
59 0.15
6 -0.53
60 0.15
61 0.15
62 0.15
63 0.15
64 0.45
65 0.45
66 0.5
7 -0.65
8 -0.57
9 -0.87

> <PUBCHEM_EFFECTIVE_ROTOR_COUNT>
5.6

> <PUBCHEM_PHARMACOPHORE_FEATURES>
13
1 2 acceptor
1 2 donor
1 3 acceptor
1 4 acceptor
1 5 donor
1 6 donor
1 7 acceptor
1 8 acceptor
1 9 cation
1 9 donor
3 7 8 35 anion
6 20 25 26 29 30 31 rings
6 23 27 28 32 33 34 rings

> <PUBCHEM_HEAVY_ATOM_COUNT>
35

> <PUBCHEM_ATOM_DEF_STEREO_COUNT>
7

> <PUBCHEM_ATOM_UDEF_STEREO_COUNT>
0

> <PUBCHEM_BOND_DEF_STEREO_COUNT>
0

> <PUBCHEM_BOND_UDEF_STEREO_COUNT>
0

> <PUBCHEM_ISOTOPIC_ATOM_COUNT>
0

> <PUBCHEM_COMPONENT_COUNT>
1

> <PUBCHEM_CACTVS_TAUTO_COUNT>
60

> <PUBCHEM_CONFORMER_ID>
07E62D2B00000001

> <PUBCHEM_MMFF94_ENERGY>
115.8368

> <PUBCHEM_FEATURE_SELFOVERLAP>
66.033

> <PUBCHEM_SHAPE_FINGERPRINT>
10190108 129 17910430245561275601
11285246 1 17985522662836299223
11578080 2 18127691745612274472
12422481 6 17247500492718558272
12608794 3 18272095993286870657
12788726 201 17971204848347484606
133893 2 17252318505189624592
13726171 33 18053412030200946960
14251757 5 18411136952759722784
15439362 3 16968294817803418504
15484559 13 17690225670335539399
15664445 248 17040079208390424662
15775530 1 17697292363999228136
1813 80 17833558172813586499
19319366 153 18051120403286693573
19958102 18 18266453201519224846
20600515 1 18341330080525484720
20775438 99 16902943643372460839
23559900 14 16765674001353029294
2818148 4 17973735967264478889
3027735 51 18199472056196853969
4409770 3 18410290307072854242
469060 322 18266197053754591505
5085150 59 17982997974529936146
5265222 85 18340206298253855268
6287921 2 17831584176005770901
70251023 43 17757831508663525251
79837 15 18336827498525613347
9981440 41 18192149287508025881

> <PUBCHEM_SHAPE_MULTIPOLES>
668.35
7.89
6.83
2.24
9.11
8.25
0.34
-3.43
0.74
-7.42
0.3
1.37
-0.64
1.42

> <PUBCHEM_SHAPE_SELFOVERLAP>
1421.534

> <PUBCHEM_SHAPE_VOLUME>
368.6

> <PUBCHEM_COORDINATE_TYPE>
2
5
10

$$$$
