132576259
  -OEChem-03292013293D

 44 48  0     0  0  0  0  0  0999 V2000
    5.2108    2.3195    0.0355 O   0  0  0  0  0  0  0  0  0  0  0  0
    5.5041   -1.9620    0.0228 O   0  0  0  0  0  0  0  0  0  0  0  0
   -1.5594    2.7385   -0.0209 O   0  0  0  0  0  0  0  0  0  0  0  0
    0.9439    2.4792   -0.0018 O   0  0  0  0  0  0  0  0  0  0  0  0
    0.5585   -2.8498   -0.0233 O   0  0  0  0  0  0  0  0  0  0  0  0
    6.8042    0.6497    0.0408 O   0  0  0  0  0  0  0  0  0  0  0  0
   -4.3985   -2.5218   -0.0669 O   0  0  0  0  0  0  0  0  0  0  0  0
   -4.1015    2.8108   -0.0424 O   0  0  0  0  0  0  0  0  0  0  0  0
   -6.7339   -1.1072   -0.0839 N   0  0  0  0  0  0  0  0  0  0  0  0
    2.0639    0.4295    0.0019 C   0  0  0  0  0  0  0  0  0  0  0  0
    3.3322    1.0014    0.0148 C   0  0  0  0  0  0  0  0  0  0  0  0
    1.9668   -0.9693   -0.0038 C   0  0  0  0  0  0  0  0  0  0  0  0
   -0.4806    0.5963   -0.0196 C   0  0  0  0  0  0  0  0  0  0  0  0
   -0.5754   -0.7948   -0.0255 C   0  0  0  0  0  0  0  0  0  0  0  0
    4.4549    0.1935    0.0212 C   0  0  0  0  0  0  0  0  0  0  0  0
    0.8399    1.2596   -0.0062 C   0  0  0  0  0  0  0  0  0  0  0  0
    0.6436   -1.6277   -0.0180 C   0  0  0  0  0  0  0  0  0  0  0  0
    3.7659    2.4150    0.0232 C   0  0  0  0  0  0  0  0  0  0  0  0
   -1.6449    1.3755   -0.0267 C   0  0  0  0  0  0  0  0  0  0  0  0
   -2.9013    0.7571   -0.0401 C   0  0  0  0  0  0  0  0  0  0  0  0
   -2.9979   -0.6331   -0.0464 C   0  0  0  0  0  0  0  0  0  0  0  0
    3.1265   -1.7717    0.0032 C   0  0  0  0  0  0  0  0  0  0  0  0
    4.3914   -1.1866    0.0160 C   0  0  0  0  0  0  0  0  0  0  0  0
   -1.8334   -1.4119   -0.0390 C   0  0  0  0  0  0  0  0  0  0  0  0
    5.6486    1.0242    0.0337 C   0  0  0  0  0  0  0  0  0  0  0  0
   -4.3177   -1.2978   -0.0614 C   0  0  0  0  0  0  0  0  0  0  0  0
   -4.1186    1.5859   -0.0477 C   0  0  0  0  0  0  0  0  0  0  0  0
   -5.5404   -0.4439   -0.0699 C   0  0  0  0  0  0  0  0  0  0  0  0
   -5.4206    0.8894   -0.0630 C   0  0  0  0  0  0  0  0  0  0  0  0
    5.3141   -3.3784    0.0163 C   0  0  0  0  0  0  0  0  0  0  0  0
   -7.9451   -0.5690    0.4773 C   0  0  0  0  0  0  0  0  0  0  0  0
    3.4653    2.9520   -0.8805 H   0  0  0  0  0  0  0  0  0  0  0  0
    3.4496    2.9460    0.9250 H   0  0  0  0  0  0  0  0  0  0  0  0
    2.9885   -2.8477   -0.0018 H   0  0  0  0  0  0  0  0  0  0  0  0
   -1.9060   -2.4967   -0.0438 H   0  0  0  0  0  0  0  0  0  0  0  0
   -6.2931    1.5358   -0.0745 H   0  0  0  0  0  0  0  0  0  0  0  0
   -0.6840    3.0299    0.2745 H   0  0  0  0  0  0  0  0  0  0  0  0
   -6.6869   -2.1151   -0.2002 H   0  0  0  0  0  0  0  0  0  0  0  0
    6.3085   -3.8367    0.0232 H   0  0  0  0  0  0  0  0  0  0  0  0
    4.7986   -3.7188    0.9207 H   0  0  0  0  0  0  0  0  0  0  0  0
    4.8142   -3.7125   -0.8991 H   0  0  0  0  0  0  0  0  0  0  0  0
   -7.7913   -0.2273    1.5063 H   0  0  0  0  0  0  0  0  0  0  0  0
   -8.7177   -1.3442    0.4953 H   0  0  0  0  0  0  0  0  0  0  0  0
   -8.3264    0.2611   -0.1258 H   0  0  0  0  0  0  0  0  0  0  0  0
  1 18  1  0  0  0  0
  1 25  1  0  0  0  0
  2 23  1  0  0  0  0
  2 30  1  0  0  0  0
  3 19  1  0  0  0  0
  3 37  1  0  0  0  0
  4 16  2  0  0  0  0
  5 17  2  0  0  0  0
  6 25  2  0  0  0  0
  7 26  2  0  0  0  0
  8 27  2  0  0  0  0
  9 28  1  0  0  0  0
  9 31  1  0  0  0  0
  9 38  1  0  0  0  0
 10 11  2  0  0  0  0
 10 12  1  0  0  0  0
 10 16  1  0  0  0  0
 11 15  1  0  0  0  0
 11 18  1  0  0  0  0
 12 17  1  0  0  0  0
 12 22  2  0  0  0  0
 13 14  1  0  0  0  0
 13 16  1  0  0  0  0
 13 19  2  0  0  0  0
 14 17  1  0  0  0  0
 14 24  2  0  0  0  0
 15 23  2  0  0  0  0
 15 25  1  0  0  0  0
 18 32  1  0  0  0  0
 18 33  1  0  0  0  0
 19 20  1  0  0  0  0
 20 21  2  0  0  0  0
 20 27  1  0  0  0  0
 21 24  1  0  0  0  0
 21 26  1  0  0  0  0
 22 23  1  0  0  0  0
 22 34  1  0  0  0  0
 24 35  1  0  0  0  0
 26 28  1  0  0  0  0
 27 29  1  0  0  0  0
 28 29  2  0  0  0  0
 29 36  1  0  0  0  0
 30 39  1  0  0  0  0
 30 40  1  0  0  0  0
 30 41  1  0  0  0  0
 31 42  1  0  0  0  0
 31 43  1  0  0  0  0
 31 44  1  0  0  0  0
M  END
> <PUBCHEM_COMPOUND_CID>
132576259

> <PUBCHEM_CONFORMER_RMSD>
0.8

> <PUBCHEM_CONFORMER_DIVERSEORDER>
1

> <PUBCHEM_MMFF94_PARTIAL_CHARGES>
36
1 -0.43
10 0.09
11 -0.14
12 0.09
13 0.09
14 0.09
15 0.09
16 0.4
17 0.4
18 0.42
19 0.08
2 -0.36
20 0.09
21 0.09
22 -0.15
23 0.08
24 -0.15
25 0.63
26 0.47
27 0.47
28 0.11
29 -0.14
3 -0.53
30 0.28
31 0.37
34 0.15
35 0.15
36 0.15
37 0.45
38 0.4
4 -0.57
5 -0.57
6 -0.57
7 -0.57
8 -0.57
9 -0.87

> <PUBCHEM_EFFECTIVE_ROTOR_COUNT>
2.4

> <PUBCHEM_PHARMACOPHORE_FEATURES>
14
1 2 acceptor
1 3 donor
1 4 acceptor
1 5 acceptor
1 6 acceptor
1 7 acceptor
1 8 acceptor
1 9 cation
1 9 donor
5 1 11 15 18 25 rings
6 10 11 12 15 22 23 rings
6 10 12 13 14 16 17 rings
6 13 14 19 20 21 24 rings
6 20 21 26 27 28 29 rings

> <PUBCHEM_HEAVY_ATOM_COUNT>
31

> <PUBCHEM_ATOM_DEF_STEREO_COUNT>
0

> <PUBCHEM_ATOM_UDEF_STEREO_COUNT>
0

> <PUBCHEM_BOND_DEF_STEREO_COUNT>
0

> <PUBCHEM_BOND_UDEF_STEREO_COUNT>
0

> <PUBCHEM_ISOTOPIC_ATOM_COUNT>
0

> <PUBCHEM_COMPONENT_COUNT>
1

> <PUBCHEM_CACTVS_TAUTO_COUNT>
17

> <PUBCHEM_CONFORMER_ID>
07E6F40300000001

> <PUBCHEM_MMFF94_ENERGY>
109.8553

> <PUBCHEM_FEATURE_SELFOVERLAP>
71.203

> <PUBCHEM_SHAPE_FINGERPRINT>
10050765 1 18338234852182126304
10595046 47 18411981398726717884
11578080 2 16952512616965599319
11963148 33 18265326377720816042
12107183 9 17907863903126246040
12166972 35 18260271827971914957
12236239 1 18131070424632109603
12788726 201 17346324756151267000
12838862 33 18339343262591820973
13073987 5 18412544288545614689
13140716 1 18339642222817964376
13402501 40 18410292531649583464
13533116 47 18412824690202280106
13782708 43 17750233608385002930
13785724 45 17908987600433075982
14341114 176 18408606967966906135
14394314 77 18342183241825720977
14790565 3 18411702075507503964
15183329 4 18410856568256111096
15196674 1 18410855438896009396
15927050 60 17478327994739963741
16087824 20 18337953391182776053
17492 89 18339641132076099814
17844677 252 18339930324438589227
1813 80 17095242514305023756
18608769 82 18339921640041090675
18681886 176 18338792420209385576
19591789 44 18410854339526975334
19611394 137 17970078940493929259
20028762 73 18272086063386077350
20721686 56 18407763633526184875
21033648 29 17987786548840481456
21057603 40 16844736313937075990
21130935 74 18342460348598716539
21236236 1 18412262822749565241
21267235 1 18411142402741035399
21279426 13 18337388223469229975
21792934 111 18340756070624594609
22149856 69 18340781377305255825
22393880 68 18042115466814981646
23522609 53 18123502459933646081
23559900 14 18268986501852655562
23569943 247 17315909971283914434
255183 451 18200321992667955174
3004659 81 18333732382431685634
335352 9 18410577310595589036
34797466 226 17775292681062103068
350125 39 18411981399196417633
3545911 37 18410855481692948429
4073 2 18114466776608188210
4144715 1 18336555936270274235
4214541 1 18410855417616624581
4325135 7 18410856585515212037
5104073 3 18412544284239786760
5776283 40 18050856808608086896
59755656 215 18410013260028103614
9709674 26 18335707156506671378

> <PUBCHEM_SHAPE_MULTIPOLES>
586.03
16.86
3.19
0.6
8.93
0.29
0
2.67
0.82
-2.3
-0.02
0.08
0.01
0.07

> <PUBCHEM_SHAPE_SELFOVERLAP>
1348.731

> <PUBCHEM_SHAPE_VOLUME>
299

> <PUBCHEM_COORDINATE_TYPE>
2
5
10

$$$$
