132552407
  -OEChem-03292013293D

 58 61  0     1  0  0  0  0  0999 V2000
   -4.3423    0.4499    2.2596 O   0  0  0  0  0  0  0  0  0  0  0  0
   -5.1516   -1.5511    0.6016 O   0  0  0  0  0  0  0  0  0  0  0  0
   -6.4363    0.8821    0.2250 O   0  0  0  0  0  0  0  0  0  0  0  0
    4.2234    0.6008   -1.6512 O   0  0  0  0  0  0  0  0  0  0  0  0
    4.8847   -0.0575    1.2305 O   0  0  0  0  0  0  0  0  0  0  0  0
    5.5311   -1.4560   -0.4917 O   0  0  0  0  0  0  0  0  0  0  0  0
   -2.0290   -0.8633   -0.2622 C   0  0  1  0  0  0  0  0  0  0  0  0
   -1.3472    0.4212   -0.8551 C   0  0  2  0  0  0  0  0  0  0  0  0
   -3.6312    0.2900    1.0415 C   0  0  1  0  0  0  0  0  0  0  0  0
   -2.4507   -0.6616    1.2025 C   0  0  0  0  0  0  0  0  0  0  0  0
   -3.4166   -1.0716   -0.9672 C   0  0  0  0  0  0  0  0  0  0  0  0
   -4.4689   -0.4501   -0.0228 C   0  0  1  0  0  0  0  0  0  0  0  0
    0.1802    0.6179   -0.4974 C   0  0  2  0  0  0  0  0  0  0  0  0
   -1.1507   -2.1067   -0.4390 C   0  0  0  0  0  0  0  0  0  0  0  0
   -2.2394    1.6740   -0.6401 C   0  0  0  0  0  0  0  0  0  0  0  0
   -3.0915    1.6681    0.6311 C   0  0  0  0  0  0  0  0  0  0  0  0
    0.9288   -0.7341   -0.7428 C   0  0  2  0  0  0  0  0  0  0  0  0
    0.2885   -1.9011    0.0220 C   0  0  0  0  0  0  0  0  0  0  0  0
   -5.5286    0.3775   -0.7385 C   0  0  0  0  0  0  0  0  0  0  0  0
    0.4144    1.1590    0.9316 C   0  0  0  0  0  0  0  0  0  0  0  0
    0.8202    1.6420   -1.4416 C   0  0  0  0  0  0  0  0  0  0  0  0
    2.4224   -0.5586   -0.5682 C   0  0  0  0  0  0  0  0  0  0  0  0
    2.0959    1.5969   -1.8531 C   0  0  0  0  0  0  0  0  0  0  0  0
    3.0300    0.5443   -1.3765 C   0  0  0  0  0  0  0  0  0  0  0  0
    3.2424   -1.2795    0.2088 C   0  0  0  0  0  0  0  0  0  0  0  0
    4.6847   -0.9705    0.2423 C   0  0  0  0  0  0  0  0  0  0  0  0
    6.2405    0.3649    1.4117 C   0  0  0  0  0  0  0  0  0  0  0  0
    6.2964    1.3733    2.5394 C   0  0  0  0  0  0  0  0  0  0  0  0
   -1.3390    0.2670   -1.9476 H   0  0  0  0  0  0  0  0  0  0  0  0
   -2.7446   -1.5997    1.6886 H   0  0  0  0  0  0  0  0  0  0  0  0
   -1.6817   -0.2424    1.8494 H   0  0  0  0  0  0  0  0  0  0  0  0
   -3.6161   -2.1390   -1.1263 H   0  0  0  0  0  0  0  0  0  0  0  0
   -3.4283   -0.6016   -1.9572 H   0  0  0  0  0  0  0  0  0  0  0  0
   -1.1398   -2.3938   -1.4992 H   0  0  0  0  0  0  0  0  0  0  0  0
   -1.5814   -2.9597    0.1004 H   0  0  0  0  0  0  0  0  0  0  0  0
   -2.9185    1.7447   -1.4991 H   0  0  0  0  0  0  0  0  0  0  0  0
   -1.6623    2.6033   -0.6728 H   0  0  0  0  0  0  0  0  0  0  0  0
   -2.4933    2.0708    1.4594 H   0  0  0  0  0  0  0  0  0  0  0  0
   -3.9165    2.3835    0.5230 H   0  0  0  0  0  0  0  0  0  0  0  0
    0.8039   -0.9912   -1.8090 H   0  0  0  0  0  0  0  0  0  0  0  0
    0.3241   -1.7417    1.1050 H   0  0  0  0  0  0  0  0  0  0  0  0
    0.8408   -2.8282   -0.1767 H   0  0  0  0  0  0  0  0  0  0  0  0
   -6.0992   -0.2510   -1.4312 H   0  0  0  0  0  0  0  0  0  0  0  0
   -5.1068    1.2145   -1.2995 H   0  0  0  0  0  0  0  0  0  0  0  0
    0.2156    0.4151    1.7035 H   0  0  0  0  0  0  0  0  0  0  0  0
   -0.1955    2.0425    1.1409 H   0  0  0  0  0  0  0  0  0  0  0  0
    1.4554    1.4705    1.0855 H   0  0  0  0  0  0  0  0  0  0  0  0
    0.2158    2.4744   -1.7907 H   0  0  0  0  0  0  0  0  0  0  0  0
   -3.7156    0.7577    2.9364 H   0  0  0  0  0  0  0  0  0  0  0  0
   -4.5065   -2.2113    0.9015 H   0  0  0  0  0  0  0  0  0  0  0  0
    2.4974    2.3623   -2.5079 H   0  0  0  0  0  0  0  0  0  0  0  0
   -7.1078    1.3962   -0.2548 H   0  0  0  0  0  0  0  0  0  0  0  0
    2.9030   -2.0978    0.8312 H   0  0  0  0  0  0  0  0  0  0  0  0
    6.8631   -0.5022    1.6588 H   0  0  0  0  0  0  0  0  0  0  0  0
    6.6064    0.8236    0.4863 H   0  0  0  0  0  0  0  0  0  0  0  0
    5.6635    2.2381    2.3143 H   0  0  0  0  0  0  0  0  0  0  0  0
    5.9164    0.9346    3.4679 H   0  0  0  0  0  0  0  0  0  0  0  0
    7.3207    1.7187    2.7050 H   0  0  0  0  0  0  0  0  0  0  0  0
  1  9  1  0  0  0  0
  1 49  1  0  0  0  0
  2 12  1  0  0  0  0
  2 50  1  0  0  0  0
  3 19  1  0  0  0  0
  3 52  1  0  0  0  0
  4 24  2  0  0  0  0
  5 26  1  0  0  0  0
  5 27  1  0  0  0  0
  6 26  2  0  0  0  0
  7  8  1  0  0  0  0
  7 10  1  0  0  0  0
  7 11  1  0  0  0  0
  7 14  1  0  0  0  0
  8 13  1  0  0  0  0
  8 15  1  0  0  0  0
  8 29  1  0  0  0  0
  9 10  1  0  0  0  0
  9 12  1  0  0  0  0
  9 16  1  0  0  0  0
 10 30  1  0  0  0  0
 10 31  1  0  0  0  0
 11 12  1  0  0  0  0
 11 32  1  0  0  0  0
 11 33  1  0  0  0  0
 12 19  1  0  0  0  0
 13 17  1  0  0  0  0
 13 20  1  0  0  0  0
 13 21  1  0  0  0  0
 14 18  1  0  0  0  0
 14 34  1  0  0  0  0
 14 35  1  0  0  0  0
 15 16  1  0  0  0  0
 15 36  1  0  0  0  0
 15 37  1  0  0  0  0
 16 38  1  0  0  0  0
 16 39  1  0  0  0  0
 17 18  1  0  0  0  0
 17 22  1  0  0  0  0
 17 40  1  0  0  0  0
 18 41  1  0  0  0  0
 18 42  1  0  0  0  0
 19 43  1  0  0  0  0
 19 44  1  0  0  0  0
 20 45  1  0  0  0  0
 20 46  1  0  0  0  0
 20 47  1  0  0  0  0
 21 23  2  0  0  0  0
 21 48  1  0  0  0  0
 22 24  1  0  0  0  0
 22 25  2  0  0  0  0
 23 24  1  0  0  0  0
 23 51  1  0  0  0  0
 25 26  1  0  0  0  0
 25 53  1  0  0  0  0
 27 28  1  0  0  0  0
 27 54  1  0  0  0  0
 27 55  1  0  0  0  0
 28 56  1  0  0  0  0
 28 57  1  0  0  0  0
 28 58  1  0  0  0  0
M  END
> <PUBCHEM_COMPOUND_CID>
132552407

> <PUBCHEM_CONFORMER_RMSD>
0.8

> <PUBCHEM_CONFORMER_DIVERSEORDER>
1
3
2
4

> <PUBCHEM_MMFF94_PARTIAL_CHARGES>
24
1 -0.68
12 0.28
13 0.14
17 0.14
19 0.28
2 -0.68
21 -0.29
22 -0.12
23 -0.14
24 0.54
25 -0.14
26 0.71
27 0.28
3 -0.68
4 -0.57
48 0.15
49 0.4
5 -0.43
50 0.4
51 0.15
52 0.4
53 0.15
6 -0.57
9 0.28

> <PUBCHEM_EFFECTIVE_ROTOR_COUNT>
5.4

> <PUBCHEM_PHARMACOPHORE_FEATURES>
11
1 1 acceptor
1 1 donor
1 2 acceptor
1 2 donor
1 3 acceptor
1 3 donor
1 4 acceptor
1 6 acceptor
6 13 17 21 22 23 24 rings
6 7 8 13 14 17 18 rings
8 7 8 9 10 11 12 15 16 rings

> <PUBCHEM_HEAVY_ATOM_COUNT>
28

> <PUBCHEM_ATOM_DEF_STEREO_COUNT>
6

> <PUBCHEM_ATOM_UDEF_STEREO_COUNT>
0

> <PUBCHEM_BOND_DEF_STEREO_COUNT>
1

> <PUBCHEM_BOND_UDEF_STEREO_COUNT>
0

> <PUBCHEM_ISOTOPIC_ATOM_COUNT>
0

> <PUBCHEM_COMPONENT_COUNT>
1

> <PUBCHEM_CACTVS_TAUTO_COUNT>
1

> <PUBCHEM_CONFORMER_ID>
07E696D700000001

> <PUBCHEM_MMFF94_ENERGY>
118.7407

> <PUBCHEM_FEATURE_SELFOVERLAP>
55.885

> <PUBCHEM_SHAPE_FINGERPRINT>
10 15 18411691115426126912
10674148 151 11314296210275432054
11796584 16 15357698569939235818
12236239 1 18410579491616230975
12403259 118 18113618949905734596
12422481 6 18188777115373354332
12507557 5 18260268547191640623
12553582 1 18040156206483934646
12596602 18 17847058882901584514
12633257 1 17458072559578038050
12788726 201 18339380581605205060
13140716 1 18190747620509622215
13224815 77 18339093652372735247
13533116 47 14996278112011858408
13782708 43 15357701911365756985
14347332 77 7853315141232455384
15183329 4 17458062647141438079
15196674 1 18187654630197640367
15788980 27 17385729096991015071
15961568 22 16630528453401373800
16945 1 18189920655185758839
17349148 13 18334869311123402686
17857418 61 16588021308148786576
17980427 23 18200864201643620100
1813 80 17240202110811325502
18222031 100 18113622257668466126
200 152 18410015438367664157
20028762 73 18335987557484030451
20511986 3 18271230660513540815
20567600 234 18201430437341870624
20832881 197 16225764112576095876
21033648 29 18270100345660016456
21267235 1 18114754750207988678
21344244 181 7997686549746375248
21859007 373 17823114770960375101
22182313 1 18118405046833273990
23402539 116 18260829298111348055
23559900 14 14345800486497654135
23569917 315 18412553098073217735
25147074 1 18044656632009173806
2838139 119 15841543085996268504
296302 2 14764634092460370447
3004659 81 17313391119393994102
335352 9 18187369813652257007
34797466 226 16272214101945212732
350125 39 18334580126960334613
392239 28 18273208682453948392
4325135 7 15482665797414150597
5104073 3 17895204354120055161
542803 24 15339119035137725986
57527585 21 14907335231094875689
6086070 43 16081909556132331359

> <PUBCHEM_SHAPE_MULTIPOLES>
541.01
13.89
1.87
1.77
6.62
0.17
-0.53
-0.94
-6.4
0.03
0.19
1.69
-0.8
0.36

> <PUBCHEM_SHAPE_SELFOVERLAP>
1168.73

> <PUBCHEM_SHAPE_VOLUME>
293.4

> <PUBCHEM_COORDINATE_TYPE>
2
5
10

$$$$
