132555
  -OEChem-03292013323D

 50 50  0     0  0  0  0  0  0999 V2000
    0.3564   -1.1717    0.0031 N   0  0  0  0  0  0  0  0  0  0  0  0
   -2.7752    2.2864   -0.1255 N   0  0  0  0  0  0  0  0  0  0  0  0
    9.0611    0.0367   -0.0338 N   0  0  0  0  0  0  0  0  0  0  0  0
   -1.1738    0.5748   -0.0629 N   0  0  0  0  0  0  0  0  0  0  0  0
   -1.9034   -1.7098    0.0167 N   0  0  0  0  0  0  0  0  0  0  0  0
   -3.5182    0.0639   -0.0492 N   0  0  0  0  0  0  0  0  0  0  0  0
   -4.2011   -2.1782    0.0295 N   0  0  0  0  0  0  0  0  0  0  0  0
    4.0276   -0.1368   -0.0259 C   0  0  0  0  0  0  0  0  0  0  0  0
    5.3222   -0.9535   -0.0114 C   0  0  0  0  0  0  0  0  0  0  0  0
    2.7976   -1.0511   -0.0010 C   0  0  0  0  0  0  0  0  0  0  0  0
    6.5877   -0.0879    0.0026 C   0  0  0  0  0  0  0  0  0  0  0  0
    1.4848   -0.2728   -0.0264 C   0  0  0  0  0  0  0  0  0  0  0  0
    7.9099   -0.8572   -0.0392 C   0  0  0  0  0  0  0  0  0  0  0  0
   -1.7671    3.2996   -0.1575 C   0  0  0  0  0  0  0  0  0  0  0  0
   -0.9641   -0.7507   -0.0154 C   0  0  0  0  0  0  0  0  0  0  0  0
   -2.4744    0.9082   -0.0770 C   0  0  0  0  0  0  0  0  0  0  0  0
   -2.3565    4.5860   -0.7213 C   0  0  0  0  0  0  0  0  0  0  0  0
   -1.2213    3.5090    1.2487 C   0  0  0  0  0  0  0  0  0  0  0  0
   -3.1568   -1.2285   -0.0027 C   0  0  0  0  0  0  0  0  0  0  0  0
   -5.5827   -1.8120    0.0140 C   0  0  0  0  0  0  0  0  0  0  0  0
   -6.4525   -3.0543    0.0346 C   0  0  0  0  0  0  0  0  0  0  0  0
    4.0048    0.5321    0.8426 H   0  0  0  0  0  0  0  0  0  0  0  0
    4.0008    0.4937   -0.9225 H   0  0  0  0  0  0  0  0  0  0  0  0
    5.3317   -1.6082    0.8688 H   0  0  0  0  0  0  0  0  0  0  0  0
    5.3471   -1.6068   -0.8923 H   0  0  0  0  0  0  0  0  0  0  0  0
    2.8323   -1.7330   -0.8604 H   0  0  0  0  0  0  0  0  0  0  0  0
    2.8298   -1.6813    0.8971 H   0  0  0  0  0  0  0  0  0  0  0  0
    6.5502    0.5964   -0.8554 H   0  0  0  0  0  0  0  0  0  0  0  0
    6.5680    0.5423    0.9015 H   0  0  0  0  0  0  0  0  0  0  0  0
    1.4465    0.4007    0.8383 H   0  0  0  0  0  0  0  0  0  0  0  0
    1.4471    0.3428   -0.9331 H   0  0  0  0  0  0  0  0  0  0  0  0
    7.9718   -1.5303    0.8230 H   0  0  0  0  0  0  0  0  0  0  0  0
    7.9461   -1.4764   -0.9421 H   0  0  0  0  0  0  0  0  0  0  0  0
    0.5159   -2.1721    0.0397 H   0  0  0  0  0  0  0  0  0  0  0  0
   -0.9448    3.0077   -0.8229 H   0  0  0  0  0  0  0  0  0  0  0  0
   -3.7564    2.5372   -0.0833 H   0  0  0  0  0  0  0  0  0  0  0  0
    9.0526    0.6015    0.8146 H   0  0  0  0  0  0  0  0  0  0  0  0
    9.9176   -0.5147   -0.0021 H   0  0  0  0  0  0  0  0  0  0  0  0
   -1.5976    5.3738   -0.7727 H   0  0  0  0  0  0  0  0  0  0  0  0
   -2.7462    4.4254   -1.7327 H   0  0  0  0  0  0  0  0  0  0  0  0
   -3.1843    4.9522   -0.1034 H   0  0  0  0  0  0  0  0  0  0  0  0
   -0.4685    4.3048    1.2563 H   0  0  0  0  0  0  0  0  0  0  0  0
   -0.7469    2.6048    1.6435 H   0  0  0  0  0  0  0  0  0  0  0  0
   -2.0174    3.7931    1.9466 H   0  0  0  0  0  0  0  0  0  0  0  0
   -3.9247   -3.1527    0.0666 H   0  0  0  0  0  0  0  0  0  0  0  0
   -5.8240   -1.1933    0.8861 H   0  0  0  0  0  0  0  0  0  0  0  0
   -5.8151   -1.2315   -0.8864 H   0  0  0  0  0  0  0  0  0  0  0  0
   -6.2539   -3.6886   -0.8360 H   0  0  0  0  0  0  0  0  0  0  0  0
   -6.2649   -3.6516    0.9333 H   0  0  0  0  0  0  0  0  0  0  0  0
   -7.5118   -2.7794    0.0223 H   0  0  0  0  0  0  0  0  0  0  0  0
  1 12  1  0  0  0  0
  1 15  1  0  0  0  0
  1 34  1  0  0  0  0
  2 14  1  0  0  0  0
  2 16  1  0  0  0  0
  2 36  1  0  0  0  0
  3 13  1  0  0  0  0
  3 37  1  0  0  0  0
  3 38  1  0  0  0  0
  4 15  2  0  0  0  0
  4 16  1  0  0  0  0
  5 15  1  0  0  0  0
  5 19  2  0  0  0  0
  6 16  2  0  0  0  0
  6 19  1  0  0  0  0
  7 19  1  0  0  0  0
  7 20  1  0  0  0  0
  7 45  1  0  0  0  0
  8  9  1  0  0  0  0
  8 10  1  0  0  0  0
  8 22  1  0  0  0  0
  8 23  1  0  0  0  0
  9 11  1  0  0  0  0
  9 24  1  0  0  0  0
  9 25  1  0  0  0  0
 10 12  1  0  0  0  0
 10 26  1  0  0  0  0
 10 27  1  0  0  0  0
 11 13  1  0  0  0  0
 11 28  1  0  0  0  0
 11 29  1  0  0  0  0
 12 30  1  0  0  0  0
 12 31  1  0  0  0  0
 13 32  1  0  0  0  0
 13 33  1  0  0  0  0
 14 17  1  0  0  0  0
 14 18  1  0  0  0  0
 14 35  1  0  0  0  0
 17 39  1  0  0  0  0
 17 40  1  0  0  0  0
 17 41  1  0  0  0  0
 18 42  1  0  0  0  0
 18 43  1  0  0  0  0
 18 44  1  0  0  0  0
 20 21  1  0  0  0  0
 20 46  1  0  0  0  0
 20 47  1  0  0  0  0
 21 48  1  0  0  0  0
 21 49  1  0  0  0  0
 21 50  1  0  0  0  0
M  END
> <PUBCHEM_COMPOUND_CID>
132555

> <PUBCHEM_CONFORMER_RMSD>
1

> <PUBCHEM_CONFORMER_DIVERSEORDER>
1
69
53
79
76
73
45
24
128
81
50
115
36
136
111
86
78
30
108
68
138
12
124
8
101
141
144
122
98
5
2
129
51
105
64
17
18
61
125
131
19
121
107
21
95
26
117
10
118
83
27
119
62
123
56
57
102
31
40
58
87
110
15
84
54
34
91
23
143
135
14
13
92
89
109
63
3
22
142
16
47
32
6
90
25
114
132
127
133
120
44
71
43
99
41
134
67
103
77
97
93
94
46
100
9
74
4
28
82
96
116
130
106
72
29
139
7
88
38
60
113
33
140
126
75
66
59
49
80
52
48
35
39
137
65
112
70
37
55
20
11
85
104
42

> <PUBCHEM_MMFF94_PARTIAL_CHARGES>
19
1 -0.87
12 0.37
13 0.27
14 0.37
15 0.72
16 0.72
19 0.72
2 -0.87
20 0.37
3 -0.99
34 0.4
36 0.4
37 0.36
38 0.36
4 -0.62
45 0.4
5 -0.62
6 -0.62
7 -0.87

> <PUBCHEM_EFFECTIVE_ROTOR_COUNT>
11

> <PUBCHEM_PHARMACOPHORE_FEATURES>
11
1 1 donor
1 2 donor
1 3 cation
1 3 donor
1 7 donor
3 14 17 18 hydrophobe
4 1 4 5 15 cation
4 2 4 6 16 cation
4 5 6 7 19 cation
4 8 9 10 11 hydrophobe
6 4 5 6 15 16 19 rings

> <PUBCHEM_HEAVY_ATOM_COUNT>
21

> <PUBCHEM_ATOM_DEF_STEREO_COUNT>
0

> <PUBCHEM_ATOM_UDEF_STEREO_COUNT>
0

> <PUBCHEM_BOND_DEF_STEREO_COUNT>
0

> <PUBCHEM_BOND_UDEF_STEREO_COUNT>
0

> <PUBCHEM_ISOTOPIC_ATOM_COUNT>
0

> <PUBCHEM_COMPONENT_COUNT>
1

> <PUBCHEM_CACTVS_TAUTO_COUNT>
17

> <PUBCHEM_CONFORMER_ID>
000205CB00000001

> <PUBCHEM_MMFF94_ENERGY>
38.2684

> <PUBCHEM_FEATURE_SELFOVERLAP>
55.955

> <PUBCHEM_SHAPE_FINGERPRINT>
10050765 1 18193556671319707914
100830 39 18338797794168241680
10411042 1 18337954623104497743
10595046 47 18334012770998123762
11101153 10 18335706095945629332
11315181 36 17385730226852672690
12107183 9 17613146374659848538
12166972 35 17822009864810788532
12788726 201 18261104162985944395
13073987 5 18335980871052796394
13631057 29 18409728456757628714
14508225 48 18339631335318722325
15419008 47 17989200461086538456
15778101 99 18267869380917293392
16087824 20 18337670807998774221
17844677 252 18411143533192783204
18006028 8 18411135883508369759
19427546 20 18334574595079367477
20238998 120 18342455976564524257
20721686 56 18264209278412219320
20771845 65 18057608875121677699
21267235 1 18409732906059397754
21304253 13 18272375308780675817
21304303 172 18273500079274604345
21315763 129 18410856556384162980
21315763 28 18409166607186428854
21426921 1 18410010992438475381
2297311 6 18413109471929418154
23081809 10 17822016364241148694
23402539 116 18341891914035231751
23557571 272 18342181050494645911
249057 25 17822302275676197860
283562 15 18334575707565619891
445580 37 18338527357362665340
57816332 4 17975141152247220905
59567204 34 18410571748265352525
5969126 39 18342167882610200319
6327066 14 17973720272985195828
7808743 9 18192711150956429992

> <PUBCHEM_SHAPE_MULTIPOLES>
397.3
18.99
4.4
0.7
47.28
6.5
0.08
-13.77
-0.41
-9.96
-0.1
-0.16
0.42
0.3

> <PUBCHEM_SHAPE_SELFOVERLAP>
769.663

> <PUBCHEM_SHAPE_VOLUME>
230.4

> <PUBCHEM_COORDINATE_TYPE>
2
5
10

$$$$
