132577716
  -OEChem-03292013293D

 52 55  0     1  0  0  0  0  0999 V2000
   -4.9343    0.8231    0.1608 O   0  0  0  0  0  0  0  0  0  0  0  0
    2.6202    2.6339    0.7683 O   0  0  0  0  0  0  0  0  0  0  0  0
    2.6488    0.8937    2.3403 O   0  0  0  0  0  0  0  0  0  0  0  0
    1.1882    3.7479   -0.6394 O   0  0  0  0  0  0  0  0  0  0  0  0
    4.8857   -0.0172    1.3621 O   0  0  0  0  0  0  0  0  0  0  0  0
    5.0695    1.7797   -0.0283 O   0  0  0  0  0  0  0  0  0  0  0  0
    2.2543   -5.0660   -0.5241 O   0  0  0  0  0  0  0  0  0  0  0  0
   -5.4167   -0.3860    0.7768 C   0  0  0  0  0  0  0  0  0  0  0  0
   -4.9177   -1.6392    0.0393 C   0  0  0  0  0  0  0  0  0  0  0  0
   -3.3973   -1.6787   -0.0228 C   0  0  0  0  0  0  0  0  0  0  0  0
   -2.8610   -0.3357   -0.4208 C   0  0  0  0  0  0  0  0  0  0  0  0
   -3.6442    0.8184   -0.3003 C   0  0  0  0  0  0  0  0  0  0  0  0
   -5.0278   -0.3775    2.2629 C   0  0  0  0  0  0  0  0  0  0  0  0
   -6.9479   -0.3275    0.6732 C   0  0  0  0  0  0  0  0  0  0  0  0
   -1.0305    1.0195   -1.2616 C   0  0  0  0  0  0  0  0  0  0  0  0
   -1.5460   -0.2229   -0.8919 C   0  0  0  0  0  0  0  0  0  0  0  0
    0.3679    1.1253   -1.7685 C   0  0  0  0  0  0  0  0  0  0  0  0
    1.3661    1.3601   -0.6969 C   0  0  0  0  0  0  0  0  0  0  0  0
   -3.1282    2.0606   -0.6805 C   0  0  0  0  0  0  0  0  0  0  0  0
    2.1165    0.5232    0.0267 C   0  0  0  0  0  0  0  0  0  0  0  0
   -1.8228    2.1603   -1.1593 C   0  0  0  0  0  0  0  0  0  0  0  0
    2.9447    1.2666    1.0137 C   0  0  1  0  0  0  0  0  0  0  0  0
    1.6816    2.7156   -0.2182 C   0  0  0  0  0  0  0  0  0  0  0  0
    2.1538   -0.9365   -0.1165 C   0  0  0  0  0  0  0  0  0  0  0  0
    4.4033    1.0678    0.7082 C   0  0  0  0  0  0  0  0  0  0  0  0
    2.5381   -1.5086   -1.3293 C   0  0  0  0  0  0  0  0  0  0  0  0
    1.8039   -1.7521    0.9596 C   0  0  0  0  0  0  0  0  0  0  0  0
    2.5721   -2.8961   -1.4661 C   0  0  0  0  0  0  0  0  0  0  0  0
    1.8378   -3.1399    0.8228 C   0  0  0  0  0  0  0  0  0  0  0  0
    2.2219   -3.7119   -0.3901 C   0  0  0  0  0  0  0  0  0  0  0  0
   -5.2999   -1.6247   -0.9911 H   0  0  0  0  0  0  0  0  0  0  0  0
   -5.2962   -2.5547    0.5091 H   0  0  0  0  0  0  0  0  0  0  0  0
   -3.0880   -2.4424   -0.7460 H   0  0  0  0  0  0  0  0  0  0  0  0
   -2.9802   -1.9567    0.9520 H   0  0  0  0  0  0  0  0  0  0  0  0
   -7.4184   -1.2026    1.1335 H   0  0  0  0  0  0  0  0  0  0  0  0
   -7.2658   -0.2729   -0.3745 H   0  0  0  0  0  0  0  0  0  0  0  0
   -7.3392    0.5736    1.1596 H   0  0  0  0  0  0  0  0  0  0  0  0
   -5.3984   -1.2697    2.7783 H   0  0  0  0  0  0  0  0  0  0  0  0
   -3.9434   -0.3241    2.4033 H   0  0  0  0  0  0  0  0  0  0  0  0
   -5.4384    0.5068    2.7643 H   0  0  0  0  0  0  0  0  0  0  0  0
   -0.9302   -1.1155   -0.9753 H   0  0  0  0  0  0  0  0  0  0  0  0
    0.6103    0.2223   -2.3409 H   0  0  0  0  0  0  0  0  0  0  0  0
    0.4320    1.9283   -2.5153 H   0  0  0  0  0  0  0  0  0  0  0  0
   -3.7378    2.9570   -0.6004 H   0  0  0  0  0  0  0  0  0  0  0  0
   -1.4390    3.1344   -1.4497 H   0  0  0  0  0  0  0  0  0  0  0  0
    2.8263   -0.8908   -2.1764 H   0  0  0  0  0  0  0  0  0  0  0  0
    1.4775   -1.3433    1.9100 H   0  0  0  0  0  0  0  0  0  0  0  0
    1.7031    0.6807    2.4043 H   0  0  0  0  0  0  0  0  0  0  0  0
    2.8744   -3.3360   -2.4126 H   0  0  0  0  0  0  0  0  0  0  0  0
    1.5575   -3.7645    1.6667 H   0  0  0  0  0  0  0  0  0  0  0  0
    5.8365   -0.1664    1.1728 H   0  0  0  0  0  0  0  0  0  0  0  0
    1.9822   -5.4723    0.3167 H   0  0  0  0  0  0  0  0  0  0  0  0
  1  8  1  0  0  0  0
  1 12  1  0  0  0  0
  2 22  1  0  0  0  0
  2 23  1  0  0  0  0
  3 22  1  0  0  0  0
  3 48  1  0  0  0  0
  4 23  2  0  0  0  0
  5 25  1  0  0  0  0
  5 51  1  0  0  0  0
  6 25  2  0  0  0  0
  7 30  1  0  0  0  0
  7 52  1  0  0  0  0
  8  9  1  0  0  0  0
  8 13  1  0  0  0  0
  8 14  1  0  0  0  0
  9 10  1  0  0  0  0
  9 31  1  0  0  0  0
  9 32  1  0  0  0  0
 10 11  1  0  0  0  0
 10 33  1  0  0  0  0
 10 34  1  0  0  0  0
 11 12  2  0  0  0  0
 11 16  1  0  0  0  0
 12 19  1  0  0  0  0
 13 38  1  0  0  0  0
 13 39  1  0  0  0  0
 13 40  1  0  0  0  0
 14 35  1  0  0  0  0
 14 36  1  0  0  0  0
 14 37  1  0  0  0  0
 15 16  2  0  0  0  0
 15 17  1  0  0  0  0
 15 21  1  0  0  0  0
 16 41  1  0  0  0  0
 17 18  1  0  0  0  0
 17 42  1  0  0  0  0
 17 43  1  0  0  0  0
 18 20  2  0  0  0  0
 18 23  1  0  0  0  0
 19 21  2  0  0  0  0
 19 44  1  0  0  0  0
 20 22  1  0  0  0  0
 20 24  1  0  0  0  0
 21 45  1  0  0  0  0
 22 25  1  0  0  0  0
 24 26  2  0  0  0  0
 24 27  1  0  0  0  0
 26 28  1  0  0  0  0
 26 46  1  0  0  0  0
 27 29  2  0  0  0  0
 27 47  1  0  0  0  0
 28 30  2  0  0  0  0
 28 49  1  0  0  0  0
 29 30  1  0  0  0  0
 29 50  1  0  0  0  0
M  END
> <PUBCHEM_COMPOUND_CID>
132577716

> <PUBCHEM_CONFORMER_RMSD>
0.8

> <PUBCHEM_CONFORMER_DIVERSEORDER>
1
15
14
20
38
18
12
17
31
22
35
10
32
13
36
30
33
23
19
25
7
2
37
8
41
26
28
29
24
3
4
21
27
11
16
39
5
34
9
6
40

> <PUBCHEM_MMFF94_PARTIAL_CHARGES>
37
1 -0.36
10 0.14
11 -0.14
12 0.08
15 -0.14
16 -0.15
17 0.28
18 -0.12
19 -0.15
2 -0.43
20 -0.17
21 -0.15
22 0.76
23 0.71
24 0.03
25 0.66
26 -0.15
27 -0.15
28 -0.15
29 -0.15
3 -0.68
30 0.08
4 -0.57
41 0.15
44 0.15
45 0.15
46 0.15
47 0.15
48 0.4
49 0.15
5 -0.65
50 0.15
51 0.5
52 0.45
6 -0.57
7 -0.53
8 0.28

> <PUBCHEM_EFFECTIVE_ROTOR_COUNT>
5.2

> <PUBCHEM_PHARMACOPHORE_FEATURES>
13
1 1 acceptor
1 3 acceptor
1 3 donor
1 4 acceptor
1 5 acceptor
1 6 acceptor
1 7 donor
3 5 6 25 anion
3 8 13 14 hydrophobe
5 2 18 20 22 23 rings
6 1 8 9 10 11 12 rings
6 11 12 15 16 19 21 rings
6 24 26 27 28 29 30 rings

> <PUBCHEM_HEAVY_ATOM_COUNT>
30

> <PUBCHEM_ATOM_DEF_STEREO_COUNT>
1

> <PUBCHEM_ATOM_UDEF_STEREO_COUNT>
0

> <PUBCHEM_BOND_DEF_STEREO_COUNT>
0

> <PUBCHEM_BOND_UDEF_STEREO_COUNT>
0

> <PUBCHEM_ISOTOPIC_ATOM_COUNT>
0

> <PUBCHEM_COMPONENT_COUNT>
1

> <PUBCHEM_CACTVS_TAUTO_COUNT>
130

> <PUBCHEM_CONFORMER_ID>
07E6F9B400000001

> <PUBCHEM_MMFF94_ENERGY>
76.935

> <PUBCHEM_FEATURE_SELFOVERLAP>
66.068

> <PUBCHEM_SHAPE_FINGERPRINT>
11421498 54 18060144236449138696
11445158 3 17750504247676035548
114674 6 18260270733035108627
11578080 2 16954204696768020052
12035758 1 18339625825112714296
12107183 9 17839193917994554761
12422481 6 18053628475325470306
12596602 18 17489591216372522283
12633257 1 18337668736684703817
12778500 126 17560816389597425595
13140716 1 18046625882634585159
13150687 139 17534373272900498940
13402501 40 18259984881211935970
13533116 47 18412833465311115127
13583140 156 18130495397421056405
14790565 3 18265051513046661060
14863182 85 18335988635888931102
15064986 96 17487616321078655711
15664445 248 17095540499188696661
17809404 112 17604130576743612439
17909252 39 18195817262957678950
17974551 9 17556848131694940825
1813 80 17022908939112583029
1979834 28 18335989756849092795
20028762 73 18125715927242985606
20739085 24 18115871986928749989
20775530 9 18191870020129142015
21133410 32 16522500263494672226
21197605 99 18047758379960185723
21365058 27 18341060726146437166
22182313 1 18187355485899430645
22224240 67 18269548493870322144
23466295 7 17331406367927653398
23559900 14 18261960652647671397
25222932 49 16806450399607463171
255183 313 18124284308138958304
3117164 225 18196385715096425345
3178227 256 18411133654625863928
3421961 26 18340207367025264606
3737641 26 18268435646305632790
394071 54 18409172130118531635
4461854 278 17976842087355302059
5104073 3 18266462010449864817
58260988 521 18334005074427343986
59755656 215 18411704287473638446
6287921 2 18410575093628008163
6371380 46 17472129579822401765
6442390 28 18268143335337333278
6823239 73 18336547088663719178
7097593 13 18413387618717866389
7288768 16 16983185962864552128
86090 222 17604169072646270099

> <PUBCHEM_SHAPE_MULTIPOLES>
576.3
11.67
4.35
1.58
16.1
3.38
0.44
1.11
4.94
-5.28
-1.01
-0.24
-0.05
1.67

> <PUBCHEM_SHAPE_SELFOVERLAP>
1273.717

> <PUBCHEM_SHAPE_VOLUME>
307.7

> <PUBCHEM_COORDINATE_TYPE>
2
5
10

$$$$
