132576376
  -OEChem-03292013293D

 45 48  0     1  0  0  0  0  0999 V2000
    2.5154   -1.8457    0.6775 O   0  0  0  0  0  0  0  0  0  0  0  0
    1.0813   -0.8255    2.2007 O   0  0  0  0  0  0  0  0  0  0  0  0
    4.7344   -1.8059    0.0908 O   0  0  0  0  0  0  0  0  0  0  0  0
   -0.2824    2.8268   -0.5926 O   0  0  0  0  0  0  0  0  0  0  0  0
    1.2721    1.7311   -1.8972 O   0  0  0  0  0  0  0  0  0  0  0  0
   -1.5344   -0.0549    1.1737 N   0  0  0  0  0  0  0  0  0  0  0  0
    0.5699   -1.9358   -1.2011 N   0  0  0  0  0  0  0  0  0  0  0  0
    1.4674   -0.8682    0.8253 C   0  0  1  0  0  0  0  0  0  0  0  0
    2.1567    0.4145    0.4797 C   0  0  0  0  0  0  0  0  0  0  0  0
    0.2990   -1.2026   -0.0968 C   0  0  0  0  0  0  0  0  0  0  0  0
   -1.0066   -0.7943    0.1434 C   0  0  0  0  0  0  0  0  0  0  0  0
    3.4384    0.2055    0.1662 C   0  0  0  0  0  0  0  0  0  0  0  0
   -2.0548   -1.1155   -0.7183 C   0  0  0  0  0  0  0  0  0  0  0  0
    1.4415    1.7236    0.5357 C   0  0  0  0  0  0  0  0  0  0  0  0
   -3.2462   -0.5418   -0.1712 C   0  0  0  0  0  0  0  0  0  0  0  0
    3.6743   -1.2394    0.2948 C   0  0  0  0  0  0  0  0  0  0  0  0
    4.5197    1.1351   -0.2387 C   0  0  0  0  0  0  0  0  0  0  0  0
   -2.8895    0.1125    1.0086 C   0  0  0  0  0  0  0  0  0  0  0  0
   -1.7695   -1.8765   -1.8629 C   0  0  0  0  0  0  0  0  0  0  0  0
   -0.4438   -2.2493   -2.0394 C   0  0  0  0  0  0  0  0  0  0  0  0
   -4.5984   -0.5194   -0.5726 C   0  0  0  0  0  0  0  0  0  0  0  0
    5.2997    1.6689    0.9551 C   0  0  0  0  0  0  0  0  0  0  0  0
   -3.8172    0.7891    1.8089 C   0  0  0  0  0  0  0  0  0  0  0  0
    0.8332    2.0653   -0.8052 C   0  0  0  0  0  0  0  0  0  0  0  0
   -5.5375    0.1531    0.2173 C   0  0  0  0  0  0  0  0  0  0  0  0
   -5.1504    0.7967    1.3903 C   0  0  0  0  0  0  0  0  0  0  0  0
   -0.9724    3.2525   -1.7720 C   0  0  0  0  0  0  0  0  0  0  0  0
    2.1338    2.5337    0.7922 H   0  0  0  0  0  0  0  0  0  0  0  0
    0.6754    1.7088    1.3159 H   0  0  0  0  0  0  0  0  0  0  0  0
    5.2062    0.6394   -0.9350 H   0  0  0  0  0  0  0  0  0  0  0  0
    4.0947    1.9824   -0.7899 H   0  0  0  0  0  0  0  0  0  0  0  0
   -1.0055    0.3059    1.9553 H   0  0  0  0  0  0  0  0  0  0  0  0
   -2.5354   -2.1616   -2.5750 H   0  0  0  0  0  0  0  0  0  0  0  0
    1.6586   -0.2063    2.6781 H   0  0  0  0  0  0  0  0  0  0  0  0
   -0.1527   -2.8386   -2.9038 H   0  0  0  0  0  0  0  0  0  0  0  0
   -4.9157   -1.0169   -1.4848 H   0  0  0  0  0  0  0  0  0  0  0  0
    4.6475    2.2145    1.6453 H   0  0  0  0  0  0  0  0  0  0  0  0
    6.0828    2.3552    0.6174 H   0  0  0  0  0  0  0  0  0  0  0  0
    5.7796    0.8558    1.5101 H   0  0  0  0  0  0  0  0  0  0  0  0
   -3.5163    1.2912    2.7223 H   0  0  0  0  0  0  0  0  0  0  0  0
   -6.5799    0.1723   -0.0891 H   0  0  0  0  0  0  0  0  0  0  0  0
   -5.8954    1.3135    1.9898 H   0  0  0  0  0  0  0  0  0  0  0  0
   -1.3301    2.3844   -2.3338 H   0  0  0  0  0  0  0  0  0  0  0  0
   -0.3174    3.8723   -2.3916 H   0  0  0  0  0  0  0  0  0  0  0  0
   -1.8344    3.8503   -1.4642 H   0  0  0  0  0  0  0  0  0  0  0  0
  1  8  1  0  0  0  0
  1 16  1  0  0  0  0
  2  8  1  0  0  0  0
  2 34  1  0  0  0  0
  3 16  2  0  0  0  0
  4 24  1  0  0  0  0
  4 27  1  0  0  0  0
  5 24  2  0  0  0  0
  6 11  1  0  0  0  0
  6 18  1  0  0  0  0
  6 32  1  0  0  0  0
  7 10  2  0  0  0  0
  7 20  1  0  0  0  0
  8  9  1  0  0  0  0
  8 10  1  0  0  0  0
  9 12  2  0  0  0  0
  9 14  1  0  0  0  0
 10 11  1  0  0  0  0
 11 13  2  0  0  0  0
 12 16  1  0  0  0  0
 12 17  1  0  0  0  0
 13 15  1  0  0  0  0
 13 19  1  0  0  0  0
 14 24  1  0  0  0  0
 14 28  1  0  0  0  0
 14 29  1  0  0  0  0
 15 18  1  0  0  0  0
 15 21  2  0  0  0  0
 17 22  1  0  0  0  0
 17 30  1  0  0  0  0
 17 31  1  0  0  0  0
 18 23  2  0  0  0  0
 19 20  2  0  0  0  0
 19 33  1  0  0  0  0
 20 35  1  0  0  0  0
 21 25  1  0  0  0  0
 21 36  1  0  0  0  0
 22 37  1  0  0  0  0
 22 38  1  0  0  0  0
 22 39  1  0  0  0  0
 23 26  1  0  0  0  0
 23 40  1  0  0  0  0
 25 26  2  0  0  0  0
 25 41  1  0  0  0  0
 26 42  1  0  0  0  0
 27 43  1  0  0  0  0
 27 44  1  0  0  0  0
 27 45  1  0  0  0  0
M  END
> <PUBCHEM_COMPOUND_CID>
132576376

> <PUBCHEM_CONFORMER_RMSD>
0.8

> <PUBCHEM_CONFORMER_DIVERSEORDER>
1
34
43
4
24
39
11
14
36
8
41
23
44
28
20
42
30
35
2
33
19
22
31
7
27
13
5
10
37
12
16
18
29
9
3
32
6
15
17
40
38
25
21
26

> <PUBCHEM_MMFF94_PARTIAL_CHARGES>
32
1 -0.43
10 0.17
11 -0.15
12 -0.12
14 0.2
16 0.71
17 0.14
18 -0.15
19 -0.15
2 -0.68
20 0.16
21 -0.15
23 -0.15
24 0.66
25 -0.15
26 -0.15
27 0.28
3 -0.57
32 0.27
33 0.15
34 0.4
35 0.15
36 0.15
4 -0.43
40 0.15
41 0.15
42 0.15
5 -0.57
6 0.03
7 -0.62
8 0.84
9 -0.28

> <PUBCHEM_EFFECTIVE_ROTOR_COUNT>
5.4

> <PUBCHEM_PHARMACOPHORE_FEATURES>
12
1 2 acceptor
1 2 donor
1 22 hydrophobe
1 3 acceptor
1 5 acceptor
1 6 cation
1 6 donor
1 7 acceptor
5 1 8 9 12 16 rings
5 6 11 13 15 18 rings
6 15 18 21 23 25 26 rings
6 7 10 11 13 19 20 rings

> <PUBCHEM_HEAVY_ATOM_COUNT>
27

> <PUBCHEM_ATOM_DEF_STEREO_COUNT>
1

> <PUBCHEM_ATOM_UDEF_STEREO_COUNT>
0

> <PUBCHEM_BOND_DEF_STEREO_COUNT>
0

> <PUBCHEM_BOND_UDEF_STEREO_COUNT>
0

> <PUBCHEM_ISOTOPIC_ATOM_COUNT>
0

> <PUBCHEM_COMPONENT_COUNT>
1

> <PUBCHEM_CACTVS_TAUTO_COUNT>
11

> <PUBCHEM_CONFORMER_ID>
07E6F47800000001

> <PUBCHEM_MMFF94_ENERGY>
38.5577

> <PUBCHEM_FEATURE_SELFOVERLAP>
61.084

> <PUBCHEM_SHAPE_FINGERPRINT>
10366900 7 16588016931798683995
10382601 240 18340496555726315619
104564 63 18189610553687784268
10688039 33 17748827384726667677
11370993 70 17346606299873626396
11578080 2 17841391978818976800
11640471 11 18127134293248126445
12166972 35 18270952544997717197
12236239 1 18272369780603929699
12403814 3 18411130320892244402
12422481 6 18265624173614826017
12507557 5 18261678172796254257
12741549 16 16733250352827403797
13140716 1 17899695949609251808
13583140 156 17967813899275178603
13965767 371 18342740680681102937
14341114 176 18336274500391121307
14840074 17 18336551607143596132
14955137 171 18339658822465630225
15081414 286 18334298682096003876
15238133 3 17749402420807392837
15849732 13 18340771532575392821
1601671 61 18342178860066703440
17349148 13 18201437000268221879
17357779 13 18115013130892289253
17980427 23 18272096011262706621
1813 80 18263093132323234974
18603816 31 16271636777607184718
18785283 64 17024606700397288604
20600515 1 17386870360465439021
20739085 24 18335990791798982998
21033648 144 18339633538314964117
21033648 29 17313095346444735413
21304253 335 18341901800306057444
21641784 216 17532391785147875620
22182313 1 17767963139273269366
23184049 59 18412547612950151703
23419403 2 16912298988059163452
23559900 14 14202219532414406538
34934 24 18338512045054980274
350125 39 18338234861267751368
474 4 18334858380399966419
513202 73 17901106317821629938
7064713 232 17917712357846488585
7495541 125 14851606617537404276
7832392 63 18198619024447588194

> <PUBCHEM_SHAPE_MULTIPOLES>
516.34
9.73
2.75
1.77
1.29
0.91
0.31
1.7
-3.56
-1.07
1.66
0.77
0.23
-0.97

> <PUBCHEM_SHAPE_SELFOVERLAP>
1147.118

> <PUBCHEM_SHAPE_VOLUME>
276.8

> <PUBCHEM_COORDINATE_TYPE>
2
5
10

$$$$
