132536471
  -OEChem-03292013293D

 36 38  0     1  0  0  0  0  0999 V2000
   -0.5930   -2.6965    0.9679 O   0  0  0  0  0  0  0  0  0  0  0  0
   -3.9809   -0.3659   -0.3974 O   0  0  0  0  0  0  0  0  0  0  0  0
   -0.7549    2.3835    0.0372 O   0  0  0  0  0  0  0  0  0  0  0  0
    1.8042    2.5084   -0.0529 O   0  0  0  0  0  0  0  0  0  0  0  0
    4.1735    1.1974   -0.1921 O   0  0  0  0  0  0  0  0  0  0  0  0
    4.2397   -1.5588   -0.3663 O   0  0  0  0  0  0  0  0  0  0  0  0
   -3.8947    2.5548    1.0764 O   0  0  0  0  0  0  0  0  0  0  0  0
   -0.6208   -1.9033   -0.2159 C   0  0  1  0  0  0  0  0  0  0  0  0
   -1.8407   -1.0621   -0.2767 C   0  0  0  0  0  0  0  0  0  0  0  0
    0.6058   -0.9995   -0.2211 C   0  0  0  0  0  0  0  0  0  0  0  0
   -1.8668    0.3502   -0.2035 C   0  0  0  0  0  0  0  0  0  0  0  0
    0.5881    0.4130   -0.1397 C   0  0  0  0  0  0  0  0  0  0  0  0
   -0.6937    1.1691   -0.0870 C   0  0  0  0  0  0  0  0  0  0  0  0
   -3.1852    0.7301   -0.2739 C   0  0  0  0  0  0  0  0  0  0  0  0
    1.8610   -1.6344   -0.3002 C   0  0  0  0  0  0  0  0  0  0  0  0
   -3.1584   -1.4488   -0.4005 C   0  0  0  0  0  0  0  0  0  0  0  0
    1.7843    1.1451   -0.1282 C   0  0  0  0  0  0  0  0  0  0  0  0
    3.0097    0.4861   -0.2022 C   0  0  0  0  0  0  0  0  0  0  0  0
    3.0487   -0.9013   -0.2904 C   0  0  0  0  0  0  0  0  0  0  0  0
   -3.8768    2.0273   -0.2520 C   0  0  0  0  0  0  0  0  0  0  0  0
   -1.4116   -3.8492    0.8381 C   0  0  0  0  0  0  0  0  0  0  0  0
    4.7625    1.4548    1.0803 C   0  0  0  0  0  0  0  0  0  0  0  0
   -0.5644   -2.5322   -1.1155 H   0  0  0  0  0  0  0  0  0  0  0  0
    1.9037   -2.7205   -0.3671 H   0  0  0  0  0  0  0  0  0  0  0  0
   -3.6573   -2.4010   -0.5058 H   0  0  0  0  0  0  0  0  0  0  0  0
   -3.3710    2.7476   -0.9028 H   0  0  0  0  0  0  0  0  0  0  0  0
   -4.9127    1.9295   -0.5925 H   0  0  0  0  0  0  0  0  0  0  0  0
   -1.0991   -4.5630    1.6066 H   0  0  0  0  0  0  0  0  0  0  0  0
   -2.4589   -3.6117    1.0341 H   0  0  0  0  0  0  0  0  0  0  0  0
   -1.2956   -4.3365   -0.1352 H   0  0  0  0  0  0  0  0  0  0  0  0
    0.9095    2.8695    0.0265 H   0  0  0  0  0  0  0  0  0  0  0  0
    4.0721   -2.5153   -0.4202 H   0  0  0  0  0  0  0  0  0  0  0  0
   -4.3548    3.4106    1.0350 H   0  0  0  0  0  0  0  0  0  0  0  0
    5.6768    2.0338    0.9236 H   0  0  0  0  0  0  0  0  0  0  0  0
    5.0245    0.5171    1.5806 H   0  0  0  0  0  0  0  0  0  0  0  0
    4.0832    2.0383    1.7097 H   0  0  0  0  0  0  0  0  0  0  0  0
  1  8  1  0  0  0  0
  1 21  1  0  0  0  0
  2 14  1  0  0  0  0
  2 16  1  0  0  0  0
  3 13  2  0  0  0  0
  4 17  1  0  0  0  0
  4 31  1  0  0  0  0
  5 18  1  0  0  0  0
  5 22  1  0  0  0  0
  6 19  1  0  0  0  0
  6 32  1  0  0  0  0
  7 20  1  0  0  0  0
  7 33  1  0  0  0  0
  8  9  1  0  0  0  0
  8 10  1  0  0  0  0
  8 23  1  0  0  0  0
  9 11  1  0  0  0  0
  9 16  2  0  0  0  0
 10 12  1  0  0  0  0
 10 15  2  0  0  0  0
 11 13  1  0  0  0  0
 11 14  2  0  0  0  0
 12 13  1  0  0  0  0
 12 17  2  0  0  0  0
 14 20  1  0  0  0  0
 15 19  1  0  0  0  0
 15 24  1  0  0  0  0
 16 25  1  0  0  0  0
 17 18  1  0  0  0  0
 18 19  2  0  0  0  0
 20 26  1  0  0  0  0
 20 27  1  0  0  0  0
 21 28  1  0  0  0  0
 21 29  1  0  0  0  0
 21 30  1  0  0  0  0
 22 34  1  0  0  0  0
 22 35  1  0  0  0  0
 22 36  1  0  0  0  0
M  END
> <PUBCHEM_COMPOUND_CID>
132536471

> <PUBCHEM_CONFORMER_RMSD>
0.6

> <PUBCHEM_CONFORMER_DIVERSEORDER>
1
8
7
2
6
3
5
4

> <PUBCHEM_MMFF94_PARTIAL_CHARGES>
27
1 -0.56
10 -0.14
11 -0.09
12 0.09
13 0.57
14 -0.04
15 -0.15
16 -0.01
17 0.08
18 0.08
19 0.08
2 -0.28
20 0.46
21 0.28
22 0.28
24 0.15
25 0.15
3 -0.57
31 0.45
32 0.45
33 0.4
4 -0.53
5 -0.36
6 -0.53
7 -0.68
8 0.6
9 -0.18

> <PUBCHEM_EFFECTIVE_ROTOR_COUNT>
3.2

> <PUBCHEM_PHARMACOPHORE_FEATURES>
11
1 1 acceptor
1 2 acceptor
1 3 acceptor
1 4 donor
1 5 acceptor
1 6 donor
1 7 acceptor
1 7 donor
5 2 9 11 14 16 rings
6 10 12 15 17 18 19 rings
6 8 9 10 11 12 13 rings

> <PUBCHEM_HEAVY_ATOM_COUNT>
22

> <PUBCHEM_ATOM_DEF_STEREO_COUNT>
0

> <PUBCHEM_ATOM_UDEF_STEREO_COUNT>
1

> <PUBCHEM_BOND_DEF_STEREO_COUNT>
0

> <PUBCHEM_BOND_UDEF_STEREO_COUNT>
0

> <PUBCHEM_ISOTOPIC_ATOM_COUNT>
0

> <PUBCHEM_COMPONENT_COUNT>
1

> <PUBCHEM_CACTVS_TAUTO_COUNT>
12

> <PUBCHEM_CONFORMER_ID>
07E6589700000001

> <PUBCHEM_MMFF94_ENERGY>
66.5699

> <PUBCHEM_FEATURE_SELFOVERLAP>
55.938

> <PUBCHEM_SHAPE_FINGERPRINT>
10319926 262 18196632181979121808
10411042 1 16752684960189438367
10493431 412 18411987931942064201
10608611 8 18411979204056477956
10616163 171 18194123142897840190
10863032 1 18343300349041938285
10967382 1 18410292527497145070
1100329 8 18193554458925994242
11132069 177 18410288112350028908
11680986 33 18339647836419503830
12403814 3 17603575357103186916
12788726 201 17754459272083511794
13140716 1 18266179435565750843
13380535 76 18410570734093628622
138480 1 17400639325210152499
14178342 30 18263073487258724490
14223421 5 18050291663023342154
14790565 3 18194695756285642876
15196674 1 18412543193402514940
15375358 24 18341327885733249884
15442244 35 18411699855288908942
15536298 74 18343581832998915260
16945 1 18264778833523830846
18186145 218 18335419011049884012
19591789 44 18193561051784624287
20510252 161 18341895207905401945
20691752 17 17967812712930053958
20739085 24 18046085768917470016
21267235 1 18411990143296288287
22182313 1 18127992973459732742
2334 1 18410292532097970029
23402539 116 18267291205067294967
23557571 272 18270694167895948398
23558518 356 18409732893474910047
23559900 14 18343017762528553982
2748010 2 17258210199686762557
3091708 16 9123724913354320035
335352 9 18267867168481252084
34934 24 18341040874327683292
350125 39 18410579509207653901
5104073 3 18411699859488957378
58807428 26 18335417903133067979
633830 44 18270676450823549573
81228 2 17752492224496240883
8809292 202 18408608075783969766
9709674 26 18340208600013162030
9981440 41 18339634642069312362

> <PUBCHEM_SHAPE_MULTIPOLES>
411.66
7.77
3.45
0.8
3.55
1.57
-0.15
-3.5
-0.49
-1.83
-0.99
0.01
0.07
0.33

> <PUBCHEM_SHAPE_SELFOVERLAP>
912.231

> <PUBCHEM_SHAPE_VOLUME>
222.6

> <PUBCHEM_COORDINATE_TYPE>
2
5
10

$$$$
