132525357
  -OEChem-03292013293D

 63 65  0     1  0  0  0  0  0999 V2000
    1.4883   -1.4157   -0.2089 O   0  0  0  0  0  0  0  0  0  0  0  0
    2.3838    1.4786    0.9048 O   0  0  0  0  0  0  0  0  0  0  0  0
    4.4209    0.0322    2.0088 O   0  0  0  0  0  0  0  0  0  0  0  0
    1.4979   -1.4645    2.1034 O   0  0  0  0  0  0  0  0  0  0  0  0
   -1.0647   -5.6132   -1.2054 O   0  0  0  0  0  0  0  0  0  0  0  0
   -4.2118   -2.8222    1.0511 O   0  0  0  0  0  0  0  0  0  0  0  0
   -2.5871    1.7606    2.9080 O   0  0  0  0  0  0  0  0  0  0  0  0
   -0.4583    2.3423    2.3629 O   0  0  0  0  0  0  0  0  0  0  0  0
   -0.1416    2.0689   -0.3803 N   0  0  0  0  0  0  0  0  0  0  0  0
    0.4981    1.3636   -1.4784 C   0  0  2  0  0  0  0  0  0  0  0  0
   -0.0569   -0.0923   -1.5595 C   0  0  2  0  0  0  0  0  0  0  0  0
    2.0350    1.5846   -1.4804 C   0  0  2  0  0  0  0  0  0  0  0  0
    0.1305   -0.9411   -0.2700 C   0  0  1  0  0  0  0  0  0  0  0  0
    4.0698    0.3166   -0.4005 C   0  0  2  0  0  0  0  0  0  0  0  0
    2.7748    1.1345   -0.2119 C   0  0  0  0  0  0  0  0  0  0  0  0
    0.4745   -0.7988   -2.8169 C   0  0  0  0  0  0  0  0  0  0  0  0
    4.3977   -0.6545    0.7604 C   0  0  2  0  0  0  0  0  0  0  0  0
    2.3505    3.0718   -1.7085 C   0  0  0  0  0  0  0  0  0  0  0  0
   -0.8502   -2.1018   -0.2006 C   0  0  0  0  0  0  0  0  0  0  0  0
    3.5131   -1.9008    0.8478 C   0  0  0  0  0  0  0  0  0  0  0  0
    5.2287    1.2967   -0.6016 C   0  0  0  0  0  0  0  0  0  0  0  0
   -1.4515    2.4972   -0.4175 C   0  0  0  0  0  0  0  0  0  0  0  0
    2.0521   -1.5861    1.0199 C   0  0  0  0  0  0  0  0  0  0  0  0
   -2.0963   -1.9276    0.4014 C   0  0  0  0  0  0  0  0  0  0  0  0
   -0.5038   -3.3404   -0.7408 C   0  0  0  0  0  0  0  0  0  0  0  0
   -2.2088    2.5877    0.7502 C   0  0  0  0  0  0  0  0  0  0  0  0
   -2.0177    2.8428   -1.6445 C   0  0  0  0  0  0  0  0  0  0  0  0
   -1.4034   -4.4046   -0.6789 C   0  0  0  0  0  0  0  0  0  0  0  0
   -2.9959   -2.9919    0.4632 C   0  0  0  0  0  0  0  0  0  0  0  0
   -2.6494   -4.2303   -0.0769 C   0  0  0  0  0  0  0  0  0  0  0  0
   -3.5324    3.0240    0.6912 C   0  0  0  0  0  0  0  0  0  0  0  0
   -3.3413    3.2791   -1.7037 C   0  0  0  0  0  0  0  0  0  0  0  0
   -4.0986    3.3697   -0.5358 C   0  0  0  0  0  0  0  0  0  0  0  0
   -1.6462    2.2350    2.0479 C   0  0  0  0  0  0  0  0  0  0  0  0
    0.2035    1.8226   -2.4285 H   0  0  0  0  0  0  0  0  0  0  0  0
   -1.1413    0.0080   -1.7150 H   0  0  0  0  0  0  0  0  0  0  0  0
    2.4586    1.0334   -2.3272 H   0  0  0  0  0  0  0  0  0  0  0  0
   -0.0549   -0.3063    0.6048 H   0  0  0  0  0  0  0  0  0  0  0  0
    3.9630   -0.2856   -1.3111 H   0  0  0  0  0  0  0  0  0  0  0  0
    1.5360   -1.0507   -2.7334 H   0  0  0  0  0  0  0  0  0  0  0  0
    0.3496   -0.1630   -3.7003 H   0  0  0  0  0  0  0  0  0  0  0  0
   -0.0760   -1.7231   -3.0147 H   0  0  0  0  0  0  0  0  0  0  0  0
    0.2975    1.9799    0.5287 H   0  0  0  0  0  0  0  0  0  0  0  0
    5.4202   -1.0236    0.6105 H   0  0  0  0  0  0  0  0  0  0  0  0
    3.4251    3.2421   -1.8140 H   0  0  0  0  0  0  0  0  0  0  0  0
    2.0097    3.6902   -0.8709 H   0  0  0  0  0  0  0  0  0  0  0  0
    1.8708    3.4389   -2.6220 H   0  0  0  0  0  0  0  0  0  0  0  0
    3.8091   -2.5140    1.7079 H   0  0  0  0  0  0  0  0  0  0  0  0
    3.6386   -2.5308   -0.0409 H   0  0  0  0  0  0  0  0  0  0  0  0
    5.2823    2.0287    0.2115 H   0  0  0  0  0  0  0  0  0  0  0  0
    5.1160    1.8479   -1.5396 H   0  0  0  0  0  0  0  0  0  0  0  0
    6.1878    0.7707   -0.6545 H   0  0  0  0  0  0  0  0  0  0  0  0
   -2.3667   -0.9613    0.8202 H   0  0  0  0  0  0  0  0  0  0  0  0
    0.4609   -3.4943   -1.2175 H   0  0  0  0  0  0  0  0  0  0  0  0
    3.5131    0.3059    2.2214 H   0  0  0  0  0  0  0  0  0  0  0  0
   -1.4737    2.8236   -2.5818 H   0  0  0  0  0  0  0  0  0  0  0  0
   -3.3553   -5.0556   -0.0250 H   0  0  0  0  0  0  0  0  0  0  0  0
   -4.1450    3.1190    1.5838 H   0  0  0  0  0  0  0  0  0  0  0  0
   -3.7808    3.5557   -2.6577 H   0  0  0  0  0  0  0  0  0  0  0  0
   -5.1277    3.7139   -0.5818 H   0  0  0  0  0  0  0  0  0  0  0  0
   -1.8035   -6.2322   -1.0747 H   0  0  0  0  0  0  0  0  0  0  0  0
   -4.2833   -1.9057    1.3688 H   0  0  0  0  0  0  0  0  0  0  0  0
   -2.2005    1.5249    3.7782 H   0  0  0  0  0  0  0  0  0  0  0  0
  1 13  1  0  0  0  0
  1 23  1  0  0  0  0
  2 15  2  0  0  0  0
  3 17  1  0  0  0  0
  3 55  1  0  0  0  0
  4 23  2  0  0  0  0
  5 28  1  0  0  0  0
  5 61  1  0  0  0  0
  6 29  1  0  0  0  0
  6 62  1  0  0  0  0
  7 34  1  0  0  0  0
  7 63  1  0  0  0  0
  8 34  2  0  0  0  0
  9 10  1  0  0  0  0
  9 22  1  0  0  0  0
  9 43  1  0  0  0  0
 10 11  1  0  0  0  0
 10 12  1  0  0  0  0
 10 35  1  0  0  0  0
 11 13  1  0  0  0  0
 11 16  1  0  0  0  0
 11 36  1  0  0  0  0
 12 15  1  0  0  0  0
 12 18  1  0  0  0  0
 12 37  1  0  0  0  0
 13 19  1  0  0  0  0
 13 38  1  0  0  0  0
 14 15  1  0  0  0  0
 14 17  1  0  0  0  0
 14 21  1  0  0  0  0
 14 39  1  0  0  0  0
 16 40  1  0  0  0  0
 16 41  1  0  0  0  0
 16 42  1  0  0  0  0
 17 20  1  0  0  0  0
 17 44  1  0  0  0  0
 18 45  1  0  0  0  0
 18 46  1  0  0  0  0
 18 47  1  0  0  0  0
 19 24  2  0  0  0  0
 19 25  1  0  0  0  0
 20 23  1  0  0  0  0
 20 48  1  0  0  0  0
 20 49  1  0  0  0  0
 21 50  1  0  0  0  0
 21 51  1  0  0  0  0
 21 52  1  0  0  0  0
 22 26  1  0  0  0  0
 22 27  2  0  0  0  0
 24 29  1  0  0  0  0
 24 53  1  0  0  0  0
 25 28  2  0  0  0  0
 25 54  1  0  0  0  0
 26 31  2  0  0  0  0
 26 34  1  0  0  0  0
 27 32  1  0  0  0  0
 27 56  1  0  0  0  0
 28 30  1  0  0  0  0
 29 30  2  0  0  0  0
 30 57  1  0  0  0  0
 31 33  1  0  0  0  0
 31 58  1  0  0  0  0
 32 33  2  0  0  0  0
 32 59  1  0  0  0  0
 33 60  1  0  0  0  0
M  END
> <PUBCHEM_COMPOUND_CID>
132525357

> <PUBCHEM_CONFORMER_RMSD>
0.8

> <PUBCHEM_CONFORMER_DIVERSEORDER>
1
27
25
12
11
24
26
17
23
14
10
18
16
4
9
7
20
15
22
3
5
21
6
19
2
8
13

> <PUBCHEM_MMFF94_PARTIAL_CHARGES>
42
1 -0.43
10 0.37
12 0.06
13 0.42
14 0.06
15 0.45
17 0.28
19 -0.14
2 -0.57
20 0.06
22 0.1
23 0.66
24 -0.15
25 -0.15
26 0.09
27 -0.15
28 0.08
29 0.08
3 -0.68
30 -0.15
31 -0.15
32 -0.15
33 -0.15
34 0.63
4 -0.57
43 0.4
5 -0.53
53 0.15
54 0.15
55 0.4
56 0.15
57 0.15
58 0.15
59 0.15
6 -0.53
60 0.15
61 0.45
62 0.45
63 0.5
7 -0.65
8 -0.57
9 -0.87

> <PUBCHEM_EFFECTIVE_ROTOR_COUNT>
5.6

> <PUBCHEM_PHARMACOPHORE_FEATURES>
13
1 2 acceptor
1 3 acceptor
1 3 donor
1 4 acceptor
1 5 donor
1 6 donor
1 7 acceptor
1 8 acceptor
1 9 cation
1 9 donor
3 7 8 34 anion
6 19 24 25 28 29 30 rings
6 22 26 27 31 32 33 rings

> <PUBCHEM_HEAVY_ATOM_COUNT>
34

> <PUBCHEM_ATOM_DEF_STEREO_COUNT>
6

> <PUBCHEM_ATOM_UDEF_STEREO_COUNT>
0

> <PUBCHEM_BOND_DEF_STEREO_COUNT>
0

> <PUBCHEM_BOND_UDEF_STEREO_COUNT>
0

> <PUBCHEM_ISOTOPIC_ATOM_COUNT>
0

> <PUBCHEM_COMPONENT_COUNT>
1

> <PUBCHEM_CACTVS_TAUTO_COUNT>
60

> <PUBCHEM_CONFORMER_ID>
07E62D2D00000001

> <PUBCHEM_MMFF94_ENERGY>
110.9854

> <PUBCHEM_FEATURE_SELFOVERLAP>
66.036

> <PUBCHEM_SHAPE_FINGERPRINT>
11421498 54 17830458637045135448
11513181 2 18343016658063460287
11578080 2 16984948286998970374
11582403 64 15940600111076786797
12156800 1 18192740914916112222
12160290 23 18202008758519105573
12422481 6 18045530572171056521
12788726 201 18047207507338217172
13004483 165 18191025814447505037
1361 2 17974560300343082733
13692114 37 18338778054171060325
13965767 371 18053140338958816139
14068700 675 17903634430519856524
14787075 74 17914307131754913613
16114785 44 17913456216786318866
17138139 8 17768204087049150541
19315092 285 16975863894661158213
20028762 73 18124296234851806271
20600515 1 17841452615088035815
21133410 38 18127978495847378305
23559900 14 16465015987090706767
283562 15 18046058535225697756
345986 75 18045203088971835978
35225 105 18272923917120740675
4409770 3 18410852204986134911
469060 322 18043530723280761936
6086070 43 17835233833641992839

> <PUBCHEM_SHAPE_MULTIPOLES>
647.77
7.43
6.61
2.23
3.97
8.79
-0.52
-5.12
-1.98
-6.47
1.81
-0.33
-1.09
-0.53

> <PUBCHEM_SHAPE_SELFOVERLAP>
1379.681

> <PUBCHEM_SHAPE_VOLUME>
356.6

> <PUBCHEM_COORDINATE_TYPE>
2
5
10

$$$$
