132516385
  -OEChem-03292013293D

 58 59  0     1  0  0  0  0  0999 V2000
   -5.3331   -0.9375   -0.0586 O   0  0  0  0  0  0  0  0  0  0  0  0
   -1.2146   -3.6769   -2.7073 O   0  0  0  0  0  0  0  0  0  0  0  0
   -3.9381    3.4039   -0.6488 O   0  0  0  0  0  0  0  0  0  0  0  0
    0.1530   -2.7161    1.8796 O   0  0  0  0  0  0  0  0  0  0  0  0
    2.2411   -1.7511    2.9863 O   0  0  0  0  0  0  0  0  0  0  0  0
   -0.3493   -2.2672   -0.3391 N   0  0  0  0  0  0  0  0  0  0  0  0
   -3.2372    1.9261    1.0021 N   0  0  0  0  0  0  0  0  0  0  0  0
    1.8287   -0.7527   -0.5012 N   0  0  0  0  0  0  0  0  0  0  0  0
   -2.7780   -2.1385   -0.7239 C   0  0  0  0  0  0  0  0  0  0  0  0
   -2.9411   -0.9836    0.2772 C   0  0  0  0  0  0  0  0  0  0  0  0
   -1.5736   -3.0349   -0.3922 C   0  0  1  0  0  0  0  0  0  0  0  0
   -4.1664   -0.1177   -0.0430 C   0  0  2  0  0  0  0  0  0  0  0  0
   -4.3604    1.0287    0.9509 C   0  0  0  0  0  0  0  0  0  0  0  0
   -1.4171   -4.1816   -1.3935 C   0  0  0  0  0  0  0  0  0  0  0  0
   -0.5570    2.9499    0.1613 C   0  0  0  0  0  0  0  0  0  0  0  0
   -1.8109    3.7906    0.4451 C   0  0  0  0  0  0  0  0  0  0  0  0
   -3.1156    3.0503    0.1917 C   0  0  0  0  0  0  0  0  0  0  0  0
    0.4187   -2.1736    0.8102 C   0  0  0  0  0  0  0  0  0  0  0  0
   -0.5123    2.4915   -1.2987 C   0  0  0  0  0  0  0  0  0  0  0  0
    0.7013    3.7574    0.4867 C   0  0  0  0  0  0  0  0  0  0  0  0
    1.6336   -1.3249    0.7089 C   0  0  0  0  0  0  0  0  0  0  0  0
    2.4758   -1.1567    1.7894 C   0  0  0  0  0  0  0  0  0  0  0  0
    2.9108    0.0311   -0.6679 C   0  0  0  0  0  0  0  0  0  0  0  0
    3.8295    0.2635    0.3769 C   0  0  0  0  0  0  0  0  0  0  0  0
    3.5899   -0.3485    1.6146 C   0  0  0  0  0  0  0  0  0  0  0  0
    3.1494    0.6394   -1.8972 C   0  0  0  0  0  0  0  0  0  0  0  0
    4.9485    1.0875    0.1678 C   0  0  0  0  0  0  0  0  0  0  0  0
    4.2617    1.4585   -2.1054 C   0  0  0  0  0  0  0  0  0  0  0  0
    5.1626    1.6832   -1.0719 C   0  0  0  0  0  0  0  0  0  0  0  0
   -2.6634   -1.7121   -1.7286 H   0  0  0  0  0  0  0  0  0  0  0  0
   -3.6839   -2.7561   -0.7385 H   0  0  0  0  0  0  0  0  0  0  0  0
   -2.0414   -0.3589    0.2771 H   0  0  0  0  0  0  0  0  0  0  0  0
   -3.0504   -1.4094    1.2825 H   0  0  0  0  0  0  0  0  0  0  0  0
   -1.7509   -3.4845    0.5925 H   0  0  0  0  0  0  0  0  0  0  0  0
   -4.0465    0.2954   -1.0523 H   0  0  0  0  0  0  0  0  0  0  0  0
   -5.2636    1.5950    0.6949 H   0  0  0  0  0  0  0  0  0  0  0  0
   -4.5164    0.6331    1.9611 H   0  0  0  0  0  0  0  0  0  0  0  0
   -0.5567   -4.8074   -1.1321 H   0  0  0  0  0  0  0  0  0  0  0  0
   -2.3145   -4.8091   -1.4006 H   0  0  0  0  0  0  0  0  0  0  0  0
   -0.0526   -1.7777   -1.1788 H   0  0  0  0  0  0  0  0  0  0  0  0
   -2.5155    1.7285    1.6884 H   0  0  0  0  0  0  0  0  0  0  0  0
   -0.5519    2.0555    0.7954 H   0  0  0  0  0  0  0  0  0  0  0  0
   -1.8142    4.1211    1.4913 H   0  0  0  0  0  0  0  0  0  0  0  0
   -1.8129    4.6955   -0.1750 H   0  0  0  0  0  0  0  0  0  0  0  0
   -6.0864   -0.3713   -0.2986 H   0  0  0  0  0  0  0  0  0  0  0  0
    0.7685    4.6583   -0.1327 H   0  0  0  0  0  0  0  0  0  0  0  0
    1.6027    3.1598    0.3139 H   0  0  0  0  0  0  0  0  0  0  0  0
   -0.5410    3.3451   -1.9845 H   0  0  0  0  0  0  0  0  0  0  0  0
    0.4036    1.9286   -1.5006 H   0  0  0  0  0  0  0  0  0  0  0  0
   -1.3563    1.8358   -1.5358 H   0  0  0  0  0  0  0  0  0  0  0  0
    0.7028    4.0664    1.5373 H   0  0  0  0  0  0  0  0  0  0  0  0
   -1.1245   -4.4447   -3.2971 H   0  0  0  0  0  0  0  0  0  0  0  0
    4.2788   -0.1901    2.4420 H   0  0  0  0  0  0  0  0  0  0  0  0
    2.4583    0.4793   -2.7228 H   0  0  0  0  0  0  0  0  0  0  0  0
    5.6599    1.2700    0.9701 H   0  0  0  0  0  0  0  0  0  0  0  0
    4.4207    1.9195   -3.0758 H   0  0  0  0  0  0  0  0  0  0  0  0
    6.0281    2.3193   -1.2297 H   0  0  0  0  0  0  0  0  0  0  0  0
    2.9484   -1.5047    3.6068 H   0  0  0  0  0  0  0  0  0  0  0  0
  1 12  1  0  0  0  0
  1 45  1  0  0  0  0
  2 14  1  0  0  0  0
  2 52  1  0  0  0  0
  3 17  2  0  0  0  0
  4 18  2  0  0  0  0
  5 22  1  0  0  0  0
  5 58  1  0  0  0  0
  6 11  1  0  0  0  0
  6 18  1  0  0  0  0
  6 40  1  0  0  0  0
  7 13  1  0  0  0  0
  7 17  1  0  0  0  0
  7 41  1  0  0  0  0
  8 21  2  0  0  0  0
  8 23  1  0  0  0  0
  9 10  1  0  0  0  0
  9 11  1  0  0  0  0
  9 30  1  0  0  0  0
  9 31  1  0  0  0  0
 10 12  1  0  0  0  0
 10 32  1  0  0  0  0
 10 33  1  0  0  0  0
 11 14  1  0  0  0  0
 11 34  1  0  0  0  0
 12 13  1  0  0  0  0
 12 35  1  0  0  0  0
 13 36  1  0  0  0  0
 13 37  1  0  0  0  0
 14 38  1  0  0  0  0
 14 39  1  0  0  0  0
 15 16  1  0  0  0  0
 15 19  1  0  0  0  0
 15 20  1  0  0  0  0
 15 42  1  0  0  0  0
 16 17  1  0  0  0  0
 16 43  1  0  0  0  0
 16 44  1  0  0  0  0
 18 21  1  0  0  0  0
 19 48  1  0  0  0  0
 19 49  1  0  0  0  0
 19 50  1  0  0  0  0
 20 46  1  0  0  0  0
 20 47  1  0  0  0  0
 20 51  1  0  0  0  0
 21 22  1  0  0  0  0
 22 25  2  0  0  0  0
 23 24  1  0  0  0  0
 23 26  2  0  0  0  0
 24 25  1  0  0  0  0
 24 27  2  0  0  0  0
 25 53  1  0  0  0  0
 26 28  1  0  0  0  0
 26 54  1  0  0  0  0
 27 29  1  0  0  0  0
 27 55  1  0  0  0  0
 28 29  2  0  0  0  0
 28 56  1  0  0  0  0
 29 57  1  0  0  0  0
M  END
> <PUBCHEM_COMPOUND_CID>
132516385

> <PUBCHEM_CONFORMER_RMSD>
1

> <PUBCHEM_CONFORMER_DIVERSEORDER>
1
145
72
173
114
172
229
60
54
133
124
128
201
207
43
112
185
8
213
71
219
164
38
108
147
230
120
168
19
45
180
139
121
5
189
204
146
151
27
49
234
66
69
109
233
154
24
119
171
52
16
68
143
65
197
67
227
179
36
178
41
77
75
167
165
84
98
192
153
152
95
205
181
155
80
44
118
61
161
150
20
170
140
110
102
202
159
40
226
190
186
224
4
123
103
35
30
90
113
51
160
129
228
217
74
223
81
182
169
56
23
222
196
116
135
132
122
6
10
136
115
157
97
62
131
193
183
211
206
225
232
126
76
149
7
100
47
85
158
2
26
208
163
53
188
79
212
166
199
137
50
218
221
141
57
175
209
21
215
89
184
191
93
210
46
39
111
214
198
220
99
177
13
83
127
15
28
94
96
63
104
231
101
78
82
117
187
42
55
195
25
216
12
200
125
156
134
148
176
162
130
29
203
18
9
86
11
138
174
37
107
73
105
59
31
32
92
106
58
14
22
87
70
142
48
91
194
17
144
33
88
64
3
34

> <PUBCHEM_MMFF94_PARTIAL_CHARGES>
33
1 -0.68
11 0.3
12 0.28
13 0.3
14 0.28
16 0.06
17 0.57
18 0.54
2 -0.68
21 0.4
22 0.08
23 0.31
25 -0.15
26 -0.15
27 -0.15
28 -0.15
29 -0.15
3 -0.57
4 -0.57
40 0.37
41 0.37
45 0.4
5 -0.53
52 0.4
53 0.15
54 0.15
55 0.15
56 0.15
57 0.15
58 0.45
6 -0.73
7 -0.73
8 -0.62

> <PUBCHEM_EFFECTIVE_ROTOR_COUNT>
12

> <PUBCHEM_PHARMACOPHORE_FEATURES>
13
1 1 acceptor
1 1 donor
1 2 acceptor
1 2 donor
1 3 acceptor
1 4 acceptor
1 5 donor
1 6 donor
1 7 donor
1 8 acceptor
3 15 19 20 hydrophobe
6 23 24 26 27 28 29 rings
6 8 21 22 23 24 25 rings

> <PUBCHEM_HEAVY_ATOM_COUNT>
29

> <PUBCHEM_ATOM_DEF_STEREO_COUNT>
2

> <PUBCHEM_ATOM_UDEF_STEREO_COUNT>
0

> <PUBCHEM_BOND_DEF_STEREO_COUNT>
0

> <PUBCHEM_BOND_UDEF_STEREO_COUNT>
0

> <PUBCHEM_ISOTOPIC_ATOM_COUNT>
0

> <PUBCHEM_COMPONENT_COUNT>
1

> <PUBCHEM_CACTVS_TAUTO_COUNT>
18

> <PUBCHEM_CONFORMER_ID>
07E60A2100000001

> <PUBCHEM_MMFF94_ENERGY>
55.3224

> <PUBCHEM_FEATURE_SELFOVERLAP>
66.008

> <PUBCHEM_SHAPE_FINGERPRINT>
10670039 82 18410865343058919926
10815517 723 18186523194642520852
10864689 126 18341616949997326656
10871710 139 18411420609795954677
1100329 8 18194122043581118165
11059048 146 17553500084381418153
11513181 2 18200037239702464759
12788726 201 18336838592547419204
13617811 41 17912075355032024383
14114211 80 18058467434435973489
14117953 113 17758109302753075101
14251757 5 18269849738233369405
14840074 17 18335999605320314169
15297060 5 18058743389757392041
15575132 122 18408609141368278477
161222 10 18122939501506225100
17818456 19 18338787932506611922
19319366 153 18040714792059740299
20511986 3 18040424503836784396
20642791 35 18267865175822498809
20715895 44 17321251321847541701
23559900 14 17547575877387062653
3052486 1 18335410310021727016
38570 142 17605015722432472030
445580 8 18335707104871962305
463206 1 18195253449631389825
469060 322 17168147861941355301
5171179 24 17697607937275624232
6287921 2 17620477909229318777
6608658 132 18340197600823476351
7808743 9 18341614840793162507

> <PUBCHEM_SHAPE_MULTIPOLES>
552.52
9.61
5.56
2.01
1.67
0.76
0.09
4.1
-1.09
-5.41
-1.15
1.74
-1.47
-2.54

> <PUBCHEM_SHAPE_SELFOVERLAP>
1142.743

> <PUBCHEM_SHAPE_VOLUME>
314.1

> <PUBCHEM_COORDINATE_TYPE>
2
5
10

$$$$
