132535270
  -OEChem-03292013293D

 38 38  0     1  0  0  0  0  0999 V2000
   -0.4477   -0.9684    1.0552 S   0  0  2  0  0  0  0  0  0  0  0  0
   -2.3695    0.7745   -0.4933 S   0  0  2  0  0  0  0  0  0  0  0  0
    0.7300    0.8961   -1.5191 O   0  0  0  0  0  0  0  0  0  0  0  0
   -0.3374   -1.2332    2.5284 O   0  0  0  0  0  0  0  0  0  0  0  0
    3.0797   -1.1394   -0.8999 O   0  0  0  0  0  0  0  0  0  0  0  0
    2.8734    1.7271    1.1824 O   0  0  0  0  0  0  0  0  0  0  0  0
    3.0138    2.1215   -1.0582 O   0  0  0  0  0  0  0  0  0  0  0  0
   -1.9378   -0.2283   -1.5147 O   0  0  0  0  0  0  0  0  0  0  0  0
    2.4960   -3.8338   -0.5954 O   0  0  0  0  0  0  0  0  0  0  0  0
    1.1058    0.9327   -0.1545 C   0  0  1  0  0  0  0  0  0  0  0  0
    0.0565    1.6731    0.6929 C   0  0  2  0  0  0  0  0  0  0  0  0
    1.2333   -0.4647    0.4736 C   0  0  2  0  0  0  0  0  0  0  0  0
   -1.1393    0.7216    0.8554 C   0  0  2  0  0  0  0  0  0  0  0  0
    1.7929   -1.5469   -0.4395 C   0  0  2  0  0  0  0  0  0  0  0  0
   -0.3081    3.0667    0.1766 C   0  0  0  0  0  0  0  0  0  0  0  0
    2.4232    1.6577   -0.0941 C   0  0  0  0  0  0  0  0  0  0  0  0
    1.9435   -2.8714    0.2965 C   0  0  0  0  0  0  0  0  0  0  0  0
   -3.7065    0.0374    0.4742 C   0  0  0  0  0  0  0  0  0  0  0  0
   -4.9429   -0.0815   -0.3546 C   0  0  0  0  0  0  0  0  0  0  0  0
   -5.5589   -1.2409   -0.6118 C   0  0  0  0  0  0  0  0  0  0  0  0
    0.4668    1.8215    1.7035 H   0  0  0  0  0  0  0  0  0  0  0  0
    1.8407   -0.4154    1.3861 H   0  0  0  0  0  0  0  0  0  0  0  0
   -1.6642    0.9805    1.7814 H   0  0  0  0  0  0  0  0  0  0  0  0
    1.1639   -1.6901   -1.3264 H   0  0  0  0  0  0  0  0  0  0  0  0
   -0.6902    3.0623   -0.8479 H   0  0  0  0  0  0  0  0  0  0  0  0
   -1.0733    3.5197    0.8166 H   0  0  0  0  0  0  0  0  0  0  0  0
    0.5652    3.7272    0.1973 H   0  0  0  0  0  0  0  0  0  0  0  0
    0.7014    1.8039   -1.8638 H   0  0  0  0  0  0  0  0  0  0  0  0
    2.6362   -2.7735    1.1393 H   0  0  0  0  0  0  0  0  0  0  0  0
    0.9931   -3.2722    0.6559 H   0  0  0  0  0  0  0  0  0  0  0  0
   -3.9162    0.6885    1.3289 H   0  0  0  0  0  0  0  0  0  0  0  0
   -3.3890   -0.9382    0.8537 H   0  0  0  0  0  0  0  0  0  0  0  0
    3.4260   -1.8501   -1.4661 H   0  0  0  0  0  0  0  0  0  0  0  0
    3.7327    2.1962    1.2429 H   0  0  0  0  0  0  0  0  0  0  0  0
    2.5951   -4.6621   -0.0959 H   0  0  0  0  0  0  0  0  0  0  0  0
   -5.3762    0.8333   -0.7517 H   0  0  0  0  0  0  0  0  0  0  0  0
   -6.4616   -1.2616   -1.2125 H   0  0  0  0  0  0  0  0  0  0  0  0
   -5.1778   -2.1826   -0.2328 H   0  0  0  0  0  0  0  0  0  0  0  0
  1  4  2  0  0  0  0
  1 12  1  0  0  0  0
  1 13  1  0  0  0  0
  2  8  2  0  0  0  0
  2 13  1  0  0  0  0
  2 18  1  0  0  0  0
  3 10  1  0  0  0  0
  3 28  1  0  0  0  0
  5 14  1  0  0  0  0
  5 33  1  0  0  0  0
  6 16  1  0  0  0  0
  6 34  1  0  0  0  0
  7 16  2  0  0  0  0
  9 17  1  0  0  0  0
  9 35  1  0  0  0  0
 10 11  1  0  0  0  0
 10 12  1  0  0  0  0
 10 16  1  0  0  0  0
 11 13  1  0  0  0  0
 11 15  1  0  0  0  0
 11 21  1  0  0  0  0
 12 14  1  0  0  0  0
 12 22  1  0  0  0  0
 13 23  1  0  0  0  0
 14 17  1  0  0  0  0
 14 24  1  0  0  0  0
 15 25  1  0  0  0  0
 15 26  1  0  0  0  0
 15 27  1  0  0  0  0
 17 29  1  0  0  0  0
 17 30  1  0  0  0  0
 18 19  1  0  0  0  0
 18 31  1  0  0  0  0
 18 32  1  0  0  0  0
 19 20  2  0  0  0  0
 19 36  1  0  0  0  0
 20 37  1  0  0  0  0
 20 38  1  0  0  0  0
M  END
> <PUBCHEM_COMPOUND_CID>
132535270

> <PUBCHEM_CONFORMER_RMSD>
0.8

> <PUBCHEM_CONFORMER_DIVERSEORDER>
1
23
278
228
87
208
281
172
192
16
214
265
73
46
102
187
287
206
201
284
84
273
89
311
151
204
97
166
248
117
227
178
300
188
216
199
56
285
107
7
126
83
139
121
298
112
264
182
314
171
69
95
211
40
163
299
254
183
68
57
305
14
167
20
5
297
266
113
304
143
202
98
260
115
195
128
30
250
233
173
191
103
74
303
179
65
238
119
218
159
99
134
307
215
235
164
196
242
123
209
279
156
63
135
86
257
44
61
256
105
253
147
224
251
122
138
79
198
197
282
292
140
249
186
45
289
283
286
3
85
306
72
277
203
13
270
130
230
200
131
77
244
12
271
75
125
38
176
280
210
175
236
255
177
310
290
110
22
10
76
276
155
66
49
229
36
35
263
237
42
133
34
81
223
184
104
96
269
291
55
141
180
313
32
91
225
194
90
252
275
54
154
145
8
50
127
234
240
37
212
157
288
268
58
11
18
243
205
162
17
231
60
165
118
190
226
261
101
185
181
153
82
116
9
296
247
29
129
106
213
189
239
92
168
33
144
272
62
246
160
174
146
70
59
25
259
267
31
64
136
315
114
52
295
78
241
219
148
4
169
132
217
262
258
124
293
53
21
309
80
302
39
51
152
88
301
274
19
170
149
111
26
27
48
120
232
158
312
142
137
2
93
94
294
47
108
43
193
220
6
100
245
207
222
109
28
15
308
150
71
24
221
67
41
161

> <PUBCHEM_MMFF94_PARTIAL_CHARGES>
25
1 0.11
10 0.34
12 0.19
13 0.39
14 0.28
16 0.66
17 0.28
18 0.33
19 -0.29
2 0.11
20 -0.3
28 0.4
3 -0.68
33 0.4
34 0.5
35 0.4
36 0.15
37 0.15
38 0.15
4 -0.5
5 -0.68
6 -0.65
7 -0.57
8 -0.5
9 -0.68

> <PUBCHEM_EFFECTIVE_ROTOR_COUNT>
6.8

> <PUBCHEM_PHARMACOPHORE_FEATURES>
13
1 20 hydrophobe
1 3 acceptor
1 3 donor
1 4 acceptor
1 5 acceptor
1 5 donor
1 6 acceptor
1 7 acceptor
1 8 acceptor
1 9 acceptor
1 9 donor
3 6 7 16 anion
5 1 10 11 12 13 rings

> <PUBCHEM_HEAVY_ATOM_COUNT>
20

> <PUBCHEM_ATOM_DEF_STEREO_COUNT>
3

> <PUBCHEM_ATOM_UDEF_STEREO_COUNT>
4

> <PUBCHEM_BOND_DEF_STEREO_COUNT>
0

> <PUBCHEM_BOND_UDEF_STEREO_COUNT>
0

> <PUBCHEM_ISOTOPIC_ATOM_COUNT>
0

> <PUBCHEM_COMPONENT_COUNT>
1

> <PUBCHEM_CACTVS_TAUTO_COUNT>
1

> <PUBCHEM_CONFORMER_ID>
07E653E600000001

> <PUBCHEM_MMFF94_ENERGY>
36.8909

> <PUBCHEM_FEATURE_SELFOVERLAP>
66.052

> <PUBCHEM_SHAPE_FINGERPRINT>
11961588 58 16733562622824725038
12616999 72 18335984267612005989
12730499 353 18264776639449663979
13009979 54 17702392762607351163
13083527 12 18338221675153591978
13533116 47 18342172285590287151
14863182 85 18410011082500796430
15852999 172 18114750450570880264
16945 1 18264224525508819824
18186145 218 17822016385067002489
19422 9 18272373040779408913
20388580 30 18340765927922925535
20600515 1 17545563818089031801
20645477 70 18335412461952932967
21054139 6 17912912066289562759
21452121 199 18265883679548533019
21452121 99 16661498470445407593
23114952 82 18114189605030134220
23419403 2 17752454630910957246
23526113 38 17896049749538709666
23557571 272 17477460033826770146
23558518 356 18193002512647312192
23559900 14 18187937200390965624
23598291 2 17988098702842394377
25 1 18262517121258331993
2748010 2 18119837912732415042
3060560 45 18267581493111304901
3323516 105 18408887369201760259
54040823 5 18130509738200351805
633830 44 17967818224180372129
7364860 26 18413386523131882098

> <PUBCHEM_SHAPE_MULTIPOLES>
378.2
7.08
3.26
1.39
11.21
1.37
0.41
2.39
-2.05
-3.62
-0.18
-0.09
0.2
0.04

> <PUBCHEM_SHAPE_SELFOVERLAP>
735.339

> <PUBCHEM_SHAPE_VOLUME>
228.7

> <PUBCHEM_COORDINATE_TYPE>
2
5
10

$$$$
