132561202
  -OEChem-03292013293D

 63 63  0     1  0  0  0  0  0999 V2000
   -5.4407    1.1615   -0.1889 O   0  0  0  0  0  0  0  0  0  0  0  0
   -0.7587    1.6211   -0.4374 O   0  0  0  0  0  0  0  0  0  0  0  0
    0.7012   -2.3368    1.1142 O   0  0  0  0  0  0  0  0  0  0  0  0
   -1.7801   -2.5303   -0.4467 O   0  0  0  0  0  0  0  0  0  0  0  0
    4.6053   -0.3527   -1.4896 O   0  0  0  0  0  0  0  0  0  0  0  0
   -2.2396   -0.2451   -0.3116 N   0  0  0  0  0  0  0  0  0  0  0  0
    2.8840   -0.7092    0.0243 N   0  0  0  0  0  0  0  0  0  0  0  0
    5.5454    1.2474    0.7979 N   0  0  0  0  0  0  0  0  0  0  0  0
   -3.6765   -0.4846   -0.1344 C   0  0  2  0  0  0  0  0  0  0  0  0
   -3.1529    1.9473   -0.3155 C   0  0  0  0  0  0  0  0  0  0  0  0
   -4.2425    0.9081   -0.2242 C   0  0  0  0  0  0  0  0  0  0  0  0
   -4.0075   -1.0937    1.2206 C   0  0  0  0  0  0  0  0  0  0  0  0
   -1.8766    1.1291   -0.3641 C   0  0  0  0  0  0  0  0  0  0  0  0
    0.0411   -1.0565   -0.8305 C   0  0  1  0  0  0  0  0  0  0  0  0
   -1.3991   -1.3590   -0.5065 C   0  0  0  0  0  0  0  0  0  0  0  0
   -3.3039    2.7576   -1.5981 C   0  0  0  0  0  0  0  0  0  0  0  0
   -3.1625    2.8305    0.9272 C   0  0  0  0  0  0  0  0  0  0  0  0
    0.9331   -2.1924   -0.2923 C   0  0  1  0  0  0  0  0  0  0  0  0
   -3.8344   -0.0619    2.3355 C   0  0  0  0  0  0  0  0  0  0  0  0
   -5.4296   -1.6544    1.2298 C   0  0  0  0  0  0  0  0  0  0  0  0
    2.4471   -1.9823   -0.5029 C   0  0  2  0  0  0  0  0  0  0  0  0
    0.1262   -0.8622   -2.3399 C   0  0  0  0  0  0  0  0  0  0  0  0
    3.2733   -3.1045    0.1240 C   0  0  0  0  0  0  0  0  0  0  0  0
    3.9401    0.0077   -0.5207 C   0  0  0  0  0  0  0  0  0  0  0  0
    4.1990    1.3052    0.2344 C   0  0  2  0  0  0  0  0  0  0  0  0
    4.0716    2.4977   -0.7055 C   0  0  0  0  0  0  0  0  0  0  0  0
    5.8678    2.4978    1.4857 C   0  0  0  0  0  0  0  0  0  0  0  0
    5.6692    0.1144    1.7152 C   0  0  0  0  0  0  0  0  0  0  0  0
   -4.0242   -1.0949   -0.9746 H   0  0  0  0  0  0  0  0  0  0  0  0
   -3.3330   -1.9308    1.4345 H   0  0  0  0  0  0  0  0  0  0  0  0
    0.3649   -0.1629   -0.3042 H   0  0  0  0  0  0  0  0  0  0  0  0
   -2.5855    3.7466    0.7511 H   0  0  0  0  0  0  0  0  0  0  0  0
   -2.7003    2.3545    1.7950 H   0  0  0  0  0  0  0  0  0  0  0  0
   -2.4750    3.4628   -1.7258 H   0  0  0  0  0  0  0  0  0  0  0  0
   -4.2391    3.3286   -1.5986 H   0  0  0  0  0  0  0  0  0  0  0  0
   -4.1781    3.1330    1.2046 H   0  0  0  0  0  0  0  0  0  0  0  0
   -3.3168    2.1059   -2.4799 H   0  0  0  0  0  0  0  0  0  0  0  0
    0.6499   -3.1464   -0.7540 H   0  0  0  0  0  0  0  0  0  0  0  0
   -4.0190   -0.5466    3.3027 H   0  0  0  0  0  0  0  0  0  0  0  0
   -5.5664   -2.3837    0.4243 H   0  0  0  0  0  0  0  0  0  0  0  0
   -5.6298   -2.1683    2.1765 H   0  0  0  0  0  0  0  0  0  0  0  0
   -2.8063    0.3057    2.3802 H   0  0  0  0  0  0  0  0  0  0  0  0
   -4.5402    0.7709    2.2835 H   0  0  0  0  0  0  0  0  0  0  0  0
   -6.1877   -0.8742    1.1161 H   0  0  0  0  0  0  0  0  0  0  0  0
    2.6510   -1.9872   -1.5804 H   0  0  0  0  0  0  0  0  0  0  0  0
   -0.0903   -1.7958   -2.8713 H   0  0  0  0  0  0  0  0  0  0  0  0
   -0.5878   -0.1119   -2.6959 H   0  0  0  0  0  0  0  0  0  0  0  0
    1.1252   -0.5288   -2.6372 H   0  0  0  0  0  0  0  0  0  0  0  0
    3.1934   -3.1066    1.2166 H   0  0  0  0  0  0  0  0  0  0  0  0
    2.9494   -4.0822   -0.2473 H   0  0  0  0  0  0  0  0  0  0  0  0
    4.3350   -2.9887   -0.1209 H   0  0  0  0  0  0  0  0  0  0  0  0
    2.4463   -0.3725    0.8761 H   0  0  0  0  0  0  0  0  0  0  0  0
    0.8758   -1.4807    1.5397 H   0  0  0  0  0  0  0  0  0  0  0  0
    3.4523    1.4282    1.0305 H   0  0  0  0  0  0  0  0  0  0  0  0
    4.9033    2.5486   -1.4183 H   0  0  0  0  0  0  0  0  0  0  0  0
    4.0109    3.4493   -0.1678 H   0  0  0  0  0  0  0  0  0  0  0  0
    3.1538    2.4136   -1.3002 H   0  0  0  0  0  0  0  0  0  0  0  0
    5.9943    3.3302    0.7864 H   0  0  0  0  0  0  0  0  0  0  0  0
    5.5842   -0.8474    1.1991 H   0  0  0  0  0  0  0  0  0  0  0  0
    4.9261    0.1489    2.5205 H   0  0  0  0  0  0  0  0  0  0  0  0
    6.6635    0.1059    2.1778 H   0  0  0  0  0  0  0  0  0  0  0  0
    6.8330    2.4122    1.9998 H   0  0  0  0  0  0  0  0  0  0  0  0
    5.1154    2.7689    2.2355 H   0  0  0  0  0  0  0  0  0  0  0  0
  1 11  2  0  0  0  0
  2 13  2  0  0  0  0
  3 18  1  0  0  0  0
  3 53  1  0  0  0  0
  4 15  2  0  0  0  0
  5 24  2  0  0  0  0
  6  9  1  0  0  0  0
  6 13  1  0  0  0  0
  6 15  1  0  0  0  0
  7 21  1  0  0  0  0
  7 24  1  0  0  0  0
  7 52  1  0  0  0  0
  8 25  1  0  0  0  0
  8 27  1  0  0  0  0
  8 28  1  0  0  0  0
  9 11  1  0  0  0  0
  9 12  1  0  0  0  0
  9 29  1  0  0  0  0
 10 11  1  0  0  0  0
 10 13  1  0  0  0  0
 10 16  1  0  0  0  0
 10 17  1  0  0  0  0
 12 19  1  0  0  0  0
 12 20  1  0  0  0  0
 12 30  1  0  0  0  0
 14 15  1  0  0  0  0
 14 18  1  0  0  0  0
 14 22  1  0  0  0  0
 14 31  1  0  0  0  0
 16 34  1  0  0  0  0
 16 35  1  0  0  0  0
 16 37  1  0  0  0  0
 17 32  1  0  0  0  0
 17 33  1  0  0  0  0
 17 36  1  0  0  0  0
 18 21  1  0  0  0  0
 18 38  1  0  0  0  0
 19 39  1  0  0  0  0
 19 42  1  0  0  0  0
 19 43  1  0  0  0  0
 20 40  1  0  0  0  0
 20 41  1  0  0  0  0
 20 44  1  0  0  0  0
 21 23  1  0  0  0  0
 21 45  1  0  0  0  0
 22 46  1  0  0  0  0
 22 47  1  0  0  0  0
 22 48  1  0  0  0  0
 23 49  1  0  0  0  0
 23 50  1  0  0  0  0
 23 51  1  0  0  0  0
 24 25  1  0  0  0  0
 25 26  1  0  0  0  0
 25 54  1  0  0  0  0
 26 55  1  0  0  0  0
 26 56  1  0  0  0  0
 26 57  1  0  0  0  0
 27 58  1  0  0  0  0
 27 62  1  0  0  0  0
 27 63  1  0  0  0  0
 28 59  1  0  0  0  0
 28 60  1  0  0  0  0
 28 61  1  0  0  0  0
M  END
> <PUBCHEM_COMPOUND_CID>
132561202

> <PUBCHEM_CONFORMER_RMSD>
1

> <PUBCHEM_CONFORMER_DIVERSEORDER>
1
32
52
89
49
76
186
205
154
40
108
193
164
105
12
211
209
125
120
149
69
90
223
146
93
195
180
82
5
155
9
92
61
117
115
145
75
141
23
59
191
78
121
118
130
25
222
54
202
122
26
161
200
87
207
210
35
217
134
66
60
165
73
38
53
42
43
102
150
123
107
128
7
132
133
110
41
19
27
147
183
224
138
162
36
208
103
106
198
10
124
18
71
194
62
181
4
86
179
99
63
212
55
218
22
84
225
97
116
13
184
131
204
88
24
139
80
151
177
173
101
201
228
178
215
185
182
199
44
48
21
112
70
16
6
58
83
167
31
79
77
219
109
137
67
157
57
33
140
136
72
143
152
135
226
20
166
227
203
37
114
11
104
175
96
172
229
221
129
220
170
127
30
190
171
189
39
206
94
3
65
74
64
91
214
153
34
160
15
196
156
187
126
50
17
81
29
47
68
142
216
113
197
2
163
119
28
8
111
188
100
174
56
159
144
45
95
98
192
46
14
168
158
85
176
148
51
213
169

> <PUBCHEM_MMFF94_PARTIAL_CHARGES>
22
1 -0.57
10 0.12
11 0.45
13 0.57
14 0.06
15 0.57
18 0.28
2 -0.57
21 0.3
24 0.57
25 0.33
27 0.27
28 0.27
3 -0.68
4 -0.57
5 -0.57
52 0.37
53 0.4
6 -0.42
7 -0.73
8 -0.81
9 0.36

> <PUBCHEM_EFFECTIVE_ROTOR_COUNT>
9.6

> <PUBCHEM_PHARMACOPHORE_FEATURES>
12
1 1 acceptor
1 2 acceptor
1 22 hydrophobe
1 3 acceptor
1 3 donor
1 4 acceptor
1 5 acceptor
1 7 donor
1 8 cation
3 10 16 17 hydrophobe
3 12 19 20 hydrophobe
5 6 9 10 11 13 rings

> <PUBCHEM_HEAVY_ATOM_COUNT>
28

> <PUBCHEM_ATOM_DEF_STEREO_COUNT>
5

> <PUBCHEM_ATOM_UDEF_STEREO_COUNT>
0

> <PUBCHEM_BOND_DEF_STEREO_COUNT>
0

> <PUBCHEM_BOND_UDEF_STEREO_COUNT>
0

> <PUBCHEM_ISOTOPIC_ATOM_COUNT>
0

> <PUBCHEM_COMPONENT_COUNT>
1

> <PUBCHEM_CACTVS_TAUTO_COUNT>
4

> <PUBCHEM_CONFORMER_ID>
07E6B93200000001

> <PUBCHEM_MMFF94_ENERGY>
71.4107

> <PUBCHEM_FEATURE_SELFOVERLAP>
60.9

> <PUBCHEM_SHAPE_FINGERPRINT>
10 15 18336262444391326688
10319926 262 18114461167771289482
10670039 82 18188790400229610140
10675989 125 17257359753092481077
11112241 14 16628815500179376392
11578080 2 16952231150357303157
11796584 16 9439403489006969422
12403259 118 18040715874528622724
12422481 6 18263625309252380490
12596602 18 17240480364140986368
12633257 1 16732704956668713620
12892183 10 18261114049678931823
12925494 130 18193839237054705049
12978246 48 18410856603012150824
13140716 1 17978801438750138653
13583140 156 18190746323614251959
14251764 38 18198342853476270745
14739800 52 18342160168991452578
14787075 74 18188780577296758715
14950920 106 17095796702915440712
17349148 13 16805901661700771607
17844677 252 18340776931244204398
21033648 29 18261955150288117357
21223535 225 16987736610281289184
21623110 236 18340495482633273121
21864079 5 18341887464021533374
23227448 37 18341609369057373822
23559900 14 17978505334719977895
2747138 104 18190759693968705419
2838139 119 17917985101587521156
3459 39 17915434256170106176
3680242 22 18408321086522711208
392239 28 18188779464720667115
5081480 168 16914005520474059692
5104073 3 18263647277256044123
7808743 9 18197771301436260216
9981440 41 18334290955349501619

> <PUBCHEM_SHAPE_MULTIPOLES>
531.94
13.54
3.49
1.68
9.3
0.3
0.21
6.13
5.62
0.82
-0.04
-0.12
0.13
1.88

> <PUBCHEM_SHAPE_SELFOVERLAP>
1076.484

> <PUBCHEM_SHAPE_VOLUME>
312

> <PUBCHEM_COORDINATE_TYPE>
2
5
10

$$$$
