132529146
  -OEChem-03292013293D

 65 67  0     1  0  0  0  0  0999 V2000
    3.5431   -2.1691    0.5069 O   0  0  0  0  0  0  0  0  0  0  0  0
   -0.8013   -0.4625   -0.2149 O   0  0  0  0  0  0  0  0  0  0  0  0
    2.1032    3.8432   -0.5329 O   0  0  0  0  0  0  0  0  0  0  0  0
    3.0285   -4.4176    0.6553 O   0  0  0  0  0  0  0  0  0  0  0  0
   -1.5216    0.2494   -2.2818 O   0  0  0  0  0  0  0  0  0  0  0  0
   -4.0689   -0.0250   -1.6257 O   0  0  0  0  0  0  0  0  0  0  0  0
   -2.5751    0.4550    1.6795 O   0  0  0  0  0  0  0  0  0  0  0  0
   -5.8529   -0.4399   -0.2178 O   0  0  0  0  0  0  0  0  0  0  0  0
   -4.2259    1.1105    3.1565 O   0  0  0  0  0  0  0  0  0  0  0  0
    2.4845    1.4013   -0.5248 C   0  0  1  0  0  0  0  0  0  0  0  0
    3.3564    0.3320    0.2485 C   0  0  1  0  0  0  0  0  0  0  0  0
    2.9216   -1.0792   -0.1907 C   0  0  2  0  0  0  0  0  0  0  0  0
    0.9702    1.1147   -0.3119 C   0  0  0  0  0  0  0  0  0  0  0  0
    1.4478   -1.2887    0.1301 C   0  0  1  0  0  0  0  0  0  0  0  0
    0.5539   -0.3316   -0.6416 C   0  0  1  0  0  0  0  0  0  0  0  0
    2.8529    2.7907    0.0701 C   0  0  1  0  0  0  0  0  0  0  0  0
    4.8444    0.6668    0.1754 C   0  0  0  0  0  0  0  0  0  0  0  0
    2.7477    1.3964   -2.0575 C   0  0  0  0  0  0  0  0  0  0  0  0
    4.3409    3.1243   -0.1027 C   0  0  0  0  0  0  0  0  0  0  0  0
    1.4064   -2.7615   -0.0658 C   0  0  0  0  0  0  0  0  0  0  0  0
    5.2551    1.9420    0.0304 C   0  0  0  0  0  0  0  0  0  0  0  0
    2.7266   -3.2682    0.3930 C   0  0  0  0  0  0  0  0  0  0  0  0
    5.8588   -0.4277    0.3415 C   0  0  0  0  0  0  0  0  0  0  0  0
    0.4896   -3.5790   -0.5850 C   0  0  0  0  0  0  0  0  0  0  0  0
   -1.7516   -0.1365   -1.1417 C   0  0  0  0  0  0  0  0  0  0  0  0
   -3.1560   -0.3139   -0.5642 C   0  0  1  0  0  0  0  0  0  0  0  0
   -3.4567    0.6746    0.5821 C   0  0  2  0  0  0  0  0  0  0  0  0
   -3.3737   -1.7699   -0.1433 C   0  0  0  0  0  0  0  0  0  0  0  0
   -3.3786    2.1426    0.1660 C   0  0  0  0  0  0  0  0  0  0  0  0
   -5.3914   -0.1285   -1.3074 C   0  0  0  0  0  0  0  0  0  0  0  0
   -3.0935    0.7143    2.9166 C   0  0  0  0  0  0  0  0  0  0  0  0
   -6.2246    0.2001   -2.5090 C   0  0  0  0  0  0  0  0  0  0  0  0
   -2.0599    0.4409    3.9669 C   0  0  0  0  0  0  0  0  0  0  0  0
    3.1198    0.4033    1.3224 H   0  0  0  0  0  0  0  0  0  0  0  0
    3.1476   -1.2201   -1.2569 H   0  0  0  0  0  0  0  0  0  0  0  0
    0.3626    1.8138   -0.9011 H   0  0  0  0  0  0  0  0  0  0  0  0
    0.7053    1.3252    0.7346 H   0  0  0  0  0  0  0  0  0  0  0  0
    1.2659   -1.1333    1.2059 H   0  0  0  0  0  0  0  0  0  0  0  0
    0.6436   -0.5385   -1.7146 H   0  0  0  0  0  0  0  0  0  0  0  0
    2.6072    2.7962    1.1404 H   0  0  0  0  0  0  0  0  0  0  0  0
    3.7972    1.5754   -2.3077 H   0  0  0  0  0  0  0  0  0  0  0  0
    2.1596    2.1754   -2.5562 H   0  0  0  0  0  0  0  0  0  0  0  0
    2.4739    0.4479   -2.5271 H   0  0  0  0  0  0  0  0  0  0  0  0
    4.6220    3.8836    0.6375 H   0  0  0  0  0  0  0  0  0  0  0  0
    4.5146    3.5909   -1.0809 H   0  0  0  0  0  0  0  0  0  0  0  0
    6.3191    2.1642   -0.0009 H   0  0  0  0  0  0  0  0  0  0  0  0
    5.7126   -0.9433    1.2957 H   0  0  0  0  0  0  0  0  0  0  0  0
    6.8853   -0.0444    0.3378 H   0  0  0  0  0  0  0  0  0  0  0  0
    5.7840   -1.1506   -0.4767 H   0  0  0  0  0  0  0  0  0  0  0  0
    2.3600    4.6739   -0.0973 H   0  0  0  0  0  0  0  0  0  0  0  0
   -0.4585   -3.1951   -0.9444 H   0  0  0  0  0  0  0  0  0  0  0  0
    0.6580   -4.6473   -0.6683 H   0  0  0  0  0  0  0  0  0  0  0  0
   -4.4650    0.5359    0.9626 H   0  0  0  0  0  0  0  0  0  0  0  0
   -4.2772   -1.9352    0.4488 H   0  0  0  0  0  0  0  0  0  0  0  0
   -2.5458   -2.1363    0.4743 H   0  0  0  0  0  0  0  0  0  0  0  0
   -3.4379   -2.4230   -1.0218 H   0  0  0  0  0  0  0  0  0  0  0  0
   -2.3613    2.4096   -0.1403 H   0  0  0  0  0  0  0  0  0  0  0  0
   -4.0637    2.3787   -0.6529 H   0  0  0  0  0  0  0  0  0  0  0  0
   -3.6231    2.7988    1.0084 H   0  0  0  0  0  0  0  0  0  0  0  0
   -6.0241    1.2256   -2.8291 H   0  0  0  0  0  0  0  0  0  0  0  0
   -7.2838    0.1169   -2.2495 H   0  0  0  0  0  0  0  0  0  0  0  0
   -6.0069   -0.5051   -3.3150 H   0  0  0  0  0  0  0  0  0  0  0  0
   -1.1929    1.0875    3.8100 H   0  0  0  0  0  0  0  0  0  0  0  0
   -1.7667   -0.6114    3.9321 H   0  0  0  0  0  0  0  0  0  0  0  0
   -2.4800    0.6539    4.9540 H   0  0  0  0  0  0  0  0  0  0  0  0
  1 12  1  0  0  0  0
  1 22  1  0  0  0  0
  2 15  1  0  0  0  0
  2 25  1  0  0  0  0
  3 16  1  0  0  0  0
  3 50  1  0  0  0  0
  4 22  2  0  0  0  0
  5 25  2  0  0  0  0
  6 26  1  0  0  0  0
  6 30  1  0  0  0  0
  7 27  1  0  0  0  0
  7 31  1  0  0  0  0
  8 30  2  0  0  0  0
  9 31  2  0  0  0  0
 10 11  1  0  0  0  0
 10 13  1  0  0  0  0
 10 16  1  0  0  0  0
 10 18  1  0  0  0  0
 11 12  1  0  0  0  0
 11 17  1  0  0  0  0
 11 34  1  0  0  0  0
 12 14  1  0  0  0  0
 12 35  1  0  0  0  0
 13 15  1  0  0  0  0
 13 36  1  0  0  0  0
 13 37  1  0  0  0  0
 14 15  1  0  0  0  0
 14 20  1  0  0  0  0
 14 38  1  0  0  0  0
 15 39  1  0  0  0  0
 16 19  1  0  0  0  0
 16 40  1  0  0  0  0
 17 21  2  0  0  0  0
 17 23  1  0  0  0  0
 18 41  1  0  0  0  0
 18 42  1  0  0  0  0
 18 43  1  0  0  0  0
 19 21  1  0  0  0  0
 19 44  1  0  0  0  0
 19 45  1  0  0  0  0
 20 22  1  0  0  0  0
 20 24  2  0  0  0  0
 21 46  1  0  0  0  0
 23 47  1  0  0  0  0
 23 48  1  0  0  0  0
 23 49  1  0  0  0  0
 24 51  1  0  0  0  0
 24 52  1  0  0  0  0
 25 26  1  0  0  0  0
 26 27  1  0  0  0  0
 26 28  1  0  0  0  0
 27 29  1  0  0  0  0
 27 53  1  0  0  0  0
 28 54  1  0  0  0  0
 28 55  1  0  0  0  0
 28 56  1  0  0  0  0
 29 57  1  0  0  0  0
 29 58  1  0  0  0  0
 29 59  1  0  0  0  0
 30 32  1  0  0  0  0
 31 33  1  0  0  0  0
 32 60  1  0  0  0  0
 32 61  1  0  0  0  0
 32 62  1  0  0  0  0
 33 63  1  0  0  0  0
 33 64  1  0  0  0  0
 33 65  1  0  0  0  0
M  END
> <PUBCHEM_COMPOUND_CID>
132529146

> <PUBCHEM_CONFORMER_RMSD>
1

> <PUBCHEM_CONFORMER_DIVERSEORDER>
1
39
21
53
36
28
63
37
61
50
57
51
18
33
22
55
17
46
35
16
19
31
54
58
45
4
23
52
13
38
47
30
59
12
29
25
34
3
48
56
27
26
24
20
5
14
43
2
11
44
42
40
9
32
41
6
7
62
15
8
10
60
49

> <PUBCHEM_MMFF94_PARTIAL_CHARGES>
32
1 -0.43
11 0.14
12 0.28
14 0.14
15 0.28
16 0.28
17 -0.28
19 0.14
2 -0.43
20 -0.12
21 -0.29
22 0.71
23 0.14
24 -0.3
25 0.66
26 0.34
27 0.28
3 -0.68
30 0.66
31 0.66
32 0.06
33 0.06
4 -0.57
46 0.15
5 -0.57
50 0.4
51 0.15
52 0.15
6 -0.43
7 -0.43
8 -0.57
9 -0.57

> <PUBCHEM_EFFECTIVE_ROTOR_COUNT>
9

> <PUBCHEM_PHARMACOPHORE_FEATURES>
9
1 3 acceptor
1 3 donor
1 4 acceptor
1 5 acceptor
1 8 acceptor
1 9 acceptor
5 1 12 14 20 22 rings
6 10 11 12 13 14 15 rings
6 10 11 16 17 19 21 rings

> <PUBCHEM_HEAVY_ATOM_COUNT>
33

> <PUBCHEM_ATOM_DEF_STEREO_COUNT>
8

> <PUBCHEM_ATOM_UDEF_STEREO_COUNT>
0

> <PUBCHEM_BOND_DEF_STEREO_COUNT>
0

> <PUBCHEM_BOND_UDEF_STEREO_COUNT>
0

> <PUBCHEM_ISOTOPIC_ATOM_COUNT>
0

> <PUBCHEM_COMPONENT_COUNT>
1

> <PUBCHEM_CACTVS_TAUTO_COUNT>
1

> <PUBCHEM_CONFORMER_ID>
07E63BFA00000001

> <PUBCHEM_MMFF94_ENERGY>
90.8683

> <PUBCHEM_FEATURE_SELFOVERLAP>
45.763

> <PUBCHEM_SHAPE_FINGERPRINT>
10411042 1 17977371738959975022
1100329 8 18337380652470892094
11007060 377 18197787794232684784
11049842 53 16126705686750911279
12107183 9 17836926698794686769
12160290 23 17545347605367340678
12236239 1 17917708015402560645
12788726 201 17346878953773734499
13009979 54 17630605622095900498
13140716 1 18263354966820552558
13533116 47 18340757174911354367
13965767 371 17557449607552447560
15361156 5 17312825982632176534
17138139 8 17700390740648293503
17809404 112 17385726889631156035
19319366 153 18272075145504968174
20101258 96 17617944626234389610
20511986 3 17917982880419840929
20739085 24 18197225754601060690
21033648 29 18048581901432141820
21033650 10 16414103908978911288
21133410 230 16542965833792115488
2132832 1 18129089027274442163
23557571 272 15267342916377013931
23559900 14 18336253592395268135
23569943 247 17982455902344241598
244849 19 17603877654550827475
25147074 1 17989207002136677875
335352 9 18409722990060885182
3633792 109 18339349783116639271
392239 28 17911259508876803819
4015057 19 18261106319122290723
469060 322 17901684966133076491
474 4 18411697725037890574
5895379 119 16701759180477958632
59755656 215 18261664913762629086

> <PUBCHEM_SHAPE_MULTIPOLES>
626.3
12.51
3.86
2.42
6.58
2.46
2.45
-3.61
-2.14
-5.83
0.17
4.8
-0.99
-1.71

> <PUBCHEM_SHAPE_SELFOVERLAP>
1321.785

> <PUBCHEM_SHAPE_VOLUME>
346.7

> <PUBCHEM_COORDINATE_TYPE>
2
5
10

$$$$
