132535211
  -OEChem-03292013293D

 58 64  0     1  0  0  0  0  0999 V2000
   -2.5491   -4.7445   -0.7775 O   0  0  0  0  0  0  0  0  0  0  0  0
   -6.3512    0.4814    1.6907 O   0  0  0  0  0  0  0  0  0  0  0  0
    2.0561    0.4115    1.1525 N   0  0  0  0  0  0  0  0  0  0  0  0
   -0.1333    0.7805    1.4863 N   0  0  0  0  0  0  0  0  0  0  0  0
    2.2472   -0.4448   -1.0498 N   0  0  0  0  0  0  0  0  0  0  0  0
    0.3270    2.0069   -1.7869 N   0  0  0  0  0  0  0  0  0  0  0  0
    1.3416    1.2570    3.2796 N   0  0  0  0  0  0  0  0  0  0  0  0
   -1.6932    2.8887   -2.0566 N   0  0  0  0  0  0  0  0  0  0  0  0
    0.1492    3.6874   -3.3975 N   0  0  0  0  0  0  0  0  0  0  0  0
    0.0383    0.2551    0.0306 C   0  0  2  0  0  0  0  0  0  0  0  0
    1.5673    0.0270   -0.0526 C   0  0  0  0  0  0  0  0  0  0  0  0
   -0.4863    1.3565   -0.9022 C   0  0  0  0  0  0  0  0  0  0  0  0
   -0.6610   -1.0954   -0.1882 C   0  0  0  0  0  0  0  0  0  0  0  0
    1.0765    0.8301    1.9997 C   0  0  0  0  0  0  0  0  0  0  0  0
    3.3838    0.3631    1.5040 C   0  0  0  0  0  0  0  0  0  0  0  0
   -1.7278    1.9179   -1.0871 C   0  0  0  0  0  0  0  0  0  0  0  0
    4.2616   -0.1513    0.4207 C   0  0  0  0  0  0  0  0  0  0  0  0
    3.6522   -0.5369   -0.8143 C   0  0  0  0  0  0  0  0  0  0  0  0
   -0.5964   -1.7212   -1.4332 C   0  0  0  0  0  0  0  0  0  0  0  0
   -1.3602   -1.6959    0.8588 C   0  0  0  0  0  0  0  0  0  0  0  0
    3.7420    0.7594    2.7386 C   0  0  0  0  0  0  0  0  0  0  0  0
   -0.4416    2.9173   -2.4575 C   0  0  0  0  0  0  0  0  0  0  0  0
   -2.9136    1.5512   -0.3751 C   0  0  0  0  0  0  0  0  0  0  0  0
    2.6028    1.2165    3.6048 C   0  0  0  0  0  0  0  0  0  0  0  0
    5.6502   -0.2717    0.5644 C   0  0  0  0  0  0  0  0  0  0  0  0
    4.4549   -1.0263   -1.8517 C   0  0  0  0  0  0  0  0  0  0  0  0
   -1.2312   -2.9473   -1.6314 C   0  0  0  0  0  0  0  0  0  0  0  0
   -1.9950   -2.9220    0.6606 C   0  0  0  0  0  0  0  0  0  0  0  0
   -1.9305   -3.5476   -0.5843 C   0  0  0  0  0  0  0  0  0  0  0  0
    6.4291   -0.7623   -0.4855 C   0  0  0  0  0  0  0  0  0  0  0  0
    5.8348   -1.1381   -1.6877 C   0  0  0  0  0  0  0  0  0  0  0  0
   -3.7394    0.5419   -0.8701 C   0  0  0  0  0  0  0  0  0  0  0  0
   -3.2429    2.2012    0.8144 C   0  0  0  0  0  0  0  0  0  0  0  0
   -4.8943    0.1824   -0.1754 C   0  0  0  0  0  0  0  0  0  0  0  0
   -4.3978    1.8418    1.5090 C   0  0  0  0  0  0  0  0  0  0  0  0
   -5.2235    0.8323    1.0141 C   0  0  0  0  0  0  0  0  0  0  0  0
   -3.2464   -5.3018    0.3358 C   0  0  0  0  0  0  0  0  0  0  0  0
    1.3158    1.8502   -1.9294 H   0  0  0  0  0  0  0  0  0  0  0  0
   -0.0676   -1.2665   -2.2662 H   0  0  0  0  0  0  0  0  0  0  0  0
   -1.4354   -1.2391    1.8405 H   0  0  0  0  0  0  0  0  0  0  0  0
    4.7443    0.7688    3.1409 H   0  0  0  0  0  0  0  0  0  0  0  0
    2.8974    1.5437    4.6153 H   0  0  0  0  0  0  0  0  0  0  0  0
    6.1515    0.0108    1.4859 H   0  0  0  0  0  0  0  0  0  0  0  0
    4.0068   -1.3233   -2.7969 H   0  0  0  0  0  0  0  0  0  0  0  0
   -1.1797   -3.4287   -2.6041 H   0  0  0  0  0  0  0  0  0  0  0  0
   -2.5215   -3.3319    1.5158 H   0  0  0  0  0  0  0  0  0  0  0  0
    7.5050   -0.8514   -0.3634 H   0  0  0  0  0  0  0  0  0  0  0  0
    6.4477   -1.5189   -2.4997 H   0  0  0  0  0  0  0  0  0  0  0  0
   -3.4988    0.0265   -1.7969 H   0  0  0  0  0  0  0  0  0  0  0  0
   -2.6097    2.9900    1.2138 H   0  0  0  0  0  0  0  0  0  0  0  0
   -0.3759    4.3776   -3.9247 H   0  0  0  0  0  0  0  0  0  0  0  0
    1.1368    3.6168   -3.6228 H   0  0  0  0  0  0  0  0  0  0  0  0
   -5.5332   -0.6051   -0.5659 H   0  0  0  0  0  0  0  0  0  0  0  0
   -4.6432    2.3556    2.4346 H   0  0  0  0  0  0  0  0  0  0  0  0
   -3.6774   -6.2522    0.0042 H   0  0  0  0  0  0  0  0  0  0  0  0
   -4.0805   -4.6643    0.6482 H   0  0  0  0  0  0  0  0  0  0  0  0
   -2.5661   -5.5306    1.1631 H   0  0  0  0  0  0  0  0  0  0  0  0
   -6.4232    1.0318    2.4895 H   0  0  0  0  0  0  0  0  0  0  0  0
  1 29  1  0  0  0  0
  1 37  1  0  0  0  0
  2 36  1  0  0  0  0
  2 58  1  0  0  0  0
  3 11  1  0  0  0  0
  3 14  1  0  0  0  0
  3 15  1  0  0  0  0
  4 10  1  0  0  0  0
  4 14  2  0  0  0  0
  5 11  2  0  0  0  0
  5 18  1  0  0  0  0
  6 12  1  0  0  0  0
  6 22  1  0  0  0  0
  6 38  1  0  0  0  0
  7 14  1  0  0  0  0
  7 24  2  0  0  0  0
  8 16  1  0  0  0  0
  8 22  2  0  0  0  0
  9 22  1  0  0  0  0
  9 51  1  0  0  0  0
  9 52  1  0  0  0  0
 10 11  1  0  0  0  0
 10 12  1  0  0  0  0
 10 13  1  0  0  0  0
 12 16  2  0  0  0  0
 13 19  2  0  0  0  0
 13 20  1  0  0  0  0
 15 17  1  0  0  0  0
 15 21  2  0  0  0  0
 16 23  1  0  0  0  0
 17 18  1  0  0  0  0
 17 25  2  0  0  0  0
 18 26  2  0  0  0  0
 19 27  1  0  0  0  0
 19 39  1  0  0  0  0
 20 28  2  0  0  0  0
 20 40  1  0  0  0  0
 21 24  1  0  0  0  0
 21 41  1  0  0  0  0
 23 32  2  0  0  0  0
 23 33  1  0  0  0  0
 24 42  1  0  0  0  0
 25 30  1  0  0  0  0
 25 43  1  0  0  0  0
 26 31  1  0  0  0  0
 26 44  1  0  0  0  0
 27 29  2  0  0  0  0
 27 45  1  0  0  0  0
 28 29  1  0  0  0  0
 28 46  1  0  0  0  0
 30 31  2  0  0  0  0
 30 47  1  0  0  0  0
 31 48  1  0  0  0  0
 32 34  1  0  0  0  0
 32 49  1  0  0  0  0
 33 35  2  0  0  0  0
 33 50  1  0  0  0  0
 34 36  2  0  0  0  0
 34 53  1  0  0  0  0
 35 36  1  0  0  0  0
 35 54  1  0  0  0  0
 37 55  1  0  0  0  0
 37 56  1  0  0  0  0
 37 57  1  0  0  0  0
M  END
> <PUBCHEM_COMPOUND_CID>
132535211

> <PUBCHEM_CONFORMER_RMSD>
0.8

> <PUBCHEM_CONFORMER_DIVERSEORDER>
1
4
3
5
2
6
8
12
7
11
9
10

> <PUBCHEM_MMFF94_PARTIAL_CHARGES>
55
1 -0.36
10 0.63
11 0.44
12 -0.33
13 -0.14
14 0.71
15 0.07
16 0.17
17 0.03
18 0.18
19 -0.15
2 -0.53
20 -0.15
21 -0.14
22 0.27
23 0.05
24 0.38
25 -0.15
26 -0.15
27 -0.15
28 -0.15
29 0.08
3 -0.2
30 -0.15
31 -0.15
32 -0.15
33 -0.15
34 -0.15
35 -0.15
36 0.08
37 0.28
38 0.27
39 0.15
4 -0.7
40 0.15
41 0.15
42 0.06
43 0.15
44 0.15
45 0.15
46 0.15
47 0.15
48 0.15
49 0.15
5 -0.63
50 0.15
51 0.4
52 0.4
53 0.15
54 0.15
58 0.45
6 0.03
7 -0.66
8 -0.57
9 -0.88

> <PUBCHEM_EFFECTIVE_ROTOR_COUNT>
4.2

> <PUBCHEM_PHARMACOPHORE_FEATURES>
14
1 1 acceptor
1 2 donor
1 6 donor
1 7 acceptor
1 9 donor
4 3 4 7 14 cation
4 6 8 9 22 cation
5 3 4 10 11 14 rings
5 6 8 12 16 22 rings
6 13 19 20 27 28 29 rings
6 17 18 25 26 30 31 rings
6 23 32 33 34 35 36 rings
6 3 5 11 15 17 18 rings
6 3 7 14 15 21 24 rings

> <PUBCHEM_HEAVY_ATOM_COUNT>
37

> <PUBCHEM_ATOM_DEF_STEREO_COUNT>
1

> <PUBCHEM_ATOM_UDEF_STEREO_COUNT>
0

> <PUBCHEM_BOND_DEF_STEREO_COUNT>
0

> <PUBCHEM_BOND_UDEF_STEREO_COUNT>
0

> <PUBCHEM_ISOTOPIC_ATOM_COUNT>
0

> <PUBCHEM_COMPONENT_COUNT>
1

> <PUBCHEM_CACTVS_TAUTO_COUNT>
33

> <PUBCHEM_CONFORMER_ID>
07E653AB00000001

> <PUBCHEM_MMFF94_ENERGY>
126.5682

> <PUBCHEM_FEATURE_SELFOVERLAP>
71.394

> <PUBCHEM_SHAPE_FINGERPRINT>
10010297 198 17169823376017914083
10165383 225 18270123396343253204
10815517 723 18411980300022588911
11578080 2 17986678262695116352
12128747 34 17703790344422117939
12160290 23 18052501561036166495
12633046 712 17488202524580934194
12788726 201 17386001715824776248
13782708 43 18270397183724247238
14020679 6 17560801004718680643
14114206 34 17023173972347920022
14117953 113 18335133216607802399
14279260 333 17057812798524511358
15361156 5 17917141805790644108
1813 80 18047749583787775710
18681886 176 18261122872101024229
19958102 18 18267022765406375550
20600515 1 17540770248202759767
21033648 29 18342165627758294361
21344244 78 17476630349351362099
23559900 14 18202280338370960272
244849 19 17632006571945665226
3380486 145 17196827686512526295
3383291 50 17771910424698792502
4015057 19 17203028760278225080
469060 322 17825074182785765115
5080951 261 18124563536563254518
552612 73 17987234615726347368
563151 74 16341998000679648666
70251023 43 17684378638781103555

> <PUBCHEM_SHAPE_MULTIPOLES>
714.84
11.19
4.48
2.96
6.67
6.17
-0.68
1.1
-2
-6.54
1.84
1.95
-2.86
1.46

> <PUBCHEM_SHAPE_SELFOVERLAP>
1633.737

> <PUBCHEM_SHAPE_VOLUME>
366.8

> <PUBCHEM_COORDINATE_TYPE>
2
5
10

$$$$
