132600633
  -OEChem-03292013293D

 53 59  0     1  0  0  0  0  0999 V2000
   -3.6143   -3.1432   -0.2720 O   0  0  0  0  0  0  0  0  0  0  0  0
   -1.9903    3.2647   -2.1417 O   0  0  0  0  0  0  0  0  0  0  0  0
   -2.0569   -4.8451    0.8272 O   0  0  0  0  0  0  0  0  0  0  0  0
   -4.2082    3.4517   -0.4336 O   0  0  0  0  0  0  0  0  0  0  0  0
    5.8025    0.9079   -0.6258 O   0  0  0  0  0  0  0  0  0  0  0  0
    4.5072    2.9819    0.2115 O   0  0  0  0  0  0  0  0  0  0  0  0
   -0.4324   -0.4886   -0.9439 C   0  0  2  0  0  0  0  0  0  0  0  0
   -1.7080   -0.4648   -1.8096 C   0  0  1  0  0  0  0  0  0  0  0  0
   -0.2174   -1.8397   -0.3011 C   0  0  0  0  0  0  0  0  0  0  0  0
   -0.2168    0.5846    0.1180 C   0  0  0  0  0  0  0  0  0  0  0  0
   -2.9414   -1.0324   -1.1095 C   0  0  0  0  0  0  0  0  0  0  0  0
   -1.9380    0.8929   -2.4897 C   0  0  0  0  0  0  0  0  0  0  0  0
   -1.2878   -2.7223   -0.0678 C   0  0  0  0  0  0  0  0  0  0  0  0
    1.0927   -2.1752    0.1183 C   0  0  0  0  0  0  0  0  0  0  0  0
    1.0351    0.9230    0.5401 C   0  0  0  0  0  0  0  0  0  0  0  0
   -2.6743   -2.3785   -0.4771 C   0  0  0  0  0  0  0  0  0  0  0  0
   -1.4338    1.2575    0.6272 C   0  0  0  0  0  0  0  0  0  0  0  0
    2.2421    0.1296    0.1137 C   0  0  0  0  0  0  0  0  0  0  0  0
    2.2556   -1.2748   -0.1261 C   0  0  0  0  0  0  0  0  0  0  0  0
   -2.0462    2.1445   -1.6377 C   0  0  0  0  0  0  0  0  0  0  0  0
   -2.2701    2.0296   -0.1882 C   0  0  0  0  0  0  0  0  0  0  0  0
   -1.0657   -3.9436    0.5749 C   0  0  0  0  0  0  0  0  0  0  0  0
    1.2774   -3.4065    0.7778 C   0  0  0  0  0  0  0  0  0  0  0  0
    3.4562    0.8482   -0.0054 C   0  0  0  0  0  0  0  0  0  0  0  0
    1.2768    2.1273    1.3340 C   0  0  0  0  0  0  0  0  0  0  0  0
   -1.7786    1.1134    1.9834 C   0  0  0  0  0  0  0  0  0  0  0  0
    0.2140   -4.2807    0.9996 C   0  0  0  0  0  0  0  0  0  0  0  0
    3.4505   -1.8529   -0.6153 C   0  0  0  0  0  0  0  0  0  0  0  0
   -3.3805    2.6976    0.3447 C   0  0  0  0  0  0  0  0  0  0  0  0
    3.5531    2.2551    0.4597 C   0  0  0  0  0  0  0  0  0  0  0  0
    4.6224    0.2416   -0.4820 C   0  0  0  0  0  0  0  0  0  0  0  0
    2.4464    2.7730    1.2929 C   0  0  0  0  0  0  0  0  0  0  0  0
    4.6103   -1.1053   -0.8067 C   0  0  0  0  0  0  0  0  0  0  0  0
   -2.8940    1.7648    2.5137 C   0  0  0  0  0  0  0  0  0  0  0  0
   -3.6879    2.5646    1.6967 C   0  0  0  0  0  0  0  0  0  0  0  0
    0.3598   -0.3570   -1.6986 H   0  0  0  0  0  0  0  0  0  0  0  0
   -1.5151   -1.1662   -2.6390 H   0  0  0  0  0  0  0  0  0  0  0  0
   -3.7322   -1.1721   -1.8575 H   0  0  0  0  0  0  0  0  0  0  0  0
   -3.3474   -0.3835   -0.3325 H   0  0  0  0  0  0  0  0  0  0  0  0
   -2.8499    0.8425   -3.0972 H   0  0  0  0  0  0  0  0  0  0  0  0
   -1.1010    1.0691   -3.1786 H   0  0  0  0  0  0  0  0  0  0  0  0
    2.2621   -3.7009    1.1362 H   0  0  0  0  0  0  0  0  0  0  0  0
    0.4787    2.5746    1.9147 H   0  0  0  0  0  0  0  0  0  0  0  0
   -1.1727    0.4974    2.6452 H   0  0  0  0  0  0  0  0  0  0  0  0
    0.3955   -5.2236    1.5089 H   0  0  0  0  0  0  0  0  0  0  0  0
    3.4906   -2.9143   -0.8562 H   0  0  0  0  0  0  0  0  0  0  0  0
    2.5978    3.7042    1.8265 H   0  0  0  0  0  0  0  0  0  0  0  0
    5.5066   -1.5932   -1.1802 H   0  0  0  0  0  0  0  0  0  0  0  0
   -3.1395    1.6495    3.5654 H   0  0  0  0  0  0  0  0  0  0  0  0
   -4.5538    3.0690    2.1168 H   0  0  0  0  0  0  0  0  0  0  0  0
   -2.8865   -4.5719    0.4083 H   0  0  0  0  0  0  0  0  0  0  0  0
   -3.8998    3.4646   -1.3533 H   0  0  0  0  0  0  0  0  0  0  0  0
    5.6824    1.8577   -0.4772 H   0  0  0  0  0  0  0  0  0  0  0  0
  1 16  2  0  0  0  0
  2 20  2  0  0  0  0
  3 22  1  0  0  0  0
  3 51  1  0  0  0  0
  4 29  1  0  0  0  0
  4 52  1  0  0  0  0
  5 31  1  0  0  0  0
  5 53  1  0  0  0  0
  6 30  2  0  0  0  0
  7  8  1  0  0  0  0
  7  9  1  0  0  0  0
  7 10  1  0  0  0  0
  7 36  1  0  0  0  0
  8 11  1  0  0  0  0
  8 12  1  0  0  0  0
  8 37  1  0  0  0  0
  9 13  1  0  0  0  0
  9 14  2  0  0  0  0
 10 15  2  0  0  0  0
 10 17  1  0  0  0  0
 11 16  1  0  0  0  0
 11 38  1  0  0  0  0
 11 39  1  0  0  0  0
 12 20  1  0  0  0  0
 12 40  1  0  0  0  0
 12 41  1  0  0  0  0
 13 16  1  0  0  0  0
 13 22  2  0  0  0  0
 14 19  1  0  0  0  0
 14 23  1  0  0  0  0
 15 18  1  0  0  0  0
 15 25  1  0  0  0  0
 17 21  2  0  0  0  0
 17 26  1  0  0  0  0
 18 19  2  0  0  0  0
 18 24  1  0  0  0  0
 19 28  1  0  0  0  0
 20 21  1  0  0  0  0
 21 29  1  0  0  0  0
 22 27  1  0  0  0  0
 23 27  2  0  0  0  0
 23 42  1  0  0  0  0
 24 30  1  0  0  0  0
 24 31  2  0  0  0  0
 25 32  2  0  0  0  0
 25 43  1  0  0  0  0
 26 34  2  0  0  0  0
 26 44  1  0  0  0  0
 27 45  1  0  0  0  0
 28 33  2  0  0  0  0
 28 46  1  0  0  0  0
 29 35  2  0  0  0  0
 30 32  1  0  0  0  0
 31 33  1  0  0  0  0
 32 47  1  0  0  0  0
 33 48  1  0  0  0  0
 34 35  1  0  0  0  0
 34 49  1  0  0  0  0
 35 50  1  0  0  0  0
M  END
> <PUBCHEM_COMPOUND_CID>
132600633

> <PUBCHEM_CONFORMER_RMSD>
0.6

> <PUBCHEM_CONFORMER_DIVERSEORDER>
1
2

> <PUBCHEM_MMFF94_PARTIAL_CHARGES>
44
1 -0.57
10 -0.17
11 0.06
12 0.06
13 0.09
15 -0.03
16 0.42
17 0.03
18 0.03
2 -0.57
20 0.42
21 0.09
22 0.08
23 -0.15
24 0.09
25 -0.15
26 -0.15
27 -0.15
28 -0.15
29 0.08
3 -0.53
30 0.47
31 0.08
32 -0.14
33 -0.15
34 -0.15
35 -0.15
4 -0.53
42 0.15
43 0.15
44 0.15
45 0.15
46 0.15
47 0.15
48 0.15
49 0.15
5 -0.53
50 0.15
51 0.45
52 0.45
53 0.45
6 -0.57
7 0.28
9 -0.14

> <PUBCHEM_EFFECTIVE_ROTOR_COUNT>
0.4

> <PUBCHEM_PHARMACOPHORE_FEATURES>
13
1 1 acceptor
1 2 acceptor
1 3 donor
1 4 donor
1 5 donor
1 6 acceptor
6 15 18 24 25 30 32 rings
6 17 21 26 29 34 35 rings
6 18 19 24 28 31 33 rings
6 7 8 9 11 13 16 rings
6 9 13 14 22 23 27 rings
7 7 8 10 12 17 20 21 rings
7 7 9 10 14 15 18 19 rings

> <PUBCHEM_HEAVY_ATOM_COUNT>
35

> <PUBCHEM_ATOM_DEF_STEREO_COUNT>
0

> <PUBCHEM_ATOM_UDEF_STEREO_COUNT>
2

> <PUBCHEM_BOND_DEF_STEREO_COUNT>
0

> <PUBCHEM_BOND_UDEF_STEREO_COUNT>
0

> <PUBCHEM_ISOTOPIC_ATOM_COUNT>
0

> <PUBCHEM_COMPONENT_COUNT>
1

> <PUBCHEM_CACTVS_TAUTO_COUNT>
994

> <PUBCHEM_CONFORMER_ID>
07E7533900000001

> <PUBCHEM_MMFF94_ENERGY>
150.8974

> <PUBCHEM_FEATURE_SELFOVERLAP>
66.113

> <PUBCHEM_SHAPE_FINGERPRINT>
10165383 225 18190191083095303276
10190108 129 18191611755651435139
10721379 63 17331339448137121981
1100329 8 18196091037015719634
11115154 58 17628621245323653639
11578080 2 16236503905500377452
11582403 64 16229948733561531501
12107698 1 17917982897609623526
12156800 1 17405764500972761029
12160290 23 18125133151825403278
12788726 201 18197486535792064147
13140716 1 18342168922103016714
13402501 40 17978225290405031806
13583140 156 18120384151089731737
1361 2 18335132043507152573
13911987 19 17905060157307931726
140371 6 17976825611680347276
14790565 3 18338806593569657648
14955137 171 17471299452727998506
17138139 8 17843652562188591029
19311894 1 18055918688741490790
19319366 153 18195528090871416716
20600515 1 17613144587182923398
23558518 356 18342459287208511488
23559900 14 18122056770431847964
238 59 17829866777445383605
23845131 108 18262521377876754267
283562 15 18339073916682063907
3298306 158 18046071449606599600
350125 39 18412831308324890056
392239 28 18270418156366013147
4058900 60 17979935816717449001
460360 51 18334842910550252194
469060 322 17967822673376100775
50150288 127 17129614407419948265
5252454 2 18262807254988968276
70251023 43 17487600034531124751

> <PUBCHEM_SHAPE_MULTIPOLES>
685.07
7.84
5.7
1.79
6.71
5.1
0.18
-5.72
0.86
-2.38
-1.71
-1.84
-1
0.07

> <PUBCHEM_SHAPE_SELFOVERLAP>
1593.027

> <PUBCHEM_SHAPE_VOLUME>
339.9

> <PUBCHEM_COORDINATE_TYPE>
2
5
10

$$$$
