132663
  -OEChem-03292013323D

 33 35  0     1  0  0  0  0  0999 V2000
   -2.2333   -3.3005    0.5898 Br  0  0  0  0  0  0  0  0  0  0  0  0
    2.0785   -0.4104   -0.9974 O   0  0  0  0  0  0  0  0  0  0  0  0
    1.4279    2.2721    1.3051 O   0  0  0  0  0  0  0  0  0  0  0  0
    3.6275    2.1172   -0.2832 O   0  0  0  0  0  0  0  0  0  0  0  0
   -0.1248   -0.0717   -0.1845 N   0  0  0  0  0  0  0  0  0  0  0  0
   -0.2115   -1.3888    0.0867 N   0  0  0  0  0  0  0  0  0  0  0  0
    3.7673   -2.6619   -0.5485 N   0  0  0  0  0  0  0  0  0  0  0  0
   -1.5671    1.8498   -0.4887 N   0  0  0  0  0  0  0  0  0  0  0  0
   -3.9211    1.2635   -0.2333 N   0  0  0  0  0  0  0  0  0  0  0  0
   -4.6587   -0.9468    0.2571 N   0  0  0  0  0  0  0  0  0  0  0  0
    1.8640    0.9906    0.9000 C   0  0  2  0  0  0  0  0  0  0  0  0
    3.3252    0.9606    0.4971 C   0  0  1  0  0  0  0  0  0  0  0  0
    1.1864    0.5408   -0.3854 C   0  0  1  0  0  0  0  0  0  0  0  0
    3.3894   -0.2699   -0.4022 C   0  0  1  0  0  0  0  0  0  0  0  0
    3.7090   -1.5472    0.3618 C   0  0  0  0  0  0  0  0  0  0  0  0
   -1.3385    0.5505   -0.2396 C   0  0  0  0  0  0  0  0  0  0  0  0
   -2.2838   -0.4280    0.0131 C   0  0  0  0  0  0  0  0  0  0  0  0
   -1.5271   -1.5989    0.2056 C   0  0  0  0  0  0  0  0  0  0  0  0
   -3.6178   -0.0340    0.0111 C   0  0  0  0  0  0  0  0  0  0  0  0
   -2.8916    2.1126   -0.4648 C   0  0  0  0  0  0  0  0  0  0  0  0
    1.6783    0.2828    1.7161 H   0  0  0  0  0  0  0  0  0  0  0  0
    4.0103    0.9433    1.3495 H   0  0  0  0  0  0  0  0  0  0  0  0
    1.0449    1.3679   -1.0918 H   0  0  0  0  0  0  0  0  0  0  0  0
    4.1060   -0.1248   -1.2197 H   0  0  0  0  0  0  0  0  0  0  0  0
    2.9406   -1.7571    1.1134 H   0  0  0  0  0  0  0  0  0  0  0  0
    4.6669   -1.4513    0.8834 H   0  0  0  0  0  0  0  0  0  0  0  0
    1.6443    2.9016    0.5963 H   0  0  0  0  0  0  0  0  0  0  0  0
    4.5578    2.0470   -0.5574 H   0  0  0  0  0  0  0  0  0  0  0  0
    4.4826   -2.4992   -1.2563 H   0  0  0  0  0  0  0  0  0  0  0  0
    2.8866   -2.7439   -1.0554 H   0  0  0  0  0  0  0  0  0  0  0  0
   -3.1697    3.1434   -0.6567 H   0  0  0  0  0  0  0  0  0  0  0  0
   -5.6146   -0.6180    0.2459 H   0  0  0  0  0  0  0  0  0  0  0  0
   -4.4554   -1.9197    0.4414 H   0  0  0  0  0  0  0  0  0  0  0  0
  1 18  1  0  0  0  0
  2 13  1  0  0  0  0
  2 14  1  0  0  0  0
  3 11  1  0  0  0  0
  3 27  1  0  0  0  0
  4 12  1  0  0  0  0
  4 28  1  0  0  0  0
  5  6  1  0  0  0  0
  5 13  1  0  0  0  0
  5 16  1  0  0  0  0
  6 18  2  0  0  0  0
  7 15  1  0  0  0  0
  7 29  1  0  0  0  0
  7 30  1  0  0  0  0
  8 16  2  0  0  0  0
  8 20  1  0  0  0  0
  9 19  1  0  0  0  0
  9 20  2  0  0  0  0
 10 19  1  0  0  0  0
 10 32  1  0  0  0  0
 10 33  1  0  0  0  0
 11 12  1  0  0  0  0
 11 13  1  0  0  0  0
 11 21  1  0  0  0  0
 12 14  1  0  0  0  0
 12 22  1  0  0  0  0
 13 23  1  0  0  0  0
 14 15  1  0  0  0  0
 14 24  1  0  0  0  0
 15 25  1  0  0  0  0
 15 26  1  0  0  0  0
 16 17  1  0  0  0  0
 17 18  1  0  0  0  0
 17 19  2  0  0  0  0
 20 31  1  0  0  0  0
M  END
> <PUBCHEM_COMPOUND_CID>
132663

> <PUBCHEM_CONFORMER_RMSD>
0.6

> <PUBCHEM_CONFORMER_DIVERSEORDER>
3
6
11
1
13
10
5
9
8
12
2
4
7
14

> <PUBCHEM_MMFF94_PARTIAL_CHARGES>
26
1 -0.06
10 -0.9
11 0.28
12 0.28
13 0.54
14 0.28
15 0.27
16 0.11
18 0.35
19 0.41
2 -0.56
20 0.47
27 0.4
28 0.4
29 0.36
3 -0.68
30 0.36
31 0.15
32 0.4
33 0.4
4 -0.68
5 0.31
6 -0.71
7 -0.99
8 -0.57
9 -0.62

> <PUBCHEM_EFFECTIVE_ROTOR_COUNT>
3

> <PUBCHEM_PHARMACOPHORE_FEATURES>
16
1 1 hydrophobe
1 10 cation
1 10 donor
1 2 acceptor
1 3 acceptor
1 3 donor
1 4 acceptor
1 4 donor
1 6 acceptor
1 7 cation
1 7 donor
3 5 8 16 cation
3 8 9 20 cation
5 2 11 12 13 14 rings
5 5 6 16 17 18 rings
6 8 9 16 17 19 20 rings

> <PUBCHEM_HEAVY_ATOM_COUNT>
20

> <PUBCHEM_ATOM_DEF_STEREO_COUNT>
4

> <PUBCHEM_ATOM_UDEF_STEREO_COUNT>
0

> <PUBCHEM_BOND_DEF_STEREO_COUNT>
0

> <PUBCHEM_BOND_UDEF_STEREO_COUNT>
0

> <PUBCHEM_ISOTOPIC_ATOM_COUNT>
0

> <PUBCHEM_COMPONENT_COUNT>
1

> <PUBCHEM_CACTVS_TAUTO_COUNT>
5

> <PUBCHEM_CONFORMER_ID>
0002063700000003

> <PUBCHEM_MMFF94_ENERGY>
42.9968

> <PUBCHEM_FEATURE_SELFOVERLAP>
81.494

> <PUBCHEM_SHAPE_FINGERPRINT>
10366900 7 18127405863634509657
10608611 8 18412259570947697200
10616163 171 18265336286251818894
1100329 8 16395215011798138234
11552529 35 17772197667758019811
12403259 226 18411976940851481357
12403259 415 18334574603716755333
12500047 106 18409162233738473278
12553582 1 17542238190626320643
13134695 92 17559938945222829512
13140716 1 17975703002393589355
14115302 16 18262529082910718958
14178342 30 18189605219686425858
14223421 5 18267862972345702282
14866123 147 16903003618201121490
15042514 8 18261401095972101931
15196674 1 18409729547732277101
15219456 202 18343017800371123172
15442244 35 18338516331411326928
16945 1 18334294318566882445
17804303 29 18337394842119522798
17834074 16 18408886239261566026
18186145 218 18271812267699374693
19049666 15 18413105069740647896
19591789 44 18336264540172167899
20510252 161 18411982464390654689
20645477 70 17918281952267479662
21501502 16 18341044215875335206
21524375 3 18339357445058901887
23402539 116 18339634638232949399
23557571 272 18195257830075453934
23559900 14 18411697682367896412
2748010 2 18122907792036283039
3004659 81 17971201322960459454
3084891 72 18052533279311144218
335352 9 18194119616455110991
350125 39 18263929826359609037
4214541 1 18408885118285443372
5104073 3 18410575067752398369
69090 78 18343578568834644639
7364860 26 18412544323611831918
74978 22 18408885122743914954
81228 2 18043528524388881315
8809292 202 18411420587645871938
9709674 26 18411420622196021214

> <PUBCHEM_SHAPE_MULTIPOLES>
370.04
7.99
3.05
0.85
0.56
1.58
-0.11
0.65
0.16
-0.46
-0.29
0.36
-0.11
1.07

> <PUBCHEM_SHAPE_SELFOVERLAP>
787.92

> <PUBCHEM_SHAPE_VOLUME>
212.4

> <PUBCHEM_COORDINATE_TYPE>
2
5
10

$$$$
