132605044
  -OEChem-03292013293D

 71 72  0     1  0  0  0  0  0999 V2000
    6.4868    1.1471   -2.3724 O   0  0  0  0  0  0  0  0  0  0  0  0
    5.0499   -2.1670    2.0963 O   0  0  0  0  0  0  0  0  0  0  0  0
    2.1662   -2.9047    1.8607 O   0  0  0  0  0  0  0  0  0  0  0  0
   -7.8419    0.3960   -0.5096 O   0  0  0  0  0  0  0  0  0  0  0  0
   -6.9138   -2.2895   -1.1939 O   0  0  0  0  0  0  0  0  0  0  0  0
   -7.0272    1.3486    1.9428 O   0  0  0  0  0  0  0  0  0  0  0  0
   -5.7178    2.4648   -0.2709 O   0  0  0  0  0  0  0  0  0  0  0  0
    5.2132   -0.5968    0.4153 N   0  0  0  0  0  0  0  0  0  0  0  0
    7.0265    0.8236   -0.0251 C   0  0  2  0  0  0  0  0  0  0  0  0
    5.9413    1.1424   -1.0610 C   0  0  2  0  0  0  0  0  0  0  0  0
    4.9350   -0.0179   -0.9115 C   0  0  2  0  0  0  0  0  0  0  0  0
    6.2302    0.1862    1.1056 C   0  0  0  0  0  0  0  0  0  0  0  0
    7.8129    2.0464    0.4193 C   0  0  0  0  0  0  0  0  0  0  0  0
    3.4938    0.4165   -1.0183 C   0  0  0  0  0  0  0  0  0  0  0  0
    4.7432   -1.7820    0.9629 C   0  0  0  0  0  0  0  0  0  0  0  0
    3.8031   -2.6309    0.1269 C   0  0  0  0  0  0  0  0  0  0  0  0
    2.9141    1.4161   -0.3329 C   0  0  0  0  0  0  0  0  0  0  0  0
    2.3898   -2.6753    0.6739 C   0  0  0  0  0  0  0  0  0  0  0  0
    1.5125    1.7502   -0.4727 C   0  0  0  0  0  0  0  0  0  0  0  0
    0.8806    2.8314    0.0262 C   0  0  0  0  0  0  0  0  0  0  0  0
    1.2875   -2.4260   -0.2998 C   0  0  0  0  0  0  0  0  0  0  0  0
    1.5255    3.9701    0.7681 C   0  0  0  0  0  0  0  0  0  0  0  0
    0.0078   -2.4129    0.1021 C   0  0  0  0  0  0  0  0  0  0  0  0
   -0.5556    3.0010   -0.1671 C   0  0  0  0  0  0  0  0  0  0  0  0
   -6.9036   -0.3798    0.2501 C   0  0  1  0  0  0  0  0  0  0  0  0
   -6.0755   -1.2213   -0.7407 C   0  0  1  0  0  0  0  0  0  0  0  0
   -6.1197    0.5693    1.1681 C   0  0  1  0  0  0  0  0  0  0  0  0
   -1.1556   -2.0901   -0.7310 C   0  0  0  0  0  0  0  0  0  0  0  0
   -1.4694    2.1217    0.2721 C   0  0  0  0  0  0  0  0  0  0  0  0
   -4.8219   -1.8149   -0.1617 C   0  0  0  0  0  0  0  0  0  0  0  0
   -5.2456    1.5778    0.4359 C   0  0  0  0  0  0  0  0  0  0  0  0
   -2.3810   -2.1204   -0.1641 C   0  0  0  0  0  0  0  0  0  0  0  0
   -3.6281   -1.6965   -0.7650 C   0  0  0  0  0  0  0  0  0  0  0  0
   -0.8925   -1.7104   -2.1679 C   0  0  0  0  0  0  0  0  0  0  0  0
   -2.8959    2.2849    0.0907 C   0  0  0  0  0  0  0  0  0  0  0  0
   -3.7748    1.4422    0.6484 C   0  0  0  0  0  0  0  0  0  0  0  0
    7.7307    0.0898   -0.4401 H   0  0  0  0  0  0  0  0  0  0  0  0
    5.4979    2.1265   -0.8774 H   0  0  0  0  0  0  0  0  0  0  0  0
    5.1254   -0.7921   -1.6642 H   0  0  0  0  0  0  0  0  0  0  0  0
    6.8507   -0.4389    1.7550 H   0  0  0  0  0  0  0  0  0  0  0  0
    5.7124    0.9314    1.7204 H   0  0  0  0  0  0  0  0  0  0  0  0
    7.1564    2.8125    0.8455 H   0  0  0  0  0  0  0  0  0  0  0  0
    8.3460    2.4917   -0.4270 H   0  0  0  0  0  0  0  0  0  0  0  0
    8.5511    1.7739    1.1806 H   0  0  0  0  0  0  0  0  0  0  0  0
    2.8952   -0.1470   -1.7316 H   0  0  0  0  0  0  0  0  0  0  0  0
    6.9103    0.2865   -2.5313 H   0  0  0  0  0  0  0  0  0  0  0  0
    4.1878   -3.6585    0.1438 H   0  0  0  0  0  0  0  0  0  0  0  0
    3.8038   -2.3407   -0.9235 H   0  0  0  0  0  0  0  0  0  0  0  0
    3.5070    1.9849    0.3749 H   0  0  0  0  0  0  0  0  0  0  0  0
    0.9274    1.0256   -1.0385 H   0  0  0  0  0  0  0  0  0  0  0  0
    1.5761   -2.2230   -1.3240 H   0  0  0  0  0  0  0  0  0  0  0  0
    1.1598    4.0057    1.8003 H   0  0  0  0  0  0  0  0  0  0  0  0
    1.2888    4.9261    0.2870 H   0  0  0  0  0  0  0  0  0  0  0  0
    2.6152    3.9008    0.8071 H   0  0  0  0  0  0  0  0  0  0  0  0
   -0.2127   -2.6242    1.1474 H   0  0  0  0  0  0  0  0  0  0  0  0
   -0.8649    3.9185   -0.6621 H   0  0  0  0  0  0  0  0  0  0  0  0
   -7.5218   -1.0337    0.8777 H   0  0  0  0  0  0  0  0  0  0  0  0
   -5.8459   -0.6219   -1.6298 H   0  0  0  0  0  0  0  0  0  0  0  0
   -5.5184   -0.0057    1.8789 H   0  0  0  0  0  0  0  0  0  0  0  0
   -1.1430    1.2285    0.8018 H   0  0  0  0  0  0  0  0  0  0  0  0
   -4.9030   -2.3140    0.8009 H   0  0  0  0  0  0  0  0  0  0  0  0
   -2.4694   -2.4344    0.8763 H   0  0  0  0  0  0  0  0  0  0  0  0
   -3.5855   -1.1888   -1.7227 H   0  0  0  0  0  0  0  0  0  0  0  0
   -1.8001   -1.5439   -2.7523 H   0  0  0  0  0  0  0  0  0  0  0  0
   -0.3011   -0.7904   -2.2217 H   0  0  0  0  0  0  0  0  0  0  0  0
   -0.3473   -2.5098   -2.6825 H   0  0  0  0  0  0  0  0  0  0  0  0
   -3.2311    3.1148   -0.5246 H   0  0  0  0  0  0  0  0  0  0  0  0
   -3.4407    0.6234    1.2776 H   0  0  0  0  0  0  0  0  0  0  0  0
   -7.3399    0.9924   -1.0905 H   0  0  0  0  0  0  0  0  0  0  0  0
   -7.1155   -2.8607   -0.4328 H   0  0  0  0  0  0  0  0  0  0  0  0
   -7.6485    1.7786    1.3303 H   0  0  0  0  0  0  0  0  0  0  0  0
  1 10  1  0  0  0  0
  1 46  1  0  0  0  0
  2 15  2  0  0  0  0
  3 18  2  0  0  0  0
  4 25  1  0  0  0  0
  4 69  1  0  0  0  0
  5 26  1  0  0  0  0
  5 70  1  0  0  0  0
  6 27  1  0  0  0  0
  6 71  1  0  0  0  0
  7 31  2  0  0  0  0
  8 11  1  0  0  0  0
  8 12  1  0  0  0  0
  8 15  1  0  0  0  0
  9 10  1  0  0  0  0
  9 12  1  0  0  0  0
  9 13  1  0  0  0  0
  9 37  1  0  0  0  0
 10 11  1  0  0  0  0
 10 38  1  0  0  0  0
 11 14  1  0  0  0  0
 11 39  1  0  0  0  0
 12 40  1  0  0  0  0
 12 41  1  0  0  0  0
 13 42  1  0  0  0  0
 13 43  1  0  0  0  0
 13 44  1  0  0  0  0
 14 17  2  0  0  0  0
 14 45  1  0  0  0  0
 15 16  1  0  0  0  0
 16 18  1  0  0  0  0
 16 47  1  0  0  0  0
 16 48  1  0  0  0  0
 17 19  1  0  0  0  0
 17 49  1  0  0  0  0
 18 21  1  0  0  0  0
 19 20  2  0  0  0  0
 19 50  1  0  0  0  0
 20 22  1  0  0  0  0
 20 24  1  0  0  0  0
 21 23  2  0  0  0  0
 21 51  1  0  0  0  0
 22 52  1  0  0  0  0
 22 53  1  0  0  0  0
 22 54  1  0  0  0  0
 23 28  1  0  0  0  0
 23 55  1  0  0  0  0
 24 29  2  0  0  0  0
 24 56  1  0  0  0  0
 25 26  1  0  0  0  0
 25 27  1  0  0  0  0
 25 57  1  0  0  0  0
 26 30  1  0  0  0  0
 26 58  1  0  0  0  0
 27 31  1  0  0  0  0
 27 59  1  0  0  0  0
 28 32  2  0  0  0  0
 28 34  1  0  0  0  0
 29 35  1  0  0  0  0
 29 60  1  0  0  0  0
 30 33  2  0  0  0  0
 30 61  1  0  0  0  0
 31 36  1  0  0  0  0
 32 33  1  0  0  0  0
 32 62  1  0  0  0  0
 33 63  1  0  0  0  0
 34 64  1  0  0  0  0
 34 65  1  0  0  0  0
 34 66  1  0  0  0  0
 35 36  2  0  0  0  0
 35 67  1  0  0  0  0
 36 68  1  0  0  0  0
M  END
> <PUBCHEM_COMPOUND_CID>
132605044

> <PUBCHEM_CONFORMER_RMSD>
0.8

> <PUBCHEM_CONFORMER_DIVERSEORDER>
1
4
5
8
2
6
3
7

> <PUBCHEM_MMFF94_PARTIAL_CHARGES>
50
1 -0.68
10 0.28
11 0.44
12 0.3
14 -0.29
15 0.57
16 0.12
17 -0.15
18 0.49
19 -0.15
2 -0.57
20 -0.14
21 -0.14
22 0.14
23 -0.15
24 -0.15
25 0.28
26 0.42
27 0.34
28 -0.14
29 -0.15
3 -0.57
30 -0.29
31 0.49
32 -0.15
33 -0.15
34 0.14
35 -0.15
36 -0.14
4 -0.68
45 0.15
46 0.4
49 0.15
5 -0.68
50 0.15
51 0.15
55 0.15
56 0.15
6 -0.68
60 0.15
61 0.15
62 0.15
63 0.15
67 0.15
68 0.15
69 0.4
7 -0.57
70 0.4
71 0.4
8 -0.66

> <PUBCHEM_EFFECTIVE_ROTOR_COUNT>
1.4

> <PUBCHEM_PHARMACOPHORE_FEATURES>
13
1 1 acceptor
1 1 donor
1 16 anion
1 2 acceptor
1 3 acceptor
1 4 acceptor
1 4 donor
1 5 acceptor
1 5 donor
1 6 acceptor
1 6 donor
1 7 acceptor
5 8 9 10 11 12 rings

> <PUBCHEM_HEAVY_ATOM_COUNT>
36

> <PUBCHEM_ATOM_DEF_STEREO_COUNT>
6

> <PUBCHEM_ATOM_UDEF_STEREO_COUNT>
0

> <PUBCHEM_BOND_DEF_STEREO_COUNT>
7

> <PUBCHEM_BOND_UDEF_STEREO_COUNT>
0

> <PUBCHEM_ISOTOPIC_ATOM_COUNT>
0

> <PUBCHEM_COMPONENT_COUNT>
1

> <PUBCHEM_CACTVS_TAUTO_COUNT>
1001

> <PUBCHEM_CONFORMER_ID>
07E7647400000001

> <PUBCHEM_MMFF94_ENERGY>
83.7323

> <PUBCHEM_FEATURE_SELFOVERLAP>
65.995

> <PUBCHEM_SHAPE_FINGERPRINT>
10939801 23 18341048618618084412
12677640 9 18121500421527675831
12788726 201 18337680810602534052
13111901 25 18412267225185723155
13560911 43 18411704309755947345
14394314 77 18412829066611184713
14464042 87 18410852170679423018
14849402 71 18336548313119418431
15001296 14 18336543914556014240
15183329 4 18411421730513354735
15274700 208 17130973426242616720
15274700 259 17824524311683683117
15351339 4 18335411370329665691
15406563 185 18059299863532795528
19319366 153 18186519891369882962
20721686 56 18407763634407081371
21026386 80 15357704081242437678
21033648 29 16845279567259705334
21197605 99 18336267856145201594
21298829 104 18412546535019037402
21814621 53 15720219596595101775
22122407 14 18338524139656992971
3178227 256 18337968843314538481
3383291 50 18272372031251526767
4144715 1 18337118882419669859
550186 72 18337670811318204765
9961470 85 17909820269293128249

> <PUBCHEM_SHAPE_MULTIPOLES>
694.8
21.54
4.37
1.46
7.64
0.77
0.05
3.55
-1.18
-0.27
-0.67
-0.96
-0.5
-3.01

> <PUBCHEM_SHAPE_SELFOVERLAP>
1420.24

> <PUBCHEM_SHAPE_VOLUME>
398.4

> <PUBCHEM_COORDINATE_TYPE>
2
5
10

$$$$
