13264465
  -OEChem-03292013303D

 48 50  0     1  0  0  0  0  0999 V2000
    1.2607    2.0655    0.6438 O   0  0  0  0  0  0  0  0  0  0  0  0
    3.6946    0.4625   -1.5846 O   0  0  0  0  0  0  0  0  0  0  0  0
    5.4222    2.1894   -0.2553 O   0  0  0  0  0  0  0  0  0  0  0  0
    5.3880    0.9981    2.2750 O   0  0  0  0  0  0  0  0  0  0  0  0
    1.0101   -4.3404   -0.7152 O   0  0  0  0  0  0  0  0  0  0  0  0
   -4.9039    1.1290    1.0861 O   0  0  0  0  0  0  0  0  0  0  0  0
   -2.2985    4.5791   -0.4744 O   0  0  0  0  0  0  0  0  0  0  0  0
   -0.4863    0.2890   -0.6864 N   0  0  0  0  0  0  0  0  0  0  0  0
   -2.9202   -0.5894    0.4674 N   0  0  0  0  0  0  0  0  0  0  0  0
   -1.4085    2.4871   -0.5810 N   0  0  0  0  0  0  0  0  0  0  0  0
   -3.6006    2.8909    0.3010 N   0  0  0  0  0  0  0  0  0  0  0  0
    1.7981    1.0301   -0.1801 C   0  0  1  0  0  0  0  0  0  0  0  0
    0.7823    0.7065   -1.2820 C   0  0  0  0  0  0  0  0  0  0  0  0
    3.1601    1.4830   -0.7428 C   0  0  1  0  0  0  0  0  0  0  0  0
    4.1898    1.8042    0.3570 C   0  0  1  0  0  0  0  0  0  0  0  0
   -0.6780   -1.0853   -0.4233 C   0  0  0  0  0  0  0  0  0  0  0  0
   -1.4860    1.2047   -0.3795 C   0  0  0  0  0  0  0  0  0  0  0  0
   -1.8977   -1.4977    0.1511 C   0  0  0  0  0  0  0  0  0  0  0  0
    4.4559    0.6089    1.2710 C   0  0  0  0  0  0  0  0  0  0  0  0
   -2.7530    0.6711    0.2305 C   0  0  0  0  0  0  0  0  0  0  0  0
    0.2848   -2.0731   -0.7035 C   0  0  0  0  0  0  0  0  0  0  0  0
   -2.1270   -2.8543    0.4271 C   0  0  0  0  0  0  0  0  0  0  0  0
   -1.1597   -3.8126    0.1407 C   0  0  0  0  0  0  0  0  0  0  0  0
    0.0466   -3.4214   -0.4246 C   0  0  0  0  0  0  0  0  0  0  0  0
   -3.8834    1.5777    0.5930 C   0  0  0  0  0  0  0  0  0  0  0  0
   -1.4340   -5.2470    0.4477 C   0  0  0  0  0  0  0  0  0  0  0  0
   -2.4191    3.3699   -0.2657 C   0  0  0  0  0  0  0  0  0  0  0  0
    1.9626   -4.6253    0.3070 C   0  0  0  0  0  0  0  0  0  0  0  0
    1.9271    0.1357    0.4375 H   0  0  0  0  0  0  0  0  0  0  0  0
    0.6084    1.6197   -1.8677 H   0  0  0  0  0  0  0  0  0  0  0  0
    1.1650   -0.0062   -2.0190 H   0  0  0  0  0  0  0  0  0  0  0  0
    3.0262    2.3770   -1.3645 H   0  0  0  0  0  0  0  0  0  0  0  0
    3.8507    2.6613    0.9501 H   0  0  0  0  0  0  0  0  0  0  0  0
    3.5597    0.2533    1.7836 H   0  0  0  0  0  0  0  0  0  0  0  0
    4.9070   -0.2226    0.7210 H   0  0  0  0  0  0  0  0  0  0  0  0
    1.2527   -1.8269   -1.1299 H   0  0  0  0  0  0  0  0  0  0  0  0
    0.5305    1.6804    1.1569 H   0  0  0  0  0  0  0  0  0  0  0  0
   -3.0740   -3.1537    0.8726 H   0  0  0  0  0  0  0  0  0  0  0  0
    4.5504    0.7798   -1.9204 H   0  0  0  0  0  0  0  0  0  0  0  0
    6.0546    2.3804    0.4584 H   0  0  0  0  0  0  0  0  0  0  0  0
   -2.5083   -5.4356    0.5507 H   0  0  0  0  0  0  0  0  0  0  0  0
   -1.0768   -5.8992   -0.3563 H   0  0  0  0  0  0  0  0  0  0  0  0
   -0.9479   -5.5340    1.3852 H   0  0  0  0  0  0  0  0  0  0  0  0
   -4.3175    3.5778    0.5168 H   0  0  0  0  0  0  0  0  0  0  0  0
    4.9834    1.7192    2.7867 H   0  0  0  0  0  0  0  0  0  0  0  0
    1.4693   -4.9848    1.2151 H   0  0  0  0  0  0  0  0  0  0  0  0
    2.5567   -3.7338    0.5324 H   0  0  0  0  0  0  0  0  0  0  0  0
    2.6332   -5.4077   -0.0587 H   0  0  0  0  0  0  0  0  0  0  0  0
  1 12  1  0  0  0  0
  1 37  1  0  0  0  0
  2 14  1  0  0  0  0
  2 39  1  0  0  0  0
  3 15  1  0  0  0  0
  3 40  1  0  0  0  0
  4 19  1  0  0  0  0
  4 45  1  0  0  0  0
  5 24  1  0  0  0  0
  5 28  1  0  0  0  0
  6 25  2  0  0  0  0
  7 27  2  0  0  0  0
  8 13  1  0  0  0  0
  8 16  1  0  0  0  0
  8 17  1  0  0  0  0
  9 18  1  0  0  0  0
  9 20  2  0  0  0  0
 10 17  2  0  0  0  0
 10 27  1  0  0  0  0
 11 25  1  0  0  0  0
 11 27  1  0  0  0  0
 11 44  1  0  0  0  0
 12 13  1  0  0  0  0
 12 14  1  0  0  0  0
 12 29  1  0  0  0  0
 13 30  1  0  0  0  0
 13 31  1  0  0  0  0
 14 15  1  0  0  0  0
 14 32  1  0  0  0  0
 15 19  1  0  0  0  0
 15 33  1  0  0  0  0
 16 18  2  0  0  0  0
 16 21  1  0  0  0  0
 17 20  1  0  0  0  0
 18 22  1  0  0  0  0
 19 34  1  0  0  0  0
 19 35  1  0  0  0  0
 20 25  1  0  0  0  0
 21 24  2  0  0  0  0
 21 36  1  0  0  0  0
 22 23  2  0  0  0  0
 22 38  1  0  0  0  0
 23 24  1  0  0  0  0
 23 26  1  0  0  0  0
 26 41  1  0  0  0  0
 26 42  1  0  0  0  0
 26 43  1  0  0  0  0
 28 46  1  0  0  0  0
 28 47  1  0  0  0  0
 28 48  1  0  0  0  0
M  END
> <PUBCHEM_COMPOUND_CID>
13264465

> <PUBCHEM_CONFORMER_RMSD>
0.8

> <PUBCHEM_CONFORMER_DIVERSEORDER>
1
23
32
5
28
31
19
29
15
37
14
10
24
33
22
18
20
16
4
34
30
9
7
6
36
21
2
26
27
8
13
35
25
3
11
17
12

> <PUBCHEM_MMFF94_PARTIAL_CHARGES>
35
1 -0.68
10 -0.66
11 -0.49
12 0.28
13 0.37
14 0.28
15 0.28
16 0.1
17 0.5
18 0.18
19 0.28
2 -0.68
20 0.45
21 -0.15
22 -0.15
23 -0.14
24 0.08
25 0.63
26 0.14
27 0.84
28 0.28
3 -0.68
36 0.15
37 0.4
38 0.15
39 0.4
4 -0.68
40 0.4
44 0.37
45 0.4
5 -0.36
6 -0.57
7 -0.57
8 -0.52
9 -0.63

> <PUBCHEM_EFFECTIVE_ROTOR_COUNT>
6

> <PUBCHEM_PHARMACOPHORE_FEATURES>
17
1 1 acceptor
1 1 donor
1 10 donor
1 11 donor
1 2 acceptor
1 2 donor
1 3 acceptor
1 3 donor
1 4 acceptor
1 4 donor
1 5 acceptor
1 6 acceptor
1 7 acceptor
1 9 acceptor
6 10 11 17 20 25 27 rings
6 16 18 21 22 23 24 rings
6 8 9 16 17 18 20 rings

> <PUBCHEM_HEAVY_ATOM_COUNT>
28

> <PUBCHEM_ATOM_DEF_STEREO_COUNT>
3

> <PUBCHEM_ATOM_UDEF_STEREO_COUNT>
0

> <PUBCHEM_BOND_DEF_STEREO_COUNT>
0

> <PUBCHEM_BOND_UDEF_STEREO_COUNT>
0

> <PUBCHEM_ISOTOPIC_ATOM_COUNT>
0

> <PUBCHEM_COMPONENT_COUNT>
1

> <PUBCHEM_CACTVS_TAUTO_COUNT>
3

> <PUBCHEM_CONFORMER_ID>
00CA665100000001

> <PUBCHEM_MMFF94_ENERGY>
91.8953

> <PUBCHEM_FEATURE_SELFOVERLAP>
86.402

> <PUBCHEM_SHAPE_FINGERPRINT>
10074138 170 18195509596721154600
10319926 262 18270671100281281584
10411042 1 17546453735355233286
10930396 42 17408202174202102170
1100329 8 16539055334979240992
11049842 53 18191330267905256886
11582403 64 17703208647231783916
12422481 6 17902203660875479090
12553582 1 17403188482821199638
12788726 201 17686071886850980262
13004483 165 17763176238754075691
13140716 1 17978511158694845261
13540713 4 17827370882510154093
138480 1 17473267574113932847
14178342 30 18337665442871964622
14844126 61 18120649399331760882
14849402 71 16970837988030036161
14866123 147 18410855499157966090
15042514 8 18193282012028185071
15131766 46 15396180205507170635
15230672 131 18336554807870184518
15326921 28 18121753094675414960
15927050 60 18341337725256178646
15950262 2 15624292773639023331
16728300 4 17677875882126857097
19591789 44 18265910059364226543
20028762 73 18056212486786137823
20600515 1 17910697658540108469
21650355 55 18050567640288816429
23559900 14 17688026414787781405
3091708 16 8979610846032546959
3298306 158 18268995280386130612
350125 39 17831881061721181253
508706 21 18342463690003703470
5265222 85 18337688472861081324
532947 4 17907006279903823390
58807428 26 18410863152683653419
6004065 56 17112114258841861733
653340 110 18268425909905221786
79837 15 18410294722099079867
9981440 41 18336823087910750761

> <PUBCHEM_SHAPE_MULTIPOLES>
515.22
8.19
7.03
1.14
10.91
7.1
-0.23
-7.15
-3.51
-5.12
0.11
1.24
-0.17
0.13

> <PUBCHEM_SHAPE_SELFOVERLAP>
1102.833

> <PUBCHEM_SHAPE_VOLUME>
281.4

> <PUBCHEM_COORDINATE_TYPE>
2
5
10

$$$$
