132662
  -OEChem-03292013323D

 45 46  0     1  0  0  0  0  0999 V2000
   -1.1292    2.2319   -1.3146 S   0  0  0  0  0  0  0  0  0  0  0  0
   -3.1653    2.0646   -1.0907 S   0  0  0  0  0  0  0  0  0  0  0  0
    0.9298    0.0567   -2.0710 O   0  0  0  0  0  0  0  0  0  0  0  0
    3.1075    0.7871   -2.1834 O   0  0  0  0  0  0  0  0  0  0  0  0
    2.5256   -3.7261    0.2100 O   0  0  0  0  0  0  0  0  0  0  0  0
    1.3861   -1.7575   -0.2870 N   0  0  0  0  0  0  0  0  0  0  0  0
   -2.7023    0.4009    0.9540 N   0  0  0  0  0  0  0  0  0  0  0  0
    2.5309   -0.9355   -0.5898 C   0  0  2  0  0  0  0  0  0  0  0  0
    3.0903   -0.2498    0.6655 C   0  0  0  0  0  0  0  0  0  0  0  0
    2.1485    0.7356    1.3199 C   0  0  0  0  0  0  0  0  0  0  0  0
    2.2418    0.0626   -1.7032 C   0  0  0  0  0  0  0  0  0  0  0  0
    2.1650    2.0765    0.9360 C   0  0  0  0  0  0  0  0  0  0  0  0
    1.2627    0.3037    2.3073 C   0  0  0  0  0  0  0  0  0  0  0  0
    1.4830   -3.0884    0.0886 C   0  0  0  0  0  0  0  0  0  0  0  0
    1.2961    2.9856    1.5395 C   0  0  0  0  0  0  0  0  0  0  0  0
    0.3938    1.2129    2.9106 C   0  0  0  0  0  0  0  0  0  0  0  0
    0.5693    0.9821   -3.1016 C   0  0  0  0  0  0  0  0  0  0  0  0
    0.4105    2.5539    2.5267 C   0  0  0  0  0  0  0  0  0  0  0  0
   -0.8748    1.4238   -2.9242 C   0  0  0  0  0  0  0  0  0  0  0  0
    0.1384   -3.7035    0.3707 C   0  0  0  0  0  0  0  0  0  0  0  0
   -3.3154    0.5005   -0.2466 C   0  0  0  0  0  0  0  0  0  0  0  0
   -4.0338   -0.5260   -0.8383 C   0  0  0  0  0  0  0  0  0  0  0  0
   -4.1294   -1.7322   -0.1533 C   0  0  0  0  0  0  0  0  0  0  0  0
   -3.5122   -1.8731    1.0847 C   0  0  0  0  0  0  0  0  0  0  0  0
   -2.8169   -0.7865    1.5902 C   0  0  0  0  0  0  0  0  0  0  0  0
    3.3044   -1.6044   -0.9889 H   0  0  0  0  0  0  0  0  0  0  0  0
    4.0221    0.2739    0.4127 H   0  0  0  0  0  0  0  0  0  0  0  0
    3.3766   -1.0092    1.4056 H   0  0  0  0  0  0  0  0  0  0  0  0
    0.4669   -1.3261   -0.3316 H   0  0  0  0  0  0  0  0  0  0  0  0
    2.8520    2.4289    0.1716 H   0  0  0  0  0  0  0  0  0  0  0  0
    1.2390   -0.7380    2.6159 H   0  0  0  0  0  0  0  0  0  0  0  0
    1.3090    4.0296    1.2406 H   0  0  0  0  0  0  0  0  0  0  0  0
   -0.2966    0.8767    3.6785 H   0  0  0  0  0  0  0  0  0  0  0  0
    0.6784    0.4711   -4.0645 H   0  0  0  0  0  0  0  0  0  0  0  0
    1.2218    1.8639   -3.1079 H   0  0  0  0  0  0  0  0  0  0  0  0
   -0.2671    3.2614    2.9955 H   0  0  0  0  0  0  0  0  0  0  0  0
   -1.1620    2.1123   -3.7247 H   0  0  0  0  0  0  0  0  0  0  0  0
   -1.5149    0.5364   -2.9741 H   0  0  0  0  0  0  0  0  0  0  0  0
   -0.2229   -3.3541    1.3418 H   0  0  0  0  0  0  0  0  0  0  0  0
    0.2288   -4.7930    0.3889 H   0  0  0  0  0  0  0  0  0  0  0  0
   -0.5801   -3.4259   -0.4059 H   0  0  0  0  0  0  0  0  0  0  0  0
   -4.5131   -0.4133   -1.8054 H   0  0  0  0  0  0  0  0  0  0  0  0
   -4.6827   -2.5614   -0.5837 H   0  0  0  0  0  0  0  0  0  0  0  0
   -3.5718   -2.8046    1.6357 H   0  0  0  0  0  0  0  0  0  0  0  0
   -2.3166   -0.8460    2.5510 H   0  0  0  0  0  0  0  0  0  0  0  0
  1  2  1  0  0  0  0
  1 19  1  0  0  0  0
  2 21  1  0  0  0  0
  3 11  1  0  0  0  0
  3 17  1  0  0  0  0
  4 11  2  0  0  0  0
  5 14  2  0  0  0  0
  6  8  1  0  0  0  0
  6 14  1  0  0  0  0
  6 29  1  0  0  0  0
  7 21  1  0  0  0  0
  7 25  2  0  0  0  0
  8  9  1  0  0  0  0
  8 11  1  0  0  0  0
  8 26  1  0  0  0  0
  9 10  1  0  0  0  0
  9 27  1  0  0  0  0
  9 28  1  0  0  0  0
 10 12  2  0  0  0  0
 10 13  1  0  0  0  0
 12 15  1  0  0  0  0
 12 30  1  0  0  0  0
 13 16  2  0  0  0  0
 13 31  1  0  0  0  0
 14 20  1  0  0  0  0
 15 18  2  0  0  0  0
 15 32  1  0  0  0  0
 16 18  1  0  0  0  0
 16 33  1  0  0  0  0
 17 19  1  0  0  0  0
 17 34  1  0  0  0  0
 17 35  1  0  0  0  0
 18 36  1  0  0  0  0
 19 37  1  0  0  0  0
 19 38  1  0  0  0  0
 20 39  1  0  0  0  0
 20 40  1  0  0  0  0
 20 41  1  0  0  0  0
 21 22  2  0  0  0  0
 22 23  1  0  0  0  0
 22 42  1  0  0  0  0
 23 24  2  0  0  0  0
 23 43  1  0  0  0  0
 24 25  1  0  0  0  0
 24 44  1  0  0  0  0
 25 45  1  0  0  0  0
M  END
> <PUBCHEM_COMPOUND_CID>
132662

> <PUBCHEM_CONFORMER_RMSD>
1.4

> <PUBCHEM_CONFORMER_DIVERSEORDER>
1
32
97
81
22
88
92
10
98
79
17
100
4
101
31
38
53
30
75
20
9
78
99
69
61
96
83
63
103
13
11
19
72
80
47
74
77
16
18
93
35
68
70
67
58
89
91
27
39
44
26
37
73
33
95
102
50
90
85
36
41
62
87
54
94
59
42
12
24
76
60
65
21
45
6
52
43
66
34
3
55
29
2
51
64
46
15
57
49
40
8
86
82
84
48
71
28
56
5
7
14
25
23

> <PUBCHEM_MMFF94_PARTIAL_CHARGES>
35
1 -0.23
10 -0.14
11 0.66
12 -0.15
13 -0.15
14 0.57
15 -0.15
16 -0.15
17 0.28
18 -0.15
19 0.23
2 -0.1
20 0.06
21 0.41
22 -0.15
23 -0.15
24 -0.15
25 0.16
29 0.37
3 -0.43
30 0.15
31 0.15
32 0.15
33 0.15
36 0.15
4 -0.57
42 0.15
43 0.15
44 0.15
45 0.15
5 -0.57
6 -0.73
7 -0.62
8 0.36
9 0.14

> <PUBCHEM_EFFECTIVE_ROTOR_COUNT>
11

> <PUBCHEM_PHARMACOPHORE_FEATURES>
6
1 4 acceptor
1 5 acceptor
1 6 donor
1 7 acceptor
6 10 12 13 15 16 18 rings
6 7 21 22 23 24 25 rings

> <PUBCHEM_HEAVY_ATOM_COUNT>
25

> <PUBCHEM_ATOM_DEF_STEREO_COUNT>
1

> <PUBCHEM_ATOM_UDEF_STEREO_COUNT>
0

> <PUBCHEM_BOND_DEF_STEREO_COUNT>
0

> <PUBCHEM_BOND_UDEF_STEREO_COUNT>
0

> <PUBCHEM_ISOTOPIC_ATOM_COUNT>
0

> <PUBCHEM_COMPONENT_COUNT>
1

> <PUBCHEM_CACTVS_TAUTO_COUNT>
2

> <PUBCHEM_CONFORMER_ID>
0002063600000001

> <PUBCHEM_MMFF94_ENERGY>
41.4382

> <PUBCHEM_FEATURE_SELFOVERLAP>
30.446

> <PUBCHEM_SHAPE_FINGERPRINT>
10366900 7 18339627984853743869
11244481 83 17917434267230400805
12156800 1 15366376795915983555
12403259 327 18129943348094424557
12633257 1 17489031564722109399
13615921 28 17697581209055090567
23419403 2 17976233774315379218
238 59 17701803608799740659
3052486 1 17470453301214699310
35225 105 16837953731252045157
3524813 1 18411701019077807971
3797600 57 16627978806105545271
5262128 65 17241345632473136837
58250162 1 17397842648512076743

> <PUBCHEM_SHAPE_MULTIPOLES>
494.62
6.19
3.95
3.19
5.84
3.05
-0.63
1.71
-0.04
-1.13
0.68
-1.14
-2.4
1.68

> <PUBCHEM_SHAPE_SELFOVERLAP>
995.112

> <PUBCHEM_SHAPE_VOLUME>
291.5

> <PUBCHEM_COORDINATE_TYPE>
2
5
10

$$$$
