132607644
  -OEChem-03292013293D

 34 36  0     0  0  0  0  0  0999 V2000
    3.6712   -2.3555   -0.0006 S   0  0  0  0  0  0  0  0  0  0  0  0
   -0.8612   -1.8693    0.0007 O   0  0  0  0  0  0  0  0  0  0  0  0
    0.5645   -0.0062   -0.0004 N   0  0  0  0  0  0  0  0  0  0  0  0
   -1.7378    0.2988   -0.0003 N   0  0  0  0  0  0  0  0  0  0  0  0
    5.4447   -0.3673    0.0001 N   0  0  0  0  0  0  0  0  0  0  0  0
    4.6559    1.9254    0.0004 N   0  0  0  0  0  0  0  0  0  0  0  0
    2.3515    2.4916    0.0001 N   0  0  0  0  0  0  0  0  0  0  0  0
    3.0623    0.1532   -0.0001 C   0  0  0  0  0  0  0  0  0  0  0  0
    1.8271   -0.5682   -0.0003 C   0  0  0  0  0  0  0  0  0  0  0  0
    4.1438   -0.7181   -0.0002 C   0  0  0  0  0  0  0  0  0  0  0  0
    3.3687    1.5179    0.0002 C   0  0  0  0  0  0  0  0  0  0  0  0
    2.0135   -1.9335   -0.0003 C   0  0  0  0  0  0  0  0  0  0  0  0
   -3.1339    0.0686   -0.0001 C   0  0  0  0  0  0  0  0  0  0  0  0
   -0.7051   -0.6524    0.0000 C   0  0  0  0  0  0  0  0  0  0  0  0
   -5.3955    0.9187   -0.0001 C   0  0  0  0  0  0  0  0  0  0  0  0
   -4.0194    1.1465   -0.0004 C   0  0  0  0  0  0  0  0  0  0  0  0
   -3.6248   -1.2372    0.0005 C   0  0  0  0  0  0  0  0  0  0  0  0
   -5.8864   -0.3871    0.0004 C   0  0  0  0  0  0  0  0  0  0  0  0
   -5.0010   -1.4650    0.0004 C   0  0  0  0  0  0  0  0  0  0  0  0
   -6.3421    2.0709   -0.0004 C   0  0  0  0  0  0  0  0  0  0  0  0
    5.6042    0.9682    0.0004 C   0  0  0  0  0  0  0  0  0  0  0  0
    0.5181    0.9980    0.0685 H   0  0  0  0  0  0  0  0  0  0  0  0
    1.2935   -2.7367   -0.0005 H   0  0  0  0  0  0  0  0  0  0  0  0
   -1.4580    1.2765   -0.0021 H   0  0  0  0  0  0  0  0  0  0  0  0
   -3.6379    2.1651    0.0010 H   0  0  0  0  0  0  0  0  0  0  0  0
   -3.0066   -2.1233    0.0008 H   0  0  0  0  0  0  0  0  0  0  0  0
   -6.9563   -0.5779    0.0025 H   0  0  0  0  0  0  0  0  0  0  0  0
   -5.3845   -2.4813    0.0011 H   0  0  0  0  0  0  0  0  0  0  0  0
   -6.5473    2.3888    1.0266 H   0  0  0  0  0  0  0  0  0  0  0  0
   -5.9290    2.9198   -0.5558 H   0  0  0  0  0  0  0  0  0  0  0  0
   -7.2902    1.8056   -0.4805 H   0  0  0  0  0  0  0  0  0  0  0  0
    6.6296    1.3214    0.0006 H   0  0  0  0  0  0  0  0  0  0  0  0
    1.4277    2.3031   -0.3461 H   0  0  0  0  0  0  0  0  0  0  0  0
    2.6512    3.4590    0.0180 H   0  0  0  0  0  0  0  0  0  0  0  0
  1 10  1  0  0  0  0
  1 12  1  0  0  0  0
  2 14  2  0  0  0  0
  3  9  1  0  0  0  0
  3 14  1  0  0  0  0
  3 22  1  0  0  0  0
  4 13  1  0  0  0  0
  4 14  1  0  0  0  0
  4 24  1  0  0  0  0
  5 10  2  0  0  0  0
  5 21  1  0  0  0  0
  6 11  1  0  0  0  0
  6 21  2  0  0  0  0
  7 11  1  0  0  0  0
  7 33  1  0  0  0  0
  7 34  1  0  0  0  0
  8  9  1  0  0  0  0
  8 10  1  0  0  0  0
  8 11  2  0  0  0  0
  9 12  2  0  0  0  0
 12 23  1  0  0  0  0
 13 16  1  0  0  0  0
 13 17  2  0  0  0  0
 15 16  2  0  0  0  0
 15 18  1  0  0  0  0
 15 20  1  0  0  0  0
 16 25  1  0  0  0  0
 17 19  1  0  0  0  0
 17 26  1  0  0  0  0
 18 19  2  0  0  0  0
 18 27  1  0  0  0  0
 19 28  1  0  0  0  0
 20 29  1  0  0  0  0
 20 30  1  0  0  0  0
 20 31  1  0  0  0  0
 21 32  1  0  0  0  0
M  END
> <PUBCHEM_COMPOUND_CID>
132607644

> <PUBCHEM_CONFORMER_RMSD>
0.6

> <PUBCHEM_CONFORMER_DIVERSEORDER>
1
19
17
8
26
13
32
23
15
14
28
18
20
29
10
2
16
21
24
5
25
6
11
22
4
27
34
12
31
3
30
33
7
9

> <PUBCHEM_MMFF94_PARTIAL_CHARGES>
30
1 -0.08
10 0.3
11 0.41
12 -0.11
13 0.12
14 0.69
15 -0.14
16 -0.15
17 -0.15
18 -0.15
19 -0.15
2 -0.57
20 0.14
21 0.47
22 0.37
23 0.15
24 0.37
25 0.15
26 0.15
27 0.15
28 0.15
3 -0.49
32 0.15
33 0.4
34 0.4
4 -0.55
5 -0.57
6 -0.62
7 -0.9
9 0.06

> <PUBCHEM_EFFECTIVE_ROTOR_COUNT>
4

> <PUBCHEM_PHARMACOPHORE_FEATURES>
10
1 2 acceptor
1 3 donor
1 4 donor
1 5 acceptor
1 7 cation
1 7 donor
3 5 6 21 cation
5 1 8 9 10 12 rings
6 13 15 16 17 18 19 rings
6 5 6 8 10 11 21 rings

> <PUBCHEM_HEAVY_ATOM_COUNT>
21

> <PUBCHEM_ATOM_DEF_STEREO_COUNT>
0

> <PUBCHEM_ATOM_UDEF_STEREO_COUNT>
0

> <PUBCHEM_BOND_DEF_STEREO_COUNT>
0

> <PUBCHEM_BOND_UDEF_STEREO_COUNT>
0

> <PUBCHEM_ISOTOPIC_ATOM_COUNT>
0

> <PUBCHEM_COMPONENT_COUNT>
1

> <PUBCHEM_CACTVS_TAUTO_COUNT>
162

> <PUBCHEM_CONFORMER_ID>
07E76E9C00000001

> <PUBCHEM_MMFF94_ENERGY>
62.8309

> <PUBCHEM_FEATURE_SELFOVERLAP>
50.873

> <PUBCHEM_SHAPE_FINGERPRINT>
10411042 1 17978510833364949506
10595046 47 18412824711682410751
10835480 77 18409725137059437493
11287383 113 18409449197778548211
11578080 2 13841705222302280692
11595378 159 16443332131769047021
12107183 9 17764030160109769523
12236239 1 18059856164207053023
12403259 415 17895470324264392175
12730499 353 18336273400679221682
12788726 201 17346322544601519897
13073987 5 18335140886791697075
13167372 99 18340769239078947273
13167823 11 18412260632152999847
13785724 45 17764308336610742282
14251764 18 18187640337073908784
14341114 176 18410862031765832253
14464042 87 17917717872358215288
14528608 73 18412826910267842543
14933364 13 18410015429440281497
15183329 4 18411982434114835041
15196674 1 18410855460502779623
15250474 111 18270664446586266335
17834072 33 18413387652761164791
17844677 252 18411989031363559801
20157964 124 18412544275919065159
20281389 69 18188491273095632405
20645477 70 18342178826145185438
21267235 1 18412550877806103478
21421861 104 17895461528488258050
22289505 5 18342457019792917692
23402539 116 18343015605943288159
23402655 69 18343299271010668623
23536379 177 18410292497574811875
23559900 14 18341327816839914379
239999 70 18271249322584805150
245318 6 17099479113075261972
29717793 49 17632581509363442134
300161 21 18335135376205899935
3004659 81 18409731725444239522
335352 9 18410857664512242254
34797466 226 17845945107876906789
351380 180 18408886235024400105
3545911 37 18410857672036345226
4073 2 18041285451532322347
4214541 1 18410856551672282211
4325135 7 18343580781080327975
5104073 3 18260833670467196643
542803 24 18334011692285865227
59755656 215 18410862049357255870
633830 44 18408878521527484831
77779 3 18410856555840934795
8272917 22 18341896260362741774
9971528 1 17894634738034174414

> <PUBCHEM_SHAPE_MULTIPOLES>
405.25
16.21
2.38
0.6
10.98
0.22
0
4.79
0
-1.08
0
0.03
-0.02
0

> <PUBCHEM_SHAPE_SELFOVERLAP>
872.936

> <PUBCHEM_SHAPE_VOLUME>
223.7

> <PUBCHEM_COORDINATE_TYPE>
2
5
10

$$$$
