132651
  -OEChem-03292013323D

 61 61  0     1  0  0  0  0  0999 V2000
    0.3859   -0.9878    0.4510 O   0  0  0  0  0  0  0  0  0  0  0  0
    3.2189   -3.5404   -0.0834 O   0  0  0  0  0  0  0  0  0  0  0  0
    3.8961   -1.6453    0.9869 O   0  0  0  0  0  0  0  0  0  0  0  0
   -3.5435    2.6297   -1.1738 O   0  0  0  0  0  0  0  0  0  0  0  0
   -0.9616    1.5686   -2.0685 O   0  0  0  0  0  0  0  0  0  0  0  0
    2.2622   -0.1982   -0.6501 N   0  0  0  0  0  0  0  0  0  0  0  0
   -0.7920    1.3293    0.2339 N   0  0  0  0  0  0  0  0  0  0  0  0
   -5.0974    0.2838   -1.4076 N   0  0  0  0  0  0  0  0  0  0  0  0
   -2.3964   -4.4771    2.5132 N   0  0  0  0  0  0  0  0  0  0  0  0
    2.7325   -1.4923   -1.1267 C   0  0  1  0  0  0  0  0  0  0  0  0
    3.7674   -1.1589   -2.1950 C   0  0  0  0  0  0  0  0  0  0  0  0
    3.1076    0.8848   -1.1461 C   0  0  0  0  0  0  0  0  0  0  0  0
    4.3220    0.1900   -1.7432 C   0  0  0  0  0  0  0  0  0  0  0  0
    0.6496    1.3743    0.3104 C   0  0  2  0  0  0  0  0  0  0  0  0
    1.0737   -0.0485    0.0474 C   0  0  0  0  0  0  0  0  0  0  0  0
    1.1580    1.8457    1.6728 C   0  0  0  0  0  0  0  0  0  0  0  0
    0.7165    3.2702    2.0650 C   0  0  0  0  0  0  0  0  0  0  0  0
    3.3484   -2.1972    0.0442 C   0  0  0  0  0  0  0  0  0  0  0  0
   -3.6402    0.2343   -1.5798 C   0  0  1  0  0  0  0  0  0  0  0  0
   -2.9965    1.3821   -0.7730 C   0  0  1  0  0  0  0  0  0  0  0  0
   -1.4828    1.4315   -0.9637 C   0  0  0  0  0  0  0  0  0  0  0  0
   -3.1157   -1.1560   -1.1626 C   0  0  0  0  0  0  0  0  0  0  0  0
    1.2361    3.6050    3.4660 C   0  0  0  0  0  0  0  0  0  0  0  0
    1.2013    4.3259    1.0705 C   0  0  0  0  0  0  0  0  0  0  0  0
   -3.3542   -1.4654    0.3220 C   0  0  0  0  0  0  0  0  0  0  0  0
   -2.7490   -2.8198    0.7071 C   0  0  0  0  0  0  0  0  0  0  0  0
   -2.9472   -3.1683    2.1832 C   0  0  0  0  0  0  0  0  0  0  0  0
    1.8860   -2.0724   -1.5096 H   0  0  0  0  0  0  0  0  0  0  0  0
    4.5517   -1.9147   -2.2996 H   0  0  0  0  0  0  0  0  0  0  0  0
    3.2721   -1.0393   -3.1663 H   0  0  0  0  0  0  0  0  0  0  0  0
    2.5524    1.4208   -1.9237 H   0  0  0  0  0  0  0  0  0  0  0  0
    3.3734    1.5803   -0.3463 H   0  0  0  0  0  0  0  0  0  0  0  0
    5.0871    0.0398   -0.9723 H   0  0  0  0  0  0  0  0  0  0  0  0
    4.7729    0.7599   -2.5603 H   0  0  0  0  0  0  0  0  0  0  0  0
    0.9944    2.0366   -0.4857 H   0  0  0  0  0  0  0  0  0  0  0  0
    2.2535    1.7860    1.6966 H   0  0  0  0  0  0  0  0  0  0  0  0
    0.8076    1.1482    2.4466 H   0  0  0  0  0  0  0  0  0  0  0  0
   -0.3792    3.3098    2.1001 H   0  0  0  0  0  0  0  0  0  0  0  0
   -1.3057    1.1590    1.0935 H   0  0  0  0  0  0  0  0  0  0  0  0
   -3.4306    0.3785   -2.6472 H   0  0  0  0  0  0  0  0  0  0  0  0
   -3.2414    1.2913    0.2895 H   0  0  0  0  0  0  0  0  0  0  0  0
   -3.6010   -1.9270   -1.7752 H   0  0  0  0  0  0  0  0  0  0  0  0
   -2.0436   -1.2223   -1.3840 H   0  0  0  0  0  0  0  0  0  0  0  0
    0.8689    2.8805    4.2005 H   0  0  0  0  0  0  0  0  0  0  0  0
    0.8970    4.5979    3.7801 H   0  0  0  0  0  0  0  0  0  0  0  0
    2.3310    3.5953    3.4972 H   0  0  0  0  0  0  0  0  0  0  0  0
    0.7280    4.2001    0.0921 H   0  0  0  0  0  0  0  0  0  0  0  0
    0.9518    5.3333    1.4209 H   0  0  0  0  0  0  0  0  0  0  0  0
    2.2870    4.2748    0.9350 H   0  0  0  0  0  0  0  0  0  0  0  0
   -4.4278   -1.4755    0.5419 H   0  0  0  0  0  0  0  0  0  0  0  0
   -2.8969   -0.7043    0.9603 H   0  0  0  0  0  0  0  0  0  0  0  0
   -1.6769   -2.8190    0.4750 H   0  0  0  0  0  0  0  0  0  0  0  0
   -3.2046   -3.6025    0.0867 H   0  0  0  0  0  0  0  0  0  0  0  0
   -5.5348   -0.4299   -1.9889 H   0  0  0  0  0  0  0  0  0  0  0  0
   -5.4489    1.1815   -1.7385 H   0  0  0  0  0  0  0  0  0  0  0  0
    3.6176   -4.0204    0.6735 H   0  0  0  0  0  0  0  0  0  0  0  0
   -3.4291    2.7109   -2.1362 H   0  0  0  0  0  0  0  0  0  0  0  0
   -4.0160   -3.1658    2.4229 H   0  0  0  0  0  0  0  0  0  0  0  0
   -2.4682   -2.4081    2.8105 H   0  0  0  0  0  0  0  0  0  0  0  0
   -1.3960   -4.4866    2.3186 H   0  0  0  0  0  0  0  0  0  0  0  0
   -2.4951   -4.6433    3.5138 H   0  0  0  0  0  0  0  0  0  0  0  0
  1 15  2  0  0  0  0
  2 18  1  0  0  0  0
  2 56  1  0  0  0  0
  3 18  2  0  0  0  0
  4 20  1  0  0  0  0
  4 57  1  0  0  0  0
  5 21  2  0  0  0  0
  6 10  1  0  0  0  0
  6 12  1  0  0  0  0
  6 15  1  0  0  0  0
  7 14  1  0  0  0  0
  7 21  1  0  0  0  0
  7 39  1  0  0  0  0
  8 19  1  0  0  0  0
  8 54  1  0  0  0  0
  8 55  1  0  0  0  0
  9 27  1  0  0  0  0
  9 60  1  0  0  0  0
  9 61  1  0  0  0  0
 10 11  1  0  0  0  0
 10 18  1  0  0  0  0
 10 28  1  0  0  0  0
 11 13  1  0  0  0  0
 11 29  1  0  0  0  0
 11 30  1  0  0  0  0
 12 13  1  0  0  0  0
 12 31  1  0  0  0  0
 12 32  1  0  0  0  0
 13 33  1  0  0  0  0
 13 34  1  0  0  0  0
 14 15  1  0  0  0  0
 14 16  1  0  0  0  0
 14 35  1  0  0  0  0
 16 17  1  0  0  0  0
 16 36  1  0  0  0  0
 16 37  1  0  0  0  0
 17 23  1  0  0  0  0
 17 24  1  0  0  0  0
 17 38  1  0  0  0  0
 19 20  1  0  0  0  0
 19 22  1  0  0  0  0
 19 40  1  0  0  0  0
 20 21  1  0  0  0  0
 20 41  1  0  0  0  0
 22 25  1  0  0  0  0
 22 42  1  0  0  0  0
 22 43  1  0  0  0  0
 23 44  1  0  0  0  0
 23 45  1  0  0  0  0
 23 46  1  0  0  0  0
 24 47  1  0  0  0  0
 24 48  1  0  0  0  0
 24 49  1  0  0  0  0
 25 26  1  0  0  0  0
 25 50  1  0  0  0  0
 25 51  1  0  0  0  0
 26 27  1  0  0  0  0
 26 52  1  0  0  0  0
 26 53  1  0  0  0  0
 27 58  1  0  0  0  0
 27 59  1  0  0  0  0
M  END
> <PUBCHEM_COMPOUND_CID>
132651

> <PUBCHEM_CONFORMER_RMSD>
1.2

> <PUBCHEM_CONFORMER_DIVERSEORDER>
2
41
95
47
31
58
69
84
53
45
39
64
55
11
78
83
87
40
35
82
90
48
30
66
67
92
9
42
79
34
80
38
25
63
81
76
10
65
71
85
26
46
62
49
7
37
57
93
61
70
20
88
36
86
12
60
91
94
96
56
18
75
17
44
15
24
43
73
54
21
27
59
32
22
8
52
68
33
19
89
72
5
77
74
4
14
51
23
13
50
16
1
6
29
3
28

> <PUBCHEM_MMFF94_PARTIAL_CHARGES>
25
1 -0.57
10 0.36
12 0.3
14 0.36
15 0.57
18 0.66
19 0.27
2 -0.65
20 0.34
21 0.57
27 0.27
3 -0.57
39 0.37
4 -0.68
5 -0.57
54 0.36
55 0.36
56 0.5
57 0.4
6 -0.66
60 0.36
61 0.36
7 -0.73
8 -0.99
9 -0.99

> <PUBCHEM_EFFECTIVE_ROTOR_COUNT>
14

> <PUBCHEM_PHARMACOPHORE_FEATURES>
14
1 1 acceptor
1 2 acceptor
1 3 acceptor
1 4 acceptor
1 4 donor
1 5 acceptor
1 7 donor
1 8 cation
1 8 donor
1 9 cation
1 9 donor
3 17 23 24 hydrophobe
3 2 3 18 anion
5 6 10 11 12 13 rings

> <PUBCHEM_HEAVY_ATOM_COUNT>
27

> <PUBCHEM_ATOM_DEF_STEREO_COUNT>
3

> <PUBCHEM_ATOM_UDEF_STEREO_COUNT>
1

> <PUBCHEM_BOND_DEF_STEREO_COUNT>
0

> <PUBCHEM_BOND_UDEF_STEREO_COUNT>
0

> <PUBCHEM_ISOTOPIC_ATOM_COUNT>
0

> <PUBCHEM_COMPONENT_COUNT>
1

> <PUBCHEM_CACTVS_TAUTO_COUNT>
2

> <PUBCHEM_CONFORMER_ID>
0002062B00000002

> <PUBCHEM_MMFF94_ENERGY>
36.6736

> <PUBCHEM_FEATURE_SELFOVERLAP>
71.108

> <PUBCHEM_SHAPE_FINGERPRINT>
12160290 23 17554910775253569064
12363563 72 17774715355647290476
12549972 3 18340767165115866537
12553582 1 17916873400072412940
12707595 3 18131630092861213030
12788726 201 17770508538402738160
14932702 115 18188226393081204638
15775530 1 18266726047754169993
17974551 9 17909588195710628451
17980427 26 16481934026357063064
1813 80 17346024589598423860
1979834 28 17039528345187917499
20600515 1 17619308088923890256
20603629 256 17415285206686099657
20832881 197 18199177405067814989
23419403 2 18053959616517832224
23557571 272 17972589163899317665
23558518 356 17335351432569455278
23559900 14 18338784732566222013
633830 44 14634875214733898046
81228 2 17485931826632123880

> <PUBCHEM_SHAPE_MULTIPOLES>
506.38
8.15
5.34
2.72
3.01
1.24
-1.5
-5.31
3.29
-1.01
-4.95
0.56
0.63
4.61

> <PUBCHEM_SHAPE_SELFOVERLAP>
1001.605

> <PUBCHEM_SHAPE_VOLUME>
302.2

> <PUBCHEM_COORDINATE_TYPE>
2
5
10

$$$$
