132606955
  -OEChem-03292013293D

 49 51  0     1  0  0  0  0  0999 V2000
   -2.9640    1.1516   -0.4537 O   0  0  0  0  0  0  0  0  0  0  0  0
   -2.1800   -0.8715    0.5023 O   0  0  0  0  0  0  0  0  0  0  0  0
   -6.5082   -0.8752    0.3279 O   0  0  0  0  0  0  0  0  0  0  0  0
   -5.8328    1.6874   -0.5174 O   0  0  0  0  0  0  0  0  0  0  0  0
   -4.8550   -0.5162   -1.9260 O   0  0  0  0  0  0  0  0  0  0  0  0
    3.9814   -2.3178   -0.0588 O   0  0  0  0  0  0  0  0  0  0  0  0
    1.5719    2.4559   -0.1484 O   0  0  0  0  0  0  0  0  0  0  0  0
    6.1327    1.9763    0.5565 O   0  0  0  0  0  0  0  0  0  0  0  0
    5.5354   -0.0688   -0.3922 N   0  0  0  0  0  0  0  0  0  0  0  0
   -5.1735   -0.4084    0.4840 C   0  0  2  0  0  0  0  0  0  0  0  0
   -5.1654    1.1171    0.6076 C   0  0  1  0  0  0  0  0  0  0  0  0
   -4.2901   -0.8914   -0.6707 C   0  0  2  0  0  0  0  0  0  0  0  0
   -3.7136    1.6120    0.6789 C   0  0  2  0  0  0  0  0  0  0  0  0
   -2.8932   -0.2740   -0.5758 C   0  0  1  0  0  0  0  0  0  0  0  0
   -3.6062    3.1325    0.7024 C   0  0  0  0  0  0  0  0  0  0  0  0
   -0.8212   -0.9674    0.3624 C   0  0  0  0  0  0  0  0  0  0  0  0
   -0.1892   -2.2094    0.3859 C   0  0  0  0  0  0  0  0  0  0  0  0
   -0.0705    0.1966    0.1957 C   0  0  0  0  0  0  0  0  0  0  0  0
    1.3194    0.1164    0.0514 C   0  0  0  0  0  0  0  0  0  0  0  0
    1.9536   -1.1277    0.0741 C   0  0  0  0  0  0  0  0  0  0  0  0
    1.1961   -2.2930    0.2421 C   0  0  0  0  0  0  0  0  0  0  0  0
   -0.9808   -3.4631    0.5643 C   0  0  0  0  0  0  0  0  0  0  0  0
    3.4196   -1.2284   -0.0777 C   0  0  0  0  0  0  0  0  0  0  0  0
    2.1039    1.3527   -0.1243 C   0  0  0  0  0  0  0  0  0  0  0  0
    4.1811    0.0343   -0.2526 C   0  0  0  0  0  0  0  0  0  0  0  0
    3.5684    1.2215   -0.2730 C   0  0  0  0  0  0  0  0  0  0  0  0
    6.4251    0.9092    0.0215 C   0  0  0  0  0  0  0  0  0  0  0  0
    7.8550    0.5490   -0.2865 C   0  0  0  0  0  0  0  0  0  0  0  0
   -4.7890   -0.8396    1.4171 H   0  0  0  0  0  0  0  0  0  0  0  0
   -5.7268    1.4192    1.4994 H   0  0  0  0  0  0  0  0  0  0  0  0
   -4.2421   -1.9864   -0.6514 H   0  0  0  0  0  0  0  0  0  0  0  0
   -3.2398    1.2262    1.5905 H   0  0  0  0  0  0  0  0  0  0  0  0
   -2.3671   -0.4727   -1.5195 H   0  0  0  0  0  0  0  0  0  0  0  0
   -3.9345    3.5746   -0.2442 H   0  0  0  0  0  0  0  0  0  0  0  0
   -2.5604    3.4323    0.8331 H   0  0  0  0  0  0  0  0  0  0  0  0
   -4.1936    3.5606    1.5201 H   0  0  0  0  0  0  0  0  0  0  0  0
   -7.0230   -0.5532    1.0874 H   0  0  0  0  0  0  0  0  0  0  0  0
   -5.9854    2.6279   -0.3255 H   0  0  0  0  0  0  0  0  0  0  0  0
   -4.2951   -0.8936   -2.6257 H   0  0  0  0  0  0  0  0  0  0  0  0
   -0.5576    1.1667    0.1995 H   0  0  0  0  0  0  0  0  0  0  0  0
    1.6807   -3.2662    0.2612 H   0  0  0  0  0  0  0  0  0  0  0  0
   -1.5269   -3.4363    1.5131 H   0  0  0  0  0  0  0  0  0  0  0  0
   -1.6950   -3.5809   -0.2574 H   0  0  0  0  0  0  0  0  0  0  0  0
   -0.3429   -4.3533    0.5772 H   0  0  0  0  0  0  0  0  0  0  0  0
    4.0788    2.1609   -0.4503 H   0  0  0  0  0  0  0  0  0  0  0  0
    5.9074   -0.9908   -0.6070 H   0  0  0  0  0  0  0  0  0  0  0  0
    8.5151    1.3690    0.0093 H   0  0  0  0  0  0  0  0  0  0  0  0
    8.1361   -0.3510    0.2675 H   0  0  0  0  0  0  0  0  0  0  0  0
    7.9706    0.3690   -1.3590 H   0  0  0  0  0  0  0  0  0  0  0  0
  1 13  1  0  0  0  0
  1 14  1  0  0  0  0
  2 14  1  0  0  0  0
  2 16  1  0  0  0  0
  3 10  1  0  0  0  0
  3 37  1  0  0  0  0
  4 11  1  0  0  0  0
  4 38  1  0  0  0  0
  5 12  1  0  0  0  0
  5 39  1  0  0  0  0
  6 23  2  0  0  0  0
  7 24  2  0  0  0  0
  8 27  2  0  0  0  0
  9 25  1  0  0  0  0
  9 27  1  0  0  0  0
  9 46  1  0  0  0  0
 10 11  1  0  0  0  0
 10 12  1  0  0  0  0
 10 29  1  0  0  0  0
 11 13  1  0  0  0  0
 11 30  1  0  0  0  0
 12 14  1  0  0  0  0
 12 31  1  0  0  0  0
 13 15  1  0  0  0  0
 13 32  1  0  0  0  0
 14 33  1  0  0  0  0
 15 34  1  0  0  0  0
 15 35  1  0  0  0  0
 15 36  1  0  0  0  0
 16 17  1  0  0  0  0
 16 18  2  0  0  0  0
 17 21  2  0  0  0  0
 17 22  1  0  0  0  0
 18 19  1  0  0  0  0
 18 40  1  0  0  0  0
 19 20  2  0  0  0  0
 19 24  1  0  0  0  0
 20 21  1  0  0  0  0
 20 23  1  0  0  0  0
 21 41  1  0  0  0  0
 22 42  1  0  0  0  0
 22 43  1  0  0  0  0
 22 44  1  0  0  0  0
 23 25  1  0  0  0  0
 24 26  1  0  0  0  0
 25 26  2  0  0  0  0
 26 45  1  0  0  0  0
 27 28  1  0  0  0  0
 28 47  1  0  0  0  0
 28 48  1  0  0  0  0
 28 49  1  0  0  0  0
M  END
> <PUBCHEM_COMPOUND_CID>
132606955

> <PUBCHEM_CONFORMER_RMSD>
0.8

> <PUBCHEM_CONFORMER_DIVERSEORDER>
1
55
27
34
58
57
59
52
64
63
50
48
30
36
26
60
54
51
62
21
43
25
17
22
44
45
39
47
53
61
20
14
15
18
16
40
35
8
38
37
7
19
33
23
41
31
10
56
3
42
49
6
29
28
11
32
12
24
5
2
9
13
46
4

> <PUBCHEM_MMFF94_PARTIAL_CHARGES>
34
1 -0.56
10 0.28
11 0.28
12 0.28
13 0.28
14 0.56
16 0.08
17 -0.14
18 -0.15
19 0.09
2 -0.36
20 0.09
21 -0.15
22 0.14
23 0.47
24 0.47
25 0.12
26 -0.14
27 0.57
28 0.06
3 -0.68
37 0.4
38 0.4
39 0.4
4 -0.68
40 0.15
41 0.15
45 0.15
46 0.37
5 -0.68
6 -0.57
7 -0.57
8 -0.57
9 -0.54

> <PUBCHEM_EFFECTIVE_ROTOR_COUNT>
5.2

> <PUBCHEM_PHARMACOPHORE_FEATURES>
15
1 1 acceptor
1 2 acceptor
1 3 acceptor
1 3 donor
1 4 acceptor
1 4 donor
1 5 acceptor
1 5 donor
1 6 acceptor
1 7 acceptor
1 8 acceptor
1 9 donor
6 1 10 11 12 13 14 rings
6 16 17 18 19 20 21 rings
6 19 20 23 24 25 26 rings

> <PUBCHEM_HEAVY_ATOM_COUNT>
28

> <PUBCHEM_ATOM_DEF_STEREO_COUNT>
5

> <PUBCHEM_ATOM_UDEF_STEREO_COUNT>
0

> <PUBCHEM_BOND_DEF_STEREO_COUNT>
0

> <PUBCHEM_BOND_UDEF_STEREO_COUNT>
0

> <PUBCHEM_ISOTOPIC_ATOM_COUNT>
0

> <PUBCHEM_COMPONENT_COUNT>
1

> <PUBCHEM_CACTVS_TAUTO_COUNT>
26

> <PUBCHEM_CONFORMER_ID>
07E76BEB00000001

> <PUBCHEM_MMFF94_ENERGY>
94.1706

> <PUBCHEM_FEATURE_SELFOVERLAP>
76.213

> <PUBCHEM_SHAPE_FINGERPRINT>
10 15 18040721354901344889
10411042 1 17544475254782091130
10595046 47 18342173341265966591
10670039 82 18411696578113311281
10906281 52 18339377313698899854
11578080 2 17058355127923161202
11646440 116 18271815652344750592
12107183 9 17547293302977384659
12236239 1 17989208131254361470
12788726 201 17703233910102896720
12838862 33 18336811044405818324
13073987 5 18409451345193462162
13402501 40 18408041814310458476
14251764 18 18259703406810056162
14394314 77 18342183224192281689
14790565 3 18337958879047901008
14849402 71 18339646749550769688
15183329 4 18410852157841623654
15196674 1 18338237059330768066
15788980 27 12103559788708676379
18608769 82 18338802341947868803
18681886 176 18272081738215892249
21033648 144 18113893836835201311
21033648 29 16515962554559593567
21033650 10 17772782440165770308
21279426 13 18268434542820661316
23559900 14 18197773508754421776
2838139 119 18342174492644035204
335352 9 18409171039471093110
34797466 226 17274829073307107788
34934 24 18409165533091456418
350125 39 18411138022333167129
3545911 37 18408604794349548434
4073 2 18114188557211582106
4325135 7 18342457062900774983
474 4 18334577915283824131
5104073 3 18261397684934015547
59755656 215 18410299095483433142
59755656 520 18334572477386391542

> <PUBCHEM_SHAPE_MULTIPOLES>
524.29
16.65
2.95
0.85
10.36
0.5
0.19
-7.2
1.25
-0.88
-0.64
-0.87
0.02
-0.34

> <PUBCHEM_SHAPE_SELFOVERLAP>
1130.772

> <PUBCHEM_SHAPE_VOLUME>
285.5

> <PUBCHEM_COORDINATE_TYPE>
2
5
10

$$$$
