132616
  -OEChem-03292013323D

 56 58  0     1  0  0  0  0  0999 V2000
    2.6245    1.2186   -1.7755 O   0  0  0  0  0  0  0  0  0  0  0  0
    3.2746   -2.8814   -2.4183 O   0  0  0  0  0  0  0  0  0  0  0  0
    1.4444   -1.8768   -1.5035 O   0  0  0  0  0  0  0  0  0  0  0  0
    0.0131    2.5696   -2.3044 O   0  0  0  0  0  0  0  0  0  0  0  0
   -1.0098    3.6057   -0.5668 O   0  0  0  0  0  0  0  0  0  0  0  0
   -7.5222   -1.7447    1.0695 O   0  0  0  0  0  0  0  0  0  0  0  0
    2.6635   -0.5051    1.3599 N   0  0  1  0  0  0  0  0  0  0  0  0
    2.9401   -0.2241    0.0007 N   0  0  0  0  0  0  0  0  0  0  0  0
    0.5762    1.5382    0.8055 N   0  0  0  0  0  0  0  0  0  0  0  0
    3.6658   -1.2176   -0.8016 C   0  0  1  0  0  0  0  0  0  0  0  0
    1.8675    2.0228    0.3303 C   0  0  1  0  0  0  0  0  0  0  0  0
    2.5951   -1.9435    1.6230 C   0  0  0  0  0  0  0  0  0  0  0  0
    3.5844    0.1983    2.2552 C   0  0  0  0  0  0  0  0  0  0  0  0
    4.5687   -2.1281    0.0256 C   0  0  0  0  0  0  0  0  0  0  0  0
    2.8151    2.5116    1.4312 C   0  0  0  0  0  0  0  0  0  0  0  0
    3.8818   -2.6885    1.2722 C   0  0  0  0  0  0  0  0  0  0  0  0
    3.0208    1.5711    2.6181 C   0  0  0  0  0  0  0  0  0  0  0  0
    2.4994    0.9686   -0.5706 C   0  0  0  0  0  0  0  0  0  0  0  0
   -0.3174    1.2853   -0.3121 C   0  0  1  0  0  0  0  0  0  0  0  0
    2.6567   -2.0034   -1.5908 C   0  0  0  0  0  0  0  0  0  0  0  0
   -1.6597    0.7651    0.2209 C   0  0  0  0  0  0  0  0  0  0  0  0
   -2.6930    0.4362   -0.8680 C   0  0  0  0  0  0  0  0  0  0  0  0
   -0.4932    2.6034   -1.0454 C   0  0  0  0  0  0  0  0  0  0  0  0
   -3.9845   -0.1471   -0.3494 C   0  0  0  0  0  0  0  0  0  0  0  0
   -4.1055   -1.5215   -0.2184 C   0  0  0  0  0  0  0  0  0  0  0  0
   -5.0272    0.7023   -0.0141 C   0  0  0  0  0  0  0  0  0  0  0  0
   -5.2997   -2.0604    0.2602 C   0  0  0  0  0  0  0  0  0  0  0  0
   -6.2215    0.1634    0.4645 C   0  0  0  0  0  0  0  0  0  0  0  0
   -6.3577   -1.2179    0.6017 C   0  0  0  0  0  0  0  0  0  0  0  0
    4.2745   -0.6699   -1.5324 H   0  0  0  0  0  0  0  0  0  0  0  0
    1.7398    2.9164   -0.2935 H   0  0  0  0  0  0  0  0  0  0  0  0
    2.3359   -2.1289    2.6732 H   0  0  0  0  0  0  0  0  0  0  0  0
    1.7579   -2.3701    1.0571 H   0  0  0  0  0  0  0  0  0  0  0  0
    3.7041   -0.3513    3.1978 H   0  0  0  0  0  0  0  0  0  0  0  0
    4.5889    0.2947    1.8247 H   0  0  0  0  0  0  0  0  0  0  0  0
    4.9882   -2.9486   -0.5677 H   0  0  0  0  0  0  0  0  0  0  0  0
    5.4309   -1.5347    0.3586 H   0  0  0  0  0  0  0  0  0  0  0  0
    2.4308    3.4616    1.8257 H   0  0  0  0  0  0  0  0  0  0  0  0
    3.7954    2.7340    0.9896 H   0  0  0  0  0  0  0  0  0  0  0  0
    4.5843   -2.6497    2.1138 H   0  0  0  0  0  0  0  0  0  0  0  0
    3.6447   -3.7478    1.1164 H   0  0  0  0  0  0  0  0  0  0  0  0
    2.0763    1.4506    3.1639 H   0  0  0  0  0  0  0  0  0  0  0  0
    3.7127    2.0518    3.3213 H   0  0  0  0  0  0  0  0  0  0  0  0
    0.6998    0.6889    1.3552 H   0  0  0  0  0  0  0  0  0  0  0  0
    0.0738    0.5278   -0.9999 H   0  0  0  0  0  0  0  0  0  0  0  0
   -1.4805   -0.1407    0.8168 H   0  0  0  0  0  0  0  0  0  0  0  0
   -2.1006    1.4997    0.9095 H   0  0  0  0  0  0  0  0  0  0  0  0
   -2.2496   -0.2648   -1.5879 H   0  0  0  0  0  0  0  0  0  0  0  0
   -2.9216    1.3384   -1.4499 H   0  0  0  0  0  0  0  0  0  0  0  0
    2.6319   -3.4063   -2.9413 H   0  0  0  0  0  0  0  0  0  0  0  0
   -0.0940    3.4291   -2.7648 H   0  0  0  0  0  0  0  0  0  0  0  0
   -3.2863   -2.1853   -0.4796 H   0  0  0  0  0  0  0  0  0  0  0  0
   -4.9295    1.7794   -0.1156 H   0  0  0  0  0  0  0  0  0  0  0  0
   -5.3929   -3.1383    0.3631 H   0  0  0  0  0  0  0  0  0  0  0  0
   -7.0418    0.8248    0.7296 H   0  0  0  0  0  0  0  0  0  0  0  0
   -7.4404   -2.7134    1.0996 H   0  0  0  0  0  0  0  0  0  0  0  0
  1 18  2  0  0  0  0
  2 20  1  0  0  0  0
  2 50  1  0  0  0  0
  3 20  2  0  0  0  0
  4 23  1  0  0  0  0
  4 51  1  0  0  0  0
  5 23  2  0  0  0  0
  6 29  1  0  0  0  0
  6 56  1  0  0  0  0
  7  8  1  0  0  0  0
  7 12  1  0  0  0  0
  7 13  1  0  0  0  0
  8 10  1  0  0  0  0
  8 18  1  0  0  0  0
  9 11  1  0  0  0  0
  9 19  1  0  0  0  0
  9 44  1  0  0  0  0
 10 14  1  0  0  0  0
 10 20  1  0  0  0  0
 10 30  1  0  0  0  0
 11 15  1  0  0  0  0
 11 18  1  0  0  0  0
 11 31  1  0  0  0  0
 12 16  1  0  0  0  0
 12 32  1  0  0  0  0
 12 33  1  0  0  0  0
 13 17  1  0  0  0  0
 13 34  1  0  0  0  0
 13 35  1  0  0  0  0
 14 16  1  0  0  0  0
 14 36  1  0  0  0  0
 14 37  1  0  0  0  0
 15 17  1  0  0  0  0
 15 38  1  0  0  0  0
 15 39  1  0  0  0  0
 16 40  1  0  0  0  0
 16 41  1  0  0  0  0
 17 42  1  0  0  0  0
 17 43  1  0  0  0  0
 19 21  1  0  0  0  0
 19 23  1  0  0  0  0
 19 45  1  0  0  0  0
 21 22  1  0  0  0  0
 21 46  1  0  0  0  0
 21 47  1  0  0  0  0
 22 24  1  0  0  0  0
 22 48  1  0  0  0  0
 22 49  1  0  0  0  0
 24 25  2  0  0  0  0
 24 26  1  0  0  0  0
 25 27  1  0  0  0  0
 25 52  1  0  0  0  0
 26 28  2  0  0  0  0
 26 53  1  0  0  0  0
 27 29  2  0  0  0  0
 27 54  1  0  0  0  0
 28 29  1  0  0  0  0
 28 55  1  0  0  0  0
M  END
> <PUBCHEM_COMPOUND_CID>
132616

> <PUBCHEM_CONFORMER_RMSD>
1

> <PUBCHEM_CONFORMER_DIVERSEORDER>
1
12
20
18
3
6
21
9
17
5
16
7
14
2
15
19
4
11
8
10
13

> <PUBCHEM_MMFF94_PARTIAL_CHARGES>
32
1 -0.57
10 0.36
11 0.33
12 0.27
13 0.27
18 0.57
19 0.33
2 -0.65
20 0.66
22 0.14
23 0.66
24 -0.14
25 -0.15
26 -0.15
27 -0.15
28 -0.15
29 0.08
3 -0.57
4 -0.65
44 0.36
5 -0.57
50 0.5
51 0.5
52 0.15
53 0.15
54 0.15
55 0.15
56 0.45
6 -0.53
7 -0.55
8 -0.35
9 -0.9

> <PUBCHEM_EFFECTIVE_ROTOR_COUNT>
8.6

> <PUBCHEM_PHARMACOPHORE_FEATURES>
13
1 1 acceptor
1 2 acceptor
1 3 acceptor
1 4 acceptor
1 5 acceptor
1 6 donor
1 9 cation
1 9 donor
3 2 3 20 anion
3 4 5 23 anion
6 24 25 26 27 28 29 rings
6 7 8 10 12 14 16 rings
7 7 8 11 13 15 17 18 rings

> <PUBCHEM_HEAVY_ATOM_COUNT>
29

> <PUBCHEM_ATOM_DEF_STEREO_COUNT>
3

> <PUBCHEM_ATOM_UDEF_STEREO_COUNT>
0

> <PUBCHEM_BOND_DEF_STEREO_COUNT>
0

> <PUBCHEM_BOND_UDEF_STEREO_COUNT>
0

> <PUBCHEM_ISOTOPIC_ATOM_COUNT>
0

> <PUBCHEM_COMPONENT_COUNT>
1

> <PUBCHEM_CACTVS_TAUTO_COUNT>
2

> <PUBCHEM_CONFORMER_ID>
0002060800000001

> <PUBCHEM_MMFF94_ENERGY>
63.4399

> <PUBCHEM_FEATURE_SELFOVERLAP>
66.106

> <PUBCHEM_SHAPE_FINGERPRINT>
10928967 22 17894906313744699571
11497681 19 15867694824403441866
11720765 8 11819531728976639568
11763715 3 16372112322948298828
1200032 147 14763778784341677984
12035758 1 17773571903211844794
12166972 35 15647318707266127770
12422481 6 18130775746862913575
12596602 18 16056598828647251339
12633257 1 17203030946216131623
12778500 126 16200163062223070875
13150687 139 17606703563134138860
13533116 47 17917720114969056971
14211702 104 18118967130216696571
14251740 57 18409165532568924811
14429115 67 18412262844071408433
14528608 73 10375880688574547865
14848178 96 10087644831664712467
14863182 85 18265897037181984932
15183329 4 17894908517521376901
15664445 248 18115880748656889036
15799311 1 17458357338244364819
17909252 39 18334572400081930915
1813 80 17748823029893508557
18365409 1 11534645964244774486
19026451 147 17822303370375919678
1979834 28 18201157749635982699
20775438 99 11819282212641095841
21421861 104 17489866050849966352
21792934 111 18342750611958846443
23559900 14 18343308067473014629
239999 70 18410292540476973122
25222932 49 18042393797971188067
3004659 81 17748826315268734723
3178227 256 18129652123874417896
3388396 114 15285942212260542198
3421961 26 18273217495114993845
34797466 226 12540698124559361875
4340502 62 17703224147647643672
439807 62 17894352151304908227
44317340 157 10665222632427325673
474 4 11167942468038729197
5104073 3 18272936016639953593
513532 50 18410577331195135066
58260988 521 18339060671946961680
6823239 73 18341615893033750210

> <PUBCHEM_SHAPE_MULTIPOLES>
546.65
13.61
3.61
2.06
28.4
0.6
-0.02
-9.97
-4.7
-2.51
0.74
-2.84
0.03
1.99

> <PUBCHEM_SHAPE_SELFOVERLAP>
1148.13

> <PUBCHEM_SHAPE_VOLUME>
301.9

> <PUBCHEM_COORDINATE_TYPE>
2
5
10

$$$$
