132756
  -OEChem-03292013323D

 29 30  0     0  0  0  0  0  0999 V2000
   -4.5460   -0.9975   -2.3034 I   0  0  0  0  0  0  0  0  0  0  0  0
   -0.3975   -1.6530    0.8965 S   0  0  0  0  0  0  0  0  0  0  0  0
   -4.5189    0.9205    1.5258 O   0  0  0  0  0  0  0  0  0  0  0  0
    4.4859    1.0358   -0.4469 N   0  0  0  0  0  0  0  0  0  0  0  0
   -4.1103   -0.4462   -0.3085 N   0  0  0  0  0  0  0  0  0  0  0  0
    2.2080   -1.4730    0.3642 N   0  0  0  0  0  0  0  0  0  0  0  0
    0.9149    0.5951    0.3140 N   0  0  0  0  0  0  0  0  0  0  0  0
    4.5668   -1.1706   -0.1400 N   0  0  0  0  0  0  0  0  0  0  0  0
    1.9195    2.7129   -0.1919 N   0  0  0  0  0  0  0  0  0  0  0  0
   -3.0747   -1.2386    0.2978 C   0  0  0  0  0  0  0  0  0  0  0  0
   -1.6822   -0.6598    0.0877 C   0  0  0  0  0  0  0  0  0  0  0  0
    3.2095    0.6567   -0.1424 C   0  0  0  0  0  0  0  0  0  0  0  0
    3.2855   -0.7170    0.0437 C   0  0  0  0  0  0  0  0  0  0  0  0
    2.0080    1.3237   -0.0057 C   0  0  0  0  0  0  0  0  0  0  0  0
    1.0798   -0.7392    0.4769 C   0  0  0  0  0  0  0  0  0  0  0  0
    5.2625   -0.0928   -0.4334 C   0  0  0  0  0  0  0  0  0  0  0  0
   -4.7714    0.5974    0.3623 C   0  0  0  0  0  0  0  0  0  0  0  0
   -5.8395    1.3455   -0.3966 C   0  0  0  0  0  0  0  0  0  0  0  0
   -3.2818   -1.2863    1.3748 H   0  0  0  0  0  0  0  0  0  0  0  0
   -3.1339   -2.2697   -0.0712 H   0  0  0  0  0  0  0  0  0  0  0  0
   -1.4542   -0.5962   -0.9818 H   0  0  0  0  0  0  0  0  0  0  0  0
   -1.6564    0.3594    0.4895 H   0  0  0  0  0  0  0  0  0  0  0  0
    4.8031    1.9752   -0.6462 H   0  0  0  0  0  0  0  0  0  0  0  0
    6.3217   -0.0589   -0.6450 H   0  0  0  0  0  0  0  0  0  0  0  0
    1.0228    3.1673   -0.0843 H   0  0  0  0  0  0  0  0  0  0  0  0
    2.7388    3.2543   -0.4315 H   0  0  0  0  0  0  0  0  0  0  0  0
   -5.4137    1.8377   -1.2746 H   0  0  0  0  0  0  0  0  0  0  0  0
   -6.6517    0.6722   -0.6817 H   0  0  0  0  0  0  0  0  0  0  0  0
   -6.2611    2.1221    0.2498 H   0  0  0  0  0  0  0  0  0  0  0  0
  1  5  1  0  0  0  0
  2 11  1  0  0  0  0
  2 15  1  0  0  0  0
  3 17  2  0  0  0  0
  4 12  1  0  0  0  0
  4 16  1  0  0  0  0
  4 23  1  0  0  0  0
  5 10  1  0  0  0  0
  5 17  1  0  0  0  0
  6 13  2  0  0  0  0
  6 15  1  0  0  0  0
  7 14  1  0  0  0  0
  7 15  2  0  0  0  0
  8 13  1  0  0  0  0
  8 16  2  0  0  0  0
  9 14  1  0  0  0  0
  9 25  1  0  0  0  0
  9 26  1  0  0  0  0
 10 11  1  0  0  0  0
 10 19  1  0  0  0  0
 10 20  1  0  0  0  0
 11 21  1  0  0  0  0
 11 22  1  0  0  0  0
 12 13  1  0  0  0  0
 12 14  2  0  0  0  0
 16 24  1  0  0  0  0
 17 18  1  0  0  0  0
 18 27  1  0  0  0  0
 18 28  1  0  0  0  0
 18 29  1  0  0  0  0
M  END
> <PUBCHEM_COMPOUND_CID>
132756

> <PUBCHEM_CONFORMER_RMSD>
0.6

> <PUBCHEM_CONFORMER_DIVERSEORDER>
1
342
216
95
372
17
378
187
319
156
205
168
131
420
46
199
124
307
280
196
411
383
87
321
64
10
126
272
278
298
232
379
316
67
172
261
103
82
195
410
353
94
106
215
21
287
86
6
374
334
252
417
148
262
311
273
157
256
289
20
117
154
125
275
309
26
100
121
38
34
76
413
277
25
347
13
107
336
192
263
19
330
139
276
363
42
9
224
239
105
382
16
401
267
301
179
362
376
130
41
255
173
364
33
56
258
290
395
397
247
184
240
62
134
402
297
304
393
265
31
14
351
99
335
234
146
213
129
97
4
108
281
317
160
57
48
264
27
177
218
343
350
50
217
104
238
399
320
266
299
394
365
83
348
235
282
15
29
328
119
45
386
312
324
390
208
58
207
214
164
175
381
137
345
306
236
295
2
81
8
313
349
346
201
32
91
332
246
358
259
341
260
47
144
283
419
88
221
329
93
366
40
357
222
203
400
339
279
206
237
165
178
73
227
149
371
291
288
204
200
79
409
249
210
305
136
416
43
333
123
198
142
11
84
110
315
396
387
53
392
245
250
5
233
338
241
24
231
127
75
61
373
423
159
112
412
152
367
141
39
77
49
189
191
406
18
51
3
22
133
384
356
143
405
69
284
54
174
162
55
85
354
80
254
12
244
60
404
7
242
72
122
183
98
59
271
303
89
380
422
114
169
71
355
268
308
352
197
185
344
212
337
151
331
155
223
116
28
128
403
359
52
181
120
360
118
30
340
314
398
326
101
229
209
243
302
415
414
202
274
296
161
270
286
102
285
23
170
211
150
115
68
111
253
65
294
225
220
132
219
36
368
44
190
180
167
228
377
300
421
147
407
171
63
138
325
74
257
66
158
361
109
391
135
35
186
182
92
369
323
193
385
269
370
166
375
292
37
230
293
140
327
194
388
176
310
188
90
78
322
248
251
389
96
70
163
318
145
113
226
153
408
418

> <PUBCHEM_MMFF94_PARTIAL_CHARGES>
22
1 0.04
10 0.3
11 0.23
12 -0.15
13 0.48
14 0.41
15 0.72
16 0.04
17 0.57
18 0.06
2 -0.33
23 0.27
24 0.15
25 0.4
26 0.4
3 -0.57
4 0.03
5 -0.4
6 -0.57
7 -0.62
8 -0.57
9 -0.9

> <PUBCHEM_EFFECTIVE_ROTOR_COUNT>
5

> <PUBCHEM_PHARMACOPHORE_FEATURES>
9
1 3 acceptor
1 4 donor
1 9 cation
1 9 donor
3 4 8 16 cation
3 6 7 15 cation
3 6 8 13 cation
5 4 8 12 13 16 rings
6 6 7 12 13 14 15 rings

> <PUBCHEM_HEAVY_ATOM_COUNT>
18

> <PUBCHEM_ATOM_DEF_STEREO_COUNT>
0

> <PUBCHEM_ATOM_UDEF_STEREO_COUNT>
0

> <PUBCHEM_BOND_DEF_STEREO_COUNT>
0

> <PUBCHEM_BOND_UDEF_STEREO_COUNT>
0

> <PUBCHEM_ISOTOPIC_ATOM_COUNT>
0

> <PUBCHEM_COMPONENT_COUNT>
1

> <PUBCHEM_CACTVS_TAUTO_COUNT>
8

> <PUBCHEM_CONFORMER_ID>
0002069400000001

> <PUBCHEM_MMFF94_ENERGY>
34.755

> <PUBCHEM_FEATURE_SELFOVERLAP>
46.33

> <PUBCHEM_SHAPE_FINGERPRINT>
10366900 7 15068619435699737081
11089746 13 18131346432189188786
11471102 20 18408039637131090082
11796584 16 16200439043767655742
12236239 1 18201719548717458331
14251751 18 15984812796595546879
14848160 23 14261350249711247951
15183329 4 18343022159736568022
15788980 27 17632577171267313287
1601671 61 18407761430524102510
17834072 33 18131066060866254647
17834072 8 18342179950977678263
17870717 6 16056879144140742671
18186145 218 18113892797331432371
19489759 90 15913329066144037273
200 152 18131634503861411923
20432913 95 10447930594320270431
20645477 70 18409451379986412066
21033648 29 17240750809826083109
21478907 32 17976259041713443978
21709351 56 18343299288538522303
221357 26 18336255795681842757
22289505 5 18409728430987863820
231179 274 17530674420509154539
23402539 116 18273494576366508519
23402655 69 18410855490425340374
23557571 272 14261363418434594339
4072396 5 18334564738683233370
4214541 1 18410576214841098435
5104073 3 18187645864069150026
543358 83 18408608067441662722
59027123 10 18201997776667205855
59755656 520 18113898265447760243
633830 44 18334853952426145903
9971528 1 18343016705644995288

> <PUBCHEM_SHAPE_MULTIPOLES>
350.46
13.59
1.91
1.3
5.39
0.7
0.55
2.17
3.52
-0.02
0.03
2.18
-0.38
-1.35

> <PUBCHEM_SHAPE_SELFOVERLAP>
697.782

> <PUBCHEM_SHAPE_VOLUME>
214.5

> <PUBCHEM_COORDINATE_TYPE>
2
5
10

$$$$
