132744
  -OEChem-03292013323D

 66 67  0     1  0  0  0  0  0999 V2000
   -2.8453   -0.5159    0.1350 O   0  0  0  0  0  0  0  0  0  0  0  0
    0.4813    4.0705    1.9021 O   0  0  0  0  0  0  0  0  0  0  0  0
    1.6636   -3.3960    1.0132 O   0  0  0  0  0  0  0  0  0  0  0  0
    5.3491   -1.2009    1.1520 O   0  0  0  0  0  0  0  0  0  0  0  0
   -3.6292   -2.3925   -0.9541 O   0  0  0  0  0  0  0  0  0  0  0  0
    7.5445   -0.2897   -1.8221 O   0  0  0  0  0  0  0  0  0  0  0  0
    6.2393    1.1154   -0.6029 O   0  0  0  0  0  0  0  0  0  0  0  0
   -0.0842    0.5626    0.6359 C   0  0  2  0  0  0  0  0  0  0  0  0
   -1.0168    0.9757   -0.5411 C   0  0  1  0  0  0  0  0  0  0  0  0
    0.7455    1.7749    1.1374 C   0  0  2  0  0  0  0  0  0  0  0  0
   -2.0108   -0.1348   -0.9587 C   0  0  2  0  0  0  0  0  0  0  0  0
    0.8086   -0.6288    0.2734 C   0  0  0  0  0  0  0  0  0  0  0  0
   -1.7534    2.2817   -0.2514 C   0  0  0  0  0  0  0  0  0  0  0  0
   -0.2258    2.8578    1.6573 C   0  0  2  0  0  0  0  0  0  0  0  0
   -1.3845    3.1171    0.7363 C   0  0  0  0  0  0  0  0  0  0  0  0
   -2.9110    0.3120   -2.1200 C   0  0  0  0  0  0  0  0  0  0  0  0
    1.6824   -1.0362    1.4589 C   0  0  0  0  0  0  0  0  0  0  0  0
    1.7331    2.3205    0.0923 C   0  0  0  0  0  0  0  0  0  0  0  0
   -2.8901    2.5953   -1.0988 C   0  0  0  0  0  0  0  0  0  0  0  0
   -3.4101    1.7184   -1.9678 C   0  0  0  0  0  0  0  0  0  0  0  0
    2.5398   -2.2815    1.1969 C   0  0  2  0  0  0  0  0  0  0  0  0
    3.4780   -2.1933   -0.0170 C   0  0  0  0  0  0  0  0  0  0  0  0
   -3.7621   -1.4940   -0.1332 C   0  0  0  0  0  0  0  0  0  0  0  0
    4.4907   -1.0425    0.0241 C   0  0  2  0  0  0  0  0  0  0  0  0
   -4.9989   -1.2858    0.7244 C   0  0  1  0  0  0  0  0  0  0  0  0
    5.3570   -1.0438   -1.2356 C   0  0  0  0  0  0  0  0  0  0  0  0
   -6.2692   -1.7613    0.0044 C   0  0  0  0  0  0  0  0  0  0  0  0
   -4.8047   -2.0372    2.0384 C   0  0  0  0  0  0  0  0  0  0  0  0
   -6.5158   -1.0147   -1.3003 C   0  0  0  0  0  0  0  0  0  0  0  0
    6.3991    0.0472   -1.1790 C   0  0  0  0  0  0  0  0  0  0  0  0
   -0.7224    0.2430    1.4736 H   0  0  0  0  0  0  0  0  0  0  0  0
   -0.3817    1.1677   -1.4193 H   0  0  0  0  0  0  0  0  0  0  0  0
    1.3453    1.4942    2.0100 H   0  0  0  0  0  0  0  0  0  0  0  0
   -1.4528   -1.0197   -1.2864 H   0  0  0  0  0  0  0  0  0  0  0  0
    1.4172   -0.3994   -0.6065 H   0  0  0  0  0  0  0  0  0  0  0  0
    0.1852   -1.4872    0.0025 H   0  0  0  0  0  0  0  0  0  0  0  0
   -0.6359    2.5359    2.6223 H   0  0  0  0  0  0  0  0  0  0  0  0
   -1.9558    4.0244    0.9222 H   0  0  0  0  0  0  0  0  0  0  0  0
   -3.7703   -0.3377   -2.2864 H   0  0  0  0  0  0  0  0  0  0  0  0
   -2.3252    0.2811   -3.0480 H   0  0  0  0  0  0  0  0  0  0  0  0
    2.3649   -0.2332    1.7474 H   0  0  0  0  0  0  0  0  0  0  0  0
    1.0328   -1.2375    2.3204 H   0  0  0  0  0  0  0  0  0  0  0  0
    2.3956    1.5417   -0.2902 H   0  0  0  0  0  0  0  0  0  0  0  0
    2.3811    3.0851    0.5344 H   0  0  0  0  0  0  0  0  0  0  0  0
    1.2216    2.7765   -0.7606 H   0  0  0  0  0  0  0  0  0  0  0  0
   -3.3339    3.5840   -1.0203 H   0  0  0  0  0  0  0  0  0  0  0  0
   -4.2463    2.0234   -2.5907 H   0  0  0  0  0  0  0  0  0  0  0  0
    3.1291   -2.4880    2.0982 H   0  0  0  0  0  0  0  0  0  0  0  0
    0.6116    4.5287    1.0543 H   0  0  0  0  0  0  0  0  0  0  0  0
    2.8855   -2.1409   -0.9389 H   0  0  0  0  0  0  0  0  0  0  0  0
    4.0200   -3.1474   -0.0811 H   0  0  0  0  0  0  0  0  0  0  0  0
    3.9853   -0.0793    0.1268 H   0  0  0  0  0  0  0  0  0  0  0  0
   -5.1022   -0.2126    0.9300 H   0  0  0  0  0  0  0  0  0  0  0  0
    2.2153   -4.1904    0.9125 H   0  0  0  0  0  0  0  0  0  0  0  0
    5.8829   -2.0031   -1.3171 H   0  0  0  0  0  0  0  0  0  0  0  0
    4.7512   -0.8968   -2.1354 H   0  0  0  0  0  0  0  0  0  0  0  0
   -7.1322   -1.6067    0.6636 H   0  0  0  0  0  0  0  0  0  0  0  0
   -6.2174   -2.8368   -0.2050 H   0  0  0  0  0  0  0  0  0  0  0  0
   -3.9071   -1.6868    2.5599 H   0  0  0  0  0  0  0  0  0  0  0  0
   -5.6614   -1.8882    2.7036 H   0  0  0  0  0  0  0  0  0  0  0  0
   -4.6864   -3.1132    1.8683 H   0  0  0  0  0  0  0  0  0  0  0  0
    5.7902   -2.0642    1.0754 H   0  0  0  0  0  0  0  0  0  0  0  0
   -5.8005   -1.3039   -2.0738 H   0  0  0  0  0  0  0  0  0  0  0  0
   -7.5144   -1.2540   -1.6808 H   0  0  0  0  0  0  0  0  0  0  0  0
   -6.4616    0.0688   -1.1560 H   0  0  0  0  0  0  0  0  0  0  0  0
    8.2163    0.4234   -1.7713 H   0  0  0  0  0  0  0  0  0  0  0  0
  1 11  1  0  0  0  0
  1 23  1  0  0  0  0
  2 14  1  0  0  0  0
  2 49  1  0  0  0  0
  3 21  1  0  0  0  0
  3 54  1  0  0  0  0
  4 24  1  0  0  0  0
  4 62  1  0  0  0  0
  5 23  2  0  0  0  0
  6 30  1  0  0  0  0
  6 66  1  0  0  0  0
  7 30  2  0  0  0  0
  8  9  1  0  0  0  0
  8 10  1  0  0  0  0
  8 12  1  0  0  0  0
  8 31  1  0  0  0  0
  9 11  1  0  0  0  0
  9 13  1  0  0  0  0
  9 32  1  0  0  0  0
 10 14  1  0  0  0  0
 10 18  1  0  0  0  0
 10 33  1  0  0  0  0
 11 16  1  0  0  0  0
 11 34  1  0  0  0  0
 12 17  1  0  0  0  0
 12 35  1  0  0  0  0
 12 36  1  0  0  0  0
 13 15  2  0  0  0  0
 13 19  1  0  0  0  0
 14 15  1  0  0  0  0
 14 37  1  0  0  0  0
 15 38  1  0  0  0  0
 16 20  1  0  0  0  0
 16 39  1  0  0  0  0
 16 40  1  0  0  0  0
 17 21  1  0  0  0  0
 17 41  1  0  0  0  0
 17 42  1  0  0  0  0
 18 43  1  0  0  0  0
 18 44  1  0  0  0  0
 18 45  1  0  0  0  0
 19 20  2  0  0  0  0
 19 46  1  0  0  0  0
 20 47  1  0  0  0  0
 21 22  1  0  0  0  0
 21 48  1  0  0  0  0
 22 24  1  0  0  0  0
 22 50  1  0  0  0  0
 22 51  1  0  0  0  0
 23 25  1  0  0  0  0
 24 26  1  0  0  0  0
 24 52  1  0  0  0  0
 25 27  1  0  0  0  0
 25 28  1  0  0  0  0
 25 53  1  0  0  0  0
 26 30  1  0  0  0  0
 26 55  1  0  0  0  0
 26 56  1  0  0  0  0
 27 29  1  0  0  0  0
 27 57  1  0  0  0  0
 27 58  1  0  0  0  0
 28 59  1  0  0  0  0
 28 60  1  0  0  0  0
 28 61  1  0  0  0  0
 29 63  1  0  0  0  0
 29 64  1  0  0  0  0
 29 65  1  0  0  0  0
M  END
> <PUBCHEM_COMPOUND_CID>
132744

> <PUBCHEM_CONFORMER_RMSD>
1

> <PUBCHEM_CONFORMER_DIVERSEORDER>
1
188
111
102
73
42
155
108
64
168
20
107
88
15
74
201
193
143
166
177
162
82
75
142
192
118
98
198
147
71
3
175
104
184
89
135
109
133
91
137
87
76
17
99
117
58
72
185
86
31
55
69
56
101
131
200
141
204
136
106
36
110
115
53
181
59
54
149
27
144
93
70
14
90
49
183
174
182
62
60
169
129
81
160
152
26
180
161
114
57
25
83
95
39
187
163
139
65
66
190
18
121
113
5
63
119
85
34
61
170
151
159
103
196
178
38
205
35
194
47
157
22
8
153
125
50
164
2
158
12
148
150
171
189
100
23
13
122
156
120
112
40
165
140
30
127
68
130
46
197
94
4
172
7
167
96
32
203
41
80
9
6
84
145
29
28
202
123
92
186
105
116
146
132
19
52
37
124
78
79
134
97
128
11
67
21
48
126
43
179
45
77
16
191
24
199
195
51
138
176
173
33
44
10
154

> <PUBCHEM_MMFF94_PARTIAL_CHARGES>
28
1 -0.43
11 0.28
13 -0.14
14 0.42
15 -0.29
16 0.14
19 -0.15
2 -0.68
20 -0.29
21 0.28
23 0.66
24 0.28
25 0.06
26 0.06
3 -0.68
30 0.66
38 0.15
4 -0.68
46 0.15
47 0.15
49 0.4
5 -0.57
54 0.4
6 -0.65
62 0.4
66 0.5
7 -0.57
9 0.14

> <PUBCHEM_EFFECTIVE_ROTOR_COUNT>
12

> <PUBCHEM_PHARMACOPHORE_FEATURES>
14
1 2 acceptor
1 2 donor
1 28 hydrophobe
1 29 hydrophobe
1 3 acceptor
1 3 donor
1 4 acceptor
1 4 donor
1 5 acceptor
1 6 acceptor
1 7 acceptor
3 6 7 30 anion
6 8 9 10 13 14 15 rings
6 9 11 13 16 19 20 rings

> <PUBCHEM_HEAVY_ATOM_COUNT>
30

> <PUBCHEM_ATOM_DEF_STEREO_COUNT>
7

> <PUBCHEM_ATOM_UDEF_STEREO_COUNT>
1

> <PUBCHEM_BOND_DEF_STEREO_COUNT>
0

> <PUBCHEM_BOND_UDEF_STEREO_COUNT>
0

> <PUBCHEM_ISOTOPIC_ATOM_COUNT>
0

> <PUBCHEM_COMPONENT_COUNT>
1

> <PUBCHEM_CACTVS_TAUTO_COUNT>
1

> <PUBCHEM_CONFORMER_ID>
0002068800000001

> <PUBCHEM_MMFF94_ENERGY>
55.52

> <PUBCHEM_FEATURE_SELFOVERLAP>
71.125

> <PUBCHEM_SHAPE_FINGERPRINT>
10076449 9 18259705614903320463
10794284 68 17842592649384603929
10906281 52 17913489043722593845
11135609 187 18117003384742072772
12553582 1 18270946999504289627
12788726 201 18409731725080658858
13631057 29 18408886213576047830
13690498 29 18409443687488365407
14251757 5 18195236716074645205
14251758 9 9439407939109967842
14363568 33 18270115850159418057
14767858 380 18334019414980195430
14840074 17 17346598577780858886
15064986 96 17916607435130209799
15721738 202 18114185254470830212
16994733 274 15864061058020406541
1813 80 17846785108679487174
20028762 73 16467540461445874175
20429585 67 18343585178942014770
21049683 271 18189906481614281827
21120745 212 18272377416650269497
21591331 117 18202571691144729955
23558518 356 16976167338063291487
23559900 14 18040988596952502949
3117164 225 10591755485556472742
329604 57 18260825986449047514
3737641 26 18265331888373833585
437795 51 18339361993387011752
437815 12 18272647961672851645
463206 1 18196653110563619510
5912855 24 18126573323058292738
59755656 215 18261387892429665842
6669772 16 17982162628875726996
7237137 82 18334293137023666893

> <PUBCHEM_SHAPE_MULTIPOLES>
576.3
15.01
3.98
1.89
13.58
2.13
-0.06
-10.05
-6.93
-1.37
1.92
-0.37
0.44
0.7

> <PUBCHEM_SHAPE_SELFOVERLAP>
1169.393

> <PUBCHEM_SHAPE_VOLUME>
331

> <PUBCHEM_COORDINATE_TYPE>
2
5
10

$$$$
