132760
  -OEChem-03292013323D

 58 60  0     1  0  0  0  0  0999 V2000
    1.5382    0.9868    1.2775 S   0  0  0  0  0  0  0  0  0  0  0  0
   -0.0400   -3.0987   -0.2839 O   0  0  0  0  0  0  0  0  0  0  0  0
   -2.4651   -0.7989   -0.9227 O   0  0  0  0  0  0  0  0  0  0  0  0
   -3.2045   -1.7037    1.0763 O   0  0  0  0  0  0  0  0  0  0  0  0
    4.7236   -1.8411    1.0187 O   0  0  0  0  0  0  0  0  0  0  0  0
   -4.8513   -0.9141   -1.1800 O   0  0  0  0  0  0  0  0  0  0  0  0
   -4.2570    1.2605   -1.6410 O   0  0  0  0  0  0  0  0  0  0  0  0
   -0.0810   -1.0923    0.9563 N   0  0  0  0  0  0  0  0  0  0  0  0
    2.7601   -1.4374   -0.1503 N   0  0  0  0  0  0  0  0  0  0  0  0
    1.1065   -0.7151    1.7019 C   0  0  1  0  0  0  0  0  0  0  0  0
    1.8368   -1.8247    0.9150 C   0  0  1  0  0  0  0  0  0  0  0  0
    0.4227   -2.2158    0.3998 C   0  0  0  0  0  0  0  0  0  0  0  0
   -1.2402   -0.3822    0.9702 C   0  0  0  0  0  0  0  0  0  0  0  0
   -0.0421    1.6576    1.9020 C   0  0  0  0  0  0  0  0  0  0  0  0
   -1.2786    0.8880    1.4413 C   0  0  0  0  0  0  0  0  0  0  0  0
   -2.4198   -1.0473    0.4104 C   0  0  0  0  0  0  0  0  0  0  0  0
    4.1476   -1.4797   -0.0042 C   0  0  0  0  0  0  0  0  0  0  0  0
   -2.4847    1.6874    1.5512 C   0  0  0  0  0  0  0  0  0  0  0  0
    4.8674   -1.0236   -1.2583 C   0  0  0  0  0  0  0  0  0  0  0  0
   -6.4626    0.7751   -0.7082 C   0  0  0  0  0  0  0  0  0  0  0  0
    5.7487    0.1771   -1.0364 C   0  0  0  0  0  0  0  0  0  0  0  0
   -2.4892    2.9303    2.0173 C   0  0  0  0  0  0  0  0  0  0  0  0
   -3.5701   -1.3788   -1.6358 C   0  0  0  0  0  0  0  0  0  0  0  0
   -5.0658    0.4341   -1.2365 C   0  0  0  0  0  0  0  0  0  0  0  0
   -6.6882    2.2896   -0.8105 C   0  0  0  0  0  0  0  0  0  0  0  0
   -7.5221    0.0533   -1.5563 C   0  0  0  0  0  0  0  0  0  0  0  0
   -6.5900    0.3114    0.7490 C   0  0  0  0  0  0  0  0  0  0  0  0
    5.2228    1.4506   -1.2027 C   0  0  0  0  0  0  0  0  0  0  0  0
    7.0744   -0.0068   -0.6695 C   0  0  0  0  0  0  0  0  0  0  0  0
    6.0394    2.5630   -0.9977 C   0  0  0  0  0  0  0  0  0  0  0  0
    7.8908    1.1053   -0.4644 C   0  0  0  0  0  0  0  0  0  0  0  0
    7.3732    2.3903   -0.6285 C   0  0  0  0  0  0  0  0  0  0  0  0
    1.0186   -0.9175    2.7759 H   0  0  0  0  0  0  0  0  0  0  0  0
    2.2595   -2.6054    1.5598 H   0  0  0  0  0  0  0  0  0  0  0  0
    2.3820   -1.1104   -1.0362 H   0  0  0  0  0  0  0  0  0  0  0  0
   -0.0196    2.6737    1.4985 H   0  0  0  0  0  0  0  0  0  0  0  0
    0.0008    1.7002    2.9959 H   0  0  0  0  0  0  0  0  0  0  0  0
   -3.4247    1.2556    1.2253 H   0  0  0  0  0  0  0  0  0  0  0  0
    5.4676   -1.8708   -1.6149 H   0  0  0  0  0  0  0  0  0  0  0  0
    4.1611   -0.8116   -2.0702 H   0  0  0  0  0  0  0  0  0  0  0  0
   -1.6452    3.4871    2.4004 H   0  0  0  0  0  0  0  0  0  0  0  0
   -3.4368    3.4627    2.0558 H   0  0  0  0  0  0  0  0  0  0  0  0
   -3.5385   -2.4689   -1.5309 H   0  0  0  0  0  0  0  0  0  0  0  0
   -3.4585   -1.1434   -2.6997 H   0  0  0  0  0  0  0  0  0  0  0  0
   -7.6830    2.5683   -0.4455 H   0  0  0  0  0  0  0  0  0  0  0  0
   -5.9494    2.8407   -0.2169 H   0  0  0  0  0  0  0  0  0  0  0  0
   -6.6019    2.6371   -1.8466 H   0  0  0  0  0  0  0  0  0  0  0  0
   -7.4327   -1.0361   -1.4773 H   0  0  0  0  0  0  0  0  0  0  0  0
   -7.4170    0.3103   -2.6167 H   0  0  0  0  0  0  0  0  0  0  0  0
   -8.5357    0.3258   -1.2415 H   0  0  0  0  0  0  0  0  0  0  0  0
   -5.8262    0.7807    1.3785 H   0  0  0  0  0  0  0  0  0  0  0  0
   -6.4676   -0.7733    0.8449 H   0  0  0  0  0  0  0  0  0  0  0  0
   -7.5706    0.5725    1.1624 H   0  0  0  0  0  0  0  0  0  0  0  0
    4.1847    1.5953   -1.4881 H   0  0  0  0  0  0  0  0  0  0  0  0
    7.4869   -1.0030   -0.5374 H   0  0  0  0  0  0  0  0  0  0  0  0
    5.6362    3.5634   -1.1248 H   0  0  0  0  0  0  0  0  0  0  0  0
    8.9294    0.9710   -0.1764 H   0  0  0  0  0  0  0  0  0  0  0  0
    8.0089    3.2562   -0.4685 H   0  0  0  0  0  0  0  0  0  0  0  0
  1 10  1  0  0  0  0
  1 14  1  0  0  0  0
  2 12  2  0  0  0  0
  3 16  1  0  0  0  0
  3 23  1  0  0  0  0
  4 16  2  0  0  0  0
  5 17  2  0  0  0  0
  6 23  1  0  0  0  0
  6 24  1  0  0  0  0
  7 24  2  0  0  0  0
  8 10  1  0  0  0  0
  8 12  1  0  0  0  0
  8 13  1  0  0  0  0
  9 11  1  0  0  0  0
  9 17  1  0  0  0  0
  9 35  1  0  0  0  0
 10 11  1  0  0  0  0
 10 33  1  0  0  0  0
 11 12  1  0  0  0  0
 11 34  1  0  0  0  0
 13 15  2  0  0  0  0
 13 16  1  0  0  0  0
 14 15  1  0  0  0  0
 14 36  1  0  0  0  0
 14 37  1  0  0  0  0
 15 18  1  0  0  0  0
 17 19  1  0  0  0  0
 18 22  2  0  0  0  0
 18 38  1  0  0  0  0
 19 21  1  0  0  0  0
 19 39  1  0  0  0  0
 19 40  1  0  0  0  0
 20 24  1  0  0  0  0
 20 25  1  0  0  0  0
 20 26  1  0  0  0  0
 20 27  1  0  0  0  0
 21 28  2  0  0  0  0
 21 29  1  0  0  0  0
 22 41  1  0  0  0  0
 22 42  1  0  0  0  0
 23 43  1  0  0  0  0
 23 44  1  0  0  0  0
 25 45  1  0  0  0  0
 25 46  1  0  0  0  0
 25 47  1  0  0  0  0
 26 48  1  0  0  0  0
 26 49  1  0  0  0  0
 26 50  1  0  0  0  0
 27 51  1  0  0  0  0
 27 52  1  0  0  0  0
 27 53  1  0  0  0  0
 28 30  1  0  0  0  0
 28 54  1  0  0  0  0
 29 31  2  0  0  0  0
 29 55  1  0  0  0  0
 30 32  2  0  0  0  0
 30 56  1  0  0  0  0
 31 32  1  0  0  0  0
 31 57  1  0  0  0  0
 32 58  1  0  0  0  0
M  END
> <PUBCHEM_COMPOUND_CID>
132760

> <PUBCHEM_CONFORMER_RMSD>
1

> <PUBCHEM_CONFORMER_DIVERSEORDER>
1
30
7
113
256
272
159
238
174
178
43
53
96
120
274
39
141
218
132
219
152
98
15
162
76
139
293
85
220
198
88
291
190
194
167
177
227
211
279
108
229
298
101
205
260
233
21
168
165
259
147
37
287
255
150
70
125
156
51
221
251
2
303
115
31
106
286
262
214
29
154
267
273
281
52
71
200
95
146
173
270
284
305
121
307
129
247
166
17
16
41
100
105
183
236
192
288
138
127
63
151
148
234
112
237
265
160
36
81
276
285
10
278
32
60
283
66
103
18
241
56
201
102
224
114
235
83
196
187
295
248
34
42
230
206
93
143
199
24
182
216
136
271
25
176
244
300
74
107
213
197
73
111
242
186
294
245
58
188
290
45
261
208
5
266
257
13
215
137
249
172
232
217
161
131
301
124
3
195
44
175
264
184
91
231
79
253
6
204
263
164
252
97
22
144
90
299
92
12
50
179
228
226
122
191
258
55
94
157
296
225
123
40
27
181
72
57
126
75
254
67
268
135
117
158
33
153
306
170
282
140
250
77
65
149
246
23
49
116
47
62
280
20
69
8
269
292
99
189
171
11
84
19
202
130
48
35
145
46
180
133
142
28
243
109
169
89
203
185
297
209
128
223
104
9
193
275
222
302
119
212
207
54
14
210
59
26
134
289
78
4
38
61
239
86
80
304
163
155
64
240
68
82
87
110
277
118

> <PUBCHEM_MMFF94_PARTIAL_CHARGES>
38
1 -0.45
10 0.44
11 0.28
12 0.58
13 0.12
14 0.37
15 -0.14
16 0.71
17 0.57
18 -0.15
19 0.2
2 -0.57
20 0.06
21 -0.14
22 -0.3
23 0.56
24 0.66
28 -0.15
29 -0.15
3 -0.43
30 -0.15
31 -0.15
32 -0.15
35 0.37
38 0.15
4 -0.57
41 0.15
42 0.15
5 -0.57
54 0.15
55 0.15
56 0.15
57 0.15
58 0.15
6 -0.43
7 -0.57
8 -0.39
9 -0.65

> <PUBCHEM_EFFECTIVE_ROTOR_COUNT>
11.6

> <PUBCHEM_PHARMACOPHORE_FEATURES>
10
1 2 acceptor
1 22 hydrophobe
1 4 acceptor
1 5 acceptor
1 7 acceptor
1 9 donor
4 20 25 26 27 hydrophobe
4 8 10 11 12 rings
6 1 8 10 13 14 15 rings
6 21 28 29 30 31 32 rings

> <PUBCHEM_HEAVY_ATOM_COUNT>
32

> <PUBCHEM_ATOM_DEF_STEREO_COUNT>
2

> <PUBCHEM_ATOM_UDEF_STEREO_COUNT>
0

> <PUBCHEM_BOND_DEF_STEREO_COUNT>
0

> <PUBCHEM_BOND_UDEF_STEREO_COUNT>
0

> <PUBCHEM_ISOTOPIC_ATOM_COUNT>
0

> <PUBCHEM_COMPONENT_COUNT>
1

> <PUBCHEM_CACTVS_TAUTO_COUNT>
2

> <PUBCHEM_CONFORMER_ID>
0002069800000001

> <PUBCHEM_MMFF94_ENERGY>
92.1347

> <PUBCHEM_FEATURE_SELFOVERLAP>
51.007

> <PUBCHEM_SHAPE_FINGERPRINT>
10076449 9 18202567311206671907
10319688 67 13840271398540535045
10483366 6 18413388756462693776
10673678 19 18260831466516113495
10692045 39 13407061588435702064
10906281 52 18201165351997609611
11135609 187 18409165524015783520
11200772 71 18272931596575409845
11387372 6 11312057655667011092
12895836 83 18040994047013163991
13673619 4 14117799111411905018
13782708 43 13470689239122485735
13911987 19 18343866632022493271
14202776 33 17845385358002020129
14289278 72 12612752381223357720
14767858 380 18273215283254361304
14930077 153 18412545388590544717
14931854 50 18271820051140340964
15064981 194 18119550940387703526
15082195 135 18202002106316039090
15183329 4 17989204845873405453
15276724 80 18261388884820845661
15352257 5 12391514191768426124
15510800 12 13542180649344617261
16992727 255 18342175587533693966
16994733 274 17385720254075820253
17492 54 18273216417547902442
20511986 3 18336824303955719986
20554085 129 15140956253344683425
20715895 44 18187649141735799204
21033648 29 16226056595828137122
21298829 104 18259705618718662436
21304303 64 17967813842870723053
23522609 53 17773898410223906393
2838139 119 17603577547937233222
392239 28 13695880211882234991
4093350 32 16298657314213259184
4098825 35 18186802508422233169
4149490 64 18040435477910976938
437815 12 15123503701414362763
4616759 239 14345799302232140053
474113 269 9655287108817610537
504579 68 18340495482886370550
513202 73 11743846841256405275
5265222 85 18335137601363436863
563151 74 16153704302208060232
56633871 153 8286209318823296368
86090 222 13686297968209477228

> <PUBCHEM_SHAPE_MULTIPOLES>
617.22
21.31
2.89
1.91
9.01
0.38
0.22
10.78
-13.74
1.21
0.47
-1.4
0.6
-1.63

> <PUBCHEM_SHAPE_SELFOVERLAP>
1289.303

> <PUBCHEM_SHAPE_VOLUME>
351.9

> <PUBCHEM_COORDINATE_TYPE>
2
5
10

$$$$
