132842
  -OEChem-03292013323D

 32 33  0     1  0  0  0  0  0999 V2000
   -1.6347    0.5515   -1.0720 O   0  0  0  0  0  0  0  0  0  0  0  0
   -2.1094   -2.1134    1.2800 O   0  0  0  0  0  0  0  0  0  0  0  0
   -4.0857   -0.9245   -0.1756 O   0  0  0  0  0  0  0  0  0  0  0  0
   -1.9256    3.2873   -0.5260 O   0  0  0  0  0  0  0  0  0  0  0  0
    0.4714   -2.8956   -0.5950 O   0  0  0  0  0  0  0  0  0  0  0  0
    3.9542    2.2190    0.4807 O   0  0  0  0  0  0  0  0  0  0  0  0
    0.2364   -0.6197   -0.3027 N   0  0  0  0  0  0  0  0  0  0  0  0
    2.3782   -1.7227   -0.2308 N   0  0  0  0  0  0  0  0  0  0  0  0
    4.3419   -0.5598    0.1371 N   0  0  0  0  0  0  0  0  0  0  0  0
   -1.9154   -0.7750    0.8714 C   0  0  2  0  0  0  0  0  0  0  0  0
   -3.2217   -0.0699    0.5732 C   0  0  1  0  0  0  0  0  0  0  0  0
   -1.1894   -0.6693   -0.4587 C   0  0  1  0  0  0  0  0  0  0  0  0
   -2.7722    1.0609   -0.3420 C   0  0  1  0  0  0  0  0  0  0  0  0
   -2.3314    2.3075    0.4135 C   0  0  0  0  0  0  0  0  0  0  0  0
    0.8739    0.5901   -0.0683 C   0  0  0  0  0  0  0  0  0  0  0  0
    1.0066   -1.8054   -0.3864 C   0  0  0  0  0  0  0  0  0  0  0  0
    2.1959    0.6930    0.0845 C   0  0  0  0  0  0  0  0  0  0  0  0
    2.9732   -0.5774   -0.0096 C   0  0  0  0  0  0  0  0  0  0  0  0
    2.7539    2.0234    0.3267 C   0  0  0  0  0  0  0  0  0  0  0  0
   -1.3818   -0.2433    1.6684 H   0  0  0  0  0  0  0  0  0  0  0  0
   -3.7641    0.2530    1.4655 H   0  0  0  0  0  0  0  0  0  0  0  0
   -1.4532   -1.4986   -1.1256 H   0  0  0  0  0  0  0  0  0  0  0  0
   -3.5329    1.3239   -1.0859 H   0  0  0  0  0  0  0  0  0  0  0  0
   -1.4996    2.1162    1.0958 H   0  0  0  0  0  0  0  0  0  0  0  0
   -3.1668    2.7135    0.9932 H   0  0  0  0  0  0  0  0  0  0  0  0
   -1.2313   -2.5213    1.3696 H   0  0  0  0  0  0  0  0  0  0  0  0
   -3.6646   -1.1357   -1.0254 H   0  0  0  0  0  0  0  0  0  0  0  0
    0.2525    1.4716   -0.0134 H   0  0  0  0  0  0  0  0  0  0  0  0
   -1.6592    4.0750   -0.0220 H   0  0  0  0  0  0  0  0  0  0  0  0
    2.0340    2.8583    0.3660 H   0  0  0  0  0  0  0  0  0  0  0  0
    4.8572    0.2966    0.3094 H   0  0  0  0  0  0  0  0  0  0  0  0
    4.8812   -1.4168    0.0749 H   0  0  0  0  0  0  0  0  0  0  0  0
  1 12  1  0  0  0  0
  1 13  1  0  0  0  0
  2 10  1  0  0  0  0
  2 26  1  0  0  0  0
  3 11  1  0  0  0  0
  3 27  1  0  0  0  0
  4 14  1  0  0  0  0
  4 29  1  0  0  0  0
  5 16  2  0  0  0  0
  6 19  2  0  0  0  0
  7 12  1  0  0  0  0
  7 15  1  0  0  0  0
  7 16  1  0  0  0  0
  8 16  1  0  0  0  0
  8 18  2  0  0  0  0
  9 18  1  0  0  0  0
  9 31  1  0  0  0  0
  9 32  1  0  0  0  0
 10 11  1  0  0  0  0
 10 12  1  0  0  0  0
 10 20  1  0  0  0  0
 11 13  1  0  0  0  0
 11 21  1  0  0  0  0
 12 22  1  0  0  0  0
 13 14  1  0  0  0  0
 13 23  1  0  0  0  0
 14 24  1  0  0  0  0
 14 25  1  0  0  0  0
 15 17  2  0  0  0  0
 15 28  1  0  0  0  0
 17 18  1  0  0  0  0
 17 19  1  0  0  0  0
 19 30  1  0  0  0  0
M  END
> <PUBCHEM_COMPOUND_CID>
132842

> <PUBCHEM_CONFORMER_RMSD>
0.6

> <PUBCHEM_CONFORMER_DIVERSEORDER>
1
13
25
22
24
12
23
7
16
29
19
27
14
18
28
3
5
15
17
20
8
9
11
10
21
26
4
2
6

> <PUBCHEM_MMFF94_PARTIAL_CHARGES>
26
1 -0.56
10 0.28
11 0.28
12 0.58
13 0.28
14 0.28
15 -0.04
16 0.84
17 0.03
18 0.49
19 0.5
2 -0.68
26 0.4
27 0.4
28 0.15
29 0.4
3 -0.68
30 0.06
31 0.4
32 0.4
4 -0.68
5 -0.57
6 -0.57
7 -0.47
8 -0.66
9 -0.85

> <PUBCHEM_EFFECTIVE_ROTOR_COUNT>
4

> <PUBCHEM_PHARMACOPHORE_FEATURES>
13
1 1 acceptor
1 2 acceptor
1 2 donor
1 3 acceptor
1 3 donor
1 4 acceptor
1 4 donor
1 5 acceptor
1 6 acceptor
1 8 donor
1 9 donor
5 1 10 11 12 13 rings
6 7 8 15 16 17 18 rings

> <PUBCHEM_HEAVY_ATOM_COUNT>
19

> <PUBCHEM_ATOM_DEF_STEREO_COUNT>
4

> <PUBCHEM_ATOM_UDEF_STEREO_COUNT>
0

> <PUBCHEM_BOND_DEF_STEREO_COUNT>
0

> <PUBCHEM_BOND_UDEF_STEREO_COUNT>
0

> <PUBCHEM_ISOTOPIC_ATOM_COUNT>
0

> <PUBCHEM_COMPONENT_COUNT>
1

> <PUBCHEM_CACTVS_TAUTO_COUNT>
3

> <PUBCHEM_CONFORMER_ID>
000206EA00000001

> <PUBCHEM_MMFF94_ENERGY>
55.152

> <PUBCHEM_FEATURE_SELFOVERLAP>
66.04

> <PUBCHEM_SHAPE_FINGERPRINT>
10366900 7 18334585650029697082
10608611 8 18410292467256956429
10967382 1 18267866266485618708
1100329 8 14952372851192576352
12403259 226 18413386553112127186
12403260 363 18339631278798305794
12633257 1 18263642853344887456
13140716 1 18410299128745782658
13294875 104 17249468596730314929
14026960 21 18338520858106377400
14223421 5 18410581668985100315
14648413 74 18267585693430694352
15219456 202 18408323302034544136
15375462 6 18411139172814566653
15442244 35 18194401078758052386
15775835 57 17988645262820812356
16945 1 18340485552125396911
17802600 8 18412822477887973192
18186145 218 18060427923644670612
19049666 15 18192158083543044787
200 152 18201991123894902255
20510252 161 18409166615059055945
21501502 16 18337113337188719759
21524375 3 18130505340006310054
22854114 111 18413390960022950840
23402539 116 18408879638450713591
23419403 2 14963020847939836499
23558518 356 18261116231917840025
23559900 14 18408036325294573568
2748010 2 18410858784707214204
350125 39 18411705369942904132
5104073 3 18410014338165070441
7832392 63 17910111309161922149
81228 2 17968675843086377185
8809292 202 18263369083649924442
9709674 26 18339647750061462367

> <PUBCHEM_SHAPE_MULTIPOLES>
340.85
6.68
2.99
0.85
2.27
0.95
0.07
1.57
0.81
-0.03
-0.06
-0.39
-0.12
0.82

> <PUBCHEM_SHAPE_SELFOVERLAP>
721.525

> <PUBCHEM_SHAPE_VOLUME>
189.7

> <PUBCHEM_COORDINATE_TYPE>
2
5
10

$$$$
