132818
  -OEChem-03292013323D

 50 52  0     1  0  0  0  0  0999 V2000
   -3.3968    3.4397    0.0514 Br  0  0  0  0  0  0  0  0  0  0  0  0
   -0.1585    0.1619    0.5996 O   0  0  0  0  0  0  0  0  0  0  0  0
    1.0593    1.3142    2.7981 O   0  0  0  0  0  0  0  0  0  0  0  0
    0.9740    1.6392   -1.5617 N   0  0  0  0  0  0  0  0  0  0  0  0
   -2.3413    0.7216   -0.0417 N   0  0  0  0  0  0  0  0  0  0  0  0
   -4.5626    0.8502    0.0551 N   0  0  0  0  0  0  0  0  0  0  0  0
   -2.0622   -1.6903   -0.0975 N   0  0  0  0  0  0  0  0  0  0  0  0
   -4.2183   -2.8316   -0.0275 N   0  0  0  0  0  0  0  0  0  0  0  0
   -6.2954   -1.6485    0.0819 N   0  0  0  0  0  0  0  0  0  0  0  0
    1.7376    0.5913   -0.8705 C   0  0  2  0  0  0  0  0  0  0  0  0
    1.2513    0.4377    0.5842 C   0  0  1  0  0  0  0  0  0  0  0  0
    3.2296    0.9008   -0.9699 C   0  0  0  0  0  0  0  0  0  0  0  0
   -0.9350    1.1417   -0.0979 C   0  0  2  0  0  0  0  0  0  0  0  0
   -0.4527    1.3119   -1.5410 C   0  0  0  0  0  0  0  0  0  0  0  0
    4.0759   -0.2252   -0.3761 C   0  0  0  0  0  0  0  0  0  0  0  0
    1.5798    1.6060    1.5156 C   0  0  0  0  0  0  0  0  0  0  0  0
    5.5711    0.0734   -0.5079 C   0  0  0  0  0  0  0  0  0  0  0  0
    6.4163   -1.0725    0.0527 C   0  0  0  0  0  0  0  0  0  0  0  0
   -2.7925   -0.5661   -0.0463 C   0  0  0  0  0  0  0  0  0  0  0  0
   -3.4391    1.5361    0.0205 C   0  0  0  0  0  0  0  0  0  0  0  0
    7.9224   -0.8345   -0.0763 C   0  0  0  0  0  0  0  0  0  0  0  0
   -4.1732   -0.4650    0.0138 C   0  0  0  0  0  0  0  0  0  0  0  0
    8.7670   -1.9590    0.5026 C   0  0  0  0  0  0  0  0  0  0  0  0
   -4.8912   -1.6567    0.0220 C   0  0  0  0  0  0  0  0  0  0  0  0
   -2.8656   -2.7762   -0.0834 C   0  0  0  0  0  0  0  0  0  0  0  0
    1.5475   -0.3552   -1.3964 H   0  0  0  0  0  0  0  0  0  0  0  0
    1.6940   -0.4663    1.0175 H   0  0  0  0  0  0  0  0  0  0  0  0
    3.4738    1.8549   -0.4879 H   0  0  0  0  0  0  0  0  0  0  0  0
    3.5037    1.0176   -2.0273 H   0  0  0  0  0  0  0  0  0  0  0  0
   -0.8734    2.0840    0.4551 H   0  0  0  0  0  0  0  0  0  0  0  0
   -1.0140    2.1107   -2.0379 H   0  0  0  0  0  0  0  0  0  0  0  0
   -0.6234    0.3940   -2.1182 H   0  0  0  0  0  0  0  0  0  0  0  0
    1.2885    1.7136   -2.5287 H   0  0  0  0  0  0  0  0  0  0  0  0
    3.8499   -0.3625    0.6864 H   0  0  0  0  0  0  0  0  0  0  0  0
    3.8429   -1.1688   -0.8842 H   0  0  0  0  0  0  0  0  0  0  0  0
    2.6600    1.7420    1.6173 H   0  0  0  0  0  0  0  0  0  0  0  0
    1.1428    2.5489    1.1760 H   0  0  0  0  0  0  0  0  0  0  0  0
    5.8115    1.0018    0.0241 H   0  0  0  0  0  0  0  0  0  0  0  0
    5.8245    0.2297   -1.5634 H   0  0  0  0  0  0  0  0  0  0  0  0
    6.1665   -1.2211    1.1106 H   0  0  0  0  0  0  0  0  0  0  0  0
    6.1568   -2.0031   -0.4672 H   0  0  0  0  0  0  0  0  0  0  0  0
    8.1862    0.1014    0.4305 H   0  0  0  0  0  0  0  0  0  0  0  0
    8.1801   -0.7062   -1.1343 H   0  0  0  0  0  0  0  0  0  0  0  0
    1.2822    2.0634    3.3766 H   0  0  0  0  0  0  0  0  0  0  0  0
    9.8317   -1.7359    0.3825 H   0  0  0  0  0  0  0  0  0  0  0  0
    8.5571   -2.9055   -0.0054 H   0  0  0  0  0  0  0  0  0  0  0  0
    8.5639   -2.0896    1.5701 H   0  0  0  0  0  0  0  0  0  0  0  0
   -2.3598   -3.7351   -0.1221 H   0  0  0  0  0  0  0  0  0  0  0  0
   -6.8000   -0.7732    0.1186 H   0  0  0  0  0  0  0  0  0  0  0  0
   -6.7945   -2.5277    0.0864 H   0  0  0  0  0  0  0  0  0  0  0  0
  1 20  1  0  0  0  0
  2 11  1  0  0  0  0
  2 13  1  0  0  0  0
  3 16  1  0  0  0  0
  3 44  1  0  0  0  0
  4 10  1  0  0  0  0
  4 14  1  0  0  0  0
  4 33  1  0  0  0  0
  5 13  1  0  0  0  0
  5 19  1  0  0  0  0
  5 20  1  0  0  0  0
  6 20  2  0  0  0  0
  6 22  1  0  0  0  0
  7 19  2  0  0  0  0
  7 25  1  0  0  0  0
  8 24  1  0  0  0  0
  8 25  2  0  0  0  0
  9 24  1  0  0  0  0
  9 49  1  0  0  0  0
  9 50  1  0  0  0  0
 10 11  1  0  0  0  0
 10 12  1  0  0  0  0
 10 26  1  0  0  0  0
 11 16  1  0  0  0  0
 11 27  1  0  0  0  0
 12 15  1  0  0  0  0
 12 28  1  0  0  0  0
 12 29  1  0  0  0  0
 13 14  1  0  0  0  0
 13 30  1  0  0  0  0
 14 31  1  0  0  0  0
 14 32  1  0  0  0  0
 15 17  1  0  0  0  0
 15 34  1  0  0  0  0
 15 35  1  0  0  0  0
 16 36  1  0  0  0  0
 16 37  1  0  0  0  0
 17 18  1  0  0  0  0
 17 38  1  0  0  0  0
 17 39  1  0  0  0  0
 18 21  1  0  0  0  0
 18 40  1  0  0  0  0
 18 41  1  0  0  0  0
 19 22  1  0  0  0  0
 21 23  1  0  0  0  0
 21 42  1  0  0  0  0
 21 43  1  0  0  0  0
 22 24  2  0  0  0  0
 23 45  1  0  0  0  0
 23 46  1  0  0  0  0
 23 47  1  0  0  0  0
 25 48  1  0  0  0  0
M  END
> <PUBCHEM_COMPOUND_CID>
132818

> <PUBCHEM_CONFORMER_RMSD>
1

> <PUBCHEM_CONFORMER_DIVERSEORDER>
1
218
406
249
470
57
300
158
44
549
539
265
373
156
398
9
175
591
582
473
626
624
589
236
484
384
31
232
94
254
123
187
662
459
325
571
104
329
663
458
74
182
495
41
54
641
119
258
672
532
5
407
112
646
515
203
106
36
499
97
494
565
432
599
477
239
181
32
510
157
253
413
129
63
342
437
552
613
46
354
172
478
4
305
144
563
431
105
503
535
311
223
80
20
147
317
124
7
149
183
636
50
56
99
500
578
307
576
155
128
295
55
268
53
37
145
108
403
266
489
326
21
196
8
607
273
486
107
330
497
152
622
65
577
73
22
288
308
51
438
47
485
165
233
263
11
71
261
234
299
23
40
287
328
154
638
242
62
575
12
267
534
25
410
34
212
14
17
3
42
120
542

> <PUBCHEM_MMFF94_PARTIAL_CHARGES>
24
1 -0.06
10 0.27
11 0.28
13 0.54
14 0.27
16 0.28
19 0.11
2 -0.56
20 0.24
22 0.23
24 0.41
25 0.47
3 -0.68
33 0.36
4 -0.9
44 0.4
48 0.15
49 0.4
5 0.05
50 0.4
6 -0.57
7 -0.57
8 -0.62
9 -0.9

> <PUBCHEM_EFFECTIVE_ROTOR_COUNT>
8.2

> <PUBCHEM_PHARMACOPHORE_FEATURES>
16
1 1 hydrophobe
1 2 acceptor
1 23 hydrophobe
1 3 acceptor
1 3 donor
1 4 cation
1 4 donor
1 9 cation
1 9 donor
3 5 6 20 cation
3 5 7 19 cation
3 7 8 25 cation
5 12 15 17 18 21 hydrophobe
5 5 6 19 20 22 rings
6 2 4 10 11 13 14 rings
6 7 8 19 22 24 25 rings

> <PUBCHEM_HEAVY_ATOM_COUNT>
25

> <PUBCHEM_ATOM_DEF_STEREO_COUNT>
0

> <PUBCHEM_ATOM_UDEF_STEREO_COUNT>
3

> <PUBCHEM_BOND_DEF_STEREO_COUNT>
0

> <PUBCHEM_BOND_UDEF_STEREO_COUNT>
0

> <PUBCHEM_ISOTOPIC_ATOM_COUNT>
0

> <PUBCHEM_COMPONENT_COUNT>
1

> <PUBCHEM_CACTVS_TAUTO_COUNT>
3

> <PUBCHEM_CONFORMER_ID>
000206D200000001

> <PUBCHEM_MMFF94_ENERGY>
36.4299

> <PUBCHEM_FEATURE_SELFOVERLAP>
81.806

> <PUBCHEM_SHAPE_FINGERPRINT>
10165383 225 18268713797537605169
10319926 262 18342727508427973528
10411042 1 18266461087306150351
10595046 47 18262808483587550596
106641 1 14692565541802855502
11315181 36 18334860506678141004
11524674 6 17632292368023687190
117089 54 17753342155290454915
11796584 16 18341051818320987398
12236239 1 17895197753045250589
12633257 1 16629691789339696143
12741549 16 16917068872002534177
13288520 33 18409730659780517364
13540713 5 15431696724860237708
13583140 156 17703502233705227596
14251751 18 18413109489668248630
14556957 393 15285650829126679990
15021287 119 17531259326720775276
15183329 4 17022619772097520698
15439362 3 17760363293606684253
16752209 62 18335132142601798357
17492 89 17973168614721860527
18393751 57 16117082069473821489
21267235 1 18187088394837051283
22224240 67 14476962285638109614
23081809 10 17822584845827539724
23402539 116 17385727976410921236
23559900 14 18268705181384426433
3004659 81 18040995172352267062
397830 11 18130212857671796968
5104073 3 18130234855576707744
559249 180 18334295357632736503
5718773 13 18129658750529303623
57527293 21 17487898037190648077
57527295 17 16986576561105345237
57527585 21 12109160782371821403
58260988 114 16589175821344300217
6009941 240 18129098931669941224
7495541 125 17988084507801816896

> <PUBCHEM_SHAPE_MULTIPOLES>
478.81
17.75
2.98
1.24
39.64
0.21
-0.54
12.92
-0.76
-4.76
-0.12
0.75
-0.79
-0.37

> <PUBCHEM_SHAPE_SELFOVERLAP>
981.171

> <PUBCHEM_SHAPE_VOLUME>
282.3

> <PUBCHEM_COORDINATE_TYPE>
2
5
10

$$$$
