132859
  -OEChem-03292013323D

 58 59  0     0  0  0  0  0  0999 V2000
   -7.3642   -2.3527    0.7428 S   0  0  0  0  0  0  0  0  0  0  0  0
    1.9507    2.0602    0.6111 O   0  0  0  0  0  0  0  0  0  0  0  0
   -6.6255   -0.9088    0.5566 O   0  0  0  0  0  0  0  0  0  0  0  0
    6.6662   -2.1243   -0.7703 O   0  0  0  0  0  0  0  0  0  0  0  0
   -4.0518   -0.2064   -0.3955 O   0  0  0  0  0  0  0  0  0  0  0  0
   -6.7965   -3.3076   -0.1872 O   0  0  0  0  0  0  0  0  0  0  0  0
   -8.7942   -2.1510    0.8594 O   0  0  0  0  0  0  0  0  0  0  0  0
    3.7321   -2.2566   -1.1015 N   0  0  0  0  0  0  0  0  0  0  0  0
   -0.5559    3.3851   -0.1356 N   0  0  0  0  0  0  0  0  0  0  0  0
    1.1900    0.2027   -0.5651 N   0  0  0  0  0  0  0  0  0  0  0  0
   -3.8944    2.1378   -0.4181 N   0  0  0  0  0  0  0  0  0  0  0  0
    6.2996   -0.8322    1.0932 N   0  0  0  0  0  0  0  0  0  0  0  0
   -0.2960    2.0402   -0.0918 C   0  0  0  0  0  0  0  0  0  0  0  0
    4.4645   -1.3257   -0.4120 C   0  0  0  0  0  0  0  0  0  0  0  0
    2.3514   -0.5806   -0.6357 C   0  0  0  0  0  0  0  0  0  0  0  0
   -2.5163    2.3540   -0.2964 C   0  0  0  0  0  0  0  0  0  0  0  0
    3.6302   -0.2722   -0.1096 C   0  0  0  0  0  0  0  0  0  0  0  0
    2.4431   -1.8133   -1.2436 C   0  0  0  0  0  0  0  0  0  0  0  0
   -1.4982    1.3748   -0.1899 C   0  0  0  0  0  0  0  0  0  0  0  0
   -1.9055    3.5881   -0.2602 C   0  0  0  0  0  0  0  0  0  0  0  0
    1.0098    1.4688    0.0361 C   0  0  0  0  0  0  0  0  0  0  0  0
    5.8513   -1.4621   -0.0859 C   0  0  0  0  0  0  0  0  0  0  0  0
    7.6627   -0.9044    1.5685 C   0  0  0  0  0  0  0  0  0  0  0  0
    4.2265   -3.5192   -1.6051 C   0  0  0  0  0  0  0  0  0  0  0  0
    0.4304    4.4408   -0.0664 C   0  0  0  0  0  0  0  0  0  0  0  0
    8.5290    0.2232    1.0204 C   0  0  0  0  0  0  0  0  0  0  0  0
   -6.0559    1.1194   -0.5983 C   0  0  0  0  0  0  0  0  0  0  0  0
   -4.5519    0.9116   -0.4583 C   0  0  0  0  0  0  0  0  0  0  0  0
   -6.8375   -0.1847   -0.6485 C   0  0  0  0  0  0  0  0  0  0  0  0
    8.0280    1.6015    1.4280 C   0  0  0  0  0  0  0  0  0  0  0  0
   -6.7219   -2.7060    2.3590 C   0  0  0  0  0  0  0  0  0  0  0  0
    3.9263    0.6188    0.4257 H   0  0  0  0  0  0  0  0  0  0  0  0
    1.7007   -2.4061   -1.7621 H   0  0  0  0  0  0  0  0  0  0  0  0
   -1.6199    0.3009   -0.1755 H   0  0  0  0  0  0  0  0  0  0  0  0
   -2.3193    4.5867   -0.3124 H   0  0  0  0  0  0  0  0  0  0  0  0
    0.3909   -0.2184   -1.0333 H   0  0  0  0  0  0  0  0  0  0  0  0
   -4.4525    2.9862   -0.4819 H   0  0  0  0  0  0  0  0  0  0  0  0
    8.0912   -1.8717    1.2859 H   0  0  0  0  0  0  0  0  0  0  0  0
    7.6265   -0.8614    2.6623 H   0  0  0  0  0  0  0  0  0  0  0  0
    3.3876   -4.1169   -1.9719 H   0  0  0  0  0  0  0  0  0  0  0  0
    4.7218   -4.0546   -0.7912 H   0  0  0  0  0  0  0  0  0  0  0  0
    4.9195   -3.3170   -2.4254 H   0  0  0  0  0  0  0  0  0  0  0  0
   -0.0485    5.3989   -0.2859 H   0  0  0  0  0  0  0  0  0  0  0  0
    1.2074    4.2486   -0.8106 H   0  0  0  0  0  0  0  0  0  0  0  0
    0.8452    4.4616    0.9442 H   0  0  0  0  0  0  0  0  0  0  0  0
    5.6372   -0.3117    1.6604 H   0  0  0  0  0  0  0  0  0  0  0  0
    8.5669    0.1681   -0.0741 H   0  0  0  0  0  0  0  0  0  0  0  0
    9.5544    0.0943    1.3857 H   0  0  0  0  0  0  0  0  0  0  0  0
   -6.2459    1.6990   -1.5085 H   0  0  0  0  0  0  0  0  0  0  0  0
   -6.3863    1.7094    0.2654 H   0  0  0  0  0  0  0  0  0  0  0  0
   -7.9062    0.0279   -0.7593 H   0  0  0  0  0  0  0  0  0  0  0  0
   -6.5101   -0.7949   -1.4976 H   0  0  0  0  0  0  0  0  0  0  0  0
    7.0371    1.8075    1.0113 H   0  0  0  0  0  0  0  0  0  0  0  0
    7.9701    1.6912    2.5173 H   0  0  0  0  0  0  0  0  0  0  0  0
    8.7114    2.3736    1.0604 H   0  0  0  0  0  0  0  0  0  0  0  0
   -7.1150   -3.6740    2.6766 H   0  0  0  0  0  0  0  0  0  0  0  0
   -5.6323   -2.7449    2.3058 H   0  0  0  0  0  0  0  0  0  0  0  0
   -7.0496   -1.9257    3.0484 H   0  0  0  0  0  0  0  0  0  0  0  0
  1  3  1  0  0  0  0
  1  6  2  0  0  0  0
  1  7  2  0  0  0  0
  1 31  1  0  0  0  0
  2 21  2  0  0  0  0
  3 29  1  0  0  0  0
  4 22  2  0  0  0  0
  5 28  2  0  0  0  0
  8 14  1  0  0  0  0
  8 18  1  0  0  0  0
  8 24  1  0  0  0  0
  9 13  1  0  0  0  0
  9 20  1  0  0  0  0
  9 25  1  0  0  0  0
 10 15  1  0  0  0  0
 10 21  1  0  0  0  0
 10 36  1  0  0  0  0
 11 16  1  0  0  0  0
 11 28  1  0  0  0  0
 11 37  1  0  0  0  0
 12 22  1  0  0  0  0
 12 23  1  0  0  0  0
 12 46  1  0  0  0  0
 13 19  2  0  0  0  0
 13 21  1  0  0  0  0
 14 17  2  0  0  0  0
 14 22  1  0  0  0  0
 15 17  1  0  0  0  0
 15 18  2  0  0  0  0
 16 19  1  0  0  0  0
 16 20  2  0  0  0  0
 17 32  1  0  0  0  0
 18 33  1  0  0  0  0
 19 34  1  0  0  0  0
 20 35  1  0  0  0  0
 23 26  1  0  0  0  0
 23 38  1  0  0  0  0
 23 39  1  0  0  0  0
 24 40  1  0  0  0  0
 24 41  1  0  0  0  0
 24 42  1  0  0  0  0
 25 43  1  0  0  0  0
 25 44  1  0  0  0  0
 25 45  1  0  0  0  0
 26 30  1  0  0  0  0
 26 47  1  0  0  0  0
 26 48  1  0  0  0  0
 27 28  1  0  0  0  0
 27 29  1  0  0  0  0
 27 49  1  0  0  0  0
 27 50  1  0  0  0  0
 29 51  1  0  0  0  0
 29 52  1  0  0  0  0
 30 53  1  0  0  0  0
 30 54  1  0  0  0  0
 30 55  1  0  0  0  0
 31 56  1  0  0  0  0
 31 57  1  0  0  0  0
 31 58  1  0  0  0  0
M  END
> <PUBCHEM_COMPOUND_CID>
132859

> <PUBCHEM_CONFORMER_RMSD>
1.2

> <PUBCHEM_CONFORMER_DIVERSEORDER>
1
58
41
42
9
40
45
56
68
15
52
57
74
25
17
20
60
67
71
53
54
22
18
32
44
23
38
8
35
24
46
28
6
14
70
11
29
51
59
66
43
26
65
62
69
64
73
37
16
34
36
39
31
61
4
27
21
50
55
30
33
2
12
72
7
63
5
10
49
47
19
3
48
13

> <PUBCHEM_MMFF94_PARTIAL_CHARGES>
36
1 1.38
10 -0.49
11 -0.49
12 -0.73
13 -0.24
14 -0.24
15 0.06
16 0.06
17 -0.15
18 -0.3
19 -0.15
2 -0.57
20 -0.3
21 0.71
22 0.71
23 0.3
24 0.26
25 0.26
27 0.06
28 0.57
29 0.28
3 -0.46
31 0.11
32 0.15
33 0.15
34 0.15
35 0.15
36 0.37
37 0.37
4 -0.57
46 0.37
5 -0.57
6 -0.65
7 -0.65
8 0.05
9 0.05

> <PUBCHEM_EFFECTIVE_ROTOR_COUNT>
13

> <PUBCHEM_PHARMACOPHORE_FEATURES>
13
1 10 donor
1 11 donor
1 12 donor
1 2 acceptor
1 30 hydrophobe
1 4 acceptor
1 5 acceptor
1 6 acceptor
1 7 acceptor
1 8 cation
1 9 cation
5 8 14 15 17 18 rings
5 9 13 16 19 20 rings

> <PUBCHEM_HEAVY_ATOM_COUNT>
31

> <PUBCHEM_ATOM_DEF_STEREO_COUNT>
0

> <PUBCHEM_ATOM_UDEF_STEREO_COUNT>
0

> <PUBCHEM_BOND_DEF_STEREO_COUNT>
0

> <PUBCHEM_BOND_UDEF_STEREO_COUNT>
0

> <PUBCHEM_ISOTOPIC_ATOM_COUNT>
0

> <PUBCHEM_COMPONENT_COUNT>
1

> <PUBCHEM_CACTVS_TAUTO_COUNT>
8

> <PUBCHEM_CONFORMER_ID>
000206FB00000001

> <PUBCHEM_MMFF94_ENERGY>
40.7072

> <PUBCHEM_FEATURE_SELFOVERLAP>
65.988

> <PUBCHEM_SHAPE_FINGERPRINT>
10391435 84 18410567358539250517
10835480 77 17983283847299963052
11297010 23 11169908394386569048
11374522 79 17313112925730223667
11409948 8 18342167926008441920
11621639 183 13038919841597294211
117089 54 18337402599664357215
11756154 5 18335137614126824595
12643181 29 18261669291162595245
12717326 120 17749953391680242906
1361 4 18263645060979682946
14168556 18 18413101775896500428
14461889 52 18341887443111231746
14647877 103 13038912114360168539
14664723 55 10159698014845645915
15064981 113 13984930832124005457
15183329 4 10809630273295215476
15510800 12 18335421288131760523
16990366 60 18260550073613052747
19303781 99 18114460184535261839
19611394 137 18409449202627111600
21223535 225 12902098718405985391
21987483 16 18334006199618975418
22149856 69 18059304162531509936
2260408 40 16844749546672680863
2747138 104 18343023255401426356
2835820 33 18334293189423046082
3383291 50 18334579057899061123
4073 2 18269836406807986568
44426701 97 18337382867725322224
44575985 266 18200021993877287352
4461854 278 17917712430687756446
5104073 3 17770212757401252074
5719381 82 17749392585886303091
59682541 35 18271799138632983336
636775 8 18338808818837555838
6636798 310 16916505991196376319
7970288 3 18411141312494497735
9962374 69 18199740505434717335

> <PUBCHEM_SHAPE_MULTIPOLES>
581.69
26.73
4.84
1.35
4.36
2.09
-0.48
-22.86
-11.74
3.74
0.36
-0.6
-1.13
4.87

> <PUBCHEM_SHAPE_SELFOVERLAP>
1191.704

> <PUBCHEM_SHAPE_VOLUME>
340.7

> <PUBCHEM_COORDINATE_TYPE>
2
5
10

$$$$
