132884
  -OEChem-03292013323D

 32 33  0     1  0  0  0  0  0999 V2000
    1.4511    2.3843   -1.2742 F   0  0  0  0  0  0  0  0  0  0  0  0
    1.4321   -0.1536    1.0581 O   0  0  0  0  0  0  0  0  0  0  0  0
    3.3006    0.0119   -1.9865 O   0  0  0  0  0  0  0  0  0  0  0  0
    3.2788   -2.1468    1.8447 O   0  0  0  0  0  0  0  0  0  0  0  0
   -1.4861    2.2081    1.4963 O   0  0  0  0  0  0  0  0  0  0  0  0
   -0.6747    0.4522    0.2443 N   0  0  0  0  0  0  0  0  0  0  0  0
   -3.0038    0.7292    0.6887 N   0  0  0  0  0  0  0  0  0  0  0  0
   -4.5809   -0.7556   -0.1160 N   0  0  0  0  0  0  0  0  0  0  0  0
    2.7359    0.4867   -0.7808 C   0  0  1  0  0  0  0  0  0  0  0  0
    0.6948    0.8642    0.3623 C   0  0  2  0  0  0  0  0  0  0  0  0
    1.3555    1.0618   -0.9901 C   0  0  1  0  0  0  0  0  0  0  0  0
    2.4474   -0.6537    0.1755 C   0  0  1  0  0  0  0  0  0  0  0  0
    3.6588   -1.0891    0.9794 C   0  0  0  0  0  0  0  0  0  0  0  0
   -0.9428   -0.6873   -0.4777 C   0  0  0  0  0  0  0  0  0  0  0  0
   -1.7088    1.1859    0.8452 C   0  0  0  0  0  0  0  0  0  0  0  0
   -2.1825   -1.1555   -0.6476 C   0  0  0  0  0  0  0  0  0  0  0  0
   -3.2683   -0.3542    0.0029 C   0  0  0  0  0  0  0  0  0  0  0  0
   -2.5071   -2.3884   -1.4244 C   0  0  0  0  0  0  0  0  0  0  0  0
    3.3998    1.2440   -0.3479 H   0  0  0  0  0  0  0  0  0  0  0  0
    0.7729    1.7799    0.9575 H   0  0  0  0  0  0  0  0  0  0  0  0
    0.8479    0.5981   -1.8408 H   0  0  0  0  0  0  0  0  0  0  0  0
    2.0424   -1.5286   -0.3478 H   0  0  0  0  0  0  0  0  0  0  0  0
    4.0303   -0.2687    1.6023 H   0  0  0  0  0  0  0  0  0  0  0  0
    4.4633   -1.4415    0.3270 H   0  0  0  0  0  0  0  0  0  0  0  0
    4.1606   -0.3875   -1.7724 H   0  0  0  0  0  0  0  0  0  0  0  0
   -0.1062   -1.2197   -0.9128 H   0  0  0  0  0  0  0  0  0  0  0  0
    4.0705   -2.4043    2.3470 H   0  0  0  0  0  0  0  0  0  0  0  0
   -3.1677   -2.1511   -2.2645 H   0  0  0  0  0  0  0  0  0  0  0  0
   -3.0020   -3.1267   -0.7853 H   0  0  0  0  0  0  0  0  0  0  0  0
   -1.6076   -2.8589   -1.8356 H   0  0  0  0  0  0  0  0  0  0  0  0
   -4.8549   -1.5841   -0.6324 H   0  0  0  0  0  0  0  0  0  0  0  0
   -5.3253   -0.2216    0.3198 H   0  0  0  0  0  0  0  0  0  0  0  0
  1 11  1  0  0  0  0
  2 10  1  0  0  0  0
  2 12  1  0  0  0  0
  3  9  1  0  0  0  0
  3 25  1  0  0  0  0
  4 13  1  0  0  0  0
  4 27  1  0  0  0  0
  5 15  2  0  0  0  0
  6 10  1  0  0  0  0
  6 14  1  0  0  0  0
  6 15  1  0  0  0  0
  7 15  1  0  0  0  0
  7 17  2  0  0  0  0
  8 17  1  0  0  0  0
  8 31  1  0  0  0  0
  8 32  1  0  0  0  0
  9 11  1  0  0  0  0
  9 12  1  0  0  0  0
  9 19  1  0  0  0  0
 10 11  1  0  0  0  0
 10 20  1  0  0  0  0
 11 21  1  0  0  0  0
 12 13  1  0  0  0  0
 12 22  1  0  0  0  0
 13 23  1  0  0  0  0
 13 24  1  0  0  0  0
 14 16  2  0  0  0  0
 14 26  1  0  0  0  0
 16 17  1  0  0  0  0
 16 18  1  0  0  0  0
 18 28  1  0  0  0  0
 18 29  1  0  0  0  0
 18 30  1  0  0  0  0
M  END
> <PUBCHEM_COMPOUND_CID>
132884

> <PUBCHEM_CONFORMER_RMSD>
0.6

> <PUBCHEM_CONFORMER_DIVERSEORDER>
1
10
8
12
6
2
9
11
7
5
4
3

> <PUBCHEM_MMFF94_PARTIAL_CHARGES>
23
1 -0.34
10 0.58
11 0.34
12 0.28
13 0.28
14 -0.04
15 0.84
16 -0.12
17 0.49
18 0.14
2 -0.56
25 0.4
26 0.15
27 0.4
3 -0.68
31 0.4
32 0.4
4 -0.68
5 -0.57
6 -0.47
7 -0.66
8 -0.85
9 0.28

> <PUBCHEM_EFFECTIVE_ROTOR_COUNT>
3

> <PUBCHEM_PHARMACOPHORE_FEATURES>
10
1 2 acceptor
1 3 acceptor
1 3 donor
1 4 acceptor
1 4 donor
1 5 acceptor
1 7 donor
1 8 donor
5 2 9 10 11 12 rings
6 6 7 14 15 16 17 rings

> <PUBCHEM_HEAVY_ATOM_COUNT>
18

> <PUBCHEM_ATOM_DEF_STEREO_COUNT>
4

> <PUBCHEM_ATOM_UDEF_STEREO_COUNT>
0

> <PUBCHEM_BOND_DEF_STEREO_COUNT>
0

> <PUBCHEM_BOND_UDEF_STEREO_COUNT>
0

> <PUBCHEM_ISOTOPIC_ATOM_COUNT>
0

> <PUBCHEM_COMPONENT_COUNT>
1

> <PUBCHEM_CACTVS_TAUTO_COUNT>
3

> <PUBCHEM_CONFORMER_ID>
0002071400000001

> <PUBCHEM_MMFF94_ENERGY>
47.5891

> <PUBCHEM_FEATURE_SELFOVERLAP>
50.8

> <PUBCHEM_SHAPE_FINGERPRINT>
11578080 2 18119779535258327128
12236239 1 18408325483904304234
12553582 1 18130790104943858799
12633257 1 17060323145983058554
13083527 12 15693172942197012951
13294875 104 15401638086763686056
13538477 17 18341896333044395551
13581323 91 18060417997489933465
14115302 16 18343304807624199549
15219456 202 15841270359245518416
15375462 189 18268151044687760571
15848700 24 17418092161346137421
16752209 62 18202289065665338685
16945 1 18059857220816396065
1813 80 17897165715803647678
19049666 15 16414365437810591922
19422 9 18186805746817128883
19765921 60 17688317097720921596
19784866 240 18114176385247774234
20361792 2 17968085383535109130
20510252 161 17489595523950576169
20600515 1 17774993601215036465
20645476 183 18262525904550790159
20645477 70 16950281797777296546
22112679 90 18336550408947635200
2255824 54 18188214328871406988
22959321 94 18273490182699549147
23114952 82 15285651962670711534
23184049 29 17988072426047789579
232386 152 18272923934242795522
23402539 116 17489292080637996357
23419403 2 17336970209996002269
23557571 272 17275107227662058649
23559900 14 17632585916232165220
23598291 2 18189912919559138480
2748010 2 17629753724476028477
474 4 17899142882143866396
5902787 121 17916296315645189155
6992083 37 18193279593887900424
7364860 26 17773600618487595992
77492 1 18335710416017538440
81228 2 17489603246386105361

> <PUBCHEM_SHAPE_MULTIPOLES>
324.74
6.77
2.11
1.53
1.08
0.01
-0.09
2.89
0.51
0.65
0.05
-1.51
0.14
-2.03

> <PUBCHEM_SHAPE_SELFOVERLAP>
684.226

> <PUBCHEM_SHAPE_VOLUME>
184.2

> <PUBCHEM_COORDINATE_TYPE>
2
5
10

$$$$
