132821
  -OEChem-03292013323D

 34 36  0     1  0  0  0  0  0999 V2000
   -4.4027   -0.5440   -1.0353 O   0  0  0  0  0  0  0  0  0  0  0  0
   -4.5216   -2.2057    1.2125 O   0  0  0  0  0  0  0  0  0  0  0  0
    0.9386    1.2973    0.2777 N   0  0  0  0  0  0  0  0  0  0  0  0
    3.1059    1.3346    0.8016 N   0  0  0  0  0  0  0  0  0  0  0  0
    0.7693   -0.9485   -0.6326 N   0  0  0  0  0  0  0  0  0  0  0  0
    2.9227   -2.0955   -0.5701 N   0  0  0  0  0  0  0  0  0  0  0  0
    4.9017   -1.0665    0.2966 N   0  0  0  0  0  0  0  0  0  0  0  0
   -2.7104    0.8343   -0.0403 C   0  0  2  0  0  0  0  0  0  0  0  0
   -1.4683    0.8780    0.8661 C   0  0  0  0  0  0  0  0  0  0  0  0
   -0.4423    1.7603    0.1326 C   0  0  2  0  0  0  0  0  0  0  0  0
   -3.3569   -0.5432   -0.0651 C   0  0  1  0  0  0  0  0  0  0  0  0
   -2.1675    1.2468   -1.3740 C   0  0  0  0  0  0  0  0  0  0  0  0
   -0.9355    1.7560   -1.2815 C   0  0  0  0  0  0  0  0  0  0  0  0
   -3.9589   -0.9003    1.2877 C   0  0  0  0  0  0  0  0  0  0  0  0
    1.4357    0.0756   -0.0787 C   0  0  0  0  0  0  0  0  0  0  0  0
    1.9802    2.0176    0.8009 C   0  0  0  0  0  0  0  0  0  0  0  0
    2.7801    0.1189    0.2546 C   0  0  0  0  0  0  0  0  0  0  0  0
    3.5309   -1.0220   -0.0105 C   0  0  0  0  0  0  0  0  0  0  0  0
    1.5992   -1.9936   -0.8423 C   0  0  0  0  0  0  0  0  0  0  0  0
   -3.4424    1.5921    0.2689 H   0  0  0  0  0  0  0  0  0  0  0  0
   -0.4792    2.7864    0.5197 H   0  0  0  0  0  0  0  0  0  0  0  0
   -1.7173    1.3104    1.8430 H   0  0  0  0  0  0  0  0  0  0  0  0
   -1.0834   -0.1281    1.0697 H   0  0  0  0  0  0  0  0  0  0  0  0
   -2.6442   -1.3155   -0.3782 H   0  0  0  0  0  0  0  0  0  0  0  0
   -2.7222    1.1915   -2.3002 H   0  0  0  0  0  0  0  0  0  0  0  0
   -0.3795    2.1509   -2.1202 H   0  0  0  0  0  0  0  0  0  0  0  0
   -3.2164   -0.8958    2.0907 H   0  0  0  0  0  0  0  0  0  0  0  0
   -4.7695   -0.2151    1.5558 H   0  0  0  0  0  0  0  0  0  0  0  0
    1.8609    3.0291    1.1645 H   0  0  0  0  0  0  0  0  0  0  0  0
   -5.0528    0.1320   -0.7778 H   0  0  0  0  0  0  0  0  0  0  0  0
   -3.8000   -2.8241    1.0063 H   0  0  0  0  0  0  0  0  0  0  0  0
    1.1450   -2.8714   -1.2894 H   0  0  0  0  0  0  0  0  0  0  0  0
    5.4259   -1.9070    0.0944 H   0  0  0  0  0  0  0  0  0  0  0  0
    5.3580   -0.2667    0.7140 H   0  0  0  0  0  0  0  0  0  0  0  0
  1 11  1  0  0  0  0
  1 30  1  0  0  0  0
  2 14  1  0  0  0  0
  2 31  1  0  0  0  0
  3 10  1  0  0  0  0
  3 15  1  0  0  0  0
  3 16  1  0  0  0  0
  4 16  2  0  0  0  0
  4 17  1  0  0  0  0
  5 15  2  0  0  0  0
  5 19  1  0  0  0  0
  6 18  1  0  0  0  0
  6 19  2  0  0  0  0
  7 18  1  0  0  0  0
  7 33  1  0  0  0  0
  7 34  1  0  0  0  0
  8  9  1  0  0  0  0
  8 11  1  0  0  0  0
  8 12  1  0  0  0  0
  8 20  1  0  0  0  0
  9 10  1  0  0  0  0
  9 22  1  0  0  0  0
  9 23  1  0  0  0  0
 10 13  1  0  0  0  0
 10 21  1  0  0  0  0
 11 14  1  0  0  0  0
 11 24  1  0  0  0  0
 12 13  2  0  0  0  0
 12 25  1  0  0  0  0
 13 26  1  0  0  0  0
 14 27  1  0  0  0  0
 14 28  1  0  0  0  0
 15 17  1  0  0  0  0
 16 29  1  0  0  0  0
 17 18  2  0  0  0  0
 19 32  1  0  0  0  0
M  END
> <PUBCHEM_COMPOUND_CID>
132821

> <PUBCHEM_CONFORMER_RMSD>
0.6

> <PUBCHEM_CONFORMER_DIVERSEORDER>
35
109
66
21
91
130
69
50
61
20
54
24
62
17
106
10
83
108
137
166
120
48
1
134
107
41
38
110
167
135
33
142
99
93
26
15
27
28
114
42
34
119
162
37
88
9
32
72
73
127
146
84
94
103
65
152
25
125
118
63
85
5
30
104
51
123
95
52
141
92
112
80
18
144
19
98
96
60
143
153
138
75
113
3
12
101
45
155
11
145
100
68
2
78
22
67
58
49
36
147
136
77
163
74
148
59
157
29
57
4
82
55
133
105
43
90
16
140
76
86
129
56
40
150
14
159
44
46
6
122
64
111
121
23
151
53
102
117
79
31
8
13
128
158
156
126
165
160
87
7
124
115
116
97
71
161
39
132
131
164
154
81
70
47
89
149
139

> <PUBCHEM_MMFF94_PARTIAL_CHARGES>
26
1 -0.68
10 0.39
11 0.28
12 -0.29
13 -0.29
14 0.28
15 0.11
16 0.04
17 0.23
18 0.41
19 0.47
2 -0.68
25 0.15
26 0.15
29 0.15
3 0.05
30 0.4
31 0.4
32 0.15
33 0.4
34 0.4
4 -0.57
5 -0.57
6 -0.62
7 -0.9
8 0.14

> <PUBCHEM_EFFECTIVE_ROTOR_COUNT>
3.6

> <PUBCHEM_PHARMACOPHORE_FEATURES>
12
1 1 acceptor
1 1 donor
1 2 acceptor
1 2 donor
1 7 cation
1 7 donor
3 3 4 16 cation
3 3 5 15 cation
3 5 6 19 cation
5 3 4 15 16 17 rings
5 8 9 10 12 13 rings
6 5 6 15 17 18 19 rings

> <PUBCHEM_HEAVY_ATOM_COUNT>
19

> <PUBCHEM_ATOM_DEF_STEREO_COUNT>
0

> <PUBCHEM_ATOM_UDEF_STEREO_COUNT>
3

> <PUBCHEM_BOND_DEF_STEREO_COUNT>
0

> <PUBCHEM_BOND_UDEF_STEREO_COUNT>
0

> <PUBCHEM_ISOTOPIC_ATOM_COUNT>
0

> <PUBCHEM_COMPONENT_COUNT>
1

> <PUBCHEM_CACTVS_TAUTO_COUNT>
3

> <PUBCHEM_CONFORMER_ID>
000206D500000023

> <PUBCHEM_MMFF94_ENERGY>
40.1448

> <PUBCHEM_FEATURE_SELFOVERLAP>
61.509

> <PUBCHEM_SHAPE_FINGERPRINT>
11543360 7 17240494580587808988
11578080 2 14564187719632331804
11582403 64 16316314430983503141
117890 22 18411144653578140071
12363563 72 17749679583705250113
12506688 2 18342739606796847569
12596599 1 17417818378466164703
12596602 18 16056586699348293123
12633257 1 18059862778752445167
13296908 3 18259704510442688321
13544592 145 18261667083206708613
13544653 18 18412263973763721389
14252887 29 18263085564585500217
14341114 328 16845021220428656891
14386348 63 18333168371383913407
14790565 3 17618505827635247184
15375462 189 17632300115964762393
16945 1 18058435539940306740
17357779 13 18334287678457921775
1813 80 17531259395814466557
18186145 218 12180715753887564486
19141452 34 18408892837122409283
19862831 5 14923951128127822893
200 152 17917134031989509125
20028762 73 17774431788996016871
20261772 1 18130785702286005758
20281475 54 18261966227420411905
20645477 70 18341035394191896453
221490 88 18411984620395320990
23402539 116 17168427056348297668
23557571 272 18041549265809331061
23559900 14 18113610166940025164
26918003 58 18341611486618701385
2871803 45 18261666013279647879
3286 77 18342174474952735952
458136 41 18126568061845148328
4921388 177 17530972341453464881
5104073 3 18341609287542854912
8809292 202 18335702680744352611
9709674 26 18408878538812446341

> <PUBCHEM_SHAPE_MULTIPOLES>
354.37
8.28
2.35
1.18
1.93
0.29
-0.08
4.96
1.52
-0.24
0.02
0.9
-0.06
1.57

> <PUBCHEM_SHAPE_SELFOVERLAP>
769.55

> <PUBCHEM_SHAPE_VOLUME>
191.4

> <PUBCHEM_COORDINATE_TYPE>
2
5
10

$$$$
