132848
  -OEChem-03292013323D

 56 58  0     1  0  0  0  0  0999 V2000
   -7.2668   -0.8668    0.3428 Cl  0  0  0  0  0  0  0  0  0  0  0  0
    6.2671    1.5296   -0.0489 S   0  0  0  0  0  0  0  0  0  0  0  0
   -0.0530    2.0485    1.4217 O   0  0  0  0  0  0  0  0  0  0  0  0
   -2.7588    2.3393    1.1266 O   0  0  0  0  0  0  0  0  0  0  0  0
   -4.0774    1.0706   -0.9457 O   0  0  0  0  0  0  0  0  0  0  0  0
    4.8804   -0.2331    1.9746 O   0  0  0  0  0  0  0  0  0  0  0  0
    0.1416   -4.5815    0.4442 O   0  0  0  0  0  0  0  0  0  0  0  0
   -4.3527   -0.7997    0.4266 O   0  0  0  0  0  0  0  0  0  0  0  0
    0.2531   -2.2581    0.5210 N   0  0  0  0  0  0  0  0  0  0  0  0
    1.2694   -2.0774   -0.4956 C   0  0  1  0  0  0  0  0  0  0  0  0
    0.6802   -2.1558   -1.9222 C   0  0  0  0  0  0  0  0  0  0  0  0
    0.1307   -0.8691   -2.5521 C   0  0  0  0  0  0  0  0  0  0  0  0
    2.1050   -0.8452   -0.1458 C   0  0  0  0  0  0  0  0  0  0  0  0
   -0.6335    0.0012   -1.5899 C   0  0  0  0  0  0  0  0  0  0  0  0
    0.0451    0.6542   -0.5400 C   0  0  0  0  0  0  0  0  0  0  0  0
    1.5178    0.4803   -0.3962 C   0  0  0  0  0  0  0  0  0  0  0  0
   -0.6788    1.4362    0.3731 C   0  0  0  0  0  0  0  0  0  0  0  0
   -2.0205    0.1530   -1.7142 C   0  0  0  0  0  0  0  0  0  0  0  0
    3.2923   -1.0518    0.4547 C   0  0  0  0  0  0  0  0  0  0  0  0
    2.2269    1.6040   -0.6210 C   0  0  0  0  0  0  0  0  0  0  0  0
   -2.0594    1.5792    0.2360 C   0  0  0  0  0  0  0  0  0  0  0  0
   -2.7281    0.9406   -0.8061 C   0  0  0  0  0  0  0  0  0  0  0  0
    4.2726   -0.0423    0.9239 C   0  0  0  0  0  0  0  0  0  0  0  0
   -0.2204   -3.5000    0.9001 C   0  0  0  0  0  0  0  0  0  0  0  0
    3.6583    1.7730   -0.6662 C   0  0  0  0  0  0  0  0  0  0  0  0
    4.5837    1.1024    0.0303 C   0  0  0  0  0  0  0  0  0  0  0  0
   -1.2521   -3.4035    1.9919 C   0  0  0  0  0  0  0  0  0  0  0  0
    0.0408    1.3101    2.6362 C   0  0  0  0  0  0  0  0  0  0  0  0
   -2.9182    3.7206    0.8126 C   0  0  0  0  0  0  0  0  0  0  0  0
   -4.8278    0.0999   -0.2529 C   0  0  0  0  0  0  0  0  0  0  0  0
    6.7752    0.4854   -1.4298 C   0  0  0  0  0  0  0  0  0  0  0  0
   -6.2926    0.3565   -0.4897 C   0  0  0  0  0  0  0  0  0  0  0  0
    1.9122   -2.9663   -0.4172 H   0  0  0  0  0  0  0  0  0  0  0  0
    1.4589   -2.5343   -2.5983 H   0  0  0  0  0  0  0  0  0  0  0  0
   -0.1163   -2.9120   -1.9378 H   0  0  0  0  0  0  0  0  0  0  0  0
    0.9528   -0.2837   -2.9848 H   0  0  0  0  0  0  0  0  0  0  0  0
   -0.5019   -1.1382   -3.4077 H   0  0  0  0  0  0  0  0  0  0  0  0
   -0.1344   -1.4394    0.9804 H   0  0  0  0  0  0  0  0  0  0  0  0
   -2.5537   -0.3485   -2.5186 H   0  0  0  0  0  0  0  0  0  0  0  0
    3.5954   -2.0698    0.6952 H   0  0  0  0  0  0  0  0  0  0  0  0
    1.7016    2.5301   -0.8602 H   0  0  0  0  0  0  0  0  0  0  0  0
    3.9708    2.6061   -1.2956 H   0  0  0  0  0  0  0  0  0  0  0  0
   -1.7118   -4.3826    2.1527 H   0  0  0  0  0  0  0  0  0  0  0  0
   -0.7746   -3.0737    2.9186 H   0  0  0  0  0  0  0  0  0  0  0  0
   -2.0332   -2.6912    1.7105 H   0  0  0  0  0  0  0  0  0  0  0  0
    0.5278    1.9426    3.3835 H   0  0  0  0  0  0  0  0  0  0  0  0
   -0.9539    1.0399    3.0046 H   0  0  0  0  0  0  0  0  0  0  0  0
    0.6450    0.4085    2.4989 H   0  0  0  0  0  0  0  0  0  0  0  0
   -3.4890    4.1911    1.6178 H   0  0  0  0  0  0  0  0  0  0  0  0
   -1.9442    4.2146    0.7398 H   0  0  0  0  0  0  0  0  0  0  0  0
   -3.4711    3.8414   -0.1243 H   0  0  0  0  0  0  0  0  0  0  0  0
    7.8424    0.6297   -1.6180 H   0  0  0  0  0  0  0  0  0  0  0  0
    6.6038   -0.5698   -1.1988 H   0  0  0  0  0  0  0  0  0  0  0  0
    6.2247    0.7497   -2.3370 H   0  0  0  0  0  0  0  0  0  0  0  0
   -6.5647    1.3374   -0.0931 H   0  0  0  0  0  0  0  0  0  0  0  0
   -6.5111    0.2951   -1.5584 H   0  0  0  0  0  0  0  0  0  0  0  0
  1 32  1  0  0  0  0
  2 26  1  0  0  0  0
  2 31  1  0  0  0  0
  3 17  1  0  0  0  0
  3 28  1  0  0  0  0
  4 21  1  0  0  0  0
  4 29  1  0  0  0  0
  5 22  1  0  0  0  0
  5 30  1  0  0  0  0
  6 23  2  0  0  0  0
  7 24  2  0  0  0  0
  8 30  2  0  0  0  0
  9 10  1  0  0  0  0
  9 24  1  0  0  0  0
  9 38  1  0  0  0  0
 10 11  1  0  0  0  0
 10 13  1  0  0  0  0
 10 33  1  0  0  0  0
 11 12  1  0  0  0  0
 11 34  1  0  0  0  0
 11 35  1  0  0  0  0
 12 14  1  0  0  0  0
 12 36  1  0  0  0  0
 12 37  1  0  0  0  0
 13 16  1  0  0  0  0
 13 19  2  0  0  0  0
 14 15  1  0  0  0  0
 14 18  2  0  0  0  0
 15 16  1  0  0  0  0
 15 17  2  0  0  0  0
 16 20  2  0  0  0  0
 17 21  1  0  0  0  0
 18 22  1  0  0  0  0
 18 39  1  0  0  0  0
 19 23  1  0  0  0  0
 19 40  1  0  0  0  0
 20 25  1  0  0  0  0
 20 41  1  0  0  0  0
 21 22  2  0  0  0  0
 23 26  1  0  0  0  0
 24 27  1  0  0  0  0
 25 26  2  0  0  0  0
 25 42  1  0  0  0  0
 27 43  1  0  0  0  0
 27 44  1  0  0  0  0
 27 45  1  0  0  0  0
 28 46  1  0  0  0  0
 28 47  1  0  0  0  0
 28 48  1  0  0  0  0
 29 49  1  0  0  0  0
 29 50  1  0  0  0  0
 29 51  1  0  0  0  0
 30 32  1  0  0  0  0
 31 52  1  0  0  0  0
 31 53  1  0  0  0  0
 31 54  1  0  0  0  0
 32 55  1  0  0  0  0
 32 56  1  0  0  0  0
M  END
> <PUBCHEM_COMPOUND_CID>
132848

> <PUBCHEM_CONFORMER_RMSD>
1

> <PUBCHEM_CONFORMER_DIVERSEORDER>
1
17
20
21
6
11
3
28
18
13
14
19
9
27
8
24
4
16
22
5
26
15
7
12
23
2
10
25

> <PUBCHEM_MMFF94_PARTIAL_CHARGES>
36
1 -0.29
10 0.44
12 0.14
13 -0.14
14 -0.14
15 0.03
16 -0.03
17 0.08
18 -0.15
19 -0.14
2 -0.33
20 -0.15
21 0.08
22 0.08
23 0.54
24 0.57
25 -0.15
26 0.12
27 0.06
28 0.28
29 0.28
3 -0.36
30 0.66
31 0.23
32 0.35
38 0.37
39 0.15
4 -0.36
40 0.15
41 0.15
42 0.15
5 -0.23
6 -0.57
7 -0.57
8 -0.57
9 -0.73

> <PUBCHEM_EFFECTIVE_ROTOR_COUNT>
8.6

> <PUBCHEM_PHARMACOPHORE_FEATURES>
10
1 3 acceptor
1 31 hydrophobe
1 4 acceptor
1 6 acceptor
1 7 acceptor
1 8 acceptor
1 9 donor
6 14 15 17 18 21 22 rings
7 10 11 12 13 14 15 16 rings
7 13 16 19 20 23 25 26 rings

> <PUBCHEM_HEAVY_ATOM_COUNT>
32

> <PUBCHEM_ATOM_DEF_STEREO_COUNT>
1

> <PUBCHEM_ATOM_UDEF_STEREO_COUNT>
0

> <PUBCHEM_BOND_DEF_STEREO_COUNT>
0

> <PUBCHEM_BOND_UDEF_STEREO_COUNT>
0

> <PUBCHEM_ISOTOPIC_ATOM_COUNT>
0

> <PUBCHEM_COMPONENT_COUNT>
1

> <PUBCHEM_CACTVS_TAUTO_COUNT>
2

> <PUBCHEM_CONFORMER_ID>
000206F000000001

> <PUBCHEM_MMFF94_ENERGY>
128.3691

> <PUBCHEM_FEATURE_SELFOVERLAP>
50.769

> <PUBCHEM_SHAPE_FINGERPRINT>
10032420 55 18343007883629597889
10090160 65 18338505374844227767
11370993 70 18187362112812597067
11421498 54 18130786711966979673
12107698 1 17986115114888421415
12236239 1 18342173354430703436
12788726 201 18343303664936487488
13140716 1 17487601143302573589
13583140 156 17095531733508831784
14341114 328 18342173362830220599
14787075 74 18340760520500967319
14955137 171 17131833213468924849
17909252 39 17416705556302319382
17980427 23 15864075338390988069
19319366 153 18340753884618681215
21421861 104 18196379113652082603
3383291 50 18271522010380460710
392239 28 18410573994258669187
394222 165 18054783988419498842
4058900 60 18189056400075194644
4258327 124 17605008081675187684
4340502 62 18334856130106122103
469060 322 17917445223908660593
5104073 3 17915456095329667891
5486654 2 18410576214397804951
59755656 215 17775010063719050700
59755656 520 18261106405095990214

> <PUBCHEM_SHAPE_MULTIPOLES>
624.07
12.64
3.73
1.93
2.16
3.08
0.12
-4.53
-0.61
1.45
1.78
-0.35
0.4
-0.13

> <PUBCHEM_SHAPE_SELFOVERLAP>
1305.975

> <PUBCHEM_SHAPE_VOLUME>
354.5

> <PUBCHEM_COORDINATE_TYPE>
2
5
10

$$$$
