132827
  -OEChem-03292013323D

 51 54  0     1  0  0  0  0  0999 V2000
    1.0033    0.0097    1.4739 S   0  0  0  0  0  0  0  0  0  0  0  0
   -3.6535    0.3234    0.3350 S   0  0  0  0  0  0  0  0  0  0  0  0
    1.0358   -3.5554   -1.5098 O   0  0  0  0  0  0  0  0  0  0  0  0
   -1.7943   -4.1487   -0.2012 O   0  0  0  0  0  0  0  0  0  0  0  0
    5.0052   -1.2343    0.6797 O   0  0  0  0  0  0  0  0  0  0  0  0
   -2.6576   -2.3520   -1.3223 O   0  0  0  0  0  0  0  0  0  0  0  0
    0.2734   -2.2612    0.3080 N   0  0  0  0  0  0  0  0  0  0  0  0
    3.0200   -1.1673   -0.5162 N   0  0  0  0  0  0  0  0  0  0  0  0
    6.2589    0.1463   -1.3583 N   0  0  0  0  0  0  0  0  0  0  0  0
   -6.2942    2.6186    0.4115 N   0  0  0  0  0  0  0  0  0  0  0  0
   -7.0649    3.0989   -0.5776 N   0  0  0  0  0  0  0  0  0  0  0  0
   -7.4590    2.2589   -1.5483 N   0  0  0  0  0  0  0  0  0  0  0  0
    1.2458   -1.7693    1.2668 C   0  0  1  0  0  0  0  0  0  0  0  0
    2.3245   -2.2013    0.2494 C   0  0  1  0  0  0  0  0  0  0  0  0
    1.1495   -2.8637   -0.5250 C   0  0  0  0  0  0  0  0  0  0  0  0
   -1.0645   -2.0563    0.4171 C   0  0  0  0  0  0  0  0  0  0  0  0
   -1.5714   -1.1319    1.2673 C   0  0  0  0  0  0  0  0  0  0  0  0
   -0.7037   -0.1820    2.0900 C   0  0  0  0  0  0  0  0  0  0  0  0
   -3.0447   -0.9023    1.5047 C   0  0  0  0  0  0  0  0  0  0  0  0
    4.3256   -0.7637   -0.2311 C   0  0  0  0  0  0  0  0  0  0  0  0
   -1.9339   -2.8368   -0.4758 C   0  0  0  0  0  0  0  0  0  0  0  0
    4.8206    0.3431   -1.1557 C   0  0  1  0  0  0  0  0  0  0  0  0
    4.5000    1.7084   -0.5836 C   0  0  0  0  0  0  0  0  0  0  0  0
   -5.3844    0.3731    0.8606 C   0  0  0  0  0  0  0  0  0  0  0  0
    3.2909    2.3293   -0.8969 C   0  0  0  0  0  0  0  0  0  0  0  0
    5.4135    2.3446    0.2570 C   0  0  0  0  0  0  0  0  0  0  0  0
   -6.1776    1.3396    0.0434 C   0  0  0  0  0  0  0  0  0  0  0  0
    2.9953    3.5865   -0.3699 C   0  0  0  0  0  0  0  0  0  0  0  0
    5.1178    3.6018    0.7840 C   0  0  0  0  0  0  0  0  0  0  0  0
    3.9086    4.2227    0.4705 C   0  0  0  0  0  0  0  0  0  0  0  0
   -6.8851    1.1213   -1.1472 C   0  0  0  0  0  0  0  0  0  0  0  0
    1.2576   -2.3473    2.1985 H   0  0  0  0  0  0  0  0  0  0  0  0
    3.0177   -2.9530    0.6470 H   0  0  0  0  0  0  0  0  0  0  0  0
   -0.6679   -0.5319    3.1277 H   0  0  0  0  0  0  0  0  0  0  0  0
   -1.1376    0.8231    2.0940 H   0  0  0  0  0  0  0  0  0  0  0  0
    2.5378   -0.7052   -1.2837 H   0  0  0  0  0  0  0  0  0  0  0  0
   -3.6065   -1.8341    1.3787 H   0  0  0  0  0  0  0  0  0  0  0  0
   -3.2190   -0.5658    2.5328 H   0  0  0  0  0  0  0  0  0  0  0  0
    4.3415    0.2402   -2.1375 H   0  0  0  0  0  0  0  0  0  0  0  0
    6.4206   -0.7668   -1.7826 H   0  0  0  0  0  0  0  0  0  0  0  0
    6.6039    0.8299   -2.0321 H   0  0  0  0  0  0  0  0  0  0  0  0
   -2.3587   -4.7084   -0.7761 H   0  0  0  0  0  0  0  0  0  0  0  0
   -5.8169   -0.6283    0.7598 H   0  0  0  0  0  0  0  0  0  0  0  0
   -5.4317    0.6538    1.9186 H   0  0  0  0  0  0  0  0  0  0  0  0
    2.5702    1.8449   -1.5503 H   0  0  0  0  0  0  0  0  0  0  0  0
    6.3561    1.8815    0.5348 H   0  0  0  0  0  0  0  0  0  0  0  0
    2.0535    4.0695   -0.6133 H   0  0  0  0  0  0  0  0  0  0  0  0
    5.8268    4.0958    1.4419 H   0  0  0  0  0  0  0  0  0  0  0  0
    3.6779    5.2010    0.8820 H   0  0  0  0  0  0  0  0  0  0  0  0
   -7.0105    0.2198   -1.7284 H   0  0  0  0  0  0  0  0  0  0  0  0
   -7.3434    4.0736   -0.5909 H   0  0  0  0  0  0  0  0  0  0  0  0
  1 13  1  0  0  0  0
  1 18  1  0  0  0  0
  2 19  1  0  0  0  0
  2 24  1  0  0  0  0
  3 15  2  0  0  0  0
  4 21  1  0  0  0  0
  4 42  1  0  0  0  0
  5 20  2  0  0  0  0
  6 21  2  0  0  0  0
  7 13  1  0  0  0  0
  7 15  1  0  0  0  0
  7 16  1  0  0  0  0
  8 14  1  0  0  0  0
  8 20  1  0  0  0  0
  8 36  1  0  0  0  0
  9 22  1  0  0  0  0
  9 40  1  0  0  0  0
  9 41  1  0  0  0  0
 10 11  1  0  0  0  0
 10 27  2  0  0  0  0
 11 12  1  0  0  0  0
 11 51  1  0  0  0  0
 12 31  2  0  0  0  0
 13 14  1  0  0  0  0
 13 32  1  0  0  0  0
 14 15  1  0  0  0  0
 14 33  1  0  0  0  0
 16 17  2  0  0  0  0
 16 21  1  0  0  0  0
 17 18  1  0  0  0  0
 17 19  1  0  0  0  0
 18 34  1  0  0  0  0
 18 35  1  0  0  0  0
 19 37  1  0  0  0  0
 19 38  1  0  0  0  0
 20 22  1  0  0  0  0
 22 23  1  0  0  0  0
 22 39  1  0  0  0  0
 23 25  2  0  0  0  0
 23 26  1  0  0  0  0
 24 27  1  0  0  0  0
 24 43  1  0  0  0  0
 24 44  1  0  0  0  0
 25 28  1  0  0  0  0
 25 45  1  0  0  0  0
 26 29  2  0  0  0  0
 26 46  1  0  0  0  0
 27 31  1  0  0  0  0
 28 30  2  0  0  0  0
 28 47  1  0  0  0  0
 29 30  1  0  0  0  0
 29 48  1  0  0  0  0
 30 49  1  0  0  0  0
 31 50  1  0  0  0  0
M  END
> <PUBCHEM_COMPOUND_CID>
132827

> <PUBCHEM_CONFORMER_RMSD>
1

> <PUBCHEM_CONFORMER_DIVERSEORDER>
1
122
124
115
65
72
48
34
100
104
80
69
9
111
113
42
127
70
83
126
40
57
32
96
22
121
8
76
68
105
61
33
28
92
117
91
46
89
29
56
24
19
30
31
62
16
15
110
119
14
35
47
27
36
79
101
107
77
17
87
52
4
51
109
25
86
45
67
108
99
60
11
78
18
64
5
116
26
123
54
38
114
125
90
120
3
12
59
82
73
84
2
21
98
71
7
55
58
95
6
118
88
93
53
23
66
39
112
37
44
106
20
43
85
74
13
10
81
63
49
50
103
75
97
41
94
102

> <PUBCHEM_MMFF94_PARTIAL_CHARGES>
42
1 -0.45
10 -0.71
11 0.57
12 -0.71
13 0.44
14 0.28
15 0.58
16 0.12
17 -0.28
18 0.37
19 0.37
2 -0.46
20 0.57
21 0.71
22 0.47
23 -0.14
24 0.41
25 -0.15
26 -0.15
27 0.11
28 -0.15
29 -0.15
3 -0.57
30 -0.15
31 0.14
36 0.37
4 -0.65
40 0.36
41 0.36
42 0.5
45 0.15
46 0.15
47 0.15
48 0.15
49 0.15
5 -0.57
50 0.15
51 0.27
6 -0.57
7 -0.39
8 -0.65
9 -0.99

> <PUBCHEM_EFFECTIVE_ROTOR_COUNT>
9.6

> <PUBCHEM_PHARMACOPHORE_FEATURES>
14
1 10 acceptor
1 12 acceptor
1 3 acceptor
1 4 acceptor
1 5 acceptor
1 6 acceptor
1 8 donor
1 9 cation
1 9 donor
3 4 6 21 anion
4 7 13 14 15 rings
5 10 11 12 27 31 rings
6 1 7 13 16 17 18 rings
6 23 25 26 28 29 30 rings

> <PUBCHEM_HEAVY_ATOM_COUNT>
31

> <PUBCHEM_ATOM_DEF_STEREO_COUNT>
2

> <PUBCHEM_ATOM_UDEF_STEREO_COUNT>
1

> <PUBCHEM_BOND_DEF_STEREO_COUNT>
0

> <PUBCHEM_BOND_UDEF_STEREO_COUNT>
0

> <PUBCHEM_ISOTOPIC_ATOM_COUNT>
0

> <PUBCHEM_COMPONENT_COUNT>
1

> <PUBCHEM_CACTVS_TAUTO_COUNT>
6

> <PUBCHEM_CONFORMER_ID>
000206DB00000001

> <PUBCHEM_MMFF94_ENERGY>
74.5316

> <PUBCHEM_FEATURE_SELFOVERLAP>
71.413

> <PUBCHEM_SHAPE_FINGERPRINT>
10673678 19 18413673508905106775
10811444 77 18408042905364364741
10928967 22 10660503566954532204
11621639 179 18261112946695159668
12422481 6 17676492778140611165
12925494 130 18334858354799019697
13878862 14 18187634782937390382
13944108 23 18194403290651041665
14117953 113 18269276777455090078
14739800 52 17677043530755891377
15082195 135 18269553828357049193
15347590 135 11386665052183429966
17909252 39 12573913859432784242
18335252 114 18338798910305591158
20511986 3 18059010722071201144
20715895 44 18412262831154636960
21033648 29 17822295746993500472
21133410 127 17758964005957431396
21585483 110 18408325467178687413
22121540 332 17460295691044413189
22122407 14 18335147444958526865
23559900 14 17631192904152078158
23569914 2 17608047071500715245
2838139 119 18408039607119021039
6036956 94 17326334822999709965
6371009 1 18270680866034534552

> <PUBCHEM_SHAPE_MULTIPOLES>
592.3
17.37
5.43
1.49
21.17
1.22
-0.19
21.71
5.52
-1.27
1.01
0.5
-0.21
1.56

> <PUBCHEM_SHAPE_SELFOVERLAP>
1244.956

> <PUBCHEM_SHAPE_VOLUME>
334.5

> <PUBCHEM_COORDINATE_TYPE>
2
5
10

$$$$
