132808
  -OEChem-03292013323D

 63 66  0     0  0  0  0  0  0999 V2000
   -3.2847   -1.8901   -0.3904 O   0  0  0  0  0  0  0  0  0  0  0  0
    7.8529   -2.1411    0.2082 O   0  0  0  0  0  0  0  0  0  0  0  0
    8.6709    0.4438    0.8168 O   0  0  0  0  0  0  0  0  0  0  0  0
   -1.5746   -0.4887   -1.0979 N   0  0  0  0  0  0  0  0  0  0  0  0
    1.1437    0.1235   -0.6514 N   0  0  0  0  0  0  0  0  0  0  0  0
    3.3752   -0.6248   -0.3652 N   0  0  0  0  0  0  0  0  0  0  0  0
    2.8105    1.6981   -0.0619 N   0  0  0  0  0  0  0  0  0  0  0  0
    4.4617    3.2686    0.5243 N   0  0  0  0  0  0  0  0  0  0  0  0
  -11.4352   -0.8003    1.1667 N   0  0  0  0  0  0  0  0  0  0  0  0
   -1.0616    0.8239   -1.4947 C   0  0  0  0  0  0  0  0  0  0  0  0
   -0.5807   -1.5570   -1.1647 C   0  0  0  0  0  0  0  0  0  0  0  0
    0.1517    1.2076   -0.6479 C   0  0  0  0  0  0  0  0  0  0  0  0
    0.6373   -1.2155   -0.3093 C   0  0  0  0  0  0  0  0  0  0  0  0
   -2.8804   -0.7671   -0.7025 C   0  0  0  0  0  0  0  0  0  0  0  0
   -3.8349    0.3993   -0.6610 C   0  0  0  0  0  0  0  0  0  0  0  0
    2.4805    0.4090   -0.3506 C   0  0  0  0  0  0  0  0  0  0  0  0
   -5.2130   -0.0596   -0.2139 C   0  0  0  0  0  0  0  0  0  0  0  0
   -6.2446    1.0735   -0.2266 C   0  0  0  0  0  0  0  0  0  0  0  0
    4.6612   -0.3578   -0.0768 C   0  0  0  0  0  0  0  0  0  0  0  0
    5.0881    0.9439    0.2327 C   0  0  0  0  0  0  0  0  0  0  0  0
   -7.6197    0.5772    0.1426 C   0  0  0  0  0  0  0  0  0  0  0  0
    4.1059    1.9305    0.2221 C   0  0  0  0  0  0  0  0  0  0  0  0
    5.6156   -1.3722   -0.0763 C   0  0  0  0  0  0  0  0  0  0  0  0
    6.4353    1.2111    0.5326 C   0  0  0  0  0  0  0  0  0  0  0  0
   -8.4723    0.1293   -0.8550 C   0  0  0  0  0  0  0  0  0  0  0  0
   -8.0092    0.5770    1.4736 C   0  0  0  0  0  0  0  0  0  0  0  0
    6.9572   -1.1146    0.2208 C   0  0  0  0  0  0  0  0  0  0  0  0
    7.3678    0.1784    0.5257 C   0  0  0  0  0  0  0  0  0  0  0  0
   -9.7446   -0.3297   -0.5136 C   0  0  0  0  0  0  0  0  0  0  0  0
   -9.2813    0.1179    1.8148 C   0  0  0  0  0  0  0  0  0  0  0  0
  -10.1491   -0.3354    0.8212 C   0  0  0  0  0  0  0  0  0  0  0  0
    8.0478   -2.8461    1.4325 C   0  0  0  0  0  0  0  0  0  0  0  0
    9.5228    0.7873   -0.2748 C   0  0  0  0  0  0  0  0  0  0  0  0
   -0.7767    0.7480   -2.5513 H   0  0  0  0  0  0  0  0  0  0  0  0
   -1.8190    1.6060   -1.4205 H   0  0  0  0  0  0  0  0  0  0  0  0
   -1.0072   -2.5116   -0.8410 H   0  0  0  0  0  0  0  0  0  0  0  0
   -0.2911   -1.6647   -2.2170 H   0  0  0  0  0  0  0  0  0  0  0  0
   -0.1570    1.4110    0.3851 H   0  0  0  0  0  0  0  0  0  0  0  0
    0.5687    2.1321   -1.0649 H   0  0  0  0  0  0  0  0  0  0  0  0
    1.3868   -1.9972   -0.4768 H   0  0  0  0  0  0  0  0  0  0  0  0
    0.3691   -1.2340    0.7545 H   0  0  0  0  0  0  0  0  0  0  0  0
   -3.4537    1.1518    0.0379 H   0  0  0  0  0  0  0  0  0  0  0  0
   -3.9014    0.8374   -1.6628 H   0  0  0  0  0  0  0  0  0  0  0  0
   -5.1539   -0.4884    0.7956 H   0  0  0  0  0  0  0  0  0  0  0  0
   -5.5629   -0.8684   -0.8699 H   0  0  0  0  0  0  0  0  0  0  0  0
   -5.9381    1.8680    0.4659 H   0  0  0  0  0  0  0  0  0  0  0  0
   -6.2791    1.5402   -1.2195 H   0  0  0  0  0  0  0  0  0  0  0  0
    5.3122   -2.3909   -0.3136 H   0  0  0  0  0  0  0  0  0  0  0  0
    6.7855    2.2126    0.7669 H   0  0  0  0  0  0  0  0  0  0  0  0
   -8.1658    0.1279   -1.8972 H   0  0  0  0  0  0  0  0  0  0  0  0
   -7.3397    0.9263    2.2545 H   0  0  0  0  0  0  0  0  0  0  0  0
    3.7087    3.9451    0.4731 H   0  0  0  0  0  0  0  0  0  0  0  0
    5.1655    3.4324    1.2330 H   0  0  0  0  0  0  0  0  0  0  0  0
  -10.4113   -0.6811   -1.2970 H   0  0  0  0  0  0  0  0  0  0  0  0
   -9.5846    0.1179    2.8587 H   0  0  0  0  0  0  0  0  0  0  0  0
  -12.0653   -1.1277    0.4467 H   0  0  0  0  0  0  0  0  0  0  0  0
  -11.7293   -0.8032    2.1343 H   0  0  0  0  0  0  0  0  0  0  0  0
    8.7931   -3.6278    1.2628 H   0  0  0  0  0  0  0  0  0  0  0  0
    8.4190   -2.1717    2.2108 H   0  0  0  0  0  0  0  0  0  0  0  0
    7.1142   -3.3168    1.7567 H   0  0  0  0  0  0  0  0  0  0  0  0
    9.1716    1.7026   -0.7617 H   0  0  0  0  0  0  0  0  0  0  0  0
   10.5281    0.9632    0.1176 H   0  0  0  0  0  0  0  0  0  0  0  0
    9.5684   -0.0311   -1.0003 H   0  0  0  0  0  0  0  0  0  0  0  0
  1 14  2  0  0  0  0
  2 27  1  0  0  0  0
  2 32  1  0  0  0  0
  3 28  1  0  0  0  0
  3 33  1  0  0  0  0
  4 10  1  0  0  0  0
  4 11  1  0  0  0  0
  4 14  1  0  0  0  0
  5 12  1  0  0  0  0
  5 13  1  0  0  0  0
  5 16  1  0  0  0  0
  6 16  2  0  0  0  0
  6 19  1  0  0  0  0
  7 16  1  0  0  0  0
  7 22  2  0  0  0  0
  8 22  1  0  0  0  0
  8 52  1  0  0  0  0
  8 53  1  0  0  0  0
  9 31  1  0  0  0  0
  9 56  1  0  0  0  0
  9 57  1  0  0  0  0
 10 12  1  0  0  0  0
 10 34  1  0  0  0  0
 10 35  1  0  0  0  0
 11 13  1  0  0  0  0
 11 36  1  0  0  0  0
 11 37  1  0  0  0  0
 12 38  1  0  0  0  0
 12 39  1  0  0  0  0
 13 40  1  0  0  0  0
 13 41  1  0  0  0  0
 14 15  1  0  0  0  0
 15 17  1  0  0  0  0
 15 42  1  0  0  0  0
 15 43  1  0  0  0  0
 17 18  1  0  0  0  0
 17 44  1  0  0  0  0
 17 45  1  0  0  0  0
 18 21  1  0  0  0  0
 18 46  1  0  0  0  0
 18 47  1  0  0  0  0
 19 20  1  0  0  0  0
 19 23  2  0  0  0  0
 20 22  1  0  0  0  0
 20 24  2  0  0  0  0
 21 25  2  0  0  0  0
 21 26  1  0  0  0  0
 23 27  1  0  0  0  0
 23 48  1  0  0  0  0
 24 28  1  0  0  0  0
 24 49  1  0  0  0  0
 25 29  1  0  0  0  0
 25 50  1  0  0  0  0
 26 30  2  0  0  0  0
 26 51  1  0  0  0  0
 27 28  2  0  0  0  0
 29 31  2  0  0  0  0
 29 54  1  0  0  0  0
 30 31  1  0  0  0  0
 30 55  1  0  0  0  0
 32 58  1  0  0  0  0
 32 59  1  0  0  0  0
 32 60  1  0  0  0  0
 33 61  1  0  0  0  0
 33 62  1  0  0  0  0
 33 63  1  0  0  0  0
M  END
> <PUBCHEM_COMPOUND_CID>
132808

> <PUBCHEM_CONFORMER_RMSD>
1

> <PUBCHEM_CONFORMER_DIVERSEORDER>
2
39
107
214
53
60
108
161
188
172
20
192
150
168
88
65
77
170
169
216
205
79
111
71
176
209
92
99
38
23
26
96
204
17
147
115
73
160
177
139
182
103
63
118
67
171
4
184
167
61
141
105
10
89
162
134
154
113
12
94
189
199
83
195
50
42
193
194
25
159
138
66
11
47
186
135
101
140
37
149
136
200
165
132
158
7
64
48
104
137
179
78
191
30
24
69
44
212
54
13
120
185
82
46
102
106
62
91
125
126
8
187
15
156
84
90
155
95
114
121
116
218
122
164
31
28
202
87
29
72
213
75
133
98
97
190
208
144
175
207
3
57
6
9
33
166
178
27
183
124
143
59
119
14
21
153
112
18
157
5
45
174
109
74
58
145
86
93
148
217
181
142
81
22
131
152
210
129
70
196
34
1
76
51
55
52
197
80
32
130
35
180
41
56
128
146
127
198
151
40
173
19
123
110
203
163
117
16
100
68
49
206
36
211
85
201
215
43

> <PUBCHEM_MMFF94_PARTIAL_CHARGES>
41
1 -0.57
10 0.3
11 0.3
12 0.37
13 0.37
14 0.57
15 0.06
16 0.72
18 0.14
19 0.31
2 -0.36
21 -0.14
22 0.41
23 -0.15
24 -0.15
25 -0.15
26 -0.15
27 0.08
28 0.08
29 -0.15
3 -0.36
30 -0.15
31 0.1
32 0.28
33 0.28
4 -0.66
48 0.15
49 0.15
5 -0.84
50 0.15
51 0.15
52 0.4
53 0.4
54 0.15
55 0.15
56 0.4
57 0.4
6 -0.62
7 -0.62
8 -0.9
9 -0.9

> <PUBCHEM_EFFECTIVE_ROTOR_COUNT>
9.2

> <PUBCHEM_PHARMACOPHORE_FEATURES>
11
1 1 acceptor
1 2 acceptor
1 3 acceptor
1 8 donor
1 9 cation
1 9 donor
4 5 6 7 16 cation
6 19 20 23 24 27 28 rings
6 21 25 26 29 30 31 rings
6 4 5 10 11 12 13 rings
6 6 7 16 19 20 22 rings

> <PUBCHEM_HEAVY_ATOM_COUNT>
33

> <PUBCHEM_ATOM_DEF_STEREO_COUNT>
0

> <PUBCHEM_ATOM_UDEF_STEREO_COUNT>
0

> <PUBCHEM_BOND_DEF_STEREO_COUNT>
0

> <PUBCHEM_BOND_UDEF_STEREO_COUNT>
0

> <PUBCHEM_ISOTOPIC_ATOM_COUNT>
0

> <PUBCHEM_COMPONENT_COUNT>
1

> <PUBCHEM_CACTVS_TAUTO_COUNT>
3

> <PUBCHEM_CONFORMER_ID>
000206C800000002

> <PUBCHEM_MMFF94_ENERGY>
135.1628

> <PUBCHEM_FEATURE_SELFOVERLAP>
55.856

> <PUBCHEM_SHAPE_FINGERPRINT>
10 15 18333734650195614533
10429389 143 13254788040771123842
10533779 47 18339931424172413075
10580692 12 18412543206435272180
106641 1 18334859420499392167
10883706 142 17131835370227972229
11456790 92 18060139834497693097
11534866 41 17603866676652011722
11607047 141 14476684049842531950
11638347 137 18260831492950178507
11672396 167 9366807169196490204
12089408 11 17489581273206740503
12539745 222 16660355958032812789
14118638 360 9727366726698259069
14251764 46 17775286071254873951
14344974 52 12751228213326440129
14849402 71 17917150607017904113
15065858 18 17821726148926681149
15247644 1 15936408935728198027
15301273 46 17530681005094770845
15419008 145 18271244907390041161
15461852 350 15913321429423296613
15510794 2 17458344130418010731
15840311 113 18261111915312385613
16728433 110 17967534592476309053
1754911 235 9439402424287459977
19302320 297 18272371996464533212
20105231 36 17821729399705650258
20554085 129 15051727577937125582
20812841 46 18342454851077046120
21150785 3 7997971279933041772
21362267 313 16414927335523808751
21591340 7 17989484139376040599
232437 2 18409166610716472703
23389318 12 10881404231676373375
24893992 56 17489584606845296851
3092352 35 17418091032075895663
3178227 256 18410009927792942630
3711267 37 15841281398339929993
4017518 198 14996004350954980025
4073 2 18115866472913005858
45377200 153 15719687514914003193
5470011 282 9583518724433090345
57303763 39 17386300911978897482
9663363 56 16370440068371493196

> <PUBCHEM_SHAPE_MULTIPOLES>
631.63
39.94
2.04
1.19
56.84
0.02
0.21
5.71
16.3
-5.28
0.4
1.81
0.15
-0.55

> <PUBCHEM_SHAPE_SELFOVERLAP>
1352.705

> <PUBCHEM_SHAPE_VOLUME>
348.4

> <PUBCHEM_COORDINATE_TYPE>
2
5
10

$$$$
