132967
  -OEChem-03292013323D

 65 66  0     1  0  0  0  0  0999 V2000
   -0.4899   -1.1078    1.8560 O   0  0  0  0  0  0  0  0  0  0  0  0
    1.8672    0.3290   -0.9537 O   0  0  0  0  0  0  0  0  0  0  0  0
   -4.9763   -2.8814   -0.3272 O   0  0  0  0  0  0  0  0  0  0  0  0
   -5.6506   -0.8613    0.4646 O   0  0  0  0  0  0  0  0  0  0  0  0
   -0.3432   -1.1805   -0.4577 N   0  0  0  0  0  0  0  0  0  0  0  0
   -3.1398   -0.6297    1.6726 N   0  0  0  0  0  0  0  0  0  0  0  0
    3.1443   -1.2492    0.2235 N   0  0  0  0  0  0  0  0  0  0  0  0
    0.9297   -1.8521   -0.5124 C   0  0  1  0  0  0  0  0  0  0  0  0
    1.0934   -2.6815   -1.7928 C   0  0  0  0  0  0  0  0  0  0  0  0
   -2.3083   -0.1821    0.5541 C   0  0  1  0  0  0  0  0  0  0  0  0
    0.4439   -4.0795   -1.7450 C   0  0  0  0  0  0  0  0  0  0  0  0
   -2.1949    1.3504    0.5812 C   0  0  0  0  0  0  0  0  0  0  0  0
   -0.9568   -0.8591    0.7458 C   0  0  0  0  0  0  0  0  0  0  0  0
   -1.6513    1.9615   -0.7199 C   0  0  0  0  0  0  0  0  0  0  0  0
   -3.6790   -1.9549    1.4135 C   0  0  1  0  0  0  0  0  0  0  0  0
   -1.0616   -3.9412   -1.5023 C   0  0  0  0  0  0  0  0  0  0  0  0
    0.6871   -4.8787   -3.0261 C   0  0  0  0  0  0  0  0  0  0  0  0
    2.0141   -0.7758   -0.4383 C   0  0  0  0  0  0  0  0  0  0  0  0
   -1.4827    3.4590   -0.6696 C   0  0  0  0  0  0  0  0  0  0  0  0
   -4.0835   -2.6111    2.7266 C   0  0  0  0  0  0  0  0  0  0  0  0
   -4.8741   -1.8052    0.4963 C   0  0  0  0  0  0  0  0  0  0  0  0
   -2.5341    4.2924   -1.0516 C   0  0  0  0  0  0  0  0  0  0  0  0
   -0.2757    4.0112   -0.2406 C   0  0  0  0  0  0  0  0  0  0  0  0
    4.3466   -0.5508    0.4869 C   0  0  0  0  0  0  0  0  0  0  0  0
   -2.3785    5.6777   -1.0049 C   0  0  0  0  0  0  0  0  0  0  0  0
   -0.1202    5.3966   -0.1938 C   0  0  0  0  0  0  0  0  0  0  0  0
   -1.1716    6.2298   -0.5760 C   0  0  0  0  0  0  0  0  0  0  0  0
    5.3874   -1.1853    1.1653 C   0  0  0  0  0  0  0  0  0  0  0  0
    4.4914    0.7719    0.0679 C   0  0  0  0  0  0  0  0  0  0  0  0
    6.5727   -0.4972    1.4247 C   0  0  0  0  0  0  0  0  0  0  0  0
    5.6767    1.4598    0.3273 C   0  0  0  0  0  0  0  0  0  0  0  0
    6.7173    0.8252    1.0058 C   0  0  0  0  0  0  0  0  0  0  0  0
    1.0161   -2.5017    0.3673 H   0  0  0  0  0  0  0  0  0  0  0  0
    0.7078   -2.1221   -2.6561 H   0  0  0  0  0  0  0  0  0  0  0  0
    2.1644   -2.8273   -1.9892 H   0  0  0  0  0  0  0  0  0  0  0  0
   -2.7504   -0.4769   -0.4057 H   0  0  0  0  0  0  0  0  0  0  0  0
    0.8791   -4.6436   -0.9105 H   0  0  0  0  0  0  0  0  0  0  0  0
   -1.5578    1.6612    1.4205 H   0  0  0  0  0  0  0  0  0  0  0  0
   -3.1863    1.7854    0.7693 H   0  0  0  0  0  0  0  0  0  0  0  0
   -0.7702   -0.8811   -1.3295 H   0  0  0  0  0  0  0  0  0  0  0  0
   -2.6052   -0.6060    2.5403 H   0  0  0  0  0  0  0  0  0  0  0  0
   -2.3157    1.6997   -1.5536 H   0  0  0  0  0  0  0  0  0  0  0  0
   -0.6820    1.5151   -0.9689 H   0  0  0  0  0  0  0  0  0  0  0  0
   -2.9346   -2.6011    0.9344 H   0  0  0  0  0  0  0  0  0  0  0  0
   -1.2721   -3.6117   -0.4820 H   0  0  0  0  0  0  0  0  0  0  0  0
   -1.5607   -4.9099   -1.6200 H   0  0  0  0  0  0  0  0  0  0  0  0
   -1.5252   -3.2426   -2.2068 H   0  0  0  0  0  0  0  0  0  0  0  0
    1.7603   -4.9996   -3.2070 H   0  0  0  0  0  0  0  0  0  0  0  0
    0.2451   -5.8780   -2.9544 H   0  0  0  0  0  0  0  0  0  0  0  0
    0.2518   -4.3751   -3.8958 H   0  0  0  0  0  0  0  0  0  0  0  0
   -3.2213   -2.7378    3.3903 H   0  0  0  0  0  0  0  0  0  0  0  0
   -4.5164   -3.6012    2.5450 H   0  0  0  0  0  0  0  0  0  0  0  0
   -4.8404   -2.0203    3.2557 H   0  0  0  0  0  0  0  0  0  0  0  0
    3.1242   -2.2077    0.5649 H   0  0  0  0  0  0  0  0  0  0  0  0
   -3.4799    3.8740   -1.3855 H   0  0  0  0  0  0  0  0  0  0  0  0
    0.5500    3.3721    0.0614 H   0  0  0  0  0  0  0  0  0  0  0  0
   -3.1972    6.3266   -1.3019 H   0  0  0  0  0  0  0  0  0  0  0  0
    0.8194    5.8267    0.1406 H   0  0  0  0  0  0  0  0  0  0  0  0
   -1.0505    7.3084   -0.5393 H   0  0  0  0  0  0  0  0  0  0  0  0
    5.2878   -2.2155    1.4972 H   0  0  0  0  0  0  0  0  0  0  0  0
    3.7311    1.3317   -0.4580 H   0  0  0  0  0  0  0  0  0  0  0  0
   -5.7414   -2.8040   -0.9362 H   0  0  0  0  0  0  0  0  0  0  0  0
    7.3830   -0.9911    1.9530 H   0  0  0  0  0  0  0  0  0  0  0  0
    5.7904    2.4901    0.0026 H   0  0  0  0  0  0  0  0  0  0  0  0
    7.6401    1.3611    1.2081 H   0  0  0  0  0  0  0  0  0  0  0  0
  1 13  2  0  0  0  0
  2 18  2  0  0  0  0
  3 21  1  0  0  0  0
  3 62  1  0  0  0  0
  4 21  2  0  0  0  0
  5  8  1  0  0  0  0
  5 13  1  0  0  0  0
  5 40  1  0  0  0  0
  6 10  1  0  0  0  0
  6 15  1  0  0  0  0
  6 41  1  0  0  0  0
  7 18  1  0  0  0  0
  7 24  1  0  0  0  0
  7 54  1  0  0  0  0
  8  9  1  0  0  0  0
  8 18  1  0  0  0  0
  8 33  1  0  0  0  0
  9 11  1  0  0  0  0
  9 34  1  0  0  0  0
  9 35  1  0  0  0  0
 10 12  1  0  0  0  0
 10 13  1  0  0  0  0
 10 36  1  0  0  0  0
 11 16  1  0  0  0  0
 11 17  1  0  0  0  0
 11 37  1  0  0  0  0
 12 14  1  0  0  0  0
 12 38  1  0  0  0  0
 12 39  1  0  0  0  0
 14 19  1  0  0  0  0
 14 42  1  0  0  0  0
 14 43  1  0  0  0  0
 15 20  1  0  0  0  0
 15 21  1  0  0  0  0
 15 44  1  0  0  0  0
 16 45  1  0  0  0  0
 16 46  1  0  0  0  0
 16 47  1  0  0  0  0
 17 48  1  0  0  0  0
 17 49  1  0  0  0  0
 17 50  1  0  0  0  0
 19 22  2  0  0  0  0
 19 23  1  0  0  0  0
 20 51  1  0  0  0  0
 20 52  1  0  0  0  0
 20 53  1  0  0  0  0
 22 25  1  0  0  0  0
 22 55  1  0  0  0  0
 23 26  2  0  0  0  0
 23 56  1  0  0  0  0
 24 28  2  0  0  0  0
 24 29  1  0  0  0  0
 25 27  2  0  0  0  0
 25 57  1  0  0  0  0
 26 27  1  0  0  0  0
 26 58  1  0  0  0  0
 27 59  1  0  0  0  0
 28 30  1  0  0  0  0
 28 60  1  0  0  0  0
 29 31  2  0  0  0  0
 29 61  1  0  0  0  0
 30 32  2  0  0  0  0
 30 63  1  0  0  0  0
 31 32  1  0  0  0  0
 31 64  1  0  0  0  0
 32 65  1  0  0  0  0
M  END
> <PUBCHEM_COMPOUND_CID>
132967

> <PUBCHEM_CONFORMER_RMSD>
1.2

> <PUBCHEM_CONFORMER_DIVERSEORDER>
1
3
134
32
121
106
132
54
140
66
126
82
59
129
52
113
41
94
131
96
104
43
68
89
110
90
97
83
55
37
46
42
87
120
80
70
65
95
47
18
31
39
53
58
93
61
86
35
137
64
81
114
10
100
130
144
124
62
133
20
56
127
74
38
92
23
14
48
103
36
40
123
63
51
28
2
67
60
44
109
50
139
84
5
122
98
72
76
57
22
77
105
16
12
88
112
115
49
33
119
142
116
128
6
99
141
26
118
91
143
71
135
79
7
102
34
136
111
17
69
73
107
15
19
78
8
125
108
9
21
11
75
13
85
27
45
30
4
29
138
25
117
24
101

> <PUBCHEM_MMFF94_PARTIAL_CHARGES>
40
1 -0.57
10 0.33
13 0.57
14 0.14
15 0.33
18 0.57
19 -0.14
2 -0.57
21 0.66
22 -0.15
23 -0.15
24 0.12
25 -0.15
26 -0.15
27 -0.15
28 -0.15
29 -0.15
3 -0.65
30 -0.15
31 -0.15
32 -0.15
4 -0.57
40 0.37
41 0.36
5 -0.73
54 0.37
55 0.15
56 0.15
57 0.15
58 0.15
59 0.15
6 -0.9
60 0.15
61 0.15
62 0.5
63 0.15
64 0.15
65 0.15
7 -0.55
8 0.36

> <PUBCHEM_EFFECTIVE_ROTOR_COUNT>
14

> <PUBCHEM_PHARMACOPHORE_FEATURES>
12
1 1 acceptor
1 2 acceptor
1 3 acceptor
1 4 acceptor
1 5 donor
1 6 cation
1 6 donor
1 7 donor
3 11 16 17 hydrophobe
3 3 4 21 anion
6 19 22 23 25 26 27 rings
6 24 28 29 30 31 32 rings

> <PUBCHEM_HEAVY_ATOM_COUNT>
32

> <PUBCHEM_ATOM_DEF_STEREO_COUNT>
2

> <PUBCHEM_ATOM_UDEF_STEREO_COUNT>
1

> <PUBCHEM_BOND_DEF_STEREO_COUNT>
0

> <PUBCHEM_BOND_UDEF_STEREO_COUNT>
0

> <PUBCHEM_ISOTOPIC_ATOM_COUNT>
0

> <PUBCHEM_COMPONENT_COUNT>
1

> <PUBCHEM_CACTVS_TAUTO_COUNT>
4

> <PUBCHEM_CONFORMER_ID>
0002076700000001

> <PUBCHEM_MMFF94_ENERGY>
71.7237

> <PUBCHEM_FEATURE_SELFOVERLAP>
60.953

> <PUBCHEM_SHAPE_FINGERPRINT>
11297750 10 17692850028128622027
11445158 3 18050851314885375927
12160290 23 17462312148240943277
12202916 173 18335696157496820619
12788726 201 18114479928172451536
15406563 228 17982714566881032159
15775530 1 17980213984558259566
16090146 7 9654748472220299754
16993438 75 18337379435977198173
19246450 95 17907832057004660226
20775438 99 17692512439340360373
25019877 29 17274270572475809750
27425 322 17474093316448687021
376196 1 17906436746071648288
469060 322 18200863076267405447
5776283 40 17404312793389423174
6371380 46 8646477527805246629
6608658 132 18266185109613454476
7399639 24 18271535190790514695
9981440 41 18125422130305418776

> <PUBCHEM_SHAPE_MULTIPOLES>
620.12
11.83
8.86
2.02
17.61
11.63
-0.16
-1.42
7.54
-9.94
-6.15
-0.62
-3.09
3.82

> <PUBCHEM_SHAPE_SELFOVERLAP>
1274.106

> <PUBCHEM_SHAPE_VOLUME>
354.9

> <PUBCHEM_COORDINATE_TYPE>
2
5
10

$$$$
