132919089
  -OEChem-03292013293D

 58 63  0     1  0  0  0  0  0999 V2000
   -2.2602   -3.3720   -0.4072 S   0  0  2  0  0  0  0  0  0  0  0  0
    0.1542    0.0585    1.3508 O   0  0  0  0  0  0  0  0  0  0  0  0
   -0.2402    1.7202   -1.2586 O   0  0  0  0  0  0  0  0  0  0  0  0
    0.8096   -2.6412   -1.0543 O   0  0  0  0  0  0  0  0  0  0  0  0
   -2.4019    1.5469   -2.1102 O   0  0  0  0  0  0  0  0  0  0  0  0
   -0.2781    2.7132    1.5780 O   0  0  0  0  0  0  0  0  0  0  0  0
   -1.5252   -4.1005   -1.4825 O   0  0  0  0  0  0  0  0  0  0  0  0
    3.6795   -0.8517    1.5935 O   0  0  0  0  0  0  0  0  0  0  0  0
   -1.6641    0.1082   -0.3467 C   0  0  1  0  0  0  0  0  0  0  0  0
   -0.6463   -0.6566   -1.1947 C   0  0  2  0  0  0  0  0  0  0  0  0
   -1.2732   -0.0610    1.1459 C   0  0  1  0  0  0  0  0  0  0  0  0
    0.0275   -1.7265   -0.3010 C   0  0  1  0  0  0  0  0  0  0  0  0
   -1.6094    1.5160   -0.9146 C   0  0  1  0  0  0  0  0  0  0  0  0
   -0.9948   -2.4894    0.5858 C   0  0  1  0  0  0  0  0  0  0  0  0
    0.2966    0.4604   -1.7235 C   0  0  2  0  0  0  0  0  0  0  0  0
    0.9294   -0.9490    0.6790 C   0  0  1  0  0  0  0  0  0  0  0  0
   -1.6601   -1.4975    1.5657 C   0  0  0  0  0  0  0  0  0  0  0  0
   -1.9477    1.0073    2.0139 C   0  0  0  0  0  0  0  0  0  0  0  0
   -2.1433    2.5874    0.0421 C   0  0  0  0  0  0  0  0  0  0  0  0
   -1.6776    2.4376    1.4990 C   0  0  2  0  0  0  0  0  0  0  0  0
    2.0357   -0.2420   -0.0567 C   0  0  0  0  0  0  0  0  0  0  0  0
    1.7229    0.4192   -1.2524 C   0  0  0  0  0  0  0  0  0  0  0  0
   -2.3927    3.4563    2.3922 C   0  0  0  0  0  0  0  0  0  0  0  0
    3.3480   -0.2285    0.4278 C   0  0  0  0  0  0  0  0  0  0  0  0
    2.7327    1.0870   -1.9556 C   0  0  0  0  0  0  0  0  0  0  0  0
   -2.6740   -4.5607    0.8887 C   0  0  0  0  0  0  0  0  0  0  0  0
   -2.3265    2.8147   -2.7367 C   0  0  0  0  0  0  0  0  0  0  0  0
    4.3484    0.4337   -0.2828 C   0  0  0  0  0  0  0  0  0  0  0  0
    4.0417    1.0891   -1.4739 C   0  0  0  0  0  0  0  0  0  0  0  0
    3.5891   -0.0792    2.7890 C   0  0  0  0  0  0  0  0  0  0  0  0
   -2.6757   -0.2936   -0.4952 H   0  0  0  0  0  0  0  0  0  0  0  0
   -1.1324   -1.1253   -2.0595 H   0  0  0  0  0  0  0  0  0  0  0  0
   -0.4613   -3.2650    1.1493 H   0  0  0  0  0  0  0  0  0  0  0  0
    0.2674    0.4640   -2.8203 H   0  0  0  0  0  0  0  0  0  0  0  0
    1.3431   -1.6310    1.4310 H   0  0  0  0  0  0  0  0  0  0  0  0
   -2.7492   -1.6108    1.6095 H   0  0  0  0  0  0  0  0  0  0  0  0
   -1.2739   -1.6944    2.5744 H   0  0  0  0  0  0  0  0  0  0  0  0
   -3.0300    0.8284    2.0475 H   0  0  0  0  0  0  0  0  0  0  0  0
   -1.5627    0.9215    3.0388 H   0  0  0  0  0  0  0  0  0  0  0  0
   -3.2416    2.5725    0.0178 H   0  0  0  0  0  0  0  0  0  0  0  0
   -1.8240    3.5780   -0.3069 H   0  0  0  0  0  0  0  0  0  0  0  0
    1.2473   -3.2471   -0.4325 H   0  0  0  0  0  0  0  0  0  0  0  0
   -2.1942    4.4801    2.0549 H   0  0  0  0  0  0  0  0  0  0  0  0
   -2.0266    3.3935    3.4233 H   0  0  0  0  0  0  0  0  0  0  0  0
   -3.4762    3.2993    2.3988 H   0  0  0  0  0  0  0  0  0  0  0  0
    2.5032    1.6154   -2.8773 H   0  0  0  0  0  0  0  0  0  0  0  0
   -0.1275    3.6134    1.2426 H   0  0  0  0  0  0  0  0  0  0  0  0
   -3.4376   -5.2393    0.5004 H   0  0  0  0  0  0  0  0  0  0  0  0
   -3.0728   -4.0419    1.7629 H   0  0  0  0  0  0  0  0  0  0  0  0
   -1.7915   -5.1423    1.1658 H   0  0  0  0  0  0  0  0  0  0  0  0
   -2.7303    2.7035   -3.7480 H   0  0  0  0  0  0  0  0  0  0  0  0
   -1.3018    3.1852   -2.8360 H   0  0  0  0  0  0  0  0  0  0  0  0
   -2.9570    3.5497   -2.2280 H   0  0  0  0  0  0  0  0  0  0  0  0
    5.3702    0.4454    0.0871 H   0  0  0  0  0  0  0  0  0  0  0  0
    4.8211    1.6083   -2.0240 H   0  0  0  0  0  0  0  0  0  0  0  0
    3.8407   -0.7259    3.6339 H   0  0  0  0  0  0  0  0  0  0  0  0
    2.5737    0.3027    2.9319 H   0  0  0  0  0  0  0  0  0  0  0  0
    4.3011    0.7517    2.7606 H   0  0  0  0  0  0  0  0  0  0  0  0
  1  7  2  0  0  0  0
  1 14  1  0  0  0  0
  1 26  1  0  0  0  0
  2 11  1  0  0  0  0
  2 16  1  0  0  0  0
  3 13  1  0  0  0  0
  3 15  1  0  0  0  0
  4 12  1  0  0  0  0
  4 42  1  0  0  0  0
  5 13  1  0  0  0  0
  5 27  1  0  0  0  0
  6 20  1  0  0  0  0
  6 47  1  0  0  0  0
  8 24  1  0  0  0  0
  8 30  1  0  0  0  0
  9 10  1  0  0  0  0
  9 11  1  0  0  0  0
  9 13  1  0  0  0  0
  9 31  1  0  0  0  0
 10 12  1  0  0  0  0
 10 15  1  0  0  0  0
 10 32  1  0  0  0  0
 11 17  1  0  0  0  0
 11 18  1  0  0  0  0
 12 14  1  0  0  0  0
 12 16  1  0  0  0  0
 13 19  1  0  0  0  0
 14 17  1  0  0  0  0
 14 33  1  0  0  0  0
 15 22  1  0  0  0  0
 15 34  1  0  0  0  0
 16 21  1  0  0  0  0
 16 35  1  0  0  0  0
 17 36  1  0  0  0  0
 17 37  1  0  0  0  0
 18 20  1  0  0  0  0
 18 38  1  0  0  0  0
 18 39  1  0  0  0  0
 19 20  1  0  0  0  0
 19 40  1  0  0  0  0
 19 41  1  0  0  0  0
 20 23  1  0  0  0  0
 21 22  2  0  0  0  0
 21 24  1  0  0  0  0
 22 25  1  0  0  0  0
 23 43  1  0  0  0  0
 23 44  1  0  0  0  0
 23 45  1  0  0  0  0
 24 28  2  0  0  0  0
 25 29  2  0  0  0  0
 25 46  1  0  0  0  0
 26 48  1  0  0  0  0
 26 49  1  0  0  0  0
 26 50  1  0  0  0  0
 27 51  1  0  0  0  0
 27 52  1  0  0  0  0
 27 53  1  0  0  0  0
 28 29  1  0  0  0  0
 28 54  1  0  0  0  0
 29 55  1  0  0  0  0
 30 56  1  0  0  0  0
 30 57  1  0  0  0  0
 30 58  1  0  0  0  0
M  END
> <PUBCHEM_COMPOUND_CID>
132919089

> <PUBCHEM_CONFORMER_RMSD>
0.8

> <PUBCHEM_CONFORMER_DIVERSEORDER>
1
2

> <PUBCHEM_MMFF94_PARTIAL_CHARGES>
29
1 0.11
11 0.28
12 0.28
13 0.56
14 0.19
15 0.42
16 0.42
2 -0.56
20 0.28
21 -0.14
22 -0.14
24 0.08
25 -0.15
26 0.19
27 0.28
28 -0.15
29 -0.15
3 -0.56
30 0.28
4 -0.68
42 0.4
46 0.15
47 0.4
5 -0.56
54 0.15
55 0.15
6 -0.68
7 -0.5
8 -0.36

> <PUBCHEM_EFFECTIVE_ROTOR_COUNT>
4.4

> <PUBCHEM_PHARMACOPHORE_FEATURES>
14
1 2 acceptor
1 3 acceptor
1 4 acceptor
1 4 donor
1 5 acceptor
1 6 acceptor
1 6 donor
1 7 acceptor
1 8 acceptor
5 3 9 10 13 15 rings
6 10 12 15 16 21 22 rings
6 21 22 24 25 28 29 rings
6 9 11 13 18 19 20 rings
8 2 9 10 11 12 14 16 17 rings

> <PUBCHEM_HEAVY_ATOM_COUNT>
30

> <PUBCHEM_ATOM_DEF_STEREO_COUNT>
9

> <PUBCHEM_ATOM_UDEF_STEREO_COUNT>
1

> <PUBCHEM_BOND_DEF_STEREO_COUNT>
0

> <PUBCHEM_BOND_UDEF_STEREO_COUNT>
0

> <PUBCHEM_ISOTOPIC_ATOM_COUNT>
0

> <PUBCHEM_COMPONENT_COUNT>
1

> <PUBCHEM_CACTVS_TAUTO_COUNT>
1

> <PUBCHEM_CONFORMER_ID>
07EC2F3100000001

> <PUBCHEM_MMFF94_ENERGY>
132.1178

> <PUBCHEM_FEATURE_SELFOVERLAP>
72.098

> <PUBCHEM_SHAPE_FINGERPRINT>
10165383 225 17400696615520172156
10764073 3 15262337939041767187
10863032 1 16986293972893133461
10948715 1 17912952494347435529
11421498 54 17982709919510094045
11578080 2 18049429637402082109
11582403 64 16083874211470154469
11640471 11 17483666810956122665
12156800 1 16814269026592345253
12160290 23 18411132554286249111
12173636 292 18200327506382160536
12422481 6 18042701507219539913
12788726 201 18266187299345265266
13140716 1 18053683626382988475
13149001 5 17984386850355803277
133893 2 17475506184272813405
13583140 156 16988578887595689718
13681431 1 17401774514835500215
13965767 371 17463732746680552329
14142880 1 18190204401525390428
14415361 192 17613694330587819608
14955137 171 16405921021016428599
16945 1 18127160603959188939
17974551 9 15431448200783035784
17980427 26 17478351737619668045
1813 80 17766574816316287766
18981168 100 18123773975128266348
20600515 1 17687736555881921970
21756936 100 18128836170045217324
22112679 90 17692850332712045247
22149856 69 17185940022666076265
22907989 373 18341896337397378828
23419403 2 17767396151918389645
238 59 17466220834541351381
25222932 49 13888962545175408447
2748010 2 17245006838542493141
350125 39 17980793482910129795
35225 105 18341066150120400464
376196 1 16736619058649270949
4340502 62 18048617936397731217
469060 322 17316218109581140672
474 4 17979079275420603448
57527358 35 15907370674920677842
5845 1 17771062992752521158
5895379 119 15975602256604862275
6442390 28 17840062613389153073
6786 2 17838651909626460907
70251023 43 18047203122445749982
9981440 41 17129261391763993738

> <PUBCHEM_SHAPE_MULTIPOLES>
580.15
5.49
4.58
2.64
6.93
1.67
-0.38
1.2
-0.62
-6.58
-0.05
0.03
-1.76
-0.88

> <PUBCHEM_SHAPE_SELFOVERLAP>
1287.721

> <PUBCHEM_SHAPE_VOLUME>
318

> <PUBCHEM_COORDINATE_TYPE>
2
5
10

$$$$
