132991399
  -OEChem-03292013293D

 51 54  0     1  0  0  0  0  0999 V2000
   -1.9355    2.1999    1.3420 P   0  0  2  0  0  0  0  0  0  0  0  0
    2.3050    1.6498    0.8066 O   0  0  0  0  0  0  0  0  0  0  0  0
    3.5865    3.3252   -1.3241 O   0  0  0  0  0  0  0  0  0  0  0  0
    3.8038    0.8032   -2.3392 O   0  0  0  0  0  0  0  0  0  0  0  0
   -0.3501    2.4707    1.1861 O   0  0  0  0  0  0  0  0  0  0  0  0
   -2.1334    0.7401    0.6680 O   0  0  0  0  0  0  0  0  0  0  0  0
   -2.6010    3.1816    0.2396 O   0  0  0  0  0  0  0  0  0  0  0  0
   -2.4719    2.3336    2.7369 O   0  0  0  0  0  0  0  0  0  0  0  0
    4.9276   -1.3744   -0.0795 O   0  0  0  0  0  0  0  0  0  0  0  0
    2.8022   -0.5906    0.3613 N   0  0  0  0  0  0  0  0  0  0  0  0
    3.4245   -2.9036    0.6649 N   0  0  0  0  0  0  0  0  0  0  0  0
    1.8797   -4.4655    1.4275 N   0  0  0  0  0  0  0  0  0  0  0  0
   -3.4450   -3.5641   -1.4275 N   0  0  0  0  0  0  0  0  0  0  0  0
    2.3953    2.5412   -1.3862 C   0  0  2  0  0  0  0  0  0  0  0  0
    1.6928    2.6477   -0.0395 C   0  0  1  0  0  0  0  0  0  0  0  0
    2.7390    1.0681   -1.4491 C   0  0  2  0  0  0  0  0  0  0  0  0
    3.0962    0.7658   -0.0040 C   0  0  1  0  0  0  0  0  0  0  0  0
    0.2002    2.3554   -0.1144 C   0  0  0  0  0  0  0  0  0  0  0  0
   -3.4570    0.4040    0.2444 C   0  0  1  0  0  0  0  0  0  0  0  0
   -3.9572    1.4503   -0.7663 C   0  0  0  0  0  0  0  0  0  0  0  0
    1.5206   -0.9032    0.7902 C   0  0  0  0  0  0  0  0  0  0  0  0
    3.7795   -1.6168    0.2969 C   0  0  0  0  0  0  0  0  0  0  0  0
   -3.9234    2.8609   -0.1793 C   0  0  0  0  0  0  0  0  0  0  0  0
   -3.4531   -0.9879   -0.3423 C   0  0  0  0  0  0  0  0  0  0  0  0
    1.1595   -2.1340    1.1482 C   0  0  0  0  0  0  0  0  0  0  0  0
    2.2117   -3.1802    1.0665 C   0  0  0  0  0  0  0  0  0  0  0  0
   -4.5685   -1.8068   -0.2047 C   0  0  0  0  0  0  0  0  0  0  0  0
   -2.3337   -1.4557   -1.0217 C   0  0  0  0  0  0  0  0  0  0  0  0
   -4.5145   -3.0750   -0.7605 C   0  0  0  0  0  0  0  0  0  0  0  0
   -2.3797   -2.7394   -1.5410 C   0  0  0  0  0  0  0  0  0  0  0  0
    1.8065    2.8884   -2.2400 H   0  0  0  0  0  0  0  0  0  0  0  0
    1.8589    3.6160    0.4460 H   0  0  0  0  0  0  0  0  0  0  0  0
    1.8655    0.4897   -1.7735 H   0  0  0  0  0  0  0  0  0  0  0  0
    4.1541    0.9745    0.1958 H   0  0  0  0  0  0  0  0  0  0  0  0
   -0.0014    1.3594   -0.5150 H   0  0  0  0  0  0  0  0  0  0  0  0
   -0.2774    3.0891   -0.7721 H   0  0  0  0  0  0  0  0  0  0  0  0
    3.3176    4.2566   -1.2465 H   0  0  0  0  0  0  0  0  0  0  0  0
    3.5374    1.1250   -3.2172 H   0  0  0  0  0  0  0  0  0  0  0  0
   -4.0924    0.4135    1.1391 H   0  0  0  0  0  0  0  0  0  0  0  0
   -4.9726    1.2114   -1.1019 H   0  0  0  0  0  0  0  0  0  0  0  0
   -3.3014    1.4353   -1.6469 H   0  0  0  0  0  0  0  0  0  0  0  0
    0.7823   -0.1184    0.8397 H   0  0  0  0  0  0  0  0  0  0  0  0
   -4.2279    3.5927   -0.9334 H   0  0  0  0  0  0  0  0  0  0  0  0
   -4.6002    2.9502    0.6770 H   0  0  0  0  0  0  0  0  0  0  0  0
    0.1616   -2.3836    1.4836 H   0  0  0  0  0  0  0  0  0  0  0  0
   -5.4586   -1.4732    0.3175 H   0  0  0  0  0  0  0  0  0  0  0  0
   -1.4456   -0.8497   -1.1633 H   0  0  0  0  0  0  0  0  0  0  0  0
   -5.3583   -3.7524   -0.6813 H   0  0  0  0  0  0  0  0  0  0  0  0
   -1.5332   -3.1504   -2.0813 H   0  0  0  0  0  0  0  0  0  0  0  0
    0.9472   -4.7117    1.7428 H   0  0  0  0  0  0  0  0  0  0  0  0
    2.5660   -5.2113    1.3874 H   0  0  0  0  0  0  0  0  0  0  0  0
  1  5  1  0  0  0  0
  1  6  1  0  0  0  0
  1  7  1  0  0  0  0
  1  8  2  0  0  0  0
  2 15  1  0  0  0  0
  2 17  1  0  0  0  0
  3 14  1  0  0  0  0
  3 37  1  0  0  0  0
  4 16  1  0  0  0  0
  4 38  1  0  0  0  0
  5 18  1  0  0  0  0
  6 19  1  0  0  0  0
  7 23  1  0  0  0  0
  9 22  2  0  0  0  0
 10 17  1  0  0  0  0
 10 21  1  0  0  0  0
 10 22  1  0  0  0  0
 11 22  1  0  0  0  0
 11 26  2  0  0  0  0
 12 26  1  0  0  0  0
 12 50  1  0  0  0  0
 12 51  1  0  0  0  0
 13 29  2  0  0  0  0
 13 30  1  0  0  0  0
 14 15  1  0  0  0  0
 14 16  1  0  0  0  0
 14 31  1  0  0  0  0
 15 18  1  0  0  0  0
 15 32  1  0  0  0  0
 16 17  1  0  0  0  0
 16 33  1  0  0  0  0
 17 34  1  0  0  0  0
 18 35  1  0  0  0  0
 18 36  1  0  0  0  0
 19 20  1  0  0  0  0
 19 24  1  0  0  0  0
 19 39  1  0  0  0  0
 20 23  1  0  0  0  0
 20 40  1  0  0  0  0
 20 41  1  0  0  0  0
 21 25  2  0  0  0  0
 21 42  1  0  0  0  0
 23 43  1  0  0  0  0
 23 44  1  0  0  0  0
 24 27  2  0  0  0  0
 24 28  1  0  0  0  0
 25 26  1  0  0  0  0
 25 45  1  0  0  0  0
 27 29  1  0  0  0  0
 27 46  1  0  0  0  0
 28 30  2  0  0  0  0
 28 47  1  0  0  0  0
 29 48  1  0  0  0  0
 30 49  1  0  0  0  0
M  END
> <PUBCHEM_COMPOUND_CID>
132991399

> <PUBCHEM_CONFORMER_RMSD>
1.2

> <PUBCHEM_CONFORMER_DIVERSEORDER>
1
55
95
88
21
81
94
37
113
8
90
10
120
14
4
97
72
9
69
20
86
26
64
35
108
100
104
61
67
18
51
70
47
29
92
57
71
96
13
24
105
68
19
85
60
99
44
46
43
116
34
58
5
117
15
75
103
53
98
62
115
87
78
7
91
89
118
114
77
33
107
121
38
16
27
101
36
40
66
54
49
32
56
41
80
106
74
25
73
63
48
83
42
112
11
45
102
65
119
79
110
17
23
52
109
12
30
39
93
28
3
6
111
84
2
122
59
82
22
31
50
76

> <PUBCHEM_MMFF94_PARTIAL_CHARGES>
39
1 1.51
10 -0.47
11 -0.66
12 -0.85
13 -0.62
14 0.28
15 0.28
16 0.28
17 0.58
18 0.28
19 0.42
2 -0.56
21 -0.04
22 0.84
23 0.28
24 -0.14
25 -0.14
26 0.49
27 -0.15
28 -0.15
29 0.16
3 -0.68
30 0.16
37 0.4
38 0.4
4 -0.68
42 0.15
45 0.15
46 0.15
47 0.15
48 0.15
49 0.15
5 -0.55
50 0.4
51 0.4
6 -0.55
7 -0.55
8 -0.7
9 -0.57

> <PUBCHEM_EFFECTIVE_ROTOR_COUNT>
7

> <PUBCHEM_PHARMACOPHORE_FEATURES>
14
1 11 donor
1 12 donor
1 13 acceptor
1 2 acceptor
1 3 acceptor
1 3 donor
1 4 acceptor
1 4 donor
1 8 acceptor
1 9 acceptor
5 2 14 15 16 17 rings
6 1 6 7 19 20 23 rings
6 10 11 21 22 25 26 rings
6 13 24 27 28 29 30 rings

> <PUBCHEM_HEAVY_ATOM_COUNT>
30

> <PUBCHEM_ATOM_DEF_STEREO_COUNT>
6

> <PUBCHEM_ATOM_UDEF_STEREO_COUNT>
0

> <PUBCHEM_BOND_DEF_STEREO_COUNT>
0

> <PUBCHEM_BOND_UDEF_STEREO_COUNT>
0

> <PUBCHEM_ISOTOPIC_ATOM_COUNT>
0

> <PUBCHEM_COMPONENT_COUNT>
1

> <PUBCHEM_CACTVS_TAUTO_COUNT>
3

> <PUBCHEM_CONFORMER_ID>
07ED49A700000001

> <PUBCHEM_MMFF94_ENERGY>
81.1873

> <PUBCHEM_FEATURE_SELFOVERLAP>
71.109

> <PUBCHEM_SHAPE_FINGERPRINT>
10369192 42 15796289450539208380
108634 29 17691130756993083188
10928967 22 18199196272474264839
114674 6 17262987556398201641
12788726 201 18059305348100518057
13004483 165 17467059761844649056
13583140 156 17823147713923114835
13631057 29 18128259093295720956
13726171 33 17773620366731580961
14117953 113 17402883432800201429
14931854 50 18122907796062004919
15297060 5 17701817674891826043
15403338 16 16666840671243696891
15537594 2 18124890190242558955
17909252 39 17487641799510340820
19319366 153 18119801666976773438
20764821 26 17039504159683195435
20775530 9 18339348738907186519
21315764 21 17899380217788480279
22113638 7 18049433743395494023
22393880 68 18411427236482684636
23598288 3 18131339830756123807
238 59 18042125538608242936
238918 7 15607074803488747411
340366 18 18121215373021097403
463206 1 18337954493485514785
474144 1 18335136483843570126
86090 222 17113524373856891219

> <PUBCHEM_SHAPE_MULTIPOLES>
554.36
9.48
5.68
1.7
1.83
2.14
0.07
3.02
-2.57
0.58
0.59
-0.26
-0.34
-3.96

> <PUBCHEM_SHAPE_SELFOVERLAP>
1173.334

> <PUBCHEM_SHAPE_VOLUME>
310.4

> <PUBCHEM_COORDINATE_TYPE>
2
5
10

$$$$
