132965758
  -OEChem-03292013293D

 41 44  0     1  0  0  0  0  0999 V2000
    2.6265   -1.5334    0.0476 O   0  0  0  0  0  0  0  0  0  0  0  0
    1.1826    2.9040   -0.0060 O   0  0  0  0  0  0  0  0  0  0  0  0
   -3.7421   -2.5590   -0.0314 O   0  0  0  0  0  0  0  0  0  0  0  0
   -1.3409    3.3875   -0.0019 O   0  0  0  0  0  0  0  0  0  0  0  0
   -4.4812   -0.0803   -0.0274 O   0  0  0  0  0  0  0  0  0  0  0  0
   -3.8738    2.5255    0.0130 O   0  0  0  0  0  0  0  0  0  0  0  0
    3.3250    0.7925   -0.0089 C   0  0  0  0  0  0  0  0  0  0  0  0
    3.7010   -0.6429    0.4483 C   0  0  2  0  0  0  0  0  0  0  0  0
    1.8369    0.6302    0.0377 C   0  0  0  0  0  0  0  0  0  0  0  0
    1.5135   -0.7212    0.0416 C   0  0  0  0  0  0  0  0  0  0  0  0
    3.8628    1.8435    0.9650 C   0  0  0  0  0  0  0  0  0  0  0  0
    3.7567    1.1313   -1.4432 C   0  0  0  0  0  0  0  0  0  0  0  0
    0.1967   -1.1853    0.0183 C   0  0  0  0  0  0  0  0  0  0  0  0
    0.8422    1.5883    0.0250 C   0  0  0  0  0  0  0  0  0  0  0  0
   -0.8462   -0.2236    0.0105 C   0  0  0  0  0  0  0  0  0  0  0  0
    5.0120   -1.1910   -0.0974 C   0  0  0  0  0  0  0  0  0  0  0  0
   -0.4917    1.1586    0.0168 C   0  0  0  0  0  0  0  0  0  0  0  0
   -0.1089   -2.5596    0.0086 C   0  0  0  0  0  0  0  0  0  0  0  0
   -2.1795   -0.7040   -0.0055 C   0  0  0  0  0  0  0  0  0  0  0  0
   -1.5515    2.1868    0.0051 C   0  0  0  0  0  0  0  0  0  0  0  0
   -2.4686   -2.0732   -0.0151 C   0  0  0  0  0  0  0  0  0  0  0  0
   -1.4309   -2.9974   -0.0084 C   0  0  0  0  0  0  0  0  0  0  0  0
   -3.3074    0.2483   -0.0120 C   0  0  0  0  0  0  0  0  0  0  0  0
    0.9365   -3.6325    0.0177 C   0  0  0  0  0  0  0  0  0  0  0  0
   -2.9698    1.7069    0.0020 C   0  0  0  0  0  0  0  0  0  0  0  0
    3.7454   -0.6932    1.5468 H   0  0  0  0  0  0  0  0  0  0  0  0
    3.6157    2.8626    0.6503 H   0  0  0  0  0  0  0  0  0  0  0  0
    3.4175    0.3757   -2.1617 H   0  0  0  0  0  0  0  0  0  0  0  0
    3.4581    1.7041    1.9742 H   0  0  0  0  0  0  0  0  0  0  0  0
    4.9550    1.7841    1.0332 H   0  0  0  0  0  0  0  0  0  0  0  0
    3.3404    2.0924   -1.7675 H   0  0  0  0  0  0  0  0  0  0  0  0
    4.8468    1.2062   -1.5229 H   0  0  0  0  0  0  0  0  0  0  0  0
    4.9701   -1.3311   -1.1824 H   0  0  0  0  0  0  0  0  0  0  0  0
    5.2080   -2.1818    0.3276 H   0  0  0  0  0  0  0  0  0  0  0  0
    5.8532   -0.5372    0.1500 H   0  0  0  0  0  0  0  0  0  0  0  0
   -1.6672   -4.0590   -0.0159 H   0  0  0  0  0  0  0  0  0  0  0  0
    1.5681   -3.5705   -0.8744 H   0  0  0  0  0  0  0  0  0  0  0  0
    1.5436   -3.5791    0.9272 H   0  0  0  0  0  0  0  0  0  0  0  0
    0.4929   -4.6353    0.0067 H   0  0  0  0  0  0  0  0  0  0  0  0
    0.4008    3.4700   -0.0827 H   0  0  0  0  0  0  0  0  0  0  0  0
   -4.3895   -1.8386   -0.0360 H   0  0  0  0  0  0  0  0  0  0  0  0
  1  8  1  0  0  0  0
  1 10  1  0  0  0  0
  2 14  1  0  0  0  0
  2 40  1  0  0  0  0
  3 21  1  0  0  0  0
  3 41  1  0  0  0  0
  4 20  2  0  0  0  0
  5 23  2  0  0  0  0
  6 25  2  0  0  0  0
  7  8  1  0  0  0  0
  7  9  1  0  0  0  0
  7 11  1  0  0  0  0
  7 12  1  0  0  0  0
  8 16  1  0  0  0  0
  8 26  1  0  0  0  0
  9 10  2  0  0  0  0
  9 14  1  0  0  0  0
 10 13  1  0  0  0  0
 11 27  1  0  0  0  0
 11 29  1  0  0  0  0
 11 30  1  0  0  0  0
 12 28  1  0  0  0  0
 12 31  1  0  0  0  0
 12 32  1  0  0  0  0
 13 15  2  0  0  0  0
 13 18  1  0  0  0  0
 14 17  2  0  0  0  0
 15 17  1  0  0  0  0
 15 19  1  0  0  0  0
 16 33  1  0  0  0  0
 16 34  1  0  0  0  0
 16 35  1  0  0  0  0
 17 20  1  0  0  0  0
 18 22  2  0  0  0  0
 18 24  1  0  0  0  0
 19 21  2  0  0  0  0
 19 23  1  0  0  0  0
 20 25  1  0  0  0  0
 21 22  1  0  0  0  0
 22 36  1  0  0  0  0
 23 25  1  0  0  0  0
 24 37  1  0  0  0  0
 24 38  1  0  0  0  0
 24 39  1  0  0  0  0
M  END
> <PUBCHEM_COMPOUND_CID>
132965758

> <PUBCHEM_CONFORMER_RMSD>
0.6

> <PUBCHEM_CONFORMER_DIVERSEORDER>
1

> <PUBCHEM_MMFF94_PARTIAL_CHARGES>
23
1 -0.36
10 0.08
14 0.08
17 0.09
18 -0.14
19 0.09
2 -0.53
20 0.48
21 0.08
22 -0.15
23 0.48
24 0.14
25 0.57
3 -0.53
36 0.15
4 -0.57
40 0.45
41 0.45
5 -0.57
6 -0.57
7 0.14
8 0.28
9 -0.14

> <PUBCHEM_EFFECTIVE_ROTOR_COUNT>
0.6

> <PUBCHEM_PHARMACOPHORE_FEATURES>
12
1 1 acceptor
1 2 donor
1 25 anion
1 3 donor
1 4 acceptor
1 5 acceptor
1 6 acceptor
3 7 11 12 hydrophobe
5 1 7 8 9 10 rings
6 13 15 18 19 21 22 rings
6 15 17 19 20 23 25 rings
6 9 10 13 14 15 17 rings

> <PUBCHEM_HEAVY_ATOM_COUNT>
25

> <PUBCHEM_ATOM_DEF_STEREO_COUNT>
0

> <PUBCHEM_ATOM_UDEF_STEREO_COUNT>
1

> <PUBCHEM_BOND_DEF_STEREO_COUNT>
0

> <PUBCHEM_BOND_UDEF_STEREO_COUNT>
0

> <PUBCHEM_ISOTOPIC_ATOM_COUNT>
0

> <PUBCHEM_COMPONENT_COUNT>
1

> <PUBCHEM_CACTVS_TAUTO_COUNT>
72

> <PUBCHEM_CONFORMER_ID>
07ECE57E00000001

> <PUBCHEM_MMFF94_ENERGY>
87.2036

> <PUBCHEM_FEATURE_SELFOVERLAP>
61.079

> <PUBCHEM_SHAPE_FINGERPRINT>
10319926 262 18198319923737901416
10411042 1 17978228592818579770
10498660 4 18410011078168814973
10616163 171 18410013199883061795
10759866 29 18113626690006020278
10967382 1 18410573946670968219
1100329 8 17114664012767189618
12173636 292 18410851083619888535
12403259 226 18341608273666509866
12553582 1 17977952611162393918
13140716 1 18411703209442121969
138480 1 16753530488403458219
14081887 123 18198892807175165808
14178342 30 18337657715999257960
14223421 5 18341327890038955128
14790565 3 18339371755769353321
15042514 8 18409451401186591307
15196674 1 18410854407988008714
15442244 35 18409727396001076106
16752209 62 18410853295697058538
16945 1 18193839473176795930
17492 89 18337390543148065930
19591789 44 18410856516838050042
20028762 73 17985551293663755239
20261772 1 18338531814673419019
20510252 161 18270963556354685619
20739085 24 17473854743615355001
20775438 99 16689871501292801823
20905425 154 18053665767787749774
21267235 1 18410019818411775747
2334 1 18122625217452862547
23366157 5 17898297091050020170
23402539 116 18342448210656614910
23557571 272 18199757015104418876
23559900 14 18343017788303944272
238 59 17177393449351037653
2748010 2 18411421743039722734
335352 9 18338797810392841958
34934 24 18267015249112782418
350125 39 18337392647829006284
352729 6 18339081492871953082
5104073 3 18411417340940799418
59755656 215 18267586793312003406
7097593 13 17826776067613979338
7364860 26 17907858405510038766
9709674 26 18271246023696000182

> <PUBCHEM_SHAPE_MULTIPOLES>
479.27
7.65
4.02
0.73
2.35
0.8
0.09
-0.81
0.11
-1.78
-0.07
0.55
-0.15
-0.01

> <PUBCHEM_SHAPE_SELFOVERLAP>
1093.005

> <PUBCHEM_SHAPE_VOLUME>
248.6

> <PUBCHEM_COORDINATE_TYPE>
2
5
10

$$$$
