132960
  -OEChem-03292013323D

 50 51  0     1  0  0  0  0  0999 V2000
    5.9255    0.9702    1.6904 Cl  0  0  0  0  0  0  0  0  0  0  0  0
    3.9896   -2.3790   -2.1641 Cl  0  0  0  0  0  0  0  0  0  0  0  0
    2.8918    0.1408    0.0644 O   0  0  0  0  0  0  0  0  0  0  0  0
    0.5770   -0.0907    1.3905 O   0  0  0  0  0  0  0  0  0  0  0  0
   -3.4210   -0.3724   -0.0681 O   0  0  0  0  0  0  0  0  0  0  0  0
   -2.9383    4.9899   -0.5606 O   0  0  0  0  0  0  0  0  0  0  0  0
   -1.8674    0.1641   -1.6723 O   0  0  0  0  0  0  0  0  0  0  0  0
   -0.7297    4.7339   -1.0153 O   0  0  0  0  0  0  0  0  0  0  0  0
    4.3135    1.0929   -1.4755 O   0  0  0  0  0  0  0  0  0  0  0  0
   -1.7246    0.9980    0.4890 N   0  0  0  0  0  0  0  0  0  0  0  0
   -0.5271    1.7796    0.3356 C   0  0  1  0  0  0  0  0  0  0  0  0
   -0.4570    2.9708    1.2957 C   0  0  0  0  0  0  0  0  0  0  0  0
   -1.6096    3.9638    1.1210 C   0  0  0  0  0  0  0  0  0  0  0  0
    0.6438    0.8375    0.5842 C   0  0  0  0  0  0  0  0  0  0  0  0
    1.8866    1.0812   -0.2501 C   0  0  0  0  0  0  0  0  0  0  0  0
   -2.2967    0.2545   -0.5268 C   0  0  0  0  0  0  0  0  0  0  0  0
   -1.6786    4.5795   -0.2590 C   0  0  0  0  0  0  0  0  0  0  0  0
   -4.1178   -1.1818   -1.0220 C   0  0  0  0  0  0  0  0  0  0  0  0
   -5.3184   -1.7933   -0.3615 C   0  0  0  0  0  0  0  0  0  0  0  0
    4.0668    0.2544   -0.6228 C   0  0  0  0  0  0  0  0  0  0  0  0
    5.0356   -0.7893   -0.2023 C   0  0  0  0  0  0  0  0  0  0  0  0
   -5.2115   -3.0325    0.2698 C   0  0  0  0  0  0  0  0  0  0  0  0
   -6.5413   -1.1227   -0.3790 C   0  0  0  0  0  0  0  0  0  0  0  0
    5.9189   -0.5386    0.8476 C   0  0  0  0  0  0  0  0  0  0  0  0
    5.0633   -2.0199   -0.8582 C   0  0  0  0  0  0  0  0  0  0  0  0
   -6.3274   -3.6010    0.8839 C   0  0  0  0  0  0  0  0  0  0  0  0
   -7.6573   -1.6914    0.2350 C   0  0  0  0  0  0  0  0  0  0  0  0
   -7.5503   -2.9305    0.8665 C   0  0  0  0  0  0  0  0  0  0  0  0
    6.8298   -1.5185    1.2418 C   0  0  0  0  0  0  0  0  0  0  0  0
    5.9742   -3.0000   -0.4640 C   0  0  0  0  0  0  0  0  0  0  0  0
    6.8575   -2.7494    0.5860 C   0  0  0  0  0  0  0  0  0  0  0  0
   -0.4722    2.1100   -0.7074 H   0  0  0  0  0  0  0  0  0  0  0  0
   -0.4613    2.6127    2.3334 H   0  0  0  0  0  0  0  0  0  0  0  0
    0.4970    3.4944    1.1550 H   0  0  0  0  0  0  0  0  0  0  0  0
   -2.5605    3.4602    1.3292 H   0  0  0  0  0  0  0  0  0  0  0  0
   -1.5009    4.7823    1.8412 H   0  0  0  0  0  0  0  0  0  0  0  0
   -2.1535    0.9457    1.4084 H   0  0  0  0  0  0  0  0  0  0  0  0
    1.6112    0.9854   -1.3060 H   0  0  0  0  0  0  0  0  0  0  0  0
    2.2478    2.0933   -0.0396 H   0  0  0  0  0  0  0  0  0  0  0  0
   -4.4281   -0.5649   -1.8745 H   0  0  0  0  0  0  0  0  0  0  0  0
   -3.4511   -1.9680   -1.3977 H   0  0  0  0  0  0  0  0  0  0  0  0
   -4.2637   -3.5637    0.2918 H   0  0  0  0  0  0  0  0  0  0  0  0
   -6.6368   -0.1558   -0.8658 H   0  0  0  0  0  0  0  0  0  0  0  0
   -2.9845    5.4053   -1.4480 H   0  0  0  0  0  0  0  0  0  0  0  0
   -6.2440   -4.5656    1.3761 H   0  0  0  0  0  0  0  0  0  0  0  0
   -8.6095   -1.1691    0.2220 H   0  0  0  0  0  0  0  0  0  0  0  0
   -8.4191   -3.3730    1.3449 H   0  0  0  0  0  0  0  0  0  0  0  0
    7.5253   -1.3395    2.0579 H   0  0  0  0  0  0  0  0  0  0  0  0
    6.0091   -3.9645   -0.9643 H   0  0  0  0  0  0  0  0  0  0  0  0
    7.5668   -3.5124    0.8929 H   0  0  0  0  0  0  0  0  0  0  0  0
  1 24  1  0  0  0  0
  2 25  1  0  0  0  0
  3 15  1  0  0  0  0
  3 20  1  0  0  0  0
  4 14  2  0  0  0  0
  5 16  1  0  0  0  0
  5 18  1  0  0  0  0
  6 17  1  0  0  0  0
  6 44  1  0  0  0  0
  7 16  2  0  0  0  0
  8 17  2  0  0  0  0
  9 20  2  0  0  0  0
 10 11  1  0  0  0  0
 10 16  1  0  0  0  0
 10 37  1  0  0  0  0
 11 12  1  0  0  0  0
 11 14  1  0  0  0  0
 11 32  1  0  0  0  0
 12 13  1  0  0  0  0
 12 33  1  0  0  0  0
 12 34  1  0  0  0  0
 13 17  1  0  0  0  0
 13 35  1  0  0  0  0
 13 36  1  0  0  0  0
 14 15  1  0  0  0  0
 15 38  1  0  0  0  0
 15 39  1  0  0  0  0
 18 19  1  0  0  0  0
 18 40  1  0  0  0  0
 18 41  1  0  0  0  0
 19 22  2  0  0  0  0
 19 23  1  0  0  0  0
 20 21  1  0  0  0  0
 21 24  2  0  0  0  0
 21 25  1  0  0  0  0
 22 26  1  0  0  0  0
 22 42  1  0  0  0  0
 23 27  2  0  0  0  0
 23 43  1  0  0  0  0
 24 29  1  0  0  0  0
 25 30  2  0  0  0  0
 26 28  2  0  0  0  0
 26 45  1  0  0  0  0
 27 28  1  0  0  0  0
 27 46  1  0  0  0  0
 28 47  1  0  0  0  0
 29 31  2  0  0  0  0
 29 48  1  0  0  0  0
 30 31  1  0  0  0  0
 30 49  1  0  0  0  0
 31 50  1  0  0  0  0
M  END
> <PUBCHEM_COMPOUND_CID>
132960

> <PUBCHEM_CONFORMER_RMSD>
1.2

> <PUBCHEM_CONFORMER_DIVERSEORDER>
1
60
58
29
51
4
74
32
67
56
92
84
38
68
23
3
21
93
94
7
9
27
26
40
25
48
39
11
66
69
88
78
46
43
54
86
6
5
90
19
44
81
45
75
50
70
80
13
31
85
73
57
91
96
77
72
59
97
63
14
82
36
61
79
41
71
95
62
12
33
83
42
30
17
53
20
65
24
22
64
55
49
15
10
87
37
89
98
28
47
52
35
2
34
76
16
18
8

> <PUBCHEM_MMFF94_PARTIAL_CHARGES>
40
1 -0.18
10 -0.73
11 0.36
13 0.06
14 0.45
15 0.34
16 0.78
17 0.66
18 0.42
19 -0.14
2 -0.18
20 0.63
21 0.09
22 -0.15
23 -0.15
24 0.18
25 0.18
26 -0.15
27 -0.15
28 -0.15
29 -0.15
3 -0.43
30 -0.15
31 -0.15
37 0.37
4 -0.57
42 0.15
43 0.15
44 0.5
45 0.15
46 0.15
47 0.15
48 0.15
49 0.15
5 -0.43
50 0.15
6 -0.65
7 -0.57
8 -0.57
9 -0.57

> <PUBCHEM_EFFECTIVE_ROTOR_COUNT>
13

> <PUBCHEM_PHARMACOPHORE_FEATURES>
9
1 10 donor
1 4 acceptor
1 6 acceptor
1 7 acceptor
1 8 acceptor
1 9 acceptor
3 6 8 17 anion
6 19 22 23 26 27 28 rings
6 21 24 25 29 30 31 rings

> <PUBCHEM_HEAVY_ATOM_COUNT>
31

> <PUBCHEM_ATOM_DEF_STEREO_COUNT>
1

> <PUBCHEM_ATOM_UDEF_STEREO_COUNT>
0

> <PUBCHEM_BOND_DEF_STEREO_COUNT>
0

> <PUBCHEM_BOND_UDEF_STEREO_COUNT>
0

> <PUBCHEM_ISOTOPIC_ATOM_COUNT>
0

> <PUBCHEM_COMPONENT_COUNT>
1

> <PUBCHEM_CACTVS_TAUTO_COUNT>
6

> <PUBCHEM_CONFORMER_ID>
0002076000000001

> <PUBCHEM_MMFF94_ENERGY>
66.5518

> <PUBCHEM_FEATURE_SELFOVERLAP>
45.732

> <PUBCHEM_SHAPE_FINGERPRINT>
10258939 38 18339065078098260048
11331351 85 18202279247660627641
11809386 21 18265609888500533666
13583140 156 17201899455238088148
13782708 43 18113615724733545483
14347332 77 18409168770910942828
15064981 194 18198916807827735048
16990366 60 18262513835714158179
17686467 74 18340759413001071328
19301679 30 18412829079220896207
20691028 202 9511460017814581626
21716022 299 18116447005766731637
23559900 14 18193833980704798457
24771750 20 17322681124675833597
439807 62 18334295370497052423
513202 73 18411707565182648785
6057620 51 18261399988065575460
6695519 79 16414045557806727598
70251023 43 18410295838938575312
9962374 69 17983572186003515655

> <PUBCHEM_SHAPE_MULTIPOLES>
595.64
21.76
6
1.46
7.28
7.86
0.2
-29.71
-4.47
6.37
0.18
-1.41
-0.1
2.07

> <PUBCHEM_SHAPE_SELFOVERLAP>
1229.52

> <PUBCHEM_SHAPE_VOLUME>
339.4

> <PUBCHEM_COORDINATE_TYPE>
2
5
10

$$$$
