132992416
  -OEChem-03292013293D

 38 40  0     1  0  0  0  0  0999 V2000
   -0.0082    0.1684   -1.4085 O   0  0  0  0  0  0  0  0  0  0  0  0
    0.1462   -0.6653    2.0385 O   0  0  0  0  0  0  0  0  0  0  0  0
    0.3878   -3.4559   -0.2511 O   0  0  0  0  0  0  0  0  0  0  0  0
    2.1036   -2.9328    1.1553 O   0  0  0  0  0  0  0  0  0  0  0  0
    1.9119    2.9716    2.0635 O   0  0  0  0  0  0  0  0  0  0  0  0
   -5.0392   -0.0056    0.7930 O   0  0  0  0  0  0  0  0  0  0  0  0
    0.8336   -0.2358   -0.2896 C   0  0  2  0  0  0  0  0  0  0  0  0
    1.9177    0.8234   -0.0016 C   0  0  1  0  0  0  0  0  0  0  0  0
    1.6041   -1.5044   -0.7291 C   0  0  1  0  0  0  0  0  0  0  0  0
    3.0558    0.4202   -0.9358 C   0  0  0  0  0  0  0  0  0  0  0  0
    3.0801   -1.0950   -0.7958 C   0  0  0  0  0  0  0  0  0  0  0  0
   -0.1204   -0.4046    0.8815 C   0  0  0  0  0  0  0  0  0  0  0  0
    1.4898    2.2441   -0.1725 C   0  0  0  0  0  0  0  0  0  0  0  0
   -1.4488   -0.1822    0.3779 C   0  0  0  0  0  0  0  0  0  0  0  0
    1.4203   -2.6867    0.1726 C   0  0  0  0  0  0  0  0  0  0  0  0
   -1.3002    0.1427   -0.9539 C   0  0  0  0  0  0  0  0  0  0  0  0
    0.9281    2.9335    1.0386 C   0  0  0  0  0  0  0  0  0  0  0  0
    1.5816    2.8676   -1.3569 C   0  0  0  0  0  0  0  0  0  0  0  0
   -2.6752   -0.2437    1.0068 C   0  0  0  0  0  0  0  0  0  0  0  0
   -2.4040    0.4277   -1.7331 C   0  0  0  0  0  0  0  0  0  0  0  0
   -3.7994    0.0397    0.2304 C   0  0  0  0  0  0  0  0  0  0  0  0
   -3.6653    0.3730   -1.1301 C   0  0  0  0  0  0  0  0  0  0  0  0
    2.2939    0.6828    1.0220 H   0  0  0  0  0  0  0  0  0  0  0  0
    1.3054   -1.8026   -1.7437 H   0  0  0  0  0  0  0  0  0  0  0  0
    4.0130    0.8689   -0.6505 H   0  0  0  0  0  0  0  0  0  0  0  0
    2.8740    0.6443   -1.9912 H   0  0  0  0  0  0  0  0  0  0  0  0
    3.5931   -1.5682   -1.6400 H   0  0  0  0  0  0  0  0  0  0  0  0
    3.6350   -1.3666    0.1098 H   0  0  0  0  0  0  0  0  0  0  0  0
    0.6295    3.9638    0.8180 H   0  0  0  0  0  0  0  0  0  0  0  0
    0.0490    2.4023    1.4144 H   0  0  0  0  0  0  0  0  0  0  0  0
    1.2565    3.8998   -1.4549 H   0  0  0  0  0  0  0  0  0  0  0  0
    1.9426    2.4117   -2.2682 H   0  0  0  0  0  0  0  0  0  0  0  0
   -2.7642   -0.4997    2.0563 H   0  0  0  0  0  0  0  0  0  0  0  0
   -2.3035    0.6879   -2.7810 H   0  0  0  0  0  0  0  0  0  0  0  0
    0.2506   -4.2360    0.3275 H   0  0  0  0  0  0  0  0  0  0  0  0
   -4.5453    0.5939   -1.7294 H   0  0  0  0  0  0  0  0  0  0  0  0
    1.5072    3.4094    2.8317 H   0  0  0  0  0  0  0  0  0  0  0  0
   -5.7008    0.2170    0.1156 H   0  0  0  0  0  0  0  0  0  0  0  0
  1  7  1  0  0  0  0
  1 16  1  0  0  0  0
  2 12  2  0  0  0  0
  3 15  1  0  0  0  0
  3 35  1  0  0  0  0
  4 15  2  0  0  0  0
  5 17  1  0  0  0  0
  5 37  1  0  0  0  0
  6 21  1  0  0  0  0
  6 38  1  0  0  0  0
  7  8  1  0  0  0  0
  7  9  1  0  0  0  0
  7 12  1  0  0  0  0
  8 10  1  0  0  0  0
  8 13  1  0  0  0  0
  8 23  1  0  0  0  0
  9 11  1  0  0  0  0
  9 15  1  0  0  0  0
  9 24  1  0  0  0  0
 10 11  1  0  0  0  0
 10 25  1  0  0  0  0
 10 26  1  0  0  0  0
 11 27  1  0  0  0  0
 11 28  1  0  0  0  0
 12 14  1  0  0  0  0
 13 17  1  0  0  0  0
 13 18  2  0  0  0  0
 14 16  2  0  0  0  0
 14 19  1  0  0  0  0
 16 20  1  0  0  0  0
 17 29  1  0  0  0  0
 17 30  1  0  0  0  0
 18 31  1  0  0  0  0
 18 32  1  0  0  0  0
 19 21  2  0  0  0  0
 19 33  1  0  0  0  0
 20 22  2  0  0  0  0
 20 34  1  0  0  0  0
 21 22  1  0  0  0  0
 22 36  1  0  0  0  0
M  END
> <PUBCHEM_COMPOUND_CID>
132992416

> <PUBCHEM_CONFORMER_RMSD>
0.6

> <PUBCHEM_CONFORMER_DIVERSEORDER>
1
13
19
21
17
20
2
16
11
15
9
3
18
10
12
6
14
8
7
5
4

> <PUBCHEM_MMFF94_PARTIAL_CHARGES>
28
1 -0.36
12 0.42
13 -0.28
14 0.09
15 0.66
16 0.08
17 0.42
18 -0.3
19 -0.15
2 -0.57
20 -0.15
21 0.08
22 -0.15
3 -0.65
31 0.15
32 0.15
33 0.15
34 0.15
35 0.5
36 0.15
37 0.4
38 0.45
4 -0.57
5 -0.68
6 -0.53
7 0.34
8 0.14
9 0.06

> <PUBCHEM_EFFECTIVE_ROTOR_COUNT>
4

> <PUBCHEM_PHARMACOPHORE_FEATURES>
12
1 1 acceptor
1 18 hydrophobe
1 2 acceptor
1 3 acceptor
1 4 acceptor
1 5 acceptor
1 5 donor
1 6 donor
3 3 4 15 anion
5 1 7 12 14 16 rings
5 7 8 9 10 11 rings
6 14 16 19 20 21 22 rings

> <PUBCHEM_HEAVY_ATOM_COUNT>
22

> <PUBCHEM_ATOM_DEF_STEREO_COUNT>
2

> <PUBCHEM_ATOM_UDEF_STEREO_COUNT>
1

> <PUBCHEM_BOND_DEF_STEREO_COUNT>
0

> <PUBCHEM_BOND_UDEF_STEREO_COUNT>
0

> <PUBCHEM_ISOTOPIC_ATOM_COUNT>
0

> <PUBCHEM_COMPONENT_COUNT>
1

> <PUBCHEM_CACTVS_TAUTO_COUNT>
3

> <PUBCHEM_CONFORMER_ID>
07ED4DA000000001

> <PUBCHEM_MMFF94_ENERGY>
60.4989

> <PUBCHEM_FEATURE_SELFOVERLAP>
61.069

> <PUBCHEM_SHAPE_FINGERPRINT>
10165383 225 17400119689690830920
104564 63 17983304729034732748
10764073 3 16818488699038459144
11582403 64 16236106183308040429
116883 192 17545316376301169055
12035758 1 18261672679427743664
12236239 1 17489878111081047622
12553582 1 18198056984938134935
12788726 201 17257074983558219315
13134695 92 18273497857853826676
13140716 1 18266738171850254120
13149001 5 18053691301895572726
13583140 156 18342187665746530145
13681431 1 18339074865842923590
13911987 19 18119279266563591558
14617773 55 17687191885414488850
16945 1 18261396628445854710
1813 80 17559414456442834854
18981168 100 17840588415790785145
19049666 15 18041836191188834253
19765921 60 17557977618015117257
20600515 1 16740260606905441712
21041028 32 18124033429781296057
21330990 113 16901593528512836067
21524375 3 18053095409110584428
22112679 90 17772483291287405864
2255824 54 18411142454206445911
23419403 2 15949279698863452628
23526113 38 17677062243374466387
23557571 272 17547268031274224770
23558518 356 17834107924674995630
23559900 14 18259985989920049189
238 59 18189314875538984823
25 1 18269845370531269068
2748010 2 18045793539310358687
283562 15 18123201104401881926
3060560 45 18410576192854663350
350125 39 17762628682437943652
4340502 62 18127693936388102723
474 4 17844234340530045224
495365 180 18337943580464004949
6442390 28 17904494239505624443
70251023 43 17982750570948237166
7364860 26 18408885118396336571
81228 2 17256800097193209482
9981440 41 16409548812704400320

> <PUBCHEM_SHAPE_MULTIPOLES>
417.53
5.62
3.32
1.63
7.07
0.18
0.3
-0.2
-0.4
-3.66
0.83
0.04
-0.62
0.38

> <PUBCHEM_SHAPE_SELFOVERLAP>
918.913

> <PUBCHEM_SHAPE_VOLUME>
226.2

> <PUBCHEM_COORDINATE_TYPE>
2
5
10

$$$$
