132933
  -OEChem-03292013323D

 45 47  0     0  0  0  0  0  0999 V2000
   -0.6732    1.9586    1.9606 S   0  0  0  0  0  0  0  0  0  0  0  0
    3.4853   -1.0203    0.0093 O   0  0  0  0  0  0  0  0  0  0  0  0
   -1.6412    2.5471    2.8673 O   0  0  0  0  0  0  0  0  0  0  0  0
    0.6456    2.5483    1.8328 O   0  0  0  0  0  0  0  0  0  0  0  0
    5.6641    1.7661   -0.5917 O   0  0  0  0  0  0  0  0  0  0  0  0
    5.6385   -0.3196   -1.5064 O   0  0  0  0  0  0  0  0  0  0  0  0
   -0.5393    0.2784    2.3045 N   0  0  0  0  0  0  0  0  0  0  0  0
   -1.9313   -1.6841    0.8929 N   0  0  0  0  0  0  0  0  0  0  0  0
    0.1126   -0.5685    1.3501 C   0  0  0  0  0  0  0  0  0  0  0  0
   -0.6125   -1.5385    0.6635 C   0  0  0  0  0  0  0  0  0  0  0  0
    0.0753   -2.3478   -0.2649 C   0  0  0  0  0  0  0  0  0  0  0  0
   -1.4172    1.9457    0.3546 C   0  0  0  0  0  0  0  0  0  0  0  0
    1.4817   -0.3899    1.1369 C   0  0  0  0  0  0  0  0  0  0  0  0
    1.4523   -2.1683   -0.4796 C   0  0  0  0  0  0  0  0  0  0  0  0
    2.1528   -1.1906    0.2210 C   0  0  0  0  0  0  0  0  0  0  0  0
   -0.6542   -3.3244   -0.9564 C   0  0  0  0  0  0  0  0  0  0  0  0
   -2.5988   -2.6384    0.2047 C   0  0  0  0  0  0  0  0  0  0  0  0
   -2.7962    1.9572    0.2508 C   0  0  0  0  0  0  0  0  0  0  0  0
   -0.6040    1.9245   -0.7638 C   0  0  0  0  0  0  0  0  0  0  0  0
   -2.0132   -3.4768   -0.7221 C   0  0  0  0  0  0  0  0  0  0  0  0
   -2.5792    1.9260   -2.1551 C   0  0  0  0  0  0  0  0  0  0  0  0
   -3.3823    1.9473   -1.0150 C   0  0  0  0  0  0  0  0  0  0  0  0
   -1.1899    1.9148   -2.0296 C   0  0  0  0  0  0  0  0  0  0  0  0
   -4.0580   -2.7659    0.4888 C   0  0  0  0  0  0  0  0  0  0  0  0
   -3.2055    1.9168   -3.5085 C   0  0  0  0  0  0  0  0  0  0  0  0
    4.0096    0.2949    0.1886 C   0  0  0  0  0  0  0  0  0  0  0  0
    5.1782    0.5072   -0.7334 C   0  0  0  0  0  0  0  0  0  0  0  0
   -1.3581   -0.1482    2.7581 H   0  0  0  0  0  0  0  0  0  0  0  0
    2.0145    0.3447    1.7336 H   0  0  0  0  0  0  0  0  0  0  0  0
    1.9820   -2.7928   -1.1964 H   0  0  0  0  0  0  0  0  0  0  0  0
   -0.1669   -3.9716   -1.6820 H   0  0  0  0  0  0  0  0  0  0  0  0
   -3.4384    1.9639    1.1259 H   0  0  0  0  0  0  0  0  0  0  0  0
    0.4787    1.9177   -0.6888 H   0  0  0  0  0  0  0  0  0  0  0  0
   -2.5835   -4.2303   -1.2540 H   0  0  0  0  0  0  0  0  0  0  0  0
   -4.4659    1.9520   -1.0998 H   0  0  0  0  0  0  0  0  0  0  0  0
   -0.5535    1.8965   -2.9103 H   0  0  0  0  0  0  0  0  0  0  0  0
   -4.3775   -2.0361    1.2401 H   0  0  0  0  0  0  0  0  0  0  0  0
   -4.6399   -2.5891   -0.4213 H   0  0  0  0  0  0  0  0  0  0  0  0
   -4.2858   -3.7658    0.8713 H   0  0  0  0  0  0  0  0  0  0  0  0
   -3.3747    0.8864   -3.8367 H   0  0  0  0  0  0  0  0  0  0  0  0
   -4.1647    2.4457   -3.5036 H   0  0  0  0  0  0  0  0  0  0  0  0
   -2.5668    2.4189   -4.2432 H   0  0  0  0  0  0  0  0  0  0  0  0
    3.2696    1.0627   -0.0705 H   0  0  0  0  0  0  0  0  0  0  0  0
    4.3529    0.4050    1.2224 H   0  0  0  0  0  0  0  0  0  0  0  0
    6.4286    1.9322   -1.1835 H   0  0  0  0  0  0  0  0  0  0  0  0
  1  3  2  0  0  0  0
  1  4  2  0  0  0  0
  1  7  1  0  0  0  0
  1 12  1  0  0  0  0
  2 15  1  0  0  0  0
  2 26  1  0  0  0  0
  5 27  1  0  0  0  0
  5 45  1  0  0  0  0
  6 27  2  0  0  0  0
  7  9  1  0  0  0  0
  7 28  1  0  0  0  0
  8 10  1  0  0  0  0
  8 17  2  0  0  0  0
  9 10  2  0  0  0  0
  9 13  1  0  0  0  0
 10 11  1  0  0  0  0
 11 14  2  0  0  0  0
 11 16  1  0  0  0  0
 12 18  2  0  0  0  0
 12 19  1  0  0  0  0
 13 15  2  0  0  0  0
 13 29  1  0  0  0  0
 14 15  1  0  0  0  0
 14 30  1  0  0  0  0
 16 20  2  0  0  0  0
 16 31  1  0  0  0  0
 17 20  1  0  0  0  0
 17 24  1  0  0  0  0
 18 22  1  0  0  0  0
 18 32  1  0  0  0  0
 19 23  2  0  0  0  0
 19 33  1  0  0  0  0
 20 34  1  0  0  0  0
 21 22  2  0  0  0  0
 21 23  1  0  0  0  0
 21 25  1  0  0  0  0
 22 35  1  0  0  0  0
 23 36  1  0  0  0  0
 24 37  1  0  0  0  0
 24 38  1  0  0  0  0
 24 39  1  0  0  0  0
 25 40  1  0  0  0  0
 25 41  1  0  0  0  0
 25 42  1  0  0  0  0
 26 27  1  0  0  0  0
 26 43  1  0  0  0  0
 26 44  1  0  0  0  0
M  END
> <PUBCHEM_COMPOUND_CID>
132933

> <PUBCHEM_CONFORMER_RMSD>
0.8

> <PUBCHEM_CONFORMER_DIVERSEORDER>
1
130
11
8
20
136
107
105
114
49
131
127
109
81
101
26
9
80
92
102
123
122
78
96
33
68
6
85
126
41
87
86
125
99
133
21
76
46
82
52
29
57
75
70
128
5
132
44
67
69
121
7
73
113
18
10
117
2
88
65
104
3
129
39
53
135
15
89
43
112
108
54
4
111
51
124
110
74
79
59
32
90
61
120
77
23
116
63
72
16
14
47
119
25
97
93
134
17
137
30
24
12
91
118
71
13
31
55
115
37
66
100
95
48
103
36
42
56
35
19
22
34
45
62
58
83
64
40
98
94
60
84
106
28
50
38
27

> <PUBCHEM_MMFF94_PARTIAL_CHARGES>
36
1 1.45
10 0.31
12 -0.01
13 -0.15
14 -0.15
15 0.08
16 -0.15
17 0.17
18 -0.15
19 -0.15
2 -0.36
20 -0.15
21 -0.14
22 -0.15
23 -0.15
24 0.14
25 0.14
26 0.34
27 0.66
28 0.42
29 0.15
3 -0.65
30 0.15
31 0.15
32 0.15
33 0.15
34 0.15
35 0.15
36 0.15
4 -0.65
45 0.5
5 -0.65
6 -0.57
7 -0.76
8 -0.62
9 0.2

> <PUBCHEM_EFFECTIVE_ROTOR_COUNT>
6

> <PUBCHEM_PHARMACOPHORE_FEATURES>
11
1 2 acceptor
1 3 acceptor
1 4 acceptor
1 5 acceptor
1 6 acceptor
1 7 donor
1 8 acceptor
3 5 6 27 anion
6 12 18 19 21 22 23 rings
6 8 10 11 16 17 20 rings
6 9 10 11 13 14 15 rings

> <PUBCHEM_HEAVY_ATOM_COUNT>
27

> <PUBCHEM_ATOM_DEF_STEREO_COUNT>
0

> <PUBCHEM_ATOM_UDEF_STEREO_COUNT>
0

> <PUBCHEM_BOND_DEF_STEREO_COUNT>
0

> <PUBCHEM_BOND_UDEF_STEREO_COUNT>
0

> <PUBCHEM_ISOTOPIC_ATOM_COUNT>
0

> <PUBCHEM_COMPONENT_COUNT>
1

> <PUBCHEM_CACTVS_TAUTO_COUNT>
1

> <PUBCHEM_CONFORMER_ID>
0002074500000001

> <PUBCHEM_MMFF94_ENERGY>
69.6601

> <PUBCHEM_FEATURE_SELFOVERLAP>
55.936

> <PUBCHEM_SHAPE_FINGERPRINT>
10577160 183 18188781531766215150
10871710 139 18042701670201385284
10940486 97 14663845615191658625
11045515 52 18047473619211985718
11582403 64 16590540160111987533
11725454 13 17097493094353095724
12156800 1 17463088600475486101
12422481 6 18044406965328239737
12788726 201 18114453569631342658
13149001 5 18055320700275589425
13583140 156 17387991767757609578
13761468 95 17610384534806176900
13947920 24 18334566967090440127
14955137 171 17839487796136040667
17349148 13 17623834744083541426
17357779 13 18195787760858737679
17492 54 18114166511428827213
19319366 153 17268077843757135833
20600515 1 17981913004838147471
21049683 271 17834402593496132646
21285901 2 17545016656488104888
21304303 64 17536321688307013319
22182313 1 17986655155828696800
22907989 373 18201722842825544650
23419403 2 17986098828319544273
238 59 17468182354478974231
352729 6 18126556826047262714
376196 1 16592232261173304845
4409770 3 18341036467507095358
469060 322 17822868574675526371
57527358 35 16372126586191336841
58260988 393 16226331409500508333
5951187 136 15871920139297287437
7237137 82 18338805610575645278

> <PUBCHEM_SHAPE_MULTIPOLES>
520.19
7.71
4.47
2.5
13.7
2.39
0.11
-2.27
4.51
-4.37
0.64
-1.89
-2.48
1.06

> <PUBCHEM_SHAPE_SELFOVERLAP>
1115.974

> <PUBCHEM_SHAPE_VOLUME>
289.2

> <PUBCHEM_COORDINATE_TYPE>
2
5
10

$$$$
