133065509
  -OEChem-03292013293D

 52 54  0     1  0  0  0  0  0999 V2000
    3.7106   -0.8025    0.7825 O   0  0  0  0  0  0  0  0  0  0  0  0
    3.5483    1.5431    0.7587 O   0  0  0  0  0  0  0  0  0  0  0  0
    1.2534   -0.7137   -0.9437 O   0  0  0  0  0  0  0  0  0  0  0  0
    4.3401    0.7789   -1.9820 O   0  0  0  0  0  0  0  0  0  0  0  0
    4.9603   -3.2625    0.3335 O   0  0  0  0  0  0  0  0  0  0  0  0
   -1.0338   -0.8619    1.6638 O   0  0  0  0  0  0  0  0  0  0  0  0
    0.7973    1.3252    1.4775 N   0  0  3  0  0  0  0  0  0  0  0  0
   -1.9625    1.3470   -0.8417 N   0  0  1  0  0  0  0  0  0  0  0  0
   -2.2368    0.1914   -0.0951 N   0  0  0  0  0  0  0  0  0  0  0  0
    2.8263    0.3169    0.6207 C   0  0  1  0  0  0  0  0  0  0  0  0
    2.3256    0.2123   -0.8200 C   0  0  1  0  0  0  0  0  0  0  0  0
    3.5418   -0.3232   -1.5568 C   0  0  2  0  0  0  0  0  0  0  0  0
    4.3028   -1.1169   -0.4927 C   0  0  2  0  0  0  0  0  0  0  0  0
    1.7335    0.2520    1.6799 C   0  0  0  0  0  0  0  0  0  0  0  0
    4.2182   -2.6225   -0.6918 C   0  0  0  0  0  0  0  0  0  0  0  0
   -0.2894    1.1892    0.6893 C   0  0  0  0  0  0  0  0  0  0  0  0
   -0.8195    1.9281   -0.2967 C   0  0  0  0  0  0  0  0  0  0  0  0
    0.9296    2.4933    2.3518 C   0  0  0  0  0  0  0  0  0  0  0  0
   -1.1981    0.0090    0.8239 C   0  0  0  0  0  0  0  0  0  0  0  0
   -0.2706    3.2067   -0.8352 C   0  0  0  0  0  0  0  0  0  0  0  0
   -3.5045   -0.4422   -0.0756 C   0  0  0  0  0  0  0  0  0  0  0  0
   -2.1656    1.3059   -2.2865 C   0  0  0  0  0  0  0  0  0  0  0  0
   -3.6362   -1.7218    0.4636 C   0  0  0  0  0  0  0  0  0  0  0  0
   -4.6201    0.2137   -0.5957 C   0  0  0  0  0  0  0  0  0  0  0  0
   -4.8838   -2.3457    0.4827 C   0  0  0  0  0  0  0  0  0  0  0  0
   -5.8676   -0.4100   -0.5768 C   0  0  0  0  0  0  0  0  0  0  0  0
   -5.9994   -1.6898   -0.0376 C   0  0  0  0  0  0  0  0  0  0  0  0
    2.0053    1.1812   -1.2175 H   0  0  0  0  0  0  0  0  0  0  0  0
    3.2914   -0.9180   -2.4410 H   0  0  0  0  0  0  0  0  0  0  0  0
    5.3553   -0.8152   -0.4324 H   0  0  0  0  0  0  0  0  0  0  0  0
    2.1937    0.3329    2.6745 H   0  0  0  0  0  0  0  0  0  0  0  0
    1.2775   -0.7429    1.6788 H   0  0  0  0  0  0  0  0  0  0  0  0
    4.6346   -2.9142   -1.6608 H   0  0  0  0  0  0  0  0  0  0  0  0
    3.1826   -2.9709   -0.6210 H   0  0  0  0  0  0  0  0  0  0  0  0
    3.6896    1.7033    1.7066 H   0  0  0  0  0  0  0  0  0  0  0  0
    1.0079   -0.7520   -1.8838 H   0  0  0  0  0  0  0  0  0  0  0  0
    5.1309    0.4144   -2.4149 H   0  0  0  0  0  0  0  0  0  0  0  0
    1.8612    3.0280    2.1459 H   0  0  0  0  0  0  0  0  0  0  0  0
    0.9278    2.1845    3.4028 H   0  0  0  0  0  0  0  0  0  0  0  0
    0.1040    3.2021    2.2197 H   0  0  0  0  0  0  0  0  0  0  0  0
    4.8900   -4.2205    0.1823 H   0  0  0  0  0  0  0  0  0  0  0  0
   -0.0040    3.1007   -1.8916 H   0  0  0  0  0  0  0  0  0  0  0  0
    0.6313    3.5271   -0.3052 H   0  0  0  0  0  0  0  0  0  0  0  0
   -1.0131    4.0059   -0.7435 H   0  0  0  0  0  0  0  0  0  0  0  0
   -1.2725    0.9110   -2.7851 H   0  0  0  0  0  0  0  0  0  0  0  0
   -2.3548    2.3150   -2.6677 H   0  0  0  0  0  0  0  0  0  0  0  0
   -3.0043    0.6770   -2.5944 H   0  0  0  0  0  0  0  0  0  0  0  0
   -2.7884   -2.2773    0.8504 H   0  0  0  0  0  0  0  0  0  0  0  0
   -4.5680    1.2247   -0.9889 H   0  0  0  0  0  0  0  0  0  0  0  0
   -4.9857   -3.3447    0.8965 H   0  0  0  0  0  0  0  0  0  0  0  0
   -6.7382    0.1037   -0.9740 H   0  0  0  0  0  0  0  0  0  0  0  0
   -6.9709   -2.1752   -0.0225 H   0  0  0  0  0  0  0  0  0  0  0  0
  1 10  1  0  0  0  0
  1 13  1  0  0  0  0
  2 10  1  0  0  0  0
  2 35  1  0  0  0  0
  3 11  1  0  0  0  0
  3 36  1  0  0  0  0
  4 12  1  0  0  0  0
  4 37  1  0  0  0  0
  5 15  1  0  0  0  0
  5 41  1  0  0  0  0
  6 19  2  0  0  0  0
  7 14  1  0  0  0  0
  7 16  1  0  0  0  0
  7 18  1  0  0  0  0
  8  9  1  0  0  0  0
  8 17  1  0  0  0  0
  8 22  1  0  0  0  0
  9 19  1  0  0  0  0
  9 21  1  0  0  0  0
 10 11  1  0  0  0  0
 10 14  1  0  0  0  0
 11 12  1  0  0  0  0
 11 28  1  0  0  0  0
 12 13  1  0  0  0  0
 12 29  1  0  0  0  0
 13 15  1  0  0  0  0
 13 30  1  0  0  0  0
 14 31  1  0  0  0  0
 14 32  1  0  0  0  0
 15 33  1  0  0  0  0
 15 34  1  0  0  0  0
 16 17  2  0  0  0  0
 16 19  1  0  0  0  0
 17 20  1  0  0  0  0
 18 38  1  0  0  0  0
 18 39  1  0  0  0  0
 18 40  1  0  0  0  0
 20 42  1  0  0  0  0
 20 43  1  0  0  0  0
 20 44  1  0  0  0  0
 21 23  2  0  0  0  0
 21 24  1  0  0  0  0
 22 45  1  0  0  0  0
 22 46  1  0  0  0  0
 22 47  1  0  0  0  0
 23 25  1  0  0  0  0
 23 48  1  0  0  0  0
 24 26  2  0  0  0  0
 24 49  1  0  0  0  0
 25 27  2  0  0  0  0
 25 50  1  0  0  0  0
 26 27  1  0  0  0  0
 26 51  1  0  0  0  0
 27 52  1  0  0  0  0
M  END
> <PUBCHEM_COMPOUND_CID>
133065509

> <PUBCHEM_CONFORMER_RMSD>
1

> <PUBCHEM_CONFORMER_DIVERSEORDER>
2
132
500
370
363
549
505
3
93
557
138
97
124
458
149
134
48
327
471
292
185
6
244
203
367
110
57
493
516
366
153
11
569
9
83
69
157
90
358
406
254
288
115
260
422
58
31
551
224
59
15
233
279
229
559
142
47
173
67
206
54
277
182
42
213
374
104
122
453
503
164
168
56
467
317
65
429
84
475
404
271
257
10
486
542
12
17
451
7
536
204
225
227
161
5
60
324
91
541
114
16
45
4
243
96
205
155
51
68
52
80
24
33
509
331
128
232
289
499
222
483
95
502
184
108
41
189
55
27
1
435
79
452
126
98
87
30
18
357
497
38
501
136
125
37
175
513
318
8
485
397
73
20
210
376

> <PUBCHEM_MMFF94_PARTIAL_CHARGES>
36
1 -0.56
10 0.56
11 0.28
12 0.28
13 0.28
14 0.37
15 0.28
16 0.11
17 -0.04
18 0.37
19 0.62
2 -0.68
20 0.14
21 0.12
22 0.37
23 -0.15
24 -0.15
25 -0.15
26 -0.15
27 -0.15
3 -0.68
35 0.4
36 0.4
37 0.4
4 -0.68
41 0.4
48 0.15
49 0.15
5 -0.68
50 0.15
51 0.15
52 0.15
6 -0.57
7 -0.84
8 -0.49
9 -0.16

> <PUBCHEM_EFFECTIVE_ROTOR_COUNT>
6

> <PUBCHEM_PHARMACOPHORE_FEATURES>
14
1 1 acceptor
1 2 acceptor
1 2 donor
1 3 acceptor
1 3 donor
1 4 acceptor
1 4 donor
1 5 acceptor
1 5 donor
1 6 acceptor
1 7 cation
5 1 10 11 12 13 rings
5 8 9 16 17 19 rings
6 21 23 24 25 26 27 rings

> <PUBCHEM_HEAVY_ATOM_COUNT>
27

> <PUBCHEM_ATOM_DEF_STEREO_COUNT>
0

> <PUBCHEM_ATOM_UDEF_STEREO_COUNT>
4

> <PUBCHEM_BOND_DEF_STEREO_COUNT>
0

> <PUBCHEM_BOND_UDEF_STEREO_COUNT>
0

> <PUBCHEM_ISOTOPIC_ATOM_COUNT>
0

> <PUBCHEM_COMPONENT_COUNT>
1

> <PUBCHEM_CACTVS_TAUTO_COUNT>
1

> <PUBCHEM_CONFORMER_ID>
07EE6B2500000002

> <PUBCHEM_MMFF94_ENERGY>
103.7603

> <PUBCHEM_FEATURE_SELFOVERLAP>
71.097

> <PUBCHEM_SHAPE_FINGERPRINT>
10369192 42 17834381694328338280
10498660 4 13046240372107046998
11128504 68 16732700575638456847
11796584 16 18264201413942043050
12236239 1 16226032406092310641
12422481 6 14763807260185742747
12596602 18 13110958717424045519
12633257 1 16343697759524475559
12892183 10 12247384709608938068
13402501 40 18412826884688592351
13533116 47 17845372318644079211
13544653 18 18131354128659930177
13757389 114 16099676878006396693
13782708 43 18200307853593444039
13955234 65 17914611898038636249
14251751 18 18337104571319237466
14251764 30 18408887360707265047
14347332 77 17896596189585181762
14866123 147 18126007057917659121
14910302 57 18261666008916271359
14951699 99 11743541224564312690
15163728 17 11097855151329489039
15475509 8 18187646869703530237
15664445 248 18115588287137828500
16752209 62 17385997347874359945
17349148 13 13542469799960940105
1813 80 17203615882191796792
18222031 100 17346606274082645382
20775438 99 17757261953209001811
20832881 197 18273216378893002291
21033648 29 14835846110722893675
21033650 10 17168705211320810133
21641784 216 16081357528438934711
2215653 11 18341323470997623151
22182313 1 18265590217687786237
22950370 63 18408047320874873517
23227448 37 10953752118332782379
23557571 272 18188196654807131888
23559900 14 18333728022274800951
23569943 247 18339078165201902995
244849 19 18057294280856322369
25222932 49 18058721554492117622
2838139 119 13767921347157345095
3004659 81 18040997328215216762
3286 77 18131350799691056200
345986 75 16917074347315579507
34797466 226 17458351883266750191
392239 28 15194128576336579546
394222 165 14762931116373562345
463206 1 18342452638473433183
5104073 3 17704073971441039251
56616090 284 18186523176597507483
6823239 73 18190174771083644153
7064713 232 13902187084359347309
8509985 295 13614247009595541883
960060 61 18260833730037549335

> <PUBCHEM_SHAPE_MULTIPOLES>
505.49
11.68
2.92
1.78
7.32
0.2
0.01
10.08
-2.37
-1.51
0.23
-0.96
-0.95
1.28

> <PUBCHEM_SHAPE_SELFOVERLAP>
1077.336

> <PUBCHEM_SHAPE_VOLUME>
280.7

> <PUBCHEM_COORDINATE_TYPE>
2
5
10

$$$$
