133076
  -OEChem-03292013323D

 55 56  0     0  0  0  0  0  0999 V2000
    6.2412    1.4348    2.0529 Cl  0  0  0  0  0  0  0  0  0  0  0  0
   -7.0815    0.9035   -0.1881 S   0  0  0  0  0  0  0  0  0  0  0  0
    3.2847   -2.3706   -1.5891 O   0  0  0  0  0  0  0  0  0  0  0  0
   -6.9507    0.3068   -1.5029 O   0  0  0  0  0  0  0  0  0  0  0  0
   -7.9299    2.0613    0.0200 O   0  0  0  0  0  0  0  0  0  0  0  0
    2.0426    0.3410   -1.9154 O   0  0  0  0  0  0  0  0  0  0  0  0
   -2.1968   -0.4133    0.7286 N   0  0  0  0  0  0  0  0  0  0  0  0
   -5.5387    1.2480    0.4495 N   0  0  0  0  0  0  0  0  0  0  0  0
    4.8296    3.5197    0.3439 N   0  0  0  0  0  0  0  0  0  0  0  0
    0.2289   -1.9442    0.1223 C   0  0  0  0  0  0  0  0  0  0  0  0
   -1.1716   -2.4386   -0.2549 C   0  0  0  0  0  0  0  0  0  0  0  0
    0.1363   -0.9890    1.3171 C   0  0  0  0  0  0  0  0  0  0  0  0
   -2.1369   -1.2698   -0.4633 C   0  0  0  0  0  0  0  0  0  0  0  0
   -0.8726    0.1316    1.0571 C   0  0  0  0  0  0  0  0  0  0  0  0
    1.1606   -3.1141    0.4262 C   0  0  0  0  0  0  0  0  0  0  0  0
   -3.1614    0.6689    0.5334 C   0  0  0  0  0  0  0  0  0  0  0  0
    2.5828   -2.6330    0.7019 C   0  0  0  0  0  0  0  0  0  0  0  0
   -4.5823    0.1378    0.6545 C   0  0  0  0  0  0  0  0  0  0  0  0
    3.1624   -1.8643   -0.4760 C   0  0  0  0  0  0  0  0  0  0  0  0
    3.5947   -0.4510   -0.2667 C   0  0  0  0  0  0  0  0  0  0  0  0
    3.0160    0.5890   -0.9945 C   0  0  0  0  0  0  0  0  0  0  0  0
    4.5906   -0.1765    0.6708 C   0  0  0  0  0  0  0  0  0  0  0  0
   -7.6257   -0.3625    0.9356 C   0  0  0  0  0  0  0  0  0  0  0  0
    3.4332    1.9034   -0.7847 C   0  0  0  0  0  0  0  0  0  0  0  0
    5.0073    1.1381    0.8807 C   0  0  0  0  0  0  0  0  0  0  0  0
    4.4287    2.1781    0.1529 C   0  0  0  0  0  0  0  0  0  0  0  0
    1.5085    1.4649   -2.6118 C   0  0  0  0  0  0  0  0  0  0  0  0
    0.6046   -1.3902   -0.7432 H   0  0  0  0  0  0  0  0  0  0  0  0
   -1.1219   -3.0363   -1.1731 H   0  0  0  0  0  0  0  0  0  0  0  0
   -1.5621   -3.0971    0.5322 H   0  0  0  0  0  0  0  0  0  0  0  0
   -0.1579   -1.5415    2.2191 H   0  0  0  0  0  0  0  0  0  0  0  0
    1.1016   -0.5202    1.5304 H   0  0  0  0  0  0  0  0  0  0  0  0
   -3.1132   -1.7070   -0.6928 H   0  0  0  0  0  0  0  0  0  0  0  0
   -1.8257   -0.6928   -1.3445 H   0  0  0  0  0  0  0  0  0  0  0  0
   -0.5056    0.7799    0.2503 H   0  0  0  0  0  0  0  0  0  0  0  0
   -0.9359    0.7445    1.9645 H   0  0  0  0  0  0  0  0  0  0  0  0
    0.7974   -3.6839    1.2901 H   0  0  0  0  0  0  0  0  0  0  0  0
    1.1699   -3.8029   -0.4279 H   0  0  0  0  0  0  0  0  0  0  0  0
   -3.0304    1.4339    1.3109 H   0  0  0  0  0  0  0  0  0  0  0  0
   -3.0106    1.1802   -0.4268 H   0  0  0  0  0  0  0  0  0  0  0  0
    2.6339   -2.0386    1.6186 H   0  0  0  0  0  0  0  0  0  0  0  0
    3.2361   -3.4977    0.8709 H   0  0  0  0  0  0  0  0  0  0  0  0
   -4.7473   -0.2890    1.6502 H   0  0  0  0  0  0  0  0  0  0  0  0
   -4.7822   -0.6343   -0.0928 H   0  0  0  0  0  0  0  0  0  0  0  0
   -5.5005    1.9595    1.1915 H   0  0  0  0  0  0  0  0  0  0  0  0
    5.0434   -0.9897    1.2342 H   0  0  0  0  0  0  0  0  0  0  0  0
   -7.5746    0.0211    1.9564 H   0  0  0  0  0  0  0  0  0  0  0  0
   -7.0085   -1.2537    0.8152 H   0  0  0  0  0  0  0  0  0  0  0  0
   -8.6621   -0.6039    0.6877 H   0  0  0  0  0  0  0  0  0  0  0  0
    3.0205    2.7525   -1.3197 H   0  0  0  0  0  0  0  0  0  0  0  0
    5.5510    3.7357    1.0191 H   0  0  0  0  0  0  0  0  0  0  0  0
    4.4005    4.2616   -0.1929 H   0  0  0  0  0  0  0  0  0  0  0  0
    0.9989    2.1566   -1.9322 H   0  0  0  0  0  0  0  0  0  0  0  0
    2.2693    1.9612   -3.2239 H   0  0  0  0  0  0  0  0  0  0  0  0
    0.7480    1.0829   -3.3009 H   0  0  0  0  0  0  0  0  0  0  0  0
  1 25  1  0  0  0  0
  2  4  2  0  0  0  0
  2  5  2  0  0  0  0
  2  8  1  0  0  0  0
  2 23  1  0  0  0  0
  3 19  2  0  0  0  0
  6 21  1  0  0  0  0
  6 27  1  0  0  0  0
  7 13  1  0  0  0  0
  7 14  1  0  0  0  0
  7 16  1  0  0  0  0
  8 18  1  0  0  0  0
  8 45  1  0  0  0  0
  9 26  1  0  0  0  0
  9 51  1  0  0  0  0
  9 52  1  0  0  0  0
 10 11  1  0  0  0  0
 10 12  1  0  0  0  0
 10 15  1  0  0  0  0
 10 28  1  0  0  0  0
 11 13  1  0  0  0  0
 11 29  1  0  0  0  0
 11 30  1  0  0  0  0
 12 14  1  0  0  0  0
 12 31  1  0  0  0  0
 12 32  1  0  0  0  0
 13 33  1  0  0  0  0
 13 34  1  0  0  0  0
 14 35  1  0  0  0  0
 14 36  1  0  0  0  0
 15 17  1  0  0  0  0
 15 37  1  0  0  0  0
 15 38  1  0  0  0  0
 16 18  1  0  0  0  0
 16 39  1  0  0  0  0
 16 40  1  0  0  0  0
 17 19  1  0  0  0  0
 17 41  1  0  0  0  0
 17 42  1  0  0  0  0
 18 43  1  0  0  0  0
 18 44  1  0  0  0  0
 19 20  1  0  0  0  0
 20 21  1  0  0  0  0
 20 22  2  0  0  0  0
 21 24  2  0  0  0  0
 22 25  1  0  0  0  0
 22 46  1  0  0  0  0
 23 47  1  0  0  0  0
 23 48  1  0  0  0  0
 23 49  1  0  0  0  0
 24 26  1  0  0  0  0
 24 50  1  0  0  0  0
 25 26  2  0  0  0  0
 27 53  1  0  0  0  0
 27 54  1  0  0  0  0
 27 55  1  0  0  0  0
M  END
> <PUBCHEM_COMPOUND_CID>
133076

> <PUBCHEM_CONFORMER_RMSD>
1

> <PUBCHEM_CONFORMER_DIVERSEORDER>
9
52
346
127
95
146
83
118
265
202
62
21
244
274
208
161
248
286
279
302
148
175
304
338
298
180
294
230
261
19
181
215
204
171
321
138
260
306
312
303
124
158
227
131
141
13
155
167
278
113
7
209
245
17
129
126
169
257
153
64
203
183
236
316
8
61
31
122
111
6
205
43
87
243
214
176
242
324
247
221
108
29
27
54
112
109
149
225
182
82
319
344
94
137
237
334
345
234
42
4
49
165
293
48
199
198
196
330
258
331
235
36
133
14
211
142
89
228
212
156
151
219
323
309
229
1
308
24
271
99
264
184
290
193
85
277
210
249
30
152
57
55
5
2
157
311
317
173
73
333
284
172
77
98
195
144
128
188
305
320
292
269
11
41
170
162
80
332
20
266
256
238
329
74
213
76
328
100
105
179
201
337
15
150
220
187
45
63
96
44
251
166
343
50
310
255
58
340
135
114
262
132
147
289
174
16
68
107
34
288
103
327
18
145
123
336
335
102
226
56
69
287
297
246
32
190
97
283
339
263
67
231
39
315
267
254
178
326
136
222
134
28
38
217
313
186
276
130
91
168
53
177
252
22
307
192
191
299
40
12
197
88
26
275
223
154
185
240
189
296
60
318
270
78
342
33
194
322
159
272
273
200
23
116
239
206
281
314
110
163
25
66
268
160
70
104
259
46
75
325
86
224
341
300
250
84
59
92
65
120
207
51
35
115
282
164
47
37
253
140
233
295
71
117
101
81
72
106
119
3
216
93
218
241
301
143
90
125
79
291
121
10
232
285
280
139

> <PUBCHEM_MMFF94_PARTIAL_CHARGES>
28
1 -0.18
13 0.27
14 0.27
16 0.27
17 0.06
18 0.36
19 0.42
2 1.33
20 0.09
21 0.08
22 -0.15
23 0.11
24 -0.15
25 0.18
26 0.1
27 0.28
3 -0.57
4 -0.65
45 0.42
46 0.15
5 -0.65
50 0.15
51 0.4
52 0.4
6 -0.36
7 -0.81
8 -0.91
9 -0.9

> <PUBCHEM_EFFECTIVE_ROTOR_COUNT>
10.2

> <PUBCHEM_PHARMACOPHORE_FEATURES>
10
1 3 acceptor
1 4 acceptor
1 5 acceptor
1 6 acceptor
1 7 cation
1 8 donor
1 9 cation
1 9 donor
6 20 21 22 24 25 26 rings
6 7 10 11 12 13 14 rings

> <PUBCHEM_HEAVY_ATOM_COUNT>
27

> <PUBCHEM_ATOM_DEF_STEREO_COUNT>
0

> <PUBCHEM_ATOM_UDEF_STEREO_COUNT>
0

> <PUBCHEM_BOND_DEF_STEREO_COUNT>
0

> <PUBCHEM_BOND_UDEF_STEREO_COUNT>
0

> <PUBCHEM_ISOTOPIC_ATOM_COUNT>
0

> <PUBCHEM_COMPONENT_COUNT>
1

> <PUBCHEM_CACTVS_TAUTO_COUNT>
7

> <PUBCHEM_CONFORMER_ID>
000207D400000009

> <PUBCHEM_MMFF94_ENERGY>
67.5946

> <PUBCHEM_FEATURE_SELFOVERLAP>
50.765

> <PUBCHEM_SHAPE_FINGERPRINT>
10673678 19 18343023268402632675
10675989 125 18341618139370913544
11961588 58 16343418501072779054
12422481 6 17748819726467279484
12633257 1 16081373011368722626
13617811 41 18343292683180346393
13690498 29 11023841560539359043
13965767 371 18114172086655079402
14068700 675 17558276415149242506
14117953 113 18412827997760166796
14251764 30 11531022064139890008
14294032 229 18126012803993667675
14461889 52 18187089490085647027
15183329 4 15770056121503275177
15840311 113 18340488877136699629
17492 54 14189294928581308410
17810953 82 18335424573343787852
19319366 153 18270955761554441795
20157964 124 18411703166708772043
20511986 3 18131058351394566925
20715895 44 18409446998828983490
21298829 104 18410575076516912141
21304303 94 11887664113863949066
22149856 69 18268455511310346323
23559900 14 17677630682465663659
25269216 80 16486393504824235933
3472631 163 18201720690693494916
34797466 226 18130795521293147399
4340502 62 18413108372375475386
465052 167 7997973474566241896
513532 50 18201731600343158566
58260988 114 14709979487759802080
58260988 393 17700120295163566102
6036956 94 17111566147447014717
8509985 295 15502380032067477724
9849439 229 18190468340577477332
9981440 41 18198340865798411474

> <PUBCHEM_SHAPE_MULTIPOLES>
522.95
18.4
3.21
1.65
39.61
0.77
-0.63
-13.69
3.96
-3.66
-0.1
-1.51
-0.5
0.86

> <PUBCHEM_SHAPE_SELFOVERLAP>
1047.064

> <PUBCHEM_SHAPE_VOLUME>
310.9

> <PUBCHEM_COORDINATE_TYPE>
2
5
10

$$$$
