1330
  -OEChem-03292013323D

 47 49  0     0  0  0  0  0  0999 V2000
   -6.5700   -0.2745   -0.2279 S   0  0  0  0  0  0  0  0  0  0  0  0
    4.8954    1.1996    0.6405 O   0  0  0  0  0  0  0  0  0  0  0  0
    2.6630   -2.8845    0.0219 O   0  0  0  0  0  0  0  0  0  0  0  0
   -7.1058    0.3390    1.1898 O   0  0  0  0  0  0  0  0  0  0  0  0
   -6.9770    0.6539   -1.2727 O   0  0  0  0  0  0  0  0  0  0  0  0
   -6.9576   -1.6754   -0.2887 O   0  0  0  0  0  0  0  0  0  0  0  0
    2.5725    1.2254    0.5023 N   0  0  0  0  0  0  0  0  0  0  0  0
    3.8072   -0.8513    0.3321 N   0  0  0  0  0  0  0  0  0  0  0  0
    0.1539   -1.2694    0.0599 N   0  0  0  0  0  0  0  0  0  0  0  0
    0.1343    0.9446    0.3204 N   0  0  0  0  0  0  0  0  0  0  0  0
    1.4186    0.4707    0.3422 C   0  0  0  0  0  0  0  0  0  0  0  0
    1.4590   -0.8877    0.1839 C   0  0  0  0  0  0  0  0  0  0  0  0
    2.4871    2.6710    0.6690 C   0  0  0  0  0  0  0  0  0  0  0  0
    3.8346    0.5801    0.5025 C   0  0  0  0  0  0  0  0  0  0  0  0
    5.0965   -1.5344    0.3307 C   0  0  0  0  0  0  0  0  0  0  0  0
    2.6553   -1.6653    0.1653 C   0  0  0  0  0  0  0  0  0  0  0  0
   -0.6055   -0.1314    0.1485 C   0  0  0  0  0  0  0  0  0  0  0  0
    2.5425    3.3651   -0.6896 C   0  0  0  0  0  0  0  0  0  0  0  0
    5.6519   -1.6152   -1.0890 C   0  0  0  0  0  0  0  0  0  0  0  0
   -2.0454   -0.1659    0.0576 C   0  0  0  0  0  0  0  0  0  0  0  0
    2.4768    4.8775   -0.5419 C   0  0  0  0  0  0  0  0  0  0  0  0
    6.9870   -2.3429   -1.1209 C   0  0  0  0  0  0  0  0  0  0  0  0
   -2.7370    0.9268   -0.4641 C   0  0  0  0  0  0  0  0  0  0  0  0
   -2.7442   -1.2919    0.4921 C   0  0  0  0  0  0  0  0  0  0  0  0
   -4.8284   -0.2324   -0.1171 C   0  0  0  0  0  0  0  0  0  0  0  0
   -4.1287    0.8936   -0.5514 C   0  0  0  0  0  0  0  0  0  0  0  0
   -4.1361   -1.3252    0.4047 C   0  0  0  0  0  0  0  0  0  0  0  0
    1.5670    2.9263    1.2076 H   0  0  0  0  0  0  0  0  0  0  0  0
    3.3263    3.0069    1.2893 H   0  0  0  0  0  0  0  0  0  0  0  0
    5.7999   -1.0022    0.9811 H   0  0  0  0  0  0  0  0  0  0  0  0
    4.9766   -2.5431    0.7429 H   0  0  0  0  0  0  0  0  0  0  0  0
   -0.1776   -2.2144   -0.0841 H   0  0  0  0  0  0  0  0  0  0  0  0
    3.4661    3.0936   -1.2148 H   0  0  0  0  0  0  0  0  0  0  0  0
    1.7108    3.0282   -1.3198 H   0  0  0  0  0  0  0  0  0  0  0  0
    4.9427   -2.1361   -1.7433 H   0  0  0  0  0  0  0  0  0  0  0  0
    5.7795   -0.6077   -1.5024 H   0  0  0  0  0  0  0  0  0  0  0  0
    1.5467    5.1832   -0.0522 H   0  0  0  0  0  0  0  0  0  0  0  0
    3.3174    5.2504    0.0519 H   0  0  0  0  0  0  0  0  0  0  0  0
    2.5164    5.3563   -1.5253 H   0  0  0  0  0  0  0  0  0  0  0  0
    7.7299   -1.8261   -0.5050 H   0  0  0  0  0  0  0  0  0  0  0  0
    6.8842   -3.3674   -0.7495 H   0  0  0  0  0  0  0  0  0  0  0  0
    7.3686   -2.3897   -2.1457 H   0  0  0  0  0  0  0  0  0  0  0  0
   -2.2110    1.8135   -0.8097 H   0  0  0  0  0  0  0  0  0  0  0  0
   -2.2366   -2.1540    0.9174 H   0  0  0  0  0  0  0  0  0  0  0  0
   -4.6473    1.7585   -0.9553 H   0  0  0  0  0  0  0  0  0  0  0  0
   -4.6599   -2.2085    0.7590 H   0  0  0  0  0  0  0  0  0  0  0  0
   -6.8444    1.2721    1.3723 H   0  0  0  0  0  0  0  0  0  0  0  0
  1  4  1  0  0  0  0
  1  5  2  0  0  0  0
  1  6  2  0  0  0  0
  1 25  1  0  0  0  0
  2 14  2  0  0  0  0
  3 16  2  0  0  0  0
  4 47  1  0  0  0  0
  7 11  1  0  0  0  0
  7 13  1  0  0  0  0
  7 14  1  0  0  0  0
  8 14  1  0  0  0  0
  8 15  1  0  0  0  0
  8 16  1  0  0  0  0
  9 12  1  0  0  0  0
  9 17  1  0  0  0  0
  9 32  1  0  0  0  0
 10 11  1  0  0  0  0
 10 17  2  0  0  0  0
 11 12  2  0  0  0  0
 12 16  1  0  0  0  0
 13 18  1  0  0  0  0
 13 28  1  0  0  0  0
 13 29  1  0  0  0  0
 15 19  1  0  0  0  0
 15 30  1  0  0  0  0
 15 31  1  0  0  0  0
 17 20  1  0  0  0  0
 18 21  1  0  0  0  0
 18 33  1  0  0  0  0
 18 34  1  0  0  0  0
 19 22  1  0  0  0  0
 19 35  1  0  0  0  0
 19 36  1  0  0  0  0
 20 23  2  0  0  0  0
 20 24  1  0  0  0  0
 21 37  1  0  0  0  0
 21 38  1  0  0  0  0
 21 39  1  0  0  0  0
 22 40  1  0  0  0  0
 22 41  1  0  0  0  0
 22 42  1  0  0  0  0
 23 26  1  0  0  0  0
 23 43  1  0  0  0  0
 24 27  2  0  0  0  0
 24 44  1  0  0  0  0
 25 26  2  0  0  0  0
 25 27  1  0  0  0  0
 26 45  1  0  0  0  0
 27 46  1  0  0  0  0
M  END
> <PUBCHEM_COMPOUND_CID>
1330

> <PUBCHEM_CONFORMER_RMSD>
0.8

> <PUBCHEM_CONFORMER_DIVERSEORDER>
1
4
8
10
2
6
5
3
7
9

> <PUBCHEM_MMFF94_PARTIAL_CHARGES>
29
1 1.49
10 -0.57
11 0.29
12 -0.24
13 0.3
14 0.69
15 0.3
16 0.71
17 0.13
2 -0.57
20 0.05
23 -0.15
24 -0.15
25 -0.01
26 -0.15
27 -0.15
3 -0.57
32 0.27
4 -0.68
43 0.15
44 0.15
45 0.15
46 0.15
47 0.5
5 -0.65
6 -0.65
7 -0.42
8 -0.42
9 0.03

> <PUBCHEM_EFFECTIVE_ROTOR_COUNT>
6

> <PUBCHEM_PHARMACOPHORE_FEATURES>
13
1 2 acceptor
1 21 hydrophobe
1 22 hydrophobe
1 3 acceptor
1 4 acceptor
1 5 acceptor
1 6 acceptor
1 9 donor
3 9 10 17 cation
4 1 4 5 6 anion
5 9 10 11 12 17 rings
6 20 23 24 25 26 27 rings
6 7 8 11 12 14 16 rings

> <PUBCHEM_HEAVY_ATOM_COUNT>
27

> <PUBCHEM_ATOM_DEF_STEREO_COUNT>
0

> <PUBCHEM_ATOM_UDEF_STEREO_COUNT>
0

> <PUBCHEM_BOND_DEF_STEREO_COUNT>
0

> <PUBCHEM_BOND_UDEF_STEREO_COUNT>
0

> <PUBCHEM_ISOTOPIC_ATOM_COUNT>
0

> <PUBCHEM_COMPONENT_COUNT>
1

> <PUBCHEM_CACTVS_TAUTO_COUNT>
3

> <PUBCHEM_CONFORMER_ID>
0000053200000001

> <PUBCHEM_MMFF94_ENERGY>
36.2115

> <PUBCHEM_FEATURE_SELFOVERLAP>
66.142

> <PUBCHEM_SHAPE_FINGERPRINT>
10050765 1 18193276514591885187
10366900 7 17603587404560188225
10411042 1 18266176137706237074
10763959 59 18261105262640100589
11386260 185 18337660984459217477
12166972 35 18272371962125751328
12236239 1 17489868241684103171
12403259 415 18040707057456350349
12616971 3 17917985110003103469
13533116 47 18131067160188193016
14170010 4 18412259554137008856
14341114 176 18411700989081387673
14790565 3 17398677186533670333
15081414 286 18411979187663215776
15183329 4 18339077099795844059
15361156 5 18188218688274138543
15419008 47 17894907399975877669
15439362 3 18193841668480850916
15849732 13 17917426510851851934
16728300 4 12533960184434593782
17844677 252 18410295800948286517
18681886 176 18412539908095749786
19427546 62 18263923422067589690
21049683 271 18333740109014782004
21130935 74 18131631209938468251
21133410 127 17678731465488877365
21267235 1 18271529706449476442
21365058 113 18335992995318244684
21792961 116 18042133068324865746
221357 26 18409727331260075076
23559900 14 18409164449999594553
23576562 1 18338521962082038318
239999 70 18410009948624525906
24771293 8 18127955586122803512
249057 3 18413106160457151927
29717793 49 17632580431052577854
3004659 81 18407757023481760930
335352 9 18412826880815352070
350125 39 18409448102725528321
3545911 37 18335138678903985715
397830 11 17823427179150627889
4073 2 18186804720837416915
46194498 28 18187922915087653100
59755656 215 18261109643132215195
9709674 26 18263082269897451058
9999458 23 18261388992368587598

> <PUBCHEM_SHAPE_MULTIPOLES>
510.23
17.67
3.62
0.92
19.97
4.9
0.11
-8.22
3.29
-6.78
0.77
-0.1
0.04
1.1

> <PUBCHEM_SHAPE_SELFOVERLAP>
1080.466

> <PUBCHEM_SHAPE_VOLUME>
288.1

> <PUBCHEM_COORDINATE_TYPE>
2
5
10

$$$$
