133081
  -OEChem-03292013323D

 62 65  0     0  0  0  0  0  0999 V2000
   -2.7282   -3.3306    0.6357 S   0  0  0  0  0  0  0  0  0  0  0  0
    4.6579   -0.7242    1.6515 O   0  0  0  0  0  0  0  0  0  0  0  0
   -1.8245   -2.4675    1.3801 O   0  0  0  0  0  0  0  0  0  0  0  0
   -4.0250   -3.6836    1.1925 O   0  0  0  0  0  0  0  0  0  0  0  0
    1.0290    2.4981    0.4963 N   0  0  0  0  0  0  0  0  0  0  0  0
    3.3671    0.9810   -0.1290 N   0  0  0  0  0  0  0  0  0  0  0  0
   -5.4521    2.3721   -0.2183 N   0  0  0  0  0  0  0  0  0  0  0  0
    4.8676    0.3427   -1.8332 N   0  0  0  0  0  0  0  0  0  0  0  0
    6.6034   -1.2631   -1.3688 N   0  0  0  0  0  0  0  0  0  0  0  0
   -1.9175   -4.7769    0.2170 N   0  0  0  0  0  0  0  0  0  0  0  0
    2.2747    3.1765    0.1173 C   0  0  0  0  0  0  0  0  0  0  0  0
    1.3356    1.2669    1.2347 C   0  0  0  0  0  0  0  0  0  0  0  0
    0.1875    3.3829    1.3010 C   0  0  0  0  0  0  0  0  0  0  0  0
    3.1388    2.2806   -0.7730 C   0  0  0  0  0  0  0  0  0  0  0  0
    2.1696    0.3071    0.3822 C   0  0  0  0  0  0  0  0  0  0  0  0
   -1.2643    2.9080    1.2697 C   0  0  0  0  0  0  0  0  0  0  0  0
   -1.8198    2.9189   -0.1584 C   0  0  0  0  0  0  0  0  0  0  0  0
   -3.2330    2.4210   -0.2231 C   0  0  0  0  0  0  0  0  0  0  0  0
    4.4638    0.2213   -0.5515 C   0  0  0  0  0  0  0  0  0  0  0  0
   -3.6487    1.0739   -0.4164 C   0  0  0  0  0  0  0  0  0  0  0  0
   -5.0452    1.0709   -0.4094 C   0  0  0  0  0  0  0  0  0  0  0  0
   -4.3641    3.1953   -0.1044 C   0  0  0  0  0  0  0  0  0  0  0  0
   -2.9688   -0.1469   -0.5973 C   0  0  0  0  0  0  0  0  0  0  0  0
   -3.7094   -1.3227   -0.7640 C   0  0  0  0  0  0  0  0  0  0  0  0
    5.0705   -0.6096    0.3682 C   0  0  0  0  0  0  0  0  0  0  0  0
   -5.7987   -0.0966   -0.5748 C   0  0  0  0  0  0  0  0  0  0  0  0
   -2.9958   -2.6199   -0.9557 C   0  0  0  0  0  0  0  0  0  0  0  0
   -5.1026   -1.2956   -0.7527 C   0  0  0  0  0  0  0  0  0  0  0  0
    6.1463   -1.3351   -0.1013 C   0  0  0  0  0  0  0  0  0  0  0  0
    5.9275   -0.4171   -2.1693 C   0  0  0  0  0  0  0  0  0  0  0  0
    5.3804   -1.6246    2.4964 C   0  0  0  0  0  0  0  0  0  0  0  0
   -0.7219   -4.7029   -0.6418 C   0  0  0  0  0  0  0  0  0  0  0  0
    2.0512    4.0933   -0.4418 H   0  0  0  0  0  0  0  0  0  0  0  0
    2.8434    3.4678    1.0108 H   0  0  0  0  0  0  0  0  0  0  0  0
    1.8793    1.4938    2.1620 H   0  0  0  0  0  0  0  0  0  0  0  0
    0.4202    0.7365    1.5166 H   0  0  0  0  0  0  0  0  0  0  0  0
    0.2072    4.4026    0.8939 H   0  0  0  0  0  0  0  0  0  0  0  0
    0.5440    3.4555    2.3364 H   0  0  0  0  0  0  0  0  0  0  0  0
    4.0914    2.7943   -0.9534 H   0  0  0  0  0  0  0  0  0  0  0  0
    2.6507    2.1297   -1.7445 H   0  0  0  0  0  0  0  0  0  0  0  0
    1.5720   -0.0435   -0.4700 H   0  0  0  0  0  0  0  0  0  0  0  0
    2.3961   -0.5784    0.9830 H   0  0  0  0  0  0  0  0  0  0  0  0
   -1.8641    3.5828    1.8945 H   0  0  0  0  0  0  0  0  0  0  0  0
   -1.3736    1.9141    1.7180 H   0  0  0  0  0  0  0  0  0  0  0  0
   -1.7790    3.9392   -0.5615 H   0  0  0  0  0  0  0  0  0  0  0  0
   -1.2047    2.3014   -0.8235 H   0  0  0  0  0  0  0  0  0  0  0  0
   -4.4939    4.2573    0.0512 H   0  0  0  0  0  0  0  0  0  0  0  0
   -1.8823   -0.1709   -0.6052 H   0  0  0  0  0  0  0  0  0  0  0  0
   -6.4151    2.6749   -0.1691 H   0  0  0  0  0  0  0  0  0  0  0  0
   -6.8834   -0.0765   -0.5663 H   0  0  0  0  0  0  0  0  0  0  0  0
   -3.5852   -3.3174   -1.5590 H   0  0  0  0  0  0  0  0  0  0  0  0
   -2.0332   -2.4558   -1.4482 H   0  0  0  0  0  0  0  0  0  0  0  0
   -5.6714   -2.2135   -0.8838 H   0  0  0  0  0  0  0  0  0  0  0  0
    6.7221   -2.0276    0.5011 H   0  0  0  0  0  0  0  0  0  0  0  0
    6.2730   -0.3393   -3.1929 H   0  0  0  0  0  0  0  0  0  0  0  0
   -2.5124   -5.5915    0.0162 H   0  0  0  0  0  0  0  0  0  0  0  0
    5.3023   -2.6568    2.1388 H   0  0  0  0  0  0  0  0  0  0  0  0
    6.4216   -1.3082    2.6190 H   0  0  0  0  0  0  0  0  0  0  0  0
    4.9115   -1.5877    3.4850 H   0  0  0  0  0  0  0  0  0  0  0  0
   -0.1202   -5.6022   -0.4818 H   0  0  0  0  0  0  0  0  0  0  0  0
   -1.0139   -4.6686   -1.6943 H   0  0  0  0  0  0  0  0  0  0  0  0
   -0.1069   -3.8349   -0.3909 H   0  0  0  0  0  0  0  0  0  0  0  0
  1  3  2  0  0  0  0
  1  4  2  0  0  0  0
  1 10  1  0  0  0  0
  1 27  1  0  0  0  0
  2 25  1  0  0  0  0
  2 31  1  0  0  0  0
  5 11  1  0  0  0  0
  5 12  1  0  0  0  0
  5 13  1  0  0  0  0
  6 14  1  0  0  0  0
  6 15  1  0  0  0  0
  6 19  1  0  0  0  0
  7 21  1  0  0  0  0
  7 22  1  0  0  0  0
  7 49  1  0  0  0  0
  8 19  2  0  0  0  0
  8 30  1  0  0  0  0
  9 29  1  0  0  0  0
  9 30  2  0  0  0  0
 10 32  1  0  0  0  0
 10 56  1  0  0  0  0
 11 14  1  0  0  0  0
 11 33  1  0  0  0  0
 11 34  1  0  0  0  0
 12 15  1  0  0  0  0
 12 35  1  0  0  0  0
 12 36  1  0  0  0  0
 13 16  1  0  0  0  0
 13 37  1  0  0  0  0
 13 38  1  0  0  0  0
 14 39  1  0  0  0  0
 14 40  1  0  0  0  0
 15 41  1  0  0  0  0
 15 42  1  0  0  0  0
 16 17  1  0  0  0  0
 16 43  1  0  0  0  0
 16 44  1  0  0  0  0
 17 18  1  0  0  0  0
 17 45  1  0  0  0  0
 17 46  1  0  0  0  0
 18 20  1  0  0  0  0
 18 22  2  0  0  0  0
 19 25  1  0  0  0  0
 20 21  2  0  0  0  0
 20 23  1  0  0  0  0
 21 26  1  0  0  0  0
 22 47  1  0  0  0  0
 23 24  2  0  0  0  0
 23 48  1  0  0  0  0
 24 27  1  0  0  0  0
 24 28  1  0  0  0  0
 25 29  2  0  0  0  0
 26 28  2  0  0  0  0
 26 50  1  0  0  0  0
 27 51  1  0  0  0  0
 27 52  1  0  0  0  0
 28 53  1  0  0  0  0
 29 54  1  0  0  0  0
 30 55  1  0  0  0  0
 31 57  1  0  0  0  0
 31 58  1  0  0  0  0
 31 59  1  0  0  0  0
 32 60  1  0  0  0  0
 32 61  1  0  0  0  0
 32 62  1  0  0  0  0
M  END
> <PUBCHEM_COMPOUND_CID>
133081

> <PUBCHEM_CONFORMER_RMSD>
1.2

> <PUBCHEM_CONFORMER_DIVERSEORDER>
1
29
117
127
132
11
33
122
111
85
41
38
126
43
144
162
164
86
166
146
175
27
63
123
91
179
150
165
98
21
151
35
19
10
92
100
177
31
115
78
145
183
131
113
54
169
87
148
158
32
125
155
160
173
8
51
9
178
39
59
28
14
45
99
30
138
73
116
34
170
143
25
133
130
107
71
121
67
5
96
108
180
2
46
185
23
110
94
184
134
124
42
44
66
58
105
72
76
152
60
81
48
80
129
24
139
68
6
40
167
112
104
109
18
103
168
49
157
36
181
4
70
118
140
7
3
61
12
142
171
26
147
22
114
65
88
106
64
47
154
16
56
163
102
95
141
120
161
13
17
119
97
52
15
20
93
75
74
50
79
172
82
69
84
176
182
57
137
159
136
89
149
135
128
156
53
77
62
90
101
153
55
174
37
83

> <PUBCHEM_MMFF94_PARTIAL_CHARGES>
38
1 1.33
10 -0.91
11 0.27
12 0.27
13 0.27
14 0.37
15 0.37
17 0.18
18 -0.18
19 0.41
2 -0.36
21 -0.15
22 -0.3
23 -0.15
24 -0.14
25 0.08
26 -0.15
27 0.25
28 -0.15
29 0.16
3 -0.65
30 0.47
31 0.28
32 0.36
4 -0.65
47 0.15
48 0.15
49 0.27
5 -0.81
50 0.15
53 0.15
54 0.15
55 0.15
56 0.42
6 -0.84
7 0.03
8 -0.62
9 -0.62

> <PUBCHEM_EFFECTIVE_ROTOR_COUNT>
10.2

> <PUBCHEM_PHARMACOPHORE_FEATURES>
13
1 10 donor
1 2 acceptor
1 3 acceptor
1 4 acceptor
1 5 cation
1 7 cation
1 7 donor
3 6 8 19 cation
3 8 9 30 cation
5 7 18 20 21 22 rings
6 20 21 23 24 26 28 rings
6 5 6 11 12 14 15 rings
6 8 9 19 25 29 30 rings

> <PUBCHEM_HEAVY_ATOM_COUNT>
32

> <PUBCHEM_ATOM_DEF_STEREO_COUNT>
0

> <PUBCHEM_ATOM_UDEF_STEREO_COUNT>
0

> <PUBCHEM_BOND_DEF_STEREO_COUNT>
0

> <PUBCHEM_BOND_UDEF_STEREO_COUNT>
0

> <PUBCHEM_ISOTOPIC_ATOM_COUNT>
0

> <PUBCHEM_COMPONENT_COUNT>
1

> <PUBCHEM_CACTVS_TAUTO_COUNT>
1

> <PUBCHEM_CONFORMER_ID>
000207D900000001

> <PUBCHEM_MMFF94_ENERGY>
79.7161

> <PUBCHEM_FEATURE_SELFOVERLAP>
66.221

> <PUBCHEM_SHAPE_FINGERPRINT>
10462674 296 16831498563269091654
10677394 353 18335715975019361179
12712778 12 18339625803136971106
13165053 182 16882479477717590932
13402501 40 18131634456669428661
14251757 5 18409735057827015314
14279260 333 18340485548521942094
14289585 56 17095516253961543837
14725015 67 18343009017901318733
14866123 147 18413110576727452425
14931854 50 18337662041236741733
15001296 14 18261948660708720440
15183329 4 18408322159715863268
15320294 125 17970608715624473450
15351339 4 18266736883735046979
15399243 27 17915742187391811807
16719943 64 18339075995604256867
17627616 140 18121782720958193967
17909252 39 18053388978947816136
19958102 18 18336257951349276044
20775530 9 18194967567632526853
21133410 230 18188795915484894115
21792965 302 18115035220858769340
22440779 20 16954820723294607555
23379529 103 18268717279874561700
23428019 142 18410014316690343575
23559900 14 18271517684847272617
23572383 38 18131632279410951692
3004659 81 18410856538640454068
3383291 50 18343577456775971839
3388396 114 14445702727779338933
3610482 184 17968393302467459582
3737641 26 17904773519706606705
395649 100 18410865344029604254
4073 2 18265330793068197440
4394409 98 18118103810885996941
44062 13 18412265064310738413
4435113 14 17989486342509562608
463206 1 18409444778125605056
474144 1 17823960269558081803
49967989 163 18338537295674713822
508706 21 18341898506192872479
5265222 85 18409172082563583917
5309563 4 17041476688186649863
54324442 115 18340210807257554663
57307002 85 17703243814619247708

> <PUBCHEM_SHAPE_MULTIPOLES>
614.9
15.92
5.85
1.58
14.71
4.11
-0.27
3.77
4.13
-6.38
-1.26
2.68
0.53
0.01

> <PUBCHEM_SHAPE_SELFOVERLAP>
1295.54

> <PUBCHEM_SHAPE_VOLUME>
348.7

> <PUBCHEM_COORDINATE_TYPE>
2
5
10

$$$$
