133077
  -OEChem-03292013323D

 51 53  0     1  0  0  0  0  0999 V2000
   -0.9837   -5.0774   -1.3811 F   0  0  0  0  0  0  0  0  0  0  0  0
   -0.8044    2.7573   -1.1411 O   0  0  0  0  0  0  0  0  0  0  0  0
   -2.1978   -0.4877    2.7400 O   0  0  0  0  0  0  0  0  0  0  0  0
   -5.3933    0.7484    1.1613 O   0  0  0  0  0  0  0  0  0  0  0  0
    4.8382    0.8519    1.5746 O   0  0  0  0  0  0  0  0  0  0  0  0
    6.8869   -0.6908    1.4921 O   0  0  0  0  0  0  0  0  0  0  0  0
    6.1220   -1.6653   -0.4279 O   0  0  0  0  0  0  0  0  0  0  0  0
    3.9192   -0.0593   -0.4017 N   0  0  0  0  0  0  0  0  0  0  0  0
   -2.9614   -0.7012    1.5399 C   0  0  1  0  0  0  0  0  0  0  0  0
   -3.0404    0.5924    0.7350 C   0  0  0  0  0  0  0  0  0  0  0  0
    0.3744    2.0541   -0.9566 C   0  0  0  0  0  0  0  0  0  0  0  0
   -2.4363   -1.8621    0.7647 C   0  0  0  0  0  0  0  0  0  0  0  0
   -1.8799    1.0764    0.1682 C   0  0  0  0  0  0  0  0  0  0  0  0
   -1.9348    2.2578   -0.5713 C   0  0  0  0  0  0  0  0  0  0  0  0
    0.7269    1.0734   -1.8680 C   0  0  0  0  0  0  0  0  0  0  0  0
    1.1734    2.3480    0.1353 C   0  0  0  0  0  0  0  0  0  0  0  0
   -4.2524    1.2346    0.5972 C   0  0  0  0  0  0  0  0  0  0  0  0
    2.7314    0.6488   -0.5876 C   0  0  0  0  0  0  0  0  0  0  0  0
    1.9143    0.3654   -1.6821 C   0  0  0  0  0  0  0  0  0  0  0  0
    2.3608    1.6401    0.3211 C   0  0  0  0  0  0  0  0  0  0  0  0
   -3.1486    2.9275   -0.7267 C   0  0  0  0  0  0  0  0  0  0  0  0
   -4.3073    2.4160   -0.1424 C   0  0  0  0  0  0  0  0  0  0  0  0
   -3.3010   -2.6246   -0.0206 C   0  0  0  0  0  0  0  0  0  0  0  0
   -1.0809   -2.1860    0.8254 C   0  0  0  0  0  0  0  0  0  0  0  0
   -0.1342    0.7558   -3.0462 C   0  0  0  0  0  0  0  0  0  0  0  0
    0.7944    3.4058    1.1190 C   0  0  0  0  0  0  0  0  0  0  0  0
   -2.8104   -3.7111   -0.7449 C   0  0  0  0  0  0  0  0  0  0  0  0
   -0.5902   -3.2722    0.1009 C   0  0  0  0  0  0  0  0  0  0  0  0
   -1.4550   -4.0350   -0.6841 C   0  0  0  0  0  0  0  0  0  0  0  0
    4.8502    0.0869    0.6240 C   0  0  0  0  0  0  0  0  0  0  0  0
    6.0199   -0.8682    0.4834 C   0  0  0  0  0  0  0  0  0  0  0  0
   -3.9548   -0.9815    1.9090 H   0  0  0  0  0  0  0  0  0  0  0  0
   -0.9600    0.5325    0.3359 H   0  0  0  0  0  0  0  0  0  0  0  0
    2.2030   -0.4098   -2.3884 H   0  0  0  0  0  0  0  0  0  0  0  0
    2.9534    1.8986    1.1880 H   0  0  0  0  0  0  0  0  0  0  0  0
   -3.1972    3.8482   -1.3017 H   0  0  0  0  0  0  0  0  0  0  0  0
   -5.2460    2.9483   -0.2715 H   0  0  0  0  0  0  0  0  0  0  0  0
   -4.3589   -2.3821   -0.0781 H   0  0  0  0  0  0  0  0  0  0  0  0
   -0.3833   -1.6079    1.4254 H   0  0  0  0  0  0  0  0  0  0  0  0
   -0.9896    0.1460   -2.7390 H   0  0  0  0  0  0  0  0  0  0  0  0
    0.4202    0.1990   -3.8097 H   0  0  0  0  0  0  0  0  0  0  0  0
   -0.4976    1.6707   -3.5261 H   0  0  0  0  0  0  0  0  0  0  0  0
    1.6565    3.7345    1.7099 H   0  0  0  0  0  0  0  0  0  0  0  0
    0.4067    4.2953    0.6111 H   0  0  0  0  0  0  0  0  0  0  0  0
    0.0350    3.0275    1.8105 H   0  0  0  0  0  0  0  0  0  0  0  0
   -2.3551    0.4218    3.0456 H   0  0  0  0  0  0  0  0  0  0  0  0
   -3.4832   -4.3045   -1.3569 H   0  0  0  0  0  0  0  0  0  0  0  0
    0.4654   -3.5233    0.1463 H   0  0  0  0  0  0  0  0  0  0  0  0
    4.1211   -0.7660   -1.1058 H   0  0  0  0  0  0  0  0  0  0  0  0
   -6.1321    1.3435    0.9466 H   0  0  0  0  0  0  0  0  0  0  0  0
    7.6572   -1.2949    1.4299 H   0  0  0  0  0  0  0  0  0  0  0  0
  1 29  1  0  0  0  0
  2 11  1  0  0  0  0
  2 14  1  0  0  0  0
  3  9  1  0  0  0  0
  3 46  1  0  0  0  0
  4 17  1  0  0  0  0
  4 50  1  0  0  0  0
  5 30  2  0  0  0  0
  6 31  1  0  0  0  0
  6 51  1  0  0  0  0
  7 31  2  0  0  0  0
  8 18  1  0  0  0  0
  8 30  1  0  0  0  0
  8 49  1  0  0  0  0
  9 10  1  0  0  0  0
  9 12  1  0  0  0  0
  9 32  1  0  0  0  0
 10 13  1  0  0  0  0
 10 17  2  0  0  0  0
 11 15  2  0  0  0  0
 11 16  1  0  0  0  0
 12 23  2  0  0  0  0
 12 24  1  0  0  0  0
 13 14  2  0  0  0  0
 13 33  1  0  0  0  0
 14 21  1  0  0  0  0
 15 19  1  0  0  0  0
 15 25  1  0  0  0  0
 16 20  2  0  0  0  0
 16 26  1  0  0  0  0
 17 22  1  0  0  0  0
 18 19  2  0  0  0  0
 18 20  1  0  0  0  0
 19 34  1  0  0  0  0
 20 35  1  0  0  0  0
 21 22  2  0  0  0  0
 21 36  1  0  0  0  0
 22 37  1  0  0  0  0
 23 27  1  0  0  0  0
 23 38  1  0  0  0  0
 24 28  2  0  0  0  0
 24 39  1  0  0  0  0
 25 40  1  0  0  0  0
 25 41  1  0  0  0  0
 25 42  1  0  0  0  0
 26 43  1  0  0  0  0
 26 44  1  0  0  0  0
 26 45  1  0  0  0  0
 27 29  2  0  0  0  0
 27 47  1  0  0  0  0
 28 29  1  0  0  0  0
 28 48  1  0  0  0  0
 30 31  1  0  0  0  0
M  END
> <PUBCHEM_COMPOUND_CID>
133077

> <PUBCHEM_CONFORMER_RMSD>
0.8

> <PUBCHEM_CONFORMER_DIVERSEORDER>
9
55
91
80
85
35
94
57
12
44
97
56
64
87
20
66
84
58
73
82
81
72
98
93
30
36
59
92
22
95
19
60
71
45
32
52
63
51
11
46
49
21
3
17
50
77
67
47
40
86
74
53
76
4
75
48
42
96
39
61
7
65
83
24
62
33
29
70
16
68
38
69
88
6
41
79
27
14
5
25
89
90
54
28
31
43
10
78
23
18
8
2
34
26
15
1
13
37

> <PUBCHEM_MMFF94_PARTIAL_CHARGES>
44
1 -0.19
10 -0.14
11 0.08
12 -0.14
13 -0.15
14 0.08
15 -0.14
16 -0.14
17 0.08
18 0.12
19 -0.15
2 -0.17
20 -0.15
21 -0.15
22 -0.15
23 -0.15
24 -0.15
25 0.14
26 0.14
27 -0.15
28 -0.15
29 0.19
3 -0.68
30 0.63
31 0.72
33 0.15
34 0.15
35 0.15
36 0.15
37 0.15
38 0.15
39 0.15
4 -0.53
46 0.4
47 0.15
48 0.15
49 0.37
5 -0.57
50 0.45
51 0.5
6 -0.65
7 -0.57
8 -0.55
9 0.57

> <PUBCHEM_EFFECTIVE_ROTOR_COUNT>
7

> <PUBCHEM_PHARMACOPHORE_FEATURES>
12
1 2 acceptor
1 3 acceptor
1 3 donor
1 4 donor
1 5 acceptor
1 6 acceptor
1 7 acceptor
1 8 donor
3 6 7 31 anion
6 10 13 14 17 21 22 rings
6 11 15 16 18 19 20 rings
6 12 23 24 27 28 29 rings

> <PUBCHEM_HEAVY_ATOM_COUNT>
31

> <PUBCHEM_ATOM_DEF_STEREO_COUNT>
0

> <PUBCHEM_ATOM_UDEF_STEREO_COUNT>
1

> <PUBCHEM_BOND_DEF_STEREO_COUNT>
0

> <PUBCHEM_BOND_UDEF_STEREO_COUNT>
0

> <PUBCHEM_ISOTOPIC_ATOM_COUNT>
0

> <PUBCHEM_COMPONENT_COUNT>
1

> <PUBCHEM_CACTVS_TAUTO_COUNT>
6

> <PUBCHEM_CONFORMER_ID>
000207D500000009

> <PUBCHEM_MMFF94_ENERGY>
98.4162

> <PUBCHEM_FEATURE_SELFOVERLAP>
60.966

> <PUBCHEM_SHAPE_FINGERPRINT>
10483366 6 18338216255548826343
11014199 57 17976259359314566906
11049842 53 17468225256902747452
11513181 2 18124587587763245695
11524674 6 18339070472244419126
11720765 8 17265230543329808407
12156800 1 16912797260364311855
12422481 6 17823980030781322162
12553582 1 17111871799384522961
12633257 1 18129119946506980121
12717326 68 17550080998845811402
13004483 165 17981041139752169167
13402501 40 18264775367622340512
13583140 156 17774431819629720024
14114206 34 16805588292180928304
14114207 22 17533483557039186171
14844126 61 18335134302073686272
14866123 147 18409161108526178683
15183329 4 12175629482355675704
16728300 4 17823689768375754075
20578428 11 15438713670814076541
20775530 9 17766294440951028519
21344244 246 18266449916038373519
21781055 127 17979945742376612789
229767 44 18411420630706990307
23728640 28 18408609179880312475
238918 7 18341339876865774582
3383291 50 18411416194353543627
3459 110 18197484333165282008
4017518 198 18341047398467935190
484985 159 18262216890027746814
5080951 261 17824234095973166176
508706 21 18411990160645242102
5265222 85 18261692401838575732
7288768 16 11815354752442083319

> <PUBCHEM_SHAPE_MULTIPOLES>
590.49
10.82
5.17
1.89
18.77
5.1
0.48
1.91
-5.05
-4.92
1.47
0.07
-0.17
-0.22

> <PUBCHEM_SHAPE_SELFOVERLAP>
1290.132

> <PUBCHEM_SHAPE_VOLUME>
321

> <PUBCHEM_COORDINATE_TYPE>
2
5
10

$$$$
