133109216
  -OEChem-03292013293D

 52 55  0     1  0  0  0  0  0999 V2000
    5.3939   -0.5454   -1.4070 O   0  0  0  0  0  0  0  0  0  0  0  0
    4.7354   -2.9109    0.3733 O   0  0  0  0  0  0  0  0  0  0  0  0
   -2.6006   -1.3139    0.3239 O   0  0  0  0  0  0  0  0  0  0  0  0
   -4.3349    2.4192   -0.7537 O   0  0  0  0  0  0  0  0  0  0  0  0
   -5.1175   -3.5966   -0.8061 O   0  0  0  0  0  0  0  0  0  0  0  0
   -4.8657   -1.3645   -1.1834 O   0  0  0  0  0  0  0  0  0  0  0  0
   -1.4807   -1.5027    1.1424 N   0  0  0  0  0  0  0  0  0  0  0  0
    3.1479    0.2354   -0.6901 C   0  0  2  0  0  0  0  0  0  0  0  0
    2.0084   -0.4630    0.1173 C   0  0  2  0  0  0  0  0  0  0  0  0
    1.5085    0.3746    1.3207 C   0  0  1  0  0  0  0  0  0  0  0  0
    4.3945   -0.6365   -0.4068 C   0  0  1  0  0  0  0  0  0  0  0  0
    1.0889    1.8136    0.9195 C   0  0  1  0  0  0  0  0  0  0  0  0
    3.3877    1.6853   -0.2271 C   0  0  0  0  0  0  0  0  0  0  0  0
    2.5850   -1.8282    0.5553 C   0  0  0  0  0  0  0  0  0  0  0  0
    3.8303   -2.0458   -0.2897 C   0  0  2  0  0  0  0  0  0  0  0  0
    2.0769    2.4536   -0.0869 C   0  0  0  0  0  0  0  0  0  0  0  0
    2.7837    0.2316   -2.1945 C   0  0  0  0  0  0  0  0  0  0  0  0
    0.3816   -0.3085    2.0973 C   0  0  0  0  0  0  0  0  0  0  0  0
   -0.3647    1.9399    0.4688 C   0  0  0  0  0  0  0  0  0  0  0  0
   -0.8643   -0.3711    1.2519 C   0  0  0  0  0  0  0  0  0  0  0  0
   -1.2935    0.8917    0.6095 C   0  0  0  0  0  0  0  0  0  0  0  0
   -0.8263    3.1632   -0.0535 C   0  0  0  0  0  0  0  0  0  0  0  0
   -2.6232    1.0545    0.1951 C   0  0  0  0  0  0  0  0  0  0  0  0
   -2.1489    3.3219   -0.4688 C   0  0  0  0  0  0  0  0  0  0  0  0
   -3.0442    2.2658   -0.3503 C   0  0  0  0  0  0  0  0  0  0  0  0
   -3.2723   -2.5593    0.2082 C   0  0  0  0  0  0  0  0  0  0  0  0
   -4.4860   -2.4039   -0.6654 C   0  0  0  0  0  0  0  0  0  0  0  0
    1.1604   -0.6571   -0.5524 H   0  0  0  0  0  0  0  0  0  0  0  0
    2.3536    0.4692    2.0188 H   0  0  0  0  0  0  0  0  0  0  0  0
    4.8691   -0.3604    0.5440 H   0  0  0  0  0  0  0  0  0  0  0  0
    1.1441    2.4079    1.8447 H   0  0  0  0  0  0  0  0  0  0  0  0
    4.0457    2.2078   -0.9326 H   0  0  0  0  0  0  0  0  0  0  0  0
    3.9091    1.7035    0.7385 H   0  0  0  0  0  0  0  0  0  0  0  0
    2.8499   -1.8340    1.6202 H   0  0  0  0  0  0  0  0  0  0  0  0
    1.8608   -2.6372    0.4094 H   0  0  0  0  0  0  0  0  0  0  0  0
    3.6007   -2.4754   -1.2706 H   0  0  0  0  0  0  0  0  0  0  0  0
    2.3005    3.4785    0.2369 H   0  0  0  0  0  0  0  0  0  0  0  0
    1.6237    2.5519   -1.0803 H   0  0  0  0  0  0  0  0  0  0  0  0
    2.6828   -0.7871   -2.5835 H   0  0  0  0  0  0  0  0  0  0  0  0
    3.5495    0.7388   -2.7914 H   0  0  0  0  0  0  0  0  0  0  0  0
    1.8313    0.7387   -2.3810 H   0  0  0  0  0  0  0  0  0  0  0  0
    0.1456    0.2552    3.0085 H   0  0  0  0  0  0  0  0  0  0  0  0
    0.6658   -1.3175    2.4138 H   0  0  0  0  0  0  0  0  0  0  0  0
    5.6780    0.3834   -1.4519 H   0  0  0  0  0  0  0  0  0  0  0  0
    4.2833   -3.7621    0.5024 H   0  0  0  0  0  0  0  0  0  0  0  0
   -0.1547    4.0141   -0.1419 H   0  0  0  0  0  0  0  0  0  0  0  0
   -3.4569    0.4163    0.4569 H   0  0  0  0  0  0  0  0  0  0  0  0
   -2.4729    4.2748   -0.8781 H   0  0  0  0  0  0  0  0  0  0  0  0
   -4.8139    1.5825   -0.6270 H   0  0  0  0  0  0  0  0  0  0  0  0
   -2.6008   -3.2930   -0.2506 H   0  0  0  0  0  0  0  0  0  0  0  0
   -3.5946   -2.8938    1.2001 H   0  0  0  0  0  0  0  0  0  0  0  0
   -5.9148   -3.5239   -1.3730 H   0  0  0  0  0  0  0  0  0  0  0  0
  1 11  1  0  0  0  0
  1 44  1  0  0  0  0
  2 15  1  0  0  0  0
  2 45  1  0  0  0  0
  3  7  1  0  0  0  0
  3 26  1  0  0  0  0
  4 25  1  0  0  0  0
  4 49  1  0  0  0  0
  5 27  1  0  0  0  0
  5 52  1  0  0  0  0
  6 27  2  0  0  0  0
  7 20  2  0  0  0  0
  8  9  1  0  0  0  0
  8 11  1  0  0  0  0
  8 13  1  0  0  0  0
  8 17  1  0  0  0  0
  9 10  1  0  0  0  0
  9 14  1  0  0  0  0
  9 28  1  0  0  0  0
 10 12  1  0  0  0  0
 10 18  1  0  0  0  0
 10 29  1  0  0  0  0
 11 15  1  0  0  0  0
 11 30  1  0  0  0  0
 12 16  1  0  0  0  0
 12 19  1  0  0  0  0
 12 31  1  0  0  0  0
 13 16  1  0  0  0  0
 13 32  1  0  0  0  0
 13 33  1  0  0  0  0
 14 15  1  0  0  0  0
 14 34  1  0  0  0  0
 14 35  1  0  0  0  0
 15 36  1  0  0  0  0
 16 37  1  0  0  0  0
 16 38  1  0  0  0  0
 17 39  1  0  0  0  0
 17 40  1  0  0  0  0
 17 41  1  0  0  0  0
 18 20  1  0  0  0  0
 18 42  1  0  0  0  0
 18 43  1  0  0  0  0
 19 21  2  0  0  0  0
 19 22  1  0  0  0  0
 20 21  1  0  0  0  0
 21 23  1  0  0  0  0
 22 24  2  0  0  0  0
 22 46  1  0  0  0  0
 23 25  2  0  0  0  0
 23 47  1  0  0  0  0
 24 25  1  0  0  0  0
 24 48  1  0  0  0  0
 26 27  1  0  0  0  0
 26 50  1  0  0  0  0
 26 51  1  0  0  0  0
M  END
> <PUBCHEM_COMPOUND_CID>
133109216

> <PUBCHEM_CONFORMER_RMSD>
0.8

> <PUBCHEM_CONFORMER_DIVERSEORDER>
2
8
12
21
23
41
13
1
4
37
3
27
6
16
34
29
25
11
42
31
28
7
20
17
38
10
22
35
30
15
36
26
24
14
40
5
33
18
39
32
19
9

> <PUBCHEM_MMFF94_PARTIAL_CHARGES>
27
1 -0.68
11 0.28
12 0.14
15 0.28
18 0.06
19 -0.14
2 -0.68
20 0.3
21 0.09
22 -0.15
23 -0.15
24 -0.15
25 0.08
26 0.34
27 0.66
3 -0.22
4 -0.53
44 0.4
45 0.4
46 0.15
47 0.15
48 0.15
49 0.45
5 -0.65
52 0.5
6 -0.57
7 -0.51

> <PUBCHEM_EFFECTIVE_ROTOR_COUNT>
4.2

> <PUBCHEM_PHARMACOPHORE_FEATURES>
13
1 1 acceptor
1 1 donor
1 2 acceptor
1 2 donor
1 4 donor
1 5 acceptor
1 6 acceptor
1 7 acceptor
3 5 6 27 anion
5 8 9 11 14 15 rings
6 10 12 18 19 20 21 rings
6 19 21 22 23 24 25 rings
6 8 9 10 12 13 16 rings

> <PUBCHEM_HEAVY_ATOM_COUNT>
27

> <PUBCHEM_ATOM_DEF_STEREO_COUNT>
3

> <PUBCHEM_ATOM_UDEF_STEREO_COUNT>
3

> <PUBCHEM_BOND_DEF_STEREO_COUNT>
1

> <PUBCHEM_BOND_UDEF_STEREO_COUNT>
0

> <PUBCHEM_ISOTOPIC_ATOM_COUNT>
0

> <PUBCHEM_COMPONENT_COUNT>
1

> <PUBCHEM_CACTVS_TAUTO_COUNT>
175

> <PUBCHEM_CONFORMER_ID>
07EF15E000000002

> <PUBCHEM_MMFF94_ENERGY>
104.1729

> <PUBCHEM_FEATURE_SELFOVERLAP>
66.166

> <PUBCHEM_SHAPE_FINGERPRINT>
10756046 5 18334857212121564384
10906281 52 17684092752852017689
11578080 2 17917984005732837576
116883 192 18338508768105846145
12553582 1 18335709402621775299
13690498 29 18339379499426141790
14790565 3 17907302053091407145
15210252 30 17532081881698450637
15664445 248 18050286165629142841
17357779 13 18263645246079254641
17909252 39 18341048630853886795
17980427 23 17676772071901981764
20775438 99 17909224227181057621
21033648 29 12396867782877760140
21703447 108 18339069497613916778
221357 26 18263915713492908391
22393880 68 18339091410732239654
23379529 103 18272374152453674647
23419403 2 17488722562988496616
23557571 272 18269257088618000496
23559900 14 18267303137145624792
23566358 2 18263347244147841509
2748010 2 16964087553311848185
2871803 45 18338237196943937786
3117164 225 10159713373368692972
38695281 34 17760930637095422993
44062 13 18340772524554913854
46194498 28 17612017575676383199
463206 1 18196371411963668726
70251023 43 18338519741420603963
7164475 11 18408884044395926322
7399639 24 17913192441343715208
9709674 26 18408325496984794432

> <PUBCHEM_SHAPE_MULTIPOLES>
515.45
9.73
4.13
1.4
1.19
0.15
0
7.67
-4.61
4.2
-0.63
-0.48
0.19
-0.49

> <PUBCHEM_SHAPE_SELFOVERLAP>
1117.53

> <PUBCHEM_SHAPE_VOLUME>
278.5

> <PUBCHEM_COORDINATE_TYPE>
2
5
10

$$$$
