133126693
  -OEChem-03292013293D

 58 60  0     1  0  0  0  0  0999 V2000
   -2.4680   -0.9649   -0.1936 O   0  0  0  0  0  0  0  0  0  0  0  0
   -0.7263    0.8082   -1.2593 O   0  0  0  0  0  0  0  0  0  0  0  0
    1.5489   -2.4808    0.9612 O   0  0  0  0  0  0  0  0  0  0  0  0
    1.2679    2.4583   -1.2047 O   0  0  0  0  0  0  0  0  0  0  0  0
   -0.8127   -3.2482   -0.2530 O   0  0  0  0  0  0  0  0  0  0  0  0
   -1.0566    2.6885    1.1120 O   0  0  0  0  0  0  0  0  0  0  0  0
    1.0379    0.6359    0.4738 C   0  0  2  0  0  0  0  0  0  0  0  0
    1.7868   -0.4580   -0.4195 C   0  0  1  0  0  0  0  0  0  0  0  0
   -0.5260    0.5203    0.1423 C   0  0  2  0  0  0  0  0  0  0  0  0
    3.3679   -0.3966   -0.4210 C   0  0  0  0  0  0  0  0  0  0  0  0
   -1.1325   -0.9042    0.3669 C   0  0  2  0  0  0  0  0  0  0  0  0
    1.1955   -1.8884   -0.2790 C   0  0  2  0  0  0  0  0  0  0  0  0
    1.6499    2.0467    0.1074 C   0  0  1  0  0  0  0  0  0  0  0  0
   -0.3287   -1.9225   -0.4860 C   0  0  1  0  0  0  0  0  0  0  0  0
    3.8207    1.0506   -0.7330 C   0  0  0  0  0  0  0  0  0  0  0  0
    3.1817    2.0967    0.1687 C   0  0  0  0  0  0  0  0  0  0  0  0
    1.2481    0.4595    1.9996 C   0  0  0  0  0  0  0  0  0  0  0  0
   -1.4418    1.5662    0.7862 C   0  0  0  0  0  0  0  0  0  0  0  0
   -1.2656   -1.3940    1.8249 C   0  0  0  0  0  0  0  0  0  0  0  0
    3.9301   -1.2839   -1.5638 C   0  0  0  0  0  0  0  0  0  0  0  0
    4.0552   -0.8794    0.8710 C   0  0  0  0  0  0  0  0  0  0  0  0
   -3.3882    0.1016    0.0589 C   0  0  2  0  0  0  0  0  0  0  0  0
   -2.8860    1.1802    1.0242 C   0  0  0  0  0  0  0  0  0  0  0  0
   -4.6563   -0.5462    0.6293 C   0  0  0  0  0  0  0  0  0  0  0  0
   -3.7462    0.7033   -1.2746 C   0  0  0  0  0  0  0  0  0  0  0  0
   -3.6555    0.0510   -2.4386 C   0  0  0  0  0  0  0  0  0  0  0  0
    1.5507   -0.1820   -1.4574 H   0  0  0  0  0  0  0  0  0  0  0  0
    1.6279   -2.5432   -1.0424 H   0  0  0  0  0  0  0  0  0  0  0  0
    1.2733    2.8071    0.7986 H   0  0  0  0  0  0  0  0  0  0  0  0
   -0.5380   -1.7491   -1.5481 H   0  0  0  0  0  0  0  0  0  0  0  0
    3.5782    1.2933   -1.7766 H   0  0  0  0  0  0  0  0  0  0  0  0
    4.9125    1.1357   -0.6564 H   0  0  0  0  0  0  0  0  0  0  0  0
    3.5423    1.9813    1.1949 H   0  0  0  0  0  0  0  0  0  0  0  0
    3.5258    3.0842   -0.1648 H   0  0  0  0  0  0  0  0  0  0  0  0
    0.5538    1.1063    2.5496 H   0  0  0  0  0  0  0  0  0  0  0  0
    2.2312    0.7791    2.3420 H   0  0  0  0  0  0  0  0  0  0  0  0
    1.0863   -0.5392    2.3850 H   0  0  0  0  0  0  0  0  0  0  0  0
   -0.4080   -1.9654    2.1787 H   0  0  0  0  0  0  0  0  0  0  0  0
   -2.1350   -2.0535    1.9359 H   0  0  0  0  0  0  0  0  0  0  0  0
   -1.4087   -0.5735    2.5318 H   0  0  0  0  0  0  0  0  0  0  0  0
    3.7807   -2.3504   -1.3670 H   0  0  0  0  0  0  0  0  0  0  0  0
    5.0094   -1.1315   -1.6846 H   0  0  0  0  0  0  0  0  0  0  0  0
    3.9848   -1.9643    0.9972 H   0  0  0  0  0  0  0  0  0  0  0  0
    3.4565   -1.0474   -2.5232 H   0  0  0  0  0  0  0  0  0  0  0  0
    3.7039   -0.4004    1.7794 H   0  0  0  0  0  0  0  0  0  0  0  0
    5.1321   -0.6697    0.8220 H   0  0  0  0  0  0  0  0  0  0  0  0
   -2.9519    0.8360    2.0620 H   0  0  0  0  0  0  0  0  0  0  0  0
   -3.5044    2.0844    0.9600 H   0  0  0  0  0  0  0  0  0  0  0  0
   -0.3083    0.1435   -1.8222 H   0  0  0  0  0  0  0  0  0  0  0  0
    2.0567   -1.8710    1.5074 H   0  0  0  0  0  0  0  0  0  0  0  0
    1.6038    3.3602   -1.3430 H   0  0  0  0  0  0  0  0  0  0  0  0
   -0.3041   -3.8517   -0.8210 H   0  0  0  0  0  0  0  0  0  0  0  0
   -5.4518    0.1889    0.7960 H   0  0  0  0  0  0  0  0  0  0  0  0
   -5.0424   -1.3285   -0.0357 H   0  0  0  0  0  0  0  0  0  0  0  0
   -4.4432   -1.0399    1.5845 H   0  0  0  0  0  0  0  0  0  0  0  0
   -4.1540    1.7115   -1.2887 H   0  0  0  0  0  0  0  0  0  0  0  0
   -3.9565    0.5416   -3.3585 H   0  0  0  0  0  0  0  0  0  0  0  0
   -3.2959   -0.9684   -2.5156 H   0  0  0  0  0  0  0  0  0  0  0  0
  1 11  1  0  0  0  0
  1 22  1  0  0  0  0
  2  9  1  0  0  0  0
  2 49  1  0  0  0  0
  3 12  1  0  0  0  0
  3 50  1  0  0  0  0
  4 13  1  0  0  0  0
  4 51  1  0  0  0  0
  5 14  1  0  0  0  0
  5 52  1  0  0  0  0
  6 18  2  0  0  0  0
  7  8  1  0  0  0  0
  7  9  1  0  0  0  0
  7 13  1  0  0  0  0
  7 17  1  0  0  0  0
  8 10  1  0  0  0  0
  8 12  1  0  0  0  0
  8 27  1  0  0  0  0
  9 11  1  0  0  0  0
  9 18  1  0  0  0  0
 10 15  1  0  0  0  0
 10 20  1  0  0  0  0
 10 21  1  0  0  0  0
 11 14  1  0  0  0  0
 11 19  1  0  0  0  0
 12 14  1  0  0  0  0
 12 28  1  0  0  0  0
 13 16  1  0  0  0  0
 13 29  1  0  0  0  0
 14 30  1  0  0  0  0
 15 16  1  0  0  0  0
 15 31  1  0  0  0  0
 15 32  1  0  0  0  0
 16 33  1  0  0  0  0
 16 34  1  0  0  0  0
 17 35  1  0  0  0  0
 17 36  1  0  0  0  0
 17 37  1  0  0  0  0
 18 23  1  0  0  0  0
 19 38  1  0  0  0  0
 19 39  1  0  0  0  0
 19 40  1  0  0  0  0
 20 41  1  0  0  0  0
 20 42  1  0  0  0  0
 20 44  1  0  0  0  0
 21 43  1  0  0  0  0
 21 45  1  0  0  0  0
 21 46  1  0  0  0  0
 22 23  1  0  0  0  0
 22 24  1  0  0  0  0
 22 25  1  0  0  0  0
 23 47  1  0  0  0  0
 23 48  1  0  0  0  0
 24 53  1  0  0  0  0
 24 54  1  0  0  0  0
 24 55  1  0  0  0  0
 25 26  2  0  0  0  0
 25 56  1  0  0  0  0
 26 57  1  0  0  0  0
 26 58  1  0  0  0  0
M  END
> <PUBCHEM_COMPOUND_CID>
133126693

> <PUBCHEM_CONFORMER_RMSD>
0.6

> <PUBCHEM_CONFORMER_DIVERSEORDER>
1

> <PUBCHEM_MMFF94_PARTIAL_CHARGES>
23
1 -0.56
11 0.28
12 0.28
13 0.28
14 0.28
18 0.45
2 -0.68
22 0.42
23 0.06
25 -0.29
26 -0.3
3 -0.68
4 -0.68
49 0.4
5 -0.68
50 0.4
51 0.4
52 0.4
56 0.15
57 0.15
58 0.15
6 -0.57
9 0.34

> <PUBCHEM_EFFECTIVE_ROTOR_COUNT>
2.8

> <PUBCHEM_PHARMACOPHORE_FEATURES>
15
1 1 acceptor
1 2 acceptor
1 2 donor
1 26 hydrophobe
1 3 acceptor
1 3 donor
1 4 acceptor
1 4 donor
1 5 acceptor
1 5 donor
1 6 acceptor
3 10 20 21 hydrophobe
6 1 9 11 18 22 23 rings
6 7 8 10 13 15 16 rings
6 7 8 9 11 12 14 rings

> <PUBCHEM_HEAVY_ATOM_COUNT>
26

> <PUBCHEM_ATOM_DEF_STEREO_COUNT>
8

> <PUBCHEM_ATOM_UDEF_STEREO_COUNT>
0

> <PUBCHEM_BOND_DEF_STEREO_COUNT>
0

> <PUBCHEM_BOND_UDEF_STEREO_COUNT>
0

> <PUBCHEM_ISOTOPIC_ATOM_COUNT>
0

> <PUBCHEM_COMPONENT_COUNT>
1

> <PUBCHEM_CACTVS_TAUTO_COUNT>
2

> <PUBCHEM_CONFORMER_ID>
07EF5A2500000001

> <PUBCHEM_MMFF94_ENERGY>
134.4861

> <PUBCHEM_FEATURE_SELFOVERLAP>
76.196

> <PUBCHEM_SHAPE_FINGERPRINT>
10062212 137 18130505224041985185
10863032 1 18340490096353523400
10948715 1 18041277772061705152
10967382 1 18341057401361682336
11370993 70 18270115859166285232
11578080 2 16913691330356986962
12011746 2 18337117778084755278
12035759 4 18271792498302378783
12236239 1 17489593355508847955
12403259 415 18113621192179083581
12553582 1 18264778670615929376
12592029 89 18259989270800407459
12788726 201 18059871544717607720
13140716 1 18267584783119537818
13224815 77 18412825789429006281
13583140 156 17385997403640200897
14178342 30 17981602672039134264
14787075 74 18337393863368334027
14790565 3 18270418130111289145
15163728 17 16878787059266572941
15209289 33 18201164256205461586
15238133 3 15502640582090643132
16752209 62 18271524191421064840
16945 1 18411987927114028642
17349148 13 18342168956046159746
17492 54 18260843574492748422
18186145 218 18408603669089131589
192875 21 18341322315002638776
19591789 44 18340494481563222595
19862831 5 18340196419527952685
200 152 18272362058047022581
20691752 17 18042979661463850328
20905425 154 17983303616569442854
21267235 1 18341910570697672210
22182313 1 18264216974808542296
2334 1 18051696843220863746
23402539 116 18270957947391179852
23419403 2 17246160462442229945
23493267 7 17603583011061747787
23558518 356 18337966614004829321
23559900 14 18129665348063046664
23566358 2 18197496444255462999
238 59 18190437420981079429
2748010 2 18194969762360893130
350125 39 18340497672560289385
352729 6 18341620351268059510
633830 44 18343025467067029789
9709674 26 18202010944979004182

> <PUBCHEM_SHAPE_MULTIPOLES>
499.85
7.22
2.68
1.65
0.97
0.28
-0.25
-0.11
-1.89
-0.93
0.2
0.7
-0.01
0.03

> <PUBCHEM_SHAPE_SELFOVERLAP>
1057.302

> <PUBCHEM_SHAPE_VOLUME>
271.3

> <PUBCHEM_COORDINATE_TYPE>
2
5
10

$$$$
