133151
  -OEChem-03292013323D

 51 54  0     1  0  0  0  0  0999 V2000
   -4.0268    0.7815   -1.9893 O   0  0  0  0  0  0  0  0  0  0  0  0
   -2.5958    2.9888   -0.9326 O   0  0  0  0  0  0  0  0  0  0  0  0
   -3.3793   -0.9247    1.8701 O   0  0  0  0  0  0  0  0  0  0  0  0
    0.0223    2.9601    0.5501 O   0  0  0  0  0  0  0  0  0  0  0  0
   -3.5258   -2.8758    0.6418 O   0  0  0  0  0  0  0  0  0  0  0  0
    1.7305   -2.6294   -0.7414 O   0  0  0  0  0  0  0  0  0  0  0  0
    2.4997    2.4981    0.5472 O   0  0  0  0  0  0  0  0  0  0  0  0
    5.0451    2.1995    0.5757 O   0  0  0  0  0  0  0  0  0  0  0  0
    6.7359   -2.1146   -0.4091 O   0  0  0  0  0  0  0  0  0  0  0  0
   -4.1503    0.2929   -0.6453 C   0  0  1  0  0  0  0  0  0  0  0  0
   -3.0488   -0.7747   -0.4462 C   0  0  1  0  0  0  0  0  0  0  0  0
   -3.9700    1.4558    0.3452 C   0  0  0  0  0  0  0  0  0  0  0  0
   -2.6016    2.1312    0.2083 C   0  0  1  0  0  0  0  0  0  0  0  0
   -1.6590   -0.1862   -0.2800 C   0  0  0  0  0  0  0  0  0  0  0  0
   -1.4556    1.1622    0.0615 C   0  0  0  0  0  0  0  0  0  0  0  0
   -5.5647   -0.2922   -0.5331 C   0  0  0  0  0  0  0  0  0  0  0  0
   -0.5440   -1.0298   -0.4421 C   0  0  0  0  0  0  0  0  0  0  0  0
   -0.1434    1.6404    0.2296 C   0  0  0  0  0  0  0  0  0  0  0  0
   -3.3458   -1.6685    0.7280 C   0  0  0  0  0  0  0  0  0  0  0  0
    0.7570   -0.5437   -0.2701 C   0  0  0  0  0  0  0  0  0  0  0  0
    0.9574    0.7918    0.0669 C   0  0  0  0  0  0  0  0  0  0  0  0
   -5.7481   -1.4597   -1.4789 C   0  0  0  0  0  0  0  0  0  0  0  0
    1.9072   -1.4541   -0.4460 C   0  0  0  0  0  0  0  0  0  0  0  0
    2.3237    1.3227    0.2512 C   0  0  0  0  0  0  0  0  0  0  0  0
    3.4752    0.4146    0.0747 C   0  0  0  0  0  0  0  0  0  0  0  0
    3.2742   -0.9257   -0.2613 C   0  0  0  0  0  0  0  0  0  0  0  0
    4.7756    0.9039    0.2473 C   0  0  0  0  0  0  0  0  0  0  0  0
    4.3734   -1.7771   -0.4247 C   0  0  0  0  0  0  0  0  0  0  0  0
   -3.6541   -1.6536    3.0707 C   0  0  0  0  0  0  0  0  0  0  0  0
    5.6676   -1.2855   -0.2516 C   0  0  0  0  0  0  0  0  0  0  0  0
    5.8682    0.0521    0.0836 C   0  0  0  0  0  0  0  0  0  0  0  0
   -3.0014   -1.4131   -1.3397 H   0  0  0  0  0  0  0  0  0  0  0  0
   -4.1366    1.1471    1.3798 H   0  0  0  0  0  0  0  0  0  0  0  0
   -4.7358    2.2146    0.1312 H   0  0  0  0  0  0  0  0  0  0  0  0
   -2.4546    2.7636    1.0916 H   0  0  0  0  0  0  0  0  0  0  0  0
   -6.3018    0.4765   -0.7987 H   0  0  0  0  0  0  0  0  0  0  0  0
   -5.7919   -0.6064    0.4917 H   0  0  0  0  0  0  0  0  0  0  0  0
   -0.7085   -2.0737   -0.7017 H   0  0  0  0  0  0  0  0  0  0  0  0
   -3.8794    0.0351   -2.5927 H   0  0  0  0  0  0  0  0  0  0  0  0
   -5.6152   -1.1718   -2.5260 H   0  0  0  0  0  0  0  0  0  0  0  0
   -5.0973   -2.3095   -1.2699 H   0  0  0  0  0  0  0  0  0  0  0  0
   -6.7758   -1.8311   -1.3896 H   0  0  0  0  0  0  0  0  0  0  0  0
   -2.6264    2.4344   -1.7312 H   0  0  0  0  0  0  0  0  0  0  0  0
    0.9436    3.2336    0.4310 H   0  0  0  0  0  0  0  0  0  0  0  0
    4.2371   -2.8236   -0.6857 H   0  0  0  0  0  0  0  0  0  0  0  0
   -3.6531   -0.9466    3.9046 H   0  0  0  0  0  0  0  0  0  0  0  0
   -2.8767   -2.4035    3.2444 H   0  0  0  0  0  0  0  0  0  0  0  0
   -4.6400   -2.1241    3.0100 H   0  0  0  0  0  0  0  0  0  0  0  0
    6.8802    0.4275    0.2171 H   0  0  0  0  0  0  0  0  0  0  0  0
    6.0066    2.3268    0.6459 H   0  0  0  0  0  0  0  0  0  0  0  0
    7.5529   -1.6106   -0.2523 H   0  0  0  0  0  0  0  0  0  0  0  0
  1 10  1  0  0  0  0
  1 39  1  0  0  0  0
  2 13  1  0  0  0  0
  2 43  1  0  0  0  0
  3 19  1  0  0  0  0
  3 29  1  0  0  0  0
  4 18  1  0  0  0  0
  4 44  1  0  0  0  0
  5 19  2  0  0  0  0
  6 23  2  0  0  0  0
  7 24  2  0  0  0  0
  8 27  1  0  0  0  0
  8 50  1  0  0  0  0
  9 30  1  0  0  0  0
  9 51  1  0  0  0  0
 10 11  1  0  0  0  0
 10 12  1  0  0  0  0
 10 16  1  0  0  0  0
 11 14  1  0  0  0  0
 11 19  1  0  0  0  0
 11 32  1  0  0  0  0
 12 13  1  0  0  0  0
 12 33  1  0  0  0  0
 12 34  1  0  0  0  0
 13 15  1  0  0  0  0
 13 35  1  0  0  0  0
 14 15  1  0  0  0  0
 14 17  2  0  0  0  0
 15 18  2  0  0  0  0
 16 22  1  0  0  0  0
 16 36  1  0  0  0  0
 16 37  1  0  0  0  0
 17 20  1  0  0  0  0
 17 38  1  0  0  0  0
 18 21  1  0  0  0  0
 20 21  2  0  0  0  0
 20 23  1  0  0  0  0
 21 24  1  0  0  0  0
 22 40  1  0  0  0  0
 22 41  1  0  0  0  0
 22 42  1  0  0  0  0
 23 26  1  0  0  0  0
 24 25  1  0  0  0  0
 25 26  2  0  0  0  0
 25 27  1  0  0  0  0
 26 28  1  0  0  0  0
 27 31  2  0  0  0  0
 28 30  2  0  0  0  0
 28 45  1  0  0  0  0
 29 46  1  0  0  0  0
 29 47  1  0  0  0  0
 29 48  1  0  0  0  0
 30 31  1  0  0  0  0
 31 49  1  0  0  0  0
M  END
> <PUBCHEM_COMPOUND_CID>
133151

> <PUBCHEM_CONFORMER_RMSD>
0.8

> <PUBCHEM_CONFORMER_DIVERSEORDER>
1
3
2

> <PUBCHEM_MMFF94_PARTIAL_CHARGES>
36
1 -0.68
10 0.28
11 0.2
13 0.42
14 -0.14
15 -0.14
17 -0.15
18 0.08
19 0.66
2 -0.68
20 0.09
21 0.09
23 0.4
24 0.4
25 0.09
26 0.09
27 0.08
28 -0.15
29 0.28
3 -0.43
30 0.08
31 -0.15
38 0.15
39 0.4
4 -0.53
43 0.4
44 0.45
45 0.15
49 0.15
5 -0.57
50 0.45
51 0.45
6 -0.57
7 -0.57
8 -0.53
9 -0.53

> <PUBCHEM_EFFECTIVE_ROTOR_COUNT>
3.8

> <PUBCHEM_PHARMACOPHORE_FEATURES>
15
1 1 acceptor
1 1 donor
1 2 acceptor
1 2 donor
1 22 hydrophobe
1 4 donor
1 5 acceptor
1 6 acceptor
1 7 acceptor
1 8 donor
1 9 donor
6 10 11 12 13 14 15 rings
6 14 15 17 18 20 21 rings
6 20 21 23 24 25 26 rings
6 25 26 27 28 30 31 rings

> <PUBCHEM_HEAVY_ATOM_COUNT>
31

> <PUBCHEM_ATOM_DEF_STEREO_COUNT>
3

> <PUBCHEM_ATOM_UDEF_STEREO_COUNT>
0

> <PUBCHEM_BOND_DEF_STEREO_COUNT>
0

> <PUBCHEM_BOND_UDEF_STEREO_COUNT>
0

> <PUBCHEM_ISOTOPIC_ATOM_COUNT>
0

> <PUBCHEM_COMPONENT_COUNT>
1

> <PUBCHEM_CACTVS_TAUTO_COUNT>
192

> <PUBCHEM_CONFORMER_ID>
0002081F00000001

> <PUBCHEM_MMFF94_ENERGY>
101.5652

> <PUBCHEM_FEATURE_SELFOVERLAP>
76.192

> <PUBCHEM_SHAPE_FINGERPRINT>
10 15 18340755040924538352
10366900 7 18260825990680503403
10675989 125 17038659171996972429
11135609 12 17969237766358174321
11545043 162 17822297911103506834
11578080 2 17025986329781170774
11796584 16 17313100878136084818
12166972 35 17703784851153567881
12236239 1 17346880074206109559
12516196 113 18131627902438603640
12596602 18 16559029432470553979
12788726 201 18265606577233924513
13140716 1 18342464716147712472
13224815 77 18411421712932545728
13402501 40 18410571786423640319
13544653 18 18411986879147296013
13862211 1 18343298142040866326
14068700 675 16558456613378670567
14341114 176 18408889550660083248
15064986 266 18334305249169467113
15196674 1 18342455920344619476
15361156 5 18261682544397722013
15788980 27 18334297582388865862
17349148 13 18408880707227559845
17844677 252 18341899580340455532
18681886 176 18272079479996848906
18927931 339 18339090306118769838
19591789 44 18342174501165274598
200 152 17918269848785803989
20028762 73 17988638580490718614
20721686 56 18411979183140687296
21033650 10 16878502319735500132
21236236 1 18342737378088778405
21267235 1 18342741797309244446
21279426 13 18268708321084303692
21682296 61 18130232545411933430
221490 88 18411141350874760160
22393880 68 18263071141879611220
23522609 53 18056508168549910280
23559900 14 18410284848117147497
3004659 81 18334290951534113924
335352 9 18341331093836885261
3380486 145 18193286402154778795
3383291 50 18261392291273535827
350125 39 18342737411989665332
4015057 19 18339634650912252585
4073 2 18259991465982285314
4214541 1 18340768143857031364
469060 322 14692302793580329091
497634 4 17346600781383995687
508706 21 18188204308264708853
5104073 3 18341894070050389888
5283173 99 18189326892593936069
57527295 17 18189594092006599183
59755656 215 18336260154635687718
9709674 26 18341055094763953374

> <PUBCHEM_SHAPE_MULTIPOLES>
585.14
13.79
2.96
1.35
9.62
0.75
0.85
-4.89
-1.48
0.04
0.26
-2.49
-0.65
1.62

> <PUBCHEM_SHAPE_SELFOVERLAP>
1310.766

> <PUBCHEM_SHAPE_VOLUME>
305.4

> <PUBCHEM_COORDINATE_TYPE>
2
5
10

$$$$
