133135
  -OEChem-03292013323D

 36 39  0     1  0  0  0  0  0999 V2000
    2.9206   -0.2285   -1.0050 O   0  0  0  0  0  0  0  0  0  0  0  0
    1.6490    2.1100    1.4105 O   0  0  0  0  0  0  0  0  0  0  0  0
    3.7325    2.6146   -0.2596 O   0  0  0  0  0  0  0  0  0  0  0  0
    5.1485   -1.9032   -0.6972 O   0  0  0  0  0  0  0  0  0  0  0  0
   -3.1793   -2.6636    0.4470 O   0  0  0  0  0  0  0  0  0  0  0  0
    0.7481   -0.5397   -0.1029 N   0  0  0  0  0  0  0  0  0  0  0  0
   -0.2558   -2.4950    0.3010 N   0  0  0  0  0  0  0  0  0  0  0  0
   -1.1741    0.9106   -0.2988 N   0  0  0  0  0  0  0  0  0  0  0  0
   -3.2289   -0.3363    0.0138 N   0  0  0  0  0  0  0  0  0  0  0  0
   -3.1399    2.0584   -0.4359 N   0  0  0  0  0  0  0  0  0  0  0  0
    2.4072    1.0119    0.9461 C   0  0  1  0  0  0  0  0  0  0  0  0
    1.8263    0.4202   -0.3291 C   0  0  1  0  0  0  0  0  0  0  0  0
    3.7995    1.4019    0.4906 C   0  0  1  0  0  0  0  0  0  0  0  0
    4.1650    0.2598   -0.4524 C   0  0  1  0  0  0  0  0  0  0  0  0
    4.8615   -0.8942    0.2551 C   0  0  0  0  0  0  0  0  0  0  0  0
   -0.5921   -0.2880   -0.0980 C   0  0  0  0  0  0  0  0  0  0  0  0
    0.9006   -1.8822    0.1417 C   0  0  0  0  0  0  0  0  0  0  0  0
   -1.1794   -1.5015    0.1511 C   0  0  0  0  0  0  0  0  0  0  0  0
   -2.6130   -1.5991    0.2253 C   0  0  0  0  0  0  0  0  0  0  0  0
   -2.4798    0.8617   -0.2387 C   0  0  0  0  0  0  0  0  0  0  0  0
   -4.6125   -0.2590    0.0536 C   0  0  0  0  0  0  0  0  0  0  0  0
   -5.2738    0.8837   -0.1332 C   0  0  0  0  0  0  0  0  0  0  0  0
   -4.4302    2.0575   -0.3850 C   0  0  0  0  0  0  0  0  0  0  0  0
    1.4250    1.1869   -1.0029 H   0  0  0  0  0  0  0  0  0  0  0  0
    2.4633    0.2619    1.7436 H   0  0  0  0  0  0  0  0  0  0  0  0
    4.5036    1.5595    1.3117 H   0  0  0  0  0  0  0  0  0  0  0  0
    4.7732    0.5995   -1.2986 H   0  0  0  0  0  0  0  0  0  0  0  0
    4.2334   -1.3400    1.0326 H   0  0  0  0  0  0  0  0  0  0  0  0
    5.8031   -0.5686    0.7068 H   0  0  0  0  0  0  0  0  0  0  0  0
    1.6446    2.7891    0.7147 H   0  0  0  0  0  0  0  0  0  0  0  0
    1.8702   -2.3580    0.1976 H   0  0  0  0  0  0  0  0  0  0  0  0
    3.2433    2.4521   -1.0832 H   0  0  0  0  0  0  0  0  0  0  0  0
    4.3047   -2.1811   -1.0932 H   0  0  0  0  0  0  0  0  0  0  0  0
   -5.1560   -1.1775    0.2460 H   0  0  0  0  0  0  0  0  0  0  0  0
   -6.3502    0.9722   -0.1074 H   0  0  0  0  0  0  0  0  0  0  0  0
   -4.9726    3.0039   -0.5401 H   0  0  0  0  0  0  0  0  0  0  0  0
  1 12  1  0  0  0  0
  1 14  1  0  0  0  0
  2 11  1  0  0  0  0
  2 30  1  0  0  0  0
  3 13  1  0  0  0  0
  3 32  1  0  0  0  0
  4 15  1  0  0  0  0
  4 33  1  0  0  0  0
  5 19  2  0  0  0  0
  6 12  1  0  0  0  0
  6 16  1  0  0  0  0
  6 17  1  0  0  0  0
  7 17  2  0  0  0  0
  7 18  1  0  0  0  0
  8 16  1  0  0  0  0
  8 20  2  0  0  0  0
  9 19  1  0  0  0  0
  9 20  1  0  0  0  0
  9 21  1  0  0  0  0
 10 20  1  0  0  0  0
 10 23  2  0  0  0  0
 11 12  1  0  0  0  0
 11 13  1  0  0  0  0
 11 25  1  0  0  0  0
 12 24  1  0  0  0  0
 13 14  1  0  0  0  0
 13 26  1  0  0  0  0
 14 15  1  0  0  0  0
 14 27  1  0  0  0  0
 15 28  1  0  0  0  0
 15 29  1  0  0  0  0
 16 18  2  0  0  0  0
 17 31  1  0  0  0  0
 18 19  1  0  0  0  0
 21 22  2  0  0  0  0
 21 34  1  0  0  0  0
 22 23  1  0  0  0  0
 22 35  1  0  0  0  0
 23 36  1  0  0  0  0
M  END
> <PUBCHEM_COMPOUND_CID>
133135

> <PUBCHEM_CONFORMER_RMSD>
0.6

> <PUBCHEM_CONFORMER_DIVERSEORDER>
3
7
12
10
5
4
11
1
15
6
2
13
9
14
8

> <PUBCHEM_MMFF94_PARTIAL_CHARGES>
30
1 -0.56
10 -0.66
11 0.28
12 0.54
13 0.28
14 0.28
15 0.28
16 -0.03
17 0.04
18 0.14
19 0.72
2 -0.68
20 0.72
21 -0.04
22 -0.14
23 0.38
3 -0.68
30 0.4
31 0.15
32 0.4
33 0.4
34 0.15
35 0.15
36 0.06
4 -0.68
5 -0.57
6 0.05
7 -0.57
8 -0.58
9 -0.23

> <PUBCHEM_EFFECTIVE_ROTOR_COUNT>
3

> <PUBCHEM_PHARMACOPHORE_FEATURES>
14
1 1 acceptor
1 10 acceptor
1 2 acceptor
1 2 donor
1 3 acceptor
1 3 donor
1 4 acceptor
1 4 donor
1 5 acceptor
3 6 7 17 cation
5 1 11 12 13 14 rings
5 6 7 16 17 18 rings
6 8 9 16 18 19 20 rings
6 9 10 20 21 22 23 rings

> <PUBCHEM_HEAVY_ATOM_COUNT>
23

> <PUBCHEM_ATOM_DEF_STEREO_COUNT>
4

> <PUBCHEM_ATOM_UDEF_STEREO_COUNT>
0

> <PUBCHEM_BOND_DEF_STEREO_COUNT>
0

> <PUBCHEM_BOND_UDEF_STEREO_COUNT>
0

> <PUBCHEM_ISOTOPIC_ATOM_COUNT>
0

> <PUBCHEM_COMPONENT_COUNT>
1

> <PUBCHEM_CACTVS_TAUTO_COUNT>
1

> <PUBCHEM_CONFORMER_ID>
0002080F00000003

> <PUBCHEM_MMFF94_ENERGY>
58.7686

> <PUBCHEM_FEATURE_SELFOVERLAP>
71.249

> <PUBCHEM_SHAPE_FINGERPRINT>
10319926 262 18266161994157230056
10411042 1 17327743306111451947
10498660 4 18335698373230180629
10608611 8 18341048626632791720
10646746 165 18409729581901923012
11405975 8 18410855468981912202
11595378 159 16298660577982598493
12236239 1 17240203244118331628
12403259 226 18269552913254337891
12403259 415 18342460386746487200
12596602 18 16081379578416221213
12788726 201 16810689102779501770
13134695 92 17060334124467813832
14866123 147 17047122122255480338
15042514 8 18189905386725253811
15099037 51 18341332206380886790
15196674 1 18410293656941577519
17349148 13 16773803580238825898
18186145 218 18202012039879081938
200 152 17132113541657446127
20510252 161 18267589185487013195
20645477 56 18334861589278567623
20645477 70 17489595545441133046
21065198 57 18410575119286632894
21267235 1 18336555944902146759
21279426 13 18196372516038912742
21524375 3 18410011005370960463
221357 26 18201435848621076005
23227448 37 18339641243586565629
23402539 116 18342731910109756980
23559900 14 18413108368713413436
3004659 81 18261680264867781790
335352 9 18410292467562840486
350125 39 18262799557980240631
351380 180 18343299266773541668
3545911 37 18334296427474972141
4214541 1 18409449180498257292
495365 180 17417801890355454528
5104073 3 18409449227864295626
59755656 215 18336829667431337470
6138700 20 18194967344912120582
633830 44 18335975450070547134
7364860 26 18268145345029184559
7399639 24 17266083763587720514
7808743 9 18191585470077166464
9709674 26 18337676446367615562
9996256 80 18412826898010986755

> <PUBCHEM_SHAPE_MULTIPOLES>
419.08
10.88
2.68
0.81
0.67
0.27
-0.09
-2.31
1.03
-0.26
-0.25
0.46
-0.17
1

> <PUBCHEM_SHAPE_SELFOVERLAP>
929.832

> <PUBCHEM_SHAPE_VOLUME>
218.7

> <PUBCHEM_COORDINATE_TYPE>
2
5
10

$$$$
