133117
  -OEChem-03292013323D

 34 33  0     0  0  0  0  0  0999 V2000
   -5.1248    0.4502    0.0881 S   0  0  0  0  0  0  0  0  0  0  0  0
   -3.2350   -0.0590   -0.6625 S   0  0  0  0  0  0  0  0  0  0  0  0
   -0.2541   -0.3299    0.1031 O   0  0  0  0  0  0  0  0  0  0  0  0
    1.5083   -1.7601   -0.2484 O   0  0  0  0  0  0  0  0  0  0  0  0
   -4.9233    1.3711    1.1902 O   0  0  0  0  0  0  0  0  0  0  0  0
   -5.8674   -0.7816    0.2742 O   0  0  0  0  0  0  0  0  0  0  0  0
    5.4289    0.6963    0.0089 N   0  0  0  0  0  0  0  0  0  0  0  0
    1.7414    0.5382   -0.4738 N   0  0  0  0  0  0  0  0  0  0  0  0
    4.0187    0.6886    0.3965 C   0  0  0  0  0  0  0  0  0  0  0  0
    3.1323    0.5757   -0.8352 C   0  0  0  0  0  0  0  0  0  0  0  0
    5.7619   -0.5199   -0.7318 C   0  0  0  0  0  0  0  0  0  0  0  0
    6.2827    0.8260    1.1891 C   0  0  0  0  0  0  0  0  0  0  0  0
   -1.0958   -1.4496    0.4007 C   0  0  0  0  0  0  0  0  0  0  0  0
   -2.5018   -0.9727    0.7290 C   0  0  0  0  0  0  0  0  0  0  0  0
    1.0427   -0.6258   -0.2100 C   0  0  0  0  0  0  0  0  0  0  0  0
   -5.9147    1.3524   -1.2181 C   0  0  0  0  0  0  0  0  0  0  0  0
    3.8031   -0.1337    1.0924 H   0  0  0  0  0  0  0  0  0  0  0  0
    3.7725    1.6198    0.9230 H   0  0  0  0  0  0  0  0  0  0  0  0
    3.2730    1.4375   -1.4969 H   0  0  0  0  0  0  0  0  0  0  0  0
    3.3219   -0.3330   -1.4128 H   0  0  0  0  0  0  0  0  0  0  0  0
    1.2412    1.4190   -0.4010 H   0  0  0  0  0  0  0  0  0  0  0  0
    5.3597   -0.5028   -1.7492 H   0  0  0  0  0  0  0  0  0  0  0  0
    5.4262   -1.4300   -0.2210 H   0  0  0  0  0  0  0  0  0  0  0  0
    6.8480   -0.5993   -0.8650 H   0  0  0  0  0  0  0  0  0  0  0  0
    7.3369    0.8922    0.8975 H   0  0  0  0  0  0  0  0  0  0  0  0
    6.1675   -0.0183    1.8785 H   0  0  0  0  0  0  0  0  0  0  0  0
    6.0514    1.7491    1.7325 H   0  0  0  0  0  0  0  0  0  0  0  0
   -0.6867   -1.9818    1.2676 H   0  0  0  0  0  0  0  0  0  0  0  0
   -1.1128   -2.1352   -0.4555 H   0  0  0  0  0  0  0  0  0  0  0  0
   -2.4725   -0.2966    1.5895 H   0  0  0  0  0  0  0  0  0  0  0  0
   -3.1408   -1.8254    0.9769 H   0  0  0  0  0  0  0  0  0  0  0  0
   -5.9966    0.7087   -2.0959 H   0  0  0  0  0  0  0  0  0  0  0  0
   -6.9103    1.6438   -0.8766 H   0  0  0  0  0  0  0  0  0  0  0  0
   -5.3240    2.2424   -1.4432 H   0  0  0  0  0  0  0  0  0  0  0  0
  1  2  1  0  0  0  0
  1  5  2  0  0  0  0
  1  6  2  0  0  0  0
  1 16  1  0  0  0  0
  2 14  1  0  0  0  0
  3 13  1  0  0  0  0
  3 15  1  0  0  0  0
  4 15  2  0  0  0  0
  7  9  1  0  0  0  0
  7 11  1  0  0  0  0
  7 12  1  0  0  0  0
  8 10  1  0  0  0  0
  8 15  1  0  0  0  0
  8 21  1  0  0  0  0
  9 10  1  0  0  0  0
  9 17  1  0  0  0  0
  9 18  1  0  0  0  0
 10 19  1  0  0  0  0
 10 20  1  0  0  0  0
 11 22  1  0  0  0  0
 11 23  1  0  0  0  0
 11 24  1  0  0  0  0
 12 25  1  0  0  0  0
 12 26  1  0  0  0  0
 12 27  1  0  0  0  0
 13 14  1  0  0  0  0
 13 28  1  0  0  0  0
 13 29  1  0  0  0  0
 14 30  1  0  0  0  0
 14 31  1  0  0  0  0
 16 32  1  0  0  0  0
 16 33  1  0  0  0  0
 16 34  1  0  0  0  0
M  END
> <PUBCHEM_COMPOUND_CID>
133117

> <PUBCHEM_CONFORMER_RMSD>
1

> <PUBCHEM_CONFORMER_DIVERSEORDER>
1
123
141
90
134
280
227
112
186
228
33
194
193
38
202
171
21
187
232
26
172
268
81
273
98
305
105
177
140
212
86
297
306
40
118
6
13
229
23
66
182
248
19
43
100
29
166
83
144
245
238
85
28
240
56
138
158
224
36
109
274
223
218
233
264
122
300
266
93
211
156
18
261
108
16
47
296
87
259
260
76
133
116
180
48
101
12
46
235
32
279
34
282
225
155
22
215
146
199
129
103
62
5
257
201
173
9
217
221
195
3
131
270
277
139
153
295
79
236
125
39
143
302
67
159
31
111
145
176
148
263
203
250
45
291
53
239
281
54
185
178
258
137
209
78
11
298
42
65
20
214
25
160
285
254
88
136
192
110
41
244
119
75
179
113
304
51
10
242
222
114
161
183
52
44
249
30
269
63
82
135
247
226
299
95
230
69
237
288
106
72
241
94
272
289
150
107
128
197
74
284
58
61
175
278
252
293
164
73
121
37
163
275
292
64
188
152
35
207
262
208
283
253
55
7
294
59
167
68
276
213
220
190
147
71
4
184
255
191
120
243
290
84
154
17
117
142
251
271
234
168
102
124
97
80
27
174
286
169
24
189
301
205
77
14
60
149
132
49
219
57
303
15
198
127
89
99
70
256
50
126
91
196
8
265
216
162
181
200
92
104
204
170
96
157
2
130
231
287
210
151
165
206
115
246
267

> <PUBCHEM_MMFF94_PARTIAL_CHARGES>
17
1 1.31
10 0.3
11 0.27
12 0.27
13 0.28
14 0.23
15 0.78
16 0.11
2 -0.35
21 0.37
3 -0.43
4 -0.57
5 -0.65
6 -0.65
7 -0.81
8 -0.73
9 0.27

> <PUBCHEM_EFFECTIVE_ROTOR_COUNT>
9

> <PUBCHEM_PHARMACOPHORE_FEATURES>
3
1 4 acceptor
1 7 cation
1 8 donor

> <PUBCHEM_HEAVY_ATOM_COUNT>
16

> <PUBCHEM_ATOM_DEF_STEREO_COUNT>
0

> <PUBCHEM_ATOM_UDEF_STEREO_COUNT>
0

> <PUBCHEM_BOND_DEF_STEREO_COUNT>
0

> <PUBCHEM_BOND_UDEF_STEREO_COUNT>
0

> <PUBCHEM_ISOTOPIC_ATOM_COUNT>
0

> <PUBCHEM_COMPONENT_COUNT>
1

> <PUBCHEM_CACTVS_TAUTO_COUNT>
2

> <PUBCHEM_CONFORMER_ID>
000207FD00000001

> <PUBCHEM_MMFF94_ENERGY>
16.5103

> <PUBCHEM_FEATURE_SELFOVERLAP>
15.223

> <PUBCHEM_SHAPE_FINGERPRINT>
10354089 29 17530683216992287520
10968037 39 12823295714994128869
11089746 13 18131627898286028640
117890 112 18273496784443967832
12596602 18 14851609890134075197
12714333 28 16845855706582711586
13288520 33 10519984877318071679
13533116 47 18130228156203308822
13685833 64 10519697913093718693
13740256 8 11671772793799769581
14123256 10 18341610439364092903
14123256 34 9367341570026781285
14251718 22 13470688148290560669
14251752 14 14979685338533451769
14251764 18 17676204715052982444
14251764 30 12252171962373244168
14350574 20 11023822881652644011
15501527 16 18333450958435238045
15501527 24 14189575251731362420
15531645 54 18408888430211734758
17834072 33 13758355578667748083
17834072 8 18341621412762915190
17834076 25 18410855473018357930
20281389 69 17967813872603294804
20374829 77 12031788054903890647
20621476 21 8214140802151408425
20621476 66 18186805789730158084
20645477 56 18040715866175869927
20871999 31 13973974177315505627
21150785 3 16271919433282760069
23035841 295 7853580105980704032
23198884 109 17346597465753658757
23402539 116 18334289898824086535
23402655 69 18272931592607171927
23559900 14 11383821659078776855
23590187 156 18130787893024943795
2767999 5 18411979165396685833
2916195 48 18335135410475961041
351380 180 17988925595837544784
351380 3 9871747984019996437
3545911 37 18409733967332784879
4072396 5 18408315576090180602
441001 317 17988929959503088777
5104073 3 17968383330254752155
5207 217 13470684871726333976
59755656 215 18336268942687628950
59755656 520 17167858699522038187
7062679 117 12535630487903457613

> <PUBCHEM_SHAPE_MULTIPOLES>
303.53
17.82
1.4
1.05
2.63
0.22
-0.09
-6.67
-1.22
-0.89
-0.02
-0.01
-0.25
0.89

> <PUBCHEM_SHAPE_SELFOVERLAP>
544.089

> <PUBCHEM_SHAPE_VOLUME>
198.5

> <PUBCHEM_COORDINATE_TYPE>
2
5
10

$$$$
