133189
  -OEChem-03292013323D

 60 61  0     1  0  0  0  0  0999 V2000
    0.4376   -2.1836   -1.7100 O   0  0  0  0  0  0  0  0  0  0  0  0
   -0.6737    1.0700   -0.6910 O   0  0  0  0  0  0  0  0  0  0  0  0
    3.1371   -2.9035    1.9827 O   0  0  0  0  0  0  0  0  0  0  0  0
    4.8934   -3.3698    0.6234 O   0  0  0  0  0  0  0  0  0  0  0  0
   -1.6896   -1.0073   -0.5970 N   0  0  0  0  0  0  0  0  0  0  0  0
    1.6557   -1.9043    0.2539 N   0  0  0  0  0  0  0  0  0  0  0  0
   -2.2513    1.2116   -3.0550 N   0  0  0  0  0  0  0  0  0  0  0  0
    4.7599    2.3862    0.6929 N   0  0  0  0  0  0  0  0  0  0  0  0
    5.7764    3.8577   -0.9107 N   0  0  0  0  0  0  0  0  0  0  0  0
    5.5534    4.4861    1.2688 N   0  0  0  0  0  0  0  0  0  0  0  0
   -0.7223   -1.6254    0.3003 C   0  0  1  0  0  0  0  0  0  0  0  0
   -1.4059   -2.8967    0.7904 C   0  0  0  0  0  0  0  0  0  0  0  0
   -2.3299   -3.2710   -0.3658 C   0  0  0  0  0  0  0  0  0  0  0  0
   -2.7882   -1.9217   -0.8980 C   0  0  0  0  0  0  0  0  0  0  0  0
    0.5017   -1.9285   -0.5103 C   0  0  0  0  0  0  0  0  0  0  0  0
   -1.6186    0.3277   -0.9632 C   0  0  0  0  0  0  0  0  0  0  0  0
   -2.7934    0.8483   -1.7522 C   0  0  1  0  0  0  0  0  0  0  0  0
    2.9668   -2.1851   -0.2849 C   0  0  1  0  0  0  0  0  0  0  0  0
   -3.4319    2.0530   -1.0611 C   0  0  0  0  0  0  0  0  0  0  0  0
    3.6647   -0.9285   -0.8123 C   0  0  0  0  0  0  0  0  0  0  0  0
    3.9018    0.1520    0.2495 C   0  0  0  0  0  0  0  0  0  0  0  0
   -4.3523    1.6565    0.0697 C   0  0  0  0  0  0  0  0  0  0  0  0
    3.7784   -2.8909    0.7849 C   0  0  0  0  0  0  0  0  0  0  0  0
    4.5602    1.3862   -0.3575 C   0  0  0  0  0  0  0  0  0  0  0  0
   -5.7048    1.4244   -0.1806 C   0  0  0  0  0  0  0  0  0  0  0  0
   -3.8495    1.5223    1.3640 C   0  0  0  0  0  0  0  0  0  0  0  0
   -6.5545    1.0582    0.8631 C   0  0  0  0  0  0  0  0  0  0  0  0
   -4.6993    1.1559    2.4077 C   0  0  0  0  0  0  0  0  0  0  0  0
   -6.0518    0.9239    2.1572 C   0  0  0  0  0  0  0  0  0  0  0  0
    5.3300    3.4963    0.3410 C   0  0  0  0  0  0  0  0  0  0  0  0
   -0.4847   -0.9367    1.1185 H   0  0  0  0  0  0  0  0  0  0  0  0
   -0.7106   -3.7033    1.0422 H   0  0  0  0  0  0  0  0  0  0  0  0
   -2.0105   -2.6738    1.6781 H   0  0  0  0  0  0  0  0  0  0  0  0
   -3.1650   -3.9048   -0.0547 H   0  0  0  0  0  0  0  0  0  0  0  0
   -1.7656   -3.8098   -1.1362 H   0  0  0  0  0  0  0  0  0  0  0  0
   -2.9855   -1.9567   -1.9732 H   0  0  0  0  0  0  0  0  0  0  0  0
   -3.6812   -1.5727   -0.3683 H   0  0  0  0  0  0  0  0  0  0  0  0
   -3.5685    0.1023   -1.9292 H   0  0  0  0  0  0  0  0  0  0  0  0
    1.5876   -1.6660    1.2395 H   0  0  0  0  0  0  0  0  0  0  0  0
    2.8405   -2.9003   -1.1068 H   0  0  0  0  0  0  0  0  0  0  0  0
   -4.0213    2.6340   -1.7845 H   0  0  0  0  0  0  0  0  0  0  0  0
   -2.6738    2.7525   -0.6840 H   0  0  0  0  0  0  0  0  0  0  0  0
    4.6304   -1.2124   -1.2496 H   0  0  0  0  0  0  0  0  0  0  0  0
    3.0622   -0.5021   -1.6245 H   0  0  0  0  0  0  0  0  0  0  0  0
   -1.9254    0.3751   -3.5384 H   0  0  0  0  0  0  0  0  0  0  0  0
   -2.9888    1.6052   -3.6383 H   0  0  0  0  0  0  0  0  0  0  0  0
    2.9509    0.4431    0.7123 H   0  0  0  0  0  0  0  0  0  0  0  0
    4.5364   -0.2396    1.0535 H   0  0  0  0  0  0  0  0  0  0  0  0
    5.5223    1.1001   -0.7997 H   0  0  0  0  0  0  0  0  0  0  0  0
    3.9146    1.7895   -1.1472 H   0  0  0  0  0  0  0  0  0  0  0  0
   -6.1080    1.5229   -1.1849 H   0  0  0  0  0  0  0  0  0  0  0  0
   -2.7981    1.7008    1.5729 H   0  0  0  0  0  0  0  0  0  0  0  0
   -7.6074    0.8766    0.6681 H   0  0  0  0  0  0  0  0  0  0  0  0
   -4.3079    1.0510    3.4153 H   0  0  0  0  0  0  0  0  0  0  0  0
    3.6704   -3.3445    2.6780 H   0  0  0  0  0  0  0  0  0  0  0  0
   -6.7133    0.6382    2.9699 H   0  0  0  0  0  0  0  0  0  0  0  0
    6.2107    4.7604   -1.0700 H   0  0  0  0  0  0  0  0  0  0  0  0
    5.6892    3.2454   -1.7139 H   0  0  0  0  0  0  0  0  0  0  0  0
    5.9977    5.3614    1.0141 H   0  0  0  0  0  0  0  0  0  0  0  0
    5.2786    4.3673    2.2378 H   0  0  0  0  0  0  0  0  0  0  0  0
  1 15  2  0  0  0  0
  2 16  2  0  0  0  0
  3 23  1  0  0  0  0
  3 55  1  0  0  0  0
  4 23  2  0  0  0  0
  5 11  1  0  0  0  0
  5 14  1  0  0  0  0
  5 16  1  0  0  0  0
  6 15  1  0  0  0  0
  6 18  1  0  0  0  0
  6 39  1  0  0  0  0
  7 17  1  0  0  0  0
  7 45  1  0  0  0  0
  7 46  1  0  0  0  0
  8 24  1  0  0  0  0
  8 30  2  0  0  0  0
  9 30  1  0  0  0  0
  9 57  1  0  0  0  0
  9 58  1  0  0  0  0
 10 30  1  0  0  0  0
 10 59  1  0  0  0  0
 10 60  1  0  0  0  0
 11 12  1  0  0  0  0
 11 15  1  0  0  0  0
 11 31  1  0  0  0  0
 12 13  1  0  0  0  0
 12 32  1  0  0  0  0
 12 33  1  0  0  0  0
 13 14  1  0  0  0  0
 13 34  1  0  0  0  0
 13 35  1  0  0  0  0
 14 36  1  0  0  0  0
 14 37  1  0  0  0  0
 16 17  1  0  0  0  0
 17 19  1  0  0  0  0
 17 38  1  0  0  0  0
 18 20  1  0  0  0  0
 18 23  1  0  0  0  0
 18 40  1  0  0  0  0
 19 22  1  0  0  0  0
 19 41  1  0  0  0  0
 19 42  1  0  0  0  0
 20 21  1  0  0  0  0
 20 43  1  0  0  0  0
 20 44  1  0  0  0  0
 21 24  1  0  0  0  0
 21 47  1  0  0  0  0
 21 48  1  0  0  0  0
 22 25  2  0  0  0  0
 22 26  1  0  0  0  0
 24 49  1  0  0  0  0
 24 50  1  0  0  0  0
 25 27  1  0  0  0  0
 25 51  1  0  0  0  0
 26 28  2  0  0  0  0
 26 52  1  0  0  0  0
 27 29  2  0  0  0  0
 27 53  1  0  0  0  0
 28 29  1  0  0  0  0
 28 54  1  0  0  0  0
 29 56  1  0  0  0  0
M  END
> <PUBCHEM_COMPOUND_CID>
133189

> <PUBCHEM_CONFORMER_RMSD>
1.2

> <PUBCHEM_CONFORMER_DIVERSEORDER>
1
29
58
36
61
59
57
25
6
8
52
48
20
46
24
64
56
49
31
54
11
51
34
30
16
3
26
23
19
53
18
50
40
21
39
9
45
10
32
43
33
7
15
37
63
62
27
17
14
12
38
35
22
5
28
55
47
42
60
13
4
41
2
44

> <PUBCHEM_MMFF94_PARTIAL_CHARGES>
39
1 -0.57
10 -0.85
11 0.36
14 0.3
15 0.57
16 0.57
17 0.33
18 0.36
19 0.14
2 -0.57
22 -0.14
23 0.66
24 0.25
25 -0.15
26 -0.15
27 -0.15
28 -0.15
29 -0.15
3 -0.65
30 0.55
39 0.37
4 -0.57
45 0.36
46 0.36
5 -0.66
51 0.15
52 0.15
53 0.15
54 0.15
55 0.5
56 0.15
57 0.4
58 0.4
59 0.4
6 -0.73
60 0.4
7 -0.99
8 -0.7
9 -0.85

> <PUBCHEM_EFFECTIVE_ROTOR_COUNT>
13

> <PUBCHEM_PHARMACOPHORE_FEATURES>
13
1 1 acceptor
1 10 donor
1 2 acceptor
1 3 acceptor
1 4 acceptor
1 6 donor
1 7 cation
1 7 donor
1 9 donor
3 3 4 23 anion
4 8 9 10 30 cation
5 5 11 12 13 14 rings
6 22 25 26 27 28 29 rings

> <PUBCHEM_HEAVY_ATOM_COUNT>
30

> <PUBCHEM_ATOM_DEF_STEREO_COUNT>
3

> <PUBCHEM_ATOM_UDEF_STEREO_COUNT>
0

> <PUBCHEM_BOND_DEF_STEREO_COUNT>
0

> <PUBCHEM_BOND_UDEF_STEREO_COUNT>
0

> <PUBCHEM_ISOTOPIC_ATOM_COUNT>
0

> <PUBCHEM_COMPONENT_COUNT>
1

> <PUBCHEM_CACTVS_TAUTO_COUNT>
4

> <PUBCHEM_CONFORMER_ID>
0002084500000001

> <PUBCHEM_MMFF94_ENERGY>
68.4036

> <PUBCHEM_FEATURE_SELFOVERLAP>
66.086

> <PUBCHEM_SHAPE_FINGERPRINT>
10074138 170 17750241472638823699
10429389 16 11455895711320354195
10693767 8 7925335270424420977
10838868 160 17985822872386612288
11578080 2 18341339988634806682
12633257 1 18268140968399494366
12788726 201 17418099763011484368
13583140 156 17315631799215998923
14251764 75 18271247217902792560
14787075 74 18059012775192091259
14955137 171 17466781580776610682
15183329 4 12822719485228980463
1768 85 18336266755995153161
19309040 13 17988646328379326068
20609170 109 16087270976466529608
21033648 29 17532081709545908780
21987483 16 18187369857235335795
23559900 14 18339347571204057430
392239 28 18267873774826820307
5104073 3 18333446560463308026
5252454 2 18339636836902913080
57307002 103 18338525144663873130
57724786 102 18343017770833794810

> <PUBCHEM_SHAPE_MULTIPOLES>
564.02
15.35
5.2
1.93
2.25
1.46
-0.16
15.01
6.26
10.1
1.09
-2.2
0.52
-0.87

> <PUBCHEM_SHAPE_SELFOVERLAP>
1161.674

> <PUBCHEM_SHAPE_VOLUME>
320.5

> <PUBCHEM_COORDINATE_TYPE>
2
5
10

$$$$
