133109148
  -OEChem-03292013293D

 75 78  0     1  0  0  0  0  0999 V2000
    1.3274    2.3361   -0.6747 O   0  0  0  0  0  0  0  0  0  0  0  0
    7.0839    0.7662   -1.9895 O   0  0  0  0  0  0  0  0  0  0  0  0
   -5.6053    1.1015    1.4348 O   0  0  0  0  0  0  0  0  0  0  0  0
   -8.0713   -0.5709   -0.5826 O   0  0  0  0  0  0  0  0  0  0  0  0
   -8.1267   -2.5387    0.5453 O   0  0  0  0  0  0  0  0  0  0  0  0
   -5.4797   -0.2796   -0.4298 N   0  0  0  0  0  0  0  0  0  0  0  0
    0.0632    0.4527    0.2299 C   0  0  2  0  0  0  0  0  0  0  0  0
    0.8387   -0.5718   -0.6323 C   0  0  1  0  0  0  0  0  0  0  0  0
    2.0793   -1.1319    0.0752 C   0  0  2  0  0  0  0  0  0  0  0  0
    3.0400    0.0502    0.4266 C   0  0  2  0  0  0  0  0  0  0  0  0
    4.3645   -0.4522    1.1172 C   0  0  1  0  0  0  0  0  0  0  0  0
   -1.1154    0.7355   -0.7393 C   0  0  1  0  0  0  0  0  0  0  0  0
    0.9948    1.6450    0.5298 C   0  0  1  0  0  0  0  0  0  0  0  0
    2.3024    1.1776    1.2050 C   0  0  0  0  0  0  0  0  0  0  0  0
    5.0454   -1.5341    0.2124 C   0  0  1  0  0  0  0  0  0  0  0  0
   -0.2423   -1.5442   -1.0991 C   0  0  0  0  0  0  0  0  0  0  0  0
    2.7839   -2.1862   -0.7887 C   0  0  0  0  0  0  0  0  0  0  0  0
   -1.4914   -0.6634   -1.2805 C   0  0  0  0  0  0  0  0  0  0  0  0
    4.0833   -2.6752   -0.1567 C   0  0  0  0  0  0  0  0  0  0  0  0
    5.3837    0.6997    1.3589 C   0  0  0  0  0  0  0  0  0  0  0  0
   -0.4571   -0.1307    1.5713 C   0  0  0  0  0  0  0  0  0  0  0  0
   -2.3051    1.4855   -0.1571 C   0  0  2  0  0  0  0  0  0  0  0  0
    5.6739   -0.9344   -1.0634 C   0  0  0  0  0  0  0  0  0  0  0  0
    4.0688   -1.0624    2.5120 C   0  0  0  0  0  0  0  0  0  0  0  0
    5.9682    1.2881    0.0812 C   0  0  0  0  0  0  0  0  0  0  0  0
    6.6372    0.2074   -0.7585 C   0  0  2  0  0  0  0  0  0  0  0  0
   -3.4048    1.6489   -1.2262 C   0  0  0  0  0  0  0  0  0  0  0  0
   -1.8496    2.8341    0.4097 C   0  0  0  0  0  0  0  0  0  0  0  0
   -4.7751    2.0085   -0.6507 C   0  0  0  0  0  0  0  0  0  0  0  0
   -5.3279    0.9188    0.2527 C   0  0  0  0  0  0  0  0  0  0  0  0
   -5.9945   -1.4801    0.1879 C   0  0  0  0  0  0  0  0  0  0  0  0
   -7.4928   -1.5998    0.0793 C   0  0  0  0  0  0  0  0  0  0  0  0
    1.1993   -0.0671   -1.5437 H   0  0  0  0  0  0  0  0  0  0  0  0
    1.7624   -1.6330    0.9954 H   0  0  0  0  0  0  0  0  0  0  0  0
    3.3267    0.5026   -0.5324 H   0  0  0  0  0  0  0  0  0  0  0  0
   -0.7411    1.3119   -1.5987 H   0  0  0  0  0  0  0  0  0  0  0  0
    0.5412    2.3722    1.2030 H   0  0  0  0  0  0  0  0  0  0  0  0
    2.0821    0.8500    2.2253 H   0  0  0  0  0  0  0  0  0  0  0  0
    2.9654    2.0459    1.2865 H   0  0  0  0  0  0  0  0  0  0  0  0
    5.8720   -1.9841    0.7815 H   0  0  0  0  0  0  0  0  0  0  0  0
   -0.4302   -2.3245   -0.3531 H   0  0  0  0  0  0  0  0  0  0  0  0
    0.0322   -2.0414   -2.0352 H   0  0  0  0  0  0  0  0  0  0  0  0
    2.9852   -1.7812   -1.7875 H   0  0  0  0  0  0  0  0  0  0  0  0
    2.1235   -3.0492   -0.9360 H   0  0  0  0  0  0  0  0  0  0  0  0
   -1.7638   -0.6108   -2.3406 H   0  0  0  0  0  0  0  0  0  0  0  0
   -2.3356   -1.1084   -0.7416 H   0  0  0  0  0  0  0  0  0  0  0  0
    3.8456   -3.2584    0.7411 H   0  0  0  0  0  0  0  0  0  0  0  0
    4.5773   -3.3738   -0.8432 H   0  0  0  0  0  0  0  0  0  0  0  0
    6.2192    0.3160    1.9616 H   0  0  0  0  0  0  0  0  0  0  0  0
    4.9399    1.5008    1.9594 H   0  0  0  0  0  0  0  0  0  0  0  0
    0.3436   -0.5447    2.1897 H   0  0  0  0  0  0  0  0  0  0  0  0
   -1.1849   -0.9350    1.4252 H   0  0  0  0  0  0  0  0  0  0  0  0
   -0.9448    0.6377    2.1793 H   0  0  0  0  0  0  0  0  0  0  0  0
   -2.7279    0.9016    0.6682 H   0  0  0  0  0  0  0  0  0  0  0  0
    6.2123   -1.7182   -1.6125 H   0  0  0  0  0  0  0  0  0  0  0  0
    4.9062   -0.5783   -1.7604 H   0  0  0  0  0  0  0  0  0  0  0  0
    3.3214   -1.8586    2.4810 H   0  0  0  0  0  0  0  0  0  0  0  0
    3.7123   -0.3028    3.2154 H   0  0  0  0  0  0  0  0  0  0  0  0
    4.9774   -1.4952    2.9476 H   0  0  0  0  0  0  0  0  0  0  0  0
    6.7053    2.0612    0.3314 H   0  0  0  0  0  0  0  0  0  0  0  0
    5.1964    1.8035   -0.5027 H   0  0  0  0  0  0  0  0  0  0  0  0
    7.5168   -0.1768   -0.2283 H   0  0  0  0  0  0  0  0  0  0  0  0
    1.9009    3.0843   -0.4371 H   0  0  0  0  0  0  0  0  0  0  0  0
   -3.5078    0.7473   -1.8354 H   0  0  0  0  0  0  0  0  0  0  0  0
   -3.1057    2.4406   -1.9258 H   0  0  0  0  0  0  0  0  0  0  0  0
   -1.1516    3.3502   -0.2559 H   0  0  0  0  0  0  0  0  0  0  0  0
   -1.4181    2.7290    1.4063 H   0  0  0  0  0  0  0  0  0  0  0  0
   -2.7017    3.5078    0.5471 H   0  0  0  0  0  0  0  0  0  0  0  0
   -5.4881    2.1615   -1.4699 H   0  0  0  0  0  0  0  0  0  0  0  0
   -4.7395    2.9442   -0.0843 H   0  0  0  0  0  0  0  0  0  0  0  0
    7.5212    0.0580   -2.4924 H   0  0  0  0  0  0  0  0  0  0  0  0
   -5.2892   -0.3177   -1.4262 H   0  0  0  0  0  0  0  0  0  0  0  0
   -5.7204   -1.4851    1.2470 H   0  0  0  0  0  0  0  0  0  0  0  0
   -5.5370   -2.3302   -0.3258 H   0  0  0  0  0  0  0  0  0  0  0  0
   -9.0453   -0.6720   -0.6396 H   0  0  0  0  0  0  0  0  0  0  0  0
  1 13  1  0  0  0  0
  1 63  1  0  0  0  0
  2 26  1  0  0  0  0
  2 71  1  0  0  0  0
  3 30  2  0  0  0  0
  4 32  1  0  0  0  0
  4 75  1  0  0  0  0
  5 32  2  0  0  0  0
  6 30  1  0  0  0  0
  6 31  1  0  0  0  0
  6 72  1  0  0  0  0
  7  8  1  0  0  0  0
  7 12  1  0  0  0  0
  7 13  1  0  0  0  0
  7 21  1  0  0  0  0
  8  9  1  0  0  0  0
  8 16  1  0  0  0  0
  8 33  1  0  0  0  0
  9 10  1  0  0  0  0
  9 17  1  0  0  0  0
  9 34  1  0  0  0  0
 10 11  1  0  0  0  0
 10 14  1  0  0  0  0
 10 35  1  0  0  0  0
 11 15  1  0  0  0  0
 11 20  1  0  0  0  0
 11 24  1  0  0  0  0
 12 18  1  0  0  0  0
 12 22  1  0  0  0  0
 12 36  1  0  0  0  0
 13 14  1  0  0  0  0
 13 37  1  0  0  0  0
 14 38  1  0  0  0  0
 14 39  1  0  0  0  0
 15 19  1  0  0  0  0
 15 23  1  0  0  0  0
 15 40  1  0  0  0  0
 16 18  1  0  0  0  0
 16 41  1  0  0  0  0
 16 42  1  0  0  0  0
 17 19  1  0  0  0  0
 17 43  1  0  0  0  0
 17 44  1  0  0  0  0
 18 45  1  0  0  0  0
 18 46  1  0  0  0  0
 19 47  1  0  0  0  0
 19 48  1  0  0  0  0
 20 25  1  0  0  0  0
 20 49  1  0  0  0  0
 20 50  1  0  0  0  0
 21 51  1  0  0  0  0
 21 52  1  0  0  0  0
 21 53  1  0  0  0  0
 22 27  1  0  0  0  0
 22 28  1  0  0  0  0
 22 54  1  0  0  0  0
 23 26  1  0  0  0  0
 23 55  1  0  0  0  0
 23 56  1  0  0  0  0
 24 57  1  0  0  0  0
 24 58  1  0  0  0  0
 24 59  1  0  0  0  0
 25 26  1  0  0  0  0
 25 60  1  0  0  0  0
 25 61  1  0  0  0  0
 26 62  1  0  0  0  0
 27 29  1  0  0  0  0
 27 64  1  0  0  0  0
 27 65  1  0  0  0  0
 28 66  1  0  0  0  0
 28 67  1  0  0  0  0
 28 68  1  0  0  0  0
 29 30  1  0  0  0  0
 29 69  1  0  0  0  0
 29 70  1  0  0  0  0
 31 32  1  0  0  0  0
 31 73  1  0  0  0  0
 31 74  1  0  0  0  0
M  END
> <PUBCHEM_COMPOUND_CID>
133109148

> <PUBCHEM_CONFORMER_RMSD>
1

> <PUBCHEM_CONFORMER_DIVERSEORDER>
10
24
61
53
31
15
42
48
62
39
32
30
40
47
51
17
58
55
23
36
22
11
5
26
43
35
25
60
20
33
46
37
13
29
27
7
57
50
52
1
12
45
56
9
18
14
49
34
28
21
41
19
44
8
38
6
59
54
3
16
2
4

> <PUBCHEM_MMFF94_PARTIAL_CHARGES>
16
1 -0.68
13 0.28
2 -0.68
26 0.28
29 0.06
3 -0.57
30 0.57
31 0.36
32 0.66
4 -0.65
5 -0.57
6 -0.73
63 0.4
71 0.4
72 0.37
75 0.5

> <PUBCHEM_EFFECTIVE_ROTOR_COUNT>
9.2

> <PUBCHEM_PHARMACOPHORE_FEATURES>
14
1 1 acceptor
1 1 donor
1 2 acceptor
1 2 donor
1 28 hydrophobe
1 3 acceptor
1 4 acceptor
1 5 acceptor
1 6 donor
3 4 5 32 anion
5 7 8 12 16 18 rings
6 11 15 20 23 25 26 rings
6 7 8 9 10 13 14 rings
6 9 10 11 15 17 19 rings

> <PUBCHEM_HEAVY_ATOM_COUNT>
32

> <PUBCHEM_ATOM_DEF_STEREO_COUNT>
9

> <PUBCHEM_ATOM_UDEF_STEREO_COUNT>
1

> <PUBCHEM_BOND_DEF_STEREO_COUNT>
0

> <PUBCHEM_BOND_UDEF_STEREO_COUNT>
0

> <PUBCHEM_ISOTOPIC_ATOM_COUNT>
0

> <PUBCHEM_COMPONENT_COUNT>
1

> <PUBCHEM_CACTVS_TAUTO_COUNT>
2

> <PUBCHEM_CONFORMER_ID>
07EF159C0000000A

> <PUBCHEM_MMFF94_ENERGY>
102.6159

> <PUBCHEM_FEATURE_SELFOVERLAP>
71.233

> <PUBCHEM_SHAPE_FINGERPRINT>
10076449 9 18059863874206138252
10591671 39 18411142428726948420
11135609 12 18409722989723203279
11475781 23 11169908364416496203
11724838 91 17894631465975833492
11963148 33 18409440367411047507
12166972 35 17989205975397343297
12522641 126 18044101382637247941
12730499 353 18131066018270256350
12778500 126 11959734850354142550
13782708 43 18115021879514103403
14251764 18 18413389848001019519
14955137 171 18201718448689463737
15131766 46 12605681541940906266
15183329 4 18113618989008670923
15352257 5 18411700963559685555
15510800 12 18041851722513516883
18335252 98 18411982468516686758
18608769 82 18342735238894391182
20028762 73 18410571791099201795
20105231 36 17775573047847788910
20511986 3 13118005525763596216
21049683 271 18410578422149041732
21150785 3 17530684324898638767
21223535 225 8862673369978751315
21267235 1 18272371970652096228
21623969 137 17988922250005312679
21774942 28 12396564214162387511
21781051 124 18271811203302301262
21859007 373 8862948242746585190
22149856 69 18273221863497609145
23522609 53 18044118794123708388
24771293 8 15574721283379119382
24771750 20 18117566347670236124
25222932 49 18041268898765182834
2747138 104 18272931639656899993
3009799 131 12540694821149236487
350125 39 18343581841367622005
4073 2 18337953381943267253
4093350 32 15554443016614743232
4340502 62 17313107411065937954
437795 51 17988921201853684666
4461854 278 18059304266033679935
484989 97 18200037231703542174
5104073 3 17986946362874284987
5381727 24 18186518809802671082
563151 248 16559026121551669493
57527293 21 17825110307271083608

> <PUBCHEM_SHAPE_MULTIPOLES>
624.22
20.04
2.6
1.5
24.28
0.09
0.37
7.06
-0.57
1.7
-0.13
-1.65
0.02
0.42

> <PUBCHEM_SHAPE_SELFOVERLAP>
1301.591

> <PUBCHEM_SHAPE_VOLUME>
350.4

> <PUBCHEM_COORDINATE_TYPE>
2
5
10

$$$$
