133212
  -OEChem-03292013323D

 46 47  0     1  0  0  0  0  0999 V2000
    1.4191   -1.4940    0.5703 S   0  0  0  0  0  0  0  0  0  0  0  0
    5.3132   -2.0658   -0.5386 O   0  0  0  0  0  0  0  0  0  0  0  0
    2.4026    2.4831   -1.4089 O   0  0  0  0  0  0  0  0  0  0  0  0
    6.3397    0.5656    0.3792 O   0  0  0  0  0  0  0  0  0  0  0  0
    4.7058    0.4697    1.9659 O   0  0  0  0  0  0  0  0  0  0  0  0
   -1.7473    1.3268    1.2965 O   0  0  0  0  0  0  0  0  0  0  0  0
   -6.1904   -2.2602    0.3181 O   0  0  0  0  0  0  0  0  0  0  0  0
   -6.9667   -0.5601    1.6014 O   0  0  0  0  0  0  0  0  0  0  0  0
    2.9071    0.6543   -0.0250 N   0  0  0  0  0  0  0  0  0  0  0  0
   -0.2051    0.8697   -0.3745 N   0  0  0  0  0  0  0  0  0  0  0  0
   -6.9730    1.1957   -0.4684 N   0  0  0  0  0  0  0  0  0  0  0  0
    1.9251    0.2122    0.9530 C   0  0  1  0  0  0  0  0  0  0  0  0
    4.1678    0.0455   -0.3538 C   0  0  2  0  0  0  0  0  0  0  0  0
    0.9908    1.2989    0.3730 C   0  0  1  0  0  0  0  0  0  0  0  0
    4.0099   -1.4701   -0.6023 C   0  0  2  0  0  0  0  0  0  0  0  0
    2.1829    1.6690   -0.5426 C   0  0  0  0  0  0  0  0  0  0  0  0
    3.1147   -2.1697    0.4484 C   0  0  0  0  0  0  0  0  0  0  0  0
    3.4888   -1.7151   -2.0289 C   0  0  0  0  0  0  0  0  0  0  0  0
    5.0655    0.3774    0.8016 C   0  0  0  0  0  0  0  0  0  0  0  0
   -1.4837    0.9247    0.1663 C   0  0  0  0  0  0  0  0  0  0  0  0
   -2.5300    0.3983   -0.8018 C   0  0  0  0  0  0  0  0  0  0  0  0
   -3.9548    0.4400   -0.2476 C   0  0  0  0  0  0  0  0  0  0  0  0
   -4.9840   -0.0915   -1.2576 C   0  0  0  0  0  0  0  0  0  0  0  0
   -6.4312   -0.1349   -0.7425 C   0  0  1  0  0  0  0  0  0  0  0  0
   -6.5668   -0.9693    0.5190 C   0  0  0  0  0  0  0  0  0  0  0  0
    2.2162    0.3842    1.9929 H   0  0  0  0  0  0  0  0  0  0  0  0
    4.5608    0.5556   -1.2425 H   0  0  0  0  0  0  0  0  0  0  0  0
    0.7635    2.1055    1.0813 H   0  0  0  0  0  0  0  0  0  0  0  0
    3.5826   -2.1174    1.4386 H   0  0  0  0  0  0  0  0  0  0  0  0
    3.0344   -3.2387    0.2186 H   0  0  0  0  0  0  0  0  0  0  0  0
    3.3797   -2.7882   -2.2242 H   0  0  0  0  0  0  0  0  0  0  0  0
    2.5252   -1.2312   -2.2144 H   0  0  0  0  0  0  0  0  0  0  0  0
    4.2052   -1.3415   -2.7702 H   0  0  0  0  0  0  0  0  0  0  0  0
   -0.1019    0.5068   -1.3195 H   0  0  0  0  0  0  0  0  0  0  0  0
    5.2158   -3.0197   -0.7014 H   0  0  0  0  0  0  0  0  0  0  0  0
   -2.4735    0.9965   -1.7193 H   0  0  0  0  0  0  0  0  0  0  0  0
   -2.2637   -0.6341   -1.0593 H   0  0  0  0  0  0  0  0  0  0  0  0
   -4.2056    1.4709    0.0301 H   0  0  0  0  0  0  0  0  0  0  0  0
   -3.9924   -0.1513    0.6751 H   0  0  0  0  0  0  0  0  0  0  0  0
    6.9430    0.7846    1.1210 H   0  0  0  0  0  0  0  0  0  0  0  0
   -4.9434    0.5210   -2.1676 H   0  0  0  0  0  0  0  0  0  0  0  0
   -4.6851   -1.1043   -1.5579 H   0  0  0  0  0  0  0  0  0  0  0  0
   -7.0671   -0.5978   -1.5068 H   0  0  0  0  0  0  0  0  0  0  0  0
   -6.9051    1.7710   -1.3070 H   0  0  0  0  0  0  0  0  0  0  0  0
   -7.9667    1.1237   -0.2523 H   0  0  0  0  0  0  0  0  0  0  0  0
   -6.2789   -2.7975    1.1340 H   0  0  0  0  0  0  0  0  0  0  0  0
  1 12  1  0  0  0  0
  1 17  1  0  0  0  0
  2 15  1  0  0  0  0
  2 35  1  0  0  0  0
  3 16  2  0  0  0  0
  4 19  1  0  0  0  0
  4 40  1  0  0  0  0
  5 19  2  0  0  0  0
  6 20  2  0  0  0  0
  7 25  1  0  0  0  0
  7 46  1  0  0  0  0
  8 25  2  0  0  0  0
  9 12  1  0  0  0  0
  9 13  1  0  0  0  0
  9 16  1  0  0  0  0
 10 14  1  0  0  0  0
 10 20  1  0  0  0  0
 10 34  1  0  0  0  0
 11 24  1  0  0  0  0
 11 44  1  0  0  0  0
 11 45  1  0  0  0  0
 12 14  1  0  0  0  0
 12 26  1  0  0  0  0
 13 15  1  0  0  0  0
 13 19  1  0  0  0  0
 13 27  1  0  0  0  0
 14 16  1  0  0  0  0
 14 28  1  0  0  0  0
 15 17  1  0  0  0  0
 15 18  1  0  0  0  0
 17 29  1  0  0  0  0
 17 30  1  0  0  0  0
 18 31  1  0  0  0  0
 18 32  1  0  0  0  0
 18 33  1  0  0  0  0
 20 21  1  0  0  0  0
 21 22  1  0  0  0  0
 21 36  1  0  0  0  0
 21 37  1  0  0  0  0
 22 23  1  0  0  0  0
 22 38  1  0  0  0  0
 22 39  1  0  0  0  0
 23 24  1  0  0  0  0
 23 41  1  0  0  0  0
 23 42  1  0  0  0  0
 24 25  1  0  0  0  0
 24 43  1  0  0  0  0
M  END
> <PUBCHEM_COMPOUND_CID>
133212

> <PUBCHEM_CONFORMER_RMSD>
1

> <PUBCHEM_CONFORMER_DIVERSEORDER>
6
33
22
31
23
35
2
8
34
51
32
28
53
42
7
10
44
36
47
45
25
20
39
15
41
40
29
26
3
19
37
21
46
38
50
13
17
49
54
12
16
48
1
43
9
5
14
4
27
24
11
52
18
30

> <PUBCHEM_MMFF94_PARTIAL_CHARGES>
28
1 -0.45
10 -0.65
11 -0.99
12 0.44
13 0.36
14 0.28
15 0.28
16 0.58
17 0.23
19 0.66
2 -0.68
20 0.57
21 0.06
24 0.33
25 0.66
3 -0.57
34 0.37
35 0.4
4 -0.65
40 0.5
44 0.36
45 0.36
46 0.5
5 -0.57
6 -0.57
7 -0.65
8 -0.57
9 -0.59

> <PUBCHEM_EFFECTIVE_ROTOR_COUNT>
9

> <PUBCHEM_PHARMACOPHORE_FEATURES>
15
1 10 donor
1 11 cation
1 11 donor
1 2 acceptor
1 2 donor
1 3 acceptor
1 4 acceptor
1 5 acceptor
1 6 acceptor
1 7 acceptor
1 8 acceptor
3 4 5 19 anion
3 7 8 25 anion
4 9 12 14 16 rings
6 1 9 12 13 15 17 rings

> <PUBCHEM_HEAVY_ATOM_COUNT>
25

> <PUBCHEM_ATOM_DEF_STEREO_COUNT>
4

> <PUBCHEM_ATOM_UDEF_STEREO_COUNT>
1

> <PUBCHEM_BOND_DEF_STEREO_COUNT>
0

> <PUBCHEM_BOND_UDEF_STEREO_COUNT>
0

> <PUBCHEM_ISOTOPIC_ATOM_COUNT>
0

> <PUBCHEM_COMPONENT_COUNT>
1

> <PUBCHEM_CACTVS_TAUTO_COUNT>
2

> <PUBCHEM_CONFORMER_ID>
0002085C00000006

> <PUBCHEM_MMFF94_ENERGY>
45.1394

> <PUBCHEM_FEATURE_SELFOVERLAP>
76.514

> <PUBCHEM_SHAPE_FINGERPRINT>
11089746 13 11241968178915267703
11796584 16 18408880738025560355
12236239 1 18131349683405890409
12596602 18 17561367270856399107
12623949 98 17631462163893516838
13533116 47 17560802100183475518
13685833 64 18410856551318925863
13878862 14 11386371499410548238
14251757 52 13038893478613278298
14341114 176 18343021077726569367
14528608 73 12179846113199143525
14863182 85 18202002140464781238
15142383 8 17203611450207456369
15183329 4 18113616768826836081
15537594 2 18060411434959448695
17844677 252 18186804691046867805
20645477 70 18186802504032684141
21267235 1 18201723903993963134
21315763 178 17775559853982081175
21521721 280 17988638666452770168
21623969 137 18343303678090440383
220451 1 17418091044317056517
22061861 79 18259704502205986893
22224240 67 18341601656108584424
2303208 19 18040441010213000729
23559900 14 18335695075117264481
239999 70 18409449189251930190
2838139 119 11963387436677303727
3004659 81 18259703410730658933
338550 245 18336264656120513023
4340502 62 18342731944960131338
46194498 28 17894630365995195140
465052 167 18342178851492671575
5104073 3 17988641826841643064

> <PUBCHEM_SHAPE_MULTIPOLES>
462.31
18.52
2.1
1.39
30.24
0.53
-0.05
5.09
1.45
-1.41
-0.34
-0.38
0.09
1.15

> <PUBCHEM_SHAPE_SELFOVERLAP>
936.75

> <PUBCHEM_SHAPE_VOLUME>
269.6

> <PUBCHEM_COORDINATE_TYPE>
2
5
10

$$$$
