133259
  -OEChem-03292013323D

 47 49  0     1  0  0  0  0  0999 V2000
   -4.4209    1.5127   -0.5004 O   0  0  0  0  0  0  0  0  0  0  0  0
    5.5703    0.9657    0.4845 O   0  0  0  0  0  0  0  0  0  0  0  0
    6.9012   -1.0755   -0.4224 O   0  0  0  0  0  0  0  0  0  0  0  0
    5.9725   -3.0600    0.2754 O   0  0  0  0  0  0  0  0  0  0  0  0
   -2.7361   -0.1208   -0.6181 N   0  0  0  0  0  0  0  0  0  0  0  0
    3.2507    0.8440    0.2029 N   0  0  0  0  0  0  0  0  0  0  0  0
    1.9191    2.8136    0.4281 N   0  0  0  0  0  0  0  0  0  0  0  0
    2.2502   -1.2587   -0.3032 N   0  0  0  0  0  0  0  0  0  0  0  0
   -5.5323   -1.4744    0.3152 C   0  0  1  0  0  0  0  0  0  0  0  0
   -5.0626   -0.7665   -0.9892 C   0  0  1  0  0  0  0  0  0  0  0  0
   -6.1505   -0.4566    1.2984 C   0  0  0  0  0  0  0  0  0  0  0  0
   -6.4907   -2.6402    0.0386 C   0  0  0  0  0  0  0  0  0  0  0  0
   -6.2094   -0.2304   -1.8504 C   0  0  0  0  0  0  0  0  0  0  0  0
   -4.0571    0.3525   -0.6720 C   0  0  0  0  0  0  0  0  0  0  0  0
   -6.5783   -1.0747    2.6233 C   0  0  0  0  0  0  0  0  0  0  0  0
   -1.5699    0.5999   -0.3580 C   0  0  0  0  0  0  0  0  0  0  0  0
    0.8308    0.6782   -0.0881 C   0  0  0  0  0  0  0  0  0  0  0  0
   -0.3362   -0.0499   -0.3483 C   0  0  0  0  0  0  0  0  0  0  0  0
    0.7709    2.0537    0.1629 C   0  0  0  0  0  0  0  0  0  0  0  0
    2.1564    0.0150   -0.0715 C   0  0  0  0  0  0  0  0  0  0  0  0
   -1.6397    1.9689   -0.1100 C   0  0  0  0  0  0  0  0  0  0  0  0
   -0.4747    2.6919    0.1493 C   0  0  0  0  0  0  0  0  0  0  0  0
    3.0545    2.1957    0.4352 C   0  0  0  0  0  0  0  0  0  0  0  0
    4.5479    0.3258    0.2467 C   0  0  0  0  0  0  0  0  0  0  0  0
    4.6347   -1.1313   -0.0239 C   0  0  0  0  0  0  0  0  0  0  0  0
    3.5045   -1.8011   -0.2732 C   0  0  0  0  0  0  0  0  0  0  0  0
    5.8946   -1.8776   -0.0318 C   0  0  0  0  0  0  0  0  0  0  0  0
   -4.6387   -1.8956    0.7968 H   0  0  0  0  0  0  0  0  0  0  0  0
   -4.5423   -1.5147   -1.6035 H   0  0  0  0  0  0  0  0  0  0  0  0
   -5.4255    0.3293    1.5343 H   0  0  0  0  0  0  0  0  0  0  0  0
   -7.0232    0.0331    0.8532 H   0  0  0  0  0  0  0  0  0  0  0  0
   -7.4830   -2.2869   -0.2594 H   0  0  0  0  0  0  0  0  0  0  0  0
   -6.1000   -3.2802   -0.7596 H   0  0  0  0  0  0  0  0  0  0  0  0
   -6.6101   -3.2705    0.9256 H   0  0  0  0  0  0  0  0  0  0  0  0
   -6.8085    0.5189   -1.3244 H   0  0  0  0  0  0  0  0  0  0  0  0
   -5.8115    0.2545   -2.7495 H   0  0  0  0  0  0  0  0  0  0  0  0
   -6.8739   -1.0342   -2.1804 H   0  0  0  0  0  0  0  0  0  0  0  0
   -7.4248   -1.7558    2.4962 H   0  0  0  0  0  0  0  0  0  0  0  0
   -5.7528   -1.6244    3.0862 H   0  0  0  0  0  0  0  0  0  0  0  0
   -6.8928   -0.2890    3.3183 H   0  0  0  0  0  0  0  0  0  0  0  0
   -2.5991   -1.1158   -0.7817 H   0  0  0  0  0  0  0  0  0  0  0  0
   -0.2930   -1.1186   -0.5436 H   0  0  0  0  0  0  0  0  0  0  0  0
   -2.5555    2.5426   -0.0995 H   0  0  0  0  0  0  0  0  0  0  0  0
   -0.5431    3.7602    0.3420 H   0  0  0  0  0  0  0  0  0  0  0  0
    3.9729    2.7666    0.6407 H   0  0  0  0  0  0  0  0  0  0  0  0
    3.5241   -2.8670   -0.4810 H   0  0  0  0  0  0  0  0  0  0  0  0
    7.7625   -1.5447   -0.4412 H   0  0  0  0  0  0  0  0  0  0  0  0
  1 14  2  0  0  0  0
  2 24  2  0  0  0  0
  3 27  1  0  0  0  0
  3 47  1  0  0  0  0
  4 27  2  0  0  0  0
  5 14  1  0  0  0  0
  5 16  1  0  0  0  0
  5 41  1  0  0  0  0
  6 20  1  0  0  0  0
  6 23  1  0  0  0  0
  6 24  1  0  0  0  0
  7 19  1  0  0  0  0
  7 23  2  0  0  0  0
  8 20  2  0  0  0  0
  8 26  1  0  0  0  0
  9 10  1  0  0  0  0
  9 11  1  0  0  0  0
  9 12  1  0  0  0  0
  9 28  1  0  0  0  0
 10 13  1  0  0  0  0
 10 14  1  0  0  0  0
 10 29  1  0  0  0  0
 11 15  1  0  0  0  0
 11 30  1  0  0  0  0
 11 31  1  0  0  0  0
 12 32  1  0  0  0  0
 12 33  1  0  0  0  0
 12 34  1  0  0  0  0
 13 35  1  0  0  0  0
 13 36  1  0  0  0  0
 13 37  1  0  0  0  0
 15 38  1  0  0  0  0
 15 39  1  0  0  0  0
 15 40  1  0  0  0  0
 16 18  2  0  0  0  0
 16 21  1  0  0  0  0
 17 18  1  0  0  0  0
 17 19  2  0  0  0  0
 17 20  1  0  0  0  0
 18 42  1  0  0  0  0
 19 22  1  0  0  0  0
 21 22  2  0  0  0  0
 21 43  1  0  0  0  0
 22 44  1  0  0  0  0
 23 45  1  0  0  0  0
 24 25  1  0  0  0  0
 25 26  2  0  0  0  0
 25 27  1  0  0  0  0
 26 46  1  0  0  0  0
M  END
> <PUBCHEM_COMPOUND_CID>
133259

> <PUBCHEM_CONFORMER_RMSD>
0.8

> <PUBCHEM_CONFORMER_DIVERSEORDER>
1
9
27
12
47
51
7
46
22
44
19
49
35
5
37
39
11
4
34
42
17
52
25
20
23
13
10
45
41
2
32
14
28
36
33
43
26
31
18
29
48
50
3
21
38
40
16
30
15
6
8
24

> <PUBCHEM_MMFF94_PARTIAL_CHARGES>
29
1 -0.57
10 0.06
14 0.57
16 0.12
17 0.09
18 -0.15
19 0.18
2 -0.57
20 0.42
21 -0.15
22 -0.15
23 0.45
24 0.62
25 0.03
26 0.02
27 0.71
3 -0.65
4 -0.57
41 0.37
42 0.15
43 0.15
44 0.15
45 0.06
46 0.15
47 0.5
5 -0.55
6 -0.18
7 -0.63
8 -0.62

> <PUBCHEM_EFFECTIVE_ROTOR_COUNT>
6

> <PUBCHEM_PHARMACOPHORE_FEATURES>
13
1 1 acceptor
1 12 hydrophobe
1 13 hydrophobe
1 15 hydrophobe
1 2 acceptor
1 25 anion
1 3 acceptor
1 4 acceptor
1 5 donor
3 3 4 27 anion
6 16 17 18 19 21 22 rings
6 6 7 17 19 20 23 rings
6 6 8 20 24 25 26 rings

> <PUBCHEM_HEAVY_ATOM_COUNT>
27

> <PUBCHEM_ATOM_DEF_STEREO_COUNT>
0

> <PUBCHEM_ATOM_UDEF_STEREO_COUNT>
2

> <PUBCHEM_BOND_DEF_STEREO_COUNT>
0

> <PUBCHEM_BOND_UDEF_STEREO_COUNT>
0

> <PUBCHEM_ISOTOPIC_ATOM_COUNT>
0

> <PUBCHEM_COMPONENT_COUNT>
1

> <PUBCHEM_CACTVS_TAUTO_COUNT>
2

> <PUBCHEM_CONFORMER_ID>
0002088B00000001

> <PUBCHEM_MMFF94_ENERGY>
79.3892

> <PUBCHEM_FEATURE_SELFOVERLAP>
66.436

> <PUBCHEM_SHAPE_FINGERPRINT>
11545043 162 17894908551628031133
11963148 33 18337662109762033078
12166972 35 17967537861230855212
12236239 1 17418092143638805821
12596602 18 16630526280021060995
12760667 363 18342172246339079815
13533116 47 18201997772277799904
13673619 4 18259988175858007973
13685833 64 18410575093268987199
13782708 43 17967809444528773435
13862211 1 18271799112193312071
13955234 65 18128246994736897408
14123256 34 18409735040752881494
14849402 71 17702101572030203664
15196674 1 18341888538196179108
15510800 12 17677901317662253411
15927050 60 17768522047931418924
17492 89 17981040822294211782
17844677 252 18411420627034229565
20028762 73 18059847351293547126
20281389 69 10807933782218341119
21033650 10 16660917769582685917
21049683 271 18409452518611831164
21130935 74 18272932764796140315
21150785 3 15647061477343164934
21267235 1 18343023260086705990
21623969 137 18409172142676723443
21682296 61 18411136944375490615
22288116 15 13768222609517555731
2260408 40 16845025519269037478
2303208 19 18040434425732834323
23522609 53 18126034712954387825
23559900 14 18336254743594326325
25269216 80 15430042076541613059
2748736 6 8935000347784537023
3004659 81 18259978258730983604
314194 84 18271801350208831287
335352 9 18341607054540071533
34797466 226 16660930001480570741
4073 2 18259704493394545089
4093350 32 16415204529214898560
439807 62 18261392213330471463
46194498 28 17676482882810534668
465052 167 18272369776414353726
484989 97 18187093892184525234
5104073 3 18201715103363342032
5718773 13 18265326223597391394
59682541 35 18271511067087640346
636775 8 18269001899944201022
6431902 208 18411135836226461839
6608658 132 13767916911031277991
8863177 126 18260837054695989491
999808 66 18259992569836703819

> <PUBCHEM_SHAPE_MULTIPOLES>
512.25
19.05
2.92
1.2
7.6
0.21
-0.46
-14.99
-2.39
-2.27
-0.33
3.22
-0.29
1.21

> <PUBCHEM_SHAPE_SELFOVERLAP>
1104.82

> <PUBCHEM_SHAPE_VOLUME>
278

> <PUBCHEM_COORDINATE_TYPE>
2
5
10

$$$$
