13337891
  -OEChem-03292013303D

 28 29  0     0  0  0  0  0  0999 V2000
   -0.0435   -1.0713   -0.4357 S   0  0  0  0  0  0  0  0  0  0  0  0
    2.4052   -2.7768   -0.8159 S   0  0  0  0  0  0  0  0  0  0  0  0
   -2.6749   -0.1168    0.5072 O   0  0  0  0  0  0  0  0  0  0  0  0
    1.8221    2.2550   -0.3098 O   0  0  0  0  0  0  0  0  0  0  0  0
   -4.7869   -2.3669   -0.0672 O   0  0  0  0  0  0  0  0  0  0  0  0
    5.6158   -0.5707    0.6341 O   0  0  0  0  0  0  0  0  0  0  0  0
    3.8497    0.3810    1.7018 O   0  0  0  0  0  0  0  0  0  0  0  0
    2.3110   -0.0302   -0.5651 N   0  0  0  0  0  0  0  0  0  0  0  0
    0.0757    0.6339   -0.2943 C   0  0  0  0  0  0  0  0  0  0  0  0
    1.4855    1.0808   -0.3865 C   0  0  0  0  0  0  0  0  0  0  0  0
    3.7591    0.1103   -0.6917 C   0  0  0  0  0  0  0  0  0  0  0  0
   -2.3233    1.0691   -0.0290 C   0  0  0  0  0  0  0  0  0  0  0  0
   -0.9491    1.4702   -0.1219 C   0  0  0  0  0  0  0  0  0  0  0  0
    1.6970   -1.2762   -0.6176 C   0  0  0  0  0  0  0  0  0  0  0  0
   -4.0309   -0.1691    0.4377 C   0  0  0  0  0  0  0  0  0  0  0  0
   -3.4080    1.7838   -0.4423 C   0  0  0  0  0  0  0  0  0  0  0  0
   -4.5298    0.9761   -0.1383 C   0  0  0  0  0  0  0  0  0  0  0  0
   -4.6621   -1.3866    0.9660 C   0  0  0  0  0  0  0  0  0  0  0  0
    4.3874    0.0046    0.6684 C   0  0  0  0  0  0  0  0  0  0  0  0
    3.9999    1.0992   -1.0956 H   0  0  0  0  0  0  0  0  0  0  0  0
    4.1681   -0.6495   -1.3623 H   0  0  0  0  0  0  0  0  0  0  0  0
   -0.7596    2.5408   -0.0877 H   0  0  0  0  0  0  0  0  0  0  0  0
   -3.4126    2.7609   -0.9049 H   0  0  0  0  0  0  0  0  0  0  0  0
   -5.5710    1.2023   -0.3185 H   0  0  0  0  0  0  0  0  0  0  0  0
   -4.0667   -1.8170    1.7777 H   0  0  0  0  0  0  0  0  0  0  0  0
   -5.6629   -1.1671    1.3517 H   0  0  0  0  0  0  0  0  0  0  0  0
   -5.2104   -3.1462    0.3319 H   0  0  0  0  0  0  0  0  0  0  0  0
    6.0122   -0.6408    1.5287 H   0  0  0  0  0  0  0  0  0  0  0  0
  1  9  1  0  0  0  0
  1 14  1  0  0  0  0
  2 14  2  0  0  0  0
  3 12  1  0  0  0  0
  3 15  1  0  0  0  0
  4 10  2  0  0  0  0
  5 18  1  0  0  0  0
  5 27  1  0  0  0  0
  6 19  1  0  0  0  0
  6 28  1  0  0  0  0
  7 19  2  0  0  0  0
  8 10  1  0  0  0  0
  8 11  1  0  0  0  0
  8 14  1  0  0  0  0
  9 10  1  0  0  0  0
  9 13  2  0  0  0  0
 11 19  1  0  0  0  0
 11 20  1  0  0  0  0
 11 21  1  0  0  0  0
 12 13  1  0  0  0  0
 12 16  2  0  0  0  0
 13 22  1  0  0  0  0
 15 17  2  0  0  0  0
 15 18  1  0  0  0  0
 16 17  1  0  0  0  0
 16 23  1  0  0  0  0
 17 24  1  0  0  0  0
 18 25  1  0  0  0  0
 18 26  1  0  0  0  0
M  END
> <PUBCHEM_COMPOUND_CID>
13337891

> <PUBCHEM_CONFORMER_RMSD>
0.6

> <PUBCHEM_CONFORMER_DIVERSEORDER>
2
29
28
26
34
10
17
24
11
36
8
27
18
32
31
22
23
3
7
35
21
16
6
33
12
14
15
30
4
20
9
5
19
25
1
13

> <PUBCHEM_MMFF94_PARTIAL_CHARGES>
24
1 -0.24
10 0.62
11 0.36
12 0.09
13 -0.11
14 0.58
15 -0.04
16 -0.15
17 -0.15
18 0.46
19 0.66
2 -0.38
22 0.15
23 0.15
24 0.15
27 0.4
28 0.5
3 -0.28
4 -0.57
5 -0.68
6 -0.65
7 -0.57
8 -0.42
9 0.12

> <PUBCHEM_EFFECTIVE_ROTOR_COUNT>
4.4

> <PUBCHEM_PHARMACOPHORE_FEATURES>
10
1 2 acceptor
1 3 acceptor
1 4 acceptor
1 5 acceptor
1 5 donor
1 6 acceptor
1 7 acceptor
3 6 7 19 anion
5 1 8 9 10 14 rings
5 3 12 15 16 17 rings

> <PUBCHEM_HEAVY_ATOM_COUNT>
19

> <PUBCHEM_ATOM_DEF_STEREO_COUNT>
0

> <PUBCHEM_ATOM_UDEF_STEREO_COUNT>
0

> <PUBCHEM_BOND_DEF_STEREO_COUNT>
1

> <PUBCHEM_BOND_UDEF_STEREO_COUNT>
0

> <PUBCHEM_ISOTOPIC_ATOM_COUNT>
0

> <PUBCHEM_COMPONENT_COUNT>
1

> <PUBCHEM_CACTVS_TAUTO_COUNT>
1

> <PUBCHEM_CONFORMER_ID>
00CB852300000002

> <PUBCHEM_MMFF94_ENERGY>
28.0395

> <PUBCHEM_FEATURE_SELFOVERLAP>
50.807

> <PUBCHEM_SHAPE_FINGERPRINT>
11132069 177 18413672400608190359
11796584 16 16877943819430987987
12236239 1 17821450149753665580
12293681 25 17970660461132272490
12839892 36 18410002230689783178
13140716 1 18270114768101855320
13167823 11 17748827423022202737
13583140 156 18060409197323756365
13675066 3 18131069324719737213
13911882 115 18272942608850672270
14178342 30 18268438935976599689
14252887 29 17560811995772152084
15099037 37 18334857221170213885
15196674 1 18409172116421298245
15536298 74 18270685242526866542
15788980 27 16660647327885905869
17349148 13 18187651322650763975
17862501 102 18260265261056239153
18785283 64 17914888975143156040
200 152 18060133224748797781
20028762 73 18128818719139848839
20261772 1 18272933868307147942
20626108 58 17967810586953274184
21033648 29 17631433614639388008
21637258 2 16298652912119778240
221490 88 18337124405404019655
22646028 1 17676489458056830089
22854114 59 18130786741862938648
23402539 116 17167860850883538557
23557571 272 17968656017264664477
23559900 14 18265900146606243486
26918003 58 18412825768228781705
2838139 119 14979665650804262162
3286 77 18186802521175669277
3545911 37 18340771446950444213
465052 167 18113060449981134210
474 4 16414615186117387552
474229 33 18412262856834951702
5104073 3 18198629834949039627
573450 72 17749665212497199505
76465 3 17967527995385033665
9709674 26 18334588948928668195

> <PUBCHEM_SHAPE_MULTIPOLES>
364.38
10.93
2.34
0.97
1.3
1.14
0.23
2.32
2.95
0.75
-0.47
-0.63
0.09
1

> <PUBCHEM_SHAPE_SELFOVERLAP>
753.812

> <PUBCHEM_SHAPE_VOLUME>
210.9

> <PUBCHEM_COORDINATE_TYPE>
2
5
10

$$$$
