133314
  -OEChem-03292013323D

 50 54  0     0  0  0  0  0  0999 V2000
   -0.0003    0.8031    2.3010 O   0  0  0  0  0  0  0  0  0  0  0  0
   -0.0012   -2.4478   -0.1578 O   0  0  0  0  0  0  0  0  0  0  0  0
   -0.0019    2.8810    3.3211 O   0  0  0  0  0  0  0  0  0  0  0  0
    4.7042   -2.8454    0.1537 O   0  0  0  0  0  0  0  0  0  0  0  0
   -4.7070   -2.8414    0.1531 O   0  0  0  0  0  0  0  0  0  0  0  0
    0.0024    6.3841   -0.5311 O   0  0  0  0  0  0  0  0  0  0  0  0
    0.0055    5.6850   -2.6939 O   0  0  0  0  0  0  0  0  0  0  0  0
    4.8959   -1.9052   -1.9815 O   0  0  0  0  0  0  0  0  0  0  0  0
   -4.8975   -1.8996   -1.9815 O   0  0  0  0  0  0  0  0  0  0  0  0
   -0.0002    0.2580    0.9433 C   0  0  0  0  0  0  0  0  0  0  0  0
    0.0007    1.5049    0.1190 C   0  0  0  0  0  0  0  0  0  0  0  0
    1.2582   -0.5683    0.7656 C   0  0  0  0  0  0  0  0  0  0  0  0
   -1.2591   -0.5674    0.7652 C   0  0  0  0  0  0  0  0  0  0  0  0
    0.0007    2.6134    0.9462 C   0  0  0  0  0  0  0  0  0  0  0  0
    1.1796   -1.8521    0.2138 C   0  0  0  0  0  0  0  0  0  0  0  0
   -1.1817   -1.8514    0.2138 C   0  0  0  0  0  0  0  0  0  0  0  0
    0.0003    2.1742    2.3332 C   0  0  0  0  0  0  0  0  0  0  0  0
    0.0014    1.6631   -1.2579 C   0  0  0  0  0  0  0  0  0  0  0  0
    2.5256   -0.0685    1.1135 C   0  0  0  0  0  0  0  0  0  0  0  0
   -2.5262   -0.0663    1.1123 C   0  0  0  0  0  0  0  0  0  0  0  0
    0.0015    3.9082    0.4617 C   0  0  0  0  0  0  0  0  0  0  0  0
    2.3347   -2.6132    0.0045 C   0  0  0  0  0  0  0  0  0  0  0  0
   -2.3373   -2.6117    0.0046 C   0  0  0  0  0  0  0  0  0  0  0  0
    0.0022    2.9608   -1.7780 C   0  0  0  0  0  0  0  0  0  0  0  0
    0.0022    4.0759   -0.9233 C   0  0  0  0  0  0  0  0  0  0  0  0
    3.6775   -0.8307    0.9110 C   0  0  0  0  0  0  0  0  0  0  0  0
   -3.6786   -0.8277    0.9102 C   0  0  0  0  0  0  0  0  0  0  0  0
    3.5820   -2.1024    0.3546 C   0  0  0  0  0  0  0  0  0  0  0  0
   -3.5841   -2.0999    0.3547 C   0  0  0  0  0  0  0  0  0  0  0  0
    0.0039    5.4163   -1.4882 C   0  0  0  0  0  0  0  0  0  0  0  0
    5.3015   -2.6551   -1.1034 C   0  0  0  0  0  0  0  0  0  0  0  0
   -5.3027   -2.6513   -1.1048 C   0  0  0  0  0  0  0  0  0  0  0  0
    6.5250   -3.5139   -1.2264 C   0  0  0  0  0  0  0  0  0  0  0  0
   -6.5273   -3.5088   -1.2286 C   0  0  0  0  0  0  0  0  0  0  0  0
    0.0014    0.8058   -1.9228 H   0  0  0  0  0  0  0  0  0  0  0  0
    2.6309    0.9251    1.5417 H   0  0  0  0  0  0  0  0  0  0  0  0
   -2.6307    0.9277    1.5398 H   0  0  0  0  0  0  0  0  0  0  0  0
    0.0019    4.7384    1.1593 H   0  0  0  0  0  0  0  0  0  0  0  0
    2.2593   -3.6081   -0.4282 H   0  0  0  0  0  0  0  0  0  0  0  0
   -2.2625   -3.6068   -0.4279 H   0  0  0  0  0  0  0  0  0  0  0  0
    0.0028    3.0881   -2.8580 H   0  0  0  0  0  0  0  0  0  0  0  0
    4.6459   -0.4225    1.1875 H   0  0  0  0  0  0  0  0  0  0  0  0
   -4.6467   -0.4184    1.1860 H   0  0  0  0  0  0  0  0  0  0  0  0
    0.0031    7.2840   -0.9219 H   0  0  0  0  0  0  0  0  0  0  0  0
    7.2469   -3.2405   -0.4530 H   0  0  0  0  0  0  0  0  0  0  0  0
    6.9843   -3.3530   -2.2058 H   0  0  0  0  0  0  0  0  0  0  0  0
    6.2466   -4.5670   -1.1392 H   0  0  0  0  0  0  0  0  0  0  0  0
   -6.2520   -4.5616   -1.1292 H   0  0  0  0  0  0  0  0  0  0  0  0
   -6.9786   -3.3570   -2.2132 H   0  0  0  0  0  0  0  0  0  0  0  0
   -7.2542   -3.2263   -0.4632 H   0  0  0  0  0  0  0  0  0  0  0  0
  1 10  1  0  0  0  0
  1 17  1  0  0  0  0
  2 15  1  0  0  0  0
  2 16  1  0  0  0  0
  3 17  2  0  0  0  0
  4 28  1  0  0  0  0
  4 31  1  0  0  0  0
  5 29  1  0  0  0  0
  5 32  1  0  0  0  0
  6 30  1  0  0  0  0
  6 44  1  0  0  0  0
  7 30  2  0  0  0  0
  8 31  2  0  0  0  0
  9 32  2  0  0  0  0
 10 11  1  0  0  0  0
 10 12  1  0  0  0  0
 10 13  1  0  0  0  0
 11 14  2  0  0  0  0
 11 18  1  0  0  0  0
 12 15  2  0  0  0  0
 12 19  1  0  0  0  0
 13 16  2  0  0  0  0
 13 20  1  0  0  0  0
 14 17  1  0  0  0  0
 14 21  1  0  0  0  0
 15 22  1  0  0  0  0
 16 23  1  0  0  0  0
 18 24  2  0  0  0  0
 18 35  1  0  0  0  0
 19 26  2  0  0  0  0
 19 36  1  0  0  0  0
 20 27  2  0  0  0  0
 20 37  1  0  0  0  0
 21 25  2  0  0  0  0
 21 38  1  0  0  0  0
 22 28  2  0  0  0  0
 22 39  1  0  0  0  0
 23 29  2  0  0  0  0
 23 40  1  0  0  0  0
 24 25  1  0  0  0  0
 24 41  1  0  0  0  0
 25 30  1  0  0  0  0
 26 28  1  0  0  0  0
 26 42  1  0  0  0  0
 27 29  1  0  0  0  0
 27 43  1  0  0  0  0
 31 33  1  0  0  0  0
 32 34  1  0  0  0  0
 33 45  1  0  0  0  0
 33 46  1  0  0  0  0
 33 47  1  0  0  0  0
 34 48  1  0  0  0  0
 34 49  1  0  0  0  0
 34 50  1  0  0  0  0
M  END
> <PUBCHEM_COMPOUND_CID>
133314

> <PUBCHEM_CONFORMER_RMSD>
0.8

> <PUBCHEM_CONFORMER_DIVERSEORDER>
1
16
15
11
10
14
2
8
9
7
3
4
13
12
5
6

> <PUBCHEM_MMFF94_PARTIAL_CHARGES>
44
1 -0.43
10 0.71
11 -0.14
12 -0.14
13 -0.14
14 0.09
15 0.08
16 0.08
17 0.63
18 -0.15
19 -0.15
2 -0.17
20 -0.15
21 -0.15
22 -0.15
23 -0.15
24 -0.15
25 0.09
26 -0.15
27 -0.15
28 0.08
29 0.08
3 -0.57
30 0.63
31 0.66
32 0.66
33 0.06
34 0.06
35 0.15
36 0.15
37 0.15
38 0.15
39 0.15
4 -0.23
40 0.15
41 0.15
42 0.15
43 0.15
44 0.5
5 -0.23
6 -0.65
7 -0.57
8 -0.57
9 -0.57

> <PUBCHEM_EFFECTIVE_ROTOR_COUNT>
5.4

> <PUBCHEM_PHARMACOPHORE_FEATURES>
12
1 2 acceptor
1 3 acceptor
1 6 acceptor
1 7 acceptor
1 8 acceptor
1 9 acceptor
3 6 7 30 anion
5 1 10 11 14 17 rings
6 11 14 18 21 24 25 rings
6 12 15 19 22 26 28 rings
6 13 16 20 23 27 29 rings
6 2 10 12 13 15 16 rings

> <PUBCHEM_HEAVY_ATOM_COUNT>
34

> <PUBCHEM_ATOM_DEF_STEREO_COUNT>
0

> <PUBCHEM_ATOM_UDEF_STEREO_COUNT>
0

> <PUBCHEM_BOND_DEF_STEREO_COUNT>
0

> <PUBCHEM_BOND_UDEF_STEREO_COUNT>
0

> <PUBCHEM_ISOTOPIC_ATOM_COUNT>
0

> <PUBCHEM_COMPONENT_COUNT>
1

> <PUBCHEM_CACTVS_TAUTO_COUNT>
1

> <PUBCHEM_CONFORMER_ID>
000208C200000001

> <PUBCHEM_MMFF94_ENERGY>
111.3136

> <PUBCHEM_FEATURE_SELFOVERLAP>
61.105

> <PUBCHEM_SHAPE_FINGERPRINT>
105312 117 17615415758153740398
10554248 39 18052801827719085855
10721379 63 18049177836469873117
10930396 42 17975937095407350674
10940486 97 18341902857738054169
11049842 53 17475511059156270312
11093857 51 17763741388089318740
11297750 10 18272356548205583346
11331351 85 18060147509556985619
11386260 185 18192970799679242759
11477941 20 18336282150049479990
11582403 64 14974315628438393417
11607047 403 9852171200841592502
12166972 35 18341331197401766871
12788726 201 17897728660744112346
131258 43 18056785293388803934
133893 2 18193853758512491963
13540713 4 17915160349163667546
13540713 5 17986972928186377859
13757389 114 18122637050177862925
14114211 68 17545896279308288859
14294032 229 17831879949118851768
14347332 77 18268994185761164446
14556957 393 18042710346078048062
14565420 104 8718559328184383519
14955137 171 18191615058090486467
15198563 99 18336829680358100270
15219462 58 14961920971340431376
15664445 248 18193568985148675316
15878777 1 11882828572661255577
16988056 13 18191847098294410877
1813 80 18409164441489307386
20642791 178 17471566002898187632
21365058 113 18336546109717391375
21641784 216 18337409157725809086
22907989 373 18191308161360521494
23523766 6 18341334499909812431
23559900 14 18191576670127312939
23576562 1 18407757054738334103
24771750 20 17542231606398439878
24941158 1 17975952565404556567
283562 15 18339926996314643874
3057174 1 17400645316377826781
3388396 114 18045813245591232116
376196 1 17031615121173586001
4017518 198 17691692603710544204
4394409 98 17540273355453844708
4409770 3 17976813195093567803
46194498 28 17972018496021963375
497634 4 18057620772096918442
5080951 261 17557399021802545150
5081480 168 18116412916858898391
563151 40 17549533021054172245
57527585 103 17699544975872644352
6691757 9 17263548921699530962
6695519 79 8161908343534395324
6700243 42 17840339660582156014

> <PUBCHEM_SHAPE_MULTIPOLES>
646.88
9.81
8.11
2.15
0.02
14.66
-0.31
-22.48
5.79
-0.02
5.14
0
2.23
0

> <PUBCHEM_SHAPE_SELFOVERLAP>
1461.189

> <PUBCHEM_SHAPE_VOLUME>
335.4

> <PUBCHEM_COORDINATE_TYPE>
2
5
10

$$$$
