133393
  -OEChem-03292013323D

 46 48  0     1  0  0  0  0  0999 V2000
    3.2459    0.9181    0.0991 S   0  0  0  0  0  0  0  0  0  0  0  0
   -3.6089   -1.5106   -1.1106 O   0  0  0  0  0  0  0  0  0  0  0  0
    0.3098    1.0414   -1.4182 O   0  0  0  0  0  0  0  0  0  0  0  0
   -4.9227   -3.2413   -1.8232 O   0  0  0  0  0  0  0  0  0  0  0  0
   -0.8136    2.1086    0.3506 N   0  0  0  0  0  0  0  0  0  0  0  0
    0.9860    4.0897   -1.1421 N   0  0  0  0  0  0  0  0  0  0  0  0
    1.3754    2.9212   -0.3481 C   0  0  2  0  0  0  0  0  0  0  0  0
   -4.3987   -0.0800    0.7050 C   0  0  0  0  0  0  0  0  0  0  0  0
    2.7382    2.4057   -0.8213 C   0  0  0  0  0  0  0  0  0  0  0  0
   -1.9991    1.3823    0.4644 C   0  0  0  0  0  0  0  0  0  0  0  0
   -3.4274   -0.4189   -0.2382 C   0  0  0  0  0  0  0  0  0  0  0  0
    0.2495    1.9021   -0.5442 C   0  0  0  0  0  0  0  0  0  0  0  0
   -5.6245   -0.8868    0.7739 C   0  0  0  0  0  0  0  0  0  0  0  0
   -2.2346    0.2946   -0.3698 C   0  0  0  0  0  0  0  0  0  0  0  0
   -4.1423    1.0189    1.5359 C   0  0  0  0  0  0  0  0  0  0  0  0
   -2.9512    1.7441    1.4158 C   0  0  0  0  0  0  0  0  0  0  0  0
    4.8714    0.6916   -0.6560 C   0  0  0  0  0  0  0  0  0  0  0  0
   -5.7701   -1.9192   -0.0687 C   0  0  0  0  0  0  0  0  0  0  0  0
    5.5943   -0.5035   -0.0987 C   0  0  0  0  0  0  0  0  0  0  0  0
   -6.6881   -0.5479    1.7771 C   0  0  0  0  0  0  0  0  0  0  0  0
   -4.7546   -2.2896   -1.0687 C   0  0  0  0  0  0  0  0  0  0  0  0
    5.4300   -1.7451   -0.6989 C   0  0  0  0  0  0  0  0  0  0  0  0
    6.4174   -0.3512    1.0096 C   0  0  0  0  0  0  0  0  0  0  0  0
    6.1005   -2.8537   -0.1818 C   0  0  0  0  0  0  0  0  0  0  0  0
    7.0880   -1.4596    1.5265 C   0  0  0  0  0  0  0  0  0  0  0  0
    6.9296   -2.7109    0.9308 C   0  0  0  0  0  0  0  0  0  0  0  0
    1.4310    3.2113    0.7078 H   0  0  0  0  0  0  0  0  0  0  0  0
    2.7107    2.1505   -1.8870 H   0  0  0  0  0  0  0  0  0  0  0  0
    3.4987    3.1813   -0.6763 H   0  0  0  0  0  0  0  0  0  0  0  0
   -1.5468   -0.0512   -1.1282 H   0  0  0  0  0  0  0  0  0  0  0  0
   -0.7197    2.8863    1.0003 H   0  0  0  0  0  0  0  0  0  0  0  0
   -4.8572    1.3353    2.2910 H   0  0  0  0  0  0  0  0  0  0  0  0
   -2.7818    2.5918    2.0756 H   0  0  0  0  0  0  0  0  0  0  0  0
    5.4742    1.5934   -0.4969 H   0  0  0  0  0  0  0  0  0  0  0  0
    4.7546    0.5793   -1.7402 H   0  0  0  0  0  0  0  0  0  0  0  0
   -6.6630   -2.5367   -0.0457 H   0  0  0  0  0  0  0  0  0  0  0  0
    1.6871    4.8219   -1.0327 H   0  0  0  0  0  0  0  0  0  0  0  0
    0.9884    3.8509   -2.1337 H   0  0  0  0  0  0  0  0  0  0  0  0
   -7.5421   -1.2317    1.7141 H   0  0  0  0  0  0  0  0  0  0  0  0
   -7.0724    0.4640    1.6099 H   0  0  0  0  0  0  0  0  0  0  0  0
   -6.2959   -0.6148    2.7974 H   0  0  0  0  0  0  0  0  0  0  0  0
    4.7861   -1.8683   -1.5652 H   0  0  0  0  0  0  0  0  0  0  0  0
    6.5476    0.6183    1.4823 H   0  0  0  0  0  0  0  0  0  0  0  0
    5.9768   -3.8281   -0.6453 H   0  0  0  0  0  0  0  0  0  0  0  0
    7.7332   -1.3486    2.3930 H   0  0  0  0  0  0  0  0  0  0  0  0
    7.4515   -3.5740    1.3335 H   0  0  0  0  0  0  0  0  0  0  0  0
  1  9  1  0  0  0  0
  1 17  1  0  0  0  0
  2 11  1  0  0  0  0
  2 21  1  0  0  0  0
  3 12  2  0  0  0  0
  4 21  2  0  0  0  0
  5 10  1  0  0  0  0
  5 12  1  0  0  0  0
  5 31  1  0  0  0  0
  6  7  1  0  0  0  0
  6 37  1  0  0  0  0
  6 38  1  0  0  0  0
  7  9  1  0  0  0  0
  7 12  1  0  0  0  0
  7 27  1  0  0  0  0
  8 11  2  0  0  0  0
  8 13  1  0  0  0  0
  8 15  1  0  0  0  0
  9 28  1  0  0  0  0
  9 29  1  0  0  0  0
 10 14  2  0  0  0  0
 10 16  1  0  0  0  0
 11 14  1  0  0  0  0
 13 18  2  0  0  0  0
 13 20  1  0  0  0  0
 14 30  1  0  0  0  0
 15 16  2  0  0  0  0
 15 32  1  0  0  0  0
 16 33  1  0  0  0  0
 17 19  1  0  0  0  0
 17 34  1  0  0  0  0
 17 35  1  0  0  0  0
 18 21  1  0  0  0  0
 18 36  1  0  0  0  0
 19 22  2  0  0  0  0
 19 23  1  0  0  0  0
 20 39  1  0  0  0  0
 20 40  1  0  0  0  0
 20 41  1  0  0  0  0
 22 24  1  0  0  0  0
 22 42  1  0  0  0  0
 23 25  2  0  0  0  0
 23 43  1  0  0  0  0
 24 26  2  0  0  0  0
 24 44  1  0  0  0  0
 25 26  1  0  0  0  0
 25 45  1  0  0  0  0
 26 46  1  0  0  0  0
M  END
> <PUBCHEM_COMPOUND_CID>
133393

> <PUBCHEM_CONFORMER_RMSD>
0.8

> <PUBCHEM_CONFORMER_DIVERSEORDER>
1
94
37
145
65
50
128
28
169
162
38
137
74
125
35
96
24
44
142
105
76
11
80
67
168
41
131
164
31
77
127
112
165
79
59
17
18
144
134
55
139
111
4
70
115
90
54
82
123
9
157
64
49
140
152
130
53
133
143
36
63
163
102
114
167
138
93
166
34
121
99
89
66
7
141
32
155
16
86
2
5
6
3
46
107
91
73
151
8
92
110
33
68
109
149
51
154
20
57
104
71
61
81
30
19
48
160
120
98
150
97
126
156
15
43
14
118
22
78
136
113
153
106
29
129
108
87
83
158
42
161
132
40
62
27
119
69
56
147
116
122
100
52
148
12
10
25
85
88
95
21
72
13
159
146
58
84
45
60
135
39
23
117
101
26
75
103
47
124

> <PUBCHEM_MMFF94_PARTIAL_CHARGES>
38
1 -0.46
10 0.12
11 0.08
12 0.57
13 -0.17
14 -0.15
15 -0.15
16 -0.15
17 0.37
18 -0.14
19 -0.14
2 -0.23
20 0.14
21 0.71
22 -0.15
23 -0.15
24 -0.15
25 -0.15
26 -0.15
3 -0.57
30 0.15
31 0.37
32 0.15
33 0.15
36 0.15
37 0.36
38 0.36
4 -0.57
42 0.15
43 0.15
44 0.15
45 0.15
46 0.15
5 -0.55
6 -0.99
7 0.33
8 0.03
9 0.23

> <PUBCHEM_EFFECTIVE_ROTOR_COUNT>
7

> <PUBCHEM_PHARMACOPHORE_FEATURES>
8
1 3 acceptor
1 4 acceptor
1 5 donor
1 6 cation
1 6 donor
6 19 22 23 24 25 26 rings
6 2 8 11 13 18 21 rings
6 8 10 11 14 15 16 rings

> <PUBCHEM_HEAVY_ATOM_COUNT>
26

> <PUBCHEM_ATOM_DEF_STEREO_COUNT>
1

> <PUBCHEM_ATOM_UDEF_STEREO_COUNT>
0

> <PUBCHEM_BOND_DEF_STEREO_COUNT>
0

> <PUBCHEM_BOND_UDEF_STEREO_COUNT>
0

> <PUBCHEM_ISOTOPIC_ATOM_COUNT>
0

> <PUBCHEM_COMPONENT_COUNT>
1

> <PUBCHEM_CACTVS_TAUTO_COUNT>
2

> <PUBCHEM_CONFORMER_ID>
0002091100000001

> <PUBCHEM_MMFF94_ENERGY>
76.2128

> <PUBCHEM_FEATURE_SELFOVERLAP>
40.623

> <PUBCHEM_SHAPE_FINGERPRINT>
10319926 262 17418105286223160768
10622 236 18411978100186605532
10939801 23 18058727056882670028
11112241 14 11959744789035098717
11409948 35 18049437347976972927
11991303 11 17170947038031102620
12107183 9 18341345392078854489
12166972 35 17531253855011100150
12422481 6 17704073950303910254
13533116 47 18337396053532857040
13782708 43 17530963617847554491
13911852 28 18407759227237931140
14251764 30 18408884002079204344
14251764 75 11023818479838712540
14347332 77 18409167705590592740
15188451 53 18131063857231585613
15326921 28 17628653955404430633
15513586 35 13899044745005288938
16993089 31 17458917049935389515
1979834 28 17560529413216112366
20028762 73 18411138013928439826
21136928 87 16406225620503933089
21315763 87 18272365370168278826
21424621 283 9871744706928138592
21585483 132 18265880518516926187
229767 44 18131347518542427022
23522609 53 18120409560006355572
270888 7 10591753278128009256
2748736 6 10303803264561909066
312425 54 17846781810281988274
32027 91 18188490297610295345
34797466 226 15430607280334876860
3504750 166 18271242699264634304
3882209 13 16340295995488045415
3886686 26 17339302016781990424
4058900 60 10159701300400591076
474113 269 18341604915624758999
5104073 3 17416136199032859857
513202 73 18186518796052801221
531348 171 18335137597115676325
559249 180 18410295788005388593
6058803 2 18125741195116212937
6712543 237 16845291618416076046
7970288 3 18408319986821289354
96874 4 18340761628307487742

> <PUBCHEM_SHAPE_MULTIPOLES>
511.35
21.09
3.93
1.49
16.18
0.94
0.16
-21.37
6.66
1.73
-1.49
-1.09
-0.34
-3.22

> <PUBCHEM_SHAPE_SELFOVERLAP>
1079.461

> <PUBCHEM_SHAPE_VOLUME>
287.1

> <PUBCHEM_COORDINATE_TYPE>
2
5
10

$$$$
