133359
  -OEChem-03292013323D

 30 31  0     0  0  0  0  0  0999 V2000
   -4.0643    0.4085    0.0093 S   0  0  0  0  0  0  0  0  0  0  0  0
    3.7574   -1.7536    0.1840 O   0  0  0  0  0  0  0  0  0  0  0  0
   -4.3708    0.7678   -1.5559 O   0  0  0  0  0  0  0  0  0  0  0  0
   -4.6847   -0.8804    0.2784 O   0  0  0  0  0  0  0  0  0  0  0  0
   -4.3966    1.5741    0.8136 O   0  0  0  0  0  0  0  0  0  0  0  0
    3.2095    1.6380   -1.5235 O   0  0  0  0  0  0  0  0  0  0  0  0
    2.7006    0.7650    0.6048 N   0  0  0  0  0  0  0  0  0  0  0  0
    0.4524   -0.1268    0.2519 C   0  0  0  0  0  0  0  0  0  0  0  0
   -0.3767   -1.2372   -0.0348 C   0  0  0  0  0  0  0  0  0  0  0  0
    1.8432   -0.3085    0.3233 C   0  0  0  0  0  0  0  0  0  0  0  0
   -2.3327    0.2033    0.1019 C   0  0  0  0  0  0  0  0  0  0  0  0
   -1.7675   -1.0553   -0.1064 C   0  0  0  0  0  0  0  0  0  0  0  0
   -0.1334    1.1329    0.4583 C   0  0  0  0  0  0  0  0  0  0  0  0
    0.2093   -2.4966   -0.2415 C   0  0  0  0  0  0  0  0  0  0  0  0
   -1.5171    1.2954    0.3835 C   0  0  0  0  0  0  0  0  0  0  0  0
    2.4084   -1.5670    0.1155 C   0  0  0  0  0  0  0  0  0  0  0  0
    1.5929   -2.6590   -0.1665 C   0  0  0  0  0  0  0  0  0  0  0  0
    3.3088    1.6375   -0.3008 C   0  0  0  0  0  0  0  0  0  0  0  0
    4.1614    2.6619    0.4051 C   0  0  0  0  0  0  0  0  0  0  0  0
   -2.4040   -1.9080   -0.3343 H   0  0  0  0  0  0  0  0  0  0  0  0
    0.4658    2.0123    0.6818 H   0  0  0  0  0  0  0  0  0  0  0  0
   -0.4086   -3.3643   -0.4632 H   0  0  0  0  0  0  0  0  0  0  0  0
   -1.9340    2.2860    0.5417 H   0  0  0  0  0  0  0  0  0  0  0  0
    2.0192   -3.6451   -0.3305 H   0  0  0  0  0  0  0  0  0  0  0  0
    2.9062    0.8928    1.5933 H   0  0  0  0  0  0  0  0  0  0  0  0
    3.9591   -2.6894    0.0121 H   0  0  0  0  0  0  0  0  0  0  0  0
    3.5413    3.2560    1.0824 H   0  0  0  0  0  0  0  0  0  0  0  0
    4.6242    3.3278   -0.3284 H   0  0  0  0  0  0  0  0  0  0  0  0
    4.9484    2.1599    0.9749 H   0  0  0  0  0  0  0  0  0  0  0  0
   -4.1211    0.0701   -2.2066 H   0  0  0  0  0  0  0  0  0  0  0  0
  1  3  1  0  0  0  0
  1  4  2  0  0  0  0
  1  5  2  0  0  0  0
  1 11  1  0  0  0  0
  2 16  1  0  0  0  0
  2 26  1  0  0  0  0
  3 30  1  0  0  0  0
  6 18  2  0  0  0  0
  7 10  1  0  0  0  0
  7 18  1  0  0  0  0
  7 25  1  0  0  0  0
  8  9  2  0  0  0  0
  8 10  1  0  0  0  0
  8 13  1  0  0  0  0
  9 12  1  0  0  0  0
  9 14  1  0  0  0  0
 10 16  2  0  0  0  0
 11 12  2  0  0  0  0
 11 15  1  0  0  0  0
 12 20  1  0  0  0  0
 13 15  2  0  0  0  0
 13 21  1  0  0  0  0
 14 17  2  0  0  0  0
 14 22  1  0  0  0  0
 15 23  1  0  0  0  0
 16 17  1  0  0  0  0
 17 24  1  0  0  0  0
 18 19  1  0  0  0  0
 19 27  1  0  0  0  0
 19 28  1  0  0  0  0
 19 29  1  0  0  0  0
M  END
> <PUBCHEM_COMPOUND_CID>
133359

> <PUBCHEM_CONFORMER_RMSD>
0.6

> <PUBCHEM_CONFORMER_DIVERSEORDER>
2
1
3

> <PUBCHEM_MMFF94_PARTIAL_CHARGES>
25
1 1.49
10 0.12
11 -0.01
12 -0.15
13 -0.15
14 -0.15
15 -0.15
16 0.08
17 -0.15
18 0.57
19 0.06
2 -0.53
20 0.15
21 0.15
22 0.15
23 0.15
24 0.15
25 0.37
26 0.45
3 -0.68
30 0.5
4 -0.65
5 -0.65
6 -0.57
7 -0.55

> <PUBCHEM_EFFECTIVE_ROTOR_COUNT>
3

> <PUBCHEM_PHARMACOPHORE_FEATURES>
9
1 2 donor
1 3 acceptor
1 4 acceptor
1 5 acceptor
1 6 acceptor
1 7 donor
4 1 3 4 5 anion
6 8 9 10 14 16 17 rings
6 8 9 11 12 13 15 rings

> <PUBCHEM_HEAVY_ATOM_COUNT>
19

> <PUBCHEM_ATOM_DEF_STEREO_COUNT>
0

> <PUBCHEM_ATOM_UDEF_STEREO_COUNT>
0

> <PUBCHEM_BOND_DEF_STEREO_COUNT>
0

> <PUBCHEM_BOND_UDEF_STEREO_COUNT>
0

> <PUBCHEM_ISOTOPIC_ATOM_COUNT>
0

> <PUBCHEM_COMPONENT_COUNT>
1

> <PUBCHEM_CACTVS_TAUTO_COUNT>
6

> <PUBCHEM_CONFORMER_ID>
000208EF00000002

> <PUBCHEM_MMFF94_ENERGY>
66.4328

> <PUBCHEM_FEATURE_SELFOVERLAP>
45.757

> <PUBCHEM_SHAPE_FINGERPRINT>
10411042 1 17691408507885936811
10498660 4 18340207500158610188
10967382 1 18412262852376233234
11471102 20 18339918221231467471
12644460 14 18260833666008523434
13140716 1 18409730664239443938
13583140 156 16950824939198961307
13760787 5 18343299245868443301
14123255 52 18339361997460718752
14415576 193 18410013200003997861
14790565 3 18196100051878202697
15196674 1 18411982455795087955
15536298 74 18342459227147430634
16945 1 18267590095841199322
17134986 127 18336272357255097044
1741750 31 18268148841343040520
18186145 218 18041561339088422059
19591789 44 17690848178125433403
19784866 34 18341611563627627081
200 152 17916572134508731875
20645477 70 18410855421779755523
21267235 1 18342746169992568635
21524375 3 18335420209773020818
21709351 56 18268422443465245855
221490 88 18338243665249471491
2255824 54 18338799996653027802
22854114 111 18409732833070931210
2334 1 18340205314268273850
23558518 356 18191595150822448545
23559900 14 18338513015349038682
2748010 2 18339089288454360378
3071541 37 18410015433249822178
350125 39 18410577241285619080
394222 165 18334007324441263186
474 4 18407476665307024650
4990 188 17560812042895511804
5104073 3 18408046195619823195
537710 114 18341896307264263185
57096353 35 18131343116564301925
58051976 378 18342174475116194804
633830 44 18202008685778733797
7364860 26 18341333310519648242
81539 233 18333448754974707210
9709674 26 18339929199548125979
9999458 23 18334297522338763430

> <PUBCHEM_SHAPE_MULTIPOLES>
360.53
8.41
2.8
0.88
5.33
0.66
-0.27
-4.5
-0.55
-2.91
-0.04
0.15
-0.32
-0.25

> <PUBCHEM_SHAPE_SELFOVERLAP>
768.063

> <PUBCHEM_SHAPE_VOLUME>
201.2

> <PUBCHEM_COORDINATE_TYPE>
2
5
10

$$$$
