133308
  -OEChem-03292013323D

 30 31  0     0  0  0  0  0  0999 V2000
   -0.2119   -1.2835   -0.1776 O   0  0  0  0  0  0  0  0  0  0  0  0
    2.9124    1.1606   -2.2442 O   0  0  0  0  0  0  0  0  0  0  0  0
    1.8090    0.0851    2.0940 O   0  0  0  0  0  0  0  0  0  0  0  0
    0.6882   -3.0194    1.0465 O   0  0  0  0  0  0  0  0  0  0  0  0
   -1.5069    1.5497    1.5360 O   0  0  0  0  0  0  0  0  0  0  0  0
   -3.5737   -1.3813   -1.3505 O   0  0  0  0  0  0  0  0  0  0  0  0
    2.5101    0.1972   -0.1434 N   0  0  0  0  0  0  0  0  0  0  0  0
   -2.2539   -0.2504    0.2289 N   0  0  0  0  0  0  0  0  0  0  0  0
    2.9906   -1.1419   -0.3546 C   0  0  0  0  0  0  0  0  0  0  0  0
    1.8905   -2.0728   -0.8476 C   0  0  0  0  0  0  0  0  0  0  0  0
   -1.3709   -1.2947    0.6590 C   0  0  0  0  0  0  0  0  0  0  0  0
    2.5174    1.1940   -1.0911 C   0  0  0  0  0  0  0  0  0  0  0  0
    1.9776    0.6648    1.0346 C   0  0  0  0  0  0  0  0  0  0  0  0
    0.7457   -2.2074    0.1335 C   0  0  0  0  0  0  0  0  0  0  0  0
    1.9382    2.3860   -0.4528 C   0  0  0  0  0  0  0  0  0  0  0  0
    1.6191    2.0731    0.8038 C   0  0  0  0  0  0  0  0  0  0  0  0
   -2.2354    1.0449    0.6986 C   0  0  0  0  0  0  0  0  0  0  0  0
   -3.2468   -0.3931   -0.7152 C   0  0  0  0  0  0  0  0  0  0  0  0
   -3.3007    1.7696   -0.0110 C   0  0  0  0  0  0  0  0  0  0  0  0
   -3.8987    0.9195   -0.8467 C   0  0  0  0  0  0  0  0  0  0  0  0
    3.8006   -1.1156   -1.0916 H   0  0  0  0  0  0  0  0  0  0  0  0
    3.3935   -1.5175    0.5929 H   0  0  0  0  0  0  0  0  0  0  0  0
    1.4941   -1.7353   -1.8132 H   0  0  0  0  0  0  0  0  0  0  0  0
    2.2957   -3.0765   -1.0205 H   0  0  0  0  0  0  0  0  0  0  0  0
   -1.0751   -1.1110    1.6976 H   0  0  0  0  0  0  0  0  0  0  0  0
   -1.8790   -2.2603    0.5634 H   0  0  0  0  0  0  0  0  0  0  0  0
    1.8074    3.3371   -0.9405 H   0  0  0  0  0  0  0  0  0  0  0  0
    1.1786    2.7198    1.5436 H   0  0  0  0  0  0  0  0  0  0  0  0
   -3.5359    2.8097    0.1391 H   0  0  0  0  0  0  0  0  0  0  0  0
   -4.7182    1.1294   -1.5131 H   0  0  0  0  0  0  0  0  0  0  0  0
  1 11  1  0  0  0  0
  1 14  1  0  0  0  0
  2 12  2  0  0  0  0
  3 13  2  0  0  0  0
  4 14  2  0  0  0  0
  5 17  2  0  0  0  0
  6 18  2  0  0  0  0
  7  9  1  0  0  0  0
  7 12  1  0  0  0  0
  7 13  1  0  0  0  0
  8 11  1  0  0  0  0
  8 17  1  0  0  0  0
  8 18  1  0  0  0  0
  9 10  1  0  0  0  0
  9 21  1  0  0  0  0
  9 22  1  0  0  0  0
 10 14  1  0  0  0  0
 10 23  1  0  0  0  0
 10 24  1  0  0  0  0
 11 25  1  0  0  0  0
 11 26  1  0  0  0  0
 12 15  1  0  0  0  0
 13 16  1  0  0  0  0
 15 16  2  0  0  0  0
 15 27  1  0  0  0  0
 16 28  1  0  0  0  0
 17 19  1  0  0  0  0
 18 20  1  0  0  0  0
 19 20  2  0  0  0  0
 19 29  1  0  0  0  0
 20 30  1  0  0  0  0
M  END
> <PUBCHEM_COMPOUND_CID>
133308

> <PUBCHEM_CONFORMER_RMSD>
0.8

> <PUBCHEM_CONFORMER_DIVERSEORDER>
1
8
74
76
59
100
64
107
6
58
11
14
88
77
2
123
10
127
62
52
23
124
122
118
12
97
114
110
39
93
33
131
61
130
55
47
60
41
65
90
7
98
111
81
29
37
66
3
101
42
49
38
24
109
85
40
132
27
48
5
96
79
121
4
102
120
15
115
63
43
35
84
56
82
116
87
69
67
125
86
57
103
89
71
105
104
34
119
19
31
117
68
95
18
54
73
44
83
26
94
28
45
113
32
108
75
36
30
129
126
9
92
78
51
80
70
20
25
16
13
99
22
21
128
91
46
72
50
106
53
17
112

> <PUBCHEM_MMFF94_PARTIAL_CHARGES>
24
1 -0.43
10 0.06
11 0.58
12 0.62
13 0.62
14 0.66
15 -0.14
16 -0.14
17 0.62
18 0.62
19 -0.14
2 -0.57
20 -0.14
27 0.15
28 0.15
29 0.15
3 -0.57
30 0.15
4 -0.57
5 -0.57
6 -0.57
7 -0.42
8 -0.42
9 0.3

> <PUBCHEM_EFFECTIVE_ROTOR_COUNT>
6.4

> <PUBCHEM_PHARMACOPHORE_FEATURES>
7
1 2 acceptor
1 3 acceptor
1 4 acceptor
1 5 acceptor
1 6 acceptor
5 7 12 13 15 16 rings
5 8 17 18 19 20 rings

> <PUBCHEM_HEAVY_ATOM_COUNT>
20

> <PUBCHEM_ATOM_DEF_STEREO_COUNT>
0

> <PUBCHEM_ATOM_UDEF_STEREO_COUNT>
0

> <PUBCHEM_BOND_DEF_STEREO_COUNT>
0

> <PUBCHEM_BOND_UDEF_STEREO_COUNT>
0

> <PUBCHEM_ISOTOPIC_ATOM_COUNT>
0

> <PUBCHEM_COMPONENT_COUNT>
1

> <PUBCHEM_CACTVS_TAUTO_COUNT>
1

> <PUBCHEM_CONFORMER_ID>
000208BC00000001

> <PUBCHEM_MMFF94_ENERGY>
16.8386

> <PUBCHEM_FEATURE_SELFOVERLAP>
35.525

> <PUBCHEM_SHAPE_FINGERPRINT>
104564 63 17547862849863376426
10498660 4 17977105987203355181
11370993 70 18266730471027172420
11640471 11 17170663651983159468
128993 33 18336842981750625545
14250199 8 18413392012274062255
14251745 187 18340488876625048376
14713325 29 17176345971568244934
18219364 16 18115326495953394475
18981168 100 18041582294049366371
192875 21 18336248115889829473
22749437 52 18336820987317951005
23557571 272 17060047190292172899
238 59 18341334491018645199
2748010 2 17189256530815437035
474 4 18259985951059556807
5262128 65 17417828273643779877
7832392 63 18126284138725840697

> <PUBCHEM_SHAPE_MULTIPOLES>
366.41
6.27
2.88
1.52
4.73
0.79
-0.02
-1.44
-2.29
-1.15
0.17
-0.67
-0.3
-0.59

> <PUBCHEM_SHAPE_SELFOVERLAP>
784.142

> <PUBCHEM_SHAPE_VOLUME>
202.7

> <PUBCHEM_COORDINATE_TYPE>
2
5
10

$$$$
