133352
  -OEChem-03292013323D

 54 56  0     1  0  0  0  0  0999 V2000
    3.0175    0.0501    1.6791 O   0  0  0  0  0  0  0  0  0  0  0  0
   -2.2777    0.3597   -1.9722 O   0  0  0  0  0  0  0  0  0  0  0  0
    2.3439   -3.2399   -0.3778 O   0  0  0  0  0  0  0  0  0  0  0  0
    3.6588   -0.0260   -2.1958 O   0  0  0  0  0  0  0  0  0  0  0  0
   -3.9716   -0.4810   -3.2580 O   0  0  0  0  0  0  0  0  0  0  0  0
   -1.9808   -3.9296    2.2845 O   0  0  0  0  0  0  0  0  0  0  0  0
   -1.0098   -2.0516    3.1177 O   0  0  0  0  0  0  0  0  0  0  0  0
    1.2992    2.1137    0.6860 N   0  0  3  0  0  0  0  0  0  0  0  0
    2.5238   -0.9231   -0.3777 N   0  0  0  0  0  0  0  0  0  0  0  0
    1.8091   -0.8435   -3.9344 N   0  0  0  0  0  0  0  0  0  0  0  0
    2.3807    1.5003   -0.0851 C   0  0  1  0  0  0  0  0  0  0  0  0
    3.5574    2.4621    0.0938 C   0  0  0  0  0  0  0  0  0  0  0  0
    3.3077    3.0809    1.4610 C   0  0  0  0  0  0  0  0  0  0  0  0
    1.7887    3.2150    1.5160 C   0  0  0  0  0  0  0  0  0  0  0  0
   -0.0408    1.8073    0.5460 C   0  0  0  0  0  0  0  0  0  0  0  0
    2.7141    0.1587    0.4897 C   0  0  0  0  0  0  0  0  0  0  0  0
   -0.5073    1.2374   -0.6338 C   0  0  0  0  0  0  0  0  0  0  0  0
   -0.9296    2.0684    1.5875 C   0  0  0  0  0  0  0  0  0  0  0  0
   -1.8651    0.9359   -0.7540 C   0  0  0  0  0  0  0  0  0  0  0  0
   -2.7781    1.1860    0.2715 C   0  0  0  0  0  0  0  0  0  0  0  0
   -2.2881    1.7604    1.4521 C   0  0  0  0  0  0  0  0  0  0  0  0
    2.0561   -2.1491    0.1174 C   0  0  0  0  0  0  0  0  0  0  0  0
    2.7996   -0.7863   -1.7435 C   0  0  0  0  0  0  0  0  0  0  0  0
   -4.1890    0.8363    0.0585 C   0  0  0  0  0  0  0  0  0  0  0  0
    1.0293   -2.0254    1.2388 C   0  0  0  0  0  0  0  0  0  0  0  0
    1.8803   -1.5602   -2.6700 C   0  0  0  0  0  0  0  0  0  0  0  0
   -4.5529    0.2897   -1.1103 C   0  0  0  0  0  0  0  0  0  0  0  0
    0.0418   -3.1855    1.2614 C   0  0  0  0  0  0  0  0  0  0  0  0
   -3.6017    0.0193   -2.2015 C   0  0  0  0  0  0  0  0  0  0  0  0
   -5.1953    1.0930    1.1418 C   0  0  0  0  0  0  0  0  0  0  0  0
   -1.0202   -2.9727    2.3115 C   0  0  0  0  0  0  0  0  0  0  0  0
    2.1340    1.4818   -1.1463 H   0  0  0  0  0  0  0  0  0  0  0  0
    4.5366    1.9770    0.0319 H   0  0  0  0  0  0  0  0  0  0  0  0
    3.5173    3.2464   -0.6725 H   0  0  0  0  0  0  0  0  0  0  0  0
    3.8101    4.0454    1.5809 H   0  0  0  0  0  0  0  0  0  0  0  0
    3.6647    2.4211    2.2593 H   0  0  0  0  0  0  0  0  0  0  0  0
    1.4703    4.1734    1.0902 H   0  0  0  0  0  0  0  0  0  0  0  0
    1.4562    3.1556    2.5566 H   0  0  0  0  0  0  0  0  0  0  0  0
    0.1390    1.0242   -1.4778 H   0  0  0  0  0  0  0  0  0  0  0  0
   -0.6037    2.4999    2.5290 H   0  0  0  0  0  0  0  0  0  0  0  0
   -2.9459    1.9775    2.2896 H   0  0  0  0  0  0  0  0  0  0  0  0
    0.4746   -1.0884    1.1301 H   0  0  0  0  0  0  0  0  0  0  0  0
    1.5714   -1.9897    2.1908 H   0  0  0  0  0  0  0  0  0  0  0  0
    0.8756   -1.6352   -2.2438 H   0  0  0  0  0  0  0  0  0  0  0  0
    2.2876   -2.5616   -2.8348 H   0  0  0  0  0  0  0  0  0  0  0  0
   -5.5868    0.0189   -1.3019 H   0  0  0  0  0  0  0  0  0  0  0  0
   -0.4497   -3.2730    0.2858 H   0  0  0  0  0  0  0  0  0  0  0  0
    0.5615   -4.1249    1.4790 H   0  0  0  0  0  0  0  0  0  0  0  0
   -5.2431    2.1602    1.3836 H   0  0  0  0  0  0  0  0  0  0  0  0
   -4.9413    0.5342    2.0489 H   0  0  0  0  0  0  0  0  0  0  0  0
   -6.2037    0.7842    0.8443 H   0  0  0  0  0  0  0  0  0  0  0  0
    2.7290   -0.8299   -4.3737 H   0  0  0  0  0  0  0  0  0  0  0  0
    1.1995   -1.3505   -4.5752 H   0  0  0  0  0  0  0  0  0  0  0  0
   -2.6595   -3.7866    2.9782 H   0  0  0  0  0  0  0  0  0  0  0  0
  1 16  2  0  0  0  0
  2 19  1  0  0  0  0
  2 29  1  0  0  0  0
  3 22  2  0  0  0  0
  4 23  2  0  0  0  0
  5 29  2  0  0  0  0
  6 31  1  0  0  0  0
  6 54  1  0  0  0  0
  7 31  2  0  0  0  0
  8 11  1  0  0  0  0
  8 14  1  0  0  0  0
  8 15  1  0  0  0  0
  9 16  1  0  0  0  0
  9 22  1  0  0  0  0
  9 23  1  0  0  0  0
 10 26  1  0  0  0  0
 10 52  1  0  0  0  0
 10 53  1  0  0  0  0
 11 12  1  0  0  0  0
 11 16  1  0  0  0  0
 11 32  1  0  0  0  0
 12 13  1  0  0  0  0
 12 33  1  0  0  0  0
 12 34  1  0  0  0  0
 13 14  1  0  0  0  0
 13 35  1  0  0  0  0
 13 36  1  0  0  0  0
 14 37  1  0  0  0  0
 14 38  1  0  0  0  0
 15 17  2  0  0  0  0
 15 18  1  0  0  0  0
 17 19  1  0  0  0  0
 17 39  1  0  0  0  0
 18 21  2  0  0  0  0
 18 40  1  0  0  0  0
 19 20  2  0  0  0  0
 20 21  1  0  0  0  0
 20 24  1  0  0  0  0
 21 41  1  0  0  0  0
 22 25  1  0  0  0  0
 23 26  1  0  0  0  0
 24 27  2  0  0  0  0
 24 30  1  0  0  0  0
 25 28  1  0  0  0  0
 25 42  1  0  0  0  0
 25 43  1  0  0  0  0
 26 44  1  0  0  0  0
 26 45  1  0  0  0  0
 27 29  1  0  0  0  0
 27 46  1  0  0  0  0
 28 31  1  0  0  0  0
 28 47  1  0  0  0  0
 28 48  1  0  0  0  0
 30 49  1  0  0  0  0
 30 50  1  0  0  0  0
 30 51  1  0  0  0  0
M  END
> <PUBCHEM_COMPOUND_CID>
133352

> <PUBCHEM_CONFORMER_RMSD>
1

> <PUBCHEM_CONFORMER_DIVERSEORDER>
1
101
59
113
19
12
67
134
119
98
15
41
90
23
61
103
83
130
125
63
9
112
37
47
13
88
45
74
58
136
60
126
6
118
69
127
52
120
4
71
137
92
100
109
77
56
51
87
91
76
124
138
14
133
34
84
97
122
104
117
108
26
20
80
65
8
29
53
68
102
85
16
141
123
66
3
43
115
54
131
114
129
64
42
75
5
86
94
27
128
78
72
70
116
44
31
35
39
110
105
107
89
49
99
22
50
81
121
55
96
93
17
46
111
140
10
28
30
57
40
106
79
132
11
2
135
18
38
7
62
73
24
95
82
48
36
32
139
21
25
33

> <PUBCHEM_MMFF94_PARTIAL_CHARGES>
36
1 -0.57
10 -0.99
11 0.43
14 0.37
15 0.1
16 0.57
17 -0.15
18 -0.15
19 0.08
2 -0.23
20 0.03
21 -0.15
22 0.57
23 0.57
24 -0.17
25 0.06
26 0.33
27 -0.14
28 0.06
29 0.71
3 -0.57
30 0.14
31 0.66
39 0.15
4 -0.57
40 0.15
41 0.15
46 0.15
5 -0.57
52 0.36
53 0.36
54 0.5
6 -0.65
7 -0.57
8 -0.84
9 -0.18

> <PUBCHEM_EFFECTIVE_ROTOR_COUNT>
10

> <PUBCHEM_PHARMACOPHORE_FEATURES>
13
1 1 acceptor
1 10 cation
1 10 donor
1 3 acceptor
1 4 acceptor
1 5 acceptor
1 6 acceptor
1 7 acceptor
1 8 cation
3 6 7 31 anion
5 8 11 12 13 14 rings
6 15 17 18 19 20 21 rings
6 2 19 20 24 27 29 rings

> <PUBCHEM_HEAVY_ATOM_COUNT>
31

> <PUBCHEM_ATOM_DEF_STEREO_COUNT>
1

> <PUBCHEM_ATOM_UDEF_STEREO_COUNT>
0

> <PUBCHEM_BOND_DEF_STEREO_COUNT>
0

> <PUBCHEM_BOND_UDEF_STEREO_COUNT>
0

> <PUBCHEM_ISOTOPIC_ATOM_COUNT>
0

> <PUBCHEM_COMPONENT_COUNT>
1

> <PUBCHEM_CACTVS_TAUTO_COUNT>
1

> <PUBCHEM_CONFORMER_ID>
000208E800000001

> <PUBCHEM_MMFF94_ENERGY>
104.5559

> <PUBCHEM_FEATURE_SELFOVERLAP>
66.058

> <PUBCHEM_SHAPE_FINGERPRINT>
10721379 63 17685732945512458213
108634 29 18192435392296152499
12128747 34 17609234355623555737
12156800 1 17608394636874363974
12553582 1 17773314526288829532
13402501 40 17904194085932811355
13583140 156 18192148188540203757
13617811 41 17603304869876568589
144659 39 16950565544517503996
19319366 153 17327209566224355480
20691752 17 18335695018528322261
20764821 26 18336558208154804874
21421861 104 18060139799684585145
22182313 1 18124894596984551848
23419403 2 17839499831076599460
238 59 18130792308219584672
3052486 1 17315364875303325962
35225 105 18042417974400203767
4409770 3 17760920041299808248
469060 322 15655283715416322626

> <PUBCHEM_SHAPE_MULTIPOLES>
581.94
7.67
4.18
3.25
6.74
1.36
-1.55
-2.61
-2.75
-2.62
3.32
0.82
2.88
1.43

> <PUBCHEM_SHAPE_SELFOVERLAP>
1244.814

> <PUBCHEM_SHAPE_VOLUME>
321.5

> <PUBCHEM_COORDINATE_TYPE>
2
5
10

$$$$
