133334
  -OEChem-03292013323D

 38 40  0     0  0  0  0  0  0999 V2000
    3.5829   -1.4536   -0.0839 O   0  0  0  0  0  0  0  0  0  0  0  0
    0.1699   -0.6580    0.0113 N   0  0  0  0  0  0  0  0  0  0  0  0
   -5.4919    2.1740    0.2498 N   0  0  0  0  0  0  0  0  0  0  0  0
    2.4903    0.6227   -0.0147 N   0  0  0  0  0  0  0  0  0  0  0  0
    3.4168    2.8403    0.0471 N   0  0  0  0  0  0  0  0  0  0  0  0
    4.8340    1.0754   -0.0164 N   0  0  0  0  0  0  0  0  0  0  0  0
    4.7133    3.1808    0.0476 N   0  0  0  0  0  0  0  0  0  0  0  0
    5.5890    2.1669    0.0110 N   0  0  0  0  0  0  0  0  0  0  0  0
   -1.0292   -1.2792    0.0259 C   0  0  0  0  0  0  0  0  0  0  0  0
   -2.1718   -0.3935    0.0835 C   0  0  0  0  0  0  0  0  0  0  0  0
   -0.0533   -3.4432   -0.0650 C   0  0  0  0  0  0  0  0  0  0  0  0
   -1.1958   -2.6525   -0.0103 C   0  0  0  0  0  0  0  0  0  0  0  0
    1.2575   -1.4589   -0.0423 C   0  0  0  0  0  0  0  0  0  0  0  0
   -2.6898   -0.0022    1.3182 C   0  0  0  0  0  0  0  0  0  0  0  0
   -2.7567    0.0676   -1.0960 C   0  0  0  0  0  0  0  0  0  0  0  0
    1.2007   -2.8428   -0.0816 C   0  0  0  0  0  0  0  0  0  0  0  0
   -4.3774    1.3113    0.1938 C   0  0  0  0  0  0  0  0  0  0  0  0
   -3.7925    0.8501    1.3732 C   0  0  0  0  0  0  0  0  0  0  0  0
   -3.8594    0.9200   -1.0408 C   0  0  0  0  0  0  0  0  0  0  0  0
   -0.1722   -4.9290   -0.1054 C   0  0  0  0  0  0  0  0  0  0  0  0
    2.5407   -0.7778   -0.0573 C   0  0  0  0  0  0  0  0  0  0  0  0
   -5.7660    3.1547   -0.7544 C   0  0  0  0  0  0  0  0  0  0  0  0
    3.5609    1.5269    0.0066 C   0  0  0  0  0  0  0  0  0  0  0  0
   -2.1840   -3.1024    0.0053 H   0  0  0  0  0  0  0  0  0  0  0  0
   -2.2451   -0.3524    2.2467 H   0  0  0  0  0  0  0  0  0  0  0  0
   -2.3657   -0.2296   -2.0663 H   0  0  0  0  0  0  0  0  0  0  0  0
    2.0972   -3.4532   -0.1227 H   0  0  0  0  0  0  0  0  0  0  0  0
   -4.1859    1.1481    2.3417 H   0  0  0  0  0  0  0  0  0  0  0  0
   -4.2971    1.2552   -1.9767 H   0  0  0  0  0  0  0  0  0  0  0  0
   -0.1329   -5.3367    0.9096 H   0  0  0  0  0  0  0  0  0  0  0  0
   -1.1140   -5.2391   -0.5707 H   0  0  0  0  0  0  0  0  0  0  0  0
    0.6373   -5.3731   -0.6947 H   0  0  0  0  0  0  0  0  0  0  0  0
   -5.8989    2.3191    1.1682 H   0  0  0  0  0  0  0  0  0  0  0  0
    1.5762    1.0682    0.0086 H   0  0  0  0  0  0  0  0  0  0  0  0
   -4.8916    3.7840   -0.9505 H   0  0  0  0  0  0  0  0  0  0  0  0
   -6.5758    3.8100   -0.4178 H   0  0  0  0  0  0  0  0  0  0  0  0
   -6.0939    2.6908   -1.6900 H   0  0  0  0  0  0  0  0  0  0  0  0
    5.0143    4.1492    0.0747 H   0  0  0  0  0  0  0  0  0  0  0  0
  1 21  2  0  0  0  0
  2  9  2  0  0  0  0
  2 13  1  0  0  0  0
  3 17  1  0  0  0  0
  3 22  1  0  0  0  0
  3 33  1  0  0  0  0
  4 21  1  0  0  0  0
  4 23  1  0  0  0  0
  4 34  1  0  0  0  0
  5  7  1  0  0  0  0
  5 23  2  0  0  0  0
  6  8  2  0  0  0  0
  6 23  1  0  0  0  0
  7  8  1  0  0  0  0
  7 38  1  0  0  0  0
  9 10  1  0  0  0  0
  9 12  1  0  0  0  0
 10 14  2  0  0  0  0
 10 15  1  0  0  0  0
 11 12  2  0  0  0  0
 11 16  1  0  0  0  0
 11 20  1  0  0  0  0
 12 24  1  0  0  0  0
 13 16  2  0  0  0  0
 13 21  1  0  0  0  0
 14 18  1  0  0  0  0
 14 25  1  0  0  0  0
 15 19  2  0  0  0  0
 15 26  1  0  0  0  0
 16 27  1  0  0  0  0
 17 18  2  0  0  0  0
 17 19  1  0  0  0  0
 18 28  1  0  0  0  0
 19 29  1  0  0  0  0
 20 30  1  0  0  0  0
 20 31  1  0  0  0  0
 20 32  1  0  0  0  0
 22 35  1  0  0  0  0
 22 36  1  0  0  0  0
 22 37  1  0  0  0  0
M  END
> <PUBCHEM_COMPOUND_CID>
133334

> <PUBCHEM_CONFORMER_RMSD>
0.8

> <PUBCHEM_CONFORMER_DIVERSEORDER>
1
10
7
2
3
8
4
6
9
5

> <PUBCHEM_MMFF94_PARTIAL_CHARGES>
31
1 -0.57
11 -0.14
12 -0.15
13 0.4
14 -0.15
15 -0.15
16 -0.15
17 0.1
18 -0.15
19 -0.15
2 -0.62
20 0.14
21 0.54
22 0.37
23 0.58
24 0.15
25 0.15
26 0.15
27 0.15
28 0.15
29 0.15
3 -0.87
33 0.4
34 0.37
38 0.27
4 -0.49
5 -0.71
6 -0.23
7 0.57
8 -0.42
9 0.31

> <PUBCHEM_EFFECTIVE_ROTOR_COUNT>
5

> <PUBCHEM_PHARMACOPHORE_FEATURES>
8
1 1 acceptor
1 2 acceptor
1 3 cation
1 3 donor
1 4 donor
5 5 6 7 8 23 rings
6 10 14 15 17 18 19 rings
6 2 9 11 12 13 16 rings

> <PUBCHEM_HEAVY_ATOM_COUNT>
23

> <PUBCHEM_ATOM_DEF_STEREO_COUNT>
0

> <PUBCHEM_ATOM_UDEF_STEREO_COUNT>
0

> <PUBCHEM_BOND_DEF_STEREO_COUNT>
0

> <PUBCHEM_BOND_UDEF_STEREO_COUNT>
0

> <PUBCHEM_ISOTOPIC_ATOM_COUNT>
0

> <PUBCHEM_COMPONENT_COUNT>
1

> <PUBCHEM_CACTVS_TAUTO_COUNT>
12

> <PUBCHEM_CONFORMER_ID>
000208D600000001

> <PUBCHEM_MMFF94_ENERGY>
69.7105

> <PUBCHEM_FEATURE_SELFOVERLAP>
40.596

> <PUBCHEM_SHAPE_FINGERPRINT>
10411042 1 17329991296373554487
10937287 8 18411418427324970203
12107183 9 18335688456851859994
12293681 160 17918276454213722360
12390115 104 18340502164995496726
12403259 415 18336560351575405355
12769317 202 18341886347203760561
12788726 201 17979056503552012026
13134695 92 17688308989149987311
13140716 1 18335423447762390674
13583140 156 16733528533463509352
13590594 115 17042616310287000931
138480 1 17834678188699181066
13944108 23 17903363602192404188
13955234 65 18120098278072051315
13965767 371 18040709260479083142
14251764 75 18411991264520512649
14508225 48 17262991962587151167
14767858 380 18127675219036600463
14790565 3 18411419505572972469
14848178 96 18342174453430511352
15342168 16 18410855439117659629
16087824 20 18123470751393198087
17834072 32 18410292540550812900
1813 80 16978434539704547591
19427546 62 18337673002057012803
19784866 34 18412544297362045201
20157964 124 18266737975157731093
20238998 120 17402329772978066455
204376 136 18411139134318408955
20715895 44 18339074900313932064
21033648 144 18113890542642329511
21388113 180 18262795164630429333
22122407 14 18053396396794381329
22182937 141 18196659711875255122
23559900 14 18049162173062339355
23845131 108 18334296457540464467
23929065 36 17696728310529283762
245318 6 17969238869775087669
283562 15 17831855016792013746
335352 9 18411420597222399942
350125 39 18195813092364586547
474 4 18341612556055144931
5104073 3 18186519899479393395
6034566 193 18337118976570924493
6327066 14 18408601495672656348
633830 44 18130233657375647487
77188 2 17401767419597629983
7808743 9 18193838369613222928
9981440 41 18409447007550975699

> <PUBCHEM_SHAPE_MULTIPOLES>
432.59
11.48
5.09
0.9
1.49
3.69
0.1
-17.26
-0.45
-2.99
-0.41
1.11
-0.15
0.53

> <PUBCHEM_SHAPE_SELFOVERLAP>
940.93

> <PUBCHEM_SHAPE_VOLUME>
236.3

> <PUBCHEM_COORDINATE_TYPE>
2
5
10

$$$$
