133315
  -OEChem-03292013323D

 33 34  0     0  0  0  0  0  0999 V2000
    1.0309   -2.1367   -0.3177 S   0  0  0  0  0  0  0  0  0  0  0  0
    3.3286    1.7009   -1.9095 S   0  0  0  0  0  0  0  0  0  0  0  0
    1.0854   -3.3830    0.4365 O   0  0  0  0  0  0  0  0  0  0  0  0
    1.2474   -2.1609   -1.7590 O   0  0  0  0  0  0  0  0  0  0  0  0
    3.9841    0.9739    1.6381 O   0  0  0  0  0  0  0  0  0  0  0  0
   -4.5637    1.7767   -1.1837 O   0  0  0  0  0  0  0  0  0  0  0  0
    2.1008   -1.0100    0.3896 N   0  0  0  0  0  0  0  0  0  0  0  0
   -4.2159    0.4261    0.7172 N   0  0  0  0  0  0  0  0  0  0  0  0
    2.4304    0.3264   -1.5640 N   0  0  0  0  0  0  0  0  0  0  0  0
    4.0374    1.9813   -0.4148 N   0  0  0  0  0  0  0  0  0  0  0  0
   -0.5133   -1.3818   -0.0131 C   0  0  0  0  0  0  0  0  0  0  0  0
   -1.0517   -0.4939   -0.9443 C   0  0  0  0  0  0  0  0  0  0  0  0
   -1.2089   -1.6670    1.1618 C   0  0  0  0  0  0  0  0  0  0  0  0
   -2.9814   -0.1762    0.4741 C   0  0  0  0  0  0  0  0  0  0  0  0
   -2.2857    0.1091   -0.7007 C   0  0  0  0  0  0  0  0  0  0  0  0
   -2.4430   -1.0642    1.4054 C   0  0  0  0  0  0  0  0  0  0  0  0
    2.6871    0.0903   -0.2806 C   0  0  0  0  0  0  0  0  0  0  0  0
    3.5725    0.9987    0.3599 C   0  0  0  0  0  0  0  0  0  0  0  0
   -4.9101    1.3346   -0.0931 C   0  0  0  0  0  0  0  0  0  0  0  0
   -6.2184    1.7532    0.5295 C   0  0  0  0  0  0  0  0  0  0  0  0
    4.8874    2.0026    2.0685 C   0  0  0  0  0  0  0  0  0  0  0  0
   -0.5269   -0.2550   -1.8649 H   0  0  0  0  0  0  0  0  0  0  0  0
   -0.8054   -2.3499    1.9040 H   0  0  0  0  0  0  0  0  0  0  0  0
    2.4177   -1.1850    1.3518 H   0  0  0  0  0  0  0  0  0  0  0  0
   -2.6372    0.7857   -1.4671 H   0  0  0  0  0  0  0  0  0  0  0  0
   -2.9736   -1.2945    2.3259 H   0  0  0  0  0  0  0  0  0  0  0  0
   -4.6601    0.1669    1.5957 H   0  0  0  0  0  0  0  0  0  0  0  0
   -6.8656    0.8800    0.6510 H   0  0  0  0  0  0  0  0  0  0  0  0
   -6.7197    2.4806   -0.1149 H   0  0  0  0  0  0  0  0  0  0  0  0
   -6.0352    2.2113    1.5055 H   0  0  0  0  0  0  0  0  0  0  0  0
    5.1115    1.8253    3.1245 H   0  0  0  0  0  0  0  0  0  0  0  0
    4.4240    2.9910    1.9816 H   0  0  0  0  0  0  0  0  0  0  0  0
    5.8281    1.9553    1.5098 H   0  0  0  0  0  0  0  0  0  0  0  0
  1  3  2  0  0  0  0
  1  4  2  0  0  0  0
  1  7  1  0  0  0  0
  1 11  1  0  0  0  0
  2  9  1  0  0  0  0
  2 10  1  0  0  0  0
  5 18  1  0  0  0  0
  5 21  1  0  0  0  0
  6 19  2  0  0  0  0
  7 17  1  0  0  0  0
  7 24  1  0  0  0  0
  8 14  1  0  0  0  0
  8 19  1  0  0  0  0
  8 27  1  0  0  0  0
  9 17  2  0  0  0  0
 10 18  2  0  0  0  0
 11 12  2  0  0  0  0
 11 13  1  0  0  0  0
 12 15  1  0  0  0  0
 12 22  1  0  0  0  0
 13 16  2  0  0  0  0
 13 23  1  0  0  0  0
 14 15  2  0  0  0  0
 14 16  1  0  0  0  0
 15 25  1  0  0  0  0
 16 26  1  0  0  0  0
 17 18  1  0  0  0  0
 19 20  1  0  0  0  0
 20 28  1  0  0  0  0
 20 29  1  0  0  0  0
 20 30  1  0  0  0  0
 21 31  1  0  0  0  0
 21 32  1  0  0  0  0
 21 33  1  0  0  0  0
M  END
> <PUBCHEM_COMPOUND_CID>
133315

> <PUBCHEM_CONFORMER_RMSD>
0.8

> <PUBCHEM_CONFORMER_DIVERSEORDER>
1
10
20
16
21
23
13
17
22
11
8
24
15
18
14
19
6
3
9
12
7
5
4
2

> <PUBCHEM_MMFF94_PARTIAL_CHARGES>
27
1 1.45
10 -0.51
11 -0.01
12 -0.15
13 -0.15
14 0.12
15 -0.15
16 -0.15
17 0.43
18 0.35
19 0.57
2 0.44
20 0.06
21 0.28
22 0.15
23 0.15
24 0.42
25 0.15
26 0.15
27 0.37
3 -0.65
4 -0.65
5 -0.34
6 -0.57
7 -0.7
8 -0.55
9 -0.51

> <PUBCHEM_EFFECTIVE_ROTOR_COUNT>
6

> <PUBCHEM_PHARMACOPHORE_FEATURES>
8
1 3 acceptor
1 4 acceptor
1 6 acceptor
1 7 donor
1 8 donor
1 9 acceptor
5 2 9 10 17 18 rings
6 11 12 13 14 15 16 rings

> <PUBCHEM_HEAVY_ATOM_COUNT>
21

> <PUBCHEM_ATOM_DEF_STEREO_COUNT>
0

> <PUBCHEM_ATOM_UDEF_STEREO_COUNT>
0

> <PUBCHEM_BOND_DEF_STEREO_COUNT>
0

> <PUBCHEM_BOND_UDEF_STEREO_COUNT>
0

> <PUBCHEM_ISOTOPIC_ATOM_COUNT>
0

> <PUBCHEM_COMPONENT_COUNT>
1

> <PUBCHEM_CACTVS_TAUTO_COUNT>
4

> <PUBCHEM_CONFORMER_ID>
000208C300000001

> <PUBCHEM_MMFF94_ENERGY>
38.9649

> <PUBCHEM_FEATURE_SELFOVERLAP>
40.62

> <PUBCHEM_SHAPE_FINGERPRINT>
10319926 262 17822013098879165778
10498660 4 17846784034969474233
10692045 39 18265317453025994034
11069576 57 13110423221028648740
11954058 11 12252190649301156761
12403259 118 18187926252118473137
12403259 327 16226054413362330072
12403259 415 18271817868605682658
12633257 1 17168137966362799088
12788726 201 17539696115653598890
13103583 49 16805591612575666456
13955234 65 18194688060247502819
13965767 371 18188193382453067192
14178342 30 17459205104290365795
14251732 14 14907603658667393333
14251740 57 11170208556961071681
14251764 38 18118967984313723781
14252887 29 11386369266116621158
14341114 328 16806171097910629108
14461889 52 18187657912164695123
14848178 96 18337402551833927141
15061688 2 18130781300229019482
15238133 3 18260831522852042792
15342168 16 18335145293232476831
15664445 248 14260766404895341787
1813 80 7997974582715484474
18186145 218 17559697190071809142
18222031 100 7925912582183607121
193927 3 8502372260892873621
19782 4 18343017826203977288
20403669 9 9799692584731618121
20715895 44 17896309213277845157
20871999 31 12895078439519881563
21033648 29 18340203102787313056
212916 134 18337668714993401176
21304303 282 17343472752381530694
21452121 103 18188205378090957699
21618674 25 18410292497685640107
21864079 5 18118693355345675236
23016692 55 10015586125166984105
23559900 14 18116163177116130859
2838139 119 17988637472014356033
312425 83 15912783694906910841
3472631 163 17774994734606496968
34797466 226 17131835357290699445
4072396 5 15575001629154047963
43658 37 18272088288304918331
4463277 69 9079104549739757387
465052 167 8502362352561753017
474 4 18335146366868799085
495365 180 18338803312346674807
5104073 3 18042415643012956937
58807428 26 17240482498781833427
7064713 232 18261390108807032892
7097593 13 16878214381349356234
7808743 9 18046078313297063972
90316 7 16298383595604788391
960060 61 13326852227763068985

> <PUBCHEM_SHAPE_MULTIPOLES>
396.47
11.28
2.83
1.73
8.59
1.32
0.08
-11.89
2.91
-0.85
-0.01
-1.98
-0.55
1.05

> <PUBCHEM_SHAPE_SELFOVERLAP>
808.281

> <PUBCHEM_SHAPE_VOLUME>
230.6

> <PUBCHEM_COORDINATE_TYPE>
2
5
10

$$$$
