133373
  -OEChem-03292013323D

 53 55  0     1  0  0  0  0  0999 V2000
    0.8178    1.3031   -1.7109 O   0  0  0  0  0  0  0  0  0  0  0  0
   -1.2396    1.8968    1.6224 O   0  0  0  0  0  0  0  0  0  0  0  0
   -6.7368    0.5327    1.6461 O   0  0  0  0  0  0  0  0  0  0  0  0
   -6.7341    1.3679   -0.4656 O   0  0  0  0  0  0  0  0  0  0  0  0
   -1.6099    1.0989   -0.5250 N   0  0  0  0  0  0  0  0  0  0  0  0
    1.6575   -0.1491   -0.0699 N   0  0  0  0  0  0  0  0  0  0  0  0
    7.1687    0.6667   -0.4273 N   0  0  0  0  0  0  0  0  0  0  0  0
   -0.7263   -0.0392   -0.4336 C   0  0  1  0  0  0  0  0  0  0  0  0
   -1.2146   -1.1724   -1.3439 C   0  0  0  0  0  0  0  0  0  0  0  0
   -2.3752   -1.9467   -0.7687 C   0  0  0  0  0  0  0  0  0  0  0  0
    0.6653    0.4500   -0.8406 C   0  0  0  0  0  0  0  0  0  0  0  0
   -2.7936    3.0711    0.1818 C   0  0  0  0  0  0  0  0  0  0  0  0
   -1.7923    1.9824    0.5292 C   0  0  0  0  0  0  0  0  0  0  0  0
   -4.1819    2.5396   -0.1697 C   0  0  0  0  0  0  0  0  0  0  0  0
    3.0554    0.0512   -0.1529 C   0  0  0  0  0  0  0  0  0  0  0  0
   -2.1395   -3.0653    0.0307 C   0  0  0  0  0  0  0  0  0  0  0  0
   -3.6837   -1.5436   -1.0360 C   0  0  0  0  0  0  0  0  0  0  0  0
   -4.8073    1.7405    0.9756 C   0  0  0  0  0  0  0  0  0  0  0  0
    3.9133   -0.6351    0.7018 C   0  0  0  0  0  0  0  0  0  0  0  0
    5.3026   -0.4394    0.6223 C   0  0  0  0  0  0  0  0  0  0  0  0
    3.5807    0.9341   -1.0882 C   0  0  0  0  0  0  0  0  0  0  0  0
   -3.2121   -3.7810    0.5625 C   0  0  0  0  0  0  0  0  0  0  0  0
   -4.7563   -2.2594   -0.5039 C   0  0  0  0  0  0  0  0  0  0  0  0
    5.8428    0.4556   -0.3248 C   0  0  0  0  0  0  0  0  0  0  0  0
    4.9619    1.1288   -1.1668 C   0  0  0  0  0  0  0  0  0  0  0  0
   -4.5204   -3.3780    0.2953 C   0  0  0  0  0  0  0  0  0  0  0  0
   -6.1775    1.2152    0.6128 C   0  0  0  0  0  0  0  0  0  0  0  0
    6.1889   -1.1167    1.4704 C   0  0  0  0  0  0  0  0  0  0  0  0
    7.5556   -0.9014    1.3672 C   0  0  0  0  0  0  0  0  0  0  0  0
    7.9903   -0.0073    0.4099 C   0  0  0  0  0  0  0  0  0  0  0  0
   -0.7026   -0.3704    0.6121 H   0  0  0  0  0  0  0  0  0  0  0  0
   -0.3911   -1.8752   -1.5307 H   0  0  0  0  0  0  0  0  0  0  0  0
   -1.4857   -0.7873   -2.3366 H   0  0  0  0  0  0  0  0  0  0  0  0
   -2.0326    1.3063   -1.4251 H   0  0  0  0  0  0  0  0  0  0  0  0
   -2.8600    3.7561    1.0352 H   0  0  0  0  0  0  0  0  0  0  0  0
   -2.3929    3.6459   -0.6616 H   0  0  0  0  0  0  0  0  0  0  0  0
   -4.8307    3.3892   -0.4172 H   0  0  0  0  0  0  0  0  0  0  0  0
   -4.1389    1.9180   -1.0719 H   0  0  0  0  0  0  0  0  0  0  0  0
    1.3652   -0.8248    0.6325 H   0  0  0  0  0  0  0  0  0  0  0  0
   -1.1247   -3.3874    0.2483 H   0  0  0  0  0  0  0  0  0  0  0  0
   -3.8815   -0.6751   -1.6581 H   0  0  0  0  0  0  0  0  0  0  0  0
   -4.9091    2.3801    1.8592 H   0  0  0  0  0  0  0  0  0  0  0  0
   -4.1812    0.8786    1.2288 H   0  0  0  0  0  0  0  0  0  0  0  0
    3.5045   -1.3275    1.4357 H   0  0  0  0  0  0  0  0  0  0  0  0
    2.9874    1.5031   -1.7900 H   0  0  0  0  0  0  0  0  0  0  0  0
   -3.0287   -4.6515    1.1856 H   0  0  0  0  0  0  0  0  0  0  0  0
   -5.7750   -1.9451   -0.7114 H   0  0  0  0  0  0  0  0  0  0  0  0
    5.3498    1.8252   -1.9082 H   0  0  0  0  0  0  0  0  0  0  0  0
   -5.3556   -3.9347    0.7100 H   0  0  0  0  0  0  0  0  0  0  0  0
    5.8190   -1.8163    2.2165 H   0  0  0  0  0  0  0  0  0  0  0  0
    8.2551   -1.4167    2.0148 H   0  0  0  0  0  0  0  0  0  0  0  0
    9.0475    0.2012    0.2831 H   0  0  0  0  0  0  0  0  0  0  0  0
   -7.6252    0.1859    1.4164 H   0  0  0  0  0  0  0  0  0  0  0  0
  1 11  2  0  0  0  0
  2 13  2  0  0  0  0
  3 27  1  0  0  0  0
  3 53  1  0  0  0  0
  4 27  2  0  0  0  0
  5  8  1  0  0  0  0
  5 13  1  0  0  0  0
  5 34  1  0  0  0  0
  6 11  1  0  0  0  0
  6 15  1  0  0  0  0
  6 39  1  0  0  0  0
  7 24  1  0  0  0  0
  7 30  2  0  0  0  0
  8  9  1  0  0  0  0
  8 11  1  0  0  0  0
  8 31  1  0  0  0  0
  9 10  1  0  0  0  0
  9 32  1  0  0  0  0
  9 33  1  0  0  0  0
 10 16  2  0  0  0  0
 10 17  1  0  0  0  0
 12 13  1  0  0  0  0
 12 14  1  0  0  0  0
 12 35  1  0  0  0  0
 12 36  1  0  0  0  0
 14 18  1  0  0  0  0
 14 37  1  0  0  0  0
 14 38  1  0  0  0  0
 15 19  2  0  0  0  0
 15 21  1  0  0  0  0
 16 22  1  0  0  0  0
 16 40  1  0  0  0  0
 17 23  2  0  0  0  0
 17 41  1  0  0  0  0
 18 27  1  0  0  0  0
 18 42  1  0  0  0  0
 18 43  1  0  0  0  0
 19 20  1  0  0  0  0
 19 44  1  0  0  0  0
 20 24  2  0  0  0  0
 20 28  1  0  0  0  0
 21 25  2  0  0  0  0
 21 45  1  0  0  0  0
 22 26  2  0  0  0  0
 22 46  1  0  0  0  0
 23 26  1  0  0  0  0
 23 47  1  0  0  0  0
 24 25  1  0  0  0  0
 25 48  1  0  0  0  0
 26 49  1  0  0  0  0
 28 29  2  0  0  0  0
 28 50  1  0  0  0  0
 29 30  1  0  0  0  0
 29 51  1  0  0  0  0
 30 52  1  0  0  0  0
M  END
> <PUBCHEM_COMPOUND_CID>
133373

> <PUBCHEM_CONFORMER_RMSD>
1

> <PUBCHEM_CONFORMER_DIVERSEORDER>
1
100
124
24
34
123
84
141
75
40
43
11
87
122
85
78
76
110
90
28
93
8
148
61
136
109
143
7
67
113
101
80
47
146
66
65
69
129
94
151
130
31
104
117
105
41
88
115
45
30
79
135
22
64
81
106
74
108
86
16
4
42
144
147
63
77
39
114
116
53
118
46
68
73
29
83
18
95
17
71
3
2
134
137
131
37
51
152
56
97
149
38
103
14
32
132
21
126
12
9
127
139
96
55
145
27
112
70
48
33
89
35
26
119
62
125
150
120
6
10
91
92
52
25
49
138
102
111
20
57
98
82
140
44
19
121
23
133
50
153
72
107
5
59
142
99
15
58
54
36
60
128
13

> <PUBCHEM_MMFF94_PARTIAL_CHARGES>
42
1 -0.57
10 -0.14
11 0.57
12 0.06
13 0.57
15 0.12
16 -0.15
17 -0.15
18 0.06
19 -0.15
2 -0.57
21 -0.15
22 -0.15
23 -0.15
24 0.31
25 -0.15
26 -0.15
27 0.66
28 -0.15
29 -0.15
3 -0.65
30 0.16
34 0.37
39 0.37
4 -0.57
40 0.15
41 0.15
44 0.15
45 0.15
46 0.15
47 0.15
48 0.15
49 0.15
5 -0.73
50 0.15
51 0.15
52 0.15
53 0.5
6 -0.55
7 -0.62
8 0.36
9 0.14

> <PUBCHEM_EFFECTIVE_ROTOR_COUNT>
11

> <PUBCHEM_PHARMACOPHORE_FEATURES>
11
1 1 acceptor
1 2 acceptor
1 3 acceptor
1 4 acceptor
1 5 donor
1 6 donor
1 7 acceptor
3 3 4 27 anion
6 10 16 17 22 23 26 rings
6 15 19 20 21 24 25 rings
6 7 20 24 28 29 30 rings

> <PUBCHEM_HEAVY_ATOM_COUNT>
30

> <PUBCHEM_ATOM_DEF_STEREO_COUNT>
1

> <PUBCHEM_ATOM_UDEF_STEREO_COUNT>
0

> <PUBCHEM_BOND_DEF_STEREO_COUNT>
0

> <PUBCHEM_BOND_UDEF_STEREO_COUNT>
0

> <PUBCHEM_ISOTOPIC_ATOM_COUNT>
0

> <PUBCHEM_COMPONENT_COUNT>
1

> <PUBCHEM_CACTVS_TAUTO_COUNT>
4

> <PUBCHEM_CONFORMER_ID>
000208FD00000001

> <PUBCHEM_MMFF94_ENERGY>
75.9185

> <PUBCHEM_FEATURE_SELFOVERLAP>
55.912

> <PUBCHEM_SHAPE_FINGERPRINT>
10 15 18411140225688534064
10319688 67 18272925007984470619
10319926 262 18271796952368029192
10838868 229 18120938300365929210
12236239 1 18334010606218224356
12645989 146 7925040635931809121
12760667 363 18338227288291473054
12788726 201 18338806731077208934
12838862 33 18270677572939492401
13947920 75 18410006637589421067
14844126 61 18340767134882816155
14866123 147 18409730690605300955
15021287 119 17313107449298800141
15131766 46 16517964940947775180
15183329 4 17894900867372850014
15328829 1 18040995128927899112
1577012 14 18261114097783012588
18603816 31 16515688861557000913
21033648 29 17059473215774751730
21236236 1 18413387652634460447
21639891 77 18202002166055691929
23522609 53 17896342314574776828
23559900 14 18045488961968313620
25147074 1 18113909298917634980
3004659 81 17459175439188453334
4073 2 18413108343202520822
497634 4 18114174259692267086
5028188 123 18336555950557663140
5104073 3 18339350960022418416
5171179 24 17559097999289911233
563151 248 18187371986626023418
6691757 9 18343585140430012919
7226269 152 18343864407819757737

> <PUBCHEM_SHAPE_MULTIPOLES>
578.97
20.58
3.57
1.34
26.41
1.99
-0.09
-0.41
-6.24
-8.37
-0.46
0.33
-0.13
-2.18

> <PUBCHEM_SHAPE_SELFOVERLAP>
1234.8

> <PUBCHEM_SHAPE_VOLUME>
318.4

> <PUBCHEM_COORDINATE_TYPE>
2
5
10

$$$$
