133401
  -OEChem-03292013323D

 45 46  0     1  0  0  0  0  0999 V2000
   -3.8719   -3.9903    0.6396 Cl  0  0  0  0  0  0  0  0  0  0  0  0
    1.3257   -0.2565   -0.4610 O   0  0  0  0  0  0  0  0  0  0  0  0
    0.2153    1.7436   -0.0035 O   0  0  0  0  0  0  0  0  0  0  0  0
    4.5048    0.8082    1.9122 O   0  0  0  0  0  0  0  0  0  0  0  0
    2.6435    2.8605    0.9139 O   0  0  0  0  0  0  0  0  0  0  0  0
    4.8113   -1.2944   -0.0711 O   0  0  0  0  0  0  0  0  0  0  0  0
   -2.5402    1.7281    0.6765 O   0  0  0  0  0  0  0  0  0  0  0  0
    3.2211   -3.0879   -1.3080 O   0  0  0  0  0  0  0  0  0  0  0  0
    1.0291   -2.7741   -0.7671 O   0  0  0  0  0  0  0  0  0  0  0  0
   -0.6228    0.9454   -1.9945 O   0  0  0  0  0  0  0  0  0  0  0  0
    3.7628    0.7343    0.6940 C   0  0  2  0  0  0  0  0  0  0  0  0
    2.4234    1.4509    0.8677 C   0  0  2  0  0  0  0  0  0  0  0  0
    3.5649   -0.7422    0.3496 C   0  0  1  0  0  0  0  0  0  0  0  0
    1.4799    1.1510   -0.2975 C   0  0  1  0  0  0  0  0  0  0  0  0
    2.5531   -0.9029   -0.7781 C   0  0  1  0  0  0  0  0  0  0  0  0
    2.1559   -2.3343   -0.9410 C   0  0  0  0  0  0  0  0  0  0  0  0
   -2.0450    2.2777   -0.5370 C   0  0  0  0  0  0  0  0  0  0  0  0
   -0.7593    1.5637   -0.9455 C   0  0  0  0  0  0  0  0  0  0  0  0
   -3.1195    2.1113   -1.6102 C   0  0  0  0  0  0  0  0  0  0  0  0
   -1.7380    3.7525   -0.2969 C   0  0  0  0  0  0  0  0  0  0  0  0
   -2.8515    0.3933    0.6689 C   0  0  0  0  0  0  0  0  0  0  0  0
   -1.8792   -0.5415    1.0055 C   0  0  0  0  0  0  0  0  0  0  0  0
   -4.1355   -0.0117    0.3233 C   0  0  0  0  0  0  0  0  0  0  0  0
   -2.1952   -1.9001    0.9960 C   0  0  0  0  0  0  0  0  0  0  0  0
   -4.4515   -1.3704    0.3139 C   0  0  0  0  0  0  0  0  0  0  0  0
   -3.4813   -2.3146    0.6501 C   0  0  0  0  0  0  0  0  0  0  0  0
    4.3680    1.2408   -0.0682 H   0  0  0  0  0  0  0  0  0  0  0  0
    1.9572    1.1664    1.8193 H   0  0  0  0  0  0  0  0  0  0  0  0
    3.2508   -1.2945    1.2439 H   0  0  0  0  0  0  0  0  0  0  0  0
    1.8601    1.6025   -1.2242 H   0  0  0  0  0  0  0  0  0  0  0  0
    2.9229   -0.5390   -1.7447 H   0  0  0  0  0  0  0  0  0  0  0  0
    5.3439    0.3371    1.7710 H   0  0  0  0  0  0  0  0  0  0  0  0
    3.2631    3.0336    1.6432 H   0  0  0  0  0  0  0  0  0  0  0  0
    5.1016   -0.8131   -0.8646 H   0  0  0  0  0  0  0  0  0  0  0  0
   -2.8488    2.6753   -2.5115 H   0  0  0  0  0  0  0  0  0  0  0  0
   -3.2495    1.0741   -1.9367 H   0  0  0  0  0  0  0  0  0  0  0  0
   -4.0907    2.4859   -1.2684 H   0  0  0  0  0  0  0  0  0  0  0  0
   -1.2765    4.2183   -1.1742 H   0  0  0  0  0  0  0  0  0  0  0  0
   -2.6536    4.3038   -0.0531 H   0  0  0  0  0  0  0  0  0  0  0  0
   -1.0645    3.8909    0.5568 H   0  0  0  0  0  0  0  0  0  0  0  0
    2.9809   -4.0326   -1.4185 H   0  0  0  0  0  0  0  0  0  0  0  0
   -0.8842   -0.2340    1.3093 H   0  0  0  0  0  0  0  0  0  0  0  0
   -4.9075    0.7131    0.0829 H   0  0  0  0  0  0  0  0  0  0  0  0
   -1.4309   -2.6239    1.2672 H   0  0  0  0  0  0  0  0  0  0  0  0
   -5.4594   -1.6785    0.0478 H   0  0  0  0  0  0  0  0  0  0  0  0
  1 26  1  0  0  0  0
  2 14  1  0  0  0  0
  2 15  1  0  0  0  0
  3 14  1  0  0  0  0
  3 18  1  0  0  0  0
  4 11  1  0  0  0  0
  4 32  1  0  0  0  0
  5 12  1  0  0  0  0
  5 33  1  0  0  0  0
  6 13  1  0  0  0  0
  6 34  1  0  0  0  0
  7 17  1  0  0  0  0
  7 21  1  0  0  0  0
  8 16  1  0  0  0  0
  8 41  1  0  0  0  0
  9 16  2  0  0  0  0
 10 18  2  0  0  0  0
 11 12  1  0  0  0  0
 11 13  1  0  0  0  0
 11 27  1  0  0  0  0
 12 14  1  0  0  0  0
 12 28  1  0  0  0  0
 13 15  1  0  0  0  0
 13 29  1  0  0  0  0
 14 30  1  0  0  0  0
 15 16  1  0  0  0  0
 15 31  1  0  0  0  0
 17 18  1  0  0  0  0
 17 19  1  0  0  0  0
 17 20  1  0  0  0  0
 19 35  1  0  0  0  0
 19 36  1  0  0  0  0
 19 37  1  0  0  0  0
 20 38  1  0  0  0  0
 20 39  1  0  0  0  0
 20 40  1  0  0  0  0
 21 22  2  0  0  0  0
 21 23  1  0  0  0  0
 22 24  1  0  0  0  0
 22 42  1  0  0  0  0
 23 25  2  0  0  0  0
 23 43  1  0  0  0  0
 24 26  2  0  0  0  0
 24 44  1  0  0  0  0
 25 26  1  0  0  0  0
 25 45  1  0  0  0  0
M  END
> <PUBCHEM_COMPOUND_CID>
133401

> <PUBCHEM_CONFORMER_RMSD>
1

> <PUBCHEM_CONFORMER_DIVERSEORDER>
2
521
121
21
559
342
37
344
311
32
484
15
241
87
518
515
42
86
477
39
196
280
180
293
228
26
53
93
76
326
229
125
404
233
283
113
136
128
422
116
420
428
299
72
519
64
9
352
536
371
30
8
46
5
310
305
292
34
67
173
343
153
35
48
254
192
83
435
217
264
226
77
28
567
184
408
503
84
36
252
459
78
157
516
304
557
281
245
74
370
13
3
176
246
4
513
290
549
150
336
359
325
17
533
239
446
238
203
470
82
50
158
22
555
400
44
390
225
170
25
70
156
102
465
101
141
63
318
216
215
49
139
457
266
112
69
126
406
213
307
18
1
57
96
321
409
7
214
68
79
24
382
130
66
6

> <PUBCHEM_MMFF94_PARTIAL_CHARGES>
32
1 -0.18
10 -0.57
11 0.28
12 0.28
13 0.28
14 0.56
15 0.34
16 0.66
17 0.34
18 0.66
2 -0.56
21 0.08
22 -0.15
23 -0.15
24 -0.15
25 -0.15
26 0.18
3 -0.43
32 0.4
33 0.4
34 0.4
4 -0.68
41 0.5
42 0.15
43 0.15
44 0.15
45 0.15
5 -0.68
6 -0.68
7 -0.36
8 -0.65
9 -0.57

> <PUBCHEM_EFFECTIVE_ROTOR_COUNT>
7.2

> <PUBCHEM_PHARMACOPHORE_FEATURES>
15
1 10 acceptor
1 2 acceptor
1 4 acceptor
1 4 donor
1 5 acceptor
1 5 donor
1 6 acceptor
1 6 donor
1 7 acceptor
1 8 acceptor
1 9 acceptor
3 17 19 20 hydrophobe
3 8 9 16 anion
6 2 11 12 13 14 15 rings
6 21 22 23 24 25 26 rings

> <PUBCHEM_HEAVY_ATOM_COUNT>
26

> <PUBCHEM_ATOM_DEF_STEREO_COUNT>
4

> <PUBCHEM_ATOM_UDEF_STEREO_COUNT>
1

> <PUBCHEM_BOND_DEF_STEREO_COUNT>
0

> <PUBCHEM_BOND_UDEF_STEREO_COUNT>
0

> <PUBCHEM_ISOTOPIC_ATOM_COUNT>
0

> <PUBCHEM_COMPONENT_COUNT>
1

> <PUBCHEM_CACTVS_TAUTO_COUNT>
1

> <PUBCHEM_CONFORMER_ID>
0002091900000002

> <PUBCHEM_MMFF94_ENERGY>
78.1284

> <PUBCHEM_FEATURE_SELFOVERLAP>
76.216

> <PUBCHEM_SHAPE_FINGERPRINT>
10366900 7 18271237219034330700
1100329 8 14518623433622978285
11370993 70 18272931660741489139
11552529 35 17988926703849332195
12363563 72 17751085906163755467
12422481 6 18193870122823024419
12553582 1 18190483703733276775
12633257 1 18270413706220536721
13140716 1 18411142475865963545
13402501 40 18411138034621996123
13583140 156 18130781205544885124
14081887 123 18408602535196562419
14223421 5 18412546504722001748
14251757 17 18267584593940211547
14790565 3 17544203035000876605
14863182 85 17832160676391159047
16752209 62 17530958069214122681
17357779 13 18335134302358737271
1813 80 17386012805625201781
19049666 15 18196091036524979108
19141452 34 18410018749813888089
1979834 28 18054529151078573043
20600515 1 17242164875894065249
22113638 7 17763464319675577679
23557571 272 18333733498505932787
23559900 14 18409730672623786317
350125 39 18339927142617207964
463206 1 17765156459887342307
469060 322 17770468109748636471
508706 21 18336548200975924543
81228 2 18113913636660614481
9709674 26 18339922615077801085

> <PUBCHEM_SHAPE_MULTIPOLES>
484.11
8.88
4.42
1.36
2.44
0.77
0.18
4.67
-2.35
-2.72
0.73
0.53
-0.15
2.58

> <PUBCHEM_SHAPE_SELFOVERLAP>
1013.634

> <PUBCHEM_SHAPE_VOLUME>
272.9

> <PUBCHEM_COORDINATE_TYPE>
2
5
10

$$$$
