133409
  -OEChem-03292013323D

 59 61  0     1  0  0  0  0  0999 V2000
   -3.1228   -1.8645   -0.8359 O   0  0  0  0  0  0  0  0  0  0  0  0
   -1.6878    1.9100   -0.0681 O   0  0  0  0  0  0  0  0  0  0  0  0
    1.7243   -2.4268   -0.0220 O   0  0  0  0  0  0  0  0  0  0  0  0
    0.3486    3.5200   -0.0124 O   0  0  0  0  0  0  0  0  0  0  0  0
    3.7710   -0.8052    0.0326 O   0  0  0  0  0  0  0  0  0  0  0  0
   -1.7098    1.8568    2.2721 O   0  0  0  0  0  0  0  0  0  0  0  0
    1.7482   -2.3753   -2.3622 O   0  0  0  0  0  0  0  0  0  0  0  0
    0.4270    3.5015   -2.3520 O   0  0  0  0  0  0  0  0  0  0  0  0
    3.6919   -0.7859    2.3721 O   0  0  0  0  0  0  0  0  0  0  0  0
   -4.1749   -2.5624   -0.1380 C   0  0  0  0  0  0  0  0  0  0  0  0
   -4.6429   -1.6263    0.9760 C   0  0  0  0  0  0  0  0  0  0  0  0
   -2.7897   -0.6661   -0.1091 C   0  0  1  0  0  0  0  0  0  0  0  0
   -3.4012   -0.8206    1.2757 C   0  0  0  0  0  0  0  0  0  0  0  0
   -1.3030   -0.4192   -0.0754 C   0  0  0  0  0  0  0  0  0  0  0  0
   -5.2927   -2.8708   -1.1300 C   0  0  0  0  0  0  0  0  0  0  0  0
   -3.5883   -3.8630    0.4163 C   0  0  0  0  0  0  0  0  0  0  0  0
   -0.7903    0.8782   -0.0559 C   0  0  0  0  0  0  0  0  0  0  0  0
   -0.4389   -1.5101   -0.0633 C   0  0  0  0  0  0  0  0  0  0  0  0
    0.5960    1.1005   -0.0239 C   0  0  0  0  0  0  0  0  0  0  0  0
    1.4746   -0.0089   -0.0118 C   0  0  0  0  0  0  0  0  0  0  0  0
    0.9411   -1.3078   -0.0316 C   0  0  0  0  0  0  0  0  0  0  0  0
    1.1295    2.3994   -0.0038 C   0  0  0  0  0  0  0  0  0  0  0  0
    2.8610    0.2133    0.0199 C   0  0  0  0  0  0  0  0  0  0  0  0
    2.5096    2.6017    0.0279 C   0  0  0  0  0  0  0  0  0  0  0  0
    3.3737    1.5107    0.0395 C   0  0  0  0  0  0  0  0  0  0  0  0
   -2.0883    2.3291    1.2084 C   0  0  0  0  0  0  0  0  0  0  0  0
    2.0788   -2.8845   -1.2995 C   0  0  0  0  0  0  0  0  0  0  0  0
   -3.0677    3.4587    1.0881 C   0  0  0  0  0  0  0  0  0  0  0  0
    0.0512    3.9965   -1.2976 C   0  0  0  0  0  0  0  0  0  0  0  0
    4.1225   -1.2382    1.3196 C   0  0  0  0  0  0  0  0  0  0  0  0
    2.9345   -4.1109   -1.1820 C   0  0  0  0  0  0  0  0  0  0  0  0
   -0.8067    5.2231   -1.2003 C   0  0  0  0  0  0  0  0  0  0  0  0
    5.1215   -2.3531    1.2267 C   0  0  0  0  0  0  0  0  0  0  0  0
   -5.0370   -2.1500    1.8522 H   0  0  0  0  0  0  0  0  0  0  0  0
   -5.4265   -0.9494    0.6130 H   0  0  0  0  0  0  0  0  0  0  0  0
   -3.2950    0.1408   -0.6541 H   0  0  0  0  0  0  0  0  0  0  0  0
   -2.7437   -1.3832    1.9493 H   0  0  0  0  0  0  0  0  0  0  0  0
   -3.6371    0.1303    1.7579 H   0  0  0  0  0  0  0  0  0  0  0  0
   -5.6665   -1.9516   -1.5954 H   0  0  0  0  0  0  0  0  0  0  0  0
   -6.1309   -3.3818   -0.6456 H   0  0  0  0  0  0  0  0  0  0  0  0
   -4.9253   -3.5007   -1.9482 H   0  0  0  0  0  0  0  0  0  0  0  0
   -4.3454   -4.4490    0.9476 H   0  0  0  0  0  0  0  0  0  0  0  0
   -2.7595   -3.6682    1.1051 H   0  0  0  0  0  0  0  0  0  0  0  0
   -3.1769   -4.4781   -0.3922 H   0  0  0  0  0  0  0  0  0  0  0  0
   -0.8214   -2.5273   -0.0694 H   0  0  0  0  0  0  0  0  0  0  0  0
    2.9195    3.6082    0.0447 H   0  0  0  0  0  0  0  0  0  0  0  0
    4.4471    1.6794    0.0630 H   0  0  0  0  0  0  0  0  0  0  0  0
   -3.6034    3.4023    0.1364 H   0  0  0  0  0  0  0  0  0  0  0  0
   -3.8071    3.3768    1.8895 H   0  0  0  0  0  0  0  0  0  0  0  0
   -2.5397    4.4111    1.1644 H   0  0  0  0  0  0  0  0  0  0  0  0
    3.9879   -3.8252   -1.2009 H   0  0  0  0  0  0  0  0  0  0  0  0
    2.7154   -4.7813   -2.0177 H   0  0  0  0  0  0  0  0  0  0  0  0
    2.7087   -4.6489   -0.2572 H   0  0  0  0  0  0  0  0  0  0  0  0
   -0.6285    5.7421   -0.2544 H   0  0  0  0  0  0  0  0  0  0  0  0
   -0.5426    5.9092   -2.0097 H   0  0  0  0  0  0  0  0  0  0  0  0
   -1.8584    4.9415   -1.2798 H   0  0  0  0  0  0  0  0  0  0  0  0
    5.7063   -2.2686    0.3065 H   0  0  0  0  0  0  0  0  0  0  0  0
    5.8157   -2.2825    2.0685 H   0  0  0  0  0  0  0  0  0  0  0  0
    4.6021   -3.3129    1.2527 H   0  0  0  0  0  0  0  0  0  0  0  0
  1 10  1  0  0  0  0
  1 12  1  0  0  0  0
  2 17  1  0  0  0  0
  2 26  1  0  0  0  0
  3 21  1  0  0  0  0
  3 27  1  0  0  0  0
  4 22  1  0  0  0  0
  4 29  1  0  0  0  0
  5 23  1  0  0  0  0
  5 30  1  0  0  0  0
  6 26  2  0  0  0  0
  7 27  2  0  0  0  0
  8 29  2  0  0  0  0
  9 30  2  0  0  0  0
 10 11  1  0  0  0  0
 10 15  1  0  0  0  0
 10 16  1  0  0  0  0
 11 13  1  0  0  0  0
 11 34  1  0  0  0  0
 11 35  1  0  0  0  0
 12 13  1  0  0  0  0
 12 14  1  0  0  0  0
 12 36  1  0  0  0  0
 13 37  1  0  0  0  0
 13 38  1  0  0  0  0
 14 17  2  0  0  0  0
 14 18  1  0  0  0  0
 15 39  1  0  0  0  0
 15 40  1  0  0  0  0
 15 41  1  0  0  0  0
 16 42  1  0  0  0  0
 16 43  1  0  0  0  0
 16 44  1  0  0  0  0
 17 19  1  0  0  0  0
 18 21  2  0  0  0  0
 18 45  1  0  0  0  0
 19 20  1  0  0  0  0
 19 22  2  0  0  0  0
 20 21  1  0  0  0  0
 20 23  2  0  0  0  0
 22 24  1  0  0  0  0
 23 25  1  0  0  0  0
 24 25  2  0  0  0  0
 24 46  1  0  0  0  0
 25 47  1  0  0  0  0
 26 28  1  0  0  0  0
 27 31  1  0  0  0  0
 28 48  1  0  0  0  0
 28 49  1  0  0  0  0
 28 50  1  0  0  0  0
 29 32  1  0  0  0  0
 30 33  1  0  0  0  0
 31 51  1  0  0  0  0
 31 52  1  0  0  0  0
 31 53  1  0  0  0  0
 32 54  1  0  0  0  0
 32 55  1  0  0  0  0
 32 56  1  0  0  0  0
 33 57  1  0  0  0  0
 33 58  1  0  0  0  0
 33 59  1  0  0  0  0
M  END
> <PUBCHEM_COMPOUND_CID>
133409

> <PUBCHEM_CONFORMER_RMSD>
1

> <PUBCHEM_CONFORMER_DIVERSEORDER>
1
13
28
29
38
37
41
6
25
33
36
32
39
34
23
27
35
22
24
5
19
16
11
31
20
12
26
40
14
4
7
18
17
15
9
21
10
30
3
8
2

> <PUBCHEM_MMFF94_PARTIAL_CHARGES>
30
1 -0.56
10 0.28
12 0.42
14 -0.14
17 0.08
18 -0.15
2 -0.23
21 0.08
22 0.08
23 0.08
24 -0.15
25 -0.15
26 0.66
27 0.66
28 0.06
29 0.66
3 -0.23
30 0.66
31 0.06
32 0.06
33 0.06
4 -0.23
45 0.15
46 0.15
47 0.15
5 -0.23
6 -0.57
7 -0.57
8 -0.57
9 -0.57

> <PUBCHEM_EFFECTIVE_ROTOR_COUNT>
10

> <PUBCHEM_PHARMACOPHORE_FEATURES>
9
1 1 acceptor
1 6 acceptor
1 7 acceptor
1 8 acceptor
1 9 acceptor
3 10 15 16 hydrophobe
5 1 10 11 12 13 rings
6 14 17 18 19 20 21 rings
6 19 20 22 23 24 25 rings

> <PUBCHEM_HEAVY_ATOM_COUNT>
33

> <PUBCHEM_ATOM_DEF_STEREO_COUNT>
0

> <PUBCHEM_ATOM_UDEF_STEREO_COUNT>
1

> <PUBCHEM_BOND_DEF_STEREO_COUNT>
0

> <PUBCHEM_BOND_UDEF_STEREO_COUNT>
0

> <PUBCHEM_ISOTOPIC_ATOM_COUNT>
0

> <PUBCHEM_COMPONENT_COUNT>
1

> <PUBCHEM_CACTVS_TAUTO_COUNT>
1

> <PUBCHEM_CONFORMER_ID>
0002092100000001

> <PUBCHEM_MMFF94_ENERGY>
115.108

> <PUBCHEM_FEATURE_SELFOVERLAP>
45.7

> <PUBCHEM_SHAPE_FINGERPRINT>
10411042 1 18335975432991073498
10675989 125 17761497293811641405
12293681 160 17188432984028364289
12422481 6 18272651207940543419
12553582 1 18412270566116891495
13140716 1 18411133598358967184
133893 2 17678198141902247268
140371 6 18338805614686385827
14178342 30 18271524174441805362
14790565 3 16966893520007503303
1813 80 18335994124562073727
18681886 176 17910113843355929842
19319366 153 17257651647484498799
19591789 44 17042329909056823171
20028762 73 17915181432435592966
20739085 24 18338802337356930322
20775438 99 17907254890165494909
21421861 104 18339942483797122211
22182313 1 17546448873646835404
23559900 14 18046899652862343219
2748010 2 17401488148413532052
3178227 256 17758126173315600144
3380486 145 18187652383856820041
394222 165 17613156686195857137
4409770 3 17827627059269388540
45266715 3 17040892288913286894
484985 159 15801796672422706170

> <PUBCHEM_SHAPE_MULTIPOLES>
626.3
8.43
6.56
1.65
3.8
4.78
0.02
-9.72
-2.32
0.49
2.65
-0.48
0.15
-1.1

> <PUBCHEM_SHAPE_SELFOVERLAP>
1351.18

> <PUBCHEM_SHAPE_VOLUME>
339.7

> <PUBCHEM_COORDINATE_TYPE>
2
5
10

$$$$
