133400
  -OEChem-03292013323D

 43 45  0     1  0  0  0  0  0999 V2000
   -0.6906    1.7671   -0.5964 O   0  0  0  0  0  0  0  0  0  0  0  0
   -2.8411    0.3311    0.4349 O   0  0  0  0  0  0  0  0  0  0  0  0
    1.9916   -1.5027    1.4998 O   0  0  0  0  0  0  0  0  0  0  0  0
    6.0575   -1.8401   -0.8171 O   0  0  0  0  0  0  0  0  0  0  0  0
   -4.2901    0.4066    2.2221 O   0  0  0  0  0  0  0  0  0  0  0  0
    1.9249    1.3260    0.5286 N   0  0  0  0  0  0  0  0  0  0  0  0
    4.9312    0.1953   -0.8687 N   0  0  0  0  0  0  0  0  0  0  0  0
    4.0298   -1.6959    0.3467 N   0  0  0  0  0  0  0  0  0  0  0  0
    3.5253    2.2115   -0.7460 N   0  0  0  0  0  0  0  0  0  0  0  0
   -5.6451   -0.7696   -2.1944 N   0  0  0  0  0  0  0  0  0  0  0  0
    0.7015    1.2472    1.2906 C   0  0  0  0  0  0  0  0  0  0  0  0
    2.8454    0.3374    0.3294 C   0  0  0  0  0  0  0  0  0  0  0  0
   -0.4882    0.8021    0.4378 C   0  0  1  0  0  0  0  0  0  0  0  0
    3.8133    0.9056   -0.4529 C   0  0  0  0  0  0  0  0  0  0  0  0
    2.8699   -1.0108    0.7965 C   0  0  0  0  0  0  0  0  0  0  0  0
    2.3782    2.4348   -0.1383 C   0  0  0  0  0  0  0  0  0  0  0  0
   -1.7603    0.7191    1.2760 C   0  0  0  0  0  0  0  0  0  0  0  0
    5.0837   -1.1584   -0.4773 C   0  0  0  0  0  0  0  0  0  0  0  0
    5.9408    0.8369   -1.7017 C   0  0  0  0  0  0  0  0  0  0  0  0
    4.1692   -3.0881    0.7613 C   0  0  0  0  0  0  0  0  0  0  0  0
   -4.0544    0.2121    1.0397 C   0  0  0  0  0  0  0  0  0  0  0  0
   -5.0916   -0.1971    0.0592 C   0  0  0  0  0  0  0  0  0  0  0  0
   -6.3907   -0.3744    0.4705 C   0  0  0  0  0  0  0  0  0  0  0  0
   -4.7505   -0.3968   -1.2518 C   0  0  0  0  0  0  0  0  0  0  0  0
   -7.3399   -0.7579   -0.4704 C   0  0  0  0  0  0  0  0  0  0  0  0
   -6.9198   -0.9409   -1.7780 C   0  0  0  0  0  0  0  0  0  0  0  0
    0.8607    0.5834    2.1453 H   0  0  0  0  0  0  0  0  0  0  0  0
    0.5227    2.2520    1.6948 H   0  0  0  0  0  0  0  0  0  0  0  0
   -0.2880   -0.1578   -0.0519 H   0  0  0  0  0  0  0  0  0  0  0  0
    1.8356    3.3704   -0.1456 H   0  0  0  0  0  0  0  0  0  0  0  0
   -1.9909    1.7009    1.7073 H   0  0  0  0  0  0  0  0  0  0  0  0
   -1.6367   -0.0153    2.0804 H   0  0  0  0  0  0  0  0  0  0  0  0
    5.4721    1.1736   -2.6314 H   0  0  0  0  0  0  0  0  0  0  0  0
    6.7569    0.1524   -1.9462 H   0  0  0  0  0  0  0  0  0  0  0  0
    6.3508    1.6969   -1.1633 H   0  0  0  0  0  0  0  0  0  0  0  0
    3.3378   -3.4319    1.3806 H   0  0  0  0  0  0  0  0  0  0  0  0
    5.1041   -3.1935    1.3210 H   0  0  0  0  0  0  0  0  0  0  0  0
    4.2354   -3.7141   -0.1343 H   0  0  0  0  0  0  0  0  0  0  0  0
   -1.4635    1.4814   -1.1130 H   0  0  0  0  0  0  0  0  0  0  0  0
   -6.6951   -0.2247    1.5016 H   0  0  0  0  0  0  0  0  0  0  0  0
   -3.7459   -0.2739   -1.6409 H   0  0  0  0  0  0  0  0  0  0  0  0
   -8.3758   -0.9088   -0.1892 H   0  0  0  0  0  0  0  0  0  0  0  0
   -7.6213   -1.2400   -2.5498 H   0  0  0  0  0  0  0  0  0  0  0  0
  1 13  1  0  0  0  0
  1 39  1  0  0  0  0
  2 17  1  0  0  0  0
  2 21  1  0  0  0  0
  3 15  2  0  0  0  0
  4 18  2  0  0  0  0
  5 21  2  0  0  0  0
  6 11  1  0  0  0  0
  6 12  1  0  0  0  0
  6 16  1  0  0  0  0
  7 14  1  0  0  0  0
  7 18  1  0  0  0  0
  7 19  1  0  0  0  0
  8 15  1  0  0  0  0
  8 18  1  0  0  0  0
  8 20  1  0  0  0  0
  9 14  1  0  0  0  0
  9 16  2  0  0  0  0
 10 24  1  0  0  0  0
 10 26  2  0  0  0  0
 11 13  1  0  0  0  0
 11 27  1  0  0  0  0
 11 28  1  0  0  0  0
 12 14  2  0  0  0  0
 12 15  1  0  0  0  0
 13 17  1  0  0  0  0
 13 29  1  0  0  0  0
 16 30  1  0  0  0  0
 17 31  1  0  0  0  0
 17 32  1  0  0  0  0
 19 33  1  0  0  0  0
 19 34  1  0  0  0  0
 19 35  1  0  0  0  0
 20 36  1  0  0  0  0
 20 37  1  0  0  0  0
 20 38  1  0  0  0  0
 21 22  1  0  0  0  0
 22 23  1  0  0  0  0
 22 24  2  0  0  0  0
 23 25  2  0  0  0  0
 23 40  1  0  0  0  0
 24 41  1  0  0  0  0
 25 26  1  0  0  0  0
 25 42  1  0  0  0  0
 26 43  1  0  0  0  0
M  END
> <PUBCHEM_COMPOUND_CID>
133400

> <PUBCHEM_CONFORMER_RMSD>
0.8

> <PUBCHEM_CONFORMER_DIVERSEORDER>
1
389
129
164
372
320
373
256
186
450
39
477
304
206
168
383
251
310
445
37
415
403
337
313
56
205
4
363
333
276
339
367
340
359
447
378
154
290
470
427
308
458
399
239
242
160
352
41
197
364
409
495
98
151
260
2
459
374
28
19
208
357
234
93
84
67
432
455
462
272
20
435
92
100
471
457
137
184
312
210
269
74
266
463
369
468
280
126
33
380
351
341
201
398
6
322
267
494
149
361
115
453
411
82
456
13
222
323
185
57
390
119
420
144
344
482
235
331
461
140
444
328
226
439
85
58
486
306
110
279
317
49
218
421
207
467
360
36
318
190
120
106
253
155
410
17
187
7
326
141
392
121
334
194
247
259
213
355
112
338
405
46
449
142
124
311
324
401
136
181
419
466
231
199
479
249
250
88
78
246
349
96
418
299
422
452
42
370
412
481
271
18
430
244
321
438
34
480
293
77
148
428
21
212
379
105
464
227
436
55
429
12
431
68
196
70
156
71
167
423
146
264
107
368
174
237
255
171
232
125
248
26
393
469
388
362
413
283
433
238
195
203
214
215
76
278
365
273
161
43
198
236
101
472
94
446
176
229
216
157
113
375
53
492
204
408
123
489
329
281
386
80
483
117
143
127
109
395
262
95
147
24
169
52
258
396
64
51
305
434
130
11
353
301
116
315
75
202
245
358
9
240
133
314
268
27
191
309
406
90
295
62
177
316
342
332
287
3
297
189
460
31
132
183
170
139
175
425
38
22
102
354
270
23
289
228
382
325
111
490
162
225
265
173
298
165
282
86
211
73
330
83
135
159
284
166
451
448
230
114
60
163
224
172
25
241
437
285
217
8
233
209
188
180
221
348
192
366
475
327
81
377
50
476
182
223
45
178
14
263
350
89
35
104
371
307
275
261
288
303
152
454
72
417
400
416
10
343
345
291
32
243
5
387
385
69
346
153
257
79
254
414
138
48
40
99
404
302
384
335
63
440
286
44
300
426
296
347
122
442
277
394
145
252
65
402
61
91
219
424
131
319
97
391
30
485
128
16
292
54
376
29
134
336
274
118
220
47
465
193
158
294
478
179
397
15
493
150
491
441
407
487
66
356
443
381
108
59
200
484
103
87
474
473
488

> <PUBCHEM_MMFF94_PARTIAL_CHARGES>
32
1 -0.68
10 -0.62
11 0.26
12 -0.24
13 0.28
14 0.29
15 0.71
16 0.04
17 0.28
18 0.69
19 0.3
2 -0.43
20 0.3
21 0.63
22 0.09
23 -0.15
24 0.16
25 -0.15
26 0.16
3 -0.57
30 0.15
39 0.4
4 -0.57
40 0.15
41 0.15
42 0.15
43 0.15
5 -0.57
6 0.05
7 -0.42
8 -0.42
9 -0.57

> <PUBCHEM_EFFECTIVE_ROTOR_COUNT>
6

> <PUBCHEM_PHARMACOPHORE_FEATURES>
10
1 1 acceptor
1 1 donor
1 10 acceptor
1 3 acceptor
1 4 acceptor
1 5 acceptor
3 6 9 16 cation
5 6 9 12 14 16 rings
6 10 22 23 24 25 26 rings
6 7 8 12 14 15 18 rings

> <PUBCHEM_HEAVY_ATOM_COUNT>
26

> <PUBCHEM_ATOM_DEF_STEREO_COUNT>
0

> <PUBCHEM_ATOM_UDEF_STEREO_COUNT>
1

> <PUBCHEM_BOND_DEF_STEREO_COUNT>
0

> <PUBCHEM_BOND_UDEF_STEREO_COUNT>
0

> <PUBCHEM_ISOTOPIC_ATOM_COUNT>
0

> <PUBCHEM_COMPONENT_COUNT>
1

> <PUBCHEM_CACTVS_TAUTO_COUNT>
1

> <PUBCHEM_CONFORMER_ID>
0002091800000001

> <PUBCHEM_MMFF94_ENERGY>
55.4631

> <PUBCHEM_FEATURE_SELFOVERLAP>
50.863

> <PUBCHEM_SHAPE_FINGERPRINT>
10319926 262 15339124528959820371
10622 236 18195521489433408306
10693767 8 18340774724475280094
11443803 9 17130428098698999120
11991303 11 17902224517232296309
12236239 1 18060422426165919649
12596602 18 16773794788071597554
12661589 4 17487883726339012615
12838862 33 18188211005411030972
13533116 47 18201435917282433345
13668630 136 18130790083732428799
14347332 77 18342454808016915041
15183329 4 18259700087022025329
15188451 53 16630801111004909805
15238133 3 12251907005661282414
15475509 35 15338848500096645630
17134984 74 18334856151507664330
17349148 13 17775568667476589545
17857418 61 17989205954133047929
18222031 100 18060416923970000129
19377110 9 8070018970341147433
20028762 73 17775847899932434982
20645477 70 18187643609105694193
22061861 79 18186799184550166575
221357 26 18187365411099774940
2215653 11 18040152924901891505
22956985 138 17057266361850081262
23522609 53 17914366590929238953
23559900 14 18041847323601978401
23569914 152 17249171767678356615
29717793 49 18342741818879221065
3004659 81 17917993901495417253
312425 54 14261364557049313615
314194 84 18339649949269100874
3472631 163 13767934528438128934
34797466 226 16660651782183587013
351380 3 18060136548773636947
3882209 13 16812329183244415842
397830 11 11959436938574675741
42767 46 17632571656682826063
44249763 50 16298666213148138187
46194498 28 17023479649412654868
465052 167 18060423533803095957
5104073 3 15769213994423013827
5283384 97 18410572855638843082
543368 44 12540698120333128495
559249 180 17632297857471347425
59682541 52 18187356619649587367
960060 61 18334853935383231881
96874 4 17988636376797819127

> <PUBCHEM_SHAPE_MULTIPOLES>
480.82
19.49
2.21
1.67
22.28
0.58
-0.19
8.3
-8.72
-4.3
0.16
1.51
0.12
-2.09

> <PUBCHEM_SHAPE_SELFOVERLAP>
1036.139

> <PUBCHEM_SHAPE_VOLUME>
264

> <PUBCHEM_COORDINATE_TYPE>
2
5
10

$$$$
