133447
  -OEChem-03292013323D

 30 31  0     0  0  0  0  0  0999 V2000
    0.2561   -0.2889    0.5202 N   0  0  0  0  0  0  0  0  0  0  0  0
    1.8803    2.0044    0.2561 N   0  0  0  0  0  0  0  0  0  0  0  0
    4.6590    1.6857   -0.1928 N   0  0  0  0  0  0  0  0  0  0  0  0
   -0.3539   -0.2512   -0.5743 N   0  0  0  0  0  0  0  0  0  0  0  0
   -5.8586    0.2495    0.3163 N   0  0  0  0  0  0  0  0  0  0  0  0
    2.4466    0.7107    0.1650 C   0  0  0  0  0  0  0  0  0  0  0  0
    1.6376   -0.4155    0.2960 C   0  0  0  0  0  0  0  0  0  0  0  0
    3.8156    0.5601   -0.0563 C   0  0  0  0  0  0  0  0  0  0  0  0
    2.1893   -1.6913    0.2074 C   0  0  0  0  0  0  0  0  0  0  0  0
    4.3714   -0.7162   -0.1457 C   0  0  0  0  0  0  0  0  0  0  0  0
    3.5582   -1.8419   -0.0139 C   0  0  0  0  0  0  0  0  0  0  0  0
   -1.7288   -0.1254   -0.3515 C   0  0  0  0  0  0  0  0  0  0  0  0
   -4.4717    0.1237    0.0922 C   0  0  0  0  0  0  0  0  0  0  0  0
   -2.3081    1.1400   -0.2587 C   0  0  0  0  0  0  0  0  0  0  0  0
   -2.5210   -1.2663   -0.2226 C   0  0  0  0  0  0  0  0  0  0  0  0
   -3.6795    1.2645   -0.0367 C   0  0  0  0  0  0  0  0  0  0  0  0
   -3.8925   -1.1419   -0.0008 C   0  0  0  0  0  0  0  0  0  0  0  0
    1.5645   -2.5747    0.3098 H   0  0  0  0  0  0  0  0  0  0  0  0
    5.4366   -0.8484   -0.3178 H   0  0  0  0  0  0  0  0  0  0  0  0
    3.9909   -2.8355   -0.0832 H   0  0  0  0  0  0  0  0  0  0  0  0
   -1.6994    2.0349   -0.3588 H   0  0  0  0  0  0  0  0  0  0  0  0
   -2.0788   -2.2567   -0.2943 H   0  0  0  0  0  0  0  0  0  0  0  0
   -4.1191    2.2562    0.0336 H   0  0  0  0  0  0  0  0  0  0  0  0
   -4.4991   -2.0385    0.0977 H   0  0  0  0  0  0  0  0  0  0  0  0
    2.4473    2.8340    0.1648 H   0  0  0  0  0  0  0  0  0  0  0  0
    0.8856    2.0977    0.4167 H   0  0  0  0  0  0  0  0  0  0  0  0
    5.6487    1.5503   -0.3532 H   0  0  0  0  0  0  0  0  0  0  0  0
    4.2932    2.6244   -0.1351 H   0  0  0  0  0  0  0  0  0  0  0  0
   -6.4333   -0.5774    0.4102 H   0  0  0  0  0  0  0  0  0  0  0  0
   -6.2792    1.1667    0.3843 H   0  0  0  0  0  0  0  0  0  0  0  0
  1  4  2  0  0  0  0
  1  7  1  0  0  0  0
  2  6  1  0  0  0  0
  2 25  1  0  0  0  0
  2 26  1  0  0  0  0
  3  8  1  0  0  0  0
  3 27  1  0  0  0  0
  3 28  1  0  0  0  0
  4 12  1  0  0  0  0
  5 13  1  0  0  0  0
  5 29  1  0  0  0  0
  5 30  1  0  0  0  0
  6  7  1  0  0  0  0
  6  8  2  0  0  0  0
  7  9  2  0  0  0  0
  8 10  1  0  0  0  0
  9 11  1  0  0  0  0
  9 18  1  0  0  0  0
 10 11  2  0  0  0  0
 10 19  1  0  0  0  0
 11 20  1  0  0  0  0
 12 14  2  0  0  0  0
 12 15  1  0  0  0  0
 13 16  2  0  0  0  0
 13 17  1  0  0  0  0
 14 16  1  0  0  0  0
 14 21  1  0  0  0  0
 15 17  2  0  0  0  0
 15 22  1  0  0  0  0
 16 23  1  0  0  0  0
 17 24  1  0  0  0  0
M  END
> <PUBCHEM_COMPOUND_CID>
133447

> <PUBCHEM_CONFORMER_RMSD>
0.6

> <PUBCHEM_CONFORMER_DIVERSEORDER>
1
2
3

> <PUBCHEM_MMFF94_PARTIAL_CHARGES>
30
1 -0.18
10 -0.15
11 -0.15
12 0.18
13 0.1
14 -0.15
15 -0.15
16 -0.15
17 -0.15
18 0.15
19 0.15
2 -0.9
20 0.15
21 0.15
22 0.15
23 0.15
24 0.15
25 0.4
26 0.4
27 0.4
28 0.4
29 0.4
3 -0.9
30 0.4
4 -0.18
5 -0.9
6 0.1
7 0.18
8 0.1
9 -0.15

> <PUBCHEM_EFFECTIVE_ROTOR_COUNT>
2

> <PUBCHEM_PHARMACOPHORE_FEATURES>
8
1 2 cation
1 2 donor
1 3 cation
1 3 donor
1 5 cation
1 5 donor
6 12 13 14 15 16 17 rings
6 6 7 8 9 10 11 rings

> <PUBCHEM_HEAVY_ATOM_COUNT>
17

> <PUBCHEM_ATOM_DEF_STEREO_COUNT>
0

> <PUBCHEM_ATOM_UDEF_STEREO_COUNT>
0

> <PUBCHEM_BOND_DEF_STEREO_COUNT>
0

> <PUBCHEM_BOND_UDEF_STEREO_COUNT>
0

> <PUBCHEM_ISOTOPIC_ATOM_COUNT>
0

> <PUBCHEM_COMPONENT_COUNT>
1

> <PUBCHEM_CACTVS_TAUTO_COUNT>
2

> <PUBCHEM_CONFORMER_ID>
0002094700000001

> <PUBCHEM_MMFF94_ENERGY>
78.5751

> <PUBCHEM_FEATURE_SELFOVERLAP>
40.603

> <PUBCHEM_SHAPE_FINGERPRINT>
10616163 171 18270118049309891311
11471102 20 18411135840336565888
11615757 297 18131355214996479939
12107183 9 17691408508069650899
12251169 10 18411981356151532927
12507560 40 18334293137319221861
13081056 2 18335701624182553748
13167823 11 18411979148322493591
13760787 19 18272932751605075487
14341114 176 18410300207130739841
15196674 1 18410573980861771605
15239154 128 18410293596822799301
15242433 33 18413108368307400407
15442244 35 18196089945850861616
15536298 74 18411980260776623252
17834072 33 18413105074099126527
17844677 252 18337679619989549853
1813 80 16877947126571604277
18186145 218 17968089802887846446
19050596 39 18409443700136019683
200 152 18131348618354019907
20645477 70 18342459197283574622
21267235 1 18340212895017270606
21652331 79 18409166610558379605
221490 88 18336834177321064922
23402539 116 18059566967728431461
23402655 69 18342175583344123862
23557571 272 17023182669603927951
23558518 356 17538842886192841210
23559900 14 18411415124458060067
300161 21 18411692201625610319
3545911 37 18410575093253039501
4047638 21 17967816059405909770
42 15 18408042888152307887
4214541 1 18410855421869185965
449060 50 18334012804518832341
474 4 17822577221669862284
5104073 3 18409728456478125987
522135 26 18412544293214920342
5281201 14 18335422322786167398
542803 24 17489871531407349873
58051976 100 18343300400861484759
77779 3 18410293596922948095
8272917 22 18272375230680382862
9709674 26 18410298025066534887

> <PUBCHEM_SHAPE_MULTIPOLES>
324.95
11.26
1.79
0.66
5.39
0.12
0.01
0.76
-0.21
-1.33
-0.01
0.03
-0.02
-0.06

> <PUBCHEM_SHAPE_SELFOVERLAP>
701.352

> <PUBCHEM_SHAPE_VOLUME>
177.2

> <PUBCHEM_COORDINATE_TYPE>
2
5
10

$$$$
