133466
  -OEChem-03292013323D

 48 50  0     1  0  0  0  0  0999 V2000
   -6.1710   -0.1571   -0.4886 O   0  0  0  0  0  0  0  0  0  0  0  0
   -4.6913   -1.6571    0.4006 O   0  0  0  0  0  0  0  0  0  0  0  0
    4.2598    0.9956   -0.1266 N   0  0  3  0  0  0  0  0  0  0  0  0
    0.1347    2.8826   -0.2782 N   0  0  0  0  0  0  0  0  0  0  0  0
    1.3764    0.6318    0.9067 N   0  0  0  0  0  0  0  0  0  0  0  0
   -2.0868   -0.5752    0.5541 N   0  0  0  0  0  0  0  0  0  0  0  0
   -4.0286    0.4890   -0.2705 N   0  0  0  0  0  0  0  0  0  0  0  0
   -0.1397   -1.6237    1.4018 N   0  0  0  0  0  0  0  0  0  0  0  0
    2.0945    1.6541    0.5569 C   0  0  0  0  0  0  0  0  0  0  0  0
    3.5556    1.6651    0.9249 C   0  0  0  0  0  0  0  0  0  0  0  0
    1.5778    2.8213   -0.2558 C   0  0  0  0  0  0  0  0  0  0  0  0
   -0.6020    1.7412   -0.0161 C   0  0  0  0  0  0  0  0  0  0  0  0
    0.0178    0.6278    0.5589 C   0  0  0  0  0  0  0  0  0  0  0  0
    4.2787   -0.4086   -0.2314 C   0  0  0  0  0  0  0  0  0  0  0  0
   -1.9712    1.6888   -0.2818 C   0  0  0  0  0  0  0  0  0  0  0  0
   -0.7641   -0.4921    0.8179 C   0  0  0  0  0  0  0  0  0  0  0  0
    4.9705    1.7986   -1.1314 C   0  0  0  0  0  0  0  0  0  0  0  0
   -2.6580    0.5213    0.0130 C   0  0  0  0  0  0  0  0  0  0  0  0
    4.5838   -1.0153   -1.4512 C   0  0  0  0  0  0  0  0  0  0  0  0
    3.9923   -1.1976    0.8842 C   0  0  0  0  0  0  0  0  0  0  0  0
    4.6024   -2.4062   -1.5549 C   0  0  0  0  0  0  0  0  0  0  0  0
    4.0110   -2.5885    0.7805 C   0  0  0  0  0  0  0  0  0  0  0  0
    4.3162   -3.1928   -0.4391 C   0  0  0  0  0  0  0  0  0  0  0  0
   -4.9280   -0.5512   -0.0700 C   0  0  0  0  0  0  0  0  0  0  0  0
   -7.2179   -1.1247   -0.3485 C   0  0  0  0  0  0  0  0  0  0  0  0
   -8.5129   -0.5270   -0.8557 C   0  0  0  0  0  0  0  0  0  0  0  0
    3.7082    1.2353    1.9187 H   0  0  0  0  0  0  0  0  0  0  0  0
    3.8778    2.7089    1.0207 H   0  0  0  0  0  0  0  0  0  0  0  0
    1.9716    3.7543    0.1588 H   0  0  0  0  0  0  0  0  0  0  0  0
    1.9565    2.7167   -1.2782 H   0  0  0  0  0  0  0  0  0  0  0  0
   -0.3184    3.6731   -0.7208 H   0  0  0  0  0  0  0  0  0  0  0  0
   -2.4783    2.5464   -0.7157 H   0  0  0  0  0  0  0  0  0  0  0  0
    4.4260    1.7995   -2.0816 H   0  0  0  0  0  0  0  0  0  0  0  0
    5.9887    1.4254   -1.2884 H   0  0  0  0  0  0  0  0  0  0  0  0
    5.0629    2.8426   -0.8122 H   0  0  0  0  0  0  0  0  0  0  0  0
    4.8004   -0.4432   -2.3482 H   0  0  0  0  0  0  0  0  0  0  0  0
    3.7654   -0.7861    1.8612 H   0  0  0  0  0  0  0  0  0  0  0  0
   -4.4210    1.3351   -0.6767 H   0  0  0  0  0  0  0  0  0  0  0  0
    0.8472   -1.7688    1.2277 H   0  0  0  0  0  0  0  0  0  0  0  0
   -0.7227   -2.4329    1.5757 H   0  0  0  0  0  0  0  0  0  0  0  0
    4.8370   -2.8774   -2.5049 H   0  0  0  0  0  0  0  0  0  0  0  0
    3.7909   -3.2017    1.6496 H   0  0  0  0  0  0  0  0  0  0  0  0
    4.3306   -4.2758   -0.5199 H   0  0  0  0  0  0  0  0  0  0  0  0
   -6.9691   -2.0182   -0.9319 H   0  0  0  0  0  0  0  0  0  0  0  0
   -7.3242   -1.3966    0.7076 H   0  0  0  0  0  0  0  0  0  0  0  0
   -9.3360   -1.2411   -0.7631 H   0  0  0  0  0  0  0  0  0  0  0  0
   -8.7654    0.3784   -0.2939 H   0  0  0  0  0  0  0  0  0  0  0  0
   -8.4162   -0.2327   -1.9059 H   0  0  0  0  0  0  0  0  0  0  0  0
  1 24  1  0  0  0  0
  1 25  1  0  0  0  0
  2 24  2  0  0  0  0
  3 10  1  0  0  0  0
  3 14  1  0  0  0  0
  3 17  1  0  0  0  0
  4 11  1  0  0  0  0
  4 12  1  0  0  0  0
  4 31  1  0  0  0  0
  5  9  2  0  0  0  0
  5 13  1  0  0  0  0
  6 16  1  0  0  0  0
  6 18  2  0  0  0  0
  7 18  1  0  0  0  0
  7 24  1  0  0  0  0
  7 38  1  0  0  0  0
  8 16  1  0  0  0  0
  8 39  1  0  0  0  0
  8 40  1  0  0  0  0
  9 10  1  0  0  0  0
  9 11  1  0  0  0  0
 10 27  1  0  0  0  0
 10 28  1  0  0  0  0
 11 29  1  0  0  0  0
 11 30  1  0  0  0  0
 12 13  1  0  0  0  0
 12 15  2  0  0  0  0
 13 16  2  0  0  0  0
 14 19  2  0  0  0  0
 14 20  1  0  0  0  0
 15 18  1  0  0  0  0
 15 32  1  0  0  0  0
 17 33  1  0  0  0  0
 17 34  1  0  0  0  0
 17 35  1  0  0  0  0
 19 21  1  0  0  0  0
 19 36  1  0  0  0  0
 20 22  2  0  0  0  0
 20 37  1  0  0  0  0
 21 23  2  0  0  0  0
 21 41  1  0  0  0  0
 22 23  1  0  0  0  0
 22 42  1  0  0  0  0
 23 43  1  0  0  0  0
 25 26  1  0  0  0  0
 25 44  1  0  0  0  0
 25 45  1  0  0  0  0
 26 46  1  0  0  0  0
 26 47  1  0  0  0  0
 26 48  1  0  0  0  0
M  END
> <PUBCHEM_COMPOUND_CID>
133466

> <PUBCHEM_CONFORMER_RMSD>
0.8

> <PUBCHEM_CONFORMER_DIVERSEORDER>
1
78
93
126
72
111
32
98
84
58
66
40
27
97
24
124
21
102
67
127
123
88
114
71
103
13
117
94
115
100
133
25
43
128
134
73
135
57
46
121
76
81
29
110
39
118
131
122
62
22
51
55
45
104
89
4
91
95
107
112
90
77
113
132
130
20
2
54
36
47
106
109
105
85
35
87
48
31
56
12
59
120
108
33
101
68
65
79
38
52
61
6
19
9
86
70
116
129
83
15
41
37
50
92
8
80
119
26
75
44
16
69
3
23
53
30
64
63
99
49
60
125
18
11
82
74
34
96
7
14
42
17
5
28
10

> <PUBCHEM_MMFF94_PARTIAL_CHARGES>
35
1 -0.43
10 0.43
11 0.43
12 0.1
13 0.18
14 0.1
15 -0.15
16 0.41
17 0.37
18 0.43
19 -0.15
2 -0.57
20 -0.15
21 -0.15
22 -0.15
23 -0.15
24 0.78
25 0.28
3 -0.84
31 0.4
32 0.15
36 0.15
37 0.15
38 0.37
39 0.4
4 -0.87
40 0.4
41 0.15
42 0.15
43 0.15
5 -0.63
6 -0.62
7 -0.55
8 -0.9
9 0.33

> <PUBCHEM_EFFECTIVE_ROTOR_COUNT>
7.4

> <PUBCHEM_PHARMACOPHORE_FEATURES>
11
1 2 acceptor
1 3 cation
1 4 cation
1 4 donor
1 5 acceptor
1 7 donor
1 8 cation
1 8 donor
6 14 19 20 21 22 23 rings
6 4 5 9 11 12 13 rings
6 6 12 13 15 16 18 rings

> <PUBCHEM_HEAVY_ATOM_COUNT>
26

> <PUBCHEM_ATOM_DEF_STEREO_COUNT>
0

> <PUBCHEM_ATOM_UDEF_STEREO_COUNT>
0

> <PUBCHEM_BOND_DEF_STEREO_COUNT>
0

> <PUBCHEM_BOND_UDEF_STEREO_COUNT>
0

> <PUBCHEM_ISOTOPIC_ATOM_COUNT>
0

> <PUBCHEM_COMPONENT_COUNT>
1

> <PUBCHEM_CACTVS_TAUTO_COUNT>
54

> <PUBCHEM_CONFORMER_ID>
0002095A00000001

> <PUBCHEM_MMFF94_ENERGY>
95.9492

> <PUBCHEM_FEATURE_SELFOVERLAP>
55.853

> <PUBCHEM_SHAPE_FINGERPRINT>
10 15 11959723902662021607
10693767 8 18412535505796807047
11408170 132 17678160635033870741
11796584 16 16916507085383570503
12422481 6 17418096473297994429
125118 31 8862673417160055079
13383661 66 16196796212186649934
13533116 47 18059856185755755841
1361 2 18413389847426578318
13617811 41 17022902350585161247
13782708 43 17632850937415836327
13835254 42 18202281385837663761
13965767 371 10735009679193576914
14251740 57 18059579044891819614
14347332 77 18341891849415393797
14429380 56 9151177507260974739
14790565 3 17257654413354812464
14931854 50 18115601340086669486
15003188 105 18187641350496897506
15183329 4 18342460344318956075
155225 6 9510584828107944354
15664445 248 17603874450748285628
17492 89 18124033434535550182
20567600 234 9799688203991264959
20645477 70 18412829075643321148
20775438 99 18268696359469431198
21279426 13 18263073345593661413
21285901 2 18186235126321480324
21521239 73 18412258454905085715
21641784 216 16298379124781424901
21682296 61 18342745079102309663
221357 26 18335136479769888901
2215653 11 18408886261063222703
23522609 53 18126879090666234161
23559900 14 18264208182910832456
23569914 152 17475482029941185639
23569943 247 18267588996952597019
3004659 81 18114180818196842330
345986 75 17489590026318558456
34797466 226 17313103081485813077
46194498 28 17821728381223434188
463206 1 18271241737587800462
465052 167 18131634469596534934
474 4 8502370036247416404
5372103 7 16299532641638983676
57359948 33 17894627063138879884
59755656 215 18113893867258271947
7808743 9 9365045756095446570
960060 61 18334304158331689518
9709674 26 18335991878884573426

> <PUBCHEM_SHAPE_MULTIPOLES>
493.44
16.83
3.19
1.14
35.91
0.15
-0.11
10.13
-5.99
-4.71
-0.33
-1.12
0.36
0.34

> <PUBCHEM_SHAPE_SELFOVERLAP>
1052.014

> <PUBCHEM_SHAPE_VOLUME>
272.3

> <PUBCHEM_COORDINATE_TYPE>
2
5
10

$$$$
