133556242
  -OEChem-03292013293D

 66 71  0     1  0  0  0  0  0999 V2000
    2.1733    0.0656   -1.5670 O   0  0  0  0  0  0  0  0  0  0  0  0
    2.7774    0.2389    0.7063 O   0  0  0  0  0  0  0  0  0  0  0  0
    4.8954    0.9090   -0.0066 O   0  0  0  0  0  0  0  0  0  0  0  0
   -0.9302   -2.5385   -2.2873 O   0  0  0  0  0  0  0  0  0  0  0  0
    3.9208   -2.0857    1.8461 O   0  0  0  0  0  0  0  0  0  0  0  0
    6.7336   -1.6637    2.6145 O   0  0  0  0  0  0  0  0  0  0  0  0
    8.2298   -0.5485    0.4065 O   0  0  0  0  0  0  0  0  0  0  0  0
    6.2217    2.2940   -1.9888 O   0  0  0  0  0  0  0  0  0  0  0  0
   -2.3693   -1.5168   -0.7791 N   0  0  0  0  0  0  0  0  0  0  0  0
   -4.5659    0.6435    1.3657 N   0  0  0  0  0  0  0  0  0  0  0  0
   -0.2423    0.2467    0.0855 C   0  0  2  0  0  0  0  0  0  0  0  0
   -2.5701   -0.5716    0.3568 C   0  0  1  0  0  0  0  0  0  0  0  0
   -1.7049    0.6762    0.1852 C   0  0  0  0  0  0  0  0  0  0  0  0
    0.7551    1.4256   -0.0210 C   0  0  1  0  0  0  0  0  0  0  0  0
   -0.0531   -0.7265   -1.0384 C   0  0  0  0  0  0  0  0  0  0  0  0
   -4.0229   -0.2208    0.4552 C   0  0  0  0  0  0  0  0  0  0  0  0
   -3.4677   -2.4602   -1.0855 C   0  0  0  0  0  0  0  0  0  0  0  0
    2.1560    0.8983   -0.3988 C   0  0  2  0  0  0  0  0  0  0  0  0
   -5.0488   -0.7311   -0.3124 C   0  0  0  0  0  0  0  0  0  0  0  0
   -1.1403   -1.6806   -1.4282 C   0  0  0  0  0  0  0  0  0  0  0  0
   -4.7870   -1.7305   -1.3792 C   0  0  0  0  0  0  0  0  0  0  0  0
    1.0820   -0.7404   -1.7544 C   0  0  0  0  0  0  0  0  0  0  0  0
   -6.2606   -0.1321    0.1260 C   0  0  0  0  0  0  0  0  0  0  0  0
    0.3327    2.4963   -0.9890 C   0  0  0  0  0  0  0  0  0  0  0  0
    4.0909   -0.2063    0.3694 C   0  0  1  0  0  0  0  0  0  0  0  0
   -5.9291    0.7267    1.1789 C   0  0  0  0  0  0  0  0  0  0  0  0
    4.6806   -0.9036    1.5955 C   0  0  2  0  0  0  0  0  0  0  0  0
    6.1451   -1.2797    1.3707 C   0  0  1  0  0  0  0  0  0  0  0  0
    6.9410   -0.0982    0.8158 C   0  0  2  0  0  0  0  0  0  0  0  0
    6.2204    0.5276   -0.3807 C   0  0  2  0  0  0  0  0  0  0  0  0
   -7.6113   -0.2360   -0.2632 C   0  0  0  0  0  0  0  0  0  0  0  0
   -6.8856    1.4880    1.8602 C   0  0  0  0  0  0  0  0  0  0  0  0
    0.0924    3.7657   -0.6431 C   0  0  0  0  0  0  0  0  0  0  0  0
    6.9356    1.7789   -0.8799 C   0  0  0  0  0  0  0  0  0  0  0  0
   -8.5773    0.5208    0.4096 C   0  0  0  0  0  0  0  0  0  0  0  0
   -8.2177    1.3691    1.4545 C   0  0  0  0  0  0  0  0  0  0  0  0
    0.0069   -0.2972    1.0095 H   0  0  0  0  0  0  0  0  0  0  0  0
   -2.2771   -1.1169    1.2635 H   0  0  0  0  0  0  0  0  0  0  0  0
   -2.0210    1.2226   -0.7136 H   0  0  0  0  0  0  0  0  0  0  0  0
   -1.8323    1.3550    1.0376 H   0  0  0  0  0  0  0  0  0  0  0  0
    0.8244    1.8718    0.9818 H   0  0  0  0  0  0  0  0  0  0  0  0
   -3.5741   -3.1129   -0.2096 H   0  0  0  0  0  0  0  0  0  0  0  0
   -3.2081   -3.0986   -1.9360 H   0  0  0  0  0  0  0  0  0  0  0  0
    2.7720    1.7739   -0.6419 H   0  0  0  0  0  0  0  0  0  0  0  0
   -5.6044   -2.4561   -1.4475 H   0  0  0  0  0  0  0  0  0  0  0  0
   -4.7156   -1.2108   -2.3422 H   0  0  0  0  0  0  0  0  0  0  0  0
    1.2666   -1.3892   -2.6006 H   0  0  0  0  0  0  0  0  0  0  0  0
   -4.0479    1.1537    2.0679 H   0  0  0  0  0  0  0  0  0  0  0  0
    0.2162    2.2213   -2.0345 H   0  0  0  0  0  0  0  0  0  0  0  0
    4.0286   -0.9221   -0.4605 H   0  0  0  0  0  0  0  0  0  0  0  0
    4.5789   -0.2683    2.4834 H   0  0  0  0  0  0  0  0  0  0  0  0
    6.2291   -2.1516    0.7114 H   0  0  0  0  0  0  0  0  0  0  0  0
    7.0909    0.6486    1.6050 H   0  0  0  0  0  0  0  0  0  0  0  0
    6.1556   -0.1821   -1.2168 H   0  0  0  0  0  0  0  0  0  0  0  0
   -7.9071   -0.8936   -1.0757 H   0  0  0  0  0  0  0  0  0  0  0  0
   -6.6075    2.1478    2.6753 H   0  0  0  0  0  0  0  0  0  0  0  0
    6.9539    2.5531   -0.1056 H   0  0  0  0  0  0  0  0  0  0  0  0
    7.9598    1.5577   -1.1951 H   0  0  0  0  0  0  0  0  0  0  0  0
   -0.2097    4.4906   -1.3910 H   0  0  0  0  0  0  0  0  0  0  0  0
    0.1904    4.1036    0.3825 H   0  0  0  0  0  0  0  0  0  0  0  0
   -9.6199    0.4444    0.1124 H   0  0  0  0  0  0  0  0  0  0  0  0
    3.9978   -2.6645    1.0685 H   0  0  0  0  0  0  0  0  0  0  0  0
   -8.9844    1.9476    1.9638 H   0  0  0  0  0  0  0  0  0  0  0  0
    6.6589   -0.9137    3.2288 H   0  0  0  0  0  0  0  0  0  0  0  0
    8.1083   -1.2019   -0.3034 H   0  0  0  0  0  0  0  0  0  0  0  0
    6.6912    3.0916   -2.2872 H   0  0  0  0  0  0  0  0  0  0  0  0
  1 18  1  0  0  0  0
  1 22  1  0  0  0  0
  2 18  1  0  0  0  0
  2 25  1  0  0  0  0
  3 25  1  0  0  0  0
  3 30  1  0  0  0  0
  4 20  2  0  0  0  0
  5 27  1  0  0  0  0
  5 62  1  0  0  0  0
  6 28  1  0  0  0  0
  6 64  1  0  0  0  0
  7 29  1  0  0  0  0
  7 65  1  0  0  0  0
  8 34  1  0  0  0  0
  8 66  1  0  0  0  0
  9 12  1  0  0  0  0
  9 17  1  0  0  0  0
  9 20  1  0  0  0  0
 10 16  1  0  0  0  0
 10 26  1  0  0  0  0
 10 48  1  0  0  0  0
 11 13  1  0  0  0  0
 11 14  1  0  0  0  0
 11 15  1  0  0  0  0
 11 37  1  0  0  0  0
 12 13  1  0  0  0  0
 12 16  1  0  0  0  0
 12 38  1  0  0  0  0
 13 39  1  0  0  0  0
 13 40  1  0  0  0  0
 14 18  1  0  0  0  0
 14 24  1  0  0  0  0
 14 41  1  0  0  0  0
 15 20  1  0  0  0  0
 15 22  2  0  0  0  0
 16 19  2  0  0  0  0
 17 21  1  0  0  0  0
 17 42  1  0  0  0  0
 17 43  1  0  0  0  0
 18 44  1  0  0  0  0
 19 21  1  0  0  0  0
 19 23  1  0  0  0  0
 21 45  1  0  0  0  0
 21 46  1  0  0  0  0
 22 47  1  0  0  0  0
 23 26  1  0  0  0  0
 23 31  2  0  0  0  0
 24 33  2  0  0  0  0
 24 49  1  0  0  0  0
 25 27  1  0  0  0  0
 25 50  1  0  0  0  0
 26 32  2  0  0  0  0
 27 28  1  0  0  0  0
 27 51  1  0  0  0  0
 28 29  1  0  0  0  0
 28 52  1  0  0  0  0
 29 30  1  0  0  0  0
 29 53  1  0  0  0  0
 30 34  1  0  0  0  0
 30 54  1  0  0  0  0
 31 35  1  0  0  0  0
 31 55  1  0  0  0  0
 32 36  1  0  0  0  0
 32 56  1  0  0  0  0
 33 59  1  0  0  0  0
 33 60  1  0  0  0  0
 34 57  1  0  0  0  0
 34 58  1  0  0  0  0
 35 36  2  0  0  0  0
 35 61  1  0  0  0  0
 36 63  1  0  0  0  0
M  END
> <PUBCHEM_COMPOUND_CID>
133556242

> <PUBCHEM_CONFORMER_RMSD>
1

> <PUBCHEM_CONFORMER_DIVERSEORDER>
1
20
30
32
11
23
28
29
22
25
8
13
24
16
6
14
5
7
19
17
21
9
15
26
4
31
34
33
35
18
10
2
27
3
12

> <PUBCHEM_MMFF94_PARTIAL_CHARGES>
47
1 -0.36
10 0.03
11 0.14
12 0.48
14 0.14
15 -0.12
16 -0.33
17 0.3
18 0.56
19 -0.18
2 -0.56
20 0.62
21 0.18
22 -0.07
24 -0.29
25 0.56
26 -0.15
27 0.28
28 0.28
29 0.28
3 -0.56
30 0.28
31 -0.15
32 -0.15
33 -0.3
34 0.28
35 -0.15
36 -0.15
4 -0.57
47 0.15
48 0.27
49 0.15
5 -0.68
55 0.15
56 0.15
59 0.15
6 -0.68
60 0.15
61 0.15
62 0.4
63 0.15
64 0.4
65 0.4
66 0.4
7 -0.68
8 -0.68
9 -0.66

> <PUBCHEM_EFFECTIVE_ROTOR_COUNT>
6.4

> <PUBCHEM_PHARMACOPHORE_FEATURES>
21
1 1 acceptor
1 10 cation
1 10 donor
1 2 acceptor
1 3 acceptor
1 33 hydrophobe
1 4 acceptor
1 5 acceptor
1 5 donor
1 6 acceptor
1 6 donor
1 7 acceptor
1 7 donor
1 8 acceptor
1 8 donor
5 10 16 19 23 26 rings
6 1 11 14 15 18 22 rings
6 23 26 31 32 35 36 rings
6 3 25 27 28 29 30 rings
6 9 11 12 13 15 20 rings
6 9 12 16 17 19 21 rings

> <PUBCHEM_HEAVY_ATOM_COUNT>
36

> <PUBCHEM_ATOM_DEF_STEREO_COUNT>
8

> <PUBCHEM_ATOM_UDEF_STEREO_COUNT>
1

> <PUBCHEM_BOND_DEF_STEREO_COUNT>
0

> <PUBCHEM_BOND_UDEF_STEREO_COUNT>
0

> <PUBCHEM_ISOTOPIC_ATOM_COUNT>
0

> <PUBCHEM_COMPONENT_COUNT>
1

> <PUBCHEM_CACTVS_TAUTO_COUNT>
124

> <PUBCHEM_CONFORMER_ID>
07F5E81200000001

> <PUBCHEM_MMFF94_ENERGY>
89.6742

> <PUBCHEM_FEATURE_SELFOVERLAP>
106.905

> <PUBCHEM_SHAPE_FINGERPRINT>
10 15 18341900697300841635
10190108 129 18259984847659098082
10299344 5 18409165519720848794
10674148 151 18202562891965107130
10906281 52 18338808900167666510
10939801 23 18410298038062232588
11297750 10 17625279514830311462
11456790 92 18187376403023931529
11991303 11 12679166233035841933
12107183 9 18412823612170588063
12144603 126 18337114553234631716
12236239 1 18410572933443698014
12838862 33 17917140612554717681
13540713 5 18124875917902730717
13560911 43 18412270545312332401
13673619 4 13912326789587151903
13685833 64 16226047777579653563
13811026 1 16128655267032638211
14251764 18 18411701002303652745
14394314 77 18337388357183467132
14840074 17 18409727378847671822
150020 25 14836122157050605321
15064986 266 16733260132820844158
15131766 46 17826802735060964164
15183329 4 18411975884368485775
15276724 80 18261108595329195540
15289351 153 16271367392377829426
15301273 46 17489591151737113356
15419008 47 15769774637292929409
15461852 350 16917066698769927405
1577012 14 18412544348669654758
15849732 13 18342740732294596053
18335252 114 12679177193976237634
19301679 30 18189331265123740482
19302320 297 18340501027779444105
20554085 129 17203608168388517190
21033648 29 17060615624707958150
21267235 1 12468643837641003007
21298829 104 17988936535573116777
21781055 127 17345500170513858009
23522609 53 18264503925848048084
24771293 8 17989212504475587457
24893992 56 17632573890919751091
34797466 226 14634874154610432446
4017518 198 17131562708023371030
437795 51 17022620888155898184
437815 12 15357699682589005239
5028188 123 17916869140577620508
513202 73 17968647207969696180
5219985 9 18334290963876404984
58083652 198 17968644003950785564
6058803 2 17980195619393997549
6328613 192 18199473332040121716

> <PUBCHEM_SHAPE_MULTIPOLES>
683.95
24.37
2.55
1.87
1.1
0.86
-0.3
3.76
-10.55
-0.01
1.08
-1.74
-0.49
-4.71

> <PUBCHEM_SHAPE_SELFOVERLAP>
1499.483

> <PUBCHEM_SHAPE_VOLUME>
363.3

> <PUBCHEM_COORDINATE_TYPE>
2
5
10

$$$$
