133540
  -OEChem-03292013323D

 35 37  0     1  0  0  0  0  0999 V2000
   -0.6045    1.8423    0.2194 S   0  0  0  0  0  0  0  0  0  0  0  0
    1.0336   -0.2681    0.2715 O   0  0  0  0  0  0  0  0  0  0  0  0
    4.5573    1.8409    0.4115 O   0  0  0  0  0  0  0  0  0  0  0  0
    4.5745   -0.9687   -0.3074 O   0  0  0  0  0  0  0  0  0  0  0  0
    2.1220    3.1279   -0.5874 O   0  0  0  0  0  0  0  0  0  0  0  0
    1.5298   -2.4119    1.6334 O   0  0  0  0  0  0  0  0  0  0  0  0
    2.5567   -3.3600   -0.1943 N   0  0  0  0  0  0  0  0  0  0  0  0
   -1.5355   -0.0562   -1.4666 N   0  0  0  0  0  0  0  0  0  0  0  0
   -3.6214    1.0510    1.3526 N   0  0  0  0  0  0  0  0  0  0  0  0
   -5.0709   -0.4336    0.5380 N   0  0  0  0  0  0  0  0  0  0  0  0
   -3.7002   -1.1727   -1.3288 N   0  0  0  0  0  0  0  0  0  0  0  0
    3.4690    1.1690   -0.2255 C   0  0  1  0  0  0  0  0  0  0  0  0
    3.4619   -0.2801    0.2612 C   0  0  1  0  0  0  0  0  0  0  0  0
    2.1570    1.8852    0.1133 C   0  0  2  0  0  0  0  0  0  0  0  0
    2.1816   -0.9855   -0.1649 C   0  0  1  0  0  0  0  0  0  0  0  0
    0.9514    1.0347   -0.3048 C   0  0  2  0  0  0  0  0  0  0  0  0
    2.0433   -2.3051    0.5224 C   0  0  0  0  0  0  0  0  0  0  0  0
   -1.8152    0.6709   -0.3766 C   0  0  0  0  0  0  0  0  0  0  0  0
   -3.0160    0.5044    0.2571 C   0  0  0  0  0  0  0  0  0  0  0  0
   -3.9356   -0.4141   -0.2313 C   0  0  0  0  0  0  0  0  0  0  0  0
   -4.8497    0.4577    1.4805 C   0  0  0  0  0  0  0  0  0  0  0  0
   -2.4889   -0.9279   -1.8734 C   0  0  0  0  0  0  0  0  0  0  0  0
    3.6619    1.2226   -1.3043 H   0  0  0  0  0  0  0  0  0  0  0  0
    3.5866   -0.3073    1.3507 H   0  0  0  0  0  0  0  0  0  0  0  0
    2.1318    2.1010    1.1894 H   0  0  0  0  0  0  0  0  0  0  0  0
    2.1321   -1.1315   -1.2516 H   0  0  0  0  0  0  0  0  0  0  0  0
    0.9195    0.9528   -1.3987 H   0  0  0  0  0  0  0  0  0  0  0  0
    5.3708    1.3599    0.1819 H   0  0  0  0  0  0  0  0  0  0  0  0
    4.4780   -0.9508   -1.2749 H   0  0  0  0  0  0  0  0  0  0  0  0
    2.9096    3.6332   -0.3224 H   0  0  0  0  0  0  0  0  0  0  0  0
    2.5240   -4.3050    0.1735 H   0  0  0  0  0  0  0  0  0  0  0  0
    2.9886   -3.2415   -1.1051 H   0  0  0  0  0  0  0  0  0  0  0  0
   -3.2365    1.7625    1.9596 H   0  0  0  0  0  0  0  0  0  0  0  0
   -5.5295    0.7201    2.2785 H   0  0  0  0  0  0  0  0  0  0  0  0
   -2.2449   -1.5084   -2.7567 H   0  0  0  0  0  0  0  0  0  0  0  0
  1 16  1  0  0  0  0
  1 18  1  0  0  0  0
  2 15  1  0  0  0  0
  2 16  1  0  0  0  0
  3 12  1  0  0  0  0
  3 28  1  0  0  0  0
  4 13  1  0  0  0  0
  4 29  1  0  0  0  0
  5 14  1  0  0  0  0
  5 30  1  0  0  0  0
  6 17  2  0  0  0  0
  7 17  1  0  0  0  0
  7 31  1  0  0  0  0
  7 32  1  0  0  0  0
  8 18  2  0  0  0  0
  8 22  1  0  0  0  0
  9 19  1  0  0  0  0
  9 21  1  0  0  0  0
  9 33  1  0  0  0  0
 10 20  1  0  0  0  0
 10 21  2  0  0  0  0
 11 20  1  0  0  0  0
 11 22  2  0  0  0  0
 12 13  1  0  0  0  0
 12 14  1  0  0  0  0
 12 23  1  0  0  0  0
 13 15  1  0  0  0  0
 13 24  1  0  0  0  0
 14 16  1  0  0  0  0
 14 25  1  0  0  0  0
 15 17  1  0  0  0  0
 15 26  1  0  0  0  0
 16 27  1  0  0  0  0
 18 19  1  0  0  0  0
 19 20  2  0  0  0  0
 21 34  1  0  0  0  0
 22 35  1  0  0  0  0
M  END
> <PUBCHEM_COMPOUND_CID>
133540

> <PUBCHEM_CONFORMER_RMSD>
0.6

> <PUBCHEM_CONFORMER_DIVERSEORDER>
1
65
84
80
47
44
73
82
79
53
77
78
67
11
88
92
63
37
24
60
25
75
2
93
76
5
61
18
90
21
87
28
17
95
89
40
86
16
56
9
70
42
101
91
50
55
54
52
14
102
46
6
19
81
32
83
72
69
66
13
22
30
26
98
94
96
27
57
74
7
8
35
39
64
48
71
15
38
43
3
10
62
68
97
31
33
99
36
100
59
34
85
41
29
4
58
23
12
20
45
51
49

> <PUBCHEM_MMFF94_PARTIAL_CHARGES>
30
1 -0.33
10 -0.57
11 -0.57
12 0.28
13 0.28
14 0.28
15 0.34
16 0.51
17 0.57
18 0.41
19 -0.15
2 -0.56
20 0.48
21 0.04
22 0.47
28 0.4
29 0.4
3 -0.68
30 0.4
31 0.37
32 0.37
33 0.27
34 0.15
35 0.15
4 -0.68
5 -0.68
6 -0.57
7 -0.8
8 -0.62
9 0.03

> <PUBCHEM_EFFECTIVE_ROTOR_COUNT>
4.2

> <PUBCHEM_PHARMACOPHORE_FEATURES>
16
1 2 acceptor
1 3 acceptor
1 3 donor
1 4 acceptor
1 4 donor
1 5 acceptor
1 5 donor
1 6 acceptor
1 7 donor
1 8 acceptor
1 9 donor
3 8 11 22 cation
3 9 10 21 cation
5 9 10 19 20 21 rings
6 2 12 13 14 15 16 rings
6 8 11 18 19 20 22 rings

> <PUBCHEM_HEAVY_ATOM_COUNT>
22

> <PUBCHEM_ATOM_DEF_STEREO_COUNT>
5

> <PUBCHEM_ATOM_UDEF_STEREO_COUNT>
0

> <PUBCHEM_BOND_DEF_STEREO_COUNT>
0

> <PUBCHEM_BOND_UDEF_STEREO_COUNT>
0

> <PUBCHEM_ISOTOPIC_ATOM_COUNT>
0

> <PUBCHEM_COMPONENT_COUNT>
1

> <PUBCHEM_CACTVS_TAUTO_COUNT>
8

> <PUBCHEM_CONFORMER_ID>
000209A400000001

> <PUBCHEM_MMFF94_ENERGY>
47.4999

> <PUBCHEM_FEATURE_SELFOVERLAP>
81.352

> <PUBCHEM_SHAPE_FINGERPRINT>
10090160 65 18261671575431393544
10366900 7 17967541167996872507
12107183 9 17766289674017183785
12236239 1 18131353025106581553
12553582 1 18338227172463966646
12596602 18 18059866090493620715
12892183 10 18338250305790929865
13140716 1 18191584357748656744
13533116 47 18412826898332441595
13583140 156 18408889564320724489
14341114 328 18271807951225333837
14386348 63 17095527288270038027
15375462 189 18343299253936184065
1813 80 18335996272072031116
19422 9 18202001079254625869
20291156 8 18268426832805926798
20511986 3 18131057247809965801
20645477 70 18263346049962083367
21065198 48 18202004322250157897
21421861 104 18339084778680378896
21427221 339 18058745580543900361
2255824 54 18337391642653931780
23557571 272 15936684883340402199
23566358 27 18340775849228801230
23598291 2 18201435913013768429
33824 294 18334014995099820482
3633792 109 18339627981233789151
474 4 18337670944160932128
5104073 3 18130785693706296250
633830 44 18270125754575880268
7097593 13 18272088245365606575
9981440 41 16475975863061953704

> <PUBCHEM_SHAPE_MULTIPOLES>
402.35
9.71
2.79
1.27
4.8
0.72
-0.1
0.23
1.69
-3.58
0.18
1.36
0.37
-1.18

> <PUBCHEM_SHAPE_SELFOVERLAP>
857.475

> <PUBCHEM_SHAPE_VOLUME>
224.3

> <PUBCHEM_COORDINATE_TYPE>
2
5
10

$$$$
