133562771
  -OEChem-03292013293D

 58 63  0     1  0  0  0  0  0999 V2000
   -3.1598    0.6920   -1.8627 O   0  0  0  0  0  0  0  0  0  0  0  0
   -5.8175   -0.1393   -0.1043 O   0  0  0  0  0  0  0  0  0  0  0  0
    5.0147   -0.4625    0.4690 O   0  0  0  0  0  0  0  0  0  0  0  0
    3.7210    1.7951   -0.9986 O   0  0  0  0  0  0  0  0  0  0  0  0
   -0.4625   -4.0647    0.1315 O   0  0  0  0  0  0  0  0  0  0  0  0
    0.7023    1.8159   -0.4204 O   0  0  0  0  0  0  0  0  0  0  0  0
    1.9091   -3.2991    0.5527 O   0  0  0  0  0  0  0  0  0  0  0  0
    5.6071    2.6568   -1.9767 O   0  0  0  0  0  0  0  0  0  0  0  0
   -4.4619    1.7763    1.8178 N   0  0  0  0  0  0  0  0  0  0  0  0
   -3.6477   -0.4939   -1.1736 C   0  0  2  0  0  0  0  0  0  0  0  0
   -2.0464    1.1697   -1.0616 C   0  0  1  0  0  0  0  0  0  0  0  0
   -4.4070   -0.0172    0.0988 C   0  0  1  0  0  0  0  0  0  0  0  0
   -4.0919    1.4614    0.4370 C   0  0  2  0  0  0  0  0  0  0  0  0
   -2.6212    1.8531    0.1867 C   0  0  0  0  0  0  0  0  0  0  0  0
   -2.3388   -1.1244   -0.7877 C   0  0  0  0  0  0  0  0  0  0  0  0
   -1.3680   -0.1201   -0.7142 C   0  0  0  0  0  0  0  0  0  0  0  0
   -0.0615   -0.4122   -0.3343 C   0  0  0  0  0  0  0  0  0  0  0  0
   -4.4598   -1.3250   -2.1591 C   0  0  0  0  0  0  0  0  0  0  0  0
   -2.0364   -2.4429   -0.5035 C   0  0  0  0  0  0  0  0  0  0  0  0
    0.2566   -1.7452   -0.0553 C   0  0  0  0  0  0  0  0  0  0  0  0
    2.3408    0.2280    0.1884 C   0  0  0  0  0  0  0  0  0  0  0  0
    0.9673    0.6384   -0.2098 C   0  0  0  0  0  0  0  0  0  0  0  0
    3.3717    1.3139    0.3102 C   0  0  1  0  0  0  0  0  0  0  0  0
   -0.7260   -2.7534   -0.1414 C   0  0  0  0  0  0  0  0  0  0  0  0
    2.6464   -1.0495    0.4585 C   0  0  0  0  0  0  0  0  0  0  0  0
    4.6880    0.8571    0.9098 C   0  0  2  0  0  0  0  0  0  0  0  0
    1.6268   -2.1253    0.3379 C   0  0  0  0  0  0  0  0  0  0  0  0
    4.0505   -1.4576    0.8458 C   0  0  2  0  0  0  0  0  0  0  0  0
   -4.2480    3.1959    2.0886 C   0  0  0  0  0  0  0  0  0  0  0  0
   -5.8540    1.4090    2.0659 C   0  0  0  0  0  0  0  0  0  0  0  0
    5.6814    1.8214    0.2972 C   0  0  0  0  0  0  0  0  0  0  0  0
    5.0437    2.1401   -1.0244 C   0  0  0  0  0  0  0  0  0  0  0  0
    4.1808   -1.7917    2.3320 C   0  0  0  0  0  0  0  0  0  0  0  0
   -1.4334    1.8291   -1.6806 H   0  0  0  0  0  0  0  0  0  0  0  0
   -4.1623   -0.6769    0.9413 H   0  0  0  0  0  0  0  0  0  0  0  0
   -4.7032    2.0850   -0.2351 H   0  0  0  0  0  0  0  0  0  0  0  0
   -1.9851    1.6515    1.0589 H   0  0  0  0  0  0  0  0  0  0  0  0
   -2.5711    2.9361    0.0118 H   0  0  0  0  0  0  0  0  0  0  0  0
   -5.2856   -0.7437   -2.5835 H   0  0  0  0  0  0  0  0  0  0  0  0
   -4.8673   -2.2273   -1.6915 H   0  0  0  0  0  0  0  0  0  0  0  0
   -3.8430   -1.6350   -3.0115 H   0  0  0  0  0  0  0  0  0  0  0  0
   -2.7974   -3.2145   -0.5550 H   0  0  0  0  0  0  0  0  0  0  0  0
    2.9730    2.1629    0.8798 H   0  0  0  0  0  0  0  0  0  0  0  0
   -6.0726    0.4648   -0.8222 H   0  0  0  0  0  0  0  0  0  0  0  0
    4.7098    0.8957    2.0033 H   0  0  0  0  0  0  0  0  0  0  0  0
    4.3314   -2.3485    0.2716 H   0  0  0  0  0  0  0  0  0  0  0  0
   -4.6061    3.4505    3.0937 H   0  0  0  0  0  0  0  0  0  0  0  0
   -4.7741    3.8428    1.3768 H   0  0  0  0  0  0  0  0  0  0  0  0
   -6.1745    1.8015    3.0399 H   0  0  0  0  0  0  0  0  0  0  0  0
   -5.9856    0.3277    2.1697 H   0  0  0  0  0  0  0  0  0  0  0  0
   -6.5476    1.8181    1.3222 H   0  0  0  0  0  0  0  0  0  0  0  0
   -3.1864    3.4624    2.0950 H   0  0  0  0  0  0  0  0  0  0  0  0
    6.6643    1.3692    0.1428 H   0  0  0  0  0  0  0  0  0  0  0  0
    5.7556    2.7477    0.8742 H   0  0  0  0  0  0  0  0  0  0  0  0
    3.8346   -0.9687    2.9664 H   0  0  0  0  0  0  0  0  0  0  0  0
    3.5991   -2.6806    2.5953 H   0  0  0  0  0  0  0  0  0  0  0  0
    5.2292   -1.9750    2.5910 H   0  0  0  0  0  0  0  0  0  0  0  0
    0.4318   -4.1725    0.4866 H   0  0  0  0  0  0  0  0  0  0  0  0
  1 10  1  0  0  0  0
  1 11  1  0  0  0  0
  2 12  1  0  0  0  0
  2 44  1  0  0  0  0
  3 26  1  0  0  0  0
  3 28  1  0  0  0  0
  4 23  1  0  0  0  0
  4 32  1  0  0  0  0
  5 24  1  0  0  0  0
  5 58  1  0  0  0  0
  6 22  2  0  0  0  0
  7 27  2  0  0  0  0
  8 32  2  0  0  0  0
  9 13  1  0  0  0  0
  9 29  1  0  0  0  0
  9 30  1  0  0  0  0
 10 12  1  0  0  0  0
 10 15  1  0  0  0  0
 10 18  1  0  0  0  0
 11 14  1  0  0  0  0
 11 16  1  0  0  0  0
 11 34  1  0  0  0  0
 12 13  1  0  0  0  0
 12 35  1  0  0  0  0
 13 14  1  0  0  0  0
 13 36  1  0  0  0  0
 14 37  1  0  0  0  0
 14 38  1  0  0  0  0
 15 16  1  0  0  0  0
 15 19  2  0  0  0  0
 16 17  2  0  0  0  0
 17 20  1  0  0  0  0
 17 22  1  0  0  0  0
 18 39  1  0  0  0  0
 18 40  1  0  0  0  0
 18 41  1  0  0  0  0
 19 24  1  0  0  0  0
 19 42  1  0  0  0  0
 20 24  2  0  0  0  0
 20 27  1  0  0  0  0
 21 22  1  0  0  0  0
 21 23  1  0  0  0  0
 21 25  2  0  0  0  0
 23 26  1  0  0  0  0
 23 43  1  0  0  0  0
 25 27  1  0  0  0  0
 25 28  1  0  0  0  0
 26 31  1  0  0  0  0
 26 45  1  0  0  0  0
 28 33  1  0  0  0  0
 28 46  1  0  0  0  0
 29 47  1  0  0  0  0
 29 48  1  0  0  0  0
 29 52  1  0  0  0  0
 30 49  1  0  0  0  0
 30 50  1  0  0  0  0
 30 51  1  0  0  0  0
 31 32  1  0  0  0  0
 31 53  1  0  0  0  0
 31 54  1  0  0  0  0
 33 55  1  0  0  0  0
 33 56  1  0  0  0  0
 33 57  1  0  0  0  0
M  END
> <PUBCHEM_COMPOUND_CID>
133562771

> <PUBCHEM_CONFORMER_RMSD>
0.8

> <PUBCHEM_CONFORMER_DIVERSEORDER>
1

> <PUBCHEM_MMFF94_PARTIAL_CHARGES>
33
1 -0.56
10 0.42
11 0.42
12 0.28
13 0.27
15 -0.14
16 -0.14
17 0.09
19 -0.15
2 -0.68
20 0.09
21 -0.12
22 0.47
23 0.42
24 0.08
25 -0.12
26 0.28
27 0.47
28 0.42
29 0.27
3 -0.56
30 0.27
31 0.06
32 0.66
4 -0.43
42 0.15
44 0.4
5 -0.53
58 0.45
6 -0.57
7 -0.57
8 -0.57
9 -0.81

> <PUBCHEM_EFFECTIVE_ROTOR_COUNT>
2.6

> <PUBCHEM_PHARMACOPHORE_FEATURES>
14
1 1 acceptor
1 2 acceptor
1 2 donor
1 3 acceptor
1 5 donor
1 6 acceptor
1 7 acceptor
1 8 acceptor
1 9 cation
5 4 23 26 31 32 rings
6 15 16 17 19 20 24 rings
6 17 20 21 22 25 27 rings
6 3 21 23 25 26 28 rings
8 1 10 11 12 13 14 15 16 rings

> <PUBCHEM_HEAVY_ATOM_COUNT>
33

> <PUBCHEM_ATOM_DEF_STEREO_COUNT>
7

> <PUBCHEM_ATOM_UDEF_STEREO_COUNT>
0

> <PUBCHEM_BOND_DEF_STEREO_COUNT>
0

> <PUBCHEM_BOND_UDEF_STEREO_COUNT>
0

> <PUBCHEM_ISOTOPIC_ATOM_COUNT>
0

> <PUBCHEM_COMPONENT_COUNT>
1

> <PUBCHEM_CACTVS_TAUTO_COUNT>
10

> <PUBCHEM_CONFORMER_ID>
07F6019300000001

> <PUBCHEM_MMFF94_ENERGY>
110.1892

> <PUBCHEM_FEATURE_SELFOVERLAP>
71.304

> <PUBCHEM_SHAPE_FINGERPRINT>
10674148 151 18130239190353944876
10838868 217 16969990264374935265
11135609 187 18263346123250743109
11578080 2 15912508843634186989
12107183 9 17768810862284513139
12390115 104 18341343274163260487
12422481 6 18117556228040795257
12633257 1 18336533924757853002
12788726 201 18129656530030750007
13140716 1 17615691073324896402
13540713 5 18200298932408014455
13583140 156 16805871914677937394
13782708 43 15213857100540676170
14341114 328 18272929410468399221
14394314 77 18341895203685379225
14739800 52 17986370369706845528
14790565 3 18411142432863945616
14840074 17 17968103052762033820
14849402 71 18265059029139098162
14950920 106 17822862952943417673
14955137 171 17762633788695746167
15163728 17 17846226535387723583
15238133 3 17775283820423226432
15297060 5 18202290212664226344
15475509 8 18127704721262213566
16112460 7 18410292501959333338
19377110 9 18411696591124482617
20739085 24 18189629253948978252
20775438 99 15607884001209161431
21033650 10 17560532771337159824
21756936 100 18130791186932621833
23559900 14 18341887486208928950
25147074 1 18336813291085034334
3178227 256 18189341165392675162
34797466 226 16199581527845503848
350125 39 18191022520128805719
3633792 109 18337094676394608877
3680242 22 18263072241802838858
38570 142 18198931169659484028
392239 28 18114178593024501587
397830 11 15719399485300635844
5104073 3 18335409210520395794
6034566 193 18116447010045360796
6058803 2 18199173015374244983
633830 44 18200877275001745071
86090 222 15648472013111607610
9849439 229 16698379123152968193

> <PUBCHEM_SHAPE_MULTIPOLES>
627.19
13.25
3.65
1.74
2.38
1.38
-0.25
-8.81
-2.02
0.41
-0.68
-0.89
-0.68
-4.45

> <PUBCHEM_SHAPE_SELFOVERLAP>
1417.272

> <PUBCHEM_SHAPE_VOLUME>
329.5

> <PUBCHEM_COORDINATE_TYPE>
2
5
10

$$$$
