133562569
  -OEChem-03292013293D

 63 64  0     1  0  0  0  0  0999 V2000
    0.6276   -2.0826   -2.8641 O   0  0  0  0  0  0  0  0  0  0  0  0
   -1.7704   -0.7014    0.1746 O   0  0  0  0  0  0  0  0  0  0  0  0
    4.5178   -1.3256    1.4120 O   0  0  0  0  0  0  0  0  0  0  0  0
   -0.7890   -2.1909   -4.6738 O   0  0  0  0  0  0  0  0  0  0  0  0
   -0.3389    3.7348    0.3651 O   0  0  0  0  0  0  0  0  0  0  0  0
   -3.2262    0.9048    0.9501 O   0  0  0  0  0  0  0  0  0  0  0  0
    6.2550    0.0495    0.7577 O   0  0  0  0  0  0  0  0  0  0  0  0
   -0.5743    5.3483   -1.2714 O   0  0  0  0  0  0  0  0  0  0  0  0
   -6.5669   -1.7088    3.2016 O   0  0  0  0  0  0  0  0  0  0  0  0
   -0.2877   -0.2296   -1.7100 C   0  0  1  0  0  0  0  0  0  0  0  0
   -0.9617    0.3159   -0.4276 C   0  0  2  0  0  0  0  0  0  0  0  0
    0.5458   -1.5075   -1.5488 C   0  0  2  0  0  0  0  0  0  0  0  0
   -0.0224    0.8321    0.6933 C   0  0  0  0  0  0  0  0  0  0  0  0
   -1.1771   -0.6759   -2.8288 C   0  0  0  0  0  0  0  0  0  0  0  0
    1.9226   -1.1552   -1.0764 C   0  0  0  0  0  0  0  0  0  0  0  0
    1.0681    1.8104    0.3053 C   0  0  0  0  0  0  0  0  0  0  0  0
    2.4741   -1.4641    0.1123 C   0  0  0  0  0  0  0  0  0  0  0  0
   -0.4741   -1.7321   -3.5907 C   0  0  0  0  0  0  0  0  0  0  0  0
    3.6121   -0.5829    0.5987 C   0  0  1  0  0  0  0  0  0  0  0  0
    3.0532    0.5937    1.4267 C   0  0  0  0  0  0  0  0  0  0  0  0
    2.3779    1.6695    0.6071 C   0  0  0  0  0  0  0  0  0  0  0  0
    0.6009    3.0417   -0.4299 C   0  0  0  0  0  0  0  0  0  0  0  0
   -2.4051   -0.2772   -3.1700 C   0  0  0  0  0  0  0  0  0  0  0  0
    1.9317   -2.4795    1.0821 C   0  0  0  0  0  0  0  0  0  0  0  0
   -2.8766   -0.2611    0.8340 C   0  0  0  0  0  0  0  0  0  0  0  0
   -3.6092   -1.4297    1.4096 C   0  0  0  0  0  0  0  0  0  0  0  0
    5.8145   -0.8968    1.3963 C   0  0  0  0  0  0  0  0  0  0  0  0
   -2.8217   -2.6542    1.7711 C   0  0  0  0  0  0  0  0  0  0  0  0
   -0.8567    4.8841   -0.1752 C   0  0  0  0  0  0  0  0  0  0  0  0
   -4.9425   -1.2869    1.5276 C   0  0  0  0  0  0  0  0  0  0  0  0
    6.6461   -1.7659    2.2904 C   0  0  0  0  0  0  0  0  0  0  0  0
   -5.9135   -2.2856    2.0767 C   0  0  0  0  0  0  0  0  0  0  0  0
   -1.8336    5.5087    0.7743 C   0  0  0  0  0  0  0  0  0  0  0  0
    0.3346    0.5680   -2.1397 H   0  0  0  0  0  0  0  0  0  0  0  0
   -1.5962    1.1552   -0.7439 H   0  0  0  0  0  0  0  0  0  0  0  0
    0.0467   -2.2395   -0.9073 H   0  0  0  0  0  0  0  0  0  0  0  0
    0.3895   -0.0304    1.2237 H   0  0  0  0  0  0  0  0  0  0  0  0
   -0.6383    1.3210    1.4609 H   0  0  0  0  0  0  0  0  0  0  0  0
    2.4273   -0.4128   -1.6956 H   0  0  0  0  0  0  0  0  0  0  0  0
    4.1497   -0.1920   -0.2766 H   0  0  0  0  0  0  0  0  0  0  0  0
    3.8736    1.0743    1.9767 H   0  0  0  0  0  0  0  0  0  0  0  0
    2.3866    0.2327    2.2194 H   0  0  0  0  0  0  0  0  0  0  0  0
    3.0653    2.4402    0.2592 H   0  0  0  0  0  0  0  0  0  0  0  0
    0.1442    2.7603   -1.3850 H   0  0  0  0  0  0  0  0  0  0  0  0
    1.4415    3.7108   -0.6519 H   0  0  0  0  0  0  0  0  0  0  0  0
   -2.9203    0.4956   -2.6106 H   0  0  0  0  0  0  0  0  0  0  0  0
   -2.9305   -0.7073   -4.0161 H   0  0  0  0  0  0  0  0  0  0  0  0
    1.5907   -1.9994    2.0039 H   0  0  0  0  0  0  0  0  0  0  0  0
    2.7122   -3.2028    1.3414 H   0  0  0  0  0  0  0  0  0  0  0  0
    1.0975   -3.0590    0.6812 H   0  0  0  0  0  0  0  0  0  0  0  0
   -2.5592   -3.2183    0.8702 H   0  0  0  0  0  0  0  0  0  0  0  0
   -3.3548   -3.3240    2.4493 H   0  0  0  0  0  0  0  0  0  0  0  0
   -1.8946   -2.3719    2.2827 H   0  0  0  0  0  0  0  0  0  0  0  0
   -5.4056   -0.3549    1.2052 H   0  0  0  0  0  0  0  0  0  0  0  0
    6.2753   -1.7033    3.3166 H   0  0  0  0  0  0  0  0  0  0  0  0
    7.6828   -1.4179    2.2725 H   0  0  0  0  0  0  0  0  0  0  0  0
    6.6189   -2.7983    1.9331 H   0  0  0  0  0  0  0  0  0  0  0  0
   -5.4535   -3.2244    2.3893 H   0  0  0  0  0  0  0  0  0  0  0  0
   -6.6692   -2.5113    1.3174 H   0  0  0  0  0  0  0  0  0  0  0  0
   -2.6547    4.8144    0.9695 H   0  0  0  0  0  0  0  0  0  0  0  0
   -2.2447    6.4180    0.3266 H   0  0  0  0  0  0  0  0  0  0  0  0
   -1.3259    5.7760    1.7044 H   0  0  0  0  0  0  0  0  0  0  0  0
   -7.2189   -2.3579    3.5163 H   0  0  0  0  0  0  0  0  0  0  0  0
  1 12  1  0  0  0  0
  1 18  1  0  0  0  0
  2 11  1  0  0  0  0
  2 25  1  0  0  0  0
  3 19  1  0  0  0  0
  3 27  1  0  0  0  0
  4 18  2  0  0  0  0
  5 22  1  0  0  0  0
  5 29  1  0  0  0  0
  6 25  2  0  0  0  0
  7 27  2  0  0  0  0
  8 29  2  0  0  0  0
  9 32  1  0  0  0  0
  9 63  1  0  0  0  0
 10 11  1  0  0  0  0
 10 12  1  0  0  0  0
 10 14  1  0  0  0  0
 10 34  1  0  0  0  0
 11 13  1  0  0  0  0
 11 35  1  0  0  0  0
 12 15  1  0  0  0  0
 12 36  1  0  0  0  0
 13 16  1  0  0  0  0
 13 37  1  0  0  0  0
 13 38  1  0  0  0  0
 14 18  1  0  0  0  0
 14 23  2  0  0  0  0
 15 17  2  0  0  0  0
 15 39  1  0  0  0  0
 16 21  2  0  0  0  0
 16 22  1  0  0  0  0
 17 19  1  0  0  0  0
 17 24  1  0  0  0  0
 19 20  1  0  0  0  0
 19 40  1  0  0  0  0
 20 21  1  0  0  0  0
 20 41  1  0  0  0  0
 20 42  1  0  0  0  0
 21 43  1  0  0  0  0
 22 44  1  0  0  0  0
 22 45  1  0  0  0  0
 23 46  1  0  0  0  0
 23 47  1  0  0  0  0
 24 48  1  0  0  0  0
 24 49  1  0  0  0  0
 24 50  1  0  0  0  0
 25 26  1  0  0  0  0
 26 28  1  0  0  0  0
 26 30  2  0  0  0  0
 27 31  1  0  0  0  0
 28 51  1  0  0  0  0
 28 52  1  0  0  0  0
 28 53  1  0  0  0  0
 29 33  1  0  0  0  0
 30 32  1  0  0  0  0
 30 54  1  0  0  0  0
 31 55  1  0  0  0  0
 31 56  1  0  0  0  0
 31 57  1  0  0  0  0
 32 58  1  0  0  0  0
 32 59  1  0  0  0  0
 33 60  1  0  0  0  0
 33 61  1  0  0  0  0
 33 62  1  0  0  0  0
M  END
> <PUBCHEM_COMPOUND_CID>
133562569

> <PUBCHEM_CONFORMER_RMSD>
1

> <PUBCHEM_CONFORMER_DIVERSEORDER>
1
9
11
14
13
10
8
7
3
5
4
12
6
2

> <PUBCHEM_MMFF94_PARTIAL_CHARGES>
39
1 -0.43
10 0.14
11 0.28
12 0.42
13 0.14
14 -0.12
15 -0.29
16 -0.28
17 -0.28
18 0.71
19 0.42
2 -0.43
20 0.14
21 -0.29
22 0.42
23 -0.3
24 0.14
25 0.71
26 -0.12
27 0.66
28 0.14
29 0.66
3 -0.43
30 -0.29
31 0.06
32 0.42
33 0.06
39 0.15
4 -0.57
43 0.15
46 0.15
47 0.15
5 -0.43
54 0.15
6 -0.57
63 0.4
7 -0.57
8 -0.57
9 -0.68

> <PUBCHEM_EFFECTIVE_ROTOR_COUNT>
10

> <PUBCHEM_PHARMACOPHORE_FEATURES>
8
1 28 hydrophobe
1 4 acceptor
1 6 acceptor
1 7 acceptor
1 8 acceptor
1 9 acceptor
1 9 donor
5 1 10 12 14 18 rings

> <PUBCHEM_HEAVY_ATOM_COUNT>
33

> <PUBCHEM_ATOM_DEF_STEREO_COUNT>
4

> <PUBCHEM_ATOM_UDEF_STEREO_COUNT>
0

> <PUBCHEM_BOND_DEF_STEREO_COUNT>
3

> <PUBCHEM_BOND_UDEF_STEREO_COUNT>
0

> <PUBCHEM_ISOTOPIC_ATOM_COUNT>
0

> <PUBCHEM_COMPONENT_COUNT>
1

> <PUBCHEM_CACTVS_TAUTO_COUNT>
1

> <PUBCHEM_CONFORMER_ID>
07F600C900000001

> <PUBCHEM_MMFF94_ENERGY>
65.6756

> <PUBCHEM_FEATURE_SELFOVERLAP>
40.599

> <PUBCHEM_SHAPE_FINGERPRINT>
11093857 5 17545916749270973041
11297750 10 17411373951747790959
11578080 2 17240749731261946821
11582403 64 17333626307784323669
12422481 6 17917712375364305346
12539745 222 17240752966089628330
12633257 1 18339932631031882059
13965767 371 17561087955842159690
14856354 85 18335991921713433938
15219462 58 18191570966157133330
15324884 4 17700419070579170676
17980427 26 17616538801147981365
19315092 285 17530975708159192474
1979834 28 17488207987895665211
22182313 1 17701258023947807588
23559900 14 17413633642022819539
266924 78 17398932260224664773
3380486 145 17983544628543921480
376196 1 17119146747850260988
469060 322 18129644387773212486
484985 159 17606384472184320754
57527306 92 17984449539698605388

> <PUBCHEM_SHAPE_MULTIPOLES>
626.3
10.67
5.44
3.71
5.9
12.71
-4.69
-10.62
14.08
-3.64
0.68
-3.34
-3.85
1.05

> <PUBCHEM_SHAPE_SELFOVERLAP>
1286.518

> <PUBCHEM_SHAPE_VOLUME>
357.4

> <PUBCHEM_COORDINATE_TYPE>
2
5
10

$$$$
