133556494
  -OEChem-03292013293D

 73 76  0     1  0  0  0  0  0999 V2000
    4.3815   -0.7274    1.1481 O   0  0  0  0  0  0  0  0  0  0  0  0
   -1.4598   -2.0550    1.3531 O   0  0  0  0  0  0  0  0  0  0  0  0
   -3.6007   -2.3455   -0.3144 O   0  0  0  0  0  0  0  0  0  0  0  0
   -4.5878    1.3406    2.0738 O   0  0  0  0  0  0  0  0  0  0  0  0
    1.1383    2.9760   -1.6136 O   0  0  0  0  0  0  0  0  0  0  0  0
   -3.6220   -0.9814   -2.1786 O   0  0  0  0  0  0  0  0  0  0  0  0
    6.4654    0.1104    1.6890 O   0  0  0  0  0  0  0  0  0  0  0  0
   -0.9747   -0.1178   -0.9977 C   0  0  2  0  0  0  0  0  0  0  0  0
    1.4739    0.8407   -0.5356 C   0  0  2  0  0  0  0  0  0  0  0  0
   -0.0221    0.6948   -0.0449 C   0  0  1  0  0  0  0  0  0  0  0  0
    2.0317   -0.5812   -0.8870 C   0  0  2  0  0  0  0  0  0  0  0  0
   -2.3441   -0.3536   -0.2125 C   0  0  2  0  0  0  0  0  0  0  0  0
   -0.2944   -1.4513   -1.4160 C   0  0  0  0  0  0  0  0  0  0  0  0
   -3.0405    1.0260    0.1996 C   0  0  2  0  0  0  0  0  0  0  0  0
    3.5782   -0.6564   -1.1872 C   0  0  0  0  0  0  0  0  0  0  0  0
    1.1446   -1.2984   -1.9221 C   0  0  0  0  0  0  0  0  0  0  0  0
    2.3513    1.4601    0.5893 C   0  0  0  0  0  0  0  0  0  0  0  0
   -0.6977    1.9789    0.3906 C   0  0  0  0  0  0  0  0  0  0  0  0
    4.3743    0.0518   -0.0515 C   0  0  1  0  0  0  0  0  0  0  0  0
   -1.2664    0.6548   -2.3251 C   0  0  0  0  0  0  0  0  0  0  0  0
   -2.0316    2.1537    0.4840 C   0  0  0  0  0  0  0  0  0  0  0  0
    3.8495    1.4467    0.2782 C   0  0  0  0  0  0  0  0  0  0  0  0
   -2.1487   -1.0604    1.1582 C   0  0  0  0  0  0  0  0  0  0  0  0
   -3.6674    0.7100    1.5642 C   0  0  0  0  0  0  0  0  0  0  0  0
   -2.9847   -0.4424    2.2498 C   0  0  1  0  0  0  0  0  0  0  0  0
    1.5222    1.8138   -1.6917 C   0  0  0  0  0  0  0  0  0  0  0  0
   -3.2606   -1.2418   -1.0389 C   0  0  0  0  0  0  0  0  0  0  0  0
   -4.1662    1.4782   -0.7490 C   0  0  0  0  0  0  0  0  0  0  0  0
    4.0316   -2.1394   -1.2458 C   0  0  0  0  0  0  0  0  0  0  0  0
    3.9708   -0.0285   -2.5417 C   0  0  0  0  0  0  0  0  0  0  0  0
   -2.5513    3.5153    0.8828 C   0  0  0  0  0  0  0  0  0  0  0  0
   -3.9851   -1.4351    2.8086 C   0  0  0  0  0  0  0  0  0  0  0  0
    5.4950   -0.5972    1.9233 C   0  0  0  0  0  0  0  0  0  0  0  0
   -4.4659   -3.2733   -0.9768 C   0  0  0  0  0  0  0  0  0  0  0  0
    5.3634   -1.4658    3.1376 C   0  0  0  0  0  0  0  0  0  0  0  0
    0.0760    0.1137    0.8841 H   0  0  0  0  0  0  0  0  0  0  0  0
    1.9105   -1.1671    0.0397 H   0  0  0  0  0  0  0  0  0  0  0  0
   -0.8825   -1.9529   -2.1948 H   0  0  0  0  0  0  0  0  0  0  0  0
   -0.2571   -2.1518   -0.5790 H   0  0  0  0  0  0  0  0  0  0  0  0
    1.5216   -2.3071   -2.1189 H   0  0  0  0  0  0  0  0  0  0  0  0
    1.1556   -0.7804   -2.8851 H   0  0  0  0  0  0  0  0  0  0  0  0
    2.1860    0.9089    1.5245 H   0  0  0  0  0  0  0  0  0  0  0  0
    2.0722    2.4999    0.7943 H   0  0  0  0  0  0  0  0  0  0  0  0
   -0.0595    2.8125    0.6668 H   0  0  0  0  0  0  0  0  0  0  0  0
    5.4089    0.1566   -0.4079 H   0  0  0  0  0  0  0  0  0  0  0  0
   -1.9148    0.1126   -3.0133 H   0  0  0  0  0  0  0  0  0  0  0  0
   -0.3599    0.8140   -2.9108 H   0  0  0  0  0  0  0  0  0  0  0  0
   -1.6901    1.6476   -2.1666 H   0  0  0  0  0  0  0  0  0  0  0  0
    4.0547    2.1313   -0.5523 H   0  0  0  0  0  0  0  0  0  0  0  0
    4.3780    1.8548    1.1482 H   0  0  0  0  0  0  0  0  0  0  0  0
   -2.3144   -0.0481    3.0197 H   0  0  0  0  0  0  0  0  0  0  0  0
    1.8423    1.4255   -2.6678 H   0  0  0  0  0  0  0  0  0  0  0  0
   -4.9709    0.7356   -0.8007 H   0  0  0  0  0  0  0  0  0  0  0  0
   -3.8124    1.6753   -1.7634 H   0  0  0  0  0  0  0  0  0  0  0  0
   -4.6549    2.3940   -0.3970 H   0  0  0  0  0  0  0  0  0  0  0  0
    5.1256   -2.2147   -1.2511 H   0  0  0  0  0  0  0  0  0  0  0  0
    3.6762   -2.6386   -2.1533 H   0  0  0  0  0  0  0  0  0  0  0  0
    5.0124   -0.2719   -2.7879 H   0  0  0  0  0  0  0  0  0  0  0  0
    3.6650   -2.7094   -0.3851 H   0  0  0  0  0  0  0  0  0  0  0  0
    3.9168    1.0617   -2.5423 H   0  0  0  0  0  0  0  0  0  0  0  0
    3.3584   -0.4102   -3.3640 H   0  0  0  0  0  0  0  0  0  0  0  0
   -3.1173    3.9688    0.0638 H   0  0  0  0  0  0  0  0  0  0  0  0
   -1.7411    4.2109    1.1295 H   0  0  0  0  0  0  0  0  0  0  0  0
   -3.1921    3.4553    1.7662 H   0  0  0  0  0  0  0  0  0  0  0  0
   -4.7143   -1.7470    2.0532 H   0  0  0  0  0  0  0  0  0  0  0  0
   -4.5474   -0.9902    3.6366 H   0  0  0  0  0  0  0  0  0  0  0  0
   -3.4854   -2.3343    3.1834 H   0  0  0  0  0  0  0  0  0  0  0  0
   -5.4165   -2.7922   -1.2259 H   0  0  0  0  0  0  0  0  0  0  0  0
   -3.9823   -3.6652   -1.8766 H   0  0  0  0  0  0  0  0  0  0  0  0
   -4.6610   -4.1033   -0.2926 H   0  0  0  0  0  0  0  0  0  0  0  0
    5.2698   -2.5121    2.8362 H   0  0  0  0  0  0  0  0  0  0  0  0
    4.4949   -1.1542    3.7234 H   0  0  0  0  0  0  0  0  0  0  0  0
    6.2581   -1.3603    3.7577 H   0  0  0  0  0  0  0  0  0  0  0  0
  1 19  1  0  0  0  0
  1 33  1  0  0  0  0
  2 23  2  0  0  0  0
  3 27  1  0  0  0  0
  3 34  1  0  0  0  0
  4 24  2  0  0  0  0
  5 26  2  0  0  0  0
  6 27  2  0  0  0  0
  7 33  2  0  0  0  0
  8 10  1  0  0  0  0
  8 12  1  0  0  0  0
  8 13  1  0  0  0  0
  8 20  1  0  0  0  0
  9 10  1  0  0  0  0
  9 11  1  0  0  0  0
  9 17  1  0  0  0  0
  9 26  1  0  0  0  0
 10 18  1  0  0  0  0
 10 36  1  0  0  0  0
 11 15  1  0  0  0  0
 11 16  1  0  0  0  0
 11 37  1  0  0  0  0
 12 14  1  0  0  0  0
 12 23  1  0  0  0  0
 12 27  1  0  0  0  0
 13 16  1  0  0  0  0
 13 38  1  0  0  0  0
 13 39  1  0  0  0  0
 14 21  1  0  0  0  0
 14 24  1  0  0  0  0
 14 28  1  0  0  0  0
 15 19  1  0  0  0  0
 15 29  1  0  0  0  0
 15 30  1  0  0  0  0
 16 40  1  0  0  0  0
 16 41  1  0  0  0  0
 17 22  1  0  0  0  0
 17 42  1  0  0  0  0
 17 43  1  0  0  0  0
 18 21  2  0  0  0  0
 18 44  1  0  0  0  0
 19 22  1  0  0  0  0
 19 45  1  0  0  0  0
 20 46  1  0  0  0  0
 20 47  1  0  0  0  0
 20 48  1  0  0  0  0
 21 31  1  0  0  0  0
 22 49  1  0  0  0  0
 22 50  1  0  0  0  0
 23 25  1  0  0  0  0
 24 25  1  0  0  0  0
 25 32  1  0  0  0  0
 25 51  1  0  0  0  0
 26 52  1  0  0  0  0
 28 53  1  0  0  0  0
 28 54  1  0  0  0  0
 28 55  1  0  0  0  0
 29 56  1  0  0  0  0
 29 57  1  0  0  0  0
 29 59  1  0  0  0  0
 30 58  1  0  0  0  0
 30 60  1  0  0  0  0
 30 61  1  0  0  0  0
 31 62  1  0  0  0  0
 31 63  1  0  0  0  0
 31 64  1  0  0  0  0
 32 65  1  0  0  0  0
 32 66  1  0  0  0  0
 32 67  1  0  0  0  0
 33 35  1  0  0  0  0
 34 68  1  0  0  0  0
 34 69  1  0  0  0  0
 34 70  1  0  0  0  0
 35 71  1  0  0  0  0
 35 72  1  0  0  0  0
 35 73  1  0  0  0  0
M  END
> <PUBCHEM_COMPOUND_CID>
133556494

> <PUBCHEM_CONFORMER_RMSD>
1

> <PUBCHEM_CONFORMER_DIVERSEORDER>
1
2

> <PUBCHEM_MMFF94_PARTIAL_CHARGES>
25
1 -0.43
10 0.14
12 0.12
14 0.2
18 -0.29
19 0.28
2 -0.57
21 -0.28
23 0.45
24 0.45
25 0.12
26 0.45
27 0.66
3 -0.43
31 0.14
33 0.66
34 0.28
35 0.06
4 -0.57
44 0.15
5 -0.57
52 0.06
6 -0.57
7 -0.57
9 0.06

> <PUBCHEM_EFFECTIVE_ROTOR_COUNT>
6.4

> <PUBCHEM_PHARMACOPHORE_FEATURES>
11
1 2 acceptor
1 25 anion
1 4 acceptor
1 5 acceptor
1 6 acceptor
1 7 acceptor
3 15 29 30 hydrophobe
5 12 14 23 24 25 rings
6 8 10 12 14 18 21 rings
6 8 9 10 11 13 16 rings
6 9 11 15 17 19 22 rings

> <PUBCHEM_HEAVY_ATOM_COUNT>
35

> <PUBCHEM_ATOM_DEF_STEREO_COUNT>
7

> <PUBCHEM_ATOM_UDEF_STEREO_COUNT>
1

> <PUBCHEM_BOND_DEF_STEREO_COUNT>
0

> <PUBCHEM_BOND_UDEF_STEREO_COUNT>
0

> <PUBCHEM_ISOTOPIC_ATOM_COUNT>
0

> <PUBCHEM_COMPONENT_COUNT>
1

> <PUBCHEM_CACTVS_TAUTO_COUNT>
3

> <PUBCHEM_CONFORMER_ID>
07F5E90E00000001

> <PUBCHEM_MMFF94_ENERGY>
132.4163

> <PUBCHEM_FEATURE_SELFOVERLAP>
56.117

> <PUBCHEM_SHAPE_FINGERPRINT>
10319926 262 18059565838194626578
10498660 4 10735600124514543787
11135926 11 16805614702715475550
11578080 2 16917067724375625994
12422481 6 18058751121083230713
12553582 1 18114473275146518166
12633046 712 17022625286123228989
12633257 1 18334587840446869048
131258 38 16744566715837959115
13140716 1 18059588978908146893
13224815 77 18343312486756900924
13583140 156 18040429984462733476
13782708 43 17023474144034682507
14739800 52 14476375116792069026
15183329 4 11600008765562445632
17349148 13 18336545018331077878
17980427 23 18342172297631417316
1813 80 18041010560698077101
19315092 285 17970622115642777146
20775530 9 17395034470172423835
21033648 144 16630244706170645840
21033648 29 17987524701659085024
22122407 14 14836124321303088970
23559900 14 18191332414777143494
3380486 145 18198921360713711889
376196 1 17054429540499422021
392239 28 16199573839912410770
404807 14 16670172207960265571
46194498 28 14129357199291833674
463206 1 17981319316020456263
469060 322 17988084516581590747
508706 21 18131351873559526164
5104073 3 17561085778684468418
57527293 21 18408886235383362572
6034566 193 12175620711029520707
9981440 41 18199462169662102081

> <PUBCHEM_SHAPE_MULTIPOLES>
679.2
11.27
2.93
2.8
10.64
0.33
1.4
-2.62
6.72
-3
-0.56
1.4
-0.62
-0.52

> <PUBCHEM_SHAPE_SELFOVERLAP>
1458.455

> <PUBCHEM_SHAPE_VOLUME>
365.8

> <PUBCHEM_COORDINATE_TYPE>
2
5
10

$$$$
