133562010
  -OEChem-03292013293D

 51 53  0     1  0  0  0  0  0999 V2000
    1.3087    0.9514   -0.0952 O   0  0  0  0  0  0  0  0  0  0  0  0
   -3.4031   -0.1053    0.7169 O   0  0  0  0  0  0  0  0  0  0  0  0
   -0.7097   -1.1460   -1.4167 O   0  0  0  0  0  0  0  0  0  0  0  0
    5.0849   -0.7797    1.4408 O   0  0  0  0  0  0  0  0  0  0  0  0
   -1.5520   -2.0253    0.5393 O   0  0  0  0  0  0  0  0  0  0  0  0
    1.8180    3.0046   -1.0143 O   0  0  0  0  0  0  0  0  0  0  0  0
   -4.0506   -2.2743    0.2558 O   0  0  0  0  0  0  0  0  0  0  0  0
    3.2295   -1.5477    0.3772 N   0  0  0  0  0  0  0  0  0  0  0  0
   -1.9552    1.3241   -0.6061 C   0  0  2  0  0  0  0  0  0  0  0  0
   -2.6190   -0.0772   -0.4739 C   0  0  2  0  0  0  0  0  0  0  0  0
    2.3906    0.2964   -0.7692 C   0  0  2  0  0  0  0  0  0  0  0  0
    2.2375   -1.1417   -0.4571 C   0  0  0  0  0  0  0  0  0  0  0  0
   -1.1956    1.7234    0.6890 C   0  0  0  0  0  0  0  0  0  0  0  0
    3.7570    0.6486   -0.1133 C   0  0  0  0  0  0  0  0  0  0  0  0
    1.4003   -2.2018   -0.7132 C   0  0  0  0  0  0  0  0  0  0  0  0
    4.1529   -0.5771    0.6908 C   0  0  0  0  0  0  0  0  0  0  0  0
   -2.9735    2.4259   -0.9489 C   0  0  0  0  0  0  0  0  0  0  0  0
   -3.5384   -0.4281   -1.6508 C   0  0  0  0  0  0  0  0  0  0  0  0
   -1.5717   -1.1913   -0.3575 C   0  0  0  0  0  0  0  0  0  0  0  0
   -0.0873    2.7152    0.4253 C   0  0  0  0  0  0  0  0  0  0  0  0
    0.2002   -2.2527   -1.5895 C   0  0  0  0  0  0  0  0  0  0  0  0
    3.0683   -2.8540    0.7155 C   0  0  0  0  0  0  0  0  0  0  0  0
    1.9410   -3.2943    0.0450 C   0  0  0  0  0  0  0  0  0  0  0  0
    1.1243    2.2778   -0.3199 C   0  0  0  0  0  0  0  0  0  0  0  0
   -0.1185    3.9892    0.8398 C   0  0  0  0  0  0  0  0  0  0  0  0
   -4.0690   -1.2728    0.9584 C   0  0  0  0  0  0  0  0  0  0  0  0
    0.9767    4.9703    0.5968 C   0  0  0  0  0  0  0  0  0  0  0  0
   -4.8462   -1.1572    2.2347 C   0  0  0  0  0  0  0  0  0  0  0  0
   -1.2455    1.2866   -1.4431 H   0  0  0  0  0  0  0  0  0  0  0  0
    2.3665    0.5044   -1.8438 H   0  0  0  0  0  0  0  0  0  0  0  0
   -0.7644    0.8425    1.1791 H   0  0  0  0  0  0  0  0  0  0  0  0
   -1.9054    2.1333    1.4201 H   0  0  0  0  0  0  0  0  0  0  0  0
    3.7031    1.5201    0.5445 H   0  0  0  0  0  0  0  0  0  0  0  0
    4.5194    0.8019   -0.8843 H   0  0  0  0  0  0  0  0  0  0  0  0
   -3.7566    2.4950   -0.1864 H   0  0  0  0  0  0  0  0  0  0  0  0
   -3.4553    2.2398   -1.9135 H   0  0  0  0  0  0  0  0  0  0  0  0
   -2.4882    3.4044   -1.0232 H   0  0  0  0  0  0  0  0  0  0  0  0
   -4.5449   -0.0134   -1.5242 H   0  0  0  0  0  0  0  0  0  0  0  0
   -3.6371   -1.5026   -1.8363 H   0  0  0  0  0  0  0  0  0  0  0  0
   -3.1259   -0.0294   -2.5860 H   0  0  0  0  0  0  0  0  0  0  0  0
    0.5240   -2.2278   -2.6362 H   0  0  0  0  0  0  0  0  0  0  0  0
   -0.3497   -3.1926   -1.4563 H   0  0  0  0  0  0  0  0  0  0  0  0
    3.7510   -3.3654    1.3802 H   0  0  0  0  0  0  0  0  0  0  0  0
    1.5444   -4.2995    0.0923 H   0  0  0  0  0  0  0  0  0  0  0  0
   -0.9892    4.3525    1.3798 H   0  0  0  0  0  0  0  0  0  0  0  0
    0.8215    5.8380    1.2490 H   0  0  0  0  0  0  0  0  0  0  0  0
    0.9594    5.3427   -0.4318 H   0  0  0  0  0  0  0  0  0  0  0  0
    1.9655    4.5788    0.8545 H   0  0  0  0  0  0  0  0  0  0  0  0
   -4.1639   -0.9691    3.0675 H   0  0  0  0  0  0  0  0  0  0  0  0
   -5.3759   -2.0954    2.4230 H   0  0  0  0  0  0  0  0  0  0  0  0
   -5.5811   -0.3530    2.1490 H   0  0  0  0  0  0  0  0  0  0  0  0
  1 11  1  0  0  0  0
  1 24  1  0  0  0  0
  2 10  1  0  0  0  0
  2 26  1  0  0  0  0
  3 19  1  0  0  0  0
  3 21  1  0  0  0  0
  4 16  2  0  0  0  0
  5 19  2  0  0  0  0
  6 24  2  0  0  0  0
  7 26  2  0  0  0  0
  8 12  1  0  0  0  0
  8 16  1  0  0  0  0
  8 22  1  0  0  0  0
  9 10  1  0  0  0  0
  9 13  1  0  0  0  0
  9 17  1  0  0  0  0
  9 29  1  0  0  0  0
 10 18  1  0  0  0  0
 10 19  1  0  0  0  0
 11 12  1  0  0  0  0
 11 14  1  0  0  0  0
 11 30  1  0  0  0  0
 12 15  2  0  0  0  0
 13 20  1  0  0  0  0
 13 31  1  0  0  0  0
 13 32  1  0  0  0  0
 14 16  1  0  0  0  0
 14 33  1  0  0  0  0
 14 34  1  0  0  0  0
 15 21  1  0  0  0  0
 15 23  1  0  0  0  0
 17 35  1  0  0  0  0
 17 36  1  0  0  0  0
 17 37  1  0  0  0  0
 18 38  1  0  0  0  0
 18 39  1  0  0  0  0
 18 40  1  0  0  0  0
 20 24  1  0  0  0  0
 20 25  2  0  0  0  0
 21 41  1  0  0  0  0
 21 42  1  0  0  0  0
 22 23  2  0  0  0  0
 22 43  1  0  0  0  0
 23 44  1  0  0  0  0
 25 27  1  0  0  0  0
 25 45  1  0  0  0  0
 26 28  1  0  0  0  0
 27 46  1  0  0  0  0
 27 47  1  0  0  0  0
 27 48  1  0  0  0  0
 28 49  1  0  0  0  0
 28 50  1  0  0  0  0
 28 51  1  0  0  0  0
M  END
> <PUBCHEM_COMPOUND_CID>
133562010

> <PUBCHEM_CONFORMER_RMSD>
0.8

> <PUBCHEM_CONFORMER_DIVERSEORDER>
2
3
7
8
10
9
11
4
5
1
6

> <PUBCHEM_MMFF94_PARTIAL_CHARGES>
28
1 -0.43
10 0.34
11 0.46
12 -0.33
13 0.14
14 0.06
15 -0.18
16 0.52
19 0.66
2 -0.43
20 -0.12
21 0.46
22 -0.3
23 -0.15
24 0.71
25 -0.29
26 0.66
27 0.14
28 0.06
3 -0.43
4 -0.57
43 0.15
44 0.15
45 0.15
5 -0.57
6 -0.57
7 -0.57
8 0.29

> <PUBCHEM_EFFECTIVE_ROTOR_COUNT>
3.4

> <PUBCHEM_PHARMACOPHORE_FEATURES>
7
1 27 hydrophobe
1 4 acceptor
1 5 acceptor
1 6 acceptor
1 7 acceptor
5 8 11 12 14 16 rings
5 8 12 15 22 23 rings

> <PUBCHEM_HEAVY_ATOM_COUNT>
28

> <PUBCHEM_ATOM_DEF_STEREO_COUNT>
3

> <PUBCHEM_ATOM_UDEF_STEREO_COUNT>
0

> <PUBCHEM_BOND_DEF_STEREO_COUNT>
1

> <PUBCHEM_BOND_UDEF_STEREO_COUNT>
0

> <PUBCHEM_ISOTOPIC_ATOM_COUNT>
0

> <PUBCHEM_COMPONENT_COUNT>
1

> <PUBCHEM_CACTVS_TAUTO_COUNT>
2

> <PUBCHEM_CONFORMER_ID>
07F5FE9A00000002

> <PUBCHEM_MMFF94_ENERGY>
72.4931

> <PUBCHEM_FEATURE_SELFOVERLAP>
35.803

> <PUBCHEM_SHAPE_FINGERPRINT>
10165383 225 17684665602425150317
10366900 7 18042136507987047191
104564 63 18199189473566928414
10616163 171 18268991973535541092
10674148 151 17413914025846242292
10675989 125 17110983964688135917
1100329 8 17979637063609311864
11370993 70 17046253503500237544
12035758 1 18265063436234194281
12104220 4 15481299104213309491
12422481 6 17985559852984209587
12553582 1 18341621416292932820
12633257 1 18264220251911430779
12788726 201 17907846310861339841
13140716 1 18051415372475693387
138480 1 18411702131347593952
13965767 371 17702955724944838930
14081887 123 18126827336409751528
14178342 30 18196379126110002440
14223421 5 17983570798090093342
14251757 5 16611407615208261950
14363568 33 18266753548049821740
14765038 42 17913505789583848792
14787075 74 18114468975557804690
14790565 3 17761224601357346428
14866123 147 16533974495842198459
14955137 171 18340781437165856422
15927050 60 17404869631683360038
19319366 153 17972044897143201180
19591789 44 17689723377329181510
19930381 70 18193839473303487611
20642791 268 17988099858457681115
20715895 44 17757539760172703501
21197605 99 17695627356051445877
21421861 104 18193585383054217137
21796203 349 18193861407759777120
22113638 7 18270384096763301838
23558518 356 17763739889114265908
23559900 14 17896311592609949765
238 59 18124286532472965005
2818148 4 17550717293386281023
35225 105 16740071542508492387
392239 28 17845070992217789616
484985 159 15799569001841414714
5309563 4 18411419544285421203
9709674 26 17839174109051471278

> <PUBCHEM_SHAPE_MULTIPOLES>
530.16
7.88
5.1
1.42
0.8
5.7
-0.13
-5.06
-3.18
-1.17
-0.72
1.07
-0.45
0.46

> <PUBCHEM_SHAPE_SELFOVERLAP>
1139.862

> <PUBCHEM_SHAPE_VOLUME>
290.2

> <PUBCHEM_COORDINATE_TYPE>
2
5
10

$$$$
