133579
  -OEChem-03292013323D

 40 39  0     1  0  0  0  0  0999 V2000
    6.7156    0.3371    0.0281 S   0  0  1  0  0  0  0  0  0  0  0  0
   -6.3559    0.7763    0.0192 S   0  0  1  0  0  0  0  0  0  0  0  0
    7.7668    1.2326   -1.1907 S   0  0  0  0  0  0  0  0  0  0  0  0
   -6.5871    2.1669    1.2046 S   0  0  0  0  0  0  0  0  0  0  0  0
    5.1541    0.5573   -0.3693 O   0  0  0  0  0  0  0  0  0  0  0  0
   -4.9396    0.0447    0.3427 O   0  0  0  0  0  0  0  0  0  0  0  0
    7.1067   -1.0511    0.0638 O   0  0  0  0  0  0  0  0  0  0  0  0
   -7.4900   -0.1116    0.1010 O   0  0  0  0  0  0  0  0  0  0  0  0
    0.2885   -0.3605   -0.2752 C   0  0  0  0  0  0  0  0  0  0  0  0
   -0.8200   -1.2913    0.2215 C   0  0  0  0  0  0  0  0  0  0  0  0
    1.6858   -0.7721    0.1967 C   0  0  0  0  0  0  0  0  0  0  0  0
   -2.1960   -0.8164   -0.2527 C   0  0  0  0  0  0  0  0  0  0  0  0
    2.8002    0.1130   -0.3589 C   0  0  0  0  0  0  0  0  0  0  0  0
   -3.3090   -1.7307    0.2678 C   0  0  0  0  0  0  0  0  0  0  0  0
    4.1649   -0.3092    0.1691 C   0  0  0  0  0  0  0  0  0  0  0  0
   -4.6919   -1.2586   -0.1644 C   0  0  0  0  0  0  0  0  0  0  0  0
    6.7619    1.1098    1.6218 C   0  0  0  0  0  0  0  0  0  0  0  0
   -6.0550    1.3639   -1.6250 C   0  0  0  0  0  0  0  0  0  0  0  0
    0.0853    0.6626    0.0648 H   0  0  0  0  0  0  0  0  0  0  0  0
    0.2730   -0.3381   -1.3720 H   0  0  0  0  0  0  0  0  0  0  0  0
   -0.6348   -2.3096   -0.1409 H   0  0  0  0  0  0  0  0  0  0  0  0
   -0.8002   -1.3284    1.3174 H   0  0  0  0  0  0  0  0  0  0  0  0
    1.7124   -0.7466    1.2931 H   0  0  0  0  0  0  0  0  0  0  0  0
    1.8724   -1.8118   -0.0998 H   0  0  0  0  0  0  0  0  0  0  0  0
   -2.2220   -0.7946   -1.3489 H   0  0  0  0  0  0  0  0  0  0  0  0
   -2.3620    0.2103    0.0948 H   0  0  0  0  0  0  0  0  0  0  0  0
    2.8038    0.0757   -1.4553 H   0  0  0  0  0  0  0  0  0  0  0  0
    2.6168    1.1618   -0.0944 H   0  0  0  0  0  0  0  0  0  0  0  0
   -3.1474   -2.7549   -0.0875 H   0  0  0  0  0  0  0  0  0  0  0  0
   -3.2656   -1.7488    1.3637 H   0  0  0  0  0  0  0  0  0  0  0  0
    4.3840   -1.3393   -0.1326 H   0  0  0  0  0  0  0  0  0  0  0  0
    4.1822   -0.2511    1.2622 H   0  0  0  0  0  0  0  0  0  0  0  0
   -5.4488   -1.9468    0.2270 H   0  0  0  0  0  0  0  0  0  0  0  0
   -4.7616   -1.2510   -1.2571 H   0  0  0  0  0  0  0  0  0  0  0  0
    6.3735    2.1274    1.5456 H   0  0  0  0  0  0  0  0  0  0  0  0
    6.1521    0.5241    2.3123 H   0  0  0  0  0  0  0  0  0  0  0  0
    7.7939    1.1203    1.9799 H   0  0  0  0  0  0  0  0  0  0  0  0
   -5.1376    1.9559   -1.6388 H   0  0  0  0  0  0  0  0  0  0  0  0
   -5.9591    0.5046   -2.2914 H   0  0  0  0  0  0  0  0  0  0  0  0
   -6.9059    1.9695   -1.9456 H   0  0  0  0  0  0  0  0  0  0  0  0
  1  3  2  0  0  0  0
  1  5  1  0  0  0  0
  1  7  2  0  0  0  0
  1 17  1  0  0  0  0
  2  4  2  0  0  0  0
  2  6  1  0  0  0  0
  2  8  2  0  0  0  0
  2 18  1  0  0  0  0
  5 15  1  0  0  0  0
  6 16  1  0  0  0  0
  9 10  1  0  0  0  0
  9 11  1  0  0  0  0
  9 19  1  0  0  0  0
  9 20  1  0  0  0  0
 10 12  1  0  0  0  0
 10 21  1  0  0  0  0
 10 22  1  0  0  0  0
 11 13  1  0  0  0  0
 11 23  1  0  0  0  0
 11 24  1  0  0  0  0
 12 14  1  0  0  0  0
 12 25  1  0  0  0  0
 12 26  1  0  0  0  0
 13 15  1  0  0  0  0
 13 27  1  0  0  0  0
 13 28  1  0  0  0  0
 14 16  1  0  0  0  0
 14 29  1  0  0  0  0
 14 30  1  0  0  0  0
 15 31  1  0  0  0  0
 15 32  1  0  0  0  0
 16 33  1  0  0  0  0
 16 34  1  0  0  0  0
 17 35  1  0  0  0  0
 17 36  1  0  0  0  0
 17 37  1  0  0  0  0
 18 38  1  0  0  0  0
 18 39  1  0  0  0  0
 18 40  1  0  0  0  0
M  END
> <PUBCHEM_COMPOUND_CID>
133579

> <PUBCHEM_CONFORMER_RMSD>
1.2

> <PUBCHEM_CONFORMER_DIVERSEORDER>
1
99
109
36
88
7
2
41
67
118
73
61
121
5
3
58
42
123
48
62
104
95
15
110
81
76
105
114
71
65
28
78
55
57
34
26
83
51
38
66
40
29
4
82
63
44
90
17
116
59
21
50
101
30
72
22
100
27
98
106
113
23
8
35
96
122
119
64
18
111
112
37
24
115
68
9
52
103
79
93
87
94
75
84
13
74
53
43
56
33
70
102
86
85
46
120
107
49
60
80
108
45
12
39
25
32
89
54
19
97
6
20
16
47
10
31
69
14
92
117
77
91
11

> <PUBCHEM_MMFF94_PARTIAL_CHARGES>
12
1 0.94
15 0.28
16 0.28
17 0.11
18 0.11
2 0.94
3 -0.71
4 -0.71
5 -0.46
6 -0.46
7 -0.65
8 -0.65

> <PUBCHEM_EFFECTIVE_ROTOR_COUNT>
11

> <PUBCHEM_PHARMACOPHORE_FEATURES>
2
3 10 12 14 hydrophobe
3 9 11 13 hydrophobe

> <PUBCHEM_HEAVY_ATOM_COUNT>
18

> <PUBCHEM_ATOM_DEF_STEREO_COUNT>
0

> <PUBCHEM_ATOM_UDEF_STEREO_COUNT>
0

> <PUBCHEM_BOND_DEF_STEREO_COUNT>
0

> <PUBCHEM_BOND_UDEF_STEREO_COUNT>
0

> <PUBCHEM_ISOTOPIC_ATOM_COUNT>
0

> <PUBCHEM_COMPONENT_COUNT>
1

> <PUBCHEM_CACTVS_TAUTO_COUNT>
1

> <PUBCHEM_CONFORMER_ID>
000209CB00000001

> <PUBCHEM_MMFF94_ENERGY>
17.8561

> <PUBCHEM_FEATURE_SELFOVERLAP>
10.149

> <PUBCHEM_SHAPE_FINGERPRINT>
10 15 17385443223899338445
12091667 2 18341614849942461039
125118 31 18342457080249845640
13533116 47 18343302553553034626
13685833 64 11818991881494073702
14123256 10 12679464183696120183
1420 363 12396294859704373730
14251752 14 18272369767518437826
14251757 52 18335702797684922264
14251764 18 18187362151398880323
14251764 46 17822009822552263219
14344974 204 12902132906636286737
14729087 3 18413386540401383105
15183329 4 18335416863698234433
15461852 350 18201717397224102535
155225 1 18411700947361186593
155225 5 18127415549361776121
15716309 27 10809343343203435019
17093844 174 18335699477226550067
17780758 139 13840266975541423765
195137 175 18261681445371689692
20281389 69 18334573542527205233
20621476 66 18187367653362736790
20621476 8 18260266330962311070
21095123 145 14779558901913714346
21150785 3 15339117948495032991
220451 1 16225761948197435306
22224240 67 15574433240975510378
22288116 15 17489013960104773063
23035841 295 8430315736111625421
23081809 10 17604147138058254422
246663 6 12251897080213297178
2838139 119 17988922275959856089
28498 318 18201723925780133478
4073 2 18040722501916842498
5758199 1 17530965800018073258
59567204 34 18271810099295278777
59682541 35 14490478603374055801
5969126 39 13542470834573409627

> <PUBCHEM_SHAPE_MULTIPOLES>
362.35
28.23
1.75
1.15
14.04
0.34
-0.05
13.61
-0.38
-2.37
0.26
0.23
0.66
-0.42

> <PUBCHEM_SHAPE_SELFOVERLAP>
632.488

> <PUBCHEM_SHAPE_VOLUME>
241.1

> <PUBCHEM_COORDINATE_TYPE>
2
5
10

$$$$
