133556521
  -OEChem-03292013293D

 46 47  0     1  0  0  0  0  0999 V2000
    3.6677   -1.8384    1.8597 O   0  0  0  0  0  0  0  0  0  0  0  0
    4.6026   -0.6538   -0.4806 O   0  0  0  0  0  0  0  0  0  0  0  0
   -0.3164    1.8160   -0.6808 O   0  0  0  0  0  0  0  0  0  0  0  0
   -3.2138    1.8657    1.5105 O   0  0  0  0  0  0  0  0  0  0  0  0
   -0.2993    1.5730    1.6247 O   0  0  0  0  0  0  0  0  0  0  0  0
   -5.1096   -2.0860   -0.3285 O   0  0  0  0  0  0  0  0  0  0  0  0
    2.7591   -1.5743    0.7848 C   0  0  2  0  0  0  0  0  0  0  0  0
    2.6047   -2.8791   -0.0182 C   0  0  0  0  0  0  0  0  0  0  0  0
    3.2705   -0.3836   -0.0480 C   0  0  1  0  0  0  0  0  0  0  0  0
    1.5802   -2.8272   -1.1574 C   0  0  0  0  0  0  0  0  0  0  0  0
    0.5993    2.9355   -0.6758 C   0  0  1  0  0  0  0  0  0  0  0  0
    2.0394    2.4433   -0.8844 C   0  0  0  0  0  0  0  0  0  0  0  0
    3.2604    0.8916    0.7509 C   0  0  0  0  0  0  0  0  0  0  0  0
    2.7161    2.0687    0.4054 C   0  0  0  0  0  0  0  0  0  0  0  0
    0.2178   -2.4156   -0.6797 C   0  0  0  0  0  0  0  0  0  0  0  0
   -1.6580   -0.8337   -0.4764 C   0  0  0  0  0  0  0  0  0  0  0  0
    0.1675    3.8255   -1.8391 C   0  0  0  0  0  0  0  0  0  0  0  0
   -0.3635   -1.2564   -1.0236 C   0  0  0  0  0  0  0  0  0  0  0  0
   -1.8092    0.3608    0.2506 C   0  0  0  0  0  0  0  0  0  0  0  0
   -0.6957    1.2909    0.5077 C   0  0  0  0  0  0  0  0  0  0  0  0
   -2.7879   -1.6451   -0.6680 C   0  0  0  0  0  0  0  0  0  0  0  0
   -3.0491    0.7146    0.7980 C   0  0  0  0  0  0  0  0  0  0  0  0
   -4.0269   -1.2839   -0.1336 C   0  0  0  0  0  0  0  0  0  0  0  0
   -4.1559   -0.1084    0.6018 C   0  0  0  0  0  0  0  0  0  0  0  0
    1.8001   -1.3097    1.2462 H   0  0  0  0  0  0  0  0  0  0  0  0
    3.5792   -3.1797   -0.4241 H   0  0  0  0  0  0  0  0  0  0  0  0
    2.3264   -3.6858    0.6740 H   0  0  0  0  0  0  0  0  0  0  0  0
    2.6549   -0.2801   -0.9428 H   0  0  0  0  0  0  0  0  0  0  0  0
    1.5008   -3.8233   -1.6093 H   0  0  0  0  0  0  0  0  0  0  0  0
    1.9368   -2.1632   -1.9531 H   0  0  0  0  0  0  0  0  0  0  0  0
    0.4969    3.5111    0.2529 H   0  0  0  0  0  0  0  0  0  0  0  0
    2.6418    3.2509   -1.3197 H   0  0  0  0  0  0  0  0  0  0  0  0
    2.0498    1.6198   -1.6042 H   0  0  0  0  0  0  0  0  0  0  0  0
    3.7501    0.8484    1.7228 H   0  0  0  0  0  0  0  0  0  0  0  0
    2.8104    2.8802    1.1262 H   0  0  0  0  0  0  0  0  0  0  0  0
   -0.2800   -3.0959    0.0078 H   0  0  0  0  0  0  0  0  0  0  0  0
    0.2224    3.2837   -2.7899 H   0  0  0  0  0  0  0  0  0  0  0  0
    0.7914    4.7219   -1.9081 H   0  0  0  0  0  0  0  0  0  0  0  0
   -0.8754    4.1368   -1.7137 H   0  0  0  0  0  0  0  0  0  0  0  0
    0.1387   -0.5629   -1.6903 H   0  0  0  0  0  0  0  0  0  0  0  0
    3.2796   -2.5428    2.4064 H   0  0  0  0  0  0  0  0  0  0  0  0
    4.8925    0.0955   -1.0289 H   0  0  0  0  0  0  0  0  0  0  0  0
   -2.7026   -2.5694   -1.2371 H   0  0  0  0  0  0  0  0  0  0  0  0
   -5.1211    0.1680    1.0189 H   0  0  0  0  0  0  0  0  0  0  0  0
   -2.3850    2.3673    1.5606 H   0  0  0  0  0  0  0  0  0  0  0  0
   -4.8410   -2.8568   -0.8574 H   0  0  0  0  0  0  0  0  0  0  0  0
  1  7  1  0  0  0  0
  1 41  1  0  0  0  0
  2  9  1  0  0  0  0
  2 42  1  0  0  0  0
  3 11  1  0  0  0  0
  3 20  1  0  0  0  0
  4 22  1  0  0  0  0
  4 45  1  0  0  0  0
  5 20  2  0  0  0  0
  6 23  1  0  0  0  0
  6 46  1  0  0  0  0
  7  8  1  0  0  0  0
  7  9  1  0  0  0  0
  7 25  1  0  0  0  0
  8 10  1  0  0  0  0
  8 26  1  0  0  0  0
  8 27  1  0  0  0  0
  9 13  1  0  0  0  0
  9 28  1  0  0  0  0
 10 15  1  0  0  0  0
 10 29  1  0  0  0  0
 10 30  1  0  0  0  0
 11 12  1  0  0  0  0
 11 17  1  0  0  0  0
 11 31  1  0  0  0  0
 12 14  1  0  0  0  0
 12 32  1  0  0  0  0
 12 33  1  0  0  0  0
 13 14  2  0  0  0  0
 13 34  1  0  0  0  0
 14 35  1  0  0  0  0
 15 18  2  0  0  0  0
 15 36  1  0  0  0  0
 16 18  1  0  0  0  0
 16 19  2  0  0  0  0
 16 21  1  0  0  0  0
 17 37  1  0  0  0  0
 17 38  1  0  0  0  0
 17 39  1  0  0  0  0
 18 40  1  0  0  0  0
 19 20  1  0  0  0  0
 19 22  1  0  0  0  0
 21 23  2  0  0  0  0
 21 43  1  0  0  0  0
 22 24  2  0  0  0  0
 23 24  1  0  0  0  0
 24 44  1  0  0  0  0
M  END
> <PUBCHEM_COMPOUND_CID>
133556521

> <PUBCHEM_CONFORMER_RMSD>
0.6

> <PUBCHEM_CONFORMER_DIVERSEORDER>
1
7
31
68
61
19
9
63
53
71
59
8
64
18
3
40
48
22
4
5
60
39
45
50
12
49
47
52
57
28
24
16
23
10
51
20
62
29
30
38
14
66
35
58
41
69
27
11
15
37
26
42
70
34
67
43
44
55
21
32
25
65
6
33
36
54
46
17
56
2
13

> <PUBCHEM_MMFF94_PARTIAL_CHARGES>
32
1 -0.68
10 0.14
11 0.28
12 0.14
13 -0.29
14 -0.29
15 -0.29
16 0.03
18 -0.18
19 0.09
2 -0.68
20 0.63
21 -0.15
22 0.08
23 0.08
24 -0.15
3 -0.43
34 0.15
35 0.15
36 0.15
4 -0.53
40 0.15
41 0.4
42 0.4
43 0.15
44 0.15
45 0.45
46 0.45
5 -0.57
6 -0.53
7 0.28
9 0.42

> <PUBCHEM_EFFECTIVE_ROTOR_COUNT>
1.4

> <PUBCHEM_PHARMACOPHORE_FEATURES>
8
1 1 acceptor
1 1 donor
1 2 acceptor
1 2 donor
1 4 donor
1 5 acceptor
1 6 donor
6 16 19 21 22 23 24 rings

> <PUBCHEM_HEAVY_ATOM_COUNT>
24

> <PUBCHEM_ATOM_DEF_STEREO_COUNT>
0

> <PUBCHEM_ATOM_UDEF_STEREO_COUNT>
3

> <PUBCHEM_BOND_DEF_STEREO_COUNT>
2

> <PUBCHEM_BOND_UDEF_STEREO_COUNT>
0

> <PUBCHEM_ISOTOPIC_ATOM_COUNT>
0

> <PUBCHEM_COMPONENT_COUNT>
1

> <PUBCHEM_CACTVS_TAUTO_COUNT>
37

> <PUBCHEM_CONFORMER_ID>
07F5E92900000001

> <PUBCHEM_MMFF94_ENERGY>
60.1593

> <PUBCHEM_FEATURE_SELFOVERLAP>
40.606

> <PUBCHEM_SHAPE_FINGERPRINT>
10062212 137 18201156646130145991
10616163 171 18272937115481752187
10708813 3 18342465836996760152
1100329 8 17908135839259900144
11513181 2 17489030353346368407
11578080 2 17822846468885023599
12035758 1 17903638480410655753
12156800 1 13606422644297195814
12422481 6 18197199379122344826
12553582 1 18335979788203540350
12592029 89 18120381105820547811
12633257 1 18195244408408441562
13140716 1 18341609257214040203
14840074 17 18116138056464372560
15463212 79 17109312144425694621
17349148 13 18272365408490726823
17492 54 18116169925015616524
17818456 19 18200606791469324393
1813 80 18260556580314321953
19591789 44 17404304491487067271
20645476 183 17543638985661642317
20691752 17 18260558804838316874
20739085 24 18409172129406530844
21421861 104 18269016300504683907
2255824 54 18118129301390616292
23419403 2 15615729841258245134
23559900 14 17487635038672634647
25147074 1 18059303158279496931
2748010 2 17477201626913164374
2818148 4 17839768988087573142
4409770 3 16826165330309820454
474 4 18191303986251532326
484985 159 15512737178684212538
5312544 6 17904482153488947631
6287921 2 18131635577698571398
7064713 232 17988077781703242074
90316 7 18047192955909708187
9925002 15 17342629465195771391

> <PUBCHEM_SHAPE_MULTIPOLES>
458.69
7.7
4.2
1.37
3.64
1.55
-0.12
-3.76
-1.79
-2.13
1.65
-0.28
0.48
-1.15

> <PUBCHEM_SHAPE_SELFOVERLAP>
955.841

> <PUBCHEM_SHAPE_VOLUME>
258.5

> <PUBCHEM_COORDINATE_TYPE>
2
5
10

$$$$
