133565265
  -OEChem-03292013293D

 51 53  0     1  0  0  0  0  0999 V2000
    0.8400   -0.9237   -0.1495 O   0  0  0  0  0  0  0  0  0  0  0  0
    4.7216    1.1829   -0.2955 O   0  5  0  0  0  0  0  0  0  0  0  0
   -0.8118    1.7663   -0.6812 O   0  0  0  0  0  0  0  0  0  0  0  0
   -3.6364    1.0947    1.4228 O   0  0  0  0  0  0  0  0  0  0  0  0
    0.3359   -2.8374   -1.3474 O   0  0  0  0  0  0  0  0  0  0  0  0
   -1.4763    2.6413    1.3483 O   0  0  0  0  0  0  0  0  0  0  0  0
   -3.2180    1.3165   -2.1529 O   0  0  0  0  0  0  0  0  0  0  0  0
    3.5784    0.6126    0.1925 N   0  3  1  0  0  0  0  0  0  0  0  0
    2.3893    0.8744   -0.7488 C   0  0  1  0  0  0  0  0  0  0  0  0
    1.8352   -0.5139   -1.1066 C   0  0  1  0  0  0  0  0  0  0  0  0
    3.7331   -0.8832    0.2690 C   0  0  0  0  0  0  0  0  0  0  0  0
    3.0800   -1.3914   -1.0029 C   0  0  0  0  0  0  0  0  0  0  0  0
    3.1795    1.2560    1.5095 C   0  0  0  0  0  0  0  0  0  0  0  0
    1.5097    1.8527   -0.0247 C   0  0  0  0  0  0  0  0  0  0  0  0
    1.9630    2.0675    1.2164 C   0  0  0  0  0  0  0  0  0  0  0  0
    0.3795    2.5705   -0.6798 C   0  0  0  0  0  0  0  0  0  0  0  0
    0.1572   -2.0712   -0.4125 C   0  0  0  0  0  0  0  0  0  0  0  0
   -2.5267   -0.4388   -0.0928 C   0  0  1  0  0  0  0  0  0  0  0  0
   -2.9055    1.0398    0.1993 C   0  0  2  0  0  0  0  0  0  0  0  0
   -1.6928   -1.0563    1.0649 C   0  0  0  0  0  0  0  0  0  0  0  0
   -0.8911   -2.2523    0.6214 C   0  0  0  0  0  0  0  0  0  0  0  0
   -1.6610    1.9112    0.3817 C   0  0  0  0  0  0  0  0  0  0  0  0
   -3.7673    1.6712   -0.8995 C   0  0  0  0  0  0  0  0  0  0  0  0
   -3.7617   -1.3181   -0.3556 C   0  0  0  0  0  0  0  0  0  0  0  0
   -1.0695   -3.4944    1.0898 C   0  0  0  0  0  0  0  0  0  0  0  0
   -0.2846   -4.6770    0.6340 C   0  0  0  0  0  0  0  0  0  0  0  0
    2.8322    1.3404   -1.6391 H   0  0  0  0  0  0  0  0  0  0  0  0
    1.3940   -0.5162   -2.1096 H   0  0  0  0  0  0  0  0  0  0  0  0
    3.2014   -1.2464    1.1535 H   0  0  0  0  0  0  0  0  0  0  0  0
    4.7974   -1.1237    0.3448 H   0  0  0  0  0  0  0  0  0  0  0  0
    3.7381   -1.2198   -1.8626 H   0  0  0  0  0  0  0  0  0  0  0  0
    2.8698   -2.4612   -0.9295 H   0  0  0  0  0  0  0  0  0  0  0  0
    4.0181    1.8762    1.8402 H   0  0  0  0  0  0  0  0  0  0  0  0
    2.9700    0.4798    2.2493 H   0  0  0  0  0  0  0  0  0  0  0  0
    1.5244    2.7588    1.9216 H   0  0  0  0  0  0  0  0  0  0  0  0
    0.1887    3.5420   -0.2076 H   0  0  0  0  0  0  0  0  0  0  0  0
    0.6304    2.7850   -1.7243 H   0  0  0  0  0  0  0  0  0  0  0  0
   -1.9196   -0.4671   -1.0068 H   0  0  0  0  0  0  0  0  0  0  0  0
   -2.3605   -1.3289    1.8928 H   0  0  0  0  0  0  0  0  0  0  0  0
   -0.9959   -0.3222    1.4852 H   0  0  0  0  0  0  0  0  0  0  0  0
   -3.7892    2.7638   -0.8149 H   0  0  0  0  0  0  0  0  0  0  0  0
   -4.8036    1.3198   -0.8467 H   0  0  0  0  0  0  0  0  0  0  0  0
   -4.4388   -1.3228    0.5049 H   0  0  0  0  0  0  0  0  0  0  0  0
   -3.4725   -2.3544   -0.5592 H   0  0  0  0  0  0  0  0  0  0  0  0
   -4.3247   -0.9735   -1.2278 H   0  0  0  0  0  0  0  0  0  0  0  0
   -1.8426   -3.6778    1.8315 H   0  0  0  0  0  0  0  0  0  0  0  0
   -3.9484    2.0072    1.5487 H   0  0  0  0  0  0  0  0  0  0  0  0
   -3.7783    1.7207   -2.8370 H   0  0  0  0  0  0  0  0  0  0  0  0
   -0.7061   -5.0966   -0.2844 H   0  0  0  0  0  0  0  0  0  0  0  0
   -0.3416   -5.4566    1.4024 H   0  0  0  0  0  0  0  0  0  0  0  0
    0.7804   -4.4650    0.5012 H   0  0  0  0  0  0  0  0  0  0  0  0
  1 10  1  0  0  0  0
  1 17  1  0  0  0  0
  2  8  1  0  0  0  0
  3 16  1  0  0  0  0
  3 22  1  0  0  0  0
  4 19  1  0  0  0  0
  4 47  1  0  0  0  0
  5 17  2  0  0  0  0
  6 22  2  0  0  0  0
  7 23  1  0  0  0  0
  7 48  1  0  0  0  0
  8  9  1  0  0  0  0
  8 11  1  0  0  0  0
  8 13  1  0  0  0  0
  9 10  1  0  0  0  0
  9 14  1  0  0  0  0
  9 27  1  0  0  0  0
 10 12  1  0  0  0  0
 10 28  1  0  0  0  0
 11 12  1  0  0  0  0
 11 29  1  0  0  0  0
 11 30  1  0  0  0  0
 12 31  1  0  0  0  0
 12 32  1  0  0  0  0
 13 15  1  0  0  0  0
 13 33  1  0  0  0  0
 13 34  1  0  0  0  0
 14 15  2  0  0  0  0
 14 16  1  0  0  0  0
 15 35  1  0  0  0  0
 16 36  1  0  0  0  0
 16 37  1  0  0  0  0
 17 21  1  0  0  0  0
 18 19  1  0  0  0  0
 18 20  1  0  0  0  0
 18 24  1  0  0  0  0
 18 38  1  0  0  0  0
 19 22  1  0  0  0  0
 19 23  1  0  0  0  0
 20 21  1  0  0  0  0
 20 39  1  0  0  0  0
 20 40  1  0  0  0  0
 21 25  2  0  0  0  0
 23 41  1  0  0  0  0
 23 42  1  0  0  0  0
 24 43  1  0  0  0  0
 24 44  1  0  0  0  0
 24 45  1  0  0  0  0
 25 26  1  0  0  0  0
 25 46  1  0  0  0  0
 26 49  1  0  0  0  0
 26 50  1  0  0  0  0
 26 51  1  0  0  0  0
M  CHG  2   2  -1   8   1
M  END
> <PUBCHEM_COMPOUND_CID>
133565265

> <PUBCHEM_CONFORMER_RMSD>
0.6

> <PUBCHEM_CONFORMER_DIVERSEORDER>
1
4
23
32
33
19
10
15
14
22
34
16
28
27
9
18
17
6
36
3
26
20
35
5
7
12
31
11
2
25
29
21
30
13
24
8

> <PUBCHEM_MMFF94_PARTIAL_CHARGES>
27
1 -0.43
10 0.28
11 0.26
13 0.39
14 -0.28
15 -0.29
16 0.42
17 0.71
19 0.34
2 -0.75
20 0.14
21 -0.12
22 0.66
23 0.28
25 -0.29
26 0.14
3 -0.43
35 0.15
4 -0.68
46 0.15
47 0.4
48 0.4
5 -0.57
6 -0.57
7 -0.68
8 -0.02
9 0.39

> <PUBCHEM_EFFECTIVE_ROTOR_COUNT>
2.8

> <PUBCHEM_PHARMACOPHORE_FEATURES>
10
1 2 anion
1 26 hydrophobe
1 4 acceptor
1 4 donor
1 5 acceptor
1 6 acceptor
1 7 acceptor
1 7 donor
5 8 9 10 11 12 rings
5 8 9 13 14 15 rings

> <PUBCHEM_HEAVY_ATOM_COUNT>
26

> <PUBCHEM_ATOM_DEF_STEREO_COUNT>
3

> <PUBCHEM_ATOM_UDEF_STEREO_COUNT>
2

> <PUBCHEM_BOND_DEF_STEREO_COUNT>
1

> <PUBCHEM_BOND_UDEF_STEREO_COUNT>
0

> <PUBCHEM_ISOTOPIC_ATOM_COUNT>
0

> <PUBCHEM_COMPONENT_COUNT>
1

> <PUBCHEM_CACTVS_TAUTO_COUNT>
1

> <PUBCHEM_CONFORMER_ID>
07F60B5100000001

> <PUBCHEM_MMFF94_ENERGY>
66.1672

> <PUBCHEM_FEATURE_SELFOVERLAP>
51.054

> <PUBCHEM_SHAPE_FINGERPRINT>
10366900 7 17988921189069652536
10759866 29 18113909303323371620
108634 29 18267866257901186566
1100329 8 16464173091063254865
11370993 70 18336822005093578149
11578080 2 16698355289471736562
12011746 2 18413108389951055268
12077114 3 18335418019055005970
12156800 1 16544038759651664131
12553582 1 16969990848426436418
12633257 1 18343017774944354376
13140716 1 18339367357326339555
13224815 77 18413109459023430365
13402501 40 18411706495028903614
13583140 156 16298382513099046813
14178342 30 18268997496589696953
14223421 5 17833833050888568896
14251745 187 18342736278265810520
15209289 33 18197790903192329804
16728300 4 17605247645585953946
18219364 16 18262811665920445993
20691752 17 18259988154219562881
20905425 154 17691408512180105446
21524375 3 18411420605069035919
2334 1 18339646736554227325
23559900 14 18412267238403265516
238 59 18201423753818798525
2748010 2 18411146856526812167
35225 105 18042106812429889970
70251023 43 17695062194220950991
81228 2 18046354299152745251
9709674 26 18341618182440956678

> <PUBCHEM_SHAPE_MULTIPOLES>
489
6.69
4.39
1.4
1.77
4.36
0.05
-2.65
0.35
-1.6
-0.77
-0.27
-0.28
0.99

> <PUBCHEM_SHAPE_SELFOVERLAP>
1032.542

> <PUBCHEM_SHAPE_VOLUME>
272.3

> <PUBCHEM_COORDINATE_TYPE>
2
5
10

$$$$
