133562450
  -OEChem-03292013293D

 58 61  0     1  0  0  0  0  0999 V2000
    5.9307   -0.5354    1.3764 O   0  0  0  0  0  0  0  0  0  0  0  0
    3.2116   -0.5759    1.7961 O   0  0  0  0  0  0  0  0  0  0  0  0
    2.7655   -1.0405   -0.4926 O   0  0  0  0  0  0  0  0  0  0  0  0
    5.2062   -0.8887   -2.1226 O   0  0  0  0  0  0  0  0  0  0  0  0
    4.7917    2.5339    1.8819 O   0  0  0  0  0  0  0  0  0  0  0  0
   -4.1649   -2.0281    0.4770 O   0  0  0  0  0  0  0  0  0  0  0  0
   -6.8524   -2.1279    1.2523 O   0  0  0  0  0  0  0  0  0  0  0  0
   -5.4827    1.9956   -0.5708 O   0  0  0  0  0  0  0  0  0  0  0  0
   -7.5071    1.1466    0.2854 N   0  0  0  0  0  0  0  0  0  0  0  0
    5.0715   -0.7674    0.2480 C   0  0  2  0  0  0  0  0  0  0  0  0
    5.4578    0.6277    0.6809 C   0  0  1  0  0  0  0  0  0  0  0  0
    3.6735   -1.2332    0.6034 C   0  0  1  0  0  0  0  0  0  0  0  0
    3.0933    0.8307    1.6117 C   0  0  2  0  0  0  0  0  0  0  0  0
    2.1254    1.1201    0.4521 C   0  0  2  0  0  0  0  0  0  0  0  0
    4.4821    1.4312    1.4467 C   0  0  0  0  0  0  0  0  0  0  0  0
    2.5318    0.3378   -0.8137 C   0  0  2  0  0  0  0  0  0  0  0  0
    5.7729   -1.3855   -0.9210 C   0  0  0  0  0  0  0  0  0  0  0  0
    3.6564   -2.7283    0.9234 C   0  0  0  0  0  0  0  0  0  0  0  0
    1.4548    0.3586   -1.8941 C   0  0  1  0  0  0  0  0  0  0  0  0
    1.9611    2.6179    0.2005 C   0  0  0  0  0  0  0  0  0  0  0  0
    1.9018   -0.4485   -3.1154 C   0  0  0  0  0  0  0  0  0  0  0  0
    0.1623   -0.2096   -1.3504 C   0  0  0  0  0  0  0  0  0  0  0  0
   -1.0411    0.3910   -1.2292 C   0  0  0  0  0  0  0  0  0  0  0  0
   -1.3242    1.8092   -1.6510 C   0  0  0  0  0  0  0  0  0  0  0  0
   -2.1505   -0.3788   -0.6551 C   0  0  0  0  0  0  0  0  0  0  0  0
   -3.4096    0.0515   -0.4592 C   0  0  0  0  0  0  0  0  0  0  0  0
   -4.4881   -0.7352    0.1133 C   0  0  0  0  0  0  0  0  0  0  0  0
   -5.7241   -0.2439    0.2815 C   0  0  0  0  0  0  0  0  0  0  0  0
   -6.8729   -0.9758    0.8541 C   0  0  0  0  0  0  0  0  0  0  0  0
   -6.1622    1.1163   -0.0747 C   0  0  0  0  0  0  0  0  0  0  0  0
   -8.0708   -0.0656    0.8650 C   0  0  0  0  0  0  0  0  0  0  0  0
    6.1682    1.1752    0.0735 H   0  0  0  0  0  0  0  0  0  0  0  0
    2.6830    1.2338    2.5453 H   0  0  0  0  0  0  0  0  0  0  0  0
    1.1610    0.7326    0.8055 H   0  0  0  0  0  0  0  0  0  0  0  0
    3.4465    0.7689   -1.2363 H   0  0  0  0  0  0  0  0  0  0  0  0
    5.6966   -2.4759   -0.9156 H   0  0  0  0  0  0  0  0  0  0  0  0
    6.8383   -1.1288   -0.9219 H   0  0  0  0  0  0  0  0  0  0  0  0
    2.6631   -3.0290    1.2780 H   0  0  0  0  0  0  0  0  0  0  0  0
    4.3711   -2.9765    1.7155 H   0  0  0  0  0  0  0  0  0  0  0  0
    3.8739   -3.3412    0.0432 H   0  0  0  0  0  0  0  0  0  0  0  0
    1.3264    1.3885   -2.2344 H   0  0  0  0  0  0  0  0  0  0  0  0
    1.7646    3.1482    1.1386 H   0  0  0  0  0  0  0  0  0  0  0  0
    1.1230    2.8276   -0.4668 H   0  0  0  0  0  0  0  0  0  0  0  0
    2.8612    3.0493   -0.2496 H   0  0  0  0  0  0  0  0  0  0  0  0
    5.6822   -1.3082   -2.8593 H   0  0  0  0  0  0  0  0  0  0  0  0
    2.0443   -1.5109   -2.8884 H   0  0  0  0  0  0  0  0  0  0  0  0
    1.1538   -0.3823   -3.9140 H   0  0  0  0  0  0  0  0  0  0  0  0
    2.8434   -0.0577   -3.5156 H   0  0  0  0  0  0  0  0  0  0  0  0
    0.2423   -1.2479   -1.0233 H   0  0  0  0  0  0  0  0  0  0  0  0
   -1.5892    2.4227   -0.7829 H   0  0  0  0  0  0  0  0  0  0  0  0
   -2.1499    1.8401   -2.3710 H   0  0  0  0  0  0  0  0  0  0  0  0
   -0.4833    2.2987   -2.1446 H   0  0  0  0  0  0  0  0  0  0  0  0
   -1.9025   -1.3999   -0.3676 H   0  0  0  0  0  0  0  0  0  0  0  0
   -3.6051    1.0681   -0.7550 H   0  0  0  0  0  0  0  0  0  0  0  0
   -8.8665   -0.4355    0.2169 H   0  0  0  0  0  0  0  0  0  0  0  0
   -8.4088    0.1470    1.8802 H   0  0  0  0  0  0  0  0  0  0  0  0
   -4.9495   -2.4651    0.8460 H   0  0  0  0  0  0  0  0  0  0  0  0
   -8.0719    1.9790    0.1491 H   0  0  0  0  0  0  0  0  0  0  0  0
  1 10  1  0  0  0  0
  1 11  1  0  0  0  0
  2 12  1  0  0  0  0
  2 13  1  0  0  0  0
  3 12  1  0  0  0  0
  3 16  1  0  0  0  0
  4 17  1  0  0  0  0
  4 45  1  0  0  0  0
  5 15  2  0  0  0  0
  6 27  1  0  0  0  0
  6 57  1  0  0  0  0
  7 29  2  0  0  0  0
  8 30  2  0  0  0  0
  9 30  1  0  0  0  0
  9 31  1  0  0  0  0
  9 58  1  0  0  0  0
 10 11  1  0  0  0  0
 10 12  1  0  0  0  0
 10 17  1  0  0  0  0
 11 15  1  0  0  0  0
 11 32  1  0  0  0  0
 12 18  1  0  0  0  0
 13 14  1  0  0  0  0
 13 15  1  0  0  0  0
 13 33  1  0  0  0  0
 14 16  1  0  0  0  0
 14 20  1  0  0  0  0
 14 34  1  0  0  0  0
 16 19  1  0  0  0  0
 16 35  1  0  0  0  0
 17 36  1  0  0  0  0
 17 37  1  0  0  0  0
 18 38  1  0  0  0  0
 18 39  1  0  0  0  0
 18 40  1  0  0  0  0
 19 21  1  0  0  0  0
 19 22  1  0  0  0  0
 19 41  1  0  0  0  0
 20 42  1  0  0  0  0
 20 43  1  0  0  0  0
 20 44  1  0  0  0  0
 21 46  1  0  0  0  0
 21 47  1  0  0  0  0
 21 48  1  0  0  0  0
 22 23  2  0  0  0  0
 22 49  1  0  0  0  0
 23 24  1  0  0  0  0
 23 25  1  0  0  0  0
 24 50  1  0  0  0  0
 24 51  1  0  0  0  0
 24 52  1  0  0  0  0
 25 26  2  0  0  0  0
 25 53  1  0  0  0  0
 26 27  1  0  0  0  0
 26 54  1  0  0  0  0
 27 28  2  0  0  0  0
 28 29  1  0  0  0  0
 28 30  1  0  0  0  0
 29 31  1  0  0  0  0
 31 55  1  0  0  0  0
 31 56  1  0  0  0  0
M  END
> <PUBCHEM_COMPOUND_CID>
133562450

> <PUBCHEM_CONFORMER_RMSD>
0.8

> <PUBCHEM_CONFORMER_DIVERSEORDER>
1
217
120
150
239
251
242
180
302
34
207
91
90
219
146
189
208
29
286
275
283
212
285
287
175
229
216
234
127
182
213
218
247
282
177
241
215
292
174
140
77
49
291
203
245
279
44
159
149
165
167
70
281
47
35
198
260
25
298
144
244
73
206
236
121
86
250
139
130
259
62
232
166
16
280
221
76
253
153
28
8
164
132
277
162
188
52
262
83
145
163
114
84
158
303
45
7
123
176
257
103
243
226
238
202
289
67
36
46
61
20
230
30
294
19
161
155
193
102
156
169
93
258
79
11
15
231
18
154
60
125
210
268
9
186
152
134
112
278
185
273
78
56
115
225
178
240
248
22
295
122
138
14
128
111
179
5
170
54
171
137
4
66
194
71
293
168
197
65
136
297
272
233
119
98
13
199
284
274
124
50
235
190
57
72
58
80
23
184
151
89
97
37
263
290
254
223
118
59
133
147
266
81
82
222
305
63
64
148
68
227
117
116
42
24
196
304
69
6
17
104
264
172
38
204
43
256
106
51
255
143
113
110
270
101
252
10
41
100
265
142
55
269
191
96
261
53
32
211
2
26
31
135
228
109
48
27
141
246
94
39
95
195
183
40
108
3
12
209
99
88
74
75
205
288
33
92
276
105
107
131
160
249
87
224
173
157
201
237
129
192
126
21
85
181
220
187
200
214

> <PUBCHEM_MMFF94_PARTIAL_CHARGES>
34
1 -0.3
10 -0.04
11 0.05
12 0.65
13 0.34
15 0.51
16 0.28
17 0.38
19 0.14
2 -0.56
22 -0.29
23 -0.14
24 0.14
25 -0.15
26 -0.15
27 0.08
28 0.03
29 0.49
3 -0.56
30 0.62
31 0.36
32 0.1
4 -0.68
45 0.4
49 0.15
5 -0.57
53 0.15
54 0.15
57 0.45
58 0.37
6 -0.53
7 -0.57
8 -0.57
9 -0.73

> <PUBCHEM_EFFECTIVE_ROTOR_COUNT>
6.4

> <PUBCHEM_PHARMACOPHORE_FEATURES>
16
1 1 acceptor
1 2 acceptor
1 21 hydrophobe
1 24 hydrophobe
1 28 anion
1 3 acceptor
1 4 acceptor
1 4 donor
1 5 acceptor
1 6 donor
1 7 acceptor
1 8 acceptor
1 9 donor
5 9 28 29 30 31 rings
6 2 3 12 13 14 16 rings
7 1 2 10 11 12 13 15 rings

> <PUBCHEM_HEAVY_ATOM_COUNT>
31

> <PUBCHEM_ATOM_DEF_STEREO_COUNT>
2

> <PUBCHEM_ATOM_UDEF_STEREO_COUNT>
5

> <PUBCHEM_BOND_DEF_STEREO_COUNT>
3

> <PUBCHEM_BOND_UDEF_STEREO_COUNT>
0

> <PUBCHEM_ISOTOPIC_ATOM_COUNT>
0

> <PUBCHEM_COMPONENT_COUNT>
1

> <PUBCHEM_CACTVS_TAUTO_COUNT>
207

> <PUBCHEM_CONFORMER_ID>
07F6005200000001

> <PUBCHEM_MMFF94_ENERGY>
76.9601

> <PUBCHEM_FEATURE_SELFOVERLAP>
81.963

> <PUBCHEM_SHAPE_FINGERPRINT>
10 15 18131353042534260149
10299344 5 17095248008005875623
10319926 262 18408044018224455613
11443803 9 16733562615200304334
117089 54 17696198011202973462
12516196 113 17530965782753645501
12522641 33 15575860476531594294
12596602 18 18131067181884588635
12778500 126 18202002118625986736
13685833 64 15647054867678354463
14251764 18 17458069274608479879
14341114 176 18342737424969376377
14347332 77 15357688678951443167
15003188 100 10447922892905962123
15183329 4 15430037660776863657
15348495 7 18201155559297795811
15475509 35 18188199910961983466
15721738 202 17312827069665584228
15799311 1 14996289093968954225
15840311 113 15769768071142605290
17134984 74 13479137903845702688
17492 89 14347454019622714464
1813 80 16371002984107386663
20715895 44 10807929375634850670
21792934 111 18334295358666932077
21859007 373 18269554945291373221
23559900 14 18129401374655386149
2838139 119 15051729777297646395
3004659 81 16877667876593706863
3178227 256 18341322337300505914
3383291 50 17531251712424378627
3411729 13 18265901448277409172
351380 3 16660360381284370875
397830 11 17988927833721442239
439807 62 12540688211447762377

> <PUBCHEM_SHAPE_MULTIPOLES>
586.03
20.68
2.2
2.02
36.43
0.12
0.99
-3.6
-8.24
-0.72
-0.7
-2.74
0.18
2.11

> <PUBCHEM_SHAPE_SELFOVERLAP>
1253.994

> <PUBCHEM_SHAPE_VOLUME>
321.6

> <PUBCHEM_COORDINATE_TYPE>
2
5
10

$$$$
