133561811
  -OEChem-03292013293D

 57 58  0     1  0  0  0  0  0999 V2000
   -3.1468   -1.0087   -0.5699 O   0  0  0  0  0  0  0  0  0  0  0  0
    2.8994   -0.4776    1.9609 O   0  0  0  0  0  0  0  0  0  0  0  0
   -1.5681   -1.8227    0.9429 O   0  0  0  0  0  0  0  0  0  0  0  0
   -4.2950    1.9592    2.0264 O   0  0  0  0  0  0  0  0  0  0  0  0
   -4.9938    2.1473   -0.7724 O   0  0  0  0  0  0  0  0  0  0  0  0
   -1.6862    0.6294    2.3513 O   0  0  0  0  0  0  0  0  0  0  0  0
    4.3967    2.2553   -2.4637 O   0  0  0  0  0  0  0  0  0  0  0  0
   -3.9628   -1.1531   -3.2004 O   0  0  0  0  0  0  0  0  0  0  0  0
    4.1187   -0.5651   -0.1482 C   0  0  0  0  0  0  0  0  0  0  0  0
    2.7956   -0.1122    0.5763 C   0  0  2  0  0  0  0  0  0  0  0  0
    4.1797    0.0461   -1.5637 C   0  0  0  0  0  0  0  0  0  0  0  0
    2.6077    1.4013    0.4967 C   0  0  0  0  0  0  0  0  0  0  0  0
   -3.5184    1.3843    0.9743 C   0  0  2  0  0  0  0  0  0  0  0  0
    4.2140   -2.1044   -0.2790 C   0  0  0  0  0  0  0  0  0  0  0  0
    5.3749   -0.1202    0.6511 C   0  0  0  0  0  0  0  0  0  0  0  0
   -4.4720    0.9766   -0.1490 C   0  0  2  0  0  0  0  0  0  0  0  0
   -2.7482    0.1778    1.5112 C   0  0  1  0  0  0  0  0  0  0  0  0
   -2.1426   -0.6461    0.3749 C   0  0  2  0  0  0  0  0  0  0  0  0
   -3.7466    0.1272   -1.1953 C   0  0  2  0  0  0  0  0  0  0  0  0
    1.5578   -0.7801    0.0259 C   0  0  0  0  0  0  0  0  0  0  0  0
    3.9583    1.5420   -1.5622 C   0  0  0  0  0  0  0  0  0  0  0  0
    3.1479    2.1493   -0.4799 C   0  0  0  0  0  0  0  0  0  0  0  0
   -0.4489   -2.2731    0.1840 C   0  0  1  0  0  0  0  0  0  0  0  0
    0.7803   -1.6120    0.7342 C   0  0  0  0  0  0  0  0  0  0  0  0
    1.7545    2.0578    1.5526 C   0  0  0  0  0  0  0  0  0  0  0  0
   -4.7027   -0.3887   -2.2660 C   0  0  0  0  0  0  0  0  0  0  0  0
   -0.3532   -3.7896    0.2871 C   0  0  0  0  0  0  0  0  0  0  0  0
    3.4218   -0.3961   -2.2211 H   0  0  0  0  0  0  0  0  0  0  0  0
    5.1603   -0.1492   -2.0153 H   0  0  0  0  0  0  0  0  0  0  0  0
   -2.8341    2.1710    0.6355 H   0  0  0  0  0  0  0  0  0  0  0  0
   -5.3211    0.4235    0.2707 H   0  0  0  0  0  0  0  0  0  0  0  0
   -3.3984   -0.4491    2.1329 H   0  0  0  0  0  0  0  0  0  0  0  0
    3.4024   -2.5143   -0.8894 H   0  0  0  0  0  0  0  0  0  0  0  0
    6.2933   -0.3775    0.1100 H   0  0  0  0  0  0  0  0  0  0  0  0
    5.1520   -2.3934   -0.7685 H   0  0  0  0  0  0  0  0  0  0  0  0
    4.1923   -2.6056    0.6936 H   0  0  0  0  0  0  0  0  0  0  0  0
    5.3971    0.9588    0.8312 H   0  0  0  0  0  0  0  0  0  0  0  0
    5.4277   -0.6175    1.6260 H   0  0  0  0  0  0  0  0  0  0  0  0
   -2.9586    0.7066   -1.6956 H   0  0  0  0  0  0  0  0  0  0  0  0
   -1.3684   -0.0474   -0.1252 H   0  0  0  0  0  0  0  0  0  0  0  0
    1.2955   -0.5737   -1.0097 H   0  0  0  0  0  0  0  0  0  0  0  0
    2.9991    3.2229   -0.5264 H   0  0  0  0  0  0  0  0  0  0  0  0
   -0.5887   -2.0342   -0.8793 H   0  0  0  0  0  0  0  0  0  0  0  0
    1.0008   -1.8418    1.7728 H   0  0  0  0  0  0  0  0  0  0  0  0
    3.1823   -1.4036    2.0307 H   0  0  0  0  0  0  0  0  0  0  0  0
    0.7822    1.5690    1.6090 H   0  0  0  0  0  0  0  0  0  0  0  0
    1.5780    3.1181    1.3422 H   0  0  0  0  0  0  0  0  0  0  0  0
    2.2377    1.9915    2.5325 H   0  0  0  0  0  0  0  0  0  0  0  0
   -5.1933    0.4330   -2.7963 H   0  0  0  0  0  0  0  0  0  0  0  0
   -5.4637   -1.0428   -1.8275 H   0  0  0  0  0  0  0  0  0  0  0  0
   -4.9040    1.2782    2.3595 H   0  0  0  0  0  0  0  0  0  0  0  0
   -4.2495    2.6381   -1.1606 H   0  0  0  0  0  0  0  0  0  0  0  0
   -1.2204    1.3395    1.8809 H   0  0  0  0  0  0  0  0  0  0  0  0
   -0.2615   -4.1117    1.3308 H   0  0  0  0  0  0  0  0  0  0  0  0
    0.5024   -4.1779   -0.2750 H   0  0  0  0  0  0  0  0  0  0  0  0
   -1.2660   -4.2536   -0.1025 H   0  0  0  0  0  0  0  0  0  0  0  0
   -4.5907   -1.4745   -3.8697 H   0  0  0  0  0  0  0  0  0  0  0  0
  1 18  1  0  0  0  0
  1 19  1  0  0  0  0
  2 10  1  0  0  0  0
  2 45  1  0  0  0  0
  3 18  1  0  0  0  0
  3 23  1  0  0  0  0
  4 13  1  0  0  0  0
  4 51  1  0  0  0  0
  5 16  1  0  0  0  0
  5 52  1  0  0  0  0
  6 17  1  0  0  0  0
  6 53  1  0  0  0  0
  7 21  2  0  0  0  0
  8 26  1  0  0  0  0
  8 57  1  0  0  0  0
  9 10  1  0  0  0  0
  9 11  1  0  0  0  0
  9 14  1  0  0  0  0
  9 15  1  0  0  0  0
 10 12  1  0  0  0  0
 10 20  1  0  0  0  0
 11 21  1  0  0  0  0
 11 28  1  0  0  0  0
 11 29  1  0  0  0  0
 12 22  2  0  0  0  0
 12 25  1  0  0  0  0
 13 16  1  0  0  0  0
 13 17  1  0  0  0  0
 13 30  1  0  0  0  0
 14 33  1  0  0  0  0
 14 35  1  0  0  0  0
 14 36  1  0  0  0  0
 15 34  1  0  0  0  0
 15 37  1  0  0  0  0
 15 38  1  0  0  0  0
 16 19  1  0  0  0  0
 16 31  1  0  0  0  0
 17 18  1  0  0  0  0
 17 32  1  0  0  0  0
 18 40  1  0  0  0  0
 19 26  1  0  0  0  0
 19 39  1  0  0  0  0
 20 24  2  0  0  0  0
 20 41  1  0  0  0  0
 21 22  1  0  0  0  0
 22 42  1  0  0  0  0
 23 24  1  0  0  0  0
 23 27  1  0  0  0  0
 23 43  1  0  0  0  0
 24 44  1  0  0  0  0
 25 46  1  0  0  0  0
 25 47  1  0  0  0  0
 25 48  1  0  0  0  0
 26 49  1  0  0  0  0
 26 50  1  0  0  0  0
 27 54  1  0  0  0  0
 27 55  1  0  0  0  0
 27 56  1  0  0  0  0
M  END
> <PUBCHEM_COMPOUND_CID>
133561811

> <PUBCHEM_CONFORMER_RMSD>
1

> <PUBCHEM_CONFORMER_DIVERSEORDER>
1
140
29
17
115
39
97
26
65
60
133
67
74
14
100
87
53
46
15
99
71
23
135
59
123
143
107
142
81
38
2
7
78
129
70
83
42
90
45
10
82
56
121
24
126
8
64
116
77
127
122
93
31
12
62
131
6
57
27
128
35
94
113
28
21
52
88
85
110
19
63
61
141
43
20
79
92
76
138
41
5
32
132
101
130
136
91
55
137
13
40
58
47
84
109
73
9
30
66
106
49
33
48
105
44
34
37
139
102
124
4
54
36
51
108
16
11
125
104
89
18
25
80
50
112
72
119
120
103
86
118
111
96
3
134
68
22
117
98
114
69
95
75

> <PUBCHEM_MMFF94_PARTIAL_CHARGES>
31
1 -0.56
10 0.56
11 0.06
12 -0.28
13 0.28
16 0.28
17 0.28
18 0.56
19 0.28
2 -0.68
20 -0.29
21 0.49
22 -0.14
23 0.42
24 -0.29
25 0.14
26 0.28
3 -0.56
4 -0.68
41 0.15
42 0.15
44 0.15
45 0.4
5 -0.68
51 0.4
52 0.4
53 0.4
57 0.4
6 -0.68
7 -0.57
8 -0.68

> <PUBCHEM_EFFECTIVE_ROTOR_COUNT>
6.8

> <PUBCHEM_PHARMACOPHORE_FEATURES>
16
1 1 acceptor
1 2 acceptor
1 2 donor
1 3 acceptor
1 4 acceptor
1 4 donor
1 5 acceptor
1 5 donor
1 6 acceptor
1 6 donor
1 7 acceptor
1 8 acceptor
1 8 donor
3 9 14 15 hydrophobe
6 1 13 16 17 18 19 rings
6 9 10 11 12 21 22 rings

> <PUBCHEM_HEAVY_ATOM_COUNT>
27

> <PUBCHEM_ATOM_DEF_STEREO_COUNT>
7

> <PUBCHEM_ATOM_UDEF_STEREO_COUNT>
0

> <PUBCHEM_BOND_DEF_STEREO_COUNT>
1

> <PUBCHEM_BOND_UDEF_STEREO_COUNT>
0

> <PUBCHEM_ISOTOPIC_ATOM_COUNT>
0

> <PUBCHEM_COMPONENT_COUNT>
1

> <PUBCHEM_CACTVS_TAUTO_COUNT>
5

> <PUBCHEM_CONFORMER_ID>
07F5FDD300000001

> <PUBCHEM_MMFF94_ENERGY>
69.663

> <PUBCHEM_FEATURE_SELFOVERLAP>
81.263

> <PUBCHEM_SHAPE_FINGERPRINT>
10498660 4 18041557060942448732
11370993 144 14490457665271311946
11725454 13 16733806620233548799
12596599 1 17060346222905422241
12892183 10 13334733497214734959
14848178 96 18187361047359845708
14957384 54 17168130278434727326
17349148 13 18131064931089668730
20775438 99 16551950905687194647
21033648 29 15430027743333419629
21033650 10 17345497945398798400
21315759 227 13901616493632869255
22393880 68 18130771344642663321
22907989 373 18125448759044644911
23559900 14 18342184336978655130
25222932 49 10879120545620112692
2838139 119 17096344208309007647
3459 83 18198347252018926774
474 4 18337955584802755851
4921388 177 15769782347054675523
57724786 102 17967545548911422596
6328613 192 18409450328315101480
633830 44 18337965505723632710

> <PUBCHEM_SHAPE_MULTIPOLES>
508.69
11.95
2.95
2.28
2.5
1.34
-1.01
-4.58
-4.82
-0.39
0.13
1.59
-0.68
-1.98

> <PUBCHEM_SHAPE_SELFOVERLAP>
1044.584

> <PUBCHEM_SHAPE_VOLUME>
290.5

> <PUBCHEM_COORDINATE_TYPE>
2
5
10

$$$$
