133599
  -OEChem-03292013323D

 35 35  0     1  0  0  0  0  0999 V2000
   -6.1126   -0.7328   -1.6928 Cl  0  0  0  0  0  0  0  0  0  0  0  0
    2.1301    3.1568   -0.2728 S   0  0  0  0  0  0  0  0  0  0  0  0
    4.3859   -1.1503    1.5878 F   0  0  0  0  0  0  0  0  0  0  0  0
    0.7601   -0.1525   -2.2984 O   0  0  0  0  0  0  0  0  0  0  0  0
   -2.4867    1.8395    0.1797 O   0  0  0  0  0  0  0  0  0  0  0  0
    4.0518   -2.8479   -0.5094 O   0  0  0  0  0  0  0  0  0  0  0  0
   -3.2058   -2.5354    1.4110 O   0  0  0  0  0  0  0  0  0  0  0  0
    1.7715    0.5137   -0.2992 N   0  0  0  0  0  0  0  0  0  0  0  0
   -0.7959    0.6285    1.1608 N   0  0  0  0  0  0  0  0  0  0  0  0
    2.3991   -1.4930   -1.4080 N   0  0  0  0  0  0  0  0  0  0  0  0
   -2.9154   -0.3581    0.7776 N   0  0  0  0  0  0  0  0  0  0  0  0
   -2.3825   -1.6145    1.3783 N   0  0  0  0  0  0  0  0  0  0  0  0
    0.9975    1.7232   -0.1608 C   0  0  1  0  0  0  0  0  0  0  0  0
    0.1644    1.6998    1.1218 C   0  0  0  0  0  0  0  0  0  0  0  0
    1.5791   -0.3536   -1.3989 C   0  0  0  0  0  0  0  0  0  0  0  0
    2.7131    0.2192    0.6762 C   0  0  0  0  0  0  0  0  0  0  0  0
   -2.0955    0.7763    0.6721 C   0  0  0  0  0  0  0  0  0  0  0  0
    3.4753   -0.8716    0.6376 C   0  0  0  0  0  0  0  0  0  0  0  0
    3.3556   -1.8396   -0.4633 C   0  0  0  0  0  0  0  0  0  0  0  0
   -4.2941   -0.3445    0.3051 C   0  0  0  0  0  0  0  0  0  0  0  0
    0.9217    4.5036   -0.2551 C   0  0  0  0  0  0  0  0  0  0  0  0
   -4.4170   -0.7670   -1.1492 C   0  0  0  0  0  0  0  0  0  0  0  0
    0.3175    1.8047   -1.0161 H   0  0  0  0  0  0  0  0  0  0  0  0
    0.7804    1.5973    2.0215 H   0  0  0  0  0  0  0  0  0  0  0  0
   -0.3908    2.6364    1.2357 H   0  0  0  0  0  0  0  0  0  0  0  0
   -0.4858   -0.2560    1.5461 H   0  0  0  0  0  0  0  0  0  0  0  0
    2.8258    0.9151    1.4997 H   0  0  0  0  0  0  0  0  0  0  0  0
    2.2782   -2.1313   -2.1895 H   0  0  0  0  0  0  0  0  0  0  0  0
   -4.9194   -0.9652    0.9574 H   0  0  0  0  0  0  0  0  0  0  0  0
   -4.6756    0.6792    0.4099 H   0  0  0  0  0  0  0  0  0  0  0  0
    0.5105    4.6433    0.7472 H   0  0  0  0  0  0  0  0  0  0  0  0
    0.1155    4.3126   -0.9680 H   0  0  0  0  0  0  0  0  0  0  0  0
    1.4235    5.4311   -0.5447 H   0  0  0  0  0  0  0  0  0  0  0  0
   -3.8447   -0.1010   -1.8029 H   0  0  0  0  0  0  0  0  0  0  0  0
   -4.0435   -1.7848   -1.2978 H   0  0  0  0  0  0  0  0  0  0  0  0
  1 22  1  0  0  0  0
  2 13  1  0  0  0  0
  2 21  1  0  0  0  0
  3 18  1  0  0  0  0
  4 15  2  0  0  0  0
  5 17  2  0  0  0  0
  6 19  2  0  0  0  0
  7 12  2  0  0  0  0
  8 13  1  0  0  0  0
  8 15  1  0  0  0  0
  8 16  1  0  0  0  0
  9 14  1  0  0  0  0
  9 17  1  0  0  0  0
  9 26  1  0  0  0  0
 10 15  1  0  0  0  0
 10 19  1  0  0  0  0
 10 28  1  0  0  0  0
 11 12  1  0  0  0  0
 11 17  1  0  0  0  0
 11 20  1  0  0  0  0
 13 14  1  0  0  0  0
 13 23  1  0  0  0  0
 14 24  1  0  0  0  0
 14 25  1  0  0  0  0
 16 18  2  0  0  0  0
 16 27  1  0  0  0  0
 18 19  1  0  0  0  0
 20 22  1  0  0  0  0
 20 29  1  0  0  0  0
 20 30  1  0  0  0  0
 21 31  1  0  0  0  0
 21 32  1  0  0  0  0
 21 33  1  0  0  0  0
 22 34  1  0  0  0  0
 22 35  1  0  0  0  0
M  END
> <PUBCHEM_COMPOUND_CID>
133599

> <PUBCHEM_CONFORMER_RMSD>
1

> <PUBCHEM_CONFORMER_DIVERSEORDER>
1
99
354
82
19
409
276
714
27
210
279
491
431
147
386
624
34
719
220
107
676
193
447
84
10
603
112
597
594
542
56
251
136
223
656
595
621
32
642
288
471
93
475
266
759
706
224
347
105
17
321
307
213
314
753
760
359
248
561
14
451
250
161
658
76
49
524
13
588
637
166
293
163
7
167
261
130
128
523
4
240
15
226
149
316
60
225
408
383
8
63
722
153
2
544
517
103
94
61
129
741
142
115
12
86
48
215
543
304
583
299
331
421
630
26
45
185
269
369
300
694
21
490
229
635
88
501
127
356
367
461
336
449
51
3
55
265
36
141
168
40
227
74
205
334
270
494
275
324
109
152
90
699
601
6
277
64
222
139
159
57
35
58
138
137
75
41
31
67
62
150
445
89
33

> <PUBCHEM_MMFF94_PARTIAL_CHARGES>
25
1 -0.29
10 -0.49
11 -0.18
12 -0.02
13 0.53
14 0.3
15 0.69
16 -0.04
17 0.69
18 0.16
19 0.62
2 -0.46
20 0.3
21 0.23
22 0.29
26 0.37
27 0.15
28 0.37
3 -0.15
4 -0.57
5 -0.57
6 -0.57
7 -0.16
8 -0.47
9 -0.73

> <PUBCHEM_EFFECTIVE_ROTOR_COUNT>
9

> <PUBCHEM_PHARMACOPHORE_FEATURES>
7
1 10 donor
1 21 hydrophobe
1 4 acceptor
1 5 acceptor
1 6 acceptor
1 9 donor
6 8 10 15 16 18 19 rings

> <PUBCHEM_HEAVY_ATOM_COUNT>
22

> <PUBCHEM_ATOM_DEF_STEREO_COUNT>
0

> <PUBCHEM_ATOM_UDEF_STEREO_COUNT>
1

> <PUBCHEM_BOND_DEF_STEREO_COUNT>
0

> <PUBCHEM_BOND_UDEF_STEREO_COUNT>
0

> <PUBCHEM_ISOTOPIC_ATOM_COUNT>
0

> <PUBCHEM_COMPONENT_COUNT>
1

> <PUBCHEM_CACTVS_TAUTO_COUNT>
6

> <PUBCHEM_CONFORMER_ID>
000209DF00000001

> <PUBCHEM_MMFF94_ENERGY>
41.9902

> <PUBCHEM_FEATURE_SELFOVERLAP>
35.522

> <PUBCHEM_SHAPE_FINGERPRINT>
11578080 2 17240750779793376564
12363563 72 18339934735454450315
12553582 1 18265357039248547520
13083527 12 18343575248751370504
14178342 30 17559127479602500345
14341114 328 13686287007020816203
14848160 33 18342185509066526251
17539 30 18049159960769170292
192875 21 18341895186420093727
20626108 58 18271800194630675889
20645477 70 18337957916948560819
21069387 34 18341611503819545931
21315764 371 15410618137809918383
21452121 199 18343019990852313560
23419403 2 17750769182670462932
23559900 14 18263923400682580105
439807 62 17771886485247014823
5161694 15 17748828544472968467
59682541 52 18056738019110635861
81228 2 17695651562006877160
9709674 26 18410859884419295529

> <PUBCHEM_SHAPE_MULTIPOLES>
402.81
9.68
3.72
1.65
12.79
3.57
0.34
-6.78
1.88
-3.98
0.21
0.67
-0.68
0.16

> <PUBCHEM_SHAPE_SELFOVERLAP>
785.844

> <PUBCHEM_SHAPE_VOLUME>
244.8

> <PUBCHEM_COORDINATE_TYPE>
2
5
10

$$$$
