133595
  -OEChem-03292013323D

 30 30  0     1  0  0  0  0  0999 V2000
    0.8823    1.5815   -1.5714 O   0  0  0  0  0  0  0  0  0  0  0  0
   -4.6310   -2.0787    0.0301 O   0  0  0  0  0  0  0  0  0  0  0  0
    1.3686   -1.7941   -0.4506 O   0  0  0  0  0  0  0  0  0  0  0  0
    3.5335   -1.9446   -1.0867 O   0  0  0  0  0  0  0  0  0  0  0  0
    4.7724   -0.5941    1.2239 O   0  0  0  0  0  0  0  0  0  0  0  0
    1.5597    0.6548    0.4453 N   0  0  0  0  0  0  0  0  0  0  0  0
   -0.9723    3.1031   -0.2099 N   0  0  0  0  0  0  0  0  0  0  0  0
   -0.5630    1.8166    0.3610 C   0  0  1  0  0  0  0  0  0  0  0  0
   -1.6553    0.7711    0.2721 C   0  0  0  0  0  0  0  0  0  0  0  0
    0.6903    1.3578   -0.3773 C   0  0  0  0  0  0  0  0  0  0  0  0
    2.8079    0.1007   -0.0256 C   0  0  2  0  0  0  0  0  0  0  0  0
   -2.1601    0.2231    1.4374 C   0  0  0  0  0  0  0  0  0  0  0  0
   -2.1222    0.3886   -0.9726 C   0  0  0  0  0  0  0  0  0  0  0  0
   -3.1657   -0.7400    1.3555 C   0  0  0  0  0  0  0  0  0  0  0  0
   -3.1280   -0.5745   -1.0546 C   0  0  0  0  0  0  0  0  0  0  0  0
   -3.6499   -1.1388    0.1095 C   0  0  0  0  0  0  0  0  0  0  0  0
    2.6204   -1.2942   -0.5895 C   0  0  0  0  0  0  0  0  0  0  0  0
    3.8125    0.1618    1.1034 C   0  0  0  0  0  0  0  0  0  0  0  0
   -0.3001    2.0030    1.4096 H   0  0  0  0  0  0  0  0  0  0  0  0
    3.1734    0.7422   -0.8353 H   0  0  0  0  0  0  0  0  0  0  0  0
    1.2913    0.4766    1.4092 H   0  0  0  0  0  0  0  0  0  0  0  0
   -1.7906    0.5253    2.4129 H   0  0  0  0  0  0  0  0  0  0  0  0
   -1.7313    0.8155   -1.8911 H   0  0  0  0  0  0  0  0  0  0  0  0
   -1.8117    3.4373    0.2617 H   0  0  0  0  0  0  0  0  0  0  0  0
   -1.2147    2.9981   -1.1940 H   0  0  0  0  0  0  0  0  0  0  0  0
   -3.5635   -1.1721    2.2697 H   0  0  0  0  0  0  0  0  0  0  0  0
   -3.5012   -0.8811   -2.0280 H   0  0  0  0  0  0  0  0  0  0  0  0
    3.7068    1.0196    1.7914 H   0  0  0  0  0  0  0  0  0  0  0  0
   -4.8723   -2.3591    0.9297 H   0  0  0  0  0  0  0  0  0  0  0  0
    1.2960   -2.7059   -0.8050 H   0  0  0  0  0  0  0  0  0  0  0  0
  1 10  2  0  0  0  0
  2 16  1  0  0  0  0
  2 29  1  0  0  0  0
  3 17  1  0  0  0  0
  3 30  1  0  0  0  0
  4 17  2  0  0  0  0
  5 18  2  0  0  0  0
  6 10  1  0  0  0  0
  6 11  1  0  0  0  0
  6 21  1  0  0  0  0
  7  8  1  0  0  0  0
  7 24  1  0  0  0  0
  7 25  1  0  0  0  0
  8  9  1  0  0  0  0
  8 10  1  0  0  0  0
  8 19  1  0  0  0  0
  9 12  2  0  0  0  0
  9 13  1  0  0  0  0
 11 17  1  0  0  0  0
 11 18  1  0  0  0  0
 11 20  1  0  0  0  0
 12 14  1  0  0  0  0
 12 22  1  0  0  0  0
 13 15  2  0  0  0  0
 13 23  1  0  0  0  0
 14 16  2  0  0  0  0
 14 26  1  0  0  0  0
 15 16  1  0  0  0  0
 15 27  1  0  0  0  0
 18 28  1  0  0  0  0
M  END
> <PUBCHEM_COMPOUND_CID>
133595

> <PUBCHEM_CONFORMER_RMSD>
0.8

> <PUBCHEM_CONFORMER_DIVERSEORDER>
1
21
4
15
23
25
2
24
29
13
31
33
34
6
14
26
19
8
28
35
7
10
9
3
18
17
5
22
12
11
16
27
32
20
30
36

> <PUBCHEM_MMFF94_PARTIAL_CHARGES>
28
1 -0.57
10 0.57
11 0.42
12 -0.15
13 -0.15
14 -0.15
15 -0.15
16 0.08
17 0.66
18 0.45
2 -0.53
21 0.37
22 0.15
23 0.15
24 0.36
25 0.36
26 0.15
27 0.15
28 0.06
29 0.45
3 -0.65
30 0.5
4 -0.57
5 -0.57
6 -0.73
7 -0.99
8 0.47
9 -0.14

> <PUBCHEM_EFFECTIVE_ROTOR_COUNT>
6

> <PUBCHEM_PHARMACOPHORE_FEATURES>
11
1 1 acceptor
1 11 anion
1 2 donor
1 3 acceptor
1 4 acceptor
1 5 acceptor
1 6 donor
1 7 cation
1 7 donor
3 3 4 17 anion
6 9 12 13 14 15 16 rings

> <PUBCHEM_HEAVY_ATOM_COUNT>
18

> <PUBCHEM_ATOM_DEF_STEREO_COUNT>
2

> <PUBCHEM_ATOM_UDEF_STEREO_COUNT>
0

> <PUBCHEM_BOND_DEF_STEREO_COUNT>
0

> <PUBCHEM_BOND_UDEF_STEREO_COUNT>
0

> <PUBCHEM_ISOTOPIC_ATOM_COUNT>
0

> <PUBCHEM_COMPONENT_COUNT>
1

> <PUBCHEM_CACTVS_TAUTO_COUNT>
12

> <PUBCHEM_CONFORMER_ID>
000209DB00000001

> <PUBCHEM_MMFF94_ENERGY>
39.8945

> <PUBCHEM_FEATURE_SELFOVERLAP>
56.129

> <PUBCHEM_SHAPE_FINGERPRINT>
10618630 7 18411426093862549725
11578080 2 17702928319333809577
12251169 10 16773513360318356041
12363563 72 18259707808587097243
12553582 1 18338253629457105269
12892183 10 17275109426727557723
13083527 12 18335132150575119636
13296908 3 18340771442407355756
14123255 52 8862949359622250295
14178342 30 18192993725455006112
14341114 328 16486691497306137290
15099037 37 18336254657547144552
15375462 189 17346314933629437426
15422964 175 18411983572191198855
17834072 14 18409440384510840629
20361792 2 18340210786220074373
20645477 70 18118119397686128735
20671657 53 17458063789339293477
2255824 54 17907870852742325381
23402539 116 18187636986398005354
23557571 272 18335975385450832904
23559900 14 18268705005464515780
27216 239 11383820598036744727
59027123 10 13406797730998069122
81228 2 18189898608528460153
9709674 26 18197209261420079604
9882013 296 17489582381297681448

> <PUBCHEM_SHAPE_MULTIPOLES>
331.12
8.03
2.29
1.32
2.47
0.78
0.1
-5.48
1.69
-0.37
-0.53
0.02
-0.03
0.39

> <PUBCHEM_SHAPE_SELFOVERLAP>
687.848

> <PUBCHEM_SHAPE_VOLUME>
186.9

> <PUBCHEM_COORDINATE_TYPE>
2
5
10

$$$$
