133554324
  -OEChem-03292013293D

 55 56  0     1  0  0  0  0  0999 V2000
    2.6009    1.0488   -1.1932 O   0  0  0  0  0  0  0  0  0  0  0  0
    1.9683    1.6928    1.0015 O   0  0  0  0  0  0  0  0  0  0  0  0
   -4.5028    1.7994   -1.2969 O   0  0  0  0  0  0  0  0  0  0  0  0
    4.8295   -1.5489    1.1492 O   0  0  0  0  0  0  0  0  0  0  0  0
    2.6500   -2.5504   -0.3978 O   0  0  0  0  0  0  0  0  0  0  0  0
    5.2896    0.8416   -0.1994 O   0  0  0  0  0  0  0  0  0  0  0  0
    0.6605    0.2397   -2.9456 O   0  0  0  0  0  0  0  0  0  0  0  0
   -0.6428   -3.6445    0.8954 O   0  0  0  0  0  0  0  0  0  0  0  0
   -2.8350   -3.5955    1.5060 O   0  0  0  0  0  0  0  0  0  0  0  0
   -3.0084   -0.9345    0.3870 C   0  0  1  0  0  0  0  0  0  0  0  0
   -2.8908    0.5562    0.0273 C   0  0  1  0  0  0  0  0  0  0  0  0
   -3.5289   -1.5761   -0.9016 C   0  0  0  0  0  0  0  0  0  0  0  0
   -4.5916   -0.6068   -1.4036 C   0  0  0  0  0  0  0  0  0  0  0  0
   -4.0501    0.7201   -0.9365 C   0  0  0  0  0  0  0  0  0  0  0  0
   -3.0022    1.4752    1.2299 C   0  0  0  0  0  0  0  0  0  0  0  0
   -1.6928   -1.5462    0.8454 C   0  0  0  0  0  0  0  0  0  0  0  0
    3.7226   -0.7444    0.7490 C   0  0  2  0  0  0  0  0  0  0  0  0
    3.1940   -1.2476   -0.5948 C   0  0  2  0  0  0  0  0  0  0  0  0
    4.1510    0.7209    0.6548 C   0  0  2  0  0  0  0  0  0  0  0  0
    2.1139   -0.2954   -1.1267 C   0  0  2  0  0  0  0  0  0  0  0  0
    3.0336    1.5791    0.0643 C   0  0  1  0  0  0  0  0  0  0  0  0
   -2.6197    2.8824    0.8792 C   0  0  0  0  0  0  0  0  0  0  0  0
    1.6594   -0.6748   -2.5334 C   0  0  0  0  0  0  0  0  0  0  0  0
   -1.8261   -3.0201    1.1265 C   0  0  0  0  0  0  0  0  0  0  0  0
    0.9074    2.4854    0.4881 C   0  0  0  0  0  0  0  0  0  0  0  0
   -1.3774    3.3716    1.0075 C   0  0  0  0  0  0  0  0  0  0  0  0
   -0.2122    2.5719    1.5185 C   0  0  0  0  0  0  0  0  0  0  0  0
   -3.7682   -1.0677    1.1707 H   0  0  0  0  0  0  0  0  0  0  0  0
   -1.9667    0.7314   -0.5391 H   0  0  0  0  0  0  0  0  0  0  0  0
   -3.9501   -2.5735   -0.7435 H   0  0  0  0  0  0  0  0  0  0  0  0
   -2.7255   -1.6644   -1.6442 H   0  0  0  0  0  0  0  0  0  0  0  0
   -5.5565   -0.7864   -0.9210 H   0  0  0  0  0  0  0  0  0  0  0  0
   -4.6877   -0.6361   -2.4910 H   0  0  0  0  0  0  0  0  0  0  0  0
   -4.0396    1.4992    1.5906 H   0  0  0  0  0  0  0  0  0  0  0  0
   -2.4258    1.0964    2.0786 H   0  0  0  0  0  0  0  0  0  0  0  0
   -0.9327   -1.4040    0.0678 H   0  0  0  0  0  0  0  0  0  0  0  0
   -1.3335   -1.0627    1.7598 H   0  0  0  0  0  0  0  0  0  0  0  0
    2.9490   -0.8630    1.5180 H   0  0  0  0  0  0  0  0  0  0  0  0
    4.0206   -1.3417   -1.3088 H   0  0  0  0  0  0  0  0  0  0  0  0
    4.4451    1.0782    1.6484 H   0  0  0  0  0  0  0  0  0  0  0  0
    1.2311   -0.3154   -0.4752 H   0  0  0  0  0  0  0  0  0  0  0  0
    3.4255    2.5831   -0.1400 H   0  0  0  0  0  0  0  0  0  0  0  0
   -3.3991    3.5379    0.5001 H   0  0  0  0  0  0  0  0  0  0  0  0
    1.2437   -1.6866   -2.5590 H   0  0  0  0  0  0  0  0  0  0  0  0
    2.4902   -0.6058   -3.2435 H   0  0  0  0  0  0  0  0  0  0  0  0
    0.5098    2.0450   -0.4334 H   0  0  0  0  0  0  0  0  0  0  0  0
    1.2823    3.4902    0.2570 H   0  0  0  0  0  0  0  0  0  0  0  0
   -1.1929    4.4075    0.7350 H   0  0  0  0  0  0  0  0  0  0  0  0
   -0.4668    1.5560    1.8295 H   0  0  0  0  0  0  0  0  0  0  0  0
    0.1730    3.0574    2.4242 H   0  0  0  0  0  0  0  0  0  0  0  0
    5.1495   -1.2034    2.0000 H   0  0  0  0  0  0  0  0  0  0  0  0
    1.8908   -2.4720    0.2049 H   0  0  0  0  0  0  0  0  0  0  0  0
    5.5639    1.7745   -0.1935 H   0  0  0  0  0  0  0  0  0  0  0  0
    0.3848   -0.0205   -3.8410 H   0  0  0  0  0  0  0  0  0  0  0  0
   -0.6977   -4.6084    1.0694 H   0  0  0  0  0  0  0  0  0  0  0  0
  1 20  1  0  0  0  0
  1 21  1  0  0  0  0
  2 21  1  0  0  0  0
  2 25  1  0  0  0  0
  3 14  2  0  0  0  0
  4 17  1  0  0  0  0
  4 51  1  0  0  0  0
  5 18  1  0  0  0  0
  5 52  1  0  0  0  0
  6 19  1  0  0  0  0
  6 53  1  0  0  0  0
  7 23  1  0  0  0  0
  7 54  1  0  0  0  0
  8 24  1  0  0  0  0
  8 55  1  0  0  0  0
  9 24  2  0  0  0  0
 10 11  1  0  0  0  0
 10 12  1  0  0  0  0
 10 16  1  0  0  0  0
 10 28  1  0  0  0  0
 11 14  1  0  0  0  0
 11 15  1  0  0  0  0
 11 29  1  0  0  0  0
 12 13  1  0  0  0  0
 12 30  1  0  0  0  0
 12 31  1  0  0  0  0
 13 14  1  0  0  0  0
 13 32  1  0  0  0  0
 13 33  1  0  0  0  0
 15 22  1  0  0  0  0
 15 34  1  0  0  0  0
 15 35  1  0  0  0  0
 16 24  1  0  0  0  0
 16 36  1  0  0  0  0
 16 37  1  0  0  0  0
 17 18  1  0  0  0  0
 17 19  1  0  0  0  0
 17 38  1  0  0  0  0
 18 20  1  0  0  0  0
 18 39  1  0  0  0  0
 19 21  1  0  0  0  0
 19 40  1  0  0  0  0
 20 23  1  0  0  0  0
 20 41  1  0  0  0  0
 21 42  1  0  0  0  0
 22 26  2  0  0  0  0
 22 43  1  0  0  0  0
 23 44  1  0  0  0  0
 23 45  1  0  0  0  0
 25 27  1  0  0  0  0
 25 46  1  0  0  0  0
 25 47  1  0  0  0  0
 26 27  1  0  0  0  0
 26 48  1  0  0  0  0
 27 49  1  0  0  0  0
 27 50  1  0  0  0  0
M  END
> <PUBCHEM_COMPOUND_CID>
133554324

> <PUBCHEM_CONFORMER_RMSD>
1.4

> <PUBCHEM_CONFORMER_DIVERSEORDER>
2
135
26
48
39
68
16
87
33
50
115
71
91
72
45
5
122
25
65
31
136
120
47
103
42
124
6
76
128
84
129
114
144
7
137
61
36
107
82
97
98
127
29
150
138
102
145
117
130
24
53
74
94
62
69
92
23
147
28
141
37
3
140
112
59
105
52
22
80
78
41
63
133
27
123
1
35
17
104
49
21
99
20
56
15
67
11
101
51
148
125
126
106
132
100
83
95
19
32
86
134
60
44
14
34
9
96
57
90
54
111
110
119
121
13
142
38
58
118
66
149
75
8
30
85
70
108
113
18
43
89
10
146
46
131
73
4
64
143
109
139
93
116
81
12
79
77
40
55
88

> <PUBCHEM_MMFF94_PARTIAL_CHARGES>
32
1 -0.56
11 0.06
13 0.06
14 0.45
15 0.14
16 0.06
17 0.28
18 0.28
19 0.28
2 -0.56
20 0.28
21 0.56
22 -0.29
23 0.28
24 0.66
25 0.28
26 -0.29
27 0.14
3 -0.57
4 -0.68
43 0.15
48 0.15
5 -0.68
51 0.4
52 0.4
53 0.4
54 0.4
55 0.5
6 -0.68
7 -0.68
8 -0.65
9 -0.57

> <PUBCHEM_EFFECTIVE_ROTOR_COUNT>
11

> <PUBCHEM_PHARMACOPHORE_FEATURES>
16
1 1 acceptor
1 2 acceptor
1 3 acceptor
1 4 acceptor
1 4 donor
1 5 acceptor
1 5 donor
1 6 acceptor
1 6 donor
1 7 acceptor
1 7 donor
1 8 acceptor
1 9 acceptor
3 8 9 24 anion
5 10 11 12 13 14 rings
6 1 17 18 19 20 21 rings

> <PUBCHEM_HEAVY_ATOM_COUNT>
27

> <PUBCHEM_ATOM_DEF_STEREO_COUNT>
2

> <PUBCHEM_ATOM_UDEF_STEREO_COUNT>
5

> <PUBCHEM_BOND_DEF_STEREO_COUNT>
1

> <PUBCHEM_BOND_UDEF_STEREO_COUNT>
0

> <PUBCHEM_ISOTOPIC_ATOM_COUNT>
0

> <PUBCHEM_COMPONENT_COUNT>
1

> <PUBCHEM_CACTVS_TAUTO_COUNT>
3

> <PUBCHEM_CONFORMER_ID>
07F5E09400000002

> <PUBCHEM_MMFF94_ENERGY>
52.7082

> <PUBCHEM_FEATURE_SELFOVERLAP>
81.321

> <PUBCHEM_SHAPE_FINGERPRINT>
10366900 7 18201999949683631480
108634 29 18412831295624643398
11370993 70 18261386732888976215
11488393 25 16270827532680126236
11828532 37 17973154321762172755
12156800 1 14305940948076030243
12166972 35 18040996258683574583
12553582 1 18271824431073475281
12633257 1 18340208488206745256
12788726 201 18272371932034820969
13122387 1 18412834585474640331
13402501 40 18269834384088990521
1361 2 15961736560000721539
14114207 22 17105079613137035903
14931854 50 18411130325435125573
20764821 26 18194692698458182899
22749437 52 18261116274551060447
23559900 14 18200015356723324193
3493558 16 16450670577727186164
445580 102 18124884717810509355
463206 1 17629185294249995551
469060 322 17059195098940143271
5309563 4 17838905081095764715
57527585 103 18196115389495774491
9709674 26 18201165368813221744

> <PUBCHEM_SHAPE_MULTIPOLES>
502.82
9.58
4.16
1.93
3.75
0.56
1.16
0.81
1.05
-2.53
-2.51
-0.2
0.53
0.48

> <PUBCHEM_SHAPE_SELFOVERLAP>
1023.518

> <PUBCHEM_SHAPE_VOLUME>
289.3

> <PUBCHEM_COORDINATE_TYPE>
2
5
10

$$$$
