133562621
  -OEChem-03292013293D

 71 74  0     1  0  0  0  0  0999 V2000
   -4.2377   -0.4660    1.3750 S   0  0  0  0  0  0  0  0  0  0  0  0
   -0.7702    0.8512    0.0163 O   0  0  0  0  0  0  0  0  0  0  0  0
    3.1221   -3.5324   -0.4243 O   0  0  0  0  0  0  0  0  0  0  0  0
    3.8981    2.8710   -1.8125 O   0  0  0  0  0  0  0  0  0  0  0  0
   -1.3041   -0.4195    1.8627 O   0  0  0  0  0  0  0  0  0  0  0  0
   -5.8127    0.6441   -0.6224 N   0  0  0  0  0  0  0  0  0  0  0  0
   -6.9454   -0.5391    0.9743 N   0  0  0  0  0  0  0  0  0  0  0  0
   -7.7774   -0.0374    0.0491 N   0  0  0  0  0  0  0  0  0  0  0  0
   -7.7753    1.2426   -1.9088 N   0  0  0  0  0  0  0  0  0  0  0  0
    3.7473    0.0755    0.3791 C   0  0  2  0  0  0  0  0  0  0  0  0
    2.9841    0.8554   -0.7358 C   0  0  1  0  0  0  0  0  0  0  0  0
    1.5990    1.4511   -0.3234 C   0  0  2  0  0  0  0  0  0  0  0  0
    3.1769   -1.3637    0.7060 C   0  0  1  0  0  0  0  0  0  0  0  0
    1.7983    2.3287    0.9671 C   0  0  2  0  0  0  0  0  0  0  0  0
    3.8169    0.9544    1.6689 C   0  0  0  0  0  0  0  0  0  0  0  0
    5.1746   -0.0276   -0.2261 C   0  0  0  0  0  0  0  0  0  0  0  0
    0.5515    0.2928   -0.0727 C   0  0  2  0  0  0  0  0  0  0  0  0
    2.4793    1.5425    2.1015 C   0  0  0  0  0  0  0  0  0  0  0  0
    2.6844   -2.1671   -0.5507 C   0  0  2  0  0  0  0  0  0  0  0  0
    1.1357   -2.1869   -0.8223 C   0  0  2  0  0  0  0  0  0  0  0  0
    4.0782    1.8244   -1.2040 C   0  0  0  0  0  0  0  0  0  0  0  0
    5.4596    1.3156   -0.8863 C   0  0  0  0  0  0  0  0  0  0  0  0
    0.5001   -0.8028   -1.1570 C   0  0  0  0  0  0  0  0  0  0  0  0
    1.0603    2.3519   -1.4726 C   0  0  0  0  0  0  0  0  0  0  0  0
    4.1794   -2.1931    1.5470 C   0  0  0  0  0  0  0  0  0  0  0  0
    0.5344    2.9994    1.5189 C   0  0  0  0  0  0  0  0  0  0  0  0
    0.3683   -2.8547    0.3437 C   0  0  0  0  0  0  0  0  0  0  0  0
    0.8715   -3.0766   -2.0744 C   0  0  0  0  0  0  0  0  0  0  0  0
   -1.0799   -3.0672   -0.0240 C   0  0  0  0  0  0  0  0  0  0  0  0
   -1.6255    0.1972    0.8566 C   0  0  0  0  0  0  0  0  0  0  0  0
   -3.0260    0.3708    0.3249 C   0  0  0  0  0  0  0  0  0  0  0  0
   -5.7692   -0.0989    0.5225 C   0  0  0  0  0  0  0  0  0  0  0  0
   -7.0965    0.6646   -0.8961 C   0  0  0  0  0  0  0  0  0  0  0  0
    2.8616    0.2305   -1.6243 H   0  0  0  0  0  0  0  0  0  0  0  0
    2.3330   -1.2401    1.3841 H   0  0  0  0  0  0  0  0  0  0  0  0
    2.4767    3.1514    0.6980 H   0  0  0  0  0  0  0  0  0  0  0  0
    4.5020    1.7988    1.5239 H   0  0  0  0  0  0  0  0  0  0  0  0
    4.2457    0.3980    2.5074 H   0  0  0  0  0  0  0  0  0  0  0  0
    5.2199   -0.8153   -0.9879 H   0  0  0  0  0  0  0  0  0  0  0  0
    5.9389   -0.2560    0.5247 H   0  0  0  0  0  0  0  0  0  0  0  0
    0.7758   -0.1569    0.8878 H   0  0  0  0  0  0  0  0  0  0  0  0
    1.8258    0.7551    2.4905 H   0  0  0  0  0  0  0  0  0  0  0  0
    2.6615    2.2174    2.9482 H   0  0  0  0  0  0  0  0  0  0  0  0
    3.1842   -1.8011   -1.4528 H   0  0  0  0  0  0  0  0  0  0  0  0
    6.0481    1.1949   -1.7990 H   0  0  0  0  0  0  0  0  0  0  0  0
    5.9568    2.0099   -0.2041 H   0  0  0  0  0  0  0  0  0  0  0  0
   -0.5356   -0.9307   -1.4919 H   0  0  0  0  0  0  0  0  0  0  0  0
    0.9773   -0.4342   -2.0729 H   0  0  0  0  0  0  0  0  0  0  0  0
    0.0042    2.6106   -1.3508 H   0  0  0  0  0  0  0  0  0  0  0  0
    1.1588    1.8580   -2.4452 H   0  0  0  0  0  0  0  0  0  0  0  0
    1.5906    3.3072   -1.5256 H   0  0  0  0  0  0  0  0  0  0  0  0
    5.0717   -2.4663    0.9753 H   0  0  0  0  0  0  0  0  0  0  0  0
    3.7101   -3.1156    1.9080 H   0  0  0  0  0  0  0  0  0  0  0  0
    4.5100   -1.6580    2.4403 H   0  0  0  0  0  0  0  0  0  0  0  0
    0.8088    3.7403    2.2791 H   0  0  0  0  0  0  0  0  0  0  0  0
   -0.1320    2.2843    2.0075 H   0  0  0  0  0  0  0  0  0  0  0  0
   -0.0223    3.5320    0.7438 H   0  0  0  0  0  0  0  0  0  0  0  0
    0.8077   -3.8296    0.5888 H   0  0  0  0  0  0  0  0  0  0  0  0
    0.4271   -2.2650    1.2611 H   0  0  0  0  0  0  0  0  0  0  0  0
    1.0625   -4.1366   -1.8720 H   0  0  0  0  0  0  0  0  0  0  0  0
   -0.1480   -2.9834   -2.4639 H   0  0  0  0  0  0  0  0  0  0  0  0
    1.5355   -2.7789   -2.8955 H   0  0  0  0  0  0  0  0  0  0  0  0
    4.0622   -3.5623   -0.6712 H   0  0  0  0  0  0  0  0  0  0  0  0
   -1.6143   -2.1890   -0.3775 H   0  0  0  0  0  0  0  0  0  0  0  0
   -1.6180   -3.4056    0.8704 H   0  0  0  0  0  0  0  0  0  0  0  0
   -1.2098   -3.8699   -0.7566 H   0  0  0  0  0  0  0  0  0  0  0  0
   -3.0717   -0.0512   -0.6836 H   0  0  0  0  0  0  0  0  0  0  0  0
   -3.2552    1.4405    0.2957 H   0  0  0  0  0  0  0  0  0  0  0  0
   -8.7721   -0.2120    0.1282 H   0  0  0  0  0  0  0  0  0  0  0  0
   -8.7845    1.1772   -1.9995 H   0  0  0  0  0  0  0  0  0  0  0  0
   -7.3006    1.7737   -2.6317 H   0  0  0  0  0  0  0  0  0  0  0  0
  1 31  1  0  0  0  0
  1 32  1  0  0  0  0
  2 17  1  0  0  0  0
  2 30  1  0  0  0  0
  3 19  1  0  0  0  0
  3 63  1  0  0  0  0
  4 21  2  0  0  0  0
  5 30  2  0  0  0  0
  6 32  1  0  0  0  0
  6 33  2  0  0  0  0
  7  8  1  0  0  0  0
  7 32  2  0  0  0  0
  8 33  1  0  0  0  0
  8 69  1  0  0  0  0
  9 33  1  0  0  0  0
  9 70  1  0  0  0  0
  9 71  1  0  0  0  0
 10 11  1  0  0  0  0
 10 13  1  0  0  0  0
 10 15  1  0  0  0  0
 10 16  1  0  0  0  0
 11 12  1  0  0  0  0
 11 21  1  0  0  0  0
 11 34  1  0  0  0  0
 12 14  1  0  0  0  0
 12 17  1  0  0  0  0
 12 24  1  0  0  0  0
 13 19  1  0  0  0  0
 13 25  1  0  0  0  0
 13 35  1  0  0  0  0
 14 18  1  0  0  0  0
 14 26  1  0  0  0  0
 14 36  1  0  0  0  0
 15 18  1  0  0  0  0
 15 37  1  0  0  0  0
 15 38  1  0  0  0  0
 16 22  1  0  0  0  0
 16 39  1  0  0  0  0
 16 40  1  0  0  0  0
 17 23  1  0  0  0  0
 17 41  1  0  0  0  0
 18 42  1  0  0  0  0
 18 43  1  0  0  0  0
 19 20  1  0  0  0  0
 19 44  1  0  0  0  0
 20 23  1  0  0  0  0
 20 27  1  0  0  0  0
 20 28  1  0  0  0  0
 21 22  1  0  0  0  0
 22 45  1  0  0  0  0
 22 46  1  0  0  0  0
 23 47  1  0  0  0  0
 23 48  1  0  0  0  0
 24 49  1  0  0  0  0
 24 50  1  0  0  0  0
 24 51  1  0  0  0  0
 25 52  1  0  0  0  0
 25 53  1  0  0  0  0
 25 54  1  0  0  0  0
 26 55  1  0  0  0  0
 26 56  1  0  0  0  0
 26 57  1  0  0  0  0
 27 29  1  0  0  0  0
 27 58  1  0  0  0  0
 27 59  1  0  0  0  0
 28 60  1  0  0  0  0
 28 61  1  0  0  0  0
 28 62  1  0  0  0  0
 29 64  1  0  0  0  0
 29 65  1  0  0  0  0
 29 66  1  0  0  0  0
 30 31  1  0  0  0  0
 31 67  1  0  0  0  0
 31 68  1  0  0  0  0
M  END
> <PUBCHEM_COMPOUND_CID>
133562621

> <PUBCHEM_CONFORMER_RMSD>
1

> <PUBCHEM_CONFORMER_DIVERSEORDER>
1
22
17
19
9
16
23
14
8
7
18
13
12
5
15
6
11
10
20
4
24
3
21
2

> <PUBCHEM_MMFF94_PARTIAL_CHARGES>
22
1 -0.28
11 0.06
17 0.28
19 0.28
2 -0.43
21 0.45
22 0.06
3 -0.68
30 0.66
31 0.29
32 0.57
33 0.27
4 -0.57
5 -0.57
6 -0.57
63 0.4
69 0.27
7 -0.71
70 0.4
71 0.4
8 0.3
9 -0.88

> <PUBCHEM_EFFECTIVE_ROTOR_COUNT>
8

> <PUBCHEM_PHARMACOPHORE_FEATURES>
11
1 29 hydrophobe
1 3 acceptor
1 3 donor
1 4 acceptor
1 5 acceptor
1 8 donor
1 9 donor
4 6 8 9 33 cation
5 10 11 16 21 22 rings
5 6 7 8 32 33 rings
6 10 11 12 14 15 18 rings

> <PUBCHEM_HEAVY_ATOM_COUNT>
33

> <PUBCHEM_ATOM_DEF_STEREO_COUNT>
8

> <PUBCHEM_ATOM_UDEF_STEREO_COUNT>
0

> <PUBCHEM_BOND_DEF_STEREO_COUNT>
0

> <PUBCHEM_BOND_UDEF_STEREO_COUNT>
0

> <PUBCHEM_ISOTOPIC_ATOM_COUNT>
0

> <PUBCHEM_COMPONENT_COUNT>
1

> <PUBCHEM_CACTVS_TAUTO_COUNT>
15

> <PUBCHEM_CONFORMER_ID>
07F600FD00000001

> <PUBCHEM_MMFF94_ENERGY>
126.4102

> <PUBCHEM_FEATURE_SELFOVERLAP>
56.044

> <PUBCHEM_SHAPE_FINGERPRINT>
11513181 2 17485390892385292735
11578080 2 12470077669470411276
11719270 70 18411696574271985559
12011746 2 18341342145077563050
12778500 126 16153701007810225597
12838862 33 18341884221743328472
13140716 1 18341044220924923482
13533116 47 18201439143045452595
13692114 37 18059004120607052615
15119646 104 18201164257028284283
15183329 4 17967532359758030809
16752209 62 17912087449785776270
21285901 2 18187083906147886445
21304304 249 18337388236792761178
23559900 14 18259985985910197905
27425 322 17313666070025387635
4340502 62 18272652368256861519
513532 50 17346605153555175566
57527306 92 17023478546708587700
59755656 215 18412265025888199765
6086070 43 17916587673315417371
70251023 43 18053387604447666994

> <PUBCHEM_SHAPE_MULTIPOLES>
639.57
15.15
3.59
1.82
40.68
1.97
0.02
-4.3
-2.72
-3.95
-0.64
-0.39
-0.49
0.14

> <PUBCHEM_SHAPE_SELFOVERLAP>
1332.552

> <PUBCHEM_SHAPE_VOLUME>
366.4

> <PUBCHEM_COORDINATE_TYPE>
2
5
10

$$$$
