133556368
  -OEChem-03292013293D

 39 41  0     1  0  0  0  0  0999 V2000
    0.3844    2.5269    0.4084 O   0  0  0  0  0  0  0  0  0  0  0  0
    2.0835    1.1536   -1.5501 O   0  0  0  0  0  0  0  0  0  0  0  0
    4.0460    0.5370    0.1304 O   0  0  0  0  0  0  0  0  0  0  0  0
    2.3272    2.1261    1.4772 O   0  0  0  0  0  0  0  0  0  0  0  0
   -3.5700    1.1048   -1.3596 O   0  0  0  0  0  0  0  0  0  0  0  0
   -4.0913    1.0045    0.8649 O   0  0  0  0  0  0  0  0  0  0  0  0
    0.3441   -0.1709   -0.3814 C   0  0  1  0  0  0  0  0  0  0  0  0
   -0.1156   -0.8099    0.9799 C   0  0  2  0  0  0  0  0  0  0  0  0
   -0.8142    0.7649   -0.8355 C   0  0  1  0  0  0  0  0  0  0  0  0
    1.6976    0.5903   -0.2945 C   0  0  2  0  0  0  0  0  0  0  0  0
    0.2055   -2.3239    0.8808 C   0  0  2  0  0  0  0  0  0  0  0  0
    0.4088   -1.3948   -1.2735 C   0  0  0  0  0  0  0  0  0  0  0  0
   -1.5709   -0.4472    1.0603 C   0  0  0  0  0  0  0  0  0  0  0  0
   -1.9309    0.3893    0.0875 C   0  0  0  0  0  0  0  0  0  0  0  0
    0.3239   -2.5491   -0.6010 C   0  0  0  0  0  0  0  0  0  0  0  0
   -0.4565    2.2461   -0.7242 C   0  0  0  0  0  0  0  0  0  0  0  0
    1.5198    1.8058    0.6097 C   0  0  0  0  0  0  0  0  0  0  0  0
    2.8801   -0.2594    0.1834 C   0  0  0  0  0  0  0  0  0  0  0  0
   -0.7870   -3.2412    1.5896 C   0  0  0  0  0  0  0  0  0  0  0  0
    0.4159   -3.9101   -1.1953 C   0  0  0  0  0  0  0  0  0  0  0  0
   -3.3004    0.8572   -0.0571 C   0  0  0  0  0  0  0  0  0  0  0  0
    0.3910   -0.3751    1.8497 H   0  0  0  0  0  0  0  0  0  0  0  0
   -1.1124    0.5565   -1.8711 H   0  0  0  0  0  0  0  0  0  0  0  0
    1.1951   -2.5016    1.3226 H   0  0  0  0  0  0  0  0  0  0  0  0
    0.5419   -1.3291   -2.3456 H   0  0  0  0  0  0  0  0  0  0  0  0
   -2.2337   -0.8161    1.8312 H   0  0  0  0  0  0  0  0  0  0  0  0
    0.0594    2.5968   -1.6253 H   0  0  0  0  0  0  0  0  0  0  0  0
   -1.3512    2.8710   -0.6269 H   0  0  0  0  0  0  0  0  0  0  0  0
    3.0480   -1.1163   -0.4759 H   0  0  0  0  0  0  0  0  0  0  0  0
    2.7477   -0.6116    1.2106 H   0  0  0  0  0  0  0  0  0  0  0  0
   -1.7727   -3.2314    1.1119 H   0  0  0  0  0  0  0  0  0  0  0  0
   -0.9055   -2.9484    2.6382 H   0  0  0  0  0  0  0  0  0  0  0  0
   -0.4305   -4.2772    1.5773 H   0  0  0  0  0  0  0  0  0  0  0  0
    1.2352   -4.4716   -0.7355 H   0  0  0  0  0  0  0  0  0  0  0  0
   -0.5160   -4.4624   -1.0414 H   0  0  0  0  0  0  0  0  0  0  0  0
    0.6039   -3.8673   -2.2732 H   0  0  0  0  0  0  0  0  0  0  0  0
    2.9619    1.5586   -1.4475 H   0  0  0  0  0  0  0  0  0  0  0  0
    4.7868   -0.0155    0.4329 H   0  0  0  0  0  0  0  0  0  0  0  0
   -4.4884    1.4235   -1.4908 H   0  0  0  0  0  0  0  0  0  0  0  0
  1 16  1  0  0  0  0
  1 17  1  0  0  0  0
  2 10  1  0  0  0  0
  2 37  1  0  0  0  0
  3 18  1  0  0  0  0
  3 38  1  0  0  0  0
  4 17  2  0  0  0  0
  5 21  1  0  0  0  0
  5 39  1  0  0  0  0
  6 21  2  0  0  0  0
  7  8  1  0  0  0  0
  7  9  1  0  0  0  0
  7 10  1  0  0  0  0
  7 12  1  0  0  0  0
  8 11  1  0  0  0  0
  8 13  1  0  0  0  0
  8 22  1  0  0  0  0
  9 14  1  0  0  0  0
  9 16  1  0  0  0  0
  9 23  1  0  0  0  0
 10 17  1  0  0  0  0
 10 18  1  0  0  0  0
 11 15  1  0  0  0  0
 11 19  1  0  0  0  0
 11 24  1  0  0  0  0
 12 15  2  0  0  0  0
 12 25  1  0  0  0  0
 13 14  2  0  0  0  0
 13 26  1  0  0  0  0
 14 21  1  0  0  0  0
 15 20  1  0  0  0  0
 16 27  1  0  0  0  0
 16 28  1  0  0  0  0
 18 29  1  0  0  0  0
 18 30  1  0  0  0  0
 19 31  1  0  0  0  0
 19 32  1  0  0  0  0
 19 33  1  0  0  0  0
 20 34  1  0  0  0  0
 20 35  1  0  0  0  0
 20 36  1  0  0  0  0
M  END
> <PUBCHEM_COMPOUND_CID>
133556368

> <PUBCHEM_CONFORMER_RMSD>
0.6

> <PUBCHEM_CONFORMER_DIVERSEORDER>
1
5
4
6
3
2

> <PUBCHEM_MMFF94_PARTIAL_CHARGES>
25
1 -0.43
10 0.34
11 0.14
12 -0.29
13 -0.29
14 -0.12
15 -0.28
16 0.28
17 0.66
18 0.28
2 -0.68
20 0.14
21 0.71
25 0.15
26 0.15
3 -0.68
37 0.4
38 0.4
39 0.5
4 -0.57
5 -0.65
6 -0.57
7 0.14
8 0.14
9 0.14

> <PUBCHEM_EFFECTIVE_ROTOR_COUNT>
2.8

> <PUBCHEM_PHARMACOPHORE_FEATURES>
11
1 2 acceptor
1 2 donor
1 3 acceptor
1 3 donor
1 4 acceptor
1 5 acceptor
1 6 acceptor
3 5 6 21 anion
5 7 8 11 12 15 rings
5 7 8 9 13 14 rings
6 1 7 9 10 16 17 rings

> <PUBCHEM_HEAVY_ATOM_COUNT>
21

> <PUBCHEM_ATOM_DEF_STEREO_COUNT>
4

> <PUBCHEM_ATOM_UDEF_STEREO_COUNT>
1

> <PUBCHEM_BOND_DEF_STEREO_COUNT>
0

> <PUBCHEM_BOND_UDEF_STEREO_COUNT>
0

> <PUBCHEM_ISOTOPIC_ATOM_COUNT>
0

> <PUBCHEM_COMPONENT_COUNT>
1

> <PUBCHEM_CACTVS_TAUTO_COUNT>
1

> <PUBCHEM_CONFORMER_ID>
07F5E89000000001

> <PUBCHEM_MMFF94_ENERGY>
60.9213

> <PUBCHEM_FEATURE_SELFOVERLAP>
56.64

> <PUBCHEM_SHAPE_FINGERPRINT>
10863032 1 16844713369715032584
10948715 1 18411134749035305000
11578080 2 11721433550253752529
12035758 1 18339090375101672768
12553582 1 17400084067970342003
12716301 132 18118139184009546402
12788726 201 17617075341378933707
13140716 1 18410011052488675705
13464514 151 18120652435900239709
13681431 1 17906161850589144415
14178342 30 18410583885821487833
14787075 74 17975708194614288262
14817 1 17900268798813288038
15852999 172 18335428958331525075
15906896 17 18118966029581084974
16945 1 18059868233202324241
20511035 2 18263088880073236620
20645477 70 18194110812642488367
20905425 154 17907013980706215324
21041028 32 17694226568992713681
21421861 104 17757558456217674761
21524375 3 18408884070403360223
22344851 341 17831586374865606520
2334 1 18265614462529726149
23419403 2 17034509817082158170
25 1 18412549777671847017
2748010 2 18338247079494763863
3060560 45 18270949189968707333
404807 78 16885774709735372847
5845 1 17046505342943740287
589210 1 17762340618585839868
70251023 43 17692256240504759135
7364860 26 18125158234508414431
81228 2 17686891022733877635

> <PUBCHEM_SHAPE_MULTIPOLES>
396.95
4.35
3.75
1.41
2.17
3.28
0
-2.87
0.16
-1.02
0.07
0.04
0.45
0.81

> <PUBCHEM_SHAPE_SELFOVERLAP>
869.74

> <PUBCHEM_SHAPE_VOLUME>
214.1

> <PUBCHEM_COORDINATE_TYPE>
2
5
10

$$$$
