133562831
  -OEChem-03292013293D

 58 59  0     1  0  0  0  0  0999 V2000
   -0.9794    0.7504   -1.3581 O   0  0  0  0  0  0  0  0  0  0  0  0
   -2.9659    0.8876   -0.1423 O   0  0  0  0  0  0  0  0  0  0  0  0
   -1.0676   -2.0702   -1.1416 O   0  0  0  0  0  0  0  0  0  0  0  0
   -3.8259   -3.0648   -0.8540 O   0  0  0  0  0  0  0  0  0  0  0  0
   -5.1947   -1.6544    1.2659 O   0  0  0  0  0  0  0  0  0  0  0  0
    4.3682   -3.0044    0.1542 O   0  0  0  0  0  0  0  0  0  0  0  0
   -4.3647    2.4722    1.6293 O   0  0  0  0  0  0  0  0  0  0  0  0
    3.6565    0.3466    1.4729 C   0  0  0  0  0  0  0  0  0  0  0  0
    3.0546    0.9458    0.1598 C   0  0  2  0  0  0  0  0  0  0  0  0
    1.5183    0.9249    0.1125 C   0  0  0  0  0  0  0  0  0  0  0  0
    3.5206   -1.1885    1.4667 C   0  0  0  0  0  0  0  0  0  0  0  0
    3.5958    0.2429   -1.0765 C   0  0  0  0  0  0  0  0  0  0  0  0
    0.9871    2.0447   -0.7764 C   0  0  0  0  0  0  0  0  0  0  0  0
    5.1524    0.7363    1.5897 C   0  0  0  0  0  0  0  0  0  0  0  0
    2.9542    0.9000    2.7298 C   0  0  0  0  0  0  0  0  0  0  0  0
   -0.5421    2.0141   -0.8655 C   0  0  1  0  0  0  0  0  0  0  0  0
   -1.8189    0.0858   -0.4144 C   0  0  1  0  0  0  0  0  0  0  0  0
   -2.2338   -1.2565   -1.0168 C   0  0  2  0  0  0  0  0  0  0  0  0
   -3.2580   -1.9696   -0.1339 C   0  0  1  0  0  0  0  0  0  0  0  0
    4.0190   -1.8251    0.1874 C   0  0  0  0  0  0  0  0  0  0  0  0
   -4.3934   -1.0279    0.2676 C   0  0  2  0  0  0  0  0  0  0  0  0
    4.0395   -1.0235   -1.0590 C   0  0  0  0  0  0  0  0  0  0  0  0
   -3.8383    0.2883    0.8172 C   0  0  2  0  0  0  0  0  0  0  0  0
    3.6363    1.0502   -2.3451 C   0  0  0  0  0  0  0  0  0  0  0  0
   -1.0700    3.1061   -1.7861 C   0  0  0  0  0  0  0  0  0  0  0  0
   -4.9498    1.2891    1.1167 C   0  0  0  0  0  0  0  0  0  0  0  0
    3.3856    1.9941    0.1332 H   0  0  0  0  0  0  0  0  0  0  0  0
    1.1659   -0.0535   -0.2359 H   0  0  0  0  0  0  0  0  0  0  0  0
    1.0743    1.0775    1.0982 H   0  0  0  0  0  0  0  0  0  0  0  0
    2.4715   -1.4871    1.5831 H   0  0  0  0  0  0  0  0  0  0  0  0
    4.0845   -1.6191    2.3032 H   0  0  0  0  0  0  0  0  0  0  0  0
    1.3126    3.0186   -0.3910 H   0  0  0  0  0  0  0  0  0  0  0  0
    1.3663    1.9549   -1.7928 H   0  0  0  0  0  0  0  0  0  0  0  0
    3.5172    0.6441    3.6356 H   0  0  0  0  0  0  0  0  0  0  0  0
    1.9523    0.4824    2.8708 H   0  0  0  0  0  0  0  0  0  0  0  0
    2.8746    1.9920    2.6908 H   0  0  0  0  0  0  0  0  0  0  0  0
    5.5990    0.3170    2.4988 H   0  0  0  0  0  0  0  0  0  0  0  0
    5.7493    0.3806    0.7443 H   0  0  0  0  0  0  0  0  0  0  0  0
    5.2685    1.8252    1.6384 H   0  0  0  0  0  0  0  0  0  0  0  0
   -0.9318    2.2127    0.1425 H   0  0  0  0  0  0  0  0  0  0  0  0
   -1.2461   -0.0711    0.5096 H   0  0  0  0  0  0  0  0  0  0  0  0
   -2.6309   -1.1160   -2.0291 H   0  0  0  0  0  0  0  0  0  0  0  0
   -2.7778   -2.4027    0.7514 H   0  0  0  0  0  0  0  0  0  0  0  0
   -5.0390   -0.8384   -0.5987 H   0  0  0  0  0  0  0  0  0  0  0  0
   -3.2735    0.1209    1.7446 H   0  0  0  0  0  0  0  0  0  0  0  0
    4.4229   -1.5064   -1.9514 H   0  0  0  0  0  0  0  0  0  0  0  0
    2.7321    0.8937   -2.9396 H   0  0  0  0  0  0  0  0  0  0  0  0
    4.4869    0.7490   -2.9679 H   0  0  0  0  0  0  0  0  0  0  0  0
    3.7638    2.1181   -2.1424 H   0  0  0  0  0  0  0  0  0  0  0  0
   -0.7178    2.9565   -2.8127 H   0  0  0  0  0  0  0  0  0  0  0  0
   -2.1643    3.0816   -1.8231 H   0  0  0  0  0  0  0  0  0  0  0  0
   -0.7557    4.0985   -1.4487 H   0  0  0  0  0  0  0  0  0  0  0  0
   -5.6542    0.8979    1.8569 H   0  0  0  0  0  0  0  0  0  0  0  0
   -5.4931    1.5538    0.2035 H   0  0  0  0  0  0  0  0  0  0  0  0
   -0.6929   -2.1986   -0.2535 H   0  0  0  0  0  0  0  0  0  0  0  0
   -4.2461   -2.7132   -1.6574 H   0  0  0  0  0  0  0  0  0  0  0  0
   -4.6341   -1.8146    2.0442 H   0  0  0  0  0  0  0  0  0  0  0  0
   -5.0885    3.0963    1.8082 H   0  0  0  0  0  0  0  0  0  0  0  0
  1 16  1  0  0  0  0
  1 17  1  0  0  0  0
  2 17  1  0  0  0  0
  2 23  1  0  0  0  0
  3 18  1  0  0  0  0
  3 55  1  0  0  0  0
  4 19  1  0  0  0  0
  4 56  1  0  0  0  0
  5 21  1  0  0  0  0
  5 57  1  0  0  0  0
  6 20  2  0  0  0  0
  7 26  1  0  0  0  0
  7 58  1  0  0  0  0
  8  9  1  0  0  0  0
  8 11  1  0  0  0  0
  8 14  1  0  0  0  0
  8 15  1  0  0  0  0
  9 10  1  0  0  0  0
  9 12  1  0  0  0  0
  9 27  1  0  0  0  0
 10 13  1  0  0  0  0
 10 28  1  0  0  0  0
 10 29  1  0  0  0  0
 11 20  1  0  0  0  0
 11 30  1  0  0  0  0
 11 31  1  0  0  0  0
 12 22  2  0  0  0  0
 12 24  1  0  0  0  0
 13 16  1  0  0  0  0
 13 32  1  0  0  0  0
 13 33  1  0  0  0  0
 14 37  1  0  0  0  0
 14 38  1  0  0  0  0
 14 39  1  0  0  0  0
 15 34  1  0  0  0  0
 15 35  1  0  0  0  0
 15 36  1  0  0  0  0
 16 25  1  0  0  0  0
 16 40  1  0  0  0  0
 17 18  1  0  0  0  0
 17 41  1  0  0  0  0
 18 19  1  0  0  0  0
 18 42  1  0  0  0  0
 19 21  1  0  0  0  0
 19 43  1  0  0  0  0
 20 22  1  0  0  0  0
 21 23  1  0  0  0  0
 21 44  1  0  0  0  0
 22 46  1  0  0  0  0
 23 26  1  0  0  0  0
 23 45  1  0  0  0  0
 24 47  1  0  0  0  0
 24 48  1  0  0  0  0
 24 49  1  0  0  0  0
 25 50  1  0  0  0  0
 25 51  1  0  0  0  0
 25 52  1  0  0  0  0
 26 53  1  0  0  0  0
 26 54  1  0  0  0  0
M  END
> <PUBCHEM_COMPOUND_CID>
133562831

> <PUBCHEM_CONFORMER_RMSD>
0.8

> <PUBCHEM_CONFORMER_DIVERSEORDER>
1
39
73
50
142
135
94
168
161
121
70
54
105
7
37
107
79
145
64
20
33
136
140
27
127
34
61
21
151
68
138
122
10
101
111
13
130
133
63
99
38
40
92
72
35
22
84
166
148
18
4
65
45
51
25
16
162
104
149
85
167
76
53
82
97
9
95
28
143
55
69
118
96
44
113
8
165
32
125
2
102
6
60
103
46
164
155
147
15
114
124
5
159
59
117
152
139
78
156
160
115
128
11
116
75
62
109
80
36
83
144
158
126
91
49
86
66
90
23
141
12
71
150
120
93
131
89
30
146
14
48
43
58
163
98
42
77
52
3
81
112
110
17
153
157
67
57
87
19
100
129
74
119
24
154
26
29
31
41
132
108
47
134
88
137
56
106
123

> <PUBCHEM_MMFF94_PARTIAL_CHARGES>
25
1 -0.56
11 0.06
12 -0.28
16 0.28
17 0.56
18 0.28
19 0.28
2 -0.56
20 0.49
21 0.28
22 -0.14
23 0.28
24 0.14
26 0.28
3 -0.68
4 -0.68
46 0.15
5 -0.68
55 0.4
56 0.4
57 0.4
58 0.4
6 -0.57
7 -0.68
9 0.14

> <PUBCHEM_EFFECTIVE_ROTOR_COUNT>
7.8

> <PUBCHEM_PHARMACOPHORE_FEATURES>
14
1 1 acceptor
1 2 acceptor
1 3 acceptor
1 3 donor
1 4 acceptor
1 4 donor
1 5 acceptor
1 5 donor
1 6 acceptor
1 7 acceptor
1 7 donor
3 8 14 15 hydrophobe
6 2 17 18 19 21 23 rings
6 8 9 11 12 20 22 rings

> <PUBCHEM_HEAVY_ATOM_COUNT>
26

> <PUBCHEM_ATOM_DEF_STEREO_COUNT>
7

> <PUBCHEM_ATOM_UDEF_STEREO_COUNT>
0

> <PUBCHEM_BOND_DEF_STEREO_COUNT>
0

> <PUBCHEM_BOND_UDEF_STEREO_COUNT>
0

> <PUBCHEM_ISOTOPIC_ATOM_COUNT>
0

> <PUBCHEM_COMPONENT_COUNT>
1

> <PUBCHEM_CACTVS_TAUTO_COUNT>
8

> <PUBCHEM_CONFORMER_ID>
07F601CF00000001

> <PUBCHEM_MMFF94_ENERGY>
71.1713

> <PUBCHEM_FEATURE_SELFOVERLAP>
71.11

> <PUBCHEM_SHAPE_FINGERPRINT>
10369192 42 17557410275049364672
10928967 22 18040148522123219851
11135609 12 18261105215647998618
11370993 144 17988354880198150000
11552529 35 17844511387352833727
11991303 11 16445022004527931957
12107183 9 18195819474622815001
12422481 6 18192442883199053805
12553582 1 18261106426253899796
12633257 1 17131821058969842766
12670546 177 11963396223510348352
12788726 201 17968102975510969212
12892183 10 17987790942322940785
13224815 77 17603298263209278518
13583140 156 16558462097355484241
13675066 3 17561369499728270597
13692114 37 17975119956373684285
14251764 38 15266514919422691313
14420673 8 18196381307526484526
150020 26 18054222133884100918
15537594 2 18113911433051955374
17349148 13 18272652402737699087
17809404 112 17680670879466144702
17818456 19 18270975595755210081
1813 80 17676210186287767957
20775530 9 17902784159992086930
21033648 29 16702027456698051217
21095088 737 9222932803561007479
21756936 100 15479269569732658144
22950370 63 18114756974615718085
23559900 14 17631472136248590388
23598288 3 17894906274541510541
238 59 13262685803329618884
312425 83 11530757059813711058
5104073 3 18343864394270361186
56633871 153 18338800014022827007
57724786 102 15338569322252367192
7064713 232 18271812285242974385
7097593 13 18194967567975788709

> <PUBCHEM_SHAPE_MULTIPOLES>
493.98
12.06
3.08
2.08
3.95
0.43
0.55
4.1
4.59
1.63
-0.99
-1.56
-0.82
-0.89

> <PUBCHEM_SHAPE_SELFOVERLAP>
1003.401

> <PUBCHEM_SHAPE_VOLUME>
284.6

> <PUBCHEM_COORDINATE_TYPE>
2
5
10

$$$$
