133544
  -OEChem-03292013323D

 47 47  0     1  0  0  0  0  0999 V2000
    1.7304   -2.3572   -1.0494 P   0  0  0  0  0  0  0  0  0  0  0  0
    0.6355    0.9947   -2.0406 O   0  0  0  0  0  0  0  0  0  0  0  0
    2.1160   -3.0270    0.3789 O   0  0  0  0  0  0  0  0  0  0  0  0
    2.6358   -3.2402   -2.0682 O   0  0  0  0  0  0  0  0  0  0  0  0
    0.2605   -2.4754   -1.3521 O   0  0  0  0  0  0  0  0  0  0  0  0
   -0.2916    3.7766   -0.0519 O   0  0  0  0  0  0  0  0  0  0  0  0
   -2.3642    4.0090   -0.9243 O   0  0  0  0  0  0  0  0  0  0  0  0
    2.3557   -0.8291   -1.0427 N   0  0  0  0  0  0  0  0  0  0  0  0
   -0.3762    1.1628    0.0424 N   0  0  0  0  0  0  0  0  0  0  0  0
    2.9243    1.1765    0.2652 C   0  0  0  0  0  0  0  0  0  0  0  0
    1.8271    0.1658   -0.1059 C   0  0  1  0  0  0  0  0  0  0  0  0
    4.1154    0.5727    1.0403 C   0  0  0  0  0  0  0  0  0  0  0  0
    0.6528    0.8225   -0.8231 C   0  0  0  0  0  0  0  0  0  0  0  0
   -1.6095    1.7709   -0.4017 C   0  0  1  0  0  0  0  0  0  0  0  0
    5.2055    1.6038    1.3358 C   0  0  0  0  0  0  0  0  0  0  0  0
    3.6184   -0.0422    2.3518 C   0  0  0  0  0  0  0  0  0  0  0  0
   -2.7733    1.4040    0.5282 C   0  0  0  0  0  0  0  0  0  0  0  0
   -2.9941   -0.0856    0.6359 C   0  0  0  0  0  0  0  0  0  0  0  0
   -1.4739    3.2838   -0.4926 C   0  0  0  0  0  0  0  0  0  0  0  0
   -3.8582   -0.7285   -0.2508 C   0  0  0  0  0  0  0  0  0  0  0  0
   -2.3340   -0.8194    1.6216 C   0  0  0  0  0  0  0  0  0  0  0  0
   -4.0622   -2.1048   -0.1516 C   0  0  0  0  0  0  0  0  0  0  0  0
   -2.5380   -2.1957    1.7207 C   0  0  0  0  0  0  0  0  0  0  0  0
   -3.4021   -2.8383    0.8340 C   0  0  0  0  0  0  0  0  0  0  0  0
    3.2993    1.6613   -0.6468 H   0  0  0  0  0  0  0  0  0  0  0  0
    2.4758    1.9838    0.8601 H   0  0  0  0  0  0  0  0  0  0  0  0
    1.4496   -0.3348    0.7911 H   0  0  0  0  0  0  0  0  0  0  0  0
    4.5730   -0.2221    0.4386 H   0  0  0  0  0  0  0  0  0  0  0  0
   -1.8069    1.4129   -1.4200 H   0  0  0  0  0  0  0  0  0  0  0  0
    2.5723   -0.3897   -1.9367 H   0  0  0  0  0  0  0  0  0  0  0  0
    5.5852    2.0396    0.4058 H   0  0  0  0  0  0  0  0  0  0  0  0
    6.0496    1.1430    1.8594 H   0  0  0  0  0  0  0  0  0  0  0  0
    4.8214    2.4184    1.9591 H   0  0  0  0  0  0  0  0  0  0  0  0
    4.4635   -0.3688    2.9682 H   0  0  0  0  0  0  0  0  0  0  0  0
    2.9996   -0.9269    2.1792 H   0  0  0  0  0  0  0  0  0  0  0  0
    3.0377    0.6785    2.9375 H   0  0  0  0  0  0  0  0  0  0  0  0
   -0.2205    1.0788    1.0428 H   0  0  0  0  0  0  0  0  0  0  0  0
   -3.6993    1.8823    0.1819 H   0  0  0  0  0  0  0  0  0  0  0  0
   -2.5987    1.8148    1.5325 H   0  0  0  0  0  0  0  0  0  0  0  0
   -4.3761   -0.1678   -1.0244 H   0  0  0  0  0  0  0  0  0  0  0  0
   -1.6623   -0.3324    2.3234 H   0  0  0  0  0  0  0  0  0  0  0  0
    1.7636   -3.9172    0.5922 H   0  0  0  0  0  0  0  0  0  0  0  0
    2.3687   -4.1655   -2.2543 H   0  0  0  0  0  0  0  0  0  0  0  0
   -4.7343   -2.6054   -0.8423 H   0  0  0  0  0  0  0  0  0  0  0  0
   -2.0244   -2.7670    2.4884 H   0  0  0  0  0  0  0  0  0  0  0  0
   -3.5606   -3.9100    0.9111 H   0  0  0  0  0  0  0  0  0  0  0  0
   -0.2507    4.7538   -0.1265 H   0  0  0  0  0  0  0  0  0  0  0  0
  1  3  1  0  0  0  0
  1  4  1  0  0  0  0
  1  5  2  0  0  0  0
  1  8  1  0  0  0  0
  2 13  2  0  0  0  0
  3 42  1  0  0  0  0
  4 43  1  0  0  0  0
  6 19  1  0  0  0  0
  6 47  1  0  0  0  0
  7 19  2  0  0  0  0
  8 11  1  0  0  0  0
  8 30  1  0  0  0  0
  9 13  1  0  0  0  0
  9 14  1  0  0  0  0
  9 37  1  0  0  0  0
 10 11  1  0  0  0  0
 10 12  1  0  0  0  0
 10 25  1  0  0  0  0
 10 26  1  0  0  0  0
 11 13  1  0  0  0  0
 11 27  1  0  0  0  0
 12 15  1  0  0  0  0
 12 16  1  0  0  0  0
 12 28  1  0  0  0  0
 14 17  1  0  0  0  0
 14 19  1  0  0  0  0
 14 29  1  0  0  0  0
 15 31  1  0  0  0  0
 15 32  1  0  0  0  0
 15 33  1  0  0  0  0
 16 34  1  0  0  0  0
 16 35  1  0  0  0  0
 16 36  1  0  0  0  0
 17 18  1  0  0  0  0
 17 38  1  0  0  0  0
 17 39  1  0  0  0  0
 18 20  2  0  0  0  0
 18 21  1  0  0  0  0
 20 22  1  0  0  0  0
 20 40  1  0  0  0  0
 21 23  2  0  0  0  0
 21 41  1  0  0  0  0
 22 24  2  0  0  0  0
 22 44  1  0  0  0  0
 23 24  1  0  0  0  0
 23 45  1  0  0  0  0
 24 46  1  0  0  0  0
M  END
> <PUBCHEM_COMPOUND_CID>
133544

> <PUBCHEM_CONFORMER_RMSD>
1

> <PUBCHEM_CONFORMER_DIVERSEORDER>
1
23
51
67
32
69
74
66
28
61
57
53
40
55
56
65
71
12
19
58
16
68
60
13
26
39
14
36
49
47
50
5
44
22
43
70
17
29
9
27
7
33
38
37
24
59
20
35
54
2
52
6
42
63
3
46
45
48
31
25
64
34
30
10
62
73
21
15
41
18
72
4
8
11

> <PUBCHEM_MMFF94_PARTIAL_CHARGES>
30
1 1.51
11 0.33
13 0.57
14 0.36
17 0.14
18 -0.14
19 0.66
2 -0.57
20 -0.15
21 -0.15
22 -0.15
23 -0.15
24 -0.15
3 -0.77
30 0.36
37 0.37
4 -0.77
40 0.15
41 0.15
42 0.5
43 0.5
44 0.15
45 0.15
46 0.15
47 0.5
5 -0.7
6 -0.65
7 -0.57
8 -0.9
9 -0.73

> <PUBCHEM_EFFECTIVE_ROTOR_COUNT>
10

> <PUBCHEM_PHARMACOPHORE_FEATURES>
11
1 2 acceptor
1 3 acceptor
1 4 acceptor
1 5 acceptor
1 6 acceptor
1 7 acceptor
1 9 donor
3 12 15 16 hydrophobe
3 6 7 19 anion
4 1 3 4 5 anion
6 18 20 21 22 23 24 rings

> <PUBCHEM_HEAVY_ATOM_COUNT>
24

> <PUBCHEM_ATOM_DEF_STEREO_COUNT>
2

> <PUBCHEM_ATOM_UDEF_STEREO_COUNT>
0

> <PUBCHEM_BOND_DEF_STEREO_COUNT>
0

> <PUBCHEM_BOND_UDEF_STEREO_COUNT>
0

> <PUBCHEM_ISOTOPIC_ATOM_COUNT>
0

> <PUBCHEM_COMPONENT_COUNT>
1

> <PUBCHEM_CACTVS_TAUTO_COUNT>
4

> <PUBCHEM_CONFORMER_ID>
000209A800000001

> <PUBCHEM_MMFF94_ENERGY>
6.8756

> <PUBCHEM_FEATURE_SELFOVERLAP>
55.926

> <PUBCHEM_SHAPE_FINGERPRINT>
10366900 7 18271231772857621840
10906281 52 18335991934456027653
11578080 2 17987811712895924849
12160290 23 17823710659334311177
12363563 72 18115595996693113891
12553582 1 18191329228238379105
12633257 1 17971768910903235963
12788726 201 18114474396086042121
12839892 36 18341323487697418330
128993 33 10663828429723568611
14081887 123 18336544932473838944
14178342 30 18261395507443702360
14223421 5 18270684160337363830
15099037 37 18335133211094197856
17980427 26 17039759804611174236
20600515 1 17749390416125711351
21202864 24 17914609712437864898
23557571 272 18409170982708369433
23558518 356 18264204704055745125
23559900 14 18338524019418949268
469060 322 17770468088263328436
81228 2 18262534593359521457
9709674 26 18268146457314431437
9981440 41 17841959283879921968

> <PUBCHEM_SHAPE_MULTIPOLES>
452.58
8.17
4.58
1.8
3.76
1.84
0.13
-1.99
4.16
-1.77
-1.83
1.23
-0.96
2.06

> <PUBCHEM_SHAPE_SELFOVERLAP>
897.676

> <PUBCHEM_SHAPE_VOLUME>
269.1

> <PUBCHEM_COORDINATE_TYPE>
2
5
10

$$$$
