133688438
  -OEChem-03292013293D

 75 78  0     1  0  0  0  0  0999 V2000
    4.6918   -3.3956   -0.5299 O   0  0  0  0  0  0  0  0  0  0  0  0
    6.9287    0.9151   -2.1126 O   0  0  0  0  0  0  0  0  0  0  0  0
   -5.7613    1.2570    1.2695 O   0  0  0  0  0  0  0  0  0  0  0  0
   -8.1534   -0.7093   -0.5633 O   0  0  0  0  0  0  0  0  0  0  0  0
   -8.1613   -2.5379    0.7797 O   0  0  0  0  0  0  0  0  0  0  0  0
   -5.5737   -0.3214   -0.4256 N   0  0  0  0  0  0  0  0  0  0  0  0
    0.7489   -0.4429   -0.5462 C   0  0  1  0  0  0  0  0  0  0  0  0
   -0.0622    0.6518    0.1804 C   0  0  2  0  0  0  0  0  0  0  0  0
    2.0024   -0.8676    0.2267 C   0  0  2  0  0  0  0  0  0  0  0  0
    2.9248    0.3819    0.4080 C   0  0  2  0  0  0  0  0  0  0  0  0
    4.2680    0.0248    1.1513 C   0  0  1  0  0  0  0  0  0  0  0  0
   -1.2391    0.7890   -0.8163 C   0  0  1  0  0  0  0  0  0  0  0  0
    4.9821   -1.1486    0.3947 C   0  0  1  0  0  0  0  0  0  0  0  0
    0.8297    1.8950    0.2991 C   0  0  0  0  0  0  0  0  0  0  0  0
    2.1530    1.5813    1.0221 C   0  0  0  0  0  0  0  0  0  0  0  0
   -0.3001   -1.4942   -0.8959 C   0  0  0  0  0  0  0  0  0  0  0  0
    2.7404   -2.0081   -0.4835 C   0  0  0  0  0  0  0  0  0  0  0  0
   -1.5675   -0.6736   -1.1981 C   0  0  0  0  0  0  0  0  0  0  0  0
    4.0488   -2.3655    0.2172 C   0  0  1  0  0  0  0  0  0  0  0  0
    5.2442    1.2349    1.2270 C   0  0  0  0  0  0  0  0  0  0  0  0
   -0.5677    0.2388    1.5856 C   0  0  0  0  0  0  0  0  0  0  0  0
    5.5884   -0.6994   -0.9562 C   0  0  0  0  0  0  0  0  0  0  0  0
   -2.4573    1.5621   -0.3315 C   0  0  2  0  0  0  0  0  0  0  0  0
    3.9967   -0.3955    2.6193 C   0  0  0  0  0  0  0  0  0  0  0  0
    5.8001    1.6680   -0.1227 C   0  0  0  0  0  0  0  0  0  0  0  0
    6.5066    0.5102   -0.8144 C   0  0  2  0  0  0  0  0  0  0  0  0
   -3.5499    1.5690   -1.4202 C   0  0  0  0  0  0  0  0  0  0  0  0
   -2.0491    2.9799    0.0820 C   0  0  0  0  0  0  0  0  0  0  0  0
   -4.9366    1.9481   -0.8992 C   0  0  0  0  0  0  0  0  0  0  0  0
   -5.4657    0.9507    0.1177 C   0  0  0  0  0  0  0  0  0  0  0  0
   -6.0585   -1.4600    0.3203 C   0  0  0  0  0  0  0  0  0  0  0  0
   -7.5512   -1.6381    0.2151 C   0  0  0  0  0  0  0  0  0  0  0  0
    1.0990   -0.0344   -1.5094 H   0  0  0  0  0  0  0  0  0  0  0  0
    1.6995   -1.2461    1.2081 H   0  0  0  0  0  0  0  0  0  0  0  0
    3.1921    0.7084   -0.6066 H   0  0  0  0  0  0  0  0  0  0  0  0
   -0.8650    1.2816   -1.7275 H   0  0  0  0  0  0  0  0  0  0  0  0
    5.8353   -1.4861    1.0019 H   0  0  0  0  0  0  0  0  0  0  0  0
    1.0615    2.2914   -0.6978 H   0  0  0  0  0  0  0  0  0  0  0  0
    0.3604    2.7051    0.8577 H   0  0  0  0  0  0  0  0  0  0  0  0
    2.7710    2.4845    0.9763 H   0  0  0  0  0  0  0  0  0  0  0  0
    1.9481    1.4002    2.0818 H   0  0  0  0  0  0  0  0  0  0  0  0
   -0.4783   -2.1778   -0.0583 H   0  0  0  0  0  0  0  0  0  0  0  0
   -0.0028   -2.0984   -1.7592 H   0  0  0  0  0  0  0  0  0  0  0  0
    2.1039   -2.9015   -0.5197 H   0  0  0  0  0  0  0  0  0  0  0  0
    2.9297   -1.7522   -1.5336 H   0  0  0  0  0  0  0  0  0  0  0  0
   -1.8211   -0.7499   -2.2614 H   0  0  0  0  0  0  0  0  0  0  0  0
   -2.4097   -1.0774   -0.6245 H   0  0  0  0  0  0  0  0  0  0  0  0
    3.8257   -2.7937    1.2010 H   0  0  0  0  0  0  0  0  0  0  0  0
    6.0958    0.9667    1.8684 H   0  0  0  0  0  0  0  0  0  0  0  0
    4.7722    2.0926    1.7182 H   0  0  0  0  0  0  0  0  0  0  0  0
   -1.0827    1.0636    2.0875 H   0  0  0  0  0  0  0  0  0  0  0  0
    0.2447   -0.0609    2.2530 H   0  0  0  0  0  0  0  0  0  0  0  0
   -1.2670   -0.6024    1.5469 H   0  0  0  0  0  0  0  0  0  0  0  0
    6.1638   -1.5211   -1.4016 H   0  0  0  0  0  0  0  0  0  0  0  0
    4.8055   -0.4723   -1.6893 H   0  0  0  0  0  0  0  0  0  0  0  0
   -2.8707    1.0621    0.5516 H   0  0  0  0  0  0  0  0  0  0  0  0
    3.2666   -1.2034    2.7066 H   0  0  0  0  0  0  0  0  0  0  0  0
    3.6270    0.4455    3.2154 H   0  0  0  0  0  0  0  0  0  0  0  0
    4.9184   -0.7441    3.1003 H   0  0  0  0  0  0  0  0  0  0  0  0
    5.0071    2.0708   -0.7639 H   0  0  0  0  0  0  0  0  0  0  0  0
    6.5078    2.4949    0.0148 H   0  0  0  0  0  0  0  0  0  0  0  0
    7.4019    0.2344   -0.2444 H   0  0  0  0  0  0  0  0  0  0  0  0
   -3.6186    0.6017   -1.9244 H   0  0  0  0  0  0  0  0  0  0  0  0
   -3.2675    2.2857   -2.2027 H   0  0  0  0  0  0  0  0  0  0  0  0
   -1.3555    3.4346   -0.6323 H   0  0  0  0  0  0  0  0  0  0  0  0
   -1.6237    3.0024    1.0868 H   0  0  0  0  0  0  0  0  0  0  0  0
   -2.9211    3.6398    0.1336 H   0  0  0  0  0  0  0  0  0  0  0  0
    4.0797   -4.1495   -0.5811 H   0  0  0  0  0  0  0  0  0  0  0  0
    7.3933    0.1636   -2.5186 H   0  0  0  0  0  0  0  0  0  0  0  0
   -5.6451    1.9850   -1.7356 H   0  0  0  0  0  0  0  0  0  0  0  0
   -4.9355    2.9424   -0.4422 H   0  0  0  0  0  0  0  0  0  0  0  0
   -5.3714   -0.4658   -1.4098 H   0  0  0  0  0  0  0  0  0  0  0  0
   -5.7957   -1.3366    1.3751 H   0  0  0  0  0  0  0  0  0  0  0  0
   -5.5699   -2.3478   -0.0904 H   0  0  0  0  0  0  0  0  0  0  0  0
   -9.1232   -0.8468   -0.6158 H   0  0  0  0  0  0  0  0  0  0  0  0
  1 19  1  0  0  0  0
  1 68  1  0  0  0  0
  2 26  1  0  0  0  0
  2 69  1  0  0  0  0
  3 30  2  0  0  0  0
  4 32  1  0  0  0  0
  4 75  1  0  0  0  0
  5 32  2  0  0  0  0
  6 30  1  0  0  0  0
  6 31  1  0  0  0  0
  6 72  1  0  0  0  0
  7  8  1  0  0  0  0
  7  9  1  0  0  0  0
  7 16  1  0  0  0  0
  7 33  1  0  0  0  0
  8 12  1  0  0  0  0
  8 14  1  0  0  0  0
  8 21  1  0  0  0  0
  9 10  1  0  0  0  0
  9 17  1  0  0  0  0
  9 34  1  0  0  0  0
 10 11  1  0  0  0  0
 10 15  1  0  0  0  0
 10 35  1  0  0  0  0
 11 13  1  0  0  0  0
 11 20  1  0  0  0  0
 11 24  1  0  0  0  0
 12 18  1  0  0  0  0
 12 23  1  0  0  0  0
 12 36  1  0  0  0  0
 13 19  1  0  0  0  0
 13 22  1  0  0  0  0
 13 37  1  0  0  0  0
 14 15  1  0  0  0  0
 14 38  1  0  0  0  0
 14 39  1  0  0  0  0
 15 40  1  0  0  0  0
 15 41  1  0  0  0  0
 16 18  1  0  0  0  0
 16 42  1  0  0  0  0
 16 43  1  0  0  0  0
 17 19  1  0  0  0  0
 17 44  1  0  0  0  0
 17 45  1  0  0  0  0
 18 46  1  0  0  0  0
 18 47  1  0  0  0  0
 19 48  1  0  0  0  0
 20 25  1  0  0  0  0
 20 49  1  0  0  0  0
 20 50  1  0  0  0  0
 21 51  1  0  0  0  0
 21 52  1  0  0  0  0
 21 53  1  0  0  0  0
 22 26  1  0  0  0  0
 22 54  1  0  0  0  0
 22 55  1  0  0  0  0
 23 27  1  0  0  0  0
 23 28  1  0  0  0  0
 23 56  1  0  0  0  0
 24 57  1  0  0  0  0
 24 58  1  0  0  0  0
 24 59  1  0  0  0  0
 25 26  1  0  0  0  0
 25 60  1  0  0  0  0
 25 61  1  0  0  0  0
 26 62  1  0  0  0  0
 27 29  1  0  0  0  0
 27 63  1  0  0  0  0
 27 64  1  0  0  0  0
 28 65  1  0  0  0  0
 28 66  1  0  0  0  0
 28 67  1  0  0  0  0
 29 30  1  0  0  0  0
 29 70  1  0  0  0  0
 29 71  1  0  0  0  0
 31 32  1  0  0  0  0
 31 73  1  0  0  0  0
 31 74  1  0  0  0  0
M  END
> <PUBCHEM_COMPOUND_CID>
133688438

> <PUBCHEM_CONFORMER_RMSD>
1

> <PUBCHEM_CONFORMER_DIVERSEORDER>
5
22
13
27
20
39
28
40
2
21
23
35
31
9
18
29
4
10
38
1
17
33
12
25
16
19
34
3
11
36
24
37
14
6
8
26
30
32
7
15

> <PUBCHEM_MMFF94_PARTIAL_CHARGES>
16
1 -0.68
19 0.28
2 -0.68
26 0.28
29 0.06
3 -0.57
30 0.57
31 0.36
32 0.66
4 -0.65
5 -0.57
6 -0.73
68 0.4
69 0.4
72 0.37
75 0.5

> <PUBCHEM_EFFECTIVE_ROTOR_COUNT>
9.2

> <PUBCHEM_PHARMACOPHORE_FEATURES>
14
1 1 acceptor
1 1 donor
1 2 acceptor
1 2 donor
1 28 hydrophobe
1 3 acceptor
1 4 acceptor
1 5 acceptor
1 6 donor
3 4 5 32 anion
5 7 8 12 16 18 rings
6 11 13 20 22 25 26 rings
6 7 8 9 10 14 15 rings
6 9 10 11 13 17 19 rings

> <PUBCHEM_HEAVY_ATOM_COUNT>
32

> <PUBCHEM_ATOM_DEF_STEREO_COUNT>
10

> <PUBCHEM_ATOM_UDEF_STEREO_COUNT>
0

> <PUBCHEM_BOND_DEF_STEREO_COUNT>
0

> <PUBCHEM_BOND_UDEF_STEREO_COUNT>
0

> <PUBCHEM_ISOTOPIC_ATOM_COUNT>
0

> <PUBCHEM_COMPONENT_COUNT>
1

> <PUBCHEM_CACTVS_TAUTO_COUNT>
2

> <PUBCHEM_CONFORMER_ID>
07F7EC7600000005

> <PUBCHEM_MMFF94_ENERGY>
102.5328

> <PUBCHEM_FEATURE_SELFOVERLAP>
71.234

> <PUBCHEM_SHAPE_FINGERPRINT>
10076449 9 18202009849667651220
10591671 39 18409171012873471548
11475781 23 10665221536572446403
11724838 91 17748827432276788636
11963148 33 18409439302317108919
12522641 126 17970917897414306829
12730499 353 18272366469458418306
12778500 126 12247685954810404252
13782708 43 18042400244711694467
13914758 101 10159702391263638197
14251764 18 18413671327346466039
15082195 135 18113912584720506172
15183329 4 13902187075833176921
15352257 5 18410293592997427899
15510800 12 17968386749344515179
18335252 98 18410013247275239198
18608769 82 18412259566731753766
20105231 36 17846505845748448582
20511986 3 12685095916302760121
21049683 271 18409734001382047268
21150785 3 17313103077058814221
21223535 225 9511193911069412163
21267235 1 18201719514521458246
21623969 137 18131630067555847119
21774942 28 12108049068925911359
21781051 124 18342742910244324942
21859007 373 9799417689185875594
22149856 69 18343308037545328945
23424782 7 18408606976145436127
23522609 53 18058470758213951936
24771293 8 16588030099925970732
24771750 20 18044381766945849812
25222932 49 17894900824232851322
2747138 104 18343018917558720089
3009799 131 12251898200930800941
34797466 226 17604159133822628556
350125 39 18342738507264322109
4073 2 18336263436908586373
4340502 62 17313105216295302304
437795 51 18130504218829630040
4461854 278 18129955589084326831
4760202 70 18126561456628020149
484989 97 18341336574721797270
5104073 3 18058158441139444097
5381727 24 18040995155884379170
57816373 69 16662034834683713874
59755656 520 15195285352751984783

> <PUBCHEM_SHAPE_MULTIPOLES>
624.22
20.49
2.75
1.5
26.66
0.67
0.35
6.73
-0.7
0.88
-0.15
-1.53
-0.16
0.92

> <PUBCHEM_SHAPE_SELFOVERLAP>
1300.952

> <PUBCHEM_SHAPE_VOLUME>
351.5

> <PUBCHEM_COORDINATE_TYPE>
2
5
10

$$$$
