133622
  -OEChem-03292013323D

 36 35  0     0  0  0  0  0  0999 V2000
    4.5023   -0.3945   -0.0866 S   0  0  0  0  0  0  0  0  0  0  0  0
   -4.5025    0.3952   -0.0859 S   0  0  0  0  0  0  0  0  0  0  0  0
    3.0377    0.3273   -0.0604 O   0  0  0  0  0  0  0  0  0  0  0  0
   -3.0380   -0.3270   -0.0695 O   0  0  0  0  0  0  0  0  0  0  0  0
    4.7203   -1.0870    1.1673 O   0  0  0  0  0  0  0  0  0  0  0  0
    4.6957   -1.0444   -1.3669 O   0  0  0  0  0  0  0  0  0  0  0  0
   -4.7168    1.0782    1.1737 O   0  0  0  0  0  0  0  0  0  0  0  0
   -4.6998    1.0547   -1.3607 O   0  0  0  0  0  0  0  0  0  0  0  0
    7.4297   -0.0177    0.7890 O   0  0  0  0  0  0  0  0  0  0  0  0
   -7.4274    0.0118    0.7955 O   0  0  0  0  0  0  0  0  0  0  0  0
    0.6446    0.4069   -0.0360 C   0  0  0  0  0  0  0  0  0  0  0  0
   -0.6448   -0.4068   -0.0529 C   0  0  0  0  0  0  0  0  0  0  0  0
    1.8747   -0.4889   -0.0628 C   0  0  0  0  0  0  0  0  0  0  0  0
   -1.8749    0.4894   -0.0693 C   0  0  0  0  0  0  0  0  0  0  0  0
    5.4675    1.0947   -0.0710 C   0  0  0  0  0  0  0  0  0  0  0  0
   -5.4676   -1.0941   -0.0786 C   0  0  0  0  0  0  0  0  0  0  0  0
    6.9440    0.8079   -0.2619 C   0  0  0  0  0  0  0  0  0  0  0  0
   -6.9448   -0.8058   -0.2630 C   0  0  0  0  0  0  0  0  0  0  0  0
    0.6750    1.0879   -0.8958 H   0  0  0  0  0  0  0  0  0  0  0  0
    0.6789    1.0468    0.8545 H   0  0  0  0  0  0  0  0  0  0  0  0
   -0.6671   -1.0664   -0.9294 H   0  0  0  0  0  0  0  0  0  0  0  0
   -0.6874   -1.0685    0.8213 H   0  0  0  0  0  0  0  0  0  0  0  0
    1.8737   -1.1116   -0.9642 H   0  0  0  0  0  0  0  0  0  0  0  0
    1.8898   -1.1421    0.8165 H   0  0  0  0  0  0  0  0  0  0  0  0
   -1.8880    1.1351    0.8156 H   0  0  0  0  0  0  0  0  0  0  0  0
   -1.8758    1.1197   -0.9655 H   0  0  0  0  0  0  0  0  0  0  0  0
    5.1018    1.7381   -0.8767 H   0  0  0  0  0  0  0  0  0  0  0  0
    5.2862    1.5773    0.8947 H   0  0  0  0  0  0  0  0  0  0  0  0
   -5.1044   -1.7315   -0.8902 H   0  0  0  0  0  0  0  0  0  0  0  0
   -5.2836   -1.5839    0.8830 H   0  0  0  0  0  0  0  0  0  0  0  0
    7.5116    1.7437   -0.2548 H   0  0  0  0  0  0  0  0  0  0  0  0
    7.1267    0.2961   -1.2122 H   0  0  0  0  0  0  0  0  0  0  0  0
   -7.5123   -1.7416   -0.2612 H   0  0  0  0  0  0  0  0  0  0  0  0
   -7.1302   -0.2868   -1.2089 H   0  0  0  0  0  0  0  0  0  0  0  0
    8.3761   -0.1651    0.6216 H   0  0  0  0  0  0  0  0  0  0  0  0
   -8.3743    0.1606    0.6320 H   0  0  0  0  0  0  0  0  0  0  0  0
  1  3  1  0  0  0  0
  1  5  2  0  0  0  0
  1  6  2  0  0  0  0
  1 15  1  0  0  0  0
  2  4  1  0  0  0  0
  2  7  2  0  0  0  0
  2  8  2  0  0  0  0
  2 16  1  0  0  0  0
  3 13  1  0  0  0  0
  4 14  1  0  0  0  0
  9 17  1  0  0  0  0
  9 35  1  0  0  0  0
 10 18  1  0  0  0  0
 10 36  1  0  0  0  0
 11 12  1  0  0  0  0
 11 13  1  0  0  0  0
 11 19  1  0  0  0  0
 11 20  1  0  0  0  0
 12 14  1  0  0  0  0
 12 21  1  0  0  0  0
 12 22  1  0  0  0  0
 13 23  1  0  0  0  0
 13 24  1  0  0  0  0
 14 25  1  0  0  0  0
 14 26  1  0  0  0  0
 15 17  1  0  0  0  0
 15 27  1  0  0  0  0
 15 28  1  0  0  0  0
 16 18  1  0  0  0  0
 16 29  1  0  0  0  0
 16 30  1  0  0  0  0
 17 31  1  0  0  0  0
 17 32  1  0  0  0  0
 18 33  1  0  0  0  0
 18 34  1  0  0  0  0
M  END
> <PUBCHEM_COMPOUND_CID>
133622

> <PUBCHEM_CONFORMER_RMSD>
1

> <PUBCHEM_CONFORMER_DIVERSEORDER>
1
36
13
8
46
12
30
5
64
27
31
49
32
43
74
45
56
61
35
6
20
11
15
41
77
47
28
71
14
50
78
21
67
48
34
53
24
33
66
22
55
65
69
25
17
23
80
70
73
3
58
38
4
26
76
81
7
62
63
75
68
51
72
59
37
79
57
42
19
54
9
39
16
18
10
44
60
2
40
52
29

> <PUBCHEM_MMFF94_PARTIAL_CHARGES>
18
1 1.38
10 -0.68
13 0.28
14 0.28
15 0.11
16 0.11
17 0.28
18 0.28
2 1.38
3 -0.46
35 0.4
36 0.4
4 -0.46
5 -0.65
6 -0.65
7 -0.65
8 -0.65
9 -0.68

> <PUBCHEM_EFFECTIVE_ROTOR_COUNT>
11

> <PUBCHEM_PHARMACOPHORE_FEATURES>
8
1 10 acceptor
1 10 donor
1 5 acceptor
1 6 acceptor
1 7 acceptor
1 8 acceptor
1 9 acceptor
1 9 donor

> <PUBCHEM_HEAVY_ATOM_COUNT>
18

> <PUBCHEM_ATOM_DEF_STEREO_COUNT>
0

> <PUBCHEM_ATOM_UDEF_STEREO_COUNT>
0

> <PUBCHEM_BOND_DEF_STEREO_COUNT>
0

> <PUBCHEM_BOND_UDEF_STEREO_COUNT>
0

> <PUBCHEM_ISOTOPIC_ATOM_COUNT>
0

> <PUBCHEM_COMPONENT_COUNT>
1

> <PUBCHEM_CACTVS_TAUTO_COUNT>
1

> <PUBCHEM_CONFORMER_ID>
000209F600000001

> <PUBCHEM_MMFF94_ENERGY>
5.6496

> <PUBCHEM_FEATURE_SELFOVERLAP>
40.636

> <PUBCHEM_SHAPE_FINGERPRINT>
10968037 39 18411136953186906239
11315181 36 18412546527251925209
12091667 2 17530964683458256341
13533116 47 17822566119574963554
14123256 10 18410856572524691482
1420 363 18272654545667987799
14251718 22 18408603664635824205
14251752 14 8214149546667334471
14251764 18 18410856572524691473
14251764 46 18059857276672024476
14933364 13 17489872639250572937
15716309 27 18408321090516945699
17834076 25 18410855473023619684
19489759 90 16225764112734163269
20281389 69 18186798102092145356
20621476 8 12247688157643323553
21150785 3 18410856589704560732
21315763 28 17967529073843889492
220451 1 15626222411728322301
22224240 67 18410853287254894986
22896161 15 18411701023520156335
23081809 10 17418373554148744174
23521765 1 18341895203230580751
28498 318 8718558207128782152
42788 4 18333448742348216300
4325135 7 18410011056672866638
57583515 80 10881399838056652973
8209 1 18187364341758003975

> <PUBCHEM_SHAPE_MULTIPOLES>
331.18
23.44
1.09
0.94
0.01
0
-0.04
0
1.8
0
-0.04
0
0
-0.17

> <PUBCHEM_SHAPE_SELFOVERLAP>
601.548

> <PUBCHEM_SHAPE_VOLUME>
210.1

> <PUBCHEM_COORDINATE_TYPE>
2
5
10

$$$$
