133613123
  -OEChem-03292013293D

 62 66  0     1  0  0  0  0  0999 V2000
    0.2133    3.2351    0.0661 O   0  0  0  0  0  0  0  0  0  0  0  0
    0.1959    0.6049    2.6970 O   0  0  0  0  0  0  0  0  0  0  0  0
   -0.4837   -2.0625    1.0535 O   0  0  0  0  0  0  0  0  0  0  0  0
   -5.8930   -1.8989   -1.0753 O   0  0  0  0  0  0  0  0  0  0  0  0
    5.6495    0.0984   -0.6571 O   0  0  0  0  0  0  0  0  0  0  0  0
    7.0359   -1.5938   -0.0390 O   0  0  0  0  0  0  0  0  0  0  0  0
    0.0355    1.8341   -0.1945 C   0  0  2  0  0  0  0  0  0  0  0  0
   -1.3915    1.4434    0.2889 C   0  0  2  0  0  0  0  0  0  0  0  0
    1.1905    0.9914    0.4827 C   0  0  2  0  0  0  0  0  0  0  0  0
   -1.6473   -0.0900    0.2524 C   0  0  2  0  0  0  0  0  0  0  0  0
   -3.0830   -0.4701    0.7777 C   0  0  1  0  0  0  0  0  0  0  0  0
   -4.1613    0.3575   -0.0027 C   0  0  1  0  0  0  0  0  0  0  0  0
    1.8473    0.2450   -0.7291 C   0  0  1  0  0  0  0  0  0  0  0  0
   -2.4881    2.2280   -0.4551 C   0  0  0  0  0  0  0  0  0  0  0  0
    0.2365    1.6711   -1.7194 C   0  0  0  0  0  0  0  0  0  0  0  0
    0.6545   -0.0291    1.5133 C   0  0  2  0  0  0  0  0  0  0  0  0
   -3.8842    1.8678    0.0399 C   0  0  0  0  0  0  0  0  0  0  0  0
   -0.5054   -0.8341    0.9600 C   0  0  0  0  0  0  0  0  0  0  0  0
    1.6801    1.2229   -1.8871 C   0  0  0  0  0  0  0  0  0  0  0  0
   -3.4381   -1.9774    0.6031 C   0  0  0  0  0  0  0  0  0  0  0  0
   -4.3210   -0.1072   -1.4720 C   0  0  0  0  0  0  0  0  0  0  0  0
    2.2262    1.9021    1.1958 C   0  0  0  0  0  0  0  0  0  0  0  0
   -3.1978   -0.1774    2.2964 C   0  0  0  0  0  0  0  0  0  0  0  0
   -3.5618   -2.4274   -0.8506 C   0  0  0  0  0  0  0  0  0  0  0  0
   -4.6005   -1.6022   -1.6000 C   0  0  1  0  0  0  0  0  0  0  0  0
    3.2566   -0.2198   -0.5546 C   0  0  0  0  0  0  0  0  0  0  0  0
    3.4852   -1.5569   -0.0721 C   0  0  0  0  0  0  0  0  0  0  0  0
    4.3273    0.5351   -0.8211 C   0  0  0  0  0  0  0  0  0  0  0  0
    4.7265   -2.0211    0.1017 C   0  0  0  0  0  0  0  0  0  0  0  0
    5.8961   -1.1691   -0.1987 C   0  0  0  0  0  0  0  0  0  0  0  0
   -1.4622    1.7827    1.3301 H   0  0  0  0  0  0  0  0  0  0  0  0
   -1.5667   -0.4082   -0.7933 H   0  0  0  0  0  0  0  0  0  0  0  0
   -5.1334    0.2000    0.4866 H   0  0  0  0  0  0  0  0  0  0  0  0
    1.2357   -0.6310   -0.9929 H   0  0  0  0  0  0  0  0  0  0  0  0
   -2.4267    2.0517   -1.5340 H   0  0  0  0  0  0  0  0  0  0  0  0
   -2.3395    3.3055   -0.3145 H   0  0  0  0  0  0  0  0  0  0  0  0
    0.0507    2.5964   -2.2754 H   0  0  0  0  0  0  0  0  0  0  0  0
   -0.4150    0.8951   -2.1350 H   0  0  0  0  0  0  0  0  0  0  0  0
    1.4514   -0.7193    1.8104 H   0  0  0  0  0  0  0  0  0  0  0  0
   -4.0091    2.2378    1.0644 H   0  0  0  0  0  0  0  0  0  0  0  0
   -4.6292    2.4025   -0.5622 H   0  0  0  0  0  0  0  0  0  0  0  0
    1.8436    0.7516   -2.8621 H   0  0  0  0  0  0  0  0  0  0  0  0
    2.3318    2.1002   -1.8190 H   0  0  0  0  0  0  0  0  0  0  0  0
   -4.3995   -2.1736    1.0994 H   0  0  0  0  0  0  0  0  0  0  0  0
   -2.7260   -2.6237    1.1230 H   0  0  0  0  0  0  0  0  0  0  0  0
   -5.1472    0.4538   -1.9271 H   0  0  0  0  0  0  0  0  0  0  0  0
   -3.4225    0.1258   -2.0532 H   0  0  0  0  0  0  0  0  0  0  0  0
    1.7572    2.4972    1.9876 H   0  0  0  0  0  0  0  0  0  0  0  0
    2.7032    2.6049    0.5050 H   0  0  0  0  0  0  0  0  0  0  0  0
    3.0125    1.3147    1.6827 H   0  0  0  0  0  0  0  0  0  0  0  0
   -2.9792    0.8623    2.5511 H   0  0  0  0  0  0  0  0  0  0  0  0
   -2.5129   -0.8076    2.8742 H   0  0  0  0  0  0  0  0  0  0  0  0
   -4.2112   -0.3862    2.6590 H   0  0  0  0  0  0  0  0  0  0  0  0
   -2.5906   -2.3583   -1.3521 H   0  0  0  0  0  0  0  0  0  0  0  0
   -3.8558   -3.4840   -0.8613 H   0  0  0  0  0  0  0  0  0  0  0  0
   -4.6050   -1.8928   -2.6564 H   0  0  0  0  0  0  0  0  0  0  0  0
   -0.0073    3.3999    0.9984 H   0  0  0  0  0  0  0  0  0  0  0  0
   -0.0111   -0.0915    3.3435 H   0  0  0  0  0  0  0  0  0  0  0  0
    2.6349   -2.1936    0.1475 H   0  0  0  0  0  0  0  0  0  0  0  0
    4.3356    1.5533   -1.1799 H   0  0  0  0  0  0  0  0  0  0  0  0
   -6.5404   -1.3735   -1.5757 H   0  0  0  0  0  0  0  0  0  0  0  0
    4.9068   -3.0270    0.4629 H   0  0  0  0  0  0  0  0  0  0  0  0
  1  7  1  0  0  0  0
  1 57  1  0  0  0  0
  2 16  1  0  0  0  0
  2 58  1  0  0  0  0
  3 18  2  0  0  0  0
  4 25  1  0  0  0  0
  4 61  1  0  0  0  0
  5 28  1  0  0  0  0
  5 30  1  0  0  0  0
  6 30  2  0  0  0  0
  7  8  1  0  0  0  0
  7  9  1  0  0  0  0
  7 15  1  0  0  0  0
  8 10  1  0  0  0  0
  8 14  1  0  0  0  0
  8 31  1  0  0  0  0
  9 13  1  0  0  0  0
  9 16  1  0  0  0  0
  9 22  1  0  0  0  0
 10 11  1  0  0  0  0
 10 18  1  0  0  0  0
 10 32  1  0  0  0  0
 11 12  1  0  0  0  0
 11 20  1  0  0  0  0
 11 23  1  0  0  0  0
 12 17  1  0  0  0  0
 12 21  1  0  0  0  0
 12 33  1  0  0  0  0
 13 19  1  0  0  0  0
 13 26  1  0  0  0  0
 13 34  1  0  0  0  0
 14 17  1  0  0  0  0
 14 35  1  0  0  0  0
 14 36  1  0  0  0  0
 15 19  1  0  0  0  0
 15 37  1  0  0  0  0
 15 38  1  0  0  0  0
 16 18  1  0  0  0  0
 16 39  1  0  0  0  0
 17 40  1  0  0  0  0
 17 41  1  0  0  0  0
 19 42  1  0  0  0  0
 19 43  1  0  0  0  0
 20 24  1  0  0  0  0
 20 44  1  0  0  0  0
 20 45  1  0  0  0  0
 21 25  1  0  0  0  0
 21 46  1  0  0  0  0
 21 47  1  0  0  0  0
 22 48  1  0  0  0  0
 22 49  1  0  0  0  0
 22 50  1  0  0  0  0
 23 51  1  0  0  0  0
 23 52  1  0  0  0  0
 23 53  1  0  0  0  0
 24 25  1  0  0  0  0
 24 54  1  0  0  0  0
 24 55  1  0  0  0  0
 25 56  1  0  0  0  0
 26 27  1  0  0  0  0
 26 28  2  0  0  0  0
 27 29  2  0  0  0  0
 27 59  1  0  0  0  0
 28 60  1  0  0  0  0
 29 30  1  0  0  0  0
 29 62  1  0  0  0  0
M  END
> <PUBCHEM_COMPOUND_CID>
133613123

> <PUBCHEM_CONFORMER_RMSD>
0.8

> <PUBCHEM_CONFORMER_DIVERSEORDER>
1
4
3
6
2
5

> <PUBCHEM_MMFF94_PARTIAL_CHARGES>
23
1 -0.68
10 0.06
13 0.14
16 0.34
18 0.45
2 -0.68
25 0.28
26 -0.14
27 -0.15
28 -0.07
29 -0.14
3 -0.57
30 0.71
4 -0.68
5 -0.23
57 0.4
58 0.4
59 0.15
6 -0.57
60 0.15
61 0.4
62 0.15
7 0.28

> <PUBCHEM_EFFECTIVE_ROTOR_COUNT>
3

> <PUBCHEM_PHARMACOPHORE_FEATURES>
13
1 1 acceptor
1 1 donor
1 2 acceptor
1 2 donor
1 3 acceptor
1 4 acceptor
1 4 donor
1 6 acceptor
5 7 9 13 15 19 rings
6 11 12 20 21 24 25 rings
6 5 26 27 28 29 30 rings
6 7 8 9 10 16 18 rings
6 8 10 11 12 14 17 rings

> <PUBCHEM_HEAVY_ATOM_COUNT>
30

> <PUBCHEM_ATOM_DEF_STEREO_COUNT>
9

> <PUBCHEM_ATOM_UDEF_STEREO_COUNT>
0

> <PUBCHEM_BOND_DEF_STEREO_COUNT>
0

> <PUBCHEM_BOND_UDEF_STEREO_COUNT>
0

> <PUBCHEM_ISOTOPIC_ATOM_COUNT>
0

> <PUBCHEM_COMPONENT_COUNT>
1

> <PUBCHEM_CACTVS_TAUTO_COUNT>
4

> <PUBCHEM_CONFORMER_ID>
07F6C64300000001

> <PUBCHEM_MMFF94_ENERGY>
113.2895

> <PUBCHEM_FEATURE_SELFOVERLAP>
66.253

> <PUBCHEM_SHAPE_FINGERPRINT>
10 15 10663824104707196295
11135609 12 18117565243604495827
11578080 2 18201711877326425232
11796584 16 18130227060274082942
12035759 4 17749380438790004259
12293681 4 17560243505411730665
12633257 1 17560815324287254481
12788726 201 18119808015280977840
12969540 114 15719396126947108852
13224815 77 17604707923500924905
13544653 18 18410300198625279252
13583140 156 16988270980952031942
13782708 43 17917142901002230991
14068700 675 17846207904294346895
14251751 18 18202560691844534174
14713325 29 10954045670241168824
14790565 3 17403742142634155161
15082195 135 17969511579593660436
15163728 17 13118272625589807131
15183329 4 17240479191862827714
15788980 27 18410015433381794958
1601671 61 12107783012860590302
16945 1 18045512060408335745
17349148 13 18186813469621864780
17492 89 18124029298287021215
17857418 61 18411980252371558454
17980427 23 16702030755264837032
18393751 57 16692140914651284393
18927931 339 18336277751211735838
19862831 5 17458341974608152573
19958102 18 17531529776822554018
200 152 18335146358558582140
20511986 3 18334565824982683830
20775438 99 17403711829224498159
20775530 9 16911711144803063415
22393880 68 16298665104872463555
23402539 116 18260270720281438662
23419403 2 17488442196013498033
23559900 14 18339916125308915937
2838139 119 11314317156863018294
392239 28 11743836954384153534
4015057 19 18041007279865568236
439807 62 18267582593325137727
46194498 28 17025160875964619679
463206 1 18338242664269059115
469060 322 14979662257121013096
70251023 43 18264204889229526777
7495541 125 17988921193501444872
76465 3 18272087214367759780

> <PUBCHEM_SHAPE_MULTIPOLES>
582.17
11.99
2.71
1.73
10.99
0.32
0.47
-8.19
-3.6
-0.92
-0.31
-1.07
0.12
-0.69

> <PUBCHEM_SHAPE_SELFOVERLAP>
1267.08

> <PUBCHEM_SHAPE_VOLUME>
312.5

> <PUBCHEM_COORDINATE_TYPE>
2
5
10

$$$$
