133612048
  -OEChem-03292013293D

 75 78  0     1  0  0  0  0  0999 V2000
    2.9391    2.7837   -1.8817 O   0  0  0  0  0  0  0  0  0  0  0  0
    6.7763   -0.5353    2.4590 O   0  0  0  0  0  0  0  0  0  0  0  0
   -5.2013    1.1608   -0.8926 O   0  0  0  0  0  0  0  0  0  0  0  0
   -5.4641   -2.3343   -0.0784 O   0  0  0  0  0  0  0  0  0  0  0  0
   -7.0548   -2.8976   -1.5951 O   0  0  0  0  0  0  0  0  0  0  0  0
   -6.5475   -0.0464    0.5670 N   0  0  0  0  0  0  0  0  0  0  0  0
    1.0386    1.3077   -0.0307 C   0  0  1  0  0  0  0  0  0  0  0  0
   -0.1377    0.3184    0.1401 C   0  0  2  0  0  0  0  0  0  0  0  0
    2.2209    0.7059   -0.8150 C   0  0  2  0  0  0  0  0  0  0  0  0
    2.7307   -0.5579   -0.0405 C   0  0  2  0  0  0  0  0  0  0  0  0
    3.9770   -1.2251   -0.7355 C   0  0  1  0  0  0  0  0  0  0  0  0
   -1.1266    1.2300    0.9074 C   0  0  1  0  0  0  0  0  0  0  0  0
    5.1035   -0.1561   -0.9203 C   0  0  1  0  0  0  0  0  0  0  0  0
    0.3662   -0.8858    0.9449 C   0  0  0  0  0  0  0  0  0  0  0  0
    1.5791   -1.5500    0.2736 C   0  0  0  0  0  0  0  0  0  0  0  0
    3.3617    1.7213   -1.0275 C   0  0  1  0  0  0  0  0  0  0  0  0
    0.3551    2.5787   -0.5315 C   0  0  0  0  0  0  0  0  0  0  0  0
   -1.0091    2.5884    0.1820 C   0  0  0  0  0  0  0  0  0  0  0  0
    4.6002    1.0882   -1.6619 C   0  0  0  0  0  0  0  0  0  0  0  0
    4.5596   -2.4095    0.0903 C   0  0  0  0  0  0  0  0  0  0  0  0
   -0.7512   -0.1690   -1.1968 C   0  0  0  0  0  0  0  0  0  0  0  0
   -2.5632    0.7392    1.0165 C   0  0  2  0  0  0  0  0  0  0  0  0
    5.7699    0.2471    0.4116 C   0  0  0  0  0  0  0  0  0  0  0  0
    3.5916   -1.8120   -2.1181 C   0  0  0  0  0  0  0  0  0  0  0  0
    5.1895   -1.9899    1.4127 C   0  0  0  0  0  0  0  0  0  0  0  0
    6.2874   -0.9584    1.1905 C   0  0  2  0  0  0  0  0  0  0  0  0
   -3.5097    1.9248    1.2948 C   0  0  0  0  0  0  0  0  0  0  0  0
   -2.6673   -0.3447    2.0944 C   0  0  0  0  0  0  0  0  0  0  0  0
   -4.9697    1.5146    1.4912 C   0  0  0  0  0  0  0  0  0  0  0  0
   -5.5653    0.8793    0.2460 C   0  0  0  0  0  0  0  0  0  0  0  0
   -7.2729   -0.8044   -0.4265 C   0  0  0  0  0  0  0  0  0  0  0  0
   -6.6060   -2.1116   -0.7697 C   0  0  0  0  0  0  0  0  0  0  0  0
    1.4298    1.5544    0.9709 H   0  0  0  0  0  0  0  0  0  0  0  0
    1.8572    0.4188   -1.8070 H   0  0  0  0  0  0  0  0  0  0  0  0
    3.0632   -0.1933    0.9412 H   0  0  0  0  0  0  0  0  0  0  0  0
   -0.7381    1.3902    1.9251 H   0  0  0  0  0  0  0  0  0  0  0  0
    5.8965   -0.5993   -1.5404 H   0  0  0  0  0  0  0  0  0  0  0  0
    0.6415   -0.5824    1.9626 H   0  0  0  0  0  0  0  0  0  0  0  0
   -0.3957   -1.6621    1.0319 H   0  0  0  0  0  0  0  0  0  0  0  0
    1.9340   -2.3347    0.9502 H   0  0  0  0  0  0  0  0  0  0  0  0
    1.2515   -2.0543   -0.6409 H   0  0  0  0  0  0  0  0  0  0  0  0
    3.6271    2.1749   -0.0656 H   0  0  0  0  0  0  0  0  0  0  0  0
    0.2160    2.5577   -1.6183 H   0  0  0  0  0  0  0  0  0  0  0  0
    0.9294    3.4771   -0.2839 H   0  0  0  0  0  0  0  0  0  0  0  0
   -1.0770    3.4234    0.8878 H   0  0  0  0  0  0  0  0  0  0  0  0
   -1.7702    2.7301   -0.5923 H   0  0  0  0  0  0  0  0  0  0  0  0
    5.4001    1.8378   -1.7241 H   0  0  0  0  0  0  0  0  0  0  0  0
    4.3809    0.8357   -2.7074 H   0  0  0  0  0  0  0  0  0  0  0  0
    5.3359   -2.9113   -0.5048 H   0  0  0  0  0  0  0  0  0  0  0  0
    3.7991   -3.1756    0.2749 H   0  0  0  0  0  0  0  0  0  0  0  0
   -1.5024   -0.9480   -1.0243 H   0  0  0  0  0  0  0  0  0  0  0  0
   -0.0072   -0.6125   -1.8638 H   0  0  0  0  0  0  0  0  0  0  0  0
   -1.2351    0.6373   -1.7569 H   0  0  0  0  0  0  0  0  0  0  0  0
   -2.8892    0.2952    0.0724 H   0  0  0  0  0  0  0  0  0  0  0  0
    6.6074    0.9293    0.2148 H   0  0  0  0  0  0  0  0  0  0  0  0
    5.0846    0.8183    1.0487 H   0  0  0  0  0  0  0  0  0  0  0  0
    3.1178   -1.0793   -2.7758 H   0  0  0  0  0  0  0  0  0  0  0  0
    2.9033   -2.6576   -2.0176 H   0  0  0  0  0  0  0  0  0  0  0  0
    4.4786   -2.1863   -2.6430 H   0  0  0  0  0  0  0  0  0  0  0  0
    4.4309   -1.5998    2.1016 H   0  0  0  0  0  0  0  0  0  0  0  0
    5.6124   -2.8679    1.9166 H   0  0  0  0  0  0  0  0  0  0  0  0
    7.1216   -1.4213    0.6499 H   0  0  0  0  0  0  0  0  0  0  0  0
   -3.4971    2.6532    0.4790 H   0  0  0  0  0  0  0  0  0  0  0  0
   -3.1795    2.4529    2.1987 H   0  0  0  0  0  0  0  0  0  0  0  0
    3.6714    3.4204   -1.9443 H   0  0  0  0  0  0  0  0  0  0  0  0
   -2.3240    0.0233    3.0670 H   0  0  0  0  0  0  0  0  0  0  0  0
   -2.1058   -1.2410    1.8463 H   0  0  0  0  0  0  0  0  0  0  0  0
   -3.6954   -0.6967    2.2164 H   0  0  0  0  0  0  0  0  0  0  0  0
    7.4777    0.1190    2.2992 H   0  0  0  0  0  0  0  0  0  0  0  0
   -5.5631    2.4158    1.6922 H   0  0  0  0  0  0  0  0  0  0  0  0
   -5.0919    0.8722    2.3678 H   0  0  0  0  0  0  0  0  0  0  0  0
   -6.7710   -0.2200    1.5424 H   0  0  0  0  0  0  0  0  0  0  0  0
   -7.3613   -0.2083   -1.3396 H   0  0  0  0  0  0  0  0  0  0  0  0
   -8.2637   -1.0148   -0.0143 H   0  0  0  0  0  0  0  0  0  0  0  0
   -5.0490   -3.1896   -0.3198 H   0  0  0  0  0  0  0  0  0  0  0  0
  1 16  1  0  0  0  0
  1 65  1  0  0  0  0
  2 26  1  0  0  0  0
  2 69  1  0  0  0  0
  3 30  2  0  0  0  0
  4 32  1  0  0  0  0
  4 75  1  0  0  0  0
  5 32  2  0  0  0  0
  6 30  1  0  0  0  0
  6 31  1  0  0  0  0
  6 72  1  0  0  0  0
  7  8  1  0  0  0  0
  7  9  1  0  0  0  0
  7 17  1  0  0  0  0
  7 33  1  0  0  0  0
  8 12  1  0  0  0  0
  8 14  1  0  0  0  0
  8 21  1  0  0  0  0
  9 10  1  0  0  0  0
  9 16  1  0  0  0  0
  9 34  1  0  0  0  0
 10 11  1  0  0  0  0
 10 15  1  0  0  0  0
 10 35  1  0  0  0  0
 11 13  1  0  0  0  0
 11 20  1  0  0  0  0
 11 24  1  0  0  0  0
 12 18  1  0  0  0  0
 12 22  1  0  0  0  0
 12 36  1  0  0  0  0
 13 19  1  0  0  0  0
 13 23  1  0  0  0  0
 13 37  1  0  0  0  0
 14 15  1  0  0  0  0
 14 38  1  0  0  0  0
 14 39  1  0  0  0  0
 15 40  1  0  0  0  0
 15 41  1  0  0  0  0
 16 19  1  0  0  0  0
 16 42  1  0  0  0  0
 17 18  1  0  0  0  0
 17 43  1  0  0  0  0
 17 44  1  0  0  0  0
 18 45  1  0  0  0  0
 18 46  1  0  0  0  0
 19 47  1  0  0  0  0
 19 48  1  0  0  0  0
 20 25  1  0  0  0  0
 20 49  1  0  0  0  0
 20 50  1  0  0  0  0
 21 51  1  0  0  0  0
 21 52  1  0  0  0  0
 21 53  1  0  0  0  0
 22 27  1  0  0  0  0
 22 28  1  0  0  0  0
 22 54  1  0  0  0  0
 23 26  1  0  0  0  0
 23 55  1  0  0  0  0
 23 56  1  0  0  0  0
 24 57  1  0  0  0  0
 24 58  1  0  0  0  0
 24 59  1  0  0  0  0
 25 26  1  0  0  0  0
 25 60  1  0  0  0  0
 25 61  1  0  0  0  0
 26 62  1  0  0  0  0
 27 29  1  0  0  0  0
 27 63  1  0  0  0  0
 27 64  1  0  0  0  0
 28 66  1  0  0  0  0
 28 67  1  0  0  0  0
 28 68  1  0  0  0  0
 29 30  1  0  0  0  0
 29 70  1  0  0  0  0
 29 71  1  0  0  0  0
 31 32  1  0  0  0  0
 31 73  1  0  0  0  0
 31 74  1  0  0  0  0
M  END
> <PUBCHEM_COMPOUND_CID>
133612048

> <PUBCHEM_CONFORMER_RMSD>
1

> <PUBCHEM_CONFORMER_DIVERSEORDER>
1
164
115
26
144
180
391
350
91
267
377
313
339
107
89
44
293
29
384
343
216
37
282
352
169
159
60
148
214
274
207
58
167
291
230
266
312
265
361
235
314
74
79
304
125
370
360
130
240
347
98
269
34
353
199
242
101
19
303
392
203
179
136
331
191
287
59
143
108
165
158
100
358
42
201
94
46
309
278
184
329
333
328
280
36
227
388
321
112
6
302
394
218
175
298
126
305
244
12
192
151
337
75
69
7
368
262
154
248
190
219
357
189
212
211
205
209
362
221
106
61
316
156
284
41
183
40
390
301
124
171
323
152
239
142
200
294
268
297
119
35
102
232
258
279
336
286
376
315
256
182
364
261
326
196
139
168
83
32
22
259
155
223
317
162
86
82
33
113
252
39
289
395
281
385
173
344
193
383
43
27
296
160
332
217
245
320
346
338
257
283
273
111
210
300
356
48
299
379
322
181
104
157
5
238
243
202
172
96
224
371
197
133
367
123
393
135
351
76
99
231
275
292
68
64
378
365
140
21
306
134
62
129
131
340
117
17
220
103
325
354
47
363
254
386
204
84
307
213
186
348
250
276
110
188
319
146
24
253
81
153
334
120
311
327
342
288
234
121
272
88
237
166
380
270
116
241
355
10
226
176
122
375
141
277
178
132
71
382
206
127
51
170
138
128
92
198
20
295
14
260
381
50
109
163
174
70
330
290
341
271
387
233
177
16
229
18
318
45
251
249
161
366
2
187
194
246
9
56
285
359
228
38
349
93
95
90
324
345
335
65
55
118
373
225
263
264
147
72
247
310
52
28
31
85
57
389
15
25
236
208
66
13
105
54
222
87
97
80
255
149
63
308
73
372
30
114
3
78
150
67
11
185
374
195
369
215
4
145
137
49
77
53
23
8

> <PUBCHEM_MMFF94_PARTIAL_CHARGES>
16
1 -0.68
16 0.28
2 -0.68
26 0.28
29 0.06
3 -0.57
30 0.57
31 0.36
32 0.66
4 -0.65
5 -0.57
6 -0.73
65 0.4
69 0.4
72 0.37
75 0.5

> <PUBCHEM_EFFECTIVE_ROTOR_COUNT>
9.2

> <PUBCHEM_PHARMACOPHORE_FEATURES>
14
1 1 acceptor
1 1 donor
1 2 acceptor
1 2 donor
1 28 hydrophobe
1 3 acceptor
1 4 acceptor
1 5 acceptor
1 6 donor
3 4 5 32 anion
5 7 8 12 17 18 rings
6 11 13 20 23 25 26 rings
6 7 8 9 10 14 15 rings
6 9 10 11 13 16 19 rings

> <PUBCHEM_HEAVY_ATOM_COUNT>
32

> <PUBCHEM_ATOM_DEF_STEREO_COUNT>
7

> <PUBCHEM_ATOM_UDEF_STEREO_COUNT>
3

> <PUBCHEM_BOND_DEF_STEREO_COUNT>
0

> <PUBCHEM_BOND_UDEF_STEREO_COUNT>
0

> <PUBCHEM_ISOTOPIC_ATOM_COUNT>
0

> <PUBCHEM_COMPONENT_COUNT>
1

> <PUBCHEM_CACTVS_TAUTO_COUNT>
2

> <PUBCHEM_CONFORMER_ID>
07F6C21000000001

> <PUBCHEM_MMFF94_ENERGY>
104.0638

> <PUBCHEM_FEATURE_SELFOVERLAP>
71.233

> <PUBCHEM_SHAPE_FINGERPRINT>
10554248 39 16950573163889765886
11724838 91 18410573981700535306
11991303 11 15068918494230334731
1200032 147 13110667377545622346
12236239 1 18272377429819526809
12373685 5 17749948985618673096
12516196 113 18343024358934085417
12596602 18 16773799134578338426
13726171 33 13253639094908443346
13782708 43 17385723569262583967
14068700 675 18202281450983702859
14211702 104 18272378563886234375
14461889 52 17775280565133785082
15183329 4 18334861632165359359
15461852 350 18273219694681496842
15728490 51 18201714068181134554
17857418 61 18408610248915712601
19958102 18 16805323284382968339
20028762 73 18411702045670352854
21054139 6 18410856564420475891
21223535 225 16950556624819873349
22149856 69 17560538222130875531
23522609 53 18053981508890040385
23559900 14 17968396588418309408
24771293 8 18411705383265994008
3418910 222 16917073295175693440
34797466 226 16272209687114750816
3504750 166 18124314913406249593
397830 11 16773790428774522971
4015057 19 18041572424531544769
4058900 60 9583524230697728029
4340502 62 16056596526433790396
439807 62 18338801230321439583
474113 269 17096070387006210090
57816373 69 18046622314182537930
59755656 215 11963385224209710938
6086070 43 16732984279724546849

> <PUBCHEM_SHAPE_MULTIPOLES>
624.22
18.82
2.89
1.82
19.48
0.17
0.2
10.78
0.69
1.67
-0.87
-1.41
0.16
-3.18

> <PUBCHEM_SHAPE_SELFOVERLAP>
1301.31

> <PUBCHEM_SHAPE_VOLUME>
351

> <PUBCHEM_COORDINATE_TYPE>
2
5
10

$$$$
