133626
  -OEChem-03292013323D

 53 55  0     1  0  0  0  0  0999 V2000
    0.8654   -0.9979   -0.6206 O   0  0  0  0  0  0  0  0  0  0  0  0
   -0.4466    0.8670   -0.1902 O   0  0  0  0  0  0  0  0  0  0  0  0
   -4.6885   -1.9541    0.6070 O   0  0  0  0  0  0  0  0  0  0  0  0
    2.2870    0.8518   -0.5825 O   0  0  0  0  0  0  0  0  0  0  0  0
    2.8010   -2.4874    0.8087 O   0  0  0  0  0  0  0  0  0  0  0  0
    5.5325   -1.4982    0.3177 O   0  0  0  0  0  0  0  0  0  0  0  0
   -3.8648    2.5824    0.7415 O   0  0  0  0  0  0  0  0  0  0  0  0
    5.6653    1.3585    0.7380 O   0  0  0  0  0  0  0  0  0  0  0  0
   -5.1304    1.2043   -0.6217 O   0  0  0  0  0  0  0  0  0  0  0  0
    2.3148    3.6003   -0.5482 O   0  0  0  0  0  0  0  0  0  0  0  0
   -1.5177   -1.2555   -0.8980 C   0  0  2  0  0  0  0  0  0  0  0  0
   -2.9010   -0.7171   -0.4841 C   0  0  1  0  0  0  0  0  0  0  0  0
   -1.6974   -2.7678   -0.6649 C   0  0  2  0  0  0  0  0  0  0  0  0
   -3.3192   -1.5849    0.7185 C   0  0  2  0  0  0  0  0  0  0  0  0
   -2.4513   -2.8467    0.6670 C   0  0  0  0  0  0  0  0  0  0  0  0
   -0.3910   -0.5648   -0.1015 C   0  0  1  0  0  0  0  0  0  0  0  0
   -2.8479    0.7441   -0.1792 C   0  0  0  0  0  0  0  0  0  0  0  0
   -0.4422   -3.6240   -0.6776 C   0  0  0  0  0  0  0  0  0  0  0  0
    1.9521   -0.3744    0.0631 C   0  0  2  0  0  0  0  0  0  0  0  0
   -1.6955    1.4145   -0.0833 C   0  0  0  0  0  0  0  0  0  0  0  0
    3.1397   -1.3365    0.0352 C   0  0  1  0  0  0  0  0  0  0  0  0
    4.3957   -0.6865    0.6159 C   0  0  2  0  0  0  0  0  0  0  0  0
    4.6318    0.6981    0.0122 C   0  0  1  0  0  0  0  0  0  0  0  0
    3.3553    1.5406    0.0698 C   0  0  1  0  0  0  0  0  0  0  0  0
   -4.0876    1.5129   -0.0646 C   0  0  0  0  0  0  0  0  0  0  0  0
    3.5330    2.8834   -0.6317 C   0  0  0  0  0  0  0  0  0  0  0  0
   -4.9926    3.4379    0.9534 C   0  0  0  0  0  0  0  0  0  0  0  0
   -1.3478   -1.0693   -1.9674 H   0  0  0  0  0  0  0  0  0  0  0  0
   -3.5956   -0.8773   -1.3208 H   0  0  0  0  0  0  0  0  0  0  0  0
   -2.3637   -3.1481   -1.4527 H   0  0  0  0  0  0  0  0  0  0  0  0
   -3.1922   -1.0738    1.6791 H   0  0  0  0  0  0  0  0  0  0  0  0
   -3.0314   -3.7725    0.7434 H   0  0  0  0  0  0  0  0  0  0  0  0
   -1.7418   -2.8298    1.5033 H   0  0  0  0  0  0  0  0  0  0  0  0
   -0.4488   -0.8438    0.9591 H   0  0  0  0  0  0  0  0  0  0  0  0
    0.1162   -3.4838   -1.6084 H   0  0  0  0  0  0  0  0  0  0  0  0
    0.2176   -3.3963    0.1644 H   0  0  0  0  0  0  0  0  0  0  0  0
   -0.7067   -4.6843   -0.6027 H   0  0  0  0  0  0  0  0  0  0  0  0
    1.6713   -0.1775    1.1078 H   0  0  0  0  0  0  0  0  0  0  0  0
   -1.5922    2.4842    0.0449 H   0  0  0  0  0  0  0  0  0  0  0  0
    3.3301   -1.6861   -0.9864 H   0  0  0  0  0  0  0  0  0  0  0  0
   -4.8012   -2.4516   -0.2210 H   0  0  0  0  0  0  0  0  0  0  0  0
    4.3376   -0.6253    1.7096 H   0  0  0  0  0  0  0  0  0  0  0  0
    4.9762    0.5898   -1.0235 H   0  0  0  0  0  0  0  0  0  0  0  0
    3.0593    1.7381    1.1091 H   0  0  0  0  0  0  0  0  0  0  0  0
    3.7716    2.7531   -1.6924 H   0  0  0  0  0  0  0  0  0  0  0  0
    4.3189    3.4838   -0.1645 H   0  0  0  0  0  0  0  0  0  0  0  0
    2.6278   -2.1979    1.7207 H   0  0  0  0  0  0  0  0  0  0  0  0
    5.3600   -2.3834    0.6818 H   0  0  0  0  0  0  0  0  0  0  0  0
    5.3642    1.4696    1.6560 H   0  0  0  0  0  0  0  0  0  0  0  0
    1.6228    3.0541   -0.9590 H   0  0  0  0  0  0  0  0  0  0  0  0
   -5.3276    3.8646    0.0032 H   0  0  0  0  0  0  0  0  0  0  0  0
   -4.6826    4.2518    1.6141 H   0  0  0  0  0  0  0  0  0  0  0  0
   -5.8032    2.8830    1.4353 H   0  0  0  0  0  0  0  0  0  0  0  0
  1 16  1  0  0  0  0
  1 19  1  0  0  0  0
  2 16  1  0  0  0  0
  2 20  1  0  0  0  0
  3 14  1  0  0  0  0
  3 41  1  0  0  0  0
  4 19  1  0  0  0  0
  4 24  1  0  0  0  0
  5 21  1  0  0  0  0
  5 47  1  0  0  0  0
  6 22  1  0  0  0  0
  6 48  1  0  0  0  0
  7 25  1  0  0  0  0
  7 27  1  0  0  0  0
  8 23  1  0  0  0  0
  8 49  1  0  0  0  0
  9 25  2  0  0  0  0
 10 26  1  0  0  0  0
 10 50  1  0  0  0  0
 11 12  1  0  0  0  0
 11 13  1  0  0  0  0
 11 16  1  0  0  0  0
 11 28  1  0  0  0  0
 12 14  1  0  0  0  0
 12 17  1  0  0  0  0
 12 29  1  0  0  0  0
 13 15  1  0  0  0  0
 13 18  1  0  0  0  0
 13 30  1  0  0  0  0
 14 15  1  0  0  0  0
 14 31  1  0  0  0  0
 15 32  1  0  0  0  0
 15 33  1  0  0  0  0
 16 34  1  0  0  0  0
 17 20  2  0  0  0  0
 17 25  1  0  0  0  0
 18 35  1  0  0  0  0
 18 36  1  0  0  0  0
 18 37  1  0  0  0  0
 19 21  1  0  0  0  0
 19 38  1  0  0  0  0
 20 39  1  0  0  0  0
 21 22  1  0  0  0  0
 21 40  1  0  0  0  0
 22 23  1  0  0  0  0
 22 42  1  0  0  0  0
 23 24  1  0  0  0  0
 23 43  1  0  0  0  0
 24 26  1  0  0  0  0
 24 44  1  0  0  0  0
 26 45  1  0  0  0  0
 26 46  1  0  0  0  0
 27 51  1  0  0  0  0
 27 52  1  0  0  0  0
 27 53  1  0  0  0  0
M  END
> <PUBCHEM_COMPOUND_CID>
133626

> <PUBCHEM_CONFORMER_RMSD>
0.8

> <PUBCHEM_CONFORMER_DIVERSEORDER>
5
112
7
103
57
72
125
128
59
24
19
9
99
146
105
120
115
114
123
14
34
39
27
121
56
109
8
43
148
58
55
144
92
66
143
91
80
37
130
138
46
107
74
131
51
15
61
142
84
110
127
86
83
100
95
122
90
68
60
10
36
63
32
79
137
141
89
70
82
1
119
94
50
21
49
102
134
52
149
113
25
73
3
139
145
135
133
13
97
124
116
129
98
78
48
6
132
11
62
136
35
77
45
22
31
88
108
4
76
16
20
41
85
28
104
44
118
106
40
26
96
75
53
111
64
117
30
101
2
126
93
23
71
65
87
140
38
29
47
69
42
33
54
147
81
67
12
18
17

> <PUBCHEM_MMFF94_PARTIAL_CHARGES>
29
1 -0.56
10 -0.68
12 0.14
14 0.28
16 0.56
17 -0.12
19 0.56
2 -0.36
20 -0.07
21 0.28
22 0.28
23 0.28
24 0.28
25 0.71
26 0.28
27 0.28
3 -0.68
39 0.15
4 -0.56
41 0.4
47 0.4
48 0.4
49 0.4
5 -0.68
50 0.4
6 -0.68
7 -0.43
8 -0.68
9 -0.57

> <PUBCHEM_EFFECTIVE_ROTOR_COUNT>
7.2

> <PUBCHEM_PHARMACOPHORE_FEATURES>
17
1 1 acceptor
1 10 acceptor
1 10 donor
1 2 acceptor
1 3 acceptor
1 3 donor
1 4 acceptor
1 5 acceptor
1 5 donor
1 6 acceptor
1 6 donor
1 8 acceptor
1 8 donor
1 9 acceptor
5 11 12 13 14 15 rings
6 2 11 12 16 17 20 rings
6 4 19 21 22 23 24 rings

> <PUBCHEM_HEAVY_ATOM_COUNT>
27

> <PUBCHEM_ATOM_DEF_STEREO_COUNT>
10

> <PUBCHEM_ATOM_UDEF_STEREO_COUNT>
0

> <PUBCHEM_BOND_DEF_STEREO_COUNT>
0

> <PUBCHEM_BOND_UDEF_STEREO_COUNT>
0

> <PUBCHEM_ISOTOPIC_ATOM_COUNT>
0

> <PUBCHEM_COMPONENT_COUNT>
1

> <PUBCHEM_CACTVS_TAUTO_COUNT>
1

> <PUBCHEM_CONFORMER_ID>
000209FA00000005

> <PUBCHEM_MMFF94_ENERGY>
78.6412

> <PUBCHEM_FEATURE_SELFOVERLAP>
86.536

> <PUBCHEM_SHAPE_FINGERPRINT>
10411042 1 17691965277703302815
10616163 171 18338797948043188006
1100329 8 18410012104861508776
11405975 8 18408322185564716928
12107183 9 18265046930168109754
12390115 104 18272104776668459033
12403259 118 18411974771665968306
12633257 1 18187634774600636984
12788726 201 17976272544436150623
12925494 130 18412541007676326321
12978246 48 18338517568193226696
13140716 1 18337956671234257195
13583140 156 17749394728573654809
14251764 38 18412266116868058149
14341114 176 18410294744180330586
14790565 3 18341332176242587457
15196674 1 18409728474037769918
17492 89 18263925604449513826
17834072 32 18412827949755299655
17844677 252 18410017671302453242
1813 80 16805037432908494990
20715895 44 18196653982558356441
21033648 144 18261665996184428701
21033648 29 17845353519303485522
21065198 57 18409729590645059202
21236236 1 18412261736381204831
21859007 373 17460577152930746925
23227448 37 18410008853428496877
23558518 356 18261679293139354402
23559900 14 18272373019209958414
23598288 3 18200872988708740863
335352 9 18338796711345561358
350125 39 18337956791250423549
3633792 109 18262501612685327821
4214541 1 18408321098811338294
474 4 18198061370484417361
5081480 168 17199705937518596406
5104073 3 18335975420364193426
7097593 13 18188481381327280250
9709674 26 18411421721765827270
9981440 41 18340488877047412171

> <PUBCHEM_SHAPE_MULTIPOLES>
496.95
11.58
4.35
0.88
5.15
0.67
0.02
5.78
2.49
-2.45
0.09
-0.22
-0.06
-1.05

> <PUBCHEM_SHAPE_SELFOVERLAP>
1042.743

> <PUBCHEM_SHAPE_VOLUME>
277.1

> <PUBCHEM_COORDINATE_TYPE>
2
5
10

$$$$
