133611960
  -OEChem-03292013293D

 35 37  0     1  0  0  0  0  0999 V2000
    2.3056    0.1183    1.0068 O   0  0  0  0  0  0  0  0  0  0  0  0
    2.1191   -2.7540   -0.4656 O   0  0  0  0  0  0  0  0  0  0  0  0
    2.7854    0.4714   -1.9310 O   0  0  0  0  0  0  0  0  0  0  0  0
    4.7117    1.4063    1.6486 O   0  0  0  0  0  0  0  0  0  0  0  0
    0.0221    0.1373    0.1603 N   0  0  0  0  0  0  0  0  0  0  0  0
   -1.1997    1.9121   -0.4363 N   0  0  0  0  0  0  0  0  0  0  0  0
   -1.7187   -1.4869    0.6023 N   0  0  0  0  0  0  0  0  0  0  0  0
   -3.9005   -0.4702    0.2322 N   0  0  0  0  0  0  0  0  0  0  0  0
   -4.0948    1.8615   -0.5357 N   0  0  0  0  0  0  0  0  0  0  0  0
    1.8114   -1.3978   -0.7814 C   0  0  1  0  0  0  0  0  0  0  0  0
    1.2485   -0.6964    0.4612 C   0  0  1  0  0  0  0  0  0  0  0  0
    3.0852   -0.6349   -1.0892 C   0  0  2  0  0  0  0  0  0  0  0  0
    3.5199   -0.1563    0.2895 C   0  0  1  0  0  0  0  0  0  0  0  0
    4.4011    1.0796    0.3036 C   0  0  0  0  0  0  0  0  0  0  0  0
   -1.2814   -0.2566    0.2378 C   0  0  0  0  0  0  0  0  0  0  0  0
    0.0196    1.4476   -0.2489 C   0  0  0  0  0  0  0  0  0  0  0  0
   -2.0110    0.8551   -0.1336 C   0  0  0  0  0  0  0  0  0  0  0  0
   -3.4574    0.8037   -0.1691 C   0  0  0  0  0  0  0  0  0  0  0  0
   -3.0232   -1.5174    0.5737 C   0  0  0  0  0  0  0  0  0  0  0  0
   -5.3431   -0.7225    0.2748 C   0  0  0  0  0  0  0  0  0  0  0  0
    1.1069   -1.4062   -1.6199 H   0  0  0  0  0  0  0  0  0  0  0  0
    0.9339   -1.3987    1.2417 H   0  0  0  0  0  0  0  0  0  0  0  0
    3.8634   -1.2380   -1.5671 H   0  0  0  0  0  0  0  0  0  0  0  0
    4.0127   -0.9709    0.8358 H   0  0  0  0  0  0  0  0  0  0  0  0
    3.8833    1.9431   -0.1258 H   0  0  0  0  0  0  0  0  0  0  0  0
    5.3323    0.9040   -0.2435 H   0  0  0  0  0  0  0  0  0  0  0  0
    1.2838   -3.1940   -0.2324 H   0  0  0  0  0  0  0  0  0  0  0  0
    0.9304    2.0124   -0.3927 H   0  0  0  0  0  0  0  0  0  0  0  0
    2.4667    0.1153   -2.7779 H   0  0  0  0  0  0  0  0  0  0  0  0
    5.2780    2.1966    1.6279 H   0  0  0  0  0  0  0  0  0  0  0  0
   -3.5439   -2.4504    0.8445 H   0  0  0  0  0  0  0  0  0  0  0  0
   -5.8334   -0.0051    0.9413 H   0  0  0  0  0  0  0  0  0  0  0  0
   -5.7719   -0.6255   -0.7281 H   0  0  0  0  0  0  0  0  0  0  0  0
   -5.5783   -1.7266    0.6426 H   0  0  0  0  0  0  0  0  0  0  0  0
   -5.1041    1.6884   -0.5155 H   0  0  0  0  0  0  0  0  0  0  0  0
  1 11  1  0  0  0  0
  1 13  1  0  0  0  0
  2 10  1  0  0  0  0
  2 27  1  0  0  0  0
  3 12  1  0  0  0  0
  3 29  1  0  0  0  0
  4 14  1  0  0  0  0
  4 30  1  0  0  0  0
  5 11  1  0  0  0  0
  5 15  1  0  0  0  0
  5 16  1  0  0  0  0
  6 16  2  0  0  0  0
  6 17  1  0  0  0  0
  7 15  1  0  0  0  0
  7 19  2  0  0  0  0
  8 18  1  0  0  0  0
  8 19  1  0  0  0  0
  8 20  1  0  0  0  0
  9 18  2  0  0  0  0
  9 35  1  0  0  0  0
 10 11  1  0  0  0  0
 10 12  1  0  0  0  0
 10 21  1  0  0  0  0
 11 22  1  0  0  0  0
 12 13  1  0  0  0  0
 12 23  1  0  0  0  0
 13 14  1  0  0  0  0
 13 24  1  0  0  0  0
 14 25  1  0  0  0  0
 14 26  1  0  0  0  0
 15 17  2  0  0  0  0
 16 28  1  0  0  0  0
 17 18  1  0  0  0  0
 19 31  1  0  0  0  0
 20 32  1  0  0  0  0
 20 33  1  0  0  0  0
 20 34  1  0  0  0  0
M  END
> <PUBCHEM_COMPOUND_CID>
133611960

> <PUBCHEM_CONFORMER_RMSD>
0.6

> <PUBCHEM_CONFORMER_DIVERSEORDER>
1
4
25
24
34
9
15
26
12
5
33
32
29
8
27
31
16
2
11
13
19
17
10
6
14
35
22
20
28
30
21
3
7
18
23

> <PUBCHEM_MMFF94_PARTIAL_CHARGES>
26
1 -0.56
10 0.28
11 0.54
12 0.28
13 0.28
14 0.28
15 -0.03
16 0.04
17 0.14
18 0.59
19 0.44
2 -0.68
20 0.37
27 0.4
28 0.15
29 0.4
3 -0.68
30 0.4
31 0.06
35 0.4
4 -0.68
5 0.05
6 -0.57
7 -0.58
8 -0.47
9 -0.85

> <PUBCHEM_EFFECTIVE_ROTOR_COUNT>
3

> <PUBCHEM_PHARMACOPHORE_FEATURES>
14
1 1 acceptor
1 2 acceptor
1 2 donor
1 3 acceptor
1 3 donor
1 4 acceptor
1 4 donor
1 9 donor
3 5 6 16 cation
3 7 8 19 cation
3 8 9 18 cation
5 1 10 11 12 13 rings
5 5 6 15 16 17 rings
6 7 8 15 17 18 19 rings

> <PUBCHEM_HEAVY_ATOM_COUNT>
20

> <PUBCHEM_ATOM_DEF_STEREO_COUNT>
2

> <PUBCHEM_ATOM_UDEF_STEREO_COUNT>
2

> <PUBCHEM_BOND_DEF_STEREO_COUNT>
0

> <PUBCHEM_BOND_UDEF_STEREO_COUNT>
0

> <PUBCHEM_ISOTOPIC_ATOM_COUNT>
0

> <PUBCHEM_COMPONENT_COUNT>
1

> <PUBCHEM_CACTVS_TAUTO_COUNT>
1

> <PUBCHEM_CONFORMER_ID>
07F6C1B800000001

> <PUBCHEM_MMFF94_ENERGY>
47.4693

> <PUBCHEM_FEATURE_SELFOVERLAP>
71.275

> <PUBCHEM_SHAPE_FINGERPRINT>
10498660 4 18262519191406019637
10608611 8 18339922615109553384
11132069 177 18333452036271744565
12173636 292 18189895314762746125
12236239 1 16877939451317268267
128620 24 18260553324591942047
13140716 1 18047758388528391307
13214271 11 18411129268630525165
13296908 3 18340771446866009199
15196674 1 18336265644004831315
15219456 202 18342457019370788146
15375358 24 18411414016366975649
16945 1 18336276673153786853
17980427 23 17895190064948341572
18186145 218 17823138917413555999
192875 21 16298103190117248932
19784866 170 18411418436167891642
200 152 17489304148752422811
20279233 1 18413392033469460274
20510252 161 18340487768787561745
20645477 70 17632302233257298734
21267235 1 18260277355911173355
23402539 116 18187357727534852390
23557571 272 18408327678907094036
23559900 14 18264212422222667926
296302 2 18202280316289468529
34934 24 18410005542351907979
449060 50 17988923400602730889
474 4 15050294983327305202
495365 180 17773015493485571915
5104073 3 18337392630475019259
633830 44 16845304786917121447
7364860 26 18266185122139913021
81228 2 18115885013448175977
9709674 26 18336835207960332407

> <PUBCHEM_SHAPE_MULTIPOLES>
363.21
9.49
1.97
1.08
2.41
0.35
-0.12
-1.18
1.3
0.09
-0.17
-1.24
-0.12
1.29

> <PUBCHEM_SHAPE_SELFOVERLAP>
782.739

> <PUBCHEM_SHAPE_VOLUME>
198

> <PUBCHEM_COORDINATE_TYPE>
2
5
10

$$$$
