133685588
  -OEChem-03292013293D

 53 54  0     1  0  0  0  0  0999 V2000
    2.6213    2.4186    0.0291 O   0  0  0  0  0  0  0  0  0  0  0  0
   -1.5894    0.3315    0.6841 O   0  0  0  0  0  0  0  0  0  0  0  0
    1.6908    4.5176   -0.0604 O   0  0  0  0  0  0  0  0  0  0  0  0
    5.6826   -0.4869   -1.6188 O   0  0  0  0  0  0  0  0  0  0  0  0
   -2.5583   -0.7812   -1.0777 O   0  0  0  0  0  0  0  0  0  0  0  0
   -5.2816    0.4697   -1.4139 O   0  0  0  0  0  0  0  0  0  0  0  0
   -6.6961   -1.9888   -0.5084 O   0  0  0  0  0  0  0  0  0  0  0  0
    0.7067    1.1163    0.5495 C   0  0  1  0  0  0  0  0  0  0  0  0
   -0.2857   -0.0287    0.1903 C   0  0  1  0  0  0  0  0  0  0  0  0
    2.1120    1.0778   -0.0879 C   0  0  2  0  0  0  0  0  0  0  0  0
   -0.0392   -1.4308    0.8110 C   0  0  0  0  0  0  0  0  0  0  0  0
    0.3438    2.5103    0.0992 C   0  0  0  0  0  0  0  0  0  0  0  0
    3.0847    0.1670    0.5952 C   0  0  0  0  0  0  0  0  0  0  0  0
    1.1185   -2.2407    0.2771 C   0  0  0  0  0  0  0  0  0  0  0  0
    1.5893    3.3062    0.0058 C   0  0  0  0  0  0  0  0  0  0  0  0
    3.9398   -0.6890   -0.0040 C   0  0  0  0  0  0  0  0  0  0  0  0
    4.4739   -1.8656    0.7982 C   0  0  0  0  0  0  0  0  0  0  0  0
    3.4945   -3.0650    0.7324 C   0  0  0  0  0  0  0  0  0  0  0  0
    2.1055   -2.6164    1.1187 C   0  0  0  0  0  0  0  0  0  0  0  0
   -0.8113    3.0782   -0.2599 C   0  0  0  0  0  0  0  0  0  0  0  0
    1.0975   -2.5068   -1.2021 C   0  0  0  0  0  0  0  0  0  0  0  0
    4.2905   -0.6862   -1.4640 C   0  0  0  0  0  0  0  0  0  0  0  0
   -2.6366   -0.1150   -0.0540 C   0  0  0  0  0  0  0  0  0  0  0  0
   -3.9382    0.2848    0.5620 C   0  0  0  0  0  0  0  0  0  0  0  0
   -5.2170   -0.1383   -0.1231 C   0  0  2  0  0  0  0  0  0  0  0  0
   -5.3320   -1.6557   -0.2658 C   0  0  0  0  0  0  0  0  0  0  0  0
   -3.9660    1.0172    1.6873 C   0  0  0  0  0  0  0  0  0  0  0  0
    0.7855    1.1670    1.6456 H   0  0  0  0  0  0  0  0  0  0  0  0
   -0.3134   -0.1005   -0.9046 H   0  0  0  0  0  0  0  0  0  0  0  0
    2.0256    0.8473   -1.1563 H   0  0  0  0  0  0  0  0  0  0  0  0
   -0.9374   -2.0519    0.6883 H   0  0  0  0  0  0  0  0  0  0  0  0
    0.0444   -1.3013    1.8993 H   0  0  0  0  0  0  0  0  0  0  0  0
    2.9499    0.0860    1.6735 H   0  0  0  0  0  0  0  0  0  0  0  0
    5.4611   -2.1710    0.4329 H   0  0  0  0  0  0  0  0  0  0  0  0
    4.6192   -1.5720    1.8466 H   0  0  0  0  0  0  0  0  0  0  0  0
    3.8245   -3.8461    1.4269 H   0  0  0  0  0  0  0  0  0  0  0  0
    3.5213   -3.5109   -0.2659 H   0  0  0  0  0  0  0  0  0  0  0  0
    1.9944   -2.3930    2.1795 H   0  0  0  0  0  0  0  0  0  0  0  0
   -1.7541    2.5513   -0.2501 H   0  0  0  0  0  0  0  0  0  0  0  0
   -0.8543    4.1125   -0.5879 H   0  0  0  0  0  0  0  0  0  0  0  0
    0.1126   -2.8837   -1.4991 H   0  0  0  0  0  0  0  0  0  0  0  0
    1.8238   -3.2623   -1.5104 H   0  0  0  0  0  0  0  0  0  0  0  0
    1.2989   -1.5930   -1.7679 H   0  0  0  0  0  0  0  0  0  0  0  0
    3.7869    0.1066   -2.0210 H   0  0  0  0  0  0  0  0  0  0  0  0
    4.0200   -1.6422   -1.9238 H   0  0  0  0  0  0  0  0  0  0  0  0
   -6.0887    0.2363    0.4268 H   0  0  0  0  0  0  0  0  0  0  0  0
    5.8742   -0.5187   -2.5717 H   0  0  0  0  0  0  0  0  0  0  0  0
   -4.7512   -2.0411   -1.1089 H   0  0  0  0  0  0  0  0  0  0  0  0
   -5.0275   -2.1667    0.6535 H   0  0  0  0  0  0  0  0  0  0  0  0
   -4.9120    1.3134    2.1310 H   0  0  0  0  0  0  0  0  0  0  0  0
   -3.0761    1.3501    2.2095 H   0  0  0  0  0  0  0  0  0  0  0  0
   -4.5794    0.0873   -1.9673 H   0  0  0  0  0  0  0  0  0  0  0  0
   -6.7434   -2.9570   -0.5865 H   0  0  0  0  0  0  0  0  0  0  0  0
  1 10  1  0  0  0  0
  1 15  1  0  0  0  0
  2  9  1  0  0  0  0
  2 23  1  0  0  0  0
  3 15  2  0  0  0  0
  4 22  1  0  0  0  0
  4 47  1  0  0  0  0
  5 23  2  0  0  0  0
  6 25  1  0  0  0  0
  6 52  1  0  0  0  0
  7 26  1  0  0  0  0
  7 53  1  0  0  0  0
  8  9  1  0  0  0  0
  8 10  1  0  0  0  0
  8 12  1  0  0  0  0
  8 28  1  0  0  0  0
  9 11  1  0  0  0  0
  9 29  1  0  0  0  0
 10 13  1  0  0  0  0
 10 30  1  0  0  0  0
 11 14  1  0  0  0  0
 11 31  1  0  0  0  0
 11 32  1  0  0  0  0
 12 15  1  0  0  0  0
 12 20  2  0  0  0  0
 13 16  2  0  0  0  0
 13 33  1  0  0  0  0
 14 19  2  0  0  0  0
 14 21  1  0  0  0  0
 16 17  1  0  0  0  0
 16 22  1  0  0  0  0
 17 18  1  0  0  0  0
 17 34  1  0  0  0  0
 17 35  1  0  0  0  0
 18 19  1  0  0  0  0
 18 36  1  0  0  0  0
 18 37  1  0  0  0  0
 19 38  1  0  0  0  0
 20 39  1  0  0  0  0
 20 40  1  0  0  0  0
 21 41  1  0  0  0  0
 21 42  1  0  0  0  0
 21 43  1  0  0  0  0
 22 44  1  0  0  0  0
 22 45  1  0  0  0  0
 23 24  1  0  0  0  0
 24 25  1  0  0  0  0
 24 27  2  0  0  0  0
 25 26  1  0  0  0  0
 25 46  1  0  0  0  0
 26 48  1  0  0  0  0
 26 49  1  0  0  0  0
 27 50  1  0  0  0  0
 27 51  1  0  0  0  0
M  END
> <PUBCHEM_COMPOUND_CID>
133685588

> <PUBCHEM_CONFORMER_RMSD>
0.8

> <PUBCHEM_CONFORMER_DIVERSEORDER>
1
10
46
108
81
32
113
53
30
93
57
91
120
23
28
70
83
34
64
71
45
49
114
62
66
105
40
88
100
74
63
94
87
101
37
52
98
22
96
65
78
111
107
102
44
117
79
20
69
80
59
86
112
47
54
60
12
61
11
25
77
92
56
84
75
9
95
73
51
115
90
76
72
97
109
35
99
8
104
50
33
116
55
106
118
67
26
103
36
68
13
18
6
85
24
82
19
31
16
27
110
43
17
38
3
58
48
41
14
2
7
21
119
29
15
121
39
42
4
5
89

> <PUBCHEM_MMFF94_PARTIAL_CHARGES>
36
1 -0.43
10 0.42
11 0.14
12 -0.12
13 -0.29
14 -0.28
15 0.71
16 -0.28
17 0.14
18 0.14
19 -0.29
2 -0.43
20 -0.3
21 0.14
22 0.42
23 0.71
24 -0.12
25 0.42
26 0.28
27 -0.3
3 -0.57
33 0.15
38 0.15
39 0.15
4 -0.68
40 0.15
47 0.4
5 -0.57
50 0.15
51 0.15
52 0.4
53 0.4
6 -0.68
7 -0.68
8 0.14
9 0.28

> <PUBCHEM_EFFECTIVE_ROTOR_COUNT>
7

> <PUBCHEM_PHARMACOPHORE_FEATURES>
10
1 27 hydrophobe
1 3 acceptor
1 4 acceptor
1 4 donor
1 5 acceptor
1 6 acceptor
1 6 donor
1 7 acceptor
1 7 donor
5 1 8 10 12 15 rings

> <PUBCHEM_HEAVY_ATOM_COUNT>
27

> <PUBCHEM_ATOM_DEF_STEREO_COUNT>
3

> <PUBCHEM_ATOM_UDEF_STEREO_COUNT>
1

> <PUBCHEM_BOND_DEF_STEREO_COUNT>
2

> <PUBCHEM_BOND_UDEF_STEREO_COUNT>
0

> <PUBCHEM_ISOTOPIC_ATOM_COUNT>
0

> <PUBCHEM_COMPONENT_COUNT>
1

> <PUBCHEM_CACTVS_TAUTO_COUNT>
1

> <PUBCHEM_CONFORMER_ID>
07F7E15400000001

> <PUBCHEM_MMFF94_ENERGY>
67.8756

> <PUBCHEM_FEATURE_SELFOVERLAP>
50.751

> <PUBCHEM_SHAPE_FINGERPRINT>
10366900 7 17968100832616908059
10411042 1 18265327318418250794
10693767 8 18343866619359196414
1100329 8 18337391668845364914
12107183 9 18269280063242403753
12236239 1 18060701693544965611
12553582 1 18410295766192565168
12788726 201 18264501585491434000
13009979 54 18060424586486834809
13140716 1 18264487467785992672
13533116 47 18199467843551517225
13583140 156 18187652439822913363
138480 1 18409164415772199112
14787075 74 18113341877355034722
14790565 3 18337411382598424320
14931854 50 18261974968174401118
15927050 60 17979635968070540942
1601671 61 18200318710415589426
17349148 13 18131072627971659067
17492 54 18334590040108564446
1813 80 18342742875377742580
18222031 100 18343303643503400368
18681886 176 18202561808541331930
20028762 73 18130788983757363559
20645477 70 18262229027779138393
20905425 154 17980202985595361766
21641784 216 17824563893374003212
23558518 356 17763453316032363478
23559900 14 18338222835359270739
24771293 8 18343862226008312872
474 4 18266174114038220921
5312544 6 18195525020333822823
6443956 14 18408601431311229332
6669772 16 18193841680969763212
7164475 11 18047756997222789522
7495541 125 18260828211136813163
9981440 41 17404570564389347464

> <PUBCHEM_SHAPE_MULTIPOLES>
514.56
11.53
4.16
1.21
13.27
3.49
0.14
-7.17
2.69
-2.78
-0.18
-0.19
-0.38
-1.03

> <PUBCHEM_SHAPE_SELFOVERLAP>
1061.07

> <PUBCHEM_SHAPE_VOLUME>
292.3

> <PUBCHEM_COORDINATE_TYPE>
2
5
10

$$$$
