133613180
  -OEChem-03292013293D

 58 61  0     1  0  0  0  0  0999 V2000
    3.5802    0.5169    0.6186 O   0  0  0  0  0  0  0  0  0  0  0  0
    0.2195    0.6102    2.0631 O   0  0  0  0  0  0  0  0  0  0  0  0
   -1.8759    0.1020   -1.7168 O   0  0  0  0  0  0  0  0  0  0  0  0
   -4.6935    0.7841   -1.2947 O   0  0  0  0  0  0  0  0  0  0  0  0
    5.0110    0.7478   -1.1760 O   0  0  0  0  0  0  0  0  0  0  0  0
   -3.1385   -4.2713    0.1701 O   0  0  0  0  0  0  0  0  0  0  0  0
    1.6766   -1.0791    0.3909 C   0  0  2  0  0  0  0  0  0  0  0  0
    2.5314    0.0007   -0.2231 C   0  0  2  0  0  0  0  0  0  0  0  0
    2.6753   -1.4477   -0.6977 C   0  0  0  0  0  0  0  0  0  0  0  0
    0.1800   -0.8964    0.1914 C   0  0  2  0  0  0  0  0  0  0  0  0
   -0.2000    0.5500    0.6804 C   0  0  2  0  0  0  0  0  0  0  0  0
    1.7822    1.0723   -0.9653 C   0  0  0  0  0  0  0  0  0  0  0  0
    0.6013    1.6470   -0.1349 C   0  0  2  0  0  0  0  0  0  0  0  0
    3.8978   -2.2225   -0.2519 C   0  0  0  0  0  0  0  0  0  0  0  0
    2.2153   -1.8659   -2.0724 C   0  0  0  0  0  0  0  0  0  0  0  0
   -1.7477    0.7491    0.6998 C   0  0  2  0  0  0  0  0  0  0  0  0
   -0.6388   -2.0236    0.7835 C   0  0  0  0  0  0  0  0  0  0  0  0
   -2.5221    0.0746   -0.4510 C   0  0  2  0  0  0  0  0  0  0  0  0
    1.1217    2.8119    0.7248 C   0  0  0  0  0  0  0  0  0  0  0  0
   -2.9549   -1.3565   -0.1151 C   0  0  0  0  0  0  0  0  0  0  0  0
   -1.9584   -2.2475    0.6144 C   0  0  0  0  0  0  0  0  0  0  0  0
   -2.3008    2.1510    0.7120 C   0  0  0  0  0  0  0  0  0  0  0  0
   -3.6848    1.0221   -0.6473 C   0  0  0  0  0  0  0  0  0  0  0  0
    4.7644    0.8503    0.0178 C   0  0  0  0  0  0  0  0  0  0  0  0
   -3.4155    2.3241   -0.0060 C   0  0  0  0  0  0  0  0  0  0  0  0
   -2.5813   -3.4886    1.2051 C   0  0  0  0  0  0  0  0  0  0  0  0
    5.7324    1.3700    1.0364 C   0  0  0  0  0  0  0  0  0  0  0  0
   -4.2772    3.5151   -0.1560 C   0  0  0  0  0  0  0  0  0  0  0  0
    1.9164   -1.3644    1.4117 H   0  0  0  0  0  0  0  0  0  0  0  0
   -0.0066   -0.9578   -0.8822 H   0  0  0  0  0  0  0  0  0  0  0  0
    1.3752    0.6858   -1.9048 H   0  0  0  0  0  0  0  0  0  0  0  0
    2.4624    1.8763   -1.2712 H   0  0  0  0  0  0  0  0  0  0  0  0
   -0.0782    2.0846   -0.8783 H   0  0  0  0  0  0  0  0  0  0  0  0
    3.0146   -1.6902   -2.8006 H   0  0  0  0  0  0  0  0  0  0  0  0
    1.3290   -1.3446   -2.4364 H   0  0  0  0  0  0  0  0  0  0  0  0
    1.9826   -2.9364   -2.0784 H   0  0  0  0  0  0  0  0  0  0  0  0
    4.7425   -2.0275   -0.9204 H   0  0  0  0  0  0  0  0  0  0  0  0
    3.6885   -3.2976   -0.2766 H   0  0  0  0  0  0  0  0  0  0  0  0
    4.2050   -1.9785    0.7704 H   0  0  0  0  0  0  0  0  0  0  0  0
   -2.1206    0.3388    1.6528 H   0  0  0  0  0  0  0  0  0  0  0  0
   -0.0701   -2.7605    1.3492 H   0  0  0  0  0  0  0  0  0  0  0  0
    1.8946    2.4840    1.4271 H   0  0  0  0  0  0  0  0  0  0  0  0
    0.3206    3.2780    1.3029 H   0  0  0  0  0  0  0  0  0  0  0  0
    1.5597    3.5909    0.0910 H   0  0  0  0  0  0  0  0  0  0  0  0
   -0.2244   -0.1009    2.5549 H   0  0  0  0  0  0  0  0  0  0  0  0
   -3.2672   -1.8747   -1.0311 H   0  0  0  0  0  0  0  0  0  0  0  0
   -3.8492   -1.2916    0.5211 H   0  0  0  0  0  0  0  0  0  0  0  0
   -1.8899    2.9302    1.3394 H   0  0  0  0  0  0  0  0  0  0  0  0
   -2.4517   -0.3344   -2.3676 H   0  0  0  0  0  0  0  0  0  0  0  0
   -3.3729   -3.2134    1.9105 H   0  0  0  0  0  0  0  0  0  0  0  0
   -1.8515   -4.1026    1.7436 H   0  0  0  0  0  0  0  0  0  0  0  0
    5.9319    0.5983    1.7840 H   0  0  0  0  0  0  0  0  0  0  0  0
    6.6735    1.6298    0.5434 H   0  0  0  0  0  0  0  0  0  0  0  0
    5.3259    2.2680    1.5082 H   0  0  0  0  0  0  0  0  0  0  0  0
   -4.3250    3.8232   -1.2051 H   0  0  0  0  0  0  0  0  0  0  0  0
   -3.8962    4.3601    0.4265 H   0  0  0  0  0  0  0  0  0  0  0  0
   -5.2937    3.2999    0.1879 H   0  0  0  0  0  0  0  0  0  0  0  0
   -3.5493   -5.0485    0.5855 H   0  0  0  0  0  0  0  0  0  0  0  0
  1  8  1  0  0  0  0
  1 24  1  0  0  0  0
  2 11  1  0  0  0  0
  2 45  1  0  0  0  0
  3 18  1  0  0  0  0
  3 49  1  0  0  0  0
  4 23  2  0  0  0  0
  5 24  2  0  0  0  0
  6 26  1  0  0  0  0
  6 58  1  0  0  0  0
  7  8  1  0  0  0  0
  7  9  1  0  0  0  0
  7 10  1  0  0  0  0
  7 29  1  0  0  0  0
  8  9  1  0  0  0  0
  8 12  1  0  0  0  0
  9 14  1  0  0  0  0
  9 15  1  0  0  0  0
 10 11  1  0  0  0  0
 10 17  1  0  0  0  0
 10 30  1  0  0  0  0
 11 13  1  0  0  0  0
 11 16  1  0  0  0  0
 12 13  1  0  0  0  0
 12 31  1  0  0  0  0
 12 32  1  0  0  0  0
 13 19  1  0  0  0  0
 13 33  1  0  0  0  0
 14 37  1  0  0  0  0
 14 38  1  0  0  0  0
 14 39  1  0  0  0  0
 15 34  1  0  0  0  0
 15 35  1  0  0  0  0
 15 36  1  0  0  0  0
 16 18  1  0  0  0  0
 16 22  1  0  0  0  0
 16 40  1  0  0  0  0
 17 21  2  0  0  0  0
 17 41  1  0  0  0  0
 18 20  1  0  0  0  0
 18 23  1  0  0  0  0
 19 42  1  0  0  0  0
 19 43  1  0  0  0  0
 19 44  1  0  0  0  0
 20 21  1  0  0  0  0
 20 46  1  0  0  0  0
 20 47  1  0  0  0  0
 21 26  1  0  0  0  0
 22 25  2  0  0  0  0
 22 48  1  0  0  0  0
 23 25  1  0  0  0  0
 24 27  1  0  0  0  0
 25 28  1  0  0  0  0
 26 50  1  0  0  0  0
 26 51  1  0  0  0  0
 27 52  1  0  0  0  0
 27 53  1  0  0  0  0
 27 54  1  0  0  0  0
 28 55  1  0  0  0  0
 28 56  1  0  0  0  0
 28 57  1  0  0  0  0
M  END
> <PUBCHEM_COMPOUND_CID>
133613180

> <PUBCHEM_CONFORMER_RMSD>
0.8

> <PUBCHEM_CONFORMER_DIVERSEORDER>
1
2
3

> <PUBCHEM_MMFF94_PARTIAL_CHARGES>
32
1 -0.3
10 0.23
11 0.28
12 0.09
14 0.09
15 0.09
16 0.14
17 -0.29
18 0.34
2 -0.68
20 0.14
21 -0.28
22 -0.29
23 0.49
24 0.66
25 -0.12
26 0.42
27 0.06
28 0.14
29 0.1
3 -0.68
4 -0.57
41 0.15
45 0.4
48 0.15
49 0.4
5 -0.57
58 0.4
6 -0.68
7 -0.19
8 0.05
9 -0.19

> <PUBCHEM_EFFECTIVE_ROTOR_COUNT>
3.8

> <PUBCHEM_PHARMACOPHORE_FEATURES>
12
1 2 acceptor
1 2 donor
1 3 acceptor
1 3 donor
1 4 acceptor
1 5 acceptor
1 6 acceptor
1 6 donor
3 9 14 15 hydrophobe
5 16 18 22 23 25 rings
7 10 11 16 17 18 20 21 rings
7 7 8 9 10 11 12 13 rings

> <PUBCHEM_HEAVY_ATOM_COUNT>
28

> <PUBCHEM_ATOM_DEF_STEREO_COUNT>
7

> <PUBCHEM_ATOM_UDEF_STEREO_COUNT>
0

> <PUBCHEM_BOND_DEF_STEREO_COUNT>
0

> <PUBCHEM_BOND_UDEF_STEREO_COUNT>
0

> <PUBCHEM_ISOTOPIC_ATOM_COUNT>
0

> <PUBCHEM_COMPONENT_COUNT>
1

> <PUBCHEM_CACTVS_TAUTO_COUNT>
3

> <PUBCHEM_CONFORMER_ID>
07F6C67C00000001

> <PUBCHEM_MMFF94_ENERGY>
82.3857

> <PUBCHEM_FEATURE_SELFOVERLAP>
60.931

> <PUBCHEM_SHAPE_FINGERPRINT>
10366900 7 17989199360962863344
10411042 1 17904764732140845699
10675989 125 17836081169800152809
10863032 1 18411983537973859150
10906281 52 18272098179425073792
10948715 1 18266740169426817005
1100329 8 18119525436481984186
11370993 70 18410853218171070671
12173636 292 18335703776520221501
12293681 160 17986947458355443265
12403259 226 18052821630667886448
12788726 201 17773038549055257376
13140716 1 17907305694700512411
13224815 77 17918279744707004038
13583140 156 18131067181958252896
14178342 30 18334296491678104402
14223421 5 18267589198187350435
14790565 3 18122630453018834593
15196674 1 18340767022854736357
15238133 3 14418411019089178349
15375358 24 18413670193089939188
15420108 30 15322811817609323256
15463212 79 17967524658364314947
16087824 20 18409165550914936175
16945 1 18340216300519849243
20715895 44 18191581952446223084
22182313 1 18200613470037662582
23557571 272 18336830912824146890
23559900 14 18340487760566924354
23569914 152 16766496011376209060
3380486 145 18337128837699441360
34934 24 18271239422347362988
350125 39 18190749823917288641
5104073 3 18338520724741001848
5283173 99 18410293562811240012
59554788 191 18265613371961701244
633830 44 18053941762845172189
9709674 26 18341897397996071838
9981440 41 18412256238269607322

> <PUBCHEM_SHAPE_MULTIPOLES>
541.01
9.25
3.96
1.35
6.43
2.18
0.21
-3.78
1.13
-4.11
-0.81
0.27
0.22
1.47

> <PUBCHEM_SHAPE_SELFOVERLAP>
1159.001

> <PUBCHEM_SHAPE_VOLUME>
297.4

> <PUBCHEM_COORDINATE_TYPE>
2
5
10

$$$$
