133639
  -OEChem-03292013323D

 26 27  0     1  0  0  0  0  0999 V2000
    4.6557    0.9096   -0.4585 S   0  0  0  0  0  0  0  0  0  0  0  0
    2.7093    1.9953    0.9514 O   0  0  0  0  0  0  0  0  0  0  0  0
    0.1331   -1.9513    1.1138 O   0  0  0  0  0  0  0  0  0  0  0  0
   -5.1683    0.8279   -0.5709 O   0  0  0  0  0  0  0  0  0  0  0  0
    0.9462   -0.0410    0.0537 N   0  0  0  0  0  0  0  0  0  0  0  0
   -3.6673   -0.8829   -0.1683 N   0  0  0  0  0  0  0  0  0  0  0  0
    2.3461   -0.3047    0.2215 C   0  0  1  0  0  0  0  0  0  0  0  0
    2.9485   -1.0157   -0.9850 C   0  0  0  0  0  0  0  0  0  0  0  0
    4.4538   -0.8376   -0.9081 C   0  0  0  0  0  0  0  0  0  0  0  0
    3.0872    1.0051    0.3445 C   0  0  0  0  0  0  0  0  0  0  0  0
   -0.0467   -0.8893    0.5155 C   0  0  0  0  0  0  0  0  0  0  0  0
   -1.3959   -0.4035    0.2270 C   0  0  0  0  0  0  0  0  0  0  0  0
   -2.3853   -1.2969    0.1025 C   0  0  0  0  0  0  0  0  0  0  0  0
   -1.6745    1.0037    0.0766 C   0  0  0  0  0  0  0  0  0  0  0  0
   -2.9157    1.4348   -0.1873 C   0  0  0  0  0  0  0  0  0  0  0  0
   -4.0261    0.4466   -0.3286 C   0  0  0  0  0  0  0  0  0  0  0  0
    2.5135   -0.8852    1.1365 H   0  0  0  0  0  0  0  0  0  0  0  0
    2.5670   -0.5866   -1.9223 H   0  0  0  0  0  0  0  0  0  0  0  0
    2.6768   -2.0772   -0.9957 H   0  0  0  0  0  0  0  0  0  0  0  0
    4.8876   -1.4652   -0.1236 H   0  0  0  0  0  0  0  0  0  0  0  0
    4.9441   -1.0597   -1.8594 H   0  0  0  0  0  0  0  0  0  0  0  0
    0.7086    0.7690   -0.5090 H   0  0  0  0  0  0  0  0  0  0  0  0
   -2.2574   -2.3684    0.1975 H   0  0  0  0  0  0  0  0  0  0  0  0
   -0.8972    1.7448    0.2228 H   0  0  0  0  0  0  0  0  0  0  0  0
   -4.3835   -1.5980   -0.2546 H   0  0  0  0  0  0  0  0  0  0  0  0
   -3.1493    2.4883   -0.2844 H   0  0  0  0  0  0  0  0  0  0  0  0
  1  9  1  0  0  0  0
  1 10  1  0  0  0  0
  2 10  2  0  0  0  0
  3 11  2  0  0  0  0
  4 16  2  0  0  0  0
  5  7  1  0  0  0  0
  5 11  1  0  0  0  0
  5 22  1  0  0  0  0
  6 13  1  0  0  0  0
  6 16  1  0  0  0  0
  6 25  1  0  0  0  0
  7  8  1  0  0  0  0
  7 10  1  0  0  0  0
  7 17  1  0  0  0  0
  8  9  1  0  0  0  0
  8 18  1  0  0  0  0
  8 19  1  0  0  0  0
  9 20  1  0  0  0  0
  9 21  1  0  0  0  0
 11 12  1  0  0  0  0
 12 13  2  0  0  0  0
 12 14  1  0  0  0  0
 13 23  1  0  0  0  0
 14 15  2  0  0  0  0
 14 24  1  0  0  0  0
 15 16  1  0  0  0  0
 15 26  1  0  0  0  0
M  END
> <PUBCHEM_COMPOUND_CID>
133639

> <PUBCHEM_CONFORMER_RMSD>
0.6

> <PUBCHEM_CONFORMER_DIVERSEORDER>
4
27
16
17
6
25
19
23
21
3
13
20
9
18
26
24
12
2
15
8
11
14
22
1
5
7
10

> <PUBCHEM_MMFF94_PARTIAL_CHARGES>
20
1 -0.37
10 0.65
11 0.62
12 0.01
13 -0.04
14 -0.15
15 -0.14
16 0.62
2 -0.57
22 0.37
23 0.15
24 0.15
25 0.37
26 0.15
3 -0.57
4 -0.57
5 -0.73
6 -0.54
7 0.36
9 0.23

> <PUBCHEM_EFFECTIVE_ROTOR_COUNT>
3.8

> <PUBCHEM_PHARMACOPHORE_FEATURES>
6
1 3 acceptor
1 4 acceptor
1 5 donor
1 6 donor
5 1 7 8 9 10 rings
6 6 12 13 14 15 16 rings

> <PUBCHEM_HEAVY_ATOM_COUNT>
16

> <PUBCHEM_ATOM_DEF_STEREO_COUNT>
0

> <PUBCHEM_ATOM_UDEF_STEREO_COUNT>
1

> <PUBCHEM_BOND_DEF_STEREO_COUNT>
0

> <PUBCHEM_BOND_UDEF_STEREO_COUNT>
0

> <PUBCHEM_ISOTOPIC_ATOM_COUNT>
0

> <PUBCHEM_COMPONENT_COUNT>
1

> <PUBCHEM_CACTVS_TAUTO_COUNT>
10

> <PUBCHEM_CONFORMER_ID>
00020A0700000004

> <PUBCHEM_MMFF94_ENERGY>
32.7558

> <PUBCHEM_FEATURE_SELFOVERLAP>
30.446

> <PUBCHEM_SHAPE_FINGERPRINT>
10498660 4 18114176415228142941
10608611 8 18340486772154539320
11471102 20 18202004330866472676
11543360 7 17632286926041042439
12251169 10 10881405339435089882
12892183 10 11819270044803073103
12916748 109 18260835894637626617
13081056 2 18411136935363582189
15242439 84 18411703175177393974
15536298 74 18342454863286857416
17802600 8 18411697669161416472
1813 80 13254799048856459434
18186145 218 18408318882523830489
200 152 17131835360720184986
20300324 65 18342458157911557607
20645477 56 18408604781612157685
20645477 70 17989212508185025142
20871999 31 18058720425152939775
212847 35 18186517679345161088
21524375 3 18260265213790863722
221357 26 18273214162168020900
22289505 5 18343301449102666540
22646028 28 12535627167635339988
23402539 116 18409161147386177638
23402655 69 18272936024728591196
23557571 272 18266185104706634779
23559900 14 18411420622691341086
3060560 45 17775570840830229830
351380 180 18412823590585046812
3545911 37 18411140246572279924
4028521 119 18335417950472718469
474 4 17748831812626452661
495365 180 17846206800593000168
4990 188 18342741793019603806
5104073 3 18410012147615789386
5281201 14 18273221884851158428
633830 44 18409161125700260167
69090 78 18273493485408061135
7364860 26 18192424182347341218
77779 3 18342741822973429620
93112 12 18272934925122076310
9709674 26 18268149932080325070

> <PUBCHEM_SHAPE_MULTIPOLES>
305.55
9.98
1.7
0.89
0.91
0.1
-0.01
2.37
2.89
-0.23
-0.29
-0.45
-0.1
0.81

> <PUBCHEM_SHAPE_SELFOVERLAP>
633.489

> <PUBCHEM_SHAPE_VOLUME>
175.3

> <PUBCHEM_COORDINATE_TYPE>
2
5
10

$$$$
