133678
  -OEChem-03292013323D

 38 38  0     0  0  0  0  0  0999 V2000
    4.8386   -1.2116   -0.3165 S   0  0  0  0  0  0  0  0  0  0  0  0
    2.7215    0.9293    0.2336 O   0  0  0  0  0  0  0  0  0  0  0  0
    5.1966   -2.7926   -0.1371 O   0  0  0  0  0  0  0  0  0  0  0  0
    6.0482   -0.4337   -0.1228 O   0  0  0  0  0  0  0  0  0  0  0  0
    4.0133   -1.0516   -1.4996 O   0  0  0  0  0  0  0  0  0  0  0  0
   -0.4337   -2.2079   -1.0954 O   0  5  0  0  0  0  0  0  0  0  0  0
   -0.2289   -1.8650    1.0632 O   0  0  0  0  0  0  0  0  0  0  0  0
   -6.4470    0.2475    0.2005 O   0  5  0  0  0  0  0  0  0  0  0  0
   -5.7439   -1.8156    0.4617 O   0  0  0  0  0  0  0  0  0  0  0  0
   -0.2572    1.1284   -0.5262 N   0  0  0  0  0  0  0  0  0  0  0  0
   -0.7767   -1.6276   -0.0389 N   0  3  0  0  0  0  0  0  0  0  0  0
    2.5580    3.0065    1.3051 N   0  0  0  0  0  0  0  0  0  0  0  0
   -5.5221   -0.5993    0.2477 N   0  3  0  0  0  0  0  0  0  0  0  0
    0.0858    2.5084   -0.7781 C   0  0  0  0  0  0  0  0  0  0  0  0
    1.5921    2.6620   -0.9379 C   0  0  0  0  0  0  0  0  0  0  0  0
   -1.5544    0.6817   -0.3322 C   0  0  0  0  0  0  0  0  0  0  0  0
    3.8167   -1.0450    1.1147 C   0  0  0  0  0  0  0  0  0  0  0  0
    3.4297    0.4000    1.3622 C   0  0  0  0  0  0  0  0  0  0  0  0
    2.3226    2.2259    0.3036 C   0  0  0  0  0  0  0  0  0  0  0  0
   -1.8240   -0.6657   -0.0924 C   0  0  0  0  0  0  0  0  0  0  0  0
   -2.5993    1.6044   -0.3798 C   0  0  0  0  0  0  0  0  0  0  0  0
   -3.1385   -1.0904    0.0999 C   0  0  0  0  0  0  0  0  0  0  0  0
   -4.1836   -0.1677    0.0522 C   0  0  0  0  0  0  0  0  0  0  0  0
   -3.9140    1.1796   -0.1876 C   0  0  0  0  0  0  0  0  0  0  0  0
   -0.2472    3.1381    0.0560 H   0  0  0  0  0  0  0  0  0  0  0  0
   -0.3964    2.8618   -1.6970 H   0  0  0  0  0  0  0  0  0  0  0  0
    1.9545    2.0746   -1.7901 H   0  0  0  0  0  0  0  0  0  0  0  0
    1.8429    3.7100   -1.1372 H   0  0  0  0  0  0  0  0  0  0  0  0
    0.4888    0.4423   -0.5255 H   0  0  0  0  0  0  0  0  0  0  0  0
    4.3693   -1.4400    1.9723 H   0  0  0  0  0  0  0  0  0  0  0  0
    2.9270   -1.6584    0.9395 H   0  0  0  0  0  0  0  0  0  0  0  0
    2.7859    0.4438    2.2481 H   0  0  0  0  0  0  0  0  0  0  0  0
    4.3363    0.9924    1.5329 H   0  0  0  0  0  0  0  0  0  0  0  0
   -2.4404    2.6626   -0.5638 H   0  0  0  0  0  0  0  0  0  0  0  0
   -3.3271   -2.1460    0.2858 H   0  0  0  0  0  0  0  0  0  0  0  0
   -4.7031    1.9260   -0.2316 H   0  0  0  0  0  0  0  0  0  0  0  0
    3.0689    2.5494    2.0598 H   0  0  0  0  0  0  0  0  0  0  0  0
    4.4511   -3.4175   -0.2994 H   0  0  0  0  0  0  0  0  0  0  0  0
  1  3  1  0  0  0  0
  1  4  2  0  0  0  0
  1  5  2  0  0  0  0
  1 17  1  0  0  0  0
  2 18  1  0  0  0  0
  2 19  1  0  0  0  0
  3 38  1  0  0  0  0
  6 11  1  0  0  0  0
  7 11  2  0  0  0  0
  8 13  1  0  0  0  0
  9 13  2  0  0  0  0
 10 14  1  0  0  0  0
 10 16  1  0  0  0  0
 10 29  1  0  0  0  0
 11 20  1  0  0  0  0
 12 19  2  0  0  0  0
 12 37  1  0  0  0  0
 13 23  1  0  0  0  0
 14 15  1  0  0  0  0
 14 25  1  0  0  0  0
 14 26  1  0  0  0  0
 15 19  1  0  0  0  0
 15 27  1  0  0  0  0
 15 28  1  0  0  0  0
 16 20  2  0  0  0  0
 16 21  1  0  0  0  0
 17 18  1  0  0  0  0
 17 30  1  0  0  0  0
 17 31  1  0  0  0  0
 18 32  1  0  0  0  0
 18 33  1  0  0  0  0
 20 22  1  0  0  0  0
 21 24  2  0  0  0  0
 21 34  1  0  0  0  0
 22 23  2  0  0  0  0
 22 35  1  0  0  0  0
 23 24  1  0  0  0  0
 24 36  1  0  0  0  0
M  CHG  4   6  -1   8  -1  11   1  13   1
M  END
> <PUBCHEM_COMPOUND_CID>
133678

> <PUBCHEM_CONFORMER_RMSD>
1

> <PUBCHEM_CONFORMER_DIVERSEORDER>
1
37
21
33
44
28
72
76
73
57
15
26
74
7
70
20
46
41
71
51
68
12
50
29
11
48
14
36
65
25
55
78
17
75
52
77
60
39
5
67
45
16
61
47
4
53
3
31
6
18
19
43
40
23
56
79
49
66
30
27
62
8
59
35
24
34
69
10
22
42
58
63
9
54
32
64
13
2
38

> <PUBCHEM_MMFF94_PARTIAL_CHARGES>
30
1 1.38
10 -0.87
11 0.91
12 -0.85
13 0.91
14 0.37
15 0.06
16 0.1
17 0.11
18 0.28
19 0.54
2 -0.43
20 0.13
21 -0.15
22 -0.15
23 0.13
24 -0.15
29 0.4
3 -0.68
34 0.15
35 0.15
36 0.15
37 0.4
38 0.5
4 -0.65
5 -0.65
6 -0.52
7 -0.52
8 -0.52
9 -0.52

> <PUBCHEM_EFFECTIVE_ROTOR_COUNT>
10

> <PUBCHEM_PHARMACOPHORE_FEATURES>
14
1 10 cation
1 10 donor
1 12 donor
1 3 acceptor
1 4 acceptor
1 5 acceptor
1 6 acceptor
1 6 anion
1 7 acceptor
1 8 acceptor
1 8 anion
1 9 acceptor
4 1 3 4 5 anion
6 16 20 21 22 23 24 rings

> <PUBCHEM_HEAVY_ATOM_COUNT>
24

> <PUBCHEM_ATOM_DEF_STEREO_COUNT>
0

> <PUBCHEM_ATOM_UDEF_STEREO_COUNT>
0

> <PUBCHEM_BOND_DEF_STEREO_COUNT>
0

> <PUBCHEM_BOND_UDEF_STEREO_COUNT>
0

> <PUBCHEM_ISOTOPIC_ATOM_COUNT>
0

> <PUBCHEM_COMPONENT_COUNT>
1

> <PUBCHEM_CACTVS_TAUTO_COUNT>
1

> <PUBCHEM_CONFORMER_ID>
00020A2E00000001

> <PUBCHEM_MMFF94_ENERGY>
68.4845

> <PUBCHEM_FEATURE_SELFOVERLAP>
71.267

> <PUBCHEM_SHAPE_FINGERPRINT>
10366900 7 17385725777002362259
12403259 327 16773508984047218864
12422481 6 18273215318157529303
12553582 1 18262783121778773704
12633257 1 15697989756461828568
13402501 40 18341050718835954414
13533116 47 18271243923446546801
13551218 46 18410854386824155239
14211702 104 18118405279452935187
14251764 30 18337110051823886762
14420673 8 18266180534887649755
14617045 38 18411985771810468886
14790565 3 17041481614108651741
14866123 147 17908424658314767345
15003188 3 18272098184141794118
17492 89 18194400223886149743
17804303 29 18409728439335556020
1813 80 17095515214785218572
20028762 73 18343016731383904455
21150785 3 12035733145980115129
21267235 1 18334862718765224193
21682296 61 18412268307291095823
23559900 14 18334573581498597385
3004659 81 18113340782934296598
335352 9 18334857208786563341
3421961 26 18412542133047168392
350125 39 18409450271837097605
465052 167 18408891745272392087
5104073 3 18340778143258010073
59755656 215 18189325785172855773
6138700 20 18335422314038366614
9709674 26 18192148411149859874

> <PUBCHEM_SHAPE_MULTIPOLES>
430.88
13.06
3.1
1.05
3.74
1.04
-0.06
-6.84
-1.06
-2.29
0.16
-1.02
0.08
0.95

> <PUBCHEM_SHAPE_SELFOVERLAP>
873.957

> <PUBCHEM_SHAPE_VOLUME>
251.2

> <PUBCHEM_COORDINATE_TYPE>
2
5
10

$$$$
