133684
  -OEChem-03292013323D

 25 26  0     1  0  0  0  0  0999 V2000
    0.5137    1.8953    0.3049 S   0  0  0  0  0  0  0  0  0  0  0  0
   -1.8804   -1.2441    1.3858 O   0  0  0  0  0  0  0  0  0  0  0  0
   -3.4552   -1.7089   -0.1875 O   0  0  0  0  0  0  0  0  0  0  0  0
    0.1619   -0.3625   -0.8913 N   0  0  0  0  0  0  0  0  0  0  0  0
   -4.2113    0.9550   -0.0862 N   0  0  0  0  0  0  0  0  0  0  0  0
   -1.8514    1.0676   -0.8346 C   0  0  0  0  0  0  0  0  0  0  0  0
   -2.8338    0.6093    0.2702 C   0  0  2  0  0  0  0  0  0  0  0  0
   -0.4362    0.7525   -0.5422 C   0  0  0  0  0  0  0  0  0  0  0  0
    1.8634    0.8264    0.2137 C   0  0  0  0  0  0  0  0  0  0  0  0
    1.4817   -0.3353   -0.4646 C   0  0  0  0  0  0  0  0  0  0  0  0
   -2.7917   -0.8962    0.4408 C   0  0  0  0  0  0  0  0  0  0  0  0
    3.1662    1.0028    0.7066 C   0  0  0  0  0  0  0  0  0  0  0  0
    2.4397   -1.3547   -0.6547 C   0  0  0  0  0  0  0  0  0  0  0  0
    4.0948   -0.0214    0.5053 C   0  0  0  0  0  0  0  0  0  0  0  0
    3.7385   -1.1857   -0.1663 C   0  0  0  0  0  0  0  0  0  0  0  0
   -1.9772    2.1444   -1.0098 H   0  0  0  0  0  0  0  0  0  0  0  0
   -2.1176    0.5783   -1.7821 H   0  0  0  0  0  0  0  0  0  0  0  0
   -2.5989    1.0885    1.2275 H   0  0  0  0  0  0  0  0  0  0  0  0
    3.4517    1.9092    1.2319 H   0  0  0  0  0  0  0  0  0  0  0  0
    2.1719   -2.2684   -1.1778 H   0  0  0  0  0  0  0  0  0  0  0  0
   -4.8530    0.6069    0.6248 H   0  0  0  0  0  0  0  0  0  0  0  0
   -4.4710    0.5036   -0.9623 H   0  0  0  0  0  0  0  0  0  0  0  0
    5.1088    0.0950    0.8791 H   0  0  0  0  0  0  0  0  0  0  0  0
    4.4742   -1.9716   -0.3135 H   0  0  0  0  0  0  0  0  0  0  0  0
   -1.8268   -2.2167    1.5017 H   0  0  0  0  0  0  0  0  0  0  0  0
  1  8  1  0  0  0  0
  1  9  1  0  0  0  0
  2 11  1  0  0  0  0
  2 25  1  0  0  0  0
  3 11  2  0  0  0  0
  4  8  2  0  0  0  0
  4 10  1  0  0  0  0
  5  7  1  0  0  0  0
  5 21  1  0  0  0  0
  5 22  1  0  0  0  0
  6  7  1  0  0  0  0
  6  8  1  0  0  0  0
  6 16  1  0  0  0  0
  6 17  1  0  0  0  0
  7 11  1  0  0  0  0
  7 18  1  0  0  0  0
  9 10  1  0  0  0  0
  9 12  2  0  0  0  0
 10 13  2  0  0  0  0
 12 14  1  0  0  0  0
 12 19  1  0  0  0  0
 13 15  1  0  0  0  0
 13 20  1  0  0  0  0
 14 15  2  0  0  0  0
 14 23  1  0  0  0  0
 15 24  1  0  0  0  0
M  END
> <PUBCHEM_COMPOUND_CID>
133684

> <PUBCHEM_CONFORMER_RMSD>
0.6

> <PUBCHEM_CONFORMER_DIVERSEORDER>
1
8
9
23
21
6
14
20
15
4
10
16
19
3
11
17
13
7
2
18
22
5
12

> <PUBCHEM_MMFF94_PARTIAL_CHARGES>
22
1 -0.08
10 0.23
11 0.66
12 -0.15
13 -0.15
14 -0.15
15 -0.15
19 0.15
2 -0.65
20 0.15
21 0.36
22 0.36
23 0.15
24 0.15
25 0.5
3 -0.57
4 -0.57
5 -0.99
6 0.18
7 0.33
8 0.2
9 0.04

> <PUBCHEM_EFFECTIVE_ROTOR_COUNT>
3

> <PUBCHEM_PHARMACOPHORE_FEATURES>
8
1 2 acceptor
1 3 acceptor
1 4 acceptor
1 5 cation
1 5 donor
3 2 3 11 anion
5 1 4 8 9 10 rings
6 9 10 12 13 14 15 rings

> <PUBCHEM_HEAVY_ATOM_COUNT>
15

> <PUBCHEM_ATOM_DEF_STEREO_COUNT>
1

> <PUBCHEM_ATOM_UDEF_STEREO_COUNT>
0

> <PUBCHEM_BOND_DEF_STEREO_COUNT>
0

> <PUBCHEM_BOND_UDEF_STEREO_COUNT>
0

> <PUBCHEM_ISOTOPIC_ATOM_COUNT>
0

> <PUBCHEM_COMPONENT_COUNT>
1

> <PUBCHEM_CACTVS_TAUTO_COUNT>
2

> <PUBCHEM_CONFORMER_ID>
00020A3400000001

> <PUBCHEM_MMFF94_ENERGY>
21.8857

> <PUBCHEM_FEATURE_SELFOVERLAP>
40.723

> <PUBCHEM_SHAPE_FINGERPRINT>
10219947 1 17846497015448473252
11132069 177 18408884027242430849
11471102 22 18273216404488569824
11615757 297 17203609306717835128
11769659 78 18114177515071670458
12032990 46 18342177743907774700
12251169 10 18202283644999931847
12346177 29 18187075161942384351
124424 183 18410853244120384853
12500047 106 18115017485920393093
12932764 1 16660357073880140788
13296908 3 18412263930423593430
14115302 16 17968388870061060397
15219456 202 18412824694265067256
15309172 13 17489869340837009118
15375358 24 18411695456994594885
15653759 3 18408040701924218368
16945 1 18198060480967316348
17834072 14 18410853282748567443
17834074 16 18410293592649066838
17844478 74 18411979131369341388
18175812 5 18412825776501978052
18186145 218 11386365911609973748
19049666 15 18122342380802720684
200 152 17774711044048601893
20201158 50 18410857629144772547
20279233 1 18411419492534667663
20281407 28 18335425646943200052
20361792 2 16225766337020632255
20528008 55 18413105039681177381
20645477 70 17916860214781069710
21501502 16 18262807396586063573
21501925 9 18338232768653184125
22485316 2 18334855000376683770
23048698 100 16702299040312104032
232386 152 18041289832440674767
23402539 116 17895183394447282156
23559900 14 18335137532406089606
26918003 58 18342170034225311008
2748010 2 17843111503636335604
474 4 15624787622749104938
568465 68 18200879581668013434
5902787 121 18186801408989915080
69090 78 18413384320425459111
81228 2 18121517759851285040
8809292 202 18334298638739622795
9709674 26 18335986470877611211

> <PUBCHEM_SHAPE_MULTIPOLES>
290.84
7.41
1.74
0.94
0.98
0.01
0.08
1.5
0.94
0.22
0.08
0.11
0.09
0.75

> <PUBCHEM_SHAPE_SELFOVERLAP>
608.735

> <PUBCHEM_SHAPE_VOLUME>
165.3

> <PUBCHEM_COORDINATE_TYPE>
2
5
10

$$$$
