133710
  -OEChem-03292013323D

 52 55  0     1  0  0  0  0  0999 V2000
   -4.0155    0.4770    0.0448 O   0  0  0  0  0  0  0  0  0  0  0  0
   -2.6266   -1.2382    0.8012 O   0  0  0  0  0  0  0  0  0  0  0  0
   -7.3335   -1.9355    0.2512 O   0  0  0  0  0  0  0  0  0  0  0  0
   -7.3945    0.4860   -1.3552 O   0  0  0  0  0  0  0  0  0  0  0  0
   -4.6384   -3.1201    0.1721 O   0  0  0  0  0  0  0  0  0  0  0  0
   -6.1519    2.8801   -1.3648 O   0  0  0  0  0  0  0  0  0  0  0  0
   -4.5109    2.9760    0.2144 O   0  0  0  0  0  0  0  0  0  0  0  0
    4.4364    1.8363    0.8778 O   0  0  0  0  0  0  0  0  0  0  0  0
   -1.2957    0.2533   -0.3498 O   0  0  0  0  0  0  0  0  0  0  0  0
    3.6958   -1.7786   -1.3218 O   0  0  0  0  0  0  0  0  0  0  0  0
   -6.1891   -1.3544   -0.3754 C   0  0  1  0  0  0  0  0  0  0  0  0
   -6.3835    0.1620   -0.4022 C   0  0  1  0  0  0  0  0  0  0  0  0
   -4.9301   -1.7416    0.4009 C   0  0  2  0  0  0  0  0  0  0  0  0
   -5.0921    0.8651   -0.8008 C   0  0  1  0  0  0  0  0  0  0  0  0
   -3.7254   -0.9154   -0.0503 C   0  0  1  0  0  0  0  0  0  0  0  0
   -5.1930    2.3389   -0.5744 C   0  0  0  0  0  0  0  0  0  0  0  0
   -1.4620   -0.5737    0.5366 C   0  0  0  0  0  0  0  0  0  0  0  0
   -0.3950   -1.0214    1.5166 C   0  0  0  0  0  0  0  0  0  0  0  0
    0.9050   -0.3108    1.3464 C   0  0  0  0  0  0  0  0  0  0  0  0
    3.1036   -0.1654    0.2877 C   0  0  0  0  0  0  0  0  0  0  0  0
    1.8756   -0.8265    0.4853 C   0  0  0  0  0  0  0  0  0  0  0  0
    3.3240    1.0443    0.9618 C   0  0  0  0  0  0  0  0  0  0  0  0
    1.1465    0.8711    2.0333 C   0  0  0  0  0  0  0  0  0  0  0  0
    5.5258   -0.5494   -0.6230 C   0  0  0  0  0  0  0  0  0  0  0  0
    5.9893    0.7668   -0.5588 C   0  0  0  0  0  0  0  0  0  0  0  0
    4.0830   -0.8658   -0.5945 C   0  0  0  0  0  0  0  0  0  0  0  0
    2.3522    1.5411    1.8453 C   0  0  0  0  0  0  0  0  0  0  0  0
    5.0263    1.8997   -0.4150 C   0  0  0  0  0  0  0  0  0  0  0  0
    6.4323   -1.6086   -0.7718 C   0  0  0  0  0  0  0  0  0  0  0  0
    7.3689    1.0093   -0.6228 C   0  0  0  0  0  0  0  0  0  0  0  0
    7.8019   -1.3551   -0.8354 C   0  0  0  0  0  0  0  0  0  0  0  0
    8.2704   -0.0466   -0.7595 C   0  0  0  0  0  0  0  0  0  0  0  0
   -6.1554   -1.7573   -1.3955 H   0  0  0  0  0  0  0  0  0  0  0  0
   -6.7371    0.5094    0.5765 H   0  0  0  0  0  0  0  0  0  0  0  0
   -5.0917   -1.6202    1.4794 H   0  0  0  0  0  0  0  0  0  0  0  0
   -4.8161    0.6990   -1.8495 H   0  0  0  0  0  0  0  0  0  0  0  0
   -3.4463   -1.1765   -1.0806 H   0  0  0  0  0  0  0  0  0  0  0  0
   -7.2460   -2.9014    0.1881 H   0  0  0  0  0  0  0  0  0  0  0  0
   -7.0915    0.1875   -2.2297 H   0  0  0  0  0  0  0  0  0  0  0  0
   -5.3684   -3.6420    0.5454 H   0  0  0  0  0  0  0  0  0  0  0  0
   -0.7732   -0.8591    2.5336 H   0  0  0  0  0  0  0  0  0  0  0  0
   -0.2490   -2.1015    1.3942 H   0  0  0  0  0  0  0  0  0  0  0  0
    1.6655   -1.7650   -0.0246 H   0  0  0  0  0  0  0  0  0  0  0  0
   -6.2351    3.8481   -1.2295 H   0  0  0  0  0  0  0  0  0  0  0  0
    0.4043    1.2867    2.7091 H   0  0  0  0  0  0  0  0  0  0  0  0
    2.5273    2.4713    2.3817 H   0  0  0  0  0  0  0  0  0  0  0  0
    4.2790    1.9104   -1.2200 H   0  0  0  0  0  0  0  0  0  0  0  0
    5.5505    2.8603   -0.4796 H   0  0  0  0  0  0  0  0  0  0  0  0
    6.0872   -2.6379   -0.8313 H   0  0  0  0  0  0  0  0  0  0  0  0
    7.7524    2.0252   -0.5679 H   0  0  0  0  0  0  0  0  0  0  0  0
    8.5022   -2.1779   -0.9448 H   0  0  0  0  0  0  0  0  0  0  0  0
    9.3368    0.1529   -0.8087 H   0  0  0  0  0  0  0  0  0  0  0  0
  1 14  1  0  0  0  0
  1 15  1  0  0  0  0
  2 15  1  0  0  0  0
  2 17  1  0  0  0  0
  3 11  1  0  0  0  0
  3 38  1  0  0  0  0
  4 12  1  0  0  0  0
  4 39  1  0  0  0  0
  5 13  1  0  0  0  0
  5 40  1  0  0  0  0
  6 16  1  0  0  0  0
  6 44  1  0  0  0  0
  7 16  2  0  0  0  0
  8 22  1  0  0  0  0
  8 28  1  0  0  0  0
  9 17  2  0  0  0  0
 10 26  2  0  0  0  0
 11 12  1  0  0  0  0
 11 13  1  0  0  0  0
 11 33  1  0  0  0  0
 12 14  1  0  0  0  0
 12 34  1  0  0  0  0
 13 15  1  0  0  0  0
 13 35  1  0  0  0  0
 14 16  1  0  0  0  0
 14 36  1  0  0  0  0
 15 37  1  0  0  0  0
 17 18  1  0  0  0  0
 18 19  1  0  0  0  0
 18 41  1  0  0  0  0
 18 42  1  0  0  0  0
 19 21  2  0  0  0  0
 19 23  1  0  0  0  0
 20 21  1  0  0  0  0
 20 22  2  0  0  0  0
 20 26  1  0  0  0  0
 21 43  1  0  0  0  0
 22 27  1  0  0  0  0
 23 27  2  0  0  0  0
 23 45  1  0  0  0  0
 24 25  1  0  0  0  0
 24 26  1  0  0  0  0
 24 29  2  0  0  0  0
 25 28  1  0  0  0  0
 25 30  2  0  0  0  0
 27 46  1  0  0  0  0
 28 47  1  0  0  0  0
 28 48  1  0  0  0  0
 29 31  1  0  0  0  0
 29 49  1  0  0  0  0
 30 32  1  0  0  0  0
 30 50  1  0  0  0  0
 31 32  2  0  0  0  0
 31 51  1  0  0  0  0
 32 52  1  0  0  0  0
M  END
> <PUBCHEM_COMPOUND_CID>
133710

> <PUBCHEM_CONFORMER_RMSD>
1

> <PUBCHEM_CONFORMER_DIVERSEORDER>
1
109
182
77
190
210
66
123
59
181
295
317
167
42
256
84
58
156
28
294
324
67
107
258
192
332
112
54
169
144
269
272
56
227
186
198
209
61
9
311
205
322
340
215
15
188
275
349
296
10
48
25
62
148
125
344
211
162
254
2
216
105
279
70
44
208
53
321
289
228
41
191
271
64
22
314
345
337
166
207
26
68
197
318
12
187
13
285
241
94
6
154
106
104
277
176
37
276
196
199
69
194
310
35
137
335
131
7
267
55
63
3
354
127
30
171
124
93
250
217
150
358
163
353
86
16
284
36
242
73
71
65
249
219
270
221
247
50
218
299
135
195
329
305
262
38
184
5
34
351
183
151
200
255
92
260
261
164
288
157
14
8
268
17
91
134
193
278
244
326
78
257
95
101
312
75
293
149
180
341
222
170
159
206
118
155
348
136
224
168
282
202
308
231
33
139
82
339
85
333
213
117
287
173
266
234
142
352
122
19
347
40
128
189
292
201
177
223
212
132
259
143
328
178
111
103
319
97
226
203
316
214
290
39
232
110
236
334
237
161
283
52
49
108
342
133
281
90
315
29
243
21
273
129
239
51
121
76
306
240
185
204
309
302
153
291
43
98
4
336
120
47
140
313
238
32
304
248
301
138
99
245
235
246
264
297
130
355
323
31
126
115
274
325
114
174
263
100
158
113
18
116
252
72
327
83
330
141
350
298
356
338
175
360
20
46
303
229
96
145
359
74
230
60
57
307
23
172
79
320
45
81
220
343
253
225
286
102
146
89
160
331
357
147
300
88
165
280
251
27
265
119
24
346
233
80
179
152
11
87

> <PUBCHEM_MMFF94_PARTIAL_CHARGES>
43
1 -0.56
10 -0.57
11 0.28
12 0.28
13 0.28
14 0.34
15 0.56
16 0.66
17 0.66
18 0.2
19 -0.14
2 -0.43
20 0.09
21 -0.15
22 0.08
23 -0.15
24 0.09
25 -0.14
26 0.4
27 -0.15
28 0.42
29 -0.15
3 -0.68
30 -0.15
31 -0.15
32 -0.15
38 0.4
39 0.4
4 -0.68
40 0.4
43 0.15
44 0.5
45 0.15
46 0.15
49 0.15
5 -0.68
50 0.15
51 0.15
52 0.15
6 -0.65
7 -0.57
8 -0.36
9 -0.57

> <PUBCHEM_EFFECTIVE_ROTOR_COUNT>
6.6

> <PUBCHEM_PHARMACOPHORE_FEATURES>
17
1 1 acceptor
1 10 acceptor
1 3 acceptor
1 3 donor
1 4 acceptor
1 4 donor
1 5 acceptor
1 5 donor
1 6 acceptor
1 7 acceptor
1 8 acceptor
1 9 acceptor
3 6 7 16 anion
6 1 11 12 13 14 15 rings
6 19 20 21 22 23 27 rings
6 24 25 29 30 31 32 rings
7 8 20 22 24 25 26 28 rings

> <PUBCHEM_HEAVY_ATOM_COUNT>
32

> <PUBCHEM_ATOM_DEF_STEREO_COUNT>
5

> <PUBCHEM_ATOM_UDEF_STEREO_COUNT>
0

> <PUBCHEM_BOND_DEF_STEREO_COUNT>
0

> <PUBCHEM_BOND_UDEF_STEREO_COUNT>
0

> <PUBCHEM_ISOTOPIC_ATOM_COUNT>
0

> <PUBCHEM_COMPONENT_COUNT>
1

> <PUBCHEM_CACTVS_TAUTO_COUNT>
1

> <PUBCHEM_CONFORMER_ID>
00020A4E00000001

> <PUBCHEM_MMFF94_ENERGY>
98.6485

> <PUBCHEM_FEATURE_SELFOVERLAP>
86.387

> <PUBCHEM_SHAPE_FINGERPRINT>
10029044 110 15937275425239900534
10454371 7 18334576837205328661
10669705 176 18333449828695412943
10670039 82 18187080633572769061
11135926 11 16917075442500955191
11646440 116 14779269709429399390
11719270 70 18131351895847389278
12082328 90 18410575076442812623
12664476 115 18411417311319307953
13690498 29 18271802497335072495
13782708 43 18272651302498707066
14118638 360 17749101185002917795
14294032 229 17023176077129978148
14933364 13 18410293622835040325
15021287 119 15195288655249519579
15082195 135 18339088211130232416
15183329 4 18413108338089428056
15475509 35 12390975388744005700
1577012 14 17530959151408529977
17780758 139 10231756682909623699
18608769 82 18336835307230306019
19304152 47 17313955087645729817
20105231 36 18261118521631729947
21033650 10 18187366511038482937
21792961 116 18131356280644481542
22061861 79 17775564252012825979
221357 26 18201998836981257584
23559900 14 18129657633731571083
2747138 104 17968946434874585891
3004659 81 18343019999995785258
4073 2 18041285447617227986
4098825 35 18410013230321995956
42767 28 18411412891550366041
439807 62 18272939340316938042
445580 37 18259984881771091869
474113 269 18189051998857894650
6608658 132 17603860062565762781
6697151 62 16773505651089385456
9953998 17 9439404627563783535

> <PUBCHEM_SHAPE_MULTIPOLES>
599.85
24.98
2.54
1.38
0.56
0.65
-0.45
-0.99
11.59
3.44
0.26
-0.34
0.34
2.44

> <PUBCHEM_SHAPE_SELFOVERLAP>
1313.768

> <PUBCHEM_SHAPE_VOLUME>
317.9

> <PUBCHEM_COORDINATE_TYPE>
2
5
10

$$$$
