133719
  -OEChem-03292013323D

 43 45  0     1  0  0  0  0  0999 V2000
    1.7177   -2.2304    1.7451 O   0  0  0  0  0  0  0  0  0  0  0  0
   -1.1618   -3.2511    1.7881 O   0  0  0  0  0  0  0  0  0  0  0  0
   -2.3996   -0.4735   -0.3069 O   0  0  0  0  0  0  0  0  0  0  0  0
   -4.6503   -0.1744   -0.7233 O   0  0  0  0  0  0  0  0  0  0  0  0
   -4.4743    2.4301   -0.0949 O   0  0  0  0  0  0  0  0  0  0  0  0
    2.1169   -0.8835   -0.6653 N   0  0  0  0  0  0  0  0  0  0  0  0
    3.8707    0.4380   -1.0318 N   0  0  0  0  0  0  0  0  0  0  0  0
    0.7036    0.6335    0.5993 N   0  0  0  0  0  0  0  0  0  0  0  0
    1.7759    2.8069    0.8869 N   0  0  0  0  0  0  0  0  0  0  0  0
    3.9445    3.2968    0.0013 N   0  0  0  0  0  0  0  0  0  0  0  0
    1.2755   -2.0782   -0.7002 C   0  0  2  0  0  0  0  0  0  0  0  0
   -1.1359   -2.4900   -0.5118 C   0  0  1  0  0  0  0  0  0  0  0  0
   -0.0754   -1.8597   -1.4207 C   0  0  0  0  0  0  0  0  0  0  0  0
    0.9204   -2.6946    0.6717 C   0  0  2  0  0  0  0  0  0  0  0  0
   -0.5472   -2.3428    0.8891 C   0  0  2  0  0  0  0  0  0  0  0  0
   -2.5054   -1.8431   -0.6548 C   0  0  0  0  0  0  0  0  0  0  0  0
    1.8187    0.3078   -0.0717 C   0  0  0  0  0  0  0  0  0  0  0  0
    3.3575   -0.7586   -1.2279 C   0  0  0  0  0  0  0  0  0  0  0  0
    2.9194    1.1149   -0.3106 C   0  0  0  0  0  0  0  0  0  0  0  0
    2.8725    2.4091    0.1977 C   0  0  0  0  0  0  0  0  0  0  0  0
   -3.5573    0.2581   -0.3840 C   0  0  0  0  0  0  0  0  0  0  0  0
    0.7744    1.9076    1.0426 C   0  0  0  0  0  0  0  0  0  0  0  0
   -3.2786    1.6837    0.0139 C   0  0  0  0  0  0  0  0  0  0  0  0
   -4.2820    3.7935    0.2681 C   0  0  0  0  0  0  0  0  0  0  0  0
    1.8508   -2.8256   -1.2634 H   0  0  0  0  0  0  0  0  0  0  0  0
   -1.2386   -3.5560   -0.7571 H   0  0  0  0  0  0  0  0  0  0  0  0
   -0.0742   -2.3513   -2.4007 H   0  0  0  0  0  0  0  0  0  0  0  0
   -0.2693   -0.7983   -1.6087 H   0  0  0  0  0  0  0  0  0  0  0  0
    1.0412   -3.7842    0.6293 H   0  0  0  0  0  0  0  0  0  0  0  0
   -0.6767   -1.3407    1.3052 H   0  0  0  0  0  0  0  0  0  0  0  0
   -3.2244   -2.3368    0.0095 H   0  0  0  0  0  0  0  0  0  0  0  0
   -2.8551   -1.9356   -1.6898 H   0  0  0  0  0  0  0  0  0  0  0  0
    1.4396   -1.3284    1.9747 H   0  0  0  0  0  0  0  0  0  0  0  0
   -0.6780   -3.1984    2.6300 H   0  0  0  0  0  0  0  0  0  0  0  0
    3.8374   -1.5649   -1.7658 H   0  0  0  0  0  0  0  0  0  0  0  0
   -0.0885    2.2597    1.5978 H   0  0  0  0  0  0  0  0  0  0  0  0
   -2.5209    2.0947   -0.6614 H   0  0  0  0  0  0  0  0  0  0  0  0
   -2.9246    1.6953    1.0500 H   0  0  0  0  0  0  0  0  0  0  0  0
    4.7641    3.0022   -0.5123 H   0  0  0  0  0  0  0  0  0  0  0  0
    3.8868    4.2320    0.3807 H   0  0  0  0  0  0  0  0  0  0  0  0
   -5.2372    4.3149    0.1640 H   0  0  0  0  0  0  0  0  0  0  0  0
   -3.5505    4.2657   -0.3947 H   0  0  0  0  0  0  0  0  0  0  0  0
   -3.9527    3.8688    1.3089 H   0  0  0  0  0  0  0  0  0  0  0  0
  1 14  1  0  0  0  0
  1 33  1  0  0  0  0
  2 15  1  0  0  0  0
  2 34  1  0  0  0  0
  3 16  1  0  0  0  0
  3 21  1  0  0  0  0
  4 21  2  0  0  0  0
  5 23  1  0  0  0  0
  5 24  1  0  0  0  0
  6 11  1  0  0  0  0
  6 17  1  0  0  0  0
  6 18  1  0  0  0  0
  7 18  2  0  0  0  0
  7 19  1  0  0  0  0
  8 17  2  0  0  0  0
  8 22  1  0  0  0  0
  9 20  1  0  0  0  0
  9 22  2  0  0  0  0
 10 20  1  0  0  0  0
 10 39  1  0  0  0  0
 10 40  1  0  0  0  0
 11 13  1  0  0  0  0
 11 14  1  0  0  0  0
 11 25  1  0  0  0  0
 12 13  1  0  0  0  0
 12 15  1  0  0  0  0
 12 16  1  0  0  0  0
 12 26  1  0  0  0  0
 13 27  1  0  0  0  0
 13 28  1  0  0  0  0
 14 15  1  0  0  0  0
 14 29  1  0  0  0  0
 15 30  1  0  0  0  0
 16 31  1  0  0  0  0
 16 32  1  0  0  0  0
 17 19  1  0  0  0  0
 18 35  1  0  0  0  0
 19 20  2  0  0  0  0
 21 23  1  0  0  0  0
 22 36  1  0  0  0  0
 23 37  1  0  0  0  0
 23 38  1  0  0  0  0
 24 41  1  0  0  0  0
 24 42  1  0  0  0  0
 24 43  1  0  0  0  0
M  END
> <PUBCHEM_COMPOUND_CID>
133719

> <PUBCHEM_CONFORMER_RMSD>
0.8

> <PUBCHEM_CONFORMER_DIVERSEORDER>
1
40
101
187
94
233
98
67
111
153
228
161
112
131
76
192
189
202
28
142
215
157
148
181
8
103
51
24
226
145
213
102
170
110
168
6
79
159
81
113
224
188
16
86
49
182
92
169
20
201
66
232
77
239
85
144
183
71
149
123
163
196
208
234
43
165
205
74
80
160
21
193
150
158
195
147
197
58
75
115
128
133
23
104
179
214
30
130
12
82
237
204
46
62
127
55
136
68
15
120
3
223
50
191
93
121
33
217
124
41
10
227
137
59
222
221
19
2
186
171
132
236
156
194
154
176
45
108
173
138
216
166
212
57
175
116
61
151
31
37
162
100
230
84
117
72
172
225
96
190
211
22
200
219
25
69
105
109
146
184
106
164
13
11
83
235
206
73
47
56
143
107
231
17
88
54
65
141
42
4
53
39
203
78
9
135
7
14
95
114
87
44
18
210
140
152
209
48
90
35
238
97
91
167
240
129
36
38
26
180
198
99
34
185
29
118
60
89
27
220
177
207
64
125
119
218
5
155
178
52
139
126
134
63
229
70
199
122
32
174

> <PUBCHEM_MMFF94_PARTIAL_CHARGES>
28
1 -0.68
10 -0.9
11 0.26
14 0.28
15 0.28
16 0.28
17 0.11
18 0.04
19 0.23
2 -0.68
20 0.41
21 0.66
22 0.47
23 0.34
24 0.28
3 -0.43
33 0.4
34 0.4
35 0.15
36 0.15
39 0.4
4 -0.57
40 0.4
5 -0.56
6 0.05
7 -0.57
8 -0.57
9 -0.62

> <PUBCHEM_EFFECTIVE_ROTOR_COUNT>
7

> <PUBCHEM_PHARMACOPHORE_FEATURES>
14
1 1 acceptor
1 1 donor
1 10 cation
1 10 donor
1 2 acceptor
1 2 donor
1 4 acceptor
1 5 acceptor
3 6 7 18 cation
3 6 8 17 cation
3 8 9 22 cation
5 11 12 13 14 15 rings
5 6 7 17 18 19 rings
6 8 9 17 19 20 22 rings

> <PUBCHEM_HEAVY_ATOM_COUNT>
24

> <PUBCHEM_ATOM_DEF_STEREO_COUNT>
4

> <PUBCHEM_ATOM_UDEF_STEREO_COUNT>
0

> <PUBCHEM_BOND_DEF_STEREO_COUNT>
0

> <PUBCHEM_BOND_UDEF_STEREO_COUNT>
0

> <PUBCHEM_ISOTOPIC_ATOM_COUNT>
0

> <PUBCHEM_COMPONENT_COUNT>
1

> <PUBCHEM_CACTVS_TAUTO_COUNT>
3

> <PUBCHEM_CONFORMER_ID>
00020A5700000001

> <PUBCHEM_MMFF94_ENERGY>
58.1165

> <PUBCHEM_FEATURE_SELFOVERLAP>
71.661

> <PUBCHEM_SHAPE_FINGERPRINT>
10006869 2 18335975485069232147
10165383 225 17968104100712695198
10498660 4 18265603454913603735
1100329 8 18192711150898375298
11221954 11 18341053028932046271
12633257 1 17976251340741811925
12788726 201 17976246156473439299
13464514 151 18410017602366939102
14251757 17 18059586788232213412
14466204 15 18412536631251558498
14931854 50 18342741784482716165
14955137 171 18118109286875075074
15238133 3 18263643974816641550
15322687 12 18268990882762086529
15848702 68 17975402534723407661
19049666 15 18120380014967887586
20465049 17 18196949789882462733
21344244 78 17180511591613672547
21864079 5 18342170030204526975
221357 26 18201722890054406463
22182313 1 17983881135569007404
23558518 356 18337109089555774053
23559900 14 18272375308891328468
238 59 18339645529874295145
2637199 183 18411143506726790255
5283173 99 18341337811798946532
57527295 17 18336277777525761854
5895379 119 17699563641737117201
5939293 188 18124589778406711839
84936 182 18336824204322548979

> <PUBCHEM_SHAPE_MULTIPOLES>
439.66
7.62
4.77
1.24
6.49
1.8
-0.28
7.61
1.89
1
-1.35
-0.41
-0.9
0.03

> <PUBCHEM_SHAPE_SELFOVERLAP>
938.094

> <PUBCHEM_SHAPE_VOLUME>
241.8

> <PUBCHEM_COORDINATE_TYPE>
2
5
10

$$$$
