133737
  -OEChem-03292013323D

 48 49  0     0  0  0  0  0  0999 V2000
    6.8592    1.6565    0.5620 S   0  3  0  0  0  0  0  0  0  0  0  0
   -2.3708    2.7478   -0.9776 S   0  0  0  0  0  0  0  0  0  0  0  0
   -0.8529   -1.8332    1.1926 S   0  0  0  0  0  0  0  0  0  0  0  0
    3.4012   -2.9676    0.0395 O   0  0  0  0  0  0  0  0  0  0  0  0
   -7.1883   -0.3876    1.0623 O   0  0  0  0  0  0  0  0  0  0  0  0
    3.3963   -0.9879   -1.1436 N   0  0  0  0  0  0  0  0  0  0  0  0
   -2.6402    0.6111    0.4523 N   0  0  0  0  0  0  0  0  0  0  0  0
   -5.6756    0.0765   -0.6465 N   0  0  0  0  0  0  0  0  0  0  0  0
    0.7903   -0.5252   -0.3145 N   0  0  0  0  0  0  0  0  0  0  0  0
    5.7870   -0.5124   -0.7552 C   0  0  0  0  0  0  0  0  0  0  0  0
    5.5592    0.9763   -0.5159 C   0  0  0  0  0  0  0  0  0  0  0  0
    4.7284   -1.1280   -1.6650 C   0  0  0  0  0  0  0  0  0  0  0  0
    6.1508    3.3130    0.6977 C   0  0  0  0  0  0  0  0  0  0  0  0
    6.1839    1.0129    2.1092 C   0  0  0  0  0  0  0  0  0  0  0  0
   -4.6458    2.0565    0.4183 C   0  0  0  0  0  0  0  0  0  0  0  0
    2.8167   -1.9424   -0.3088 C   0  0  0  0  0  0  0  0  0  0  0  0
   -5.7052    1.5117   -0.5567 C   0  0  0  0  0  0  0  0  0  0  0  0
   -3.2598    1.6978    0.0481 C   0  0  0  0  0  0  0  0  0  0  0  0
    1.4357   -1.6690    0.1133 C   0  0  0  0  0  0  0  0  0  0  0  0
   -1.3671    0.5978   -0.0832 C   0  0  0  0  0  0  0  0  0  0  0  0
   -0.4224   -0.5068    0.1926 C   0  0  0  0  0  0  0  0  0  0  0  0
   -1.0388    1.6716   -0.8841 C   0  0  0  0  0  0  0  0  0  0  0  0
    0.7062   -2.5006    0.9368 C   0  0  0  0  0  0  0  0  0  0  0  0
   -6.4235   -0.7561    0.1748 C   0  0  0  0  0  0  0  0  0  0  0  0
   -6.2246   -2.2127   -0.1482 C   0  0  0  0  0  0  0  0  0  0  0  0
    5.7884   -1.0543    0.1976 H   0  0  0  0  0  0  0  0  0  0  0  0
    6.7749   -0.6702   -1.2055 H   0  0  0  0  0  0  0  0  0  0  0  0
    4.5778    1.1682   -0.0716 H   0  0  0  0  0  0  0  0  0  0  0  0
    5.6119    1.5176   -1.4667 H   0  0  0  0  0  0  0  0  0  0  0  0
    4.7437   -0.6396   -2.6454 H   0  0  0  0  0  0  0  0  0  0  0  0
    4.9479   -2.1900   -1.8203 H   0  0  0  0  0  0  0  0  0  0  0  0
    2.8619   -0.1630   -1.4016 H   0  0  0  0  0  0  0  0  0  0  0  0
    5.0880    3.2735    0.9489 H   0  0  0  0  0  0  0  0  0  0  0  0
    6.6868    3.8622    1.4758 H   0  0  0  0  0  0  0  0  0  0  0  0
    6.2796    3.8311   -0.2560 H   0  0  0  0  0  0  0  0  0  0  0  0
    6.6792    1.5198    2.9418 H   0  0  0  0  0  0  0  0  0  0  0  0
    5.1063    1.1793    2.1798 H   0  0  0  0  0  0  0  0  0  0  0  0
    6.3957   -0.0562    2.1809 H   0  0  0  0  0  0  0  0  0  0  0  0
   -4.7600    3.1451    0.4925 H   0  0  0  0  0  0  0  0  0  0  0  0
   -4.8502    1.6624    1.4224 H   0  0  0  0  0  0  0  0  0  0  0  0
   -5.5391    1.9029   -1.5662 H   0  0  0  0  0  0  0  0  0  0  0  0
   -6.7008    1.8300   -0.2287 H   0  0  0  0  0  0  0  0  0  0  0  0
   -0.1157    1.8806   -1.4070 H   0  0  0  0  0  0  0  0  0  0  0  0
   -5.0737   -0.3398   -1.3512 H   0  0  0  0  0  0  0  0  0  0  0  0
    0.9962   -3.4383    1.3898 H   0  0  0  0  0  0  0  0  0  0  0  0
   -5.1577   -2.4410   -0.2265 H   0  0  0  0  0  0  0  0  0  0  0  0
   -6.6566   -2.8284    0.6455 H   0  0  0  0  0  0  0  0  0  0  0  0
   -6.7181   -2.4467   -1.0954 H   0  0  0  0  0  0  0  0  0  0  0  0
  1 11  1  0  0  0  0
  1 13  1  0  0  0  0
  1 14  1  0  0  0  0
  2 18  1  0  0  0  0
  2 22  1  0  0  0  0
  3 21  1  0  0  0  0
  3 23  1  0  0  0  0
  4 16  2  0  0  0  0
  5 24  2  0  0  0  0
  6 12  1  0  0  0  0
  6 16  1  0  0  0  0
  6 32  1  0  0  0  0
  7 18  2  0  0  0  0
  7 20  1  0  0  0  0
  8 17  1  0  0  0  0
  8 24  1  0  0  0  0
  8 44  1  0  0  0  0
  9 19  1  0  0  0  0
  9 21  2  0  0  0  0
 10 11  1  0  0  0  0
 10 12  1  0  0  0  0
 10 26  1  0  0  0  0
 10 27  1  0  0  0  0
 11 28  1  0  0  0  0
 11 29  1  0  0  0  0
 12 30  1  0  0  0  0
 12 31  1  0  0  0  0
 13 33  1  0  0  0  0
 13 34  1  0  0  0  0
 13 35  1  0  0  0  0
 14 36  1  0  0  0  0
 14 37  1  0  0  0  0
 14 38  1  0  0  0  0
 15 17  1  0  0  0  0
 15 18  1  0  0  0  0
 15 39  1  0  0  0  0
 15 40  1  0  0  0  0
 16 19  1  0  0  0  0
 17 41  1  0  0  0  0
 17 42  1  0  0  0  0
 19 23  2  0  0  0  0
 20 21  1  0  0  0  0
 20 22  2  0  0  0  0
 22 43  1  0  0  0  0
 23 45  1  0  0  0  0
 24 25  1  0  0  0  0
 25 46  1  0  0  0  0
 25 47  1  0  0  0  0
 25 48  1  0  0  0  0
M  CHG  1   1   1
M  END
> <PUBCHEM_COMPOUND_CID>
133737

> <PUBCHEM_CONFORMER_RMSD>
1.2

> <PUBCHEM_CONFORMER_DIVERSEORDER>
1
121
87
84
95
81
122
112
42
29
60
70
101
105
76
55
115
78
89
43
51
119
25
27
54
28
113
46
118
104
107
65
58
96
57
86
26
99
47
33
72
63
41
62
40
102
88
34
66
106
56
10
117
24
103
97
77
32
44
124
91
71
75
37
100
21
85
52
123
69
53
74
109
125
79
114
45
19
120
39
61
35
16
50
94
83
82
92
73
116
13
20
90
80
93
108
2
64
30
68
15
59
8
5
38
49
18
22
3
31
111
17
7
98
14
9
6
12
36
23
48
67
4
11
110

> <PUBCHEM_EFFECTIVE_ROTOR_COUNT>
11

> <PUBCHEM_PHARMACOPHORE_FEATURES>
8
1 4 acceptor
1 5 acceptor
1 6 donor
1 7 acceptor
1 8 donor
1 9 acceptor
5 2 7 18 20 22 rings
5 3 9 19 21 23 rings

> <PUBCHEM_HEAVY_ATOM_COUNT>
25

> <PUBCHEM_ATOM_DEF_STEREO_COUNT>
0

> <PUBCHEM_ATOM_UDEF_STEREO_COUNT>
0

> <PUBCHEM_BOND_DEF_STEREO_COUNT>
0

> <PUBCHEM_BOND_UDEF_STEREO_COUNT>
0

> <PUBCHEM_ISOTOPIC_ATOM_COUNT>
0

> <PUBCHEM_COMPONENT_COUNT>
1

> <PUBCHEM_CACTVS_TAUTO_COUNT>
8

> <PUBCHEM_CONFORMER_ID>
00020A6900000001

> <PUBCHEM_MMFF94_ENERGY>
17.9261

> <PUBCHEM_FEATURE_SELFOVERLAP>
40.598

> <PUBCHEM_SHAPE_FINGERPRINT>
10391435 84 18334574672984767091
10674148 151 11024110932762310390
10838868 160 17986662878417908352
11374522 155 18263365957173488860
11476731 50 17487882622769775535
12107183 9 10663816348017358775
13773456 73 18336813213901834474
13914758 101 13840257070592452349
14168556 18 18268146633677323643
14202776 33 15625680327090158979
14251732 16 18413672409055719661
14251758 9 9871748005383777359
14461889 52 18408887351864038762
14767858 380 18041293109949452655
15003188 100 18273219690829693524
15183329 4 10592043557307557449
173720 79 17167580492661693154
18608769 82 18341890843923243025
20511986 3 17749946645061969631
21521721 280 18272939318836943907
22849341 161 14045733825256543755
23016692 55 10735876184259972576
23559900 14 18042422235577415142
24771293 8 18334579048813111316
3246875 12 18410572928848004792
34797466 226 17846224332227600350
437795 51 17846213392951289048
44317340 157 17775564230759522716
5109719 28 18340210786246701904
5312625 73 18342175552989325908
550186 72 18334575703292271581
57091435 61 18413387614781861480
67856867 119 17824539660598923306
6913067 236 16950286169906109671

> <PUBCHEM_SHAPE_MULTIPOLES>
494.37
20.11
3.49
1.29
0.39
0.38
-0.18
6.84
-2.52
-1.37
-0.21
-1.66
0.01
2.34

> <PUBCHEM_SHAPE_SELFOVERLAP>
966.378

> <PUBCHEM_SHAPE_VOLUME>
301.1

> <PUBCHEM_COORDINATE_TYPE>
2
5
10

$$$$
