133727
  -OEChem-03292013323D

 48 49  0     1  0  0  0  0  0999 V2000
   -9.0051    1.2562    0.4280 Br  0  0  0  0  0  0  0  0  0  0  0  0
    5.9965    2.4766    0.4005 S   0  0  0  0  0  0  0  0  0  0  0  0
    7.1645    3.0320   -0.5933 O   0  0  0  0  0  0  0  0  0  0  0  0
    6.6212    1.8078    1.5271 O   0  0  0  0  0  0  0  0  0  0  0  0
    5.0100    3.5243    0.5914 O   0  0  0  0  0  0  0  0  0  0  0  0
   -0.7302    1.7535   -0.8471 O   0  0  0  0  0  0  0  0  0  0  0  0
    2.7519   -1.4958   -0.1834 N   0  0  3  0  0  0  0  0  0  0  0  0
   -2.5617    0.1265    0.5182 N   0  0  0  0  0  0  0  0  0  0  0  0
   -3.2602   -0.2736   -0.4420 N   0  0  0  0  0  0  0  0  0  0  0  0
   -5.3779   -0.7466    0.4107 N   0  0  0  0  0  0  0  0  0  0  0  0
    3.7048   -0.6777   -0.8952 C   0  0  0  0  0  0  0  0  0  0  0  0
    4.2849    0.4008    0.0143 C   0  0  0  0  0  0  0  0  0  0  0  0
    3.1962   -2.7843    0.3506 C   0  0  0  0  0  0  0  0  0  0  0  0
    5.3284    1.2589   -0.6890 C   0  0  0  0  0  0  0  0  0  0  0  0
    1.4224   -1.0863   -0.0099 C   0  0  0  0  0  0  0  0  0  0  0  0
    2.8372   -3.9176   -0.6047 C   0  0  0  0  0  0  0  0  0  0  0  0
    0.9905    0.1441   -0.5170 C   0  0  0  0  0  0  0  0  0  0  0  0
    0.5157   -1.9044    0.6726 C   0  0  0  0  0  0  0  0  0  0  0  0
    3.3184   -5.2767   -0.1158 C   0  0  0  0  0  0  0  0  0  0  0  0
   -0.3322    0.5515   -0.3436 C   0  0  0  0  0  0  0  0  0  0  0  0
   -0.8070   -1.4970    0.8461 C   0  0  0  0  0  0  0  0  0  0  0  0
   -1.2310   -0.2691    0.3380 C   0  0  0  0  0  0  0  0  0  0  0  0
   -4.5960    0.1236   -0.2605 C   0  0  0  0  0  0  0  0  0  0  0  0
   -5.0244    1.3387   -0.7605 C   0  0  0  0  0  0  0  0  0  0  0  0
   -6.3548    1.6875   -0.5563 C   0  0  0  0  0  0  0  0  0  0  0  0
   -6.6650   -0.3733    0.5899 C   0  0  0  0  0  0  0  0  0  0  0  0
   -7.1974    0.8207    0.1309 C   0  0  0  0  0  0  0  0  0  0  0  0
    3.2850   -0.2520   -1.8143 H   0  0  0  0  0  0  0  0  0  0  0  0
    4.5325   -1.3064   -1.2509 H   0  0  0  0  0  0  0  0  0  0  0  0
    3.4935    1.0479    0.4093 H   0  0  0  0  0  0  0  0  0  0  0  0
    4.7375   -0.0779    0.8926 H   0  0  0  0  0  0  0  0  0  0  0  0
    2.8293   -2.9651    1.3676 H   0  0  0  0  0  0  0  0  0  0  0  0
    4.2888   -2.7657    0.4650 H   0  0  0  0  0  0  0  0  0  0  0  0
    6.1596    0.6346   -1.0328 H   0  0  0  0  0  0  0  0  0  0  0  0
    4.8951    1.7806   -1.5478 H   0  0  0  0  0  0  0  0  0  0  0  0
    1.7556   -3.9697   -0.7684 H   0  0  0  0  0  0  0  0  0  0  0  0
    3.2835   -3.7213   -1.5879 H   0  0  0  0  0  0  0  0  0  0  0  0
    1.6464    0.8218   -1.0540 H   0  0  0  0  0  0  0  0  0  0  0  0
    0.7771   -2.8702    1.0906 H   0  0  0  0  0  0  0  0  0  0  0  0
    4.4062   -5.2860    0.0055 H   0  0  0  0  0  0  0  0  0  0  0  0
    2.8621   -5.5281    0.8469 H   0  0  0  0  0  0  0  0  0  0  0  0
    3.0493   -6.0565   -0.8351 H   0  0  0  0  0  0  0  0  0  0  0  0
   -1.5002   -2.1432    1.3786 H   0  0  0  0  0  0  0  0  0  0  0  0
    7.9251    2.4210   -0.7375 H   0  0  0  0  0  0  0  0  0  0  0  0
   -1.6727    1.8752   -0.6384 H   0  0  0  0  0  0  0  0  0  0  0  0
   -4.3558    2.0045   -1.2953 H   0  0  0  0  0  0  0  0  0  0  0  0
   -6.7197    2.6371   -0.9385 H   0  0  0  0  0  0  0  0  0  0  0  0
   -7.2692   -1.0935    1.1332 H   0  0  0  0  0  0  0  0  0  0  0  0
  1 27  1  0  0  0  0
  2  3  1  0  0  0  0
  2  4  2  0  0  0  0
  2  5  2  0  0  0  0
  2 14  1  0  0  0  0
  3 44  1  0  0  0  0
  6 20  1  0  0  0  0
  6 45  1  0  0  0  0
  7 11  1  0  0  0  0
  7 13  1  0  0  0  0
  7 15  1  0  0  0  0
  8  9  2  0  0  0  0
  8 22  1  0  0  0  0
  9 23  1  0  0  0  0
 10 23  2  0  0  0  0
 10 26  1  0  0  0  0
 11 12  1  0  0  0  0
 11 28  1  0  0  0  0
 11 29  1  0  0  0  0
 12 14  1  0  0  0  0
 12 30  1  0  0  0  0
 12 31  1  0  0  0  0
 13 16  1  0  0  0  0
 13 32  1  0  0  0  0
 13 33  1  0  0  0  0
 14 34  1  0  0  0  0
 14 35  1  0  0  0  0
 15 17  2  0  0  0  0
 15 18  1  0  0  0  0
 16 19  1  0  0  0  0
 16 36  1  0  0  0  0
 16 37  1  0  0  0  0
 17 20  1  0  0  0  0
 17 38  1  0  0  0  0
 18 21  2  0  0  0  0
 18 39  1  0  0  0  0
 19 40  1  0  0  0  0
 19 41  1  0  0  0  0
 19 42  1  0  0  0  0
 20 22  2  0  0  0  0
 21 22  1  0  0  0  0
 21 43  1  0  0  0  0
 23 24  1  0  0  0  0
 24 25  2  0  0  0  0
 24 46  1  0  0  0  0
 25 27  1  0  0  0  0
 25 47  1  0  0  0  0
 26 27  2  0  0  0  0
 26 48  1  0  0  0  0
M  END
> <PUBCHEM_COMPOUND_CID>
133727

> <PUBCHEM_CONFORMER_RMSD>
1

> <PUBCHEM_CONFORMER_DIVERSEORDER>
1
45
89
50
97
46
94
101
79
36
29
83
99
69
75
73
64
15
27
110
10
25
90
109
93
105
76
107
48
58
81
26
14
59
35
2
66
82
108
71
5
62
72
8
60
102
54
47
51
23
30
43
100
80
42
68
84
106
16
91
4
104
55
3
28
86
22
21
95
85
63
7
61
52
37
77
13
41
49
98
33
56
103
34
57
6
18
32
92
39
88
74
24
31
19
53
12
96
67
44
70
9
40
78
38
11
17
87
20
65

> <PUBCHEM_MMFF94_PARTIAL_CHARGES>
32
1 -0.11
10 -0.62
11 0.37
13 0.37
14 0.11
15 0.1
17 -0.15
18 -0.15
2 1.38
20 0.08
21 -0.15
22 0.18
23 0.49
24 -0.15
25 -0.15
26 0.16
27 0.11
3 -0.68
38 0.15
39 0.15
4 -0.65
43 0.15
44 0.5
45 0.45
46 0.15
47 0.15
48 0.15
5 -0.65
6 -0.53
7 -0.84
8 -0.18
9 -0.18

> <PUBCHEM_EFFECTIVE_ROTOR_COUNT>
9

> <PUBCHEM_PHARMACOPHORE_FEATURES>
11
1 1 hydrophobe
1 19 hydrophobe
1 3 acceptor
1 4 acceptor
1 5 acceptor
1 6 donor
1 7 cation
3 9 10 23 cation
4 2 3 4 5 anion
6 10 23 24 25 26 27 rings
6 15 17 18 20 21 22 rings

> <PUBCHEM_HEAVY_ATOM_COUNT>
27

> <PUBCHEM_ATOM_DEF_STEREO_COUNT>
0

> <PUBCHEM_ATOM_UDEF_STEREO_COUNT>
0

> <PUBCHEM_BOND_DEF_STEREO_COUNT>
0

> <PUBCHEM_BOND_UDEF_STEREO_COUNT>
0

> <PUBCHEM_ISOTOPIC_ATOM_COUNT>
0

> <PUBCHEM_COMPONENT_COUNT>
1

> <PUBCHEM_CACTVS_TAUTO_COUNT>
3

> <PUBCHEM_CONFORMER_ID>
00020A5F00000001

> <PUBCHEM_MMFF94_ENERGY>
66.6131

> <PUBCHEM_FEATURE_SELFOVERLAP>
55.871

> <PUBCHEM_SHAPE_FINGERPRINT>
10 15 17894912953568901265
10050765 1 18193839232569482805
10411042 1 17906454321358236326
10595046 47 18342737399800744887
10666366 153 11095891441412050721
10835480 77 18408601444839703013
10906281 52 17968386748616150430
11181472 205 17701833085951986657
11211813 74 18412825764271755757
11297750 10 17753041701675390150
12236239 1 18270683053074525923
12730499 353 18410860953840135522
13073987 5 18338240358704661721
13533116 47 18270399378326025635
13955234 65 18338234860936033234
14461889 52 18114467850450154747
14849402 71 18341898511311149193
15276724 80 18268713823244066085
15890870 6 18339364175758613804
16120349 18 18411976962769637341
17980427 23 17459750522392656094
19427546 62 18409730686115381998
20157964 124 18411419488392862902
20554085 129 18201708596851593178
21130935 74 18337398141657109475
21267235 1 18116441341521875667
21521721 280 18411142420474539547
21703447 108 18116989984211532874
21792934 111 18113892719916714237
22149856 69 18262541233647395843
23081809 10 17846210000607509303
23522609 53 17631467700217085569
23559900 14 18114193999441535118
24771293 8 18188207705773744285
249999 5 18410290277552025578
255183 451 17842003187315631966
3004659 81 17896889755106184479
3411729 13 18260826003845025874
34797466 226 17988648462967158677
4073 2 18334299790582694859
4340502 62 18040714766521875682
445580 126 18341887507271977840
5104073 3 18113901503472806489
5109719 28 18265063585598025073
5758199 1 18334860532774829913
70251023 43 18047756992374460842

> <PUBCHEM_SHAPE_MULTIPOLES>
522.04
22.37
4.42
0.93
31.42
4.21
0.07
-18.31
2.09
-12.76
0.02
-0.41
-0.18
1.37

> <PUBCHEM_SHAPE_SELFOVERLAP>
1059.365

> <PUBCHEM_SHAPE_VOLUME>
309.1

> <PUBCHEM_COORDINATE_TYPE>
2
5
10

$$$$
