133751
  -OEChem-03292013323D

 36 36  0     1  0  0  0  0  0999 V2000
    2.0242    4.0116    0.4007 Cl  0  0  0  0  0  0  0  0  0  0  0  0
    5.4467   -0.3932   -1.4303 Cl  0  0  0  0  0  0  0  0  0  0  0  0
    0.7340   -0.6098    1.1060 P   0  0  1  0  0  0  0  0  0  0  0  0
    0.9236   -2.2281    1.0138 O   0  0  0  0  0  0  0  0  0  0  0  0
   -2.7689   -0.9253   -0.6257 O   0  0  0  0  0  0  0  0  0  0  0  0
    1.1010   -0.1266    2.4884 O   0  0  0  0  0  0  0  0  0  0  0  0
   -5.0901    0.1848    0.1845 O   0  0  0  0  0  0  0  0  0  0  0  0
    1.6673    0.0330   -0.1078 N   0  0  0  0  0  0  0  0  0  0  0  0
   -0.8599   -0.3611    0.6860 N   0  0  0  0  0  0  0  0  0  0  0  0
   -3.0120    0.4490   -0.7943 N   0  0  0  0  0  0  0  0  0  0  0  0
   -4.4007    2.2510   -0.5369 N   0  0  0  0  0  0  0  0  0  0  0  0
   -1.3676   -1.1137   -0.4615 C   0  0  1  0  0  0  0  0  0  0  0  0
   -1.0988   -2.6107   -0.2775 C   0  0  0  0  0  0  0  0  0  0  0  0
    0.3874   -2.9162   -0.1125 C   0  0  0  0  0  0  0  0  0  0  0  0
    1.5086    1.4621   -0.3687 C   0  0  0  0  0  0  0  0  0  0  0  0
    3.0870   -0.3131   -0.0952 C   0  0  0  0  0  0  0  0  0  0  0  0
    2.2289    2.2692    0.7003 C   0  0  0  0  0  0  0  0  0  0  0  0
    3.7213    0.0432   -1.4307 C   0  0  0  0  0  0  0  0  0  0  0  0
   -4.2318    0.8939   -0.3387 C   0  0  0  0  0  0  0  0  0  0  0  0
   -0.8646   -0.7773   -1.3776 H   0  0  0  0  0  0  0  0  0  0  0  0
   -1.6475   -2.9664    0.6049 H   0  0  0  0  0  0  0  0  0  0  0  0
   -1.5016   -3.1667   -1.1324 H   0  0  0  0  0  0  0  0  0  0  0  0
   -1.1785    0.6041    0.6261 H   0  0  0  0  0  0  0  0  0  0  0  0
    0.5335   -3.9884    0.0496 H   0  0  0  0  0  0  0  0  0  0  0  0
    0.9508   -2.6325   -1.0075 H   0  0  0  0  0  0  0  0  0  0  0  0
    1.8235    1.7413   -1.3791 H   0  0  0  0  0  0  0  0  0  0  0  0
    0.4435    1.7210   -0.3563 H   0  0  0  0  0  0  0  0  0  0  0  0
    3.6287    0.1042    0.7598 H   0  0  0  0  0  0  0  0  0  0  0  0
    3.1727   -1.4007    0.0242 H   0  0  0  0  0  0  0  0  0  0  0  0
    1.8391    2.0861    1.7028 H   0  0  0  0  0  0  0  0  0  0  0  0
    3.3098    2.1222    0.7090 H   0  0  0  0  0  0  0  0  0  0  0  0
    3.2442   -0.4886   -2.2600 H   0  0  0  0  0  0  0  0  0  0  0  0
    3.7193    1.1120   -1.6483 H   0  0  0  0  0  0  0  0  0  0  0  0
   -2.2812    1.0292   -1.1903 H   0  0  0  0  0  0  0  0  0  0  0  0
   -3.6793    2.8173   -0.9707 H   0  0  0  0  0  0  0  0  0  0  0  0
   -5.2526    2.7227   -0.2526 H   0  0  0  0  0  0  0  0  0  0  0  0
  1 17  1  0  0  0  0
  2 18  1  0  0  0  0
  3  4  1  0  0  0  0
  3  6  2  0  0  0  0
  3  8  1  0  0  0  0
  3  9  1  0  0  0  0
  4 14  1  0  0  0  0
  5 10  1  0  0  0  0
  5 12  1  0  0  0  0
  7 19  2  0  0  0  0
  8 15  1  0  0  0  0
  8 16  1  0  0  0  0
  9 12  1  0  0  0  0
  9 23  1  0  0  0  0
 10 19  1  0  0  0  0
 10 34  1  0  0  0  0
 11 19  1  0  0  0  0
 11 35  1  0  0  0  0
 11 36  1  0  0  0  0
 12 13  1  0  0  0  0
 12 20  1  0  0  0  0
 13 14  1  0  0  0  0
 13 21  1  0  0  0  0
 13 22  1  0  0  0  0
 14 24  1  0  0  0  0
 14 25  1  0  0  0  0
 15 17  1  0  0  0  0
 15 26  1  0  0  0  0
 15 27  1  0  0  0  0
 16 18  1  0  0  0  0
 16 28  1  0  0  0  0
 16 29  1  0  0  0  0
 17 30  1  0  0  0  0
 17 31  1  0  0  0  0
 18 32  1  0  0  0  0
 18 33  1  0  0  0  0
M  END
> <PUBCHEM_COMPOUND_CID>
133751

> <PUBCHEM_CONFORMER_RMSD>
1

> <PUBCHEM_CONFORMER_DIVERSEORDER>
1
143
655
202
22
186
200
461
34
273
601
714
84
29
27
599
256
215
61
515
43
33
107
607
55
530
106
169
521
73
506
513
47
491
418
21
314
134
99
230
126
516
112
674
79
38
168
94
497
5
510
507
364
54
627
113
338
361
170
362
155
15
3
122
288
39
460
321
157
405
276
81
413
18
390
116
563
36
679
10
164
56
8
343
12
115
192
14
232
673
52
4
268
145
35
404
87
580
9
262
67
214
32
259
386
41
204
260
78
357
50
582
492
444
2
28
477
433
103
658
45
440
546
71
445
17
304
11
340
282
86
602
211
68
53
197
567
176
42
415
569
254
377
40
553
370
482
527
258
175
16
696
140
156
417
537
347
473
7
58
665

> <PUBCHEM_MMFF94_PARTIAL_CHARGES>
22
1 -0.29
10 -0.39
11 -0.8
12 0.55
14 0.28
15 0.27
16 0.27
17 0.29
18 0.29
19 0.69
2 -0.29
23 0.36
3 1.51
34 0.37
35 0.37
36 0.37
4 -0.55
5 -0.32
6 -0.7
7 -0.57
8 -0.81
9 -0.9

> <PUBCHEM_EFFECTIVE_ROTOR_COUNT>
9

> <PUBCHEM_PHARMACOPHORE_FEATURES>
4
1 10 donor
1 11 donor
1 7 acceptor
6 3 4 9 12 13 14 rings

> <PUBCHEM_HEAVY_ATOM_COUNT>
19

> <PUBCHEM_ATOM_DEF_STEREO_COUNT>
0

> <PUBCHEM_ATOM_UDEF_STEREO_COUNT>
2

> <PUBCHEM_BOND_DEF_STEREO_COUNT>
0

> <PUBCHEM_BOND_UDEF_STEREO_COUNT>
0

> <PUBCHEM_ISOTOPIC_ATOM_COUNT>
0

> <PUBCHEM_COMPONENT_COUNT>
1

> <PUBCHEM_CACTVS_TAUTO_COUNT>
6

> <PUBCHEM_CONFORMER_ID>
00020A7700000001

> <PUBCHEM_MMFF94_ENERGY>
19.7675

> <PUBCHEM_FEATURE_SELFOVERLAP>
20.351

> <PUBCHEM_SHAPE_FINGERPRINT>
10366900 7 17967253096567827033
10610426 29 13110964184685291162
12173636 292 18194114355389588511
12788726 201 18267594499020915140
14123255 52 18337664308731657513
1601671 61 18336262323620565132
17134986 127 18410847785274863419
18186145 218 18272370905595100355
20465049 17 18411426107058610031
20600515 1 18198882825966569144
20671657 1 18336531742893458651
20671657 53 18058746796357138308
21524375 3 18187641414456922971
21864079 5 18338783598815895365
23557571 272 17395851428749182962
23558518 356 17828762077470655318
23559900 14 18060139886369336496
25 1 18333731295119410974
2637199 183 18334017185353910079
298252 57 18333456438887802666
3060560 45 18411974741490550934
3084891 8 18126292930692960974
347723 3 18272657805395431390
633830 44 18271798064801397669
7832392 63 18337385053920515292

> <PUBCHEM_SHAPE_MULTIPOLES>
355.2
8.59
3.55
1.36
4.14
2.14
-0.54
3.22
4.47
-0.8
-0.41
-1.02
-0.14
0.87

> <PUBCHEM_SHAPE_SELFOVERLAP>
660.942

> <PUBCHEM_SHAPE_VOLUME>
223.8

> <PUBCHEM_COORDINATE_TYPE>
2
5
10

$$$$
