133863
  -OEChem-03292013323D

 44 45  0     1  0  0  0  0  0999 V2000
   -2.8139   -0.4045    0.2495 S   0  0  0  0  0  0  0  0  0  0  0  0
    0.6341   -2.2365   -0.1087 O   0  0  0  0  0  0  0  0  0  0  0  0
   -2.1600    3.6562    1.1252 O   0  0  0  0  0  0  0  0  0  0  0  0
   -0.6020   -2.6983    2.1135 O   0  5  0  0  0  0  0  0  0  0  0  0
   -2.4192   -3.5065    0.9943 O   0  0  0  0  0  0  0  0  0  0  0  0
   -0.7064    0.0855   -1.0162 N   0  3  0  0  0  0  0  0  0  0  0  0
    3.9874    0.4593   -0.1007 N   0  0  0  0  0  0  0  0  0  0  0  0
    2.2876    0.9220    1.5436 N   0  0  0  0  0  0  0  0  0  0  0  0
    3.3783   -0.2153   -2.2912 N   0  0  0  0  0  0  0  0  0  0  0  0
   -1.3282   -0.8489   -0.3968 C   0  0  0  0  0  0  0  0  0  0  0  0
   -1.3959    1.2776   -1.0241 C   0  0  0  0  0  0  0  0  0  0  0  0
   -0.7935   -2.2730   -0.2320 C   0  0  1  0  0  0  0  0  0  0  0  0
   -2.5975    1.1883   -0.3627 C   0  0  0  0  0  0  0  0  0  0  0  0
    0.5827   -0.0795   -1.6493 C   0  0  0  0  0  0  0  0  0  0  0  0
   -3.6337    2.2158   -0.1359 C   0  0  0  0  0  0  0  0  0  0  0  0
   -0.7912    2.4319   -1.7055 C   0  0  0  0  0  0  0  0  0  0  0  0
    1.6741    0.2410   -0.6651 C   0  0  0  0  0  0  0  0  0  0  0  0
   -1.1014   -3.1073   -1.4734 C   0  0  0  0  0  0  0  0  0  0  0  0
   -1.3199   -2.8859    1.0909 C   0  0  0  0  0  0  0  0  0  0  0  0
   -3.4292    3.0162    1.1607 C   0  0  0  0  0  0  0  0  0  0  0  0
    3.0056    0.1730   -0.9806 C   0  0  0  0  0  0  0  0  0  0  0  0
    1.3580    0.6215    0.6131 C   0  0  0  0  0  0  0  0  0  0  0  0
    3.5637    0.8215    1.1253 C   0  0  0  0  0  0  0  0  0  0  0  0
    4.6203    1.1460    2.1260 C   0  0  0  0  0  0  0  0  0  0  0  0
    0.6642    0.5956   -2.5079 H   0  0  0  0  0  0  0  0  0  0  0  0
    0.7076   -1.0724   -2.0852 H   0  0  0  0  0  0  0  0  0  0  0  0
   -4.6323    1.7620   -0.1155 H   0  0  0  0  0  0  0  0  0  0  0  0
   -3.6373    2.9127   -0.9834 H   0  0  0  0  0  0  0  0  0  0  0  0
    0.1998    2.6713   -1.3101 H   0  0  0  0  0  0  0  0  0  0  0  0
   -0.7169    2.2588   -2.7839 H   0  0  0  0  0  0  0  0  0  0  0  0
   -1.3986    3.3338   -1.5829 H   0  0  0  0  0  0  0  0  0  0  0  0
   -0.6064   -2.7278   -2.3722 H   0  0  0  0  0  0  0  0  0  0  0  0
   -2.1770   -3.1464   -1.6795 H   0  0  0  0  0  0  0  0  0  0  0  0
   -0.7521   -4.1382   -1.3402 H   0  0  0  0  0  0  0  0  0  0  0  0
   -3.4537    2.3607    2.0370 H   0  0  0  0  0  0  0  0  0  0  0  0
   -4.2065    3.7778    1.2760 H   0  0  0  0  0  0  0  0  0  0  0  0
    0.9514   -3.1512   -0.0155 H   0  0  0  0  0  0  0  0  0  0  0  0
    0.3564    0.7227    1.0073 H   0  0  0  0  0  0  0  0  0  0  0  0
    4.3722   -0.2606   -2.4814 H   0  0  0  0  0  0  0  0  0  0  0  0
    2.7669    0.0192   -3.0628 H   0  0  0  0  0  0  0  0  0  0  0  0
   -2.1801    4.3021    0.3988 H   0  0  0  0  0  0  0  0  0  0  0  0
    4.3669    2.0658    2.6622 H   0  0  0  0  0  0  0  0  0  0  0  0
    4.7090    0.3296    2.8489 H   0  0  0  0  0  0  0  0  0  0  0  0
    5.5921    1.2901    1.6433 H   0  0  0  0  0  0  0  0  0  0  0  0
  1 10  1  0  0  0  0
  1 13  1  0  0  0  0
  2 12  1  0  0  0  0
  2 37  1  0  0  0  0
  3 20  1  0  0  0  0
  3 41  1  0  0  0  0
  4 19  1  0  0  0  0
  5 19  2  0  0  0  0
  6 10  2  0  0  0  0
  6 11  1  0  0  0  0
  6 14  1  0  0  0  0
  7 21  2  0  0  0  0
  7 23  1  0  0  0  0
  8 22  1  0  0  0  0
  8 23  2  0  0  0  0
  9 21  1  0  0  0  0
  9 39  1  0  0  0  0
  9 40  1  0  0  0  0
 10 12  1  0  0  0  0
 11 13  2  0  0  0  0
 11 16  1  0  0  0  0
 12 18  1  0  0  0  0
 12 19  1  0  0  0  0
 13 15  1  0  0  0  0
 14 17  1  0  0  0  0
 14 25  1  0  0  0  0
 14 26  1  0  0  0  0
 15 20  1  0  0  0  0
 15 27  1  0  0  0  0
 15 28  1  0  0  0  0
 16 29  1  0  0  0  0
 16 30  1  0  0  0  0
 16 31  1  0  0  0  0
 17 21  1  0  0  0  0
 17 22  2  0  0  0  0
 18 32  1  0  0  0  0
 18 33  1  0  0  0  0
 18 34  1  0  0  0  0
 20 35  1  0  0  0  0
 20 36  1  0  0  0  0
 22 38  1  0  0  0  0
 23 24  1  0  0  0  0
 24 42  1  0  0  0  0
 24 43  1  0  0  0  0
 24 44  1  0  0  0  0
M  CHG  2   4  -1   6   1
M  END
> <PUBCHEM_COMPOUND_CID>
133863

> <PUBCHEM_CONFORMER_RMSD>
0.8

> <PUBCHEM_CONFORMER_DIVERSEORDER>
11
9
42
17
30
7
32
44
18
37
28
20
47
4
39
26
15
45
40
41
29
10
8
21
6
27
46
3
25
36
35
14
48
38
31
2
5
34
19
24
12
43
1
23
33
22
16
13

> <PUBCHEM_MMFF94_PARTIAL_CHARGES>
28
1 -0.08
10 0.19
11 0.15
12 0.35
13 -0.14
14 0.66
15 0.18
16 0.18
17 -0.14
19 0.91
2 -0.68
20 0.28
21 0.41
22 0.16
23 0.48
24 0.14
3 -0.68
37 0.4
38 0.15
39 0.4
4 -0.9
40 0.4
41 0.4
5 -0.9
6 -0.18
7 -0.62
8 -0.62
9 -0.9

> <PUBCHEM_EFFECTIVE_ROTOR_COUNT>
6

> <PUBCHEM_PHARMACOPHORE_FEATURES>
12
1 2 acceptor
1 2 donor
1 3 acceptor
1 3 donor
1 4 acceptor
1 5 acceptor
1 9 donor
3 4 5 19 anion
3 7 8 23 cation
3 7 9 21 cation
5 1 6 10 11 13 rings
6 7 8 17 21 22 23 rings

> <PUBCHEM_HEAVY_ATOM_COUNT>
24

> <PUBCHEM_ATOM_DEF_STEREO_COUNT>
0

> <PUBCHEM_ATOM_UDEF_STEREO_COUNT>
1

> <PUBCHEM_BOND_DEF_STEREO_COUNT>
0

> <PUBCHEM_BOND_UDEF_STEREO_COUNT>
0

> <PUBCHEM_ISOTOPIC_ATOM_COUNT>
0

> <PUBCHEM_COMPONENT_COUNT>
1

> <PUBCHEM_CACTVS_TAUTO_COUNT>
3

> <PUBCHEM_CONFORMER_ID>
00020AE70000000B

> <PUBCHEM_MMFF94_ENERGY>
73.6208

> <PUBCHEM_FEATURE_SELFOVERLAP>
61.1

> <PUBCHEM_SHAPE_FINGERPRINT>
10165383 225 18050873033996992732
11578080 2 18057066751127473236
11646440 116 18267316498915964091
12160290 23 18335982059982907591
12549972 3 18201728327768105930
12553582 1 17758685829298721830
12716301 132 18337124439758470294
12788726 201 18044952408836595995
13140716 1 18048322442320023315
133893 2 17539107481842466807
13681431 1 9934332194161896863
14178342 30 18335132129184380338
14468879 13 17560218328276056680
14787075 74 18129084767078932269
15295992 7 18131073675869514172
15309172 13 18188215286470064765
16945 1 18341609373383989663
19049666 15 18202009806744176894
20600515 1 17902218245903894407
20832881 197 17554621590884103454
21524375 3 18266455408615632287
21731228 192 18336540508742023873
22112679 90 17604146038387962172
22956985 138 17391069240711505955
23419403 2 16825656406718145883
23557571 272 18339928241970599932
23559900 14 18341337717519968030
2748010 2 17972341546208031783
3493558 16 16700622427441674691
35225 105 18192965262653793609
427121 178 18266754484494935313
495365 180 17757830027379803565
5265222 85 18267040487195631198
57527295 17 17701552696720722526
58807428 26 18115305558082700539
6442390 28 18268164080013691657
7364860 26 17693941795850449991
81228 2 18263354948912592575
84936 182 17840030637204912865
9981440 41 17416376906026814416

> <PUBCHEM_SHAPE_MULTIPOLES>
454.36
6.49
4.1
1.98
5.81
1.67
-0.02
-4.7
-2.29
-4.96
-1.44
1.25
0.04
0.67

> <PUBCHEM_SHAPE_SELFOVERLAP>
953.607

> <PUBCHEM_SHAPE_VOLUME>
259.1

> <PUBCHEM_COORDINATE_TYPE>
2
5
10

$$$$
