133868
  -OEChem-03292013323D

 75 78  0     1  0  0  0  0  0999 V2000
   -1.5112   -0.1683    2.7261 O   0  0  0  0  0  0  0  0  0  0  0  0
   -2.7488   -0.9134    0.4349 O   0  0  0  0  0  0  0  0  0  0  0  0
   -4.4604    0.6701    0.3515 O   0  0  0  0  0  0  0  0  0  0  0  0
   -4.5280   -2.8584   -0.5943 O   0  0  0  0  0  0  0  0  0  0  0  0
    8.0121   -1.3705    0.9223 O   0  0  0  0  0  0  0  0  0  0  0  0
   -7.3304   -2.2556    0.0868 O   0  0  0  0  0  0  0  0  0  0  0  0
   -7.9831    0.4676   -0.6300 O   0  0  0  0  0  0  0  0  0  0  0  0
    6.5817   -1.9353   -0.7872 O   0  0  0  0  0  0  0  0  0  0  0  0
   -4.9559    3.3530    0.0160 O   0  0  0  0  0  0  0  0  0  0  0  0
    1.4714    1.1098   -0.1513 C   0  0  2  0  0  0  0  0  0  0  0  0
    0.9534   -0.3794   -0.1867 C   0  0  1  0  0  0  0  0  0  0  0  0
   -0.3780   -0.6709    0.6069 C   0  0  1  0  0  0  0  0  0  0  0  0
    2.9190    1.1835   -0.7857 C   0  0  2  0  0  0  0  0  0  0  0  0
    1.4914    1.6057    1.3162 C   0  0  0  0  0  0  0  0  0  0  0  0
   -0.2687   -0.0526    2.0329 C   0  0  1  0  0  0  0  0  0  0  0  0
    0.9771   -0.9455   -1.6272 C   0  0  0  0  0  0  0  0  0  0  0  0
    0.1630    1.4122    2.0406 C   0  0  0  0  0  0  0  0  0  0  0  0
    0.5873    2.0894   -0.9757 C   0  0  0  0  0  0  0  0  0  0  0  0
    2.3630   -0.8351   -2.2694 C   0  0  0  0  0  0  0  0  0  0  0  0
    2.9170    0.5606   -2.1734 C   0  0  0  0  0  0  0  0  0  0  0  0
   -1.6612   -0.1999   -0.1102 C   0  0  0  0  0  0  0  0  0  0  0  0
   -0.5399   -2.2076    0.7875 C   0  0  0  0  0  0  0  0  0  0  0  0
    4.0476    0.5557    0.0479 C   0  0  0  0  0  0  0  0  0  0  0  0
    5.4048    0.8341   -0.5814 C   0  0  0  0  0  0  0  0  0  0  0  0
    3.3570    1.2239   -3.2540 C   0  0  0  0  0  0  0  0  0  0  0  0
   -3.9838   -0.5607   -0.1876 C   0  0  2  0  0  0  0  0  0  0  0  0
    6.5083    0.2326    0.2224 C   0  0  0  0  0  0  0  0  0  0  0  0
   -4.9838   -1.6858    0.0797 C   0  0  1  0  0  0  0  0  0  0  0  0
   -6.3798   -1.3204   -0.4251 C   0  0  2  0  0  0  0  0  0  0  0  0
   -5.6855    1.0936   -0.2492 C   0  0  1  0  0  0  0  0  0  0  0  0
   -6.7901    0.0756    0.0440 C   0  0  1  0  0  0  0  0  0  0  0  0
    7.2307    0.7598    1.2073 C   0  0  0  0  0  0  0  0  0  0  0  0
    7.0026   -1.1371    0.0323 C   0  0  0  0  0  0  0  0  0  0  0  0
    8.2233   -0.2013    1.7187 C   0  0  0  0  0  0  0  0  0  0  0  0
   -6.0222    2.4704    0.3144 C   0  0  0  0  0  0  0  0  0  0  0  0
    1.7157   -0.9572    0.3586 H   0  0  0  0  0  0  0  0  0  0  0  0
    3.1683    2.2518   -0.8763 H   0  0  0  0  0  0  0  0  0  0  0  0
    2.2346    1.0542    1.9006 H   0  0  0  0  0  0  0  0  0  0  0  0
    1.7813    2.6627    1.3579 H   0  0  0  0  0  0  0  0  0  0  0  0
    0.4673   -0.6285    2.6099 H   0  0  0  0  0  0  0  0  0  0  0  0
    0.6938   -2.0031   -1.6291 H   0  0  0  0  0  0  0  0  0  0  0  0
    0.2509   -0.4297   -2.2639 H   0  0  0  0  0  0  0  0  0  0  0  0
    0.2700    1.7492    3.0800 H   0  0  0  0  0  0  0  0  0  0  0  0
   -0.6212    2.0516    1.6220 H   0  0  0  0  0  0  0  0  0  0  0  0
    1.0409    3.0881   -1.0004 H   0  0  0  0  0  0  0  0  0  0  0  0
   -0.4081    2.2262   -0.5561 H   0  0  0  0  0  0  0  0  0  0  0  0
    0.4576    1.7723   -2.0140 H   0  0  0  0  0  0  0  0  0  0  0  0
    3.0515   -1.5308   -1.7747 H   0  0  0  0  0  0  0  0  0  0  0  0
    2.2949   -1.1636   -3.3136 H   0  0  0  0  0  0  0  0  0  0  0  0
   -1.6098   -0.4122   -1.1818 H   0  0  0  0  0  0  0  0  0  0  0  0
   -1.8349    0.8693    0.0230 H   0  0  0  0  0  0  0  0  0  0  0  0
    0.3977   -2.6578    1.1348 H   0  0  0  0  0  0  0  0  0  0  0  0
   -0.8125   -2.7043   -0.1501 H   0  0  0  0  0  0  0  0  0  0  0  0
   -1.2977   -2.4722    1.5341 H   0  0  0  0  0  0  0  0  0  0  0  0
    4.0655    0.9912    1.0520 H   0  0  0  0  0  0  0  0  0  0  0  0
    3.9034   -0.5231    0.1761 H   0  0  0  0  0  0  0  0  0  0  0  0
   -1.3826    0.1852    3.6227 H   0  0  0  0  0  0  0  0  0  0  0  0
    5.4772    0.4363   -1.5987 H   0  0  0  0  0  0  0  0  0  0  0  0
    5.5642    1.9172   -0.6595 H   0  0  0  0  0  0  0  0  0  0  0  0
    3.3406    0.7711   -4.2396 H   0  0  0  0  0  0  0  0  0  0  0  0
    3.7448    2.2341   -3.1766 H   0  0  0  0  0  0  0  0  0  0  0  0
   -3.8258   -0.4555   -1.2701 H   0  0  0  0  0  0  0  0  0  0  0  0
   -5.0126   -1.9268    1.1490 H   0  0  0  0  0  0  0  0  0  0  0  0
   -6.4340   -1.3972   -1.5173 H   0  0  0  0  0  0  0  0  0  0  0  0
   -5.5245    1.2005   -1.3307 H   0  0  0  0  0  0  0  0  0  0  0  0
   -7.0136    0.0528    1.1177 H   0  0  0  0  0  0  0  0  0  0  0  0
    7.1095    1.7637    1.5880 H   0  0  0  0  0  0  0  0  0  0  0  0
    9.2488    0.1512    1.5773 H   0  0  0  0  0  0  0  0  0  0  0  0
    8.0552   -0.4462    2.7711 H   0  0  0  0  0  0  0  0  0  0  0  0
   -4.4923   -2.6645   -1.5465 H   0  0  0  0  0  0  0  0  0  0  0  0
   -6.9419    2.8699   -0.1234 H   0  0  0  0  0  0  0  0  0  0  0  0
   -6.1269    2.4309    1.4038 H   0  0  0  0  0  0  0  0  0  0  0  0
   -7.2935   -2.2236    1.0580 H   0  0  0  0  0  0  0  0  0  0  0  0
   -7.7916    0.5044   -1.5827 H   0  0  0  0  0  0  0  0  0  0  0  0
   -5.1890    4.2208    0.3875 H   0  0  0  0  0  0  0  0  0  0  0  0
  1 15  1  0  0  0  0
  1 57  1  0  0  0  0
  2 21  1  0  0  0  0
  2 26  1  0  0  0  0
  3 26  1  0  0  0  0
  3 30  1  0  0  0  0
  4 28  1  0  0  0  0
  4 70  1  0  0  0  0
  5 33  1  0  0  0  0
  5 34  1  0  0  0  0
  6 29  1  0  0  0  0
  6 73  1  0  0  0  0
  7 31  1  0  0  0  0
  7 74  1  0  0  0  0
  8 33  2  0  0  0  0
  9 35  1  0  0  0  0
  9 75  1  0  0  0  0
 10 11  1  0  0  0  0
 10 13  1  0  0  0  0
 10 14  1  0  0  0  0
 10 18  1  0  0  0  0
 11 12  1  0  0  0  0
 11 16  1  0  0  0  0
 11 36  1  0  0  0  0
 12 15  1  0  0  0  0
 12 21  1  0  0  0  0
 12 22  1  0  0  0  0
 13 20  1  0  0  0  0
 13 23  1  0  0  0  0
 13 37  1  0  0  0  0
 14 17  1  0  0  0  0
 14 38  1  0  0  0  0
 14 39  1  0  0  0  0
 15 17  1  0  0  0  0
 15 40  1  0  0  0  0
 16 19  1  0  0  0  0
 16 41  1  0  0  0  0
 16 42  1  0  0  0  0
 17 43  1  0  0  0  0
 17 44  1  0  0  0  0
 18 45  1  0  0  0  0
 18 46  1  0  0  0  0
 18 47  1  0  0  0  0
 19 20  1  0  0  0  0
 19 48  1  0  0  0  0
 19 49  1  0  0  0  0
 20 25  2  0  0  0  0
 21 50  1  0  0  0  0
 21 51  1  0  0  0  0
 22 52  1  0  0  0  0
 22 53  1  0  0  0  0
 22 54  1  0  0  0  0
 23 24  1  0  0  0  0
 23 55  1  0  0  0  0
 23 56  1  0  0  0  0
 24 27  1  0  0  0  0
 24 58  1  0  0  0  0
 24 59  1  0  0  0  0
 25 60  1  0  0  0  0
 25 61  1  0  0  0  0
 26 28  1  0  0  0  0
 26 62  1  0  0  0  0
 27 32  2  0  0  0  0
 27 33  1  0  0  0  0
 28 29  1  0  0  0  0
 28 63  1  0  0  0  0
 29 31  1  0  0  0  0
 29 64  1  0  0  0  0
 30 31  1  0  0  0  0
 30 35  1  0  0  0  0
 30 65  1  0  0  0  0
 31 66  1  0  0  0  0
 32 34  1  0  0  0  0
 32 67  1  0  0  0  0
 34 68  1  0  0  0  0
 34 69  1  0  0  0  0
 35 71  1  0  0  0  0
 35 72  1  0  0  0  0
M  END
> <PUBCHEM_COMPOUND_CID>
133868

> <PUBCHEM_CONFORMER_RMSD>
1

> <PUBCHEM_CONFORMER_DIVERSEORDER>
1
76
112
78
176
15
11
58
124
97
45
85
151
115
80
25
14
59
57
114
96
148
52
29
128
152
41
160
121
95
109
183
70
30
108
18
63
181
99
113
98
89
116
92
62
155
174
47
86
75
8
93
169
65
130
54
19
177
61
102
36
131
168
43
162
173
120
84
178
150
39
133
147
20
77
157
111
134
82
13
44
68
34
135
103
146
145
104
144
16
158
2
48
172
72
12
90
53
153
22
38
46
31
51
35
60
132
180
125
175
100
142
32
79
87
56
106
141
123
73
137
21
164
88
6
28
64
179
119
117
165
91
136
55
71
107
126
127
74
67
40
118
81
149
182
50
83
105
49
129
17
140
42
159
33
161
167
9
139
23
3
171
138
101
143
24
110
7
26
5
122
66
170
166
10
37
27
156
4
69
94
163
154

> <PUBCHEM_MMFF94_PARTIAL_CHARGES>
34
1 -0.68
13 0.14
15 0.28
19 0.14
2 -0.56
20 -0.28
21 0.28
24 0.14
25 -0.3
26 0.56
27 -0.12
28 0.28
29 0.28
3 -0.56
30 0.28
31 0.28
32 -0.29
33 0.71
34 0.42
35 0.28
4 -0.68
5 -0.43
57 0.4
6 -0.68
60 0.15
61 0.15
67 0.15
7 -0.68
70 0.4
73 0.4
74 0.4
75 0.4
8 -0.57
9 -0.68

> <PUBCHEM_EFFECTIVE_ROTOR_COUNT>
10

> <PUBCHEM_PHARMACOPHORE_FEATURES>
17
1 1 acceptor
1 1 donor
1 2 acceptor
1 3 acceptor
1 4 acceptor
1 4 donor
1 6 acceptor
1 6 donor
1 7 acceptor
1 7 donor
1 8 acceptor
1 9 acceptor
1 9 donor
5 5 27 32 33 34 rings
6 10 11 12 14 15 17 rings
6 10 11 13 16 19 20 rings
6 3 26 28 29 30 31 rings

> <PUBCHEM_HEAVY_ATOM_COUNT>
35

> <PUBCHEM_ATOM_DEF_STEREO_COUNT>
9

> <PUBCHEM_ATOM_UDEF_STEREO_COUNT>
1

> <PUBCHEM_BOND_DEF_STEREO_COUNT>
0

> <PUBCHEM_BOND_UDEF_STEREO_COUNT>
0

> <PUBCHEM_ISOTOPIC_ATOM_COUNT>
0

> <PUBCHEM_COMPONENT_COUNT>
1

> <PUBCHEM_CACTVS_TAUTO_COUNT>
1

> <PUBCHEM_CONFORMER_ID>
00020AEC00000001

> <PUBCHEM_MMFF94_ENERGY>
103.8661

> <PUBCHEM_FEATURE_SELFOVERLAP>
86.36

> <PUBCHEM_SHAPE_FINGERPRINT>
10 15 17203888591836211724
10076449 9 15430034336788765766
10670039 82 18335695045284556377
10930396 42 17845350259950458642
11578080 2 14979135556807836370
11672396 43 17168718556232780595
11719270 70 17775289365653513934
11828422 8 17464272886595870252
11991303 11 13695880250046571240
12120059 20 15338833217985789223
12857493 111 17060337422533765016
12977781 61 17983017743994465596
13782708 43 18198070381205108875
13811026 1 18273496745689041862
13914758 101 18408042888352625304
14068700 675 18040432184055811964
14347424 109 18113897191874500892
15021287 119 17095245812845305253
15183329 4 17168141243686538362
15328829 1 17821723927416071001
15475509 8 15936405646352830318
15840311 113 17240484744881002172
15849732 13 18408318900194557038
20105231 36 13118002184231515361
21223535 225 16878218658936648397
21703447 108 16772411521382919406
22224240 67 14908178673109764414
23569917 315 17095530638413978771
23569943 247 16589128469245115282
24893992 56 17095529513669888537
249057 25 18113910380769637869
249057 3 16081369682995850058
2838139 119 17313108566391353301
3009799 131 17703791422696272960
4339292 15 17631441428282385807
4340502 62 15769783463809418062
4461854 278 8141503766150910705
46194498 28 17916592076189924701
59755656 520 17023183868638567435
6004065 56 16128370514916785896
6523845 18 14779266427594226371

> <PUBCHEM_SHAPE_MULTIPOLES>
667.46
22.49
2.39
2.07
1.85
0.25
-0.54
-4.23
2.95
-3.31
-0.12
2.82
0.43
-0.71

> <PUBCHEM_SHAPE_SELFOVERLAP>
1398.214

> <PUBCHEM_SHAPE_VOLUME>
374.3

> <PUBCHEM_COORDINATE_TYPE>
2
5
10

$$$$
