133890
  -OEChem-03292013323D

 49 51  0     1  0  0  0  0  0999 V2000
    3.6134   -0.5388    0.0861 O   0  0  0  0  0  0  0  0  0  0  0  0
    5.0161    3.3073    0.4215 O   0  0  0  0  0  0  0  0  0  0  0  0
    6.8662    1.1246   -0.0900 O   0  0  0  0  0  0  0  0  0  0  0  0
    2.4471    2.7745   -0.9161 O   0  0  0  0  0  0  0  0  0  0  0  0
    1.4377    0.2070   -0.3047 O   0  0  0  0  0  0  0  0  0  0  0  0
    6.9687   -1.5285    0.3857 O   0  0  0  0  0  0  0  0  0  0  0  0
    5.0231   -2.2896    1.2975 O   0  0  0  0  0  0  0  0  0  0  0  0
    1.5747   -1.9172   -1.1812 O   0  0  0  0  0  0  0  0  0  0  0  0
   -4.4849   -1.4056    0.6708 O   0  0  0  0  0  0  0  0  0  0  0  0
   -6.6798    0.4169    0.0900 N   0  0  0  0  0  0  0  0  0  0  0  0
   -6.7226    2.5544   -0.4423 N   0  0  0  0  0  0  0  0  0  0  0  0
    4.6749    2.1068   -0.2732 C   0  0  1  0  0  0  0  0  0  0  0  0
    5.5073    0.9671    0.3150 C   0  0  1  0  0  0  0  0  0  0  0  0
    3.1772    1.8384   -0.1235 C   0  0  2  0  0  0  0  0  0  0  0  0
    5.0024   -0.3822   -0.1809 C   0  0  1  0  0  0  0  0  0  0  0  0
    2.8176    0.4287   -0.5937 C   0  0  1  0  0  0  0  0  0  0  0  0
    5.6282   -1.5024    0.5852 C   0  0  0  0  0  0  0  0  0  0  0  0
    0.9476   -1.0123   -0.6526 C   0  0  0  0  0  0  0  0  0  0  0  0
   -0.4915   -1.1154   -0.3023 C   0  0  0  0  0  0  0  0  0  0  0  0
   -1.3081   -1.9209   -1.0693 C   0  0  0  0  0  0  0  0  0  0  0  0
   -0.9681   -0.4033    0.7795 C   0  0  0  0  0  0  0  0  0  0  0  0
   -3.1661   -1.3089    0.3486 C   0  0  0  0  0  0  0  0  0  0  0  0
   -2.6602   -2.0188   -0.7403 C   0  0  0  0  0  0  0  0  0  0  0  0
   -2.3201   -0.5013    1.1085 C   0  0  0  0  0  0  0  0  0  0  0  0
   -6.7507   -1.0341   -0.0687 C   0  0  0  0  0  0  0  0  0  0  0  0
   -5.3981   -1.6517   -0.3975 C   0  0  0  0  0  0  0  0  0  0  0  0
   -6.4384    1.0740    1.2504 C   0  0  0  0  0  0  0  0  0  0  0  0
   -6.8447    1.3283   -0.9006 C   0  0  0  0  0  0  0  0  0  0  0  0
   -6.4688    2.4029    0.8980 C   0  0  0  0  0  0  0  0  0  0  0  0
    4.9262    2.2772   -1.3275 H   0  0  0  0  0  0  0  0  0  0  0  0
    5.4875    1.0181    1.4107 H   0  0  0  0  0  0  0  0  0  0  0  0
    2.8640    1.9853    0.9177 H   0  0  0  0  0  0  0  0  0  0  0  0
    5.1943   -0.5492   -1.2480 H   0  0  0  0  0  0  0  0  0  0  0  0
    2.9565    0.3401   -1.6801 H   0  0  0  0  0  0  0  0  0  0  0  0
    5.9731    3.4437    0.3141 H   0  0  0  0  0  0  0  0  0  0  0  0
    6.8983    1.0811   -1.0610 H   0  0  0  0  0  0  0  0  0  0  0  0
    2.7038    3.6655   -0.6228 H   0  0  0  0  0  0  0  0  0  0  0  0
    7.3989   -2.2568    0.8824 H   0  0  0  0  0  0  0  0  0  0  0  0
   -0.9249   -2.4805   -1.9175 H   0  0  0  0  0  0  0  0  0  0  0  0
   -0.3281    0.2215    1.3951 H   0  0  0  0  0  0  0  0  0  0  0  0
   -7.1394   -1.4324    0.8758 H   0  0  0  0  0  0  0  0  0  0  0  0
   -7.4808   -1.2437   -0.8579 H   0  0  0  0  0  0  0  0  0  0  0  0
   -3.2778   -2.6803   -1.3404 H   0  0  0  0  0  0  0  0  0  0  0  0
   -2.7087    0.0518    1.9594 H   0  0  0  0  0  0  0  0  0  0  0  0
   -5.0464   -1.2116   -1.3401 H   0  0  0  0  0  0  0  0  0  0  0  0
   -5.5137   -2.7340   -0.5237 H   0  0  0  0  0  0  0  0  0  0  0  0
   -6.2701    0.5735    2.1938 H   0  0  0  0  0  0  0  0  0  0  0  0
   -7.0480    1.0572   -1.9276 H   0  0  0  0  0  0  0  0  0  0  0  0
   -6.3205    3.2580    1.5411 H   0  0  0  0  0  0  0  0  0  0  0  0
  1 15  1  0  0  0  0
  1 16  1  0  0  0  0
  2 12  1  0  0  0  0
  2 35  1  0  0  0  0
  3 13  1  0  0  0  0
  3 36  1  0  0  0  0
  4 14  1  0  0  0  0
  4 37  1  0  0  0  0
  5 16  1  0  0  0  0
  5 18  1  0  0  0  0
  6 17  1  0  0  0  0
  6 38  1  0  0  0  0
  7 17  2  0  0  0  0
  8 18  2  0  0  0  0
  9 22  1  0  0  0  0
  9 26  1  0  0  0  0
 10 25  1  0  0  0  0
 10 27  1  0  0  0  0
 10 28  1  0  0  0  0
 11 28  2  0  0  0  0
 11 29  1  0  0  0  0
 12 13  1  0  0  0  0
 12 14  1  0  0  0  0
 12 30  1  0  0  0  0
 13 15  1  0  0  0  0
 13 31  1  0  0  0  0
 14 16  1  0  0  0  0
 14 32  1  0  0  0  0
 15 17  1  0  0  0  0
 15 33  1  0  0  0  0
 16 34  1  0  0  0  0
 18 19  1  0  0  0  0
 19 20  2  0  0  0  0
 19 21  1  0  0  0  0
 20 23  1  0  0  0  0
 20 39  1  0  0  0  0
 21 24  2  0  0  0  0
 21 40  1  0  0  0  0
 22 23  2  0  0  0  0
 22 24  1  0  0  0  0
 23 43  1  0  0  0  0
 24 44  1  0  0  0  0
 25 26  1  0  0  0  0
 25 41  1  0  0  0  0
 25 42  1  0  0  0  0
 26 45  1  0  0  0  0
 26 46  1  0  0  0  0
 27 29  2  0  0  0  0
 27 47  1  0  0  0  0
 28 48  1  0  0  0  0
 29 49  1  0  0  0  0
M  END
> <PUBCHEM_COMPOUND_CID>
133890

> <PUBCHEM_CONFORMER_RMSD>
1

> <PUBCHEM_CONFORMER_DIVERSEORDER>
1
109
111
113
43
110
25
117
55
60
71
83
2
102
12
42
91
30
32
27
93
116
66
85
101
20
96
99
41
59
48
22
61
76
51
33
97
68
72
74
40
34
79
31
18
69
84
8
80
5
104
98
11
36
82
28
118
112
63
13
78
39
14
7
94
107
17
108
15
100
19
114
115
64
16
92
54
105
29
89
44
65
21
24
119
62
52
23
49
77
45
10
70
35
90
88
50
47
46
87
95
9
75
53
26
103
81
58
38
6
56
86
67
106
37
57
4
73
3

> <PUBCHEM_MMFF94_PARTIAL_CHARGES>
40
1 -0.56
10 0.05
11 -0.57
12 0.28
13 0.28
14 0.28
15 0.34
16 0.56
17 0.66
18 0.63
19 0.09
2 -0.68
20 -0.15
21 -0.15
22 0.08
23 -0.15
24 -0.15
25 0.26
26 0.28
27 -0.3
28 0.04
29 0.08
3 -0.68
35 0.4
36 0.4
37 0.4
38 0.5
39 0.15
4 -0.68
40 0.15
43 0.15
44 0.15
47 0.15
48 0.15
49 0.15
5 -0.43
6 -0.65
7 -0.57
8 -0.57
9 -0.36

> <PUBCHEM_EFFECTIVE_ROTOR_COUNT>
9.2

> <PUBCHEM_PHARMACOPHORE_FEATURES>
16
1 1 acceptor
1 2 acceptor
1 2 donor
1 3 acceptor
1 3 donor
1 4 acceptor
1 4 donor
1 6 acceptor
1 7 acceptor
1 8 acceptor
1 9 acceptor
3 10 11 28 cation
3 6 7 17 anion
5 10 11 27 28 29 rings
6 1 12 13 14 15 16 rings
6 19 20 21 22 23 24 rings

> <PUBCHEM_HEAVY_ATOM_COUNT>
29

> <PUBCHEM_ATOM_DEF_STEREO_COUNT>
5

> <PUBCHEM_ATOM_UDEF_STEREO_COUNT>
0

> <PUBCHEM_BOND_DEF_STEREO_COUNT>
0

> <PUBCHEM_BOND_UDEF_STEREO_COUNT>
0

> <PUBCHEM_ISOTOPIC_ATOM_COUNT>
0

> <PUBCHEM_COMPONENT_COUNT>
1

> <PUBCHEM_CACTVS_TAUTO_COUNT>
1

> <PUBCHEM_CONFORMER_ID>
00020B0200000001

> <PUBCHEM_MMFF94_ENERGY>
71.0457

> <PUBCHEM_FEATURE_SELFOVERLAP>
81.291

> <PUBCHEM_SHAPE_FINGERPRINT>
100830 39 18410575081228324953
10209105 3 18123753046734867310
10554248 39 17917996053115576246
11456790 92 18186515493502200954
11719270 70 17917712387679924230
12107183 9 18410852136198605890
12236239 1 18342175608850729098
12422481 6 18040718078332181661
13167372 99 18411982464042059581
13533116 47 18259699013169802098
13782708 43 10519990339983683501
13785724 45 18124035620590059854
13914758 101 18410293601175776043
14251752 14 18272368672618320747
14347424 109 18408316684344503202
15183329 4 18343023294124775329
15419008 145 18263355915138251017
15604295 49 18128813230688726064
19302320 297 18337403669053445257
20281389 69 18408044018203258961
20511986 3 17988075724936302256
20715895 44 18343587321692832317
21130935 74 18259984885560404651
21298829 104 18339924917449790668
21315763 28 18410292540989065559
21774942 28 17632024031088118905
21792964 463 18042703851687154100
21859007 373 18336264531486963573
22122407 14 18338244859229021241
23569943 247 16879047686303952067
2748736 6 18130788932723638177
2838139 119 18411417294202709997
312425 54 17530684329167733011
4073 2 17896604079751282922
4144715 1 18261121823965350707
4169191 19 18411700989345060373
44555599 121 18410857672158028301
5104073 3 18260835912450862795
57724786 102 17604717814383522292
6299153 45 18337955593318519235
6371009 1 18131073692928733873
999808 66 8718828700227758993

> <PUBCHEM_SHAPE_MULTIPOLES>
534.02
22.19
3.08
1.04
10.26
1.73
-0.08
8.59
-2.83
-0.46
0.19
0.52
-0.12
-1.21

> <PUBCHEM_SHAPE_SELFOVERLAP>
1143.101

> <PUBCHEM_SHAPE_VOLUME>
293.3

> <PUBCHEM_COORDINATE_TYPE>
2
5
10

$$$$
