133985
  -OEChem-03292013323D

 62 65  0     1  0  0  0  0  0999 V2000
   -4.0722   -3.0073   -0.1497 S   0  0  0  0  0  0  0  0  0  0  0  0
    0.0255    1.1932   -1.6630 O   0  0  0  0  0  0  0  0  0  0  0  0
    4.5723    1.9077   -2.2582 O   0  0  0  0  0  0  0  0  0  0  0  0
    3.1905    0.0994   -2.1310 O   0  0  0  0  0  0  0  0  0  0  0  0
   -2.2427   -1.2784    1.7382 O   0  0  0  0  0  0  0  0  0  0  0  0
   -2.0399   -3.0252   -1.8449 O   0  0  0  0  0  0  0  0  0  0  0  0
    1.7893    1.3053   -0.1487 N   0  0  0  0  0  0  0  0  0  0  0  0
   -1.3569   -0.5755   -0.2869 N   0  0  0  0  0  0  0  0  0  0  0  0
    2.3807    0.8470    1.1312 C   0  0  2  0  0  0  0  0  0  0  0  0
    3.1838    1.9730    1.8175 C   0  0  0  0  0  0  0  0  0  0  0  0
    2.5807    2.1692   -1.0351 C   0  0  1  0  0  0  0  0  0  0  0  0
    4.1469    2.6948    0.8855 C   0  0  0  0  0  0  0  0  0  0  0  0
    3.3923    3.2402   -0.3177 C   0  0  0  0  0  0  0  0  0  0  0  0
    3.0228   -0.5275    0.9787 C   0  0  0  0  0  0  0  0  0  0  0  0
   -0.0122   -0.3454    0.1911 C   0  0  2  0  0  0  0  0  0  0  0  0
    0.5678    0.8031   -0.6266 C   0  0  0  0  0  0  0  0  0  0  0  0
    0.8362   -1.6080    0.0240 C   0  0  0  0  0  0  0  0  0  0  0  0
    2.2820   -1.6320    0.4909 C   0  0  0  0  0  0  0  0  0  0  0  0
    3.4500    1.2618   -1.8576 C   0  0  0  0  0  0  0  0  0  0  0  0
    4.3647   -0.7429    1.3533 C   0  0  0  0  0  0  0  0  0  0  0  0
    2.9188   -2.8892    0.3821 C   0  0  0  0  0  0  0  0  0  0  0  0
    4.9707   -1.9952    1.2397 C   0  0  0  0  0  0  0  0  0  0  0  0
    4.2476   -3.0708    0.7520 C   0  0  0  0  0  0  0  0  0  0  0  0
   -2.3719   -1.0292    0.5407 C   0  0  0  0  0  0  0  0  0  0  0  0
   -3.6915   -1.2195   -0.2003 C   0  0  2  0  0  0  0  0  0  0  0  0
   -4.8391   -0.4311    0.4458 C   0  0  0  0  0  0  0  0  0  0  0  0
   -4.6070    1.0622    0.3913 C   0  0  0  0  0  0  0  0  0  0  0  0
   -3.9364    1.6812    1.4328 C   0  0  0  0  0  0  0  0  0  0  0  0
   -5.0694    1.7798   -0.6989 C   0  0  0  0  0  0  0  0  0  0  0  0
   -2.6549   -3.6375   -0.9802 C   0  0  0  0  0  0  0  0  0  0  0  0
   -3.7221    3.0585    1.3826 C   0  0  0  0  0  0  0  0  0  0  0  0
   -4.8549    3.1572   -0.7489 C   0  0  0  0  0  0  0  0  0  0  0  0
   -2.2703   -5.0154   -0.5216 C   0  0  0  0  0  0  0  0  0  0  0  0
   -4.1812    3.7965    0.2918 C   0  0  0  0  0  0  0  0  0  0  0  0
    1.5675    0.6810    1.8449 H   0  0  0  0  0  0  0  0  0  0  0  0
    3.7095    1.6075    2.7067 H   0  0  0  0  0  0  0  0  0  0  0  0
    2.4662    2.7196    2.1875 H   0  0  0  0  0  0  0  0  0  0  0  0
    1.9120    2.6664   -1.7483 H   0  0  0  0  0  0  0  0  0  0  0  0
    4.9494    2.0279    0.5557 H   0  0  0  0  0  0  0  0  0  0  0  0
    4.6244    3.5220    1.4232 H   0  0  0  0  0  0  0  0  0  0  0  0
    4.0769    3.7787   -0.9821 H   0  0  0  0  0  0  0  0  0  0  0  0
    2.6893    4.0015    0.0488 H   0  0  0  0  0  0  0  0  0  0  0  0
   -0.1068   -0.0625    1.2414 H   0  0  0  0  0  0  0  0  0  0  0  0
    0.3168   -2.4279    0.5409 H   0  0  0  0  0  0  0  0  0  0  0  0
    0.8454   -1.8755   -1.0431 H   0  0  0  0  0  0  0  0  0  0  0  0
    4.9778    0.0616    1.7472 H   0  0  0  0  0  0  0  0  0  0  0  0
   -1.5470   -0.4237   -1.2733 H   0  0  0  0  0  0  0  0  0  0  0  0
    2.3660   -3.7452   -0.0012 H   0  0  0  0  0  0  0  0  0  0  0  0
    6.0077   -2.1245    1.5352 H   0  0  0  0  0  0  0  0  0  0  0  0
    4.7121   -4.0475    0.6593 H   0  0  0  0  0  0  0  0  0  0  0  0
   -3.5966   -0.9213   -1.2506 H   0  0  0  0  0  0  0  0  0  0  0  0
    5.1559    1.3297   -2.7946 H   0  0  0  0  0  0  0  0  0  0  0  0
   -4.9764   -0.7264    1.4954 H   0  0  0  0  0  0  0  0  0  0  0  0
   -5.7900   -0.6595   -0.0547 H   0  0  0  0  0  0  0  0  0  0  0  0
   -3.5810    1.1202    2.2918 H   0  0  0  0  0  0  0  0  0  0  0  0
   -5.5926    1.2900   -1.5150 H   0  0  0  0  0  0  0  0  0  0  0  0
   -3.1989    3.5566    2.1936 H   0  0  0  0  0  0  0  0  0  0  0  0
   -5.2118    3.7318   -1.5986 H   0  0  0  0  0  0  0  0  0  0  0  0
   -2.0257   -5.0058    0.5443 H   0  0  0  0  0  0  0  0  0  0  0  0
   -3.0806   -5.7224   -0.7195 H   0  0  0  0  0  0  0  0  0  0  0  0
   -1.3843   -5.3439   -1.0734 H   0  0  0  0  0  0  0  0  0  0  0  0
   -4.0144    4.8689    0.2528 H   0  0  0  0  0  0  0  0  0  0  0  0
  1 25  1  0  0  0  0
  1 30  1  0  0  0  0
  2 16  2  0  0  0  0
  3 19  1  0  0  0  0
  3 52  1  0  0  0  0
  4 19  2  0  0  0  0
  5 24  2  0  0  0  0
  6 30  2  0  0  0  0
  7  9  1  0  0  0  0
  7 11  1  0  0  0  0
  7 16  1  0  0  0  0
  8 15  1  0  0  0  0
  8 24  1  0  0  0  0
  8 47  1  0  0  0  0
  9 10  1  0  0  0  0
  9 14  1  0  0  0  0
  9 35  1  0  0  0  0
 10 12  1  0  0  0  0
 10 36  1  0  0  0  0
 10 37  1  0  0  0  0
 11 13  1  0  0  0  0
 11 19  1  0  0  0  0
 11 38  1  0  0  0  0
 12 13  1  0  0  0  0
 12 39  1  0  0  0  0
 12 40  1  0  0  0  0
 13 41  1  0  0  0  0
 13 42  1  0  0  0  0
 14 18  1  0  0  0  0
 14 20  2  0  0  0  0
 15 16  1  0  0  0  0
 15 17  1  0  0  0  0
 15 43  1  0  0  0  0
 17 18  1  0  0  0  0
 17 44  1  0  0  0  0
 17 45  1  0  0  0  0
 18 21  2  0  0  0  0
 20 22  1  0  0  0  0
 20 46  1  0  0  0  0
 21 23  1  0  0  0  0
 21 48  1  0  0  0  0
 22 23  2  0  0  0  0
 22 49  1  0  0  0  0
 23 50  1  0  0  0  0
 24 25  1  0  0  0  0
 25 26  1  0  0  0  0
 25 51  1  0  0  0  0
 26 27  1  0  0  0  0
 26 53  1  0  0  0  0
 26 54  1  0  0  0  0
 27 28  2  0  0  0  0
 27 29  1  0  0  0  0
 28 31  1  0  0  0  0
 28 55  1  0  0  0  0
 29 32  2  0  0  0  0
 29 56  1  0  0  0  0
 30 33  1  0  0  0  0
 31 34  2  0  0  0  0
 31 57  1  0  0  0  0
 32 34  1  0  0  0  0
 32 58  1  0  0  0  0
 33 59  1  0  0  0  0
 33 60  1  0  0  0  0
 33 61  1  0  0  0  0
 34 62  1  0  0  0  0
M  END
> <PUBCHEM_COMPOUND_CID>
133985

> <PUBCHEM_CONFORMER_RMSD>
1

> <PUBCHEM_CONFORMER_DIVERSEORDER>
1
54
27
47
57
20
34
3
40
69
77
33
62
29
59
31
9
35
68
5
49
42
64
38
32
25
74
53
7
46
37
66
73
48
60
4
39
19
8
50
26
55
45
41
51
28
43
71
61
36
13
58
65
67
16
44
2
15
6
30
78
56
23
70
75
21
14
52
72
17
24
18
11
22
10
12
76
63

> <PUBCHEM_MMFF94_PARTIAL_CHARGES>
42
1 -0.37
11 0.36
14 -0.14
15 0.36
16 0.57
17 0.14
18 -0.14
19 0.66
2 -0.57
20 -0.15
21 -0.15
22 -0.15
23 -0.15
24 0.57
25 0.29
26 0.14
27 -0.14
28 -0.15
29 -0.15
3 -0.65
30 0.65
31 -0.15
32 -0.15
33 0.06
34 -0.15
4 -0.57
46 0.15
47 0.37
48 0.15
49 0.15
5 -0.57
50 0.15
52 0.5
55 0.15
56 0.15
57 0.15
58 0.15
6 -0.57
62 0.15
7 -0.66
8 -0.73
9 0.44

> <PUBCHEM_EFFECTIVE_ROTOR_COUNT>
9.2

> <PUBCHEM_PHARMACOPHORE_FEATURES>
10
1 2 acceptor
1 3 acceptor
1 4 acceptor
1 5 acceptor
1 8 donor
3 3 4 19 anion
6 14 18 20 21 22 23 rings
6 27 28 29 31 32 34 rings
6 7 9 10 11 12 13 rings
7 7 9 14 15 16 17 18 rings

> <PUBCHEM_HEAVY_ATOM_COUNT>
34

> <PUBCHEM_ATOM_DEF_STEREO_COUNT>
4

> <PUBCHEM_ATOM_UDEF_STEREO_COUNT>
0

> <PUBCHEM_BOND_DEF_STEREO_COUNT>
0

> <PUBCHEM_BOND_UDEF_STEREO_COUNT>
0

> <PUBCHEM_ISOTOPIC_ATOM_COUNT>
0

> <PUBCHEM_COMPONENT_COUNT>
1

> <PUBCHEM_CACTVS_TAUTO_COUNT>
2

> <PUBCHEM_CONFORMER_ID>
00020B6100000001

> <PUBCHEM_MMFF94_ENERGY>
94.5686

> <PUBCHEM_FEATURE_SELFOVERLAP>
50.822

> <PUBCHEM_SHAPE_FINGERPRINT>
10439779 11 18051683353013638395
10940486 97 18410291393831884134
11421498 54 17977377562249202947
11595378 159 18198058282070492343
12107183 9 18265891346138873243
12422481 6 17970065552120797260
12788726 201 17761776560462167703
13583140 156 17702366524261600417
144659 178 17983302525563204184
14466204 15 17978787909561082003
14725015 67 17184743594014853811
17818456 19 18340482270960131089
20739085 24 17822013111985613420
21033648 29 17985806169416540795
22393880 68 18270973452202025972
23559900 14 18267861696640344795
3117164 225 18339634547310479834
340366 18 18337674087966093203
4017518 198 17844239614945798070
460360 51 18342182150069694019
469060 322 17975995468265548627
6086070 43 18272930522796896320
6328613 192 18261399884474559720
6371009 1 18196641914058489417

> <PUBCHEM_SHAPE_MULTIPOLES>
664.24
12.17
5.64
1.72
3.6
2.89
-0.49
-4.24
1.38
3.59
-0.66
-1.39
-0.61
-2.35

> <PUBCHEM_SHAPE_SELFOVERLAP>
1409.193

> <PUBCHEM_SHAPE_VOLUME>
368

> <PUBCHEM_COORDINATE_TYPE>
2
5
10

$$$$
