133971
  -OEChem-03292013323D

 60 60  0     0  0  0  0  0  0999 V2000
   -2.7042   -3.2982    0.5817 O   0  0  0  0  0  0  0  0  0  0  0  0
    2.8380    2.0334    2.0726 O   0  0  0  0  0  0  0  0  0  0  0  0
   -1.6479   -0.0676    1.5782 O   0  0  0  0  0  0  0  0  0  0  0  0
    2.4915    1.7728   -1.4381 O   0  0  0  0  0  0  0  0  0  0  0  0
    1.3567   -1.1325   -2.2490 O   0  0  0  0  0  0  0  0  0  0  0  0
   -1.8085    3.0963    0.7011 O   0  0  0  0  0  0  0  0  0  0  0  0
   -2.7830   -2.0002    1.0990 N   0  0  0  0  0  0  0  0  0  0  0  0
    3.1684    1.7038    0.7520 N   0  0  0  0  0  0  0  0  0  0  0  0
    2.0645   -2.7175   -0.7055 N   0  0  0  0  0  0  0  0  0  0  0  0
   -2.5459    2.1800   -1.3016 N   0  0  0  0  0  0  0  0  0  0  0  0
   -4.4056   -0.1811   -0.8025 C   0  0  0  0  0  0  0  0  0  0  0  0
    4.1448   -1.1719    0.8230 C   0  0  0  0  0  0  0  0  0  0  0  0
   -4.9508   -1.3104    0.0799 C   0  0  0  0  0  0  0  0  0  0  0  0
    4.9670    0.0491    1.2529 C   0  0  0  0  0  0  0  0  0  0  0  0
   -4.5091    1.2021   -0.1511 C   0  0  0  0  0  0  0  0  0  0  0  0
    4.2178   -1.4629   -0.6782 C   0  0  0  0  0  0  0  0  0  0  0  0
   -4.1521   -1.5765    1.3602 C   0  0  0  0  0  0  0  0  0  0  0  0
    4.5752    1.3681    0.5809 C   0  0  0  0  0  0  0  0  0  0  0  0
    3.4693   -2.7371   -1.0735 C   0  0  0  0  0  0  0  0  0  0  0  0
   -3.9704    2.3137   -1.0531 C   0  0  0  0  0  0  0  0  0  0  0  0
   -0.3519   -1.8877    0.7451 C   0  0  0  0  0  0  0  0  0  0  0  0
    0.8548    2.3069    0.2413 C   0  0  0  0  0  0  0  0  0  0  0  0
   -0.2748   -2.0842   -0.7682 C   0  0  0  0  0  0  0  0  0  0  0  0
   -0.1786    2.2690   -0.8809 C   0  0  0  0  0  0  0  0  0  0  0  0
   -1.6529   -1.2328    1.1758 C   0  0  0  0  0  0  0  0  0  0  0  0
    2.2415    1.9043   -0.2389 C   0  0  0  0  0  0  0  0  0  0  0  0
    1.1269   -1.9043   -1.3201 C   0  0  0  0  0  0  0  0  0  0  0  0
   -1.5806    2.5656   -0.3828 C   0  0  0  0  0  0  0  0  0  0  0  0
   -4.9800   -0.1712   -1.7375 H   0  0  0  0  0  0  0  0  0  0  0  0
   -3.3689   -0.3981   -1.0811 H   0  0  0  0  0  0  0  0  0  0  0  0
    3.1021   -1.0288    1.1289 H   0  0  0  0  0  0  0  0  0  0  0  0
    4.5129   -2.0451    1.3759 H   0  0  0  0  0  0  0  0  0  0  0  0
   -5.9885   -1.0835    0.3529 H   0  0  0  0  0  0  0  0  0  0  0  0
   -4.9798   -2.2284   -0.5203 H   0  0  0  0  0  0  0  0  0  0  0  0
    4.8682    0.1583    2.3402 H   0  0  0  0  0  0  0  0  0  0  0  0
    6.0287   -0.1427    1.0554 H   0  0  0  0  0  0  0  0  0  0  0  0
   -5.5610    1.4134    0.0754 H   0  0  0  0  0  0  0  0  0  0  0  0
   -3.9686    1.2169    0.8004 H   0  0  0  0  0  0  0  0  0  0  0  0
    3.8088   -0.6199   -1.2429 H   0  0  0  0  0  0  0  0  0  0  0  0
    5.2672   -1.5661   -0.9791 H   0  0  0  0  0  0  0  0  0  0  0  0
   -4.1314   -0.6822    1.9904 H   0  0  0  0  0  0  0  0  0  0  0  0
   -4.6383   -2.3724    1.9359 H   0  0  0  0  0  0  0  0  0  0  0  0
    5.1664    2.1873    1.0064 H   0  0  0  0  0  0  0  0  0  0  0  0
    4.8063    1.3294   -0.4886 H   0  0  0  0  0  0  0  0  0  0  0  0
    3.5318   -2.8776   -2.1582 H   0  0  0  0  0  0  0  0  0  0  0  0
   -4.1458    3.2863   -0.5804 H   0  0  0  0  0  0  0  0  0  0  0  0
    3.9190   -3.6109   -0.5904 H   0  0  0  0  0  0  0  0  0  0  0  0
   -4.4766    2.3088   -2.0238 H   0  0  0  0  0  0  0  0  0  0  0  0
    1.7663   -3.3504    0.0305 H   0  0  0  0  0  0  0  0  0  0  0  0
   -2.2579    1.7610   -2.1811 H   0  0  0  0  0  0  0  0  0  0  0  0
    0.4644   -1.2438    1.0961 H   0  0  0  0  0  0  0  0  0  0  0  0
   -0.2382   -2.8446    1.2677 H   0  0  0  0  0  0  0  0  0  0  0  0
    0.5476    1.6254    1.0431 H   0  0  0  0  0  0  0  0  0  0  0  0
    0.9162    3.3168    0.6635 H   0  0  0  0  0  0  0  0  0  0  0  0
   -0.9261   -1.3683   -1.2841 H   0  0  0  0  0  0  0  0  0  0  0  0
   -0.6178   -3.0880   -1.0436 H   0  0  0  0  0  0  0  0  0  0  0  0
   -0.1733    1.2798   -1.3549 H   0  0  0  0  0  0  0  0  0  0  0  0
    0.0693    3.0060   -1.6540 H   0  0  0  0  0  0  0  0  0  0  0  0
   -2.6633   -3.8144    1.4048 H   0  0  0  0  0  0  0  0  0  0  0  0
    3.2118    2.9289    2.1350 H   0  0  0  0  0  0  0  0  0  0  0  0
  1  7  1  0  0  0  0
  1 59  1  0  0  0  0
  2  8  1  0  0  0  0
  2 60  1  0  0  0  0
  3 25  2  0  0  0  0
  4 26  2  0  0  0  0
  5 27  2  0  0  0  0
  6 28  2  0  0  0  0
  7 17  1  0  0  0  0
  7 25  1  0  0  0  0
  8 18  1  0  0  0  0
  8 26  1  0  0  0  0
  9 19  1  0  0  0  0
  9 27  1  0  0  0  0
  9 49  1  0  0  0  0
 10 20  1  0  0  0  0
 10 28  1  0  0  0  0
 10 50  1  0  0  0  0
 11 13  1  0  0  0  0
 11 15  1  0  0  0  0
 11 29  1  0  0  0  0
 11 30  1  0  0  0  0
 12 14  1  0  0  0  0
 12 16  1  0  0  0  0
 12 31  1  0  0  0  0
 12 32  1  0  0  0  0
 13 17  1  0  0  0  0
 13 33  1  0  0  0  0
 13 34  1  0  0  0  0
 14 18  1  0  0  0  0
 14 35  1  0  0  0  0
 14 36  1  0  0  0  0
 15 20  1  0  0  0  0
 15 37  1  0  0  0  0
 15 38  1  0  0  0  0
 16 19  1  0  0  0  0
 16 39  1  0  0  0  0
 16 40  1  0  0  0  0
 17 41  1  0  0  0  0
 17 42  1  0  0  0  0
 18 43  1  0  0  0  0
 18 44  1  0  0  0  0
 19 45  1  0  0  0  0
 19 47  1  0  0  0  0
 20 46  1  0  0  0  0
 20 48  1  0  0  0  0
 21 23  1  0  0  0  0
 21 25  1  0  0  0  0
 21 51  1  0  0  0  0
 21 52  1  0  0  0  0
 22 24  1  0  0  0  0
 22 26  1  0  0  0  0
 22 53  1  0  0  0  0
 22 54  1  0  0  0  0
 23 27  1  0  0  0  0
 23 55  1  0  0  0  0
 23 56  1  0  0  0  0
 24 28  1  0  0  0  0
 24 57  1  0  0  0  0
 24 58  1  0  0  0  0
M  END
> <PUBCHEM_COMPOUND_CID>
133971

> <PUBCHEM_CONFORMER_RMSD>
0.8

> <PUBCHEM_CONFORMER_DIVERSEORDER>
1
51
35
5
26
24
25
3
44
11
18
53
12
15
38
52
43
19
49
14
32
48
36
30
22
42
21
10
46
34
28
6
31
7
20
27
16
41
33
37
39
29
50
2
9
17
13
8
47
40
45
23
4

> <PUBCHEM_MMFF94_PARTIAL_CHARGES>
26
1 -0.44
10 -0.73
17 0.3
18 0.3
19 0.3
2 -0.44
20 0.3
21 0.06
22 0.06
23 0.06
24 0.06
25 0.57
26 0.57
27 0.57
28 0.57
3 -0.57
4 -0.57
49 0.37
5 -0.57
50 0.37
59 0.4
6 -0.57
60 0.4
7 -0.32
8 -0.32
9 -0.73

> <PUBCHEM_EFFECTIVE_ROTOR_COUNT>
3.6

> <PUBCHEM_PHARMACOPHORE_FEATURES>
6
1 10 donor
1 3 acceptor
1 4 acceptor
1 5 acceptor
1 6 acceptor
1 9 donor

> <PUBCHEM_HEAVY_ATOM_COUNT>
28

> <PUBCHEM_ATOM_DEF_STEREO_COUNT>
0

> <PUBCHEM_ATOM_UDEF_STEREO_COUNT>
0

> <PUBCHEM_BOND_DEF_STEREO_COUNT>
0

> <PUBCHEM_BOND_UDEF_STEREO_COUNT>
0

> <PUBCHEM_ISOTOPIC_ATOM_COUNT>
0

> <PUBCHEM_COMPONENT_COUNT>
1

> <PUBCHEM_CACTVS_TAUTO_COUNT>
3

> <PUBCHEM_CONFORMER_ID>
00020B5300000001

> <PUBCHEM_MMFF94_ENERGY>
26.2296

> <PUBCHEM_FEATURE_SELFOVERLAP>
30.449

> <PUBCHEM_SHAPE_FINGERPRINT>
10759866 29 17678467582576026972
108634 29 18336548201170986278
11828532 37 17533221006358509699
12422481 6 18264795241090290609
13402501 40 18410852131544487620
14251757 17 18337107865321211739
14251764 38 18407760335096783437
17093844 170 18409166601820784388
20600515 1 16951127429218718182
20764821 26 18263384545622094917
23557571 272 18334296482982720499
23558518 356 18197505017343033941
23559900 14 18335710416202272116
238918 7 18342451590764267094
3052486 1 17968100776750600090
328310 1195 18272643519943626395
392239 28 18339077060513247891
508706 21 18260265214186138869
57527585 103 17605580905721278435

> <PUBCHEM_SHAPE_MULTIPOLES>
521.09
10.26
4.25
1.64
0.24
0.3
0.02
-0.91
-1.41
0.66
0.37
-0.5
-0.17
2.56

> <PUBCHEM_SHAPE_SELFOVERLAP>
1017.296

> <PUBCHEM_SHAPE_VOLUME>
309.7

> <PUBCHEM_COORDINATE_TYPE>
2
5
10

$$$$
