133919
  -OEChem-03292013323D

 42 42  0     1  0  0  0  0  0999 V2000
   -1.1874    2.4925   -1.2723 O   0  0  0  0  0  0  0  0  0  0  0  0
   -0.1432   -4.4855    0.2906 O   0  0  0  0  0  0  0  0  0  0  0  0
    1.4927    2.0849   -0.5583 O   0  0  0  0  0  0  0  0  0  0  0  0
    3.5967   -0.8580   -0.4135 O   0  0  0  0  0  0  0  0  0  0  0  0
   -3.6720    2.5014   -0.1038 N   0  0  0  0  0  0  0  0  0  0  0  0
   -0.3900    1.1896    0.4883 N   0  0  0  0  0  0  0  0  0  0  0  0
    3.1809    0.8377    1.1205 N   0  0  0  0  0  0  0  0  0  0  0  0
    6.0181    0.2944   -1.0279 N   0  0  0  0  0  0  0  0  0  0  0  0
   -2.7891    1.3631    0.1556 C   0  0  1  0  0  0  0  0  0  0  0  0
   -3.3002    0.1283   -0.6022 C   0  0  0  0  0  0  0  0  0  0  0  0
   -2.4577   -1.1029   -0.3644 C   0  0  0  0  0  0  0  0  0  0  0  0
   -1.3873    1.7500   -0.3130 C   0  0  0  0  0  0  0  0  0  0  0  0
   -2.7630   -1.9634    0.6901 C   0  0  0  0  0  0  0  0  0  0  0  0
   -1.3745   -1.3793   -1.1989 C   0  0  0  0  0  0  0  0  0  0  0  0
   -3.5202    3.5147    0.9280 C   0  0  0  0  0  0  0  0  0  0  0  0
   -1.9855   -3.1002    0.9101 C   0  0  0  0  0  0  0  0  0  0  0  0
   -0.5969   -2.5160   -0.9788 C   0  0  0  0  0  0  0  0  0  0  0  0
    0.9807    1.3911    0.3163 C   0  0  0  0  0  0  0  0  0  0  0  0
   -0.9024   -3.3765    0.0757 C   0  0  0  0  0  0  0  0  0  0  0  0
    1.7837    0.5875    1.3169 C   0  0  0  0  0  0  0  0  0  0  0  0
    3.9876    0.0902    0.2637 C   0  0  0  0  0  0  0  0  0  0  0  0
    5.4289    0.5566    0.2773 C   0  0  0  0  0  0  0  0  0  0  0  0
   -2.7778    1.1297    1.2287 H   0  0  0  0  0  0  0  0  0  0  0  0
   -3.3324    0.3284   -1.6825 H   0  0  0  0  0  0  0  0  0  0  0  0
   -4.3367   -0.0920   -0.3124 H   0  0  0  0  0  0  0  0  0  0  0  0
   -4.6428    2.1883   -0.1053 H   0  0  0  0  0  0  0  0  0  0  0  0
   -3.6028   -1.7571    1.3482 H   0  0  0  0  0  0  0  0  0  0  0  0
   -1.1274   -0.7208   -2.0274 H   0  0  0  0  0  0  0  0  0  0  0  0
   -0.6800    0.5866    1.2544 H   0  0  0  0  0  0  0  0  0  0  0  0
   -2.5016    3.9138    0.9658 H   0  0  0  0  0  0  0  0  0  0  0  0
   -3.7899    3.1294    1.9170 H   0  0  0  0  0  0  0  0  0  0  0  0
   -4.1867    4.3549    0.7083 H   0  0  0  0  0  0  0  0  0  0  0  0
   -2.2333   -3.7621    1.7356 H   0  0  0  0  0  0  0  0  0  0  0  0
    0.2457   -2.7258   -1.6319 H   0  0  0  0  0  0  0  0  0  0  0  0
    1.5701   -0.4782    1.1861 H   0  0  0  0  0  0  0  0  0  0  0  0
    1.5206    0.8959    2.3331 H   0  0  0  0  0  0  0  0  0  0  0  0
    3.5947    1.6079    1.6377 H   0  0  0  0  0  0  0  0  0  0  0  0
    5.9663    0.0146    1.0616 H   0  0  0  0  0  0  0  0  0  0  0  0
    5.4826    1.6289    0.4895 H   0  0  0  0  0  0  0  0  0  0  0  0
   -0.4961   -4.9647    1.0599 H   0  0  0  0  0  0  0  0  0  0  0  0
    6.9917    0.5963   -1.0244 H   0  0  0  0  0  0  0  0  0  0  0  0
    6.0365   -0.7104   -1.1996 H   0  0  0  0  0  0  0  0  0  0  0  0
  1 12  2  0  0  0  0
  2 19  1  0  0  0  0
  2 40  1  0  0  0  0
  3 18  2  0  0  0  0
  4 21  2  0  0  0  0
  5  9  1  0  0  0  0
  5 15  1  0  0  0  0
  5 26  1  0  0  0  0
  6 12  1  0  0  0  0
  6 18  1  0  0  0  0
  6 29  1  0  0  0  0
  7 20  1  0  0  0  0
  7 21  1  0  0  0  0
  7 37  1  0  0  0  0
  8 22  1  0  0  0  0
  8 41  1  0  0  0  0
  8 42  1  0  0  0  0
  9 10  1  0  0  0  0
  9 12  1  0  0  0  0
  9 23  1  0  0  0  0
 10 11  1  0  0  0  0
 10 24  1  0  0  0  0
 10 25  1  0  0  0  0
 11 13  2  0  0  0  0
 11 14  1  0  0  0  0
 13 16  1  0  0  0  0
 13 27  1  0  0  0  0
 14 17  2  0  0  0  0
 14 28  1  0  0  0  0
 15 30  1  0  0  0  0
 15 31  1  0  0  0  0
 15 32  1  0  0  0  0
 16 19  2  0  0  0  0
 16 33  1  0  0  0  0
 17 19  1  0  0  0  0
 17 34  1  0  0  0  0
 18 20  1  0  0  0  0
 20 35  1  0  0  0  0
 20 36  1  0  0  0  0
 21 22  1  0  0  0  0
 22 38  1  0  0  0  0
 22 39  1  0  0  0  0
M  END
> <PUBCHEM_COMPOUND_CID>
133919

> <PUBCHEM_CONFORMER_RMSD>
1

> <PUBCHEM_CONFORMER_DIVERSEORDER>
1
53
75
33
63
84
73
46
49
17
51
47
14
39
42
11
65
64
67
41
8
59
35
31
36
37
60
85
4
66
82
55
26
29
16
86
32
50
78
62
7
70
71
69
83
56
38
6
77
15
13
72
3
20
28
44
40
27
52
54
5
18
58
76
48
24
74
25
45
22
10
57
80
19
34
12
61
9
21
43
68
79
2
23
81
30

> <PUBCHEM_MMFF94_PARTIAL_CHARGES>
32
1 -0.57
10 0.14
11 -0.14
12 0.57
13 -0.15
14 -0.15
15 0.27
16 -0.15
17 -0.15
18 0.57
19 0.08
2 -0.53
20 0.36
21 0.57
22 0.33
26 0.36
27 0.15
28 0.15
29 0.37
3 -0.57
33 0.15
34 0.15
37 0.37
4 -0.57
40 0.45
41 0.36
42 0.36
5 -0.9
6 -0.49
7 -0.73
8 -0.99
9 0.33

> <PUBCHEM_EFFECTIVE_ROTOR_COUNT>
10

> <PUBCHEM_PHARMACOPHORE_FEATURES>
11
1 1 acceptor
1 2 donor
1 3 acceptor
1 4 acceptor
1 5 cation
1 5 donor
1 6 donor
1 7 donor
1 8 cation
1 8 donor
6 11 13 14 16 17 19 rings

> <PUBCHEM_HEAVY_ATOM_COUNT>
22

> <PUBCHEM_ATOM_DEF_STEREO_COUNT>
1

> <PUBCHEM_ATOM_UDEF_STEREO_COUNT>
0

> <PUBCHEM_BOND_DEF_STEREO_COUNT>
0

> <PUBCHEM_BOND_UDEF_STEREO_COUNT>
0

> <PUBCHEM_ISOTOPIC_ATOM_COUNT>
0

> <PUBCHEM_COMPONENT_COUNT>
1

> <PUBCHEM_CACTVS_TAUTO_COUNT>
12

> <PUBCHEM_CONFORMER_ID>
00020B1F00000001

> <PUBCHEM_MMFF94_ENERGY>
43.1892

> <PUBCHEM_FEATURE_SELFOVERLAP>
55.827

> <PUBCHEM_SHAPE_FINGERPRINT>
107951 10 18341055111986007822
11014199 57 17761495090229349770
11370993 144 17559963288901947112
12156800 1 16302659531753299339
12166972 35 12391210713284173368
12553582 1 18192135208758411474
12821665 9 18119536681397513476
13135754 10 18042991889531284659
13402501 40 18272654541246660542
13941206 138 18334297522470814170
14251740 79 18131356271864350962
14251757 5 18410298046936334644
14790565 3 18195532493403598216
15927050 60 18198061374995558695
16752209 62 18339907299356266275
167882 2 17833260922970389741
18785283 64 16971115060548879561
20681677 155 18411697656398107080
20871999 31 18411418419267857060
21634736 98 17898003779512291152
23419403 2 17413069471855457831
23559900 14 18269826691813899144
23566358 27 17901112133022583124
23728640 28 18339072787305748691
3411729 13 17838905837342889905
574716 61 17386858381838606788
59755656 215 18340196398691432789
6437827 68 18339361843501610382
7097593 13 17400931194192329539
81228 2 18123444310739969713
9709674 26 18126554846272476264

> <PUBCHEM_SHAPE_MULTIPOLES>
409.35
8.64
4.76
1.12
16.3
2.82
0.02
-3.66
0.33
-5.56
-0.63
0.06
-0.02
0.12

> <PUBCHEM_SHAPE_SELFOVERLAP>
832.344

> <PUBCHEM_SHAPE_VOLUME>
235.7

> <PUBCHEM_COORDINATE_TYPE>
2
5
10

$$$$
