133923
  -OEChem-03292013323D

 58 61  0     1  0  0  0  0  0999 V2000
    4.3566    3.2386    0.3359 O   0  0  0  0  0  0  0  0  0  0  0  0
    0.7373    2.8612    0.3151 O   0  0  0  0  0  0  0  0  0  0  0  0
    1.9799   -0.8144    0.6380 O   0  0  0  0  0  0  0  0  0  0  0  0
    5.0607   -4.3418    0.9202 O   0  0  0  0  0  0  0  0  0  0  0  0
   -5.0031    0.4720    0.2071 O   0  0  0  0  0  0  0  0  0  0  0  0
   -0.4042    4.8601    0.2866 O   0  0  0  0  0  0  0  0  0  0  0  0
    4.1167    0.6410   -0.8671 N   0  0  0  0  0  0  0  0  0  0  0  0
    5.7116   -2.4030   -0.1894 N   0  0  0  0  0  0  0  0  0  0  0  0
    3.5057   -2.5948    0.7921 N   0  0  0  0  0  0  0  0  0  0  0  0
    6.1180   -0.2427   -1.2961 N   0  0  0  0  0  0  0  0  0  0  0  0
    3.0500    1.6132   -0.8558 C   0  0  0  0  0  0  0  0  0  0  0  0
    4.1075   -0.6095   -0.3191 C   0  0  0  0  0  0  0  0  0  0  0  0
    3.1139    2.5339    0.3644 C   0  0  2  0  0  0  0  0  0  0  0  0
    5.3433   -1.1278   -0.5956 C   0  0  0  0  0  0  0  0  0  0  0  0
    3.0831   -1.2972    0.3980 C   0  0  0  0  0  0  0  0  0  0  0  0
    5.3481    0.8158   -1.4440 C   0  0  0  0  0  0  0  0  0  0  0  0
    1.9802    3.5546    0.3386 C   0  0  0  0  0  0  0  0  0  0  0  0
    4.7884   -3.1997    0.5331 C   0  0  0  0  0  0  0  0  0  0  0  0
    7.0382   -2.9190   -0.5035 C   0  0  0  0  0  0  0  0  0  0  0  0
    2.5415   -3.3988    1.5360 C   0  0  0  0  0  0  0  0  0  0  0  0
   -0.3791    3.6391    0.2902 C   0  0  0  0  0  0  0  0  0  0  0  0
   -1.6034    2.7993    0.2689 C   0  0  0  0  0  0  0  0  0  0  0  0
   -2.7562    3.2870    0.8497 C   0  0  0  0  0  0  0  0  0  0  0  0
   -1.5513    1.5578   -0.3314 C   0  0  0  0  0  0  0  0  0  0  0  0
   -3.8799    1.2403    0.2287 C   0  0  0  0  0  0  0  0  0  0  0  0
   -3.9070    2.4988    0.8294 C   0  0  0  0  0  0  0  0  0  0  0  0
   -2.7021    0.7698   -0.3517 C   0  0  0  0  0  0  0  0  0  0  0  0
   -4.9049   -0.8042   -0.4234 C   0  0  0  0  0  0  0  0  0  0  0  0
   -6.2437   -1.4798   -0.3726 C   0  0  0  0  0  0  0  0  0  0  0  0
   -6.5650   -2.2912    0.7099 C   0  0  0  0  0  0  0  0  0  0  0  0
   -7.1511   -1.2889   -1.4087 C   0  0  0  0  0  0  0  0  0  0  0  0
   -7.8094   -2.9197    0.7570 C   0  0  0  0  0  0  0  0  0  0  0  0
   -8.3955   -1.9172   -1.3616 C   0  0  0  0  0  0  0  0  0  0  0  0
   -8.7246   -2.7327   -0.2788 C   0  0  0  0  0  0  0  0  0  0  0  0
    2.0980    1.0802   -0.9296 H   0  0  0  0  0  0  0  0  0  0  0  0
    3.1573    2.2006   -1.7771 H   0  0  0  0  0  0  0  0  0  0  0  0
    3.0637    1.9472    1.2895 H   0  0  0  0  0  0  0  0  0  0  0  0
    5.6261    1.7276   -1.9551 H   0  0  0  0  0  0  0  0  0  0  0  0
    2.0682    4.2003   -0.5443 H   0  0  0  0  0  0  0  0  0  0  0  0
    2.0385    4.1936    1.2282 H   0  0  0  0  0  0  0  0  0  0  0  0
    7.1652   -2.9334   -1.5904 H   0  0  0  0  0  0  0  0  0  0  0  0
    7.7899   -2.2631   -0.0535 H   0  0  0  0  0  0  0  0  0  0  0  0
    7.1789   -3.9322   -0.1188 H   0  0  0  0  0  0  0  0  0  0  0  0
    1.5921   -2.8830    1.6956 H   0  0  0  0  0  0  0  0  0  0  0  0
    2.3601   -4.3262    0.9833 H   0  0  0  0  0  0  0  0  0  0  0  0
    2.9785   -3.6592    2.5053 H   0  0  0  0  0  0  0  0  0  0  0  0
    5.0516    2.6232    0.6241 H   0  0  0  0  0  0  0  0  0  0  0  0
   -2.7889    4.2637    1.3233 H   0  0  0  0  0  0  0  0  0  0  0  0
   -0.6502    1.1747   -0.8011 H   0  0  0  0  0  0  0  0  0  0  0  0
   -4.8216    2.8703    1.2835 H   0  0  0  0  0  0  0  0  0  0  0  0
   -2.6068   -0.1959   -0.8358 H   0  0  0  0  0  0  0  0  0  0  0  0
   -4.6124   -0.6993   -1.4768 H   0  0  0  0  0  0  0  0  0  0  0  0
   -4.1713   -1.4379    0.0927 H   0  0  0  0  0  0  0  0  0  0  0  0
   -5.8610   -2.4421    1.5235 H   0  0  0  0  0  0  0  0  0  0  0  0
   -6.9068   -0.6540   -2.2560 H   0  0  0  0  0  0  0  0  0  0  0  0
   -8.0660   -3.5540    1.6004 H   0  0  0  0  0  0  0  0  0  0  0  0
   -9.1086   -1.7711   -2.1677 H   0  0  0  0  0  0  0  0  0  0  0  0
   -9.6937   -3.2216   -0.2421 H   0  0  0  0  0  0  0  0  0  0  0  0
  1 13  1  0  0  0  0
  1 47  1  0  0  0  0
  2 17  1  0  0  0  0
  2 21  1  0  0  0  0
  3 15  2  0  0  0  0
  4 18  2  0  0  0  0
  5 25  1  0  0  0  0
  5 28  1  0  0  0  0
  6 21  2  0  0  0  0
  7 11  1  0  0  0  0
  7 12  1  0  0  0  0
  7 16  1  0  0  0  0
  8 14  1  0  0  0  0
  8 18  1  0  0  0  0
  8 19  1  0  0  0  0
  9 15  1  0  0  0  0
  9 18  1  0  0  0  0
  9 20  1  0  0  0  0
 10 14  1  0  0  0  0
 10 16  2  0  0  0  0
 11 13  1  0  0  0  0
 11 35  1  0  0  0  0
 11 36  1  0  0  0  0
 12 14  2  0  0  0  0
 12 15  1  0  0  0  0
 13 17  1  0  0  0  0
 13 37  1  0  0  0  0
 16 38  1  0  0  0  0
 17 39  1  0  0  0  0
 17 40  1  0  0  0  0
 19 41  1  0  0  0  0
 19 42  1  0  0  0  0
 19 43  1  0  0  0  0
 20 44  1  0  0  0  0
 20 45  1  0  0  0  0
 20 46  1  0  0  0  0
 21 22  1  0  0  0  0
 22 23  2  0  0  0  0
 22 24  1  0  0  0  0
 23 26  1  0  0  0  0
 23 48  1  0  0  0  0
 24 27  2  0  0  0  0
 24 49  1  0  0  0  0
 25 26  2  0  0  0  0
 25 27  1  0  0  0  0
 26 50  1  0  0  0  0
 27 51  1  0  0  0  0
 28 29  1  0  0  0  0
 28 52  1  0  0  0  0
 28 53  1  0  0  0  0
 29 30  2  0  0  0  0
 29 31  1  0  0  0  0
 30 32  1  0  0  0  0
 30 54  1  0  0  0  0
 31 33  2  0  0  0  0
 31 55  1  0  0  0  0
 32 34  2  0  0  0  0
 32 56  1  0  0  0  0
 33 34  1  0  0  0  0
 33 57  1  0  0  0  0
 34 58  1  0  0  0  0
M  END
> <PUBCHEM_COMPOUND_CID>
133923

> <PUBCHEM_CONFORMER_RMSD>
1.2

> <PUBCHEM_CONFORMER_DIVERSEORDER>
2
177
172
185
176
163
118
32
235
59
16
220
60
192
39
71
145
133
117
132
10
129
191
93
225
210
62
63
148
54
12
227
207
223
169
102
34
8
73
131
15
46
115
69
241
222
138
217
161
38
181
108
195
110
98
87
229
168
119
143
111
248
25
26
136
147
45
194
199
237
51
82
233
252
90
166
215
203
52
42
56
239
53
11
162
124
55
182
94
250
101
21
72
159
137
61
184
180
112
22
130
80
114
66
78
232
24
165
88
84
37
95
35
253
243
4
174
99
245
50
202
155
85
40
86
18
139
179
75
200
167
19
246
126
76
123
149
1
144
89
79
44
17
156
231
175
247
47
151
218
49
171
135
228
216
142
249
141
173
238
97
190
103
58
20
68
206
70
23
189
187
153
36
164
81
9
170
236
127
5
208
122
27
105
134
3
125
31
100
13
6
201
226
57
96
48
193
178
74
83
120
244
121
198
240
33
28
109
197
183
196
113
213
205
65
204
7
152
157
158
219
30
64
221
29
116
186
214
234
209
128
254
104
160
146
230
43
224
242
150
154
14
91
140
106
211
188
77
107
67
212
41
251
92

> <PUBCHEM_MMFF94_PARTIAL_CHARGES>
45
1 -0.68
10 -0.57
11 0.26
12 -0.24
13 0.28
14 0.29
15 0.71
16 0.04
17 0.28
18 0.69
19 0.3
2 -0.43
20 0.3
21 0.63
22 0.09
23 -0.15
24 -0.15
25 0.08
26 -0.15
27 -0.15
28 0.42
29 -0.14
3 -0.57
30 -0.15
31 -0.15
32 -0.15
33 -0.15
34 -0.15
38 0.15
4 -0.57
47 0.4
48 0.15
49 0.15
5 -0.36
50 0.15
51 0.15
54 0.15
55 0.15
56 0.15
57 0.15
58 0.15
6 -0.57
7 0.05
8 -0.42
9 -0.42

> <PUBCHEM_EFFECTIVE_ROTOR_COUNT>
9

> <PUBCHEM_PHARMACOPHORE_FEATURES>
11
1 1 acceptor
1 1 donor
1 3 acceptor
1 4 acceptor
1 5 acceptor
1 6 acceptor
3 7 10 16 cation
5 7 10 12 14 16 rings
6 22 23 24 25 26 27 rings
6 29 30 31 32 33 34 rings
6 8 9 12 14 15 18 rings

> <PUBCHEM_HEAVY_ATOM_COUNT>
34

> <PUBCHEM_ATOM_DEF_STEREO_COUNT>
0

> <PUBCHEM_ATOM_UDEF_STEREO_COUNT>
1

> <PUBCHEM_BOND_DEF_STEREO_COUNT>
0

> <PUBCHEM_BOND_UDEF_STEREO_COUNT>
0

> <PUBCHEM_ISOTOPIC_ATOM_COUNT>
0

> <PUBCHEM_COMPONENT_COUNT>
1

> <PUBCHEM_CACTVS_TAUTO_COUNT>
1

> <PUBCHEM_CONFORMER_ID>
00020B2300000002

> <PUBCHEM_MMFF94_ENERGY>
86.6954

> <PUBCHEM_FEATURE_SELFOVERLAP>
55.939

> <PUBCHEM_SHAPE_FINGERPRINT>
10258705 36 17972888240317861067
10622 236 18263921046934577817
11204353 107 18118968242112319827
11409948 35 18339076104133850583
11409948 41 18054771044417107271
11607047 403 18269253816733947720
117089 54 18411986845014716387
11963148 33 17982727782178526575
11966995 16 18335132138154020215
12124843 1 18114468872626062510
12841400 136 18408604760370131523
13553644 42 18187350044746279811
13989917 61 18266459991515035691
14340393 91 18335697209831717433
14904385 45 18339074995103996911
15250474 111 18119813500091221528
15347590 135 17845365716916213232
15351339 4 18187362125486659082
17492 89 18411416185326187792
19301676 85 18337954593077604827
19315092 285 18131354115438003568
19841028 212 18410853283128330187
20156587 161 17100284707575407778
208703 8 18341046337325734479
21585483 132 18260542278073863314
24893989 43 17843691207513640975
25222932 49 18412550903238154764
2748736 6 8646489588036223899
4046055 25 18187086122568062573
42767 28 17821726135546414427
439807 62 18408888438854254589
44344687 77 18261403290927016923
45266715 3 18188205507145757416
50009960 94 18263347136541479306
5104073 3 17775291564482071321
6201320 77 17606995981850231603
6201460 15 18047749300188513874
6636735 143 12966857879582544501
6697151 62 18058990866717908549
9555976 147 17632028446868420217
9831232 110 18189894408899108501

> <PUBCHEM_SHAPE_MULTIPOLES>
644.56
23.82
6.4
1.14
34.64
2.26
0.13
-30.47
6.04
-3.5
-2.23
0.06
-0.48
-1.94

> <PUBCHEM_SHAPE_SELFOVERLAP>
1397.103

> <PUBCHEM_SHAPE_VOLUME>
352

> <PUBCHEM_COORDINATE_TYPE>
2
5
10

$$$$
