133954
  -OEChem-03292013323D

 65 68  0     1  0  0  0  0  0999 V2000
   -0.6033   -1.0869    0.1852 O   0  0  0  0  0  0  0  0  0  0  0  0
   -4.6029   -1.1873   -2.3671 O   0  0  0  0  0  0  0  0  0  0  0  0
    5.6535   -0.1165   -0.6435 N   0  0  0  0  0  0  0  0  0  0  0  0
    0.2293    0.2371   -1.5699 N   0  0  0  0  0  0  0  0  0  0  0  0
   -3.1368   -0.8406   -0.6036 N   0  0  0  0  0  0  0  0  0  0  0  0
   -2.6092    4.1221    1.3756 N   0  0  0  0  0  0  0  0  0  0  0  0
   -3.0964    6.3077    0.5062 N   0  0  0  0  0  0  0  0  0  0  0  0
   -2.7336    5.9956    2.7346 N   0  0  0  0  0  0  0  0  0  0  0  0
    4.3515    0.0884   -1.0350 C   0  0  0  0  0  0  0  0  0  0  0  0
    3.5365   -0.5980   -0.1345 C   0  0  0  0  0  0  0  0  0  0  0  0
    5.7077   -0.9106    0.4776 C   0  0  0  0  0  0  0  0  0  0  0  0
    4.3939   -1.2295    0.8217 C   0  0  0  0  0  0  0  0  0  0  0  0
    6.8123    0.4309   -1.3208 C   0  0  0  0  0  0  0  0  0  0  0  0
    2.1386   -0.5476   -0.3165 C   0  0  0  0  0  0  0  0  0  0  0  0
   -2.1715   -0.0616   -1.3358 C   0  0  1  0  0  0  0  0  0  0  0  0
    1.6119    0.1841   -1.3870 C   0  0  0  0  0  0  0  0  0  0  0  0
    3.8398    0.8240   -2.1102 C   0  0  0  0  0  0  0  0  0  0  0  0
   -2.5063    1.4348   -1.3091 C   0  0  0  0  0  0  0  0  0  0  0  0
    6.8128   -1.3659    1.2059 C   0  0  0  0  0  0  0  0  0  0  0  0
    4.1715   -2.0453    1.9510 C   0  0  0  0  0  0  0  0  0  0  0  0
    2.4519    0.8589   -2.2694 C   0  0  0  0  0  0  0  0  0  0  0  0
   -2.4206    2.0708    0.0836 C   0  0  0  0  0  0  0  0  0  0  0  0
   -0.7735   -0.3672   -0.7949 C   0  0  0  0  0  0  0  0  0  0  0  0
    7.2069    1.7927   -0.7754 C   0  0  0  0  0  0  0  0  0  0  0  0
    6.5668   -2.1724    2.3203 C   0  0  0  0  0  0  0  0  0  0  0  0
    5.2665   -2.5083    2.6893 C   0  0  0  0  0  0  0  0  0  0  0  0
   -2.7046    3.5678    0.0243 C   0  0  0  0  0  0  0  0  0  0  0  0
   -4.2894   -1.3458   -1.1902 C   0  0  0  0  0  0  0  0  0  0  0  0
   -5.1972   -2.1068   -0.2934 C   0  0  0  0  0  0  0  0  0  0  0  0
   -6.5626   -2.1679   -0.5720 C   0  0  0  0  0  0  0  0  0  0  0  0
   -4.6841   -2.7606    0.8269 C   0  0  0  0  0  0  0  0  0  0  0  0
   -2.8057    5.3979    1.4983 C   0  0  0  0  0  0  0  0  0  0  0  0
   -7.4150   -2.8824    0.2696 C   0  0  0  0  0  0  0  0  0  0  0  0
   -5.5365   -3.4753    1.6685 C   0  0  0  0  0  0  0  0  0  0  0  0
   -6.9020   -3.5362    1.3898 C   0  0  0  0  0  0  0  0  0  0  0  0
    7.6407   -0.2783   -1.2214 H   0  0  0  0  0  0  0  0  0  0  0  0
    6.5918    0.4942   -2.3914 H   0  0  0  0  0  0  0  0  0  0  0  0
   -2.1921   -0.3989   -2.3804 H   0  0  0  0  0  0  0  0  0  0  0  0
    1.5458   -1.0905    0.4033 H   0  0  0  0  0  0  0  0  0  0  0  0
    4.4829    1.3577   -2.8015 H   0  0  0  0  0  0  0  0  0  0  0  0
   -3.5206    1.5826   -1.7024 H   0  0  0  0  0  0  0  0  0  0  0  0
   -1.8351    1.9768   -1.9859 H   0  0  0  0  0  0  0  0  0  0  0  0
    7.8300   -1.1078    0.9320 H   0  0  0  0  0  0  0  0  0  0  0  0
    3.1633   -2.3160    2.2517 H   0  0  0  0  0  0  0  0  0  0  0  0
    2.0370    1.4274   -3.0993 H   0  0  0  0  0  0  0  0  0  0  0  0
   -1.4245    1.9142    0.5143 H   0  0  0  0  0  0  0  0  0  0  0  0
   -3.1359    1.5897    0.7617 H   0  0  0  0  0  0  0  0  0  0  0  0
   -0.0752    0.7764   -2.3769 H   0  0  0  0  0  0  0  0  0  0  0  0
    8.0830    2.1749   -1.3083 H   0  0  0  0  0  0  0  0  0  0  0  0
    7.4539    1.7371    0.2901 H   0  0  0  0  0  0  0  0  0  0  0  0
    6.3943    2.5174   -0.8919 H   0  0  0  0  0  0  0  0  0  0  0  0
    7.4036   -2.5413    2.9079 H   0  0  0  0  0  0  0  0  0  0  0  0
    5.0985   -3.1365    3.5599 H   0  0  0  0  0  0  0  0  0  0  0  0
   -2.9814   -0.9448    0.3935 H   0  0  0  0  0  0  0  0  0  0  0  0
   -1.9731    4.0478   -0.6372 H   0  0  0  0  0  0  0  0  0  0  0  0
   -3.7098    3.7299   -0.3833 H   0  0  0  0  0  0  0  0  0  0  0  0
   -6.9822   -1.6618   -1.4374 H   0  0  0  0  0  0  0  0  0  0  0  0
   -3.6241   -2.7651    1.0628 H   0  0  0  0  0  0  0  0  0  0  0  0
   -8.4782   -2.9294    0.0532 H   0  0  0  0  0  0  0  0  0  0  0  0
   -5.1367   -3.9905    2.5370 H   0  0  0  0  0  0  0  0  0  0  0  0
   -7.5654   -4.0939    2.0443 H   0  0  0  0  0  0  0  0  0  0  0  0
   -3.1880    6.0368   -0.4664 H   0  0  0  0  0  0  0  0  0  0  0  0
   -3.2309    7.2899    0.7210 H   0  0  0  0  0  0  0  0  0  0  0  0
   -2.5275    5.4539    3.5669 H   0  0  0  0  0  0  0  0  0  0  0  0
   -2.8851    6.9915    2.8519 H   0  0  0  0  0  0  0  0  0  0  0  0
  1 23  2  0  0  0  0
  2 28  2  0  0  0  0
  3  9  1  0  0  0  0
  3 11  1  0  0  0  0
  3 13  1  0  0  0  0
  4 16  1  0  0  0  0
  4 23  1  0  0  0  0
  4 48  1  0  0  0  0
  5 15  1  0  0  0  0
  5 28  1  0  0  0  0
  5 54  1  0  0  0  0
  6 27  1  0  0  0  0
  6 32  2  0  0  0  0
  7 32  1  0  0  0  0
  7 62  1  0  0  0  0
  7 63  1  0  0  0  0
  8 32  1  0  0  0  0
  8 64  1  0  0  0  0
  8 65  1  0  0  0  0
  9 10  2  0  0  0  0
  9 17  1  0  0  0  0
 10 12  1  0  0  0  0
 10 14  1  0  0  0  0
 11 12  1  0  0  0  0
 11 19  2  0  0  0  0
 12 20  2  0  0  0  0
 13 24  1  0  0  0  0
 13 36  1  0  0  0  0
 13 37  1  0  0  0  0
 14 16  2  0  0  0  0
 14 39  1  0  0  0  0
 15 18  1  0  0  0  0
 15 23  1  0  0  0  0
 15 38  1  0  0  0  0
 16 21  1  0  0  0  0
 17 21  2  0  0  0  0
 17 40  1  0  0  0  0
 18 22  1  0  0  0  0
 18 41  1  0  0  0  0
 18 42  1  0  0  0  0
 19 25  1  0  0  0  0
 19 43  1  0  0  0  0
 20 26  1  0  0  0  0
 20 44  1  0  0  0  0
 21 45  1  0  0  0  0
 22 27  1  0  0  0  0
 22 46  1  0  0  0  0
 22 47  1  0  0  0  0
 24 49  1  0  0  0  0
 24 50  1  0  0  0  0
 24 51  1  0  0  0  0
 25 26  2  0  0  0  0
 25 52  1  0  0  0  0
 26 53  1  0  0  0  0
 27 55  1  0  0  0  0
 27 56  1  0  0  0  0
 28 29  1  0  0  0  0
 29 30  2  0  0  0  0
 29 31  1  0  0  0  0
 30 33  1  0  0  0  0
 30 57  1  0  0  0  0
 31 34  2  0  0  0  0
 31 58  1  0  0  0  0
 33 35  2  0  0  0  0
 33 59  1  0  0  0  0
 34 35  1  0  0  0  0
 34 60  1  0  0  0  0
 35 61  1  0  0  0  0
M  END
> <PUBCHEM_COMPOUND_CID>
133954

> <PUBCHEM_CONFORMER_RMSD>
1.2

> <PUBCHEM_CONFORMER_DIVERSEORDER>
1
51
59
28
89
35
30
61
13
39
23
46
38
52
43
26
16
70
11
80
49
41
69
74
95
32
73
27
31
63
83
71
67
76
79
6
25
2
54
3
18
62
22
90
81
77
20
45
44
36
33
17
65
42
34
24
93
57
86
14
87
75
56
12
19
85
68
15
91
66
58
60
78
92
40
72
7
8
9
64
82
55
50
88
4
53
21
47
5
10
48
84
29
94
37

> <PUBCHEM_MMFF94_PARTIAL_CHARGES>
48
1 -0.57
11 -0.15
13 0.26
14 -0.15
15 0.36
16 0.12
17 -0.15
19 -0.15
2 -0.57
20 -0.15
21 -0.15
23 0.57
25 -0.15
26 -0.15
27 0.25
28 0.54
29 0.09
3 0.05
30 -0.15
31 -0.15
32 0.55
33 -0.15
34 -0.15
35 -0.15
39 0.15
4 -0.55
40 0.15
43 0.15
44 0.15
45 0.15
48 0.37
5 -0.73
52 0.15
53 0.15
54 0.37
57 0.15
58 0.15
59 0.15
6 -0.7
60 0.15
61 0.15
62 0.4
63 0.4
64 0.4
65 0.4
7 -0.85
8 -0.85
9 -0.15

> <PUBCHEM_EFFECTIVE_ROTOR_COUNT>
11

> <PUBCHEM_PHARMACOPHORE_FEATURES>
12
1 1 acceptor
1 2 acceptor
1 3 cation
1 4 donor
1 5 donor
1 7 donor
1 8 donor
4 6 7 8 32 cation
5 3 9 10 11 12 rings
6 11 12 19 20 25 26 rings
6 29 30 31 33 34 35 rings
6 9 10 14 16 17 21 rings

> <PUBCHEM_HEAVY_ATOM_COUNT>
35

> <PUBCHEM_ATOM_DEF_STEREO_COUNT>
1

> <PUBCHEM_ATOM_UDEF_STEREO_COUNT>
0

> <PUBCHEM_BOND_DEF_STEREO_COUNT>
0

> <PUBCHEM_BOND_UDEF_STEREO_COUNT>
0

> <PUBCHEM_ISOTOPIC_ATOM_COUNT>
0

> <PUBCHEM_COMPONENT_COUNT>
1

> <PUBCHEM_CACTVS_TAUTO_COUNT>
8

> <PUBCHEM_CONFORMER_ID>
00020B4200000001

> <PUBCHEM_MMFF94_ENERGY>
91.7578

> <PUBCHEM_FEATURE_SELFOVERLAP>
61.132

> <PUBCHEM_SHAPE_FINGERPRINT>
10074138 170 18270123388618573233
11062273 23 18130227056770626993
11297750 10 18191859228004949149
11399510 152 18200008683039900802
11411753 29 18060146419099230140
12106331 60 18342178864493605175
12788726 201 18410298029508779607
13540713 4 17559125271831003462
1361 4 17603862338334310250
14118638 360 18333452054295606990
15347590 135 18192706967864006016
18393751 57 17762629391319784865
19301679 30 18341058441024083751
19841028 212 17385994075479013722
21033648 29 16988268795209492900
21130935 74 17967523572017540218
21639891 77 18410847768818285109
23569943 247 17170656806375353762
3418910 222 18338242665013280364
3552219 110 18190196731220183133
42767 28 16226316101947305019
439807 62 17749103422459650831
44880568 143 14562797863842154375
5219985 9 18338517551693898207
58083652 198 18269838787063439157
6376802 137 18335423495623599283
6697151 62 18198332065657575007
9555976 147 18267857286136017904
9849439 229 17553767252954148681
9896288 288 18269273465602820279

> <PUBCHEM_SHAPE_MULTIPOLES>
678.66
21.39
6.58
2.45
5.38
14.53
0.74
-20.26
4.36
-14.54
7.5
1.33
0.78
-5.22

> <PUBCHEM_SHAPE_SELFOVERLAP>
1463.842

> <PUBCHEM_SHAPE_VOLUME>
371.3

> <PUBCHEM_COORDINATE_TYPE>
2
5
10

$$$$
