133940
  -OEChem-03292013323D

 45 47  0     1  0  0  0  0  0999 V2000
    3.3442    0.4916    0.9998 O   0  0  0  0  0  0  0  0  0  0  0  0
    3.8302   -2.1439   -0.7644 O   0  0  0  0  0  0  0  0  0  0  0  0
    5.2397   -0.1542   -1.9834 O   0  0  0  0  0  0  0  0  0  0  0  0
    5.4038    2.3063    1.6636 O   0  0  0  0  0  0  0  0  0  0  0  0
   -3.4000    0.7334   -0.1143 O   0  0  0  0  0  0  0  0  0  0  0  0
    1.1473    0.0614    0.2103 N   0  0  0  0  0  0  0  0  0  0  0  0
   -0.4605    1.5676   -0.1428 N   0  0  0  0  0  0  0  0  0  0  0  0
   -0.2110   -1.9280    0.5259 N   0  0  0  0  0  0  0  0  0  0  0  0
   -2.5898   -1.4201    0.3265 N   0  0  0  0  0  0  0  0  0  0  0  0
   -1.8363   -3.5936    0.7691 N   0  0  0  0  0  0  0  0  0  0  0  0
    3.1513   -0.9022   -0.9445 C   0  0  1  0  0  0  0  0  0  0  0  0
    2.4927   -0.4919    0.3737 C   0  0  1  0  0  0  0  0  0  0  0  0
    4.1315    0.2279   -1.1974 C   0  0  1  0  0  0  0  0  0  0  0  0
    4.5384    0.6234    0.2115 C   0  0  1  0  0  0  0  0  0  0  0  0
    5.0671    2.0430    0.3128 C   0  0  0  0  0  0  0  0  0  0  0  0
   -0.0356   -0.6196    0.2870 C   0  0  0  0  0  0  0  0  0  0  0  0
    0.8382    1.3717   -0.0489 C   0  0  0  0  0  0  0  0  0  0  0  0
   -1.0186    0.3314    0.0650 C   0  0  0  0  0  0  0  0  0  0  0  0
   -2.3378   -0.1100    0.0904 C   0  0  0  0  0  0  0  0  0  0  0  0
   -1.5263   -2.2357    0.5267 C   0  0  0  0  0  0  0  0  0  0  0  0
   -4.6966    0.1520   -0.0616 C   0  0  0  0  0  0  0  0  0  0  0  0
   -5.7323    1.2344   -0.3309 C   0  0  0  0  0  0  0  0  0  0  0  0
   -7.1534    0.6813   -0.2737 C   0  0  0  0  0  0  0  0  0  0  0  0
   -8.1861    1.7738   -0.5004 C   0  0  0  0  0  0  0  0  0  0  0  0
    2.4516   -1.0356   -1.7759 H   0  0  0  0  0  0  0  0  0  0  0  0
    2.4046   -1.3312    1.0732 H   0  0  0  0  0  0  0  0  0  0  0  0
    3.6076    1.0538   -1.6944 H   0  0  0  0  0  0  0  0  0  0  0  0
    5.2818   -0.0713    0.6238 H   0  0  0  0  0  0  0  0  0  0  0  0
    4.3132    2.7764    0.0084 H   0  0  0  0  0  0  0  0  0  0  0  0
    5.9628    2.1821   -0.2990 H   0  0  0  0  0  0  0  0  0  0  0  0
    3.1562   -2.8167   -0.5670 H   0  0  0  0  0  0  0  0  0  0  0  0
    5.8297    0.6149   -2.0570 H   0  0  0  0  0  0  0  0  0  0  0  0
    1.5928    2.1378   -0.1638 H   0  0  0  0  0  0  0  0  0  0  0  0
    4.6007    2.1777    2.1969 H   0  0  0  0  0  0  0  0  0  0  0  0
   -4.8690   -0.2821    0.9311 H   0  0  0  0  0  0  0  0  0  0  0  0
   -4.7854   -0.6343   -0.8216 H   0  0  0  0  0  0  0  0  0  0  0  0
   -5.5399    1.6879   -1.3113 H   0  0  0  0  0  0  0  0  0  0  0  0
   -5.6098    2.0421    0.4017 H   0  0  0  0  0  0  0  0  0  0  0  0
   -7.3336    0.2160    0.7024 H   0  0  0  0  0  0  0  0  0  0  0  0
   -7.2803   -0.0988   -1.0333 H   0  0  0  0  0  0  0  0  0  0  0  0
   -1.0871   -4.2537    0.9253 H   0  0  0  0  0  0  0  0  0  0  0  0
   -2.8032   -3.8874    0.7817 H   0  0  0  0  0  0  0  0  0  0  0  0
   -8.1077    2.5528    0.2647 H   0  0  0  0  0  0  0  0  0  0  0  0
   -8.0538    2.2409   -1.4815 H   0  0  0  0  0  0  0  0  0  0  0  0
   -9.1965    1.3554   -0.4568 H   0  0  0  0  0  0  0  0  0  0  0  0
  1 12  1  0  0  0  0
  1 14  1  0  0  0  0
  2 11  1  0  0  0  0
  2 31  1  0  0  0  0
  3 13  1  0  0  0  0
  3 32  1  0  0  0  0
  4 15  1  0  0  0  0
  4 34  1  0  0  0  0
  5 19  1  0  0  0  0
  5 21  1  0  0  0  0
  6 12  1  0  0  0  0
  6 16  1  0  0  0  0
  6 17  1  0  0  0  0
  7 17  2  0  0  0  0
  7 18  1  0  0  0  0
  8 16  1  0  0  0  0
  8 20  2  0  0  0  0
  9 19  2  0  0  0  0
  9 20  1  0  0  0  0
 10 20  1  0  0  0  0
 10 41  1  0  0  0  0
 10 42  1  0  0  0  0
 11 12  1  0  0  0  0
 11 13  1  0  0  0  0
 11 25  1  0  0  0  0
 12 26  1  0  0  0  0
 13 14  1  0  0  0  0
 13 27  1  0  0  0  0
 14 15  1  0  0  0  0
 14 28  1  0  0  0  0
 15 29  1  0  0  0  0
 15 30  1  0  0  0  0
 16 18  2  0  0  0  0
 17 33  1  0  0  0  0
 18 19  1  0  0  0  0
 21 22  1  0  0  0  0
 21 35  1  0  0  0  0
 21 36  1  0  0  0  0
 22 23  1  0  0  0  0
 22 37  1  0  0  0  0
 22 38  1  0  0  0  0
 23 24  1  0  0  0  0
 23 39  1  0  0  0  0
 23 40  1  0  0  0  0
 24 43  1  0  0  0  0
 24 44  1  0  0  0  0
 24 45  1  0  0  0  0
M  END
> <PUBCHEM_COMPOUND_CID>
133940

> <PUBCHEM_CONFORMER_RMSD>
0.8

> <PUBCHEM_CONFORMER_DIVERSEORDER>
1
15
161
52
70
80
152
32
75
21
177
114
142
103
90
57
25
145
5
36
188
165
160
11
109
148
95
93
196
202
187
110
2
104
193
151
87
42
7
29
117
150
92
99
60
91
68
143
203
24
174
94
100
179
48
55
6
26
86
59
38
200
43
4
190
147
192
76
39
101
138
14
45
8
185
63
170
107
172
28
155
137
127
37
171
27
115
46
58
166
118
20
191
30
178
111
195
119
88
9
163
169
66
73
49
129
182
83
85
116
82
19
41
189
102
71
153
72
69
181
186
154
156
13
51
197
146
125
47
126
175
123
67
198
44
31
77
159
64
121
62
61
108
84
167
194
35
12
113
205
135
199
23
136
89
112
65
53
16
130
176
134
96
120
3
184
10
97
105
22
183
18
204
33
164
139
162
40
124
131
141
158
140
34
54
180
98
168
74
128
132
144
133
79
78
157
56
17
122
81
149
106
50
201
173

> <PUBCHEM_MMFF94_PARTIAL_CHARGES>
27
1 -0.56
10 -0.9
11 0.28
12 0.54
13 0.28
14 0.28
15 0.28
16 0.11
17 0.04
18 0.23
19 0.39
2 -0.68
20 0.72
21 0.28
3 -0.68
31 0.4
32 0.4
33 0.15
34 0.4
4 -0.68
41 0.4
42 0.4
5 -0.36
6 0.05
7 -0.57
8 -0.57
9 -0.62

> <PUBCHEM_EFFECTIVE_ROTOR_COUNT>
7

> <PUBCHEM_PHARMACOPHORE_FEATURES>
14
1 1 acceptor
1 10 donor
1 2 acceptor
1 2 donor
1 24 hydrophobe
1 3 acceptor
1 3 donor
1 4 acceptor
1 4 donor
3 6 7 17 cation
4 8 9 10 20 cation
5 1 11 12 13 14 rings
5 6 7 16 17 18 rings
6 8 9 16 18 19 20 rings

> <PUBCHEM_HEAVY_ATOM_COUNT>
24

> <PUBCHEM_ATOM_DEF_STEREO_COUNT>
4

> <PUBCHEM_ATOM_UDEF_STEREO_COUNT>
0

> <PUBCHEM_BOND_DEF_STEREO_COUNT>
0

> <PUBCHEM_BOND_UDEF_STEREO_COUNT>
0

> <PUBCHEM_ISOTOPIC_ATOM_COUNT>
0

> <PUBCHEM_COMPONENT_COUNT>
1

> <PUBCHEM_CACTVS_TAUTO_COUNT>
3

> <PUBCHEM_CONFORMER_ID>
00020B3400000001

> <PUBCHEM_MMFF94_ENERGY>
54.6071

> <PUBCHEM_FEATURE_SELFOVERLAP>
71.194

> <PUBCHEM_SHAPE_FINGERPRINT>
10411042 1 17543625336340835475
10693767 8 18057033619834687743
11796584 16 15554436406343408527
12166972 35 13398628368488767755
12236239 1 17240485840445490258
13533116 47 17917992733058506491
14790565 3 18264773169011028745
15183329 4 17203329966946545101
15375358 24 18341331192958418018
17980427 23 17751072733968615628
18222031 100 12895353308673341483
20645477 70 17418382376681366644
21150785 3 16917063387028719629
21521239 73 17846493704482518591
21521721 280 18341898481134731329
21792934 111 18262506001398183353
21859007 373 17533758439420114844
221357 26 17989205906651576737
2215653 11 18202290177597690607
22224240 67 18187642501869288193
23536379 177 16487256539494135105
23557571 272 18266751366749429610
23559900 14 18410864270045167510
293599 30 18333732408011390479
29717793 49 16845579690483372436
3004659 81 18260833644665996926
335352 9 18336549331000722846
3472631 163 18115033003753258924
34797466 226 17418376895802566773
34934 24 18408879672330430058
3759504 43 17676212390070396099
465052 167 11887665191531722213
495365 180 17774994692226347906
5104073 3 18408326587769390290
5758199 1 18410013213917775441
59682541 52 17346318146644763781
59755656 215 18201721696475380949

> <PUBCHEM_SHAPE_MULTIPOLES>
439.66
16.39
2.53
1.05
23.71
1.7
-0.18
-11.6
-2.97
-0.02
0.7
-1.73
-0.09
1.98

> <PUBCHEM_SHAPE_SELFOVERLAP>
929.821

> <PUBCHEM_SHAPE_VOLUME>
244.1

> <PUBCHEM_COORDINATE_TYPE>
2
5
10

$$$$
