134088
  -OEChem-03292013323D

 42 44  0     1  0  0  0  0  0999 V2000
    2.9461    0.6459    0.9587 O   0  0  0  0  0  0  0  0  0  0  0  0
    2.3650   -2.1137   -1.2700 O   0  0  0  0  0  0  0  0  0  0  0  0
    4.5304   -1.8890    0.3567 O   0  0  0  0  0  0  0  0  0  0  0  0
    4.5931    2.8637    0.4780 O   0  0  0  0  0  0  0  0  0  0  0  0
   -3.7367    1.0876   -0.4439 O   0  0  0  0  0  0  0  0  0  0  0  0
    0.7627    0.2620    0.1128 N   0  0  0  0  0  0  0  0  0  0  0  0
   -0.7682    1.8098   -0.3758 N   0  0  0  0  0  0  0  0  0  0  0  0
   -0.6847   -1.6597    0.4514 N   0  0  0  0  0  0  0  0  0  0  0  0
   -3.0309   -1.0730    0.1240 N   0  0  0  0  0  0  0  0  0  0  0  0
   -2.3829   -3.2513    0.6921 N   0  0  0  0  0  0  0  0  0  0  0  0
    2.7821   -0.8162   -0.8972 C   0  0  1  0  0  0  0  0  0  0  0  0
    2.0746   -0.3322    0.3594 C   0  0  1  0  0  0  0  0  0  0  0  0
    4.2344   -0.7603   -0.4660 C   0  0  1  0  0  0  0  0  0  0  0  0
    4.2698    0.4985    0.3949 C   0  0  1  0  0  0  0  0  0  0  0  0
    4.5944    1.7538   -0.4027 C   0  0  0  0  0  0  0  0  0  0  0  0
   -0.4481   -0.3707    0.1652 C   0  0  0  0  0  0  0  0  0  0  0  0
    0.5165    1.5700   -0.2155 C   0  0  0  0  0  0  0  0  0  0  0  0
   -1.3828    0.6056   -0.1409 C   0  0  0  0  0  0  0  0  0  0  0  0
   -2.7181    0.2152   -0.1560 C   0  0  0  0  0  0  0  0  0  0  0  0
   -2.0099   -1.9179    0.4062 C   0  0  0  0  0  0  0  0  0  0  0  0
   -4.9924    0.8286    0.1711 C   0  0  0  0  0  0  0  0  0  0  0  0
   -5.7116    2.1465    0.4151 C   0  0  0  0  0  0  0  0  0  0  0  0
   -5.8025   -0.1031   -0.7175 C   0  0  0  0  0  0  0  0  0  0  0  0
    2.6080   -0.1361   -1.7390 H   0  0  0  0  0  0  0  0  0  0  0  0
    1.9256   -1.1373    1.0895 H   0  0  0  0  0  0  0  0  0  0  0  0
    4.9371   -0.7631   -1.3041 H   0  0  0  0  0  0  0  0  0  0  0  0
    4.9612    0.4056    1.2401 H   0  0  0  0  0  0  0  0  0  0  0  0
    3.8531    1.9487   -1.1840 H   0  0  0  0  0  0  0  0  0  0  0  0
    5.5831    1.6821   -0.8654 H   0  0  0  0  0  0  0  0  0  0  0  0
    2.5715   -2.7183   -0.5370 H   0  0  0  0  0  0  0  0  0  0  0  0
    5.4521   -1.7978    0.6530 H   0  0  0  0  0  0  0  0  0  0  0  0
    1.3050    2.3012   -0.3296 H   0  0  0  0  0  0  0  0  0  0  0  0
    3.7111    2.9144    0.8845 H   0  0  0  0  0  0  0  0  0  0  0  0
   -4.8500    0.3602    1.1547 H   0  0  0  0  0  0  0  0  0  0  0  0
   -6.6807    1.9898    0.8982 H   0  0  0  0  0  0  0  0  0  0  0  0
   -5.1048    2.7997    1.0515 H   0  0  0  0  0  0  0  0  0  0  0  0
   -5.8712    2.6847   -0.5258 H   0  0  0  0  0  0  0  0  0  0  0  0
   -6.7954   -0.2834   -0.2931 H   0  0  0  0  0  0  0  0  0  0  0  0
   -5.3194   -1.0732   -0.8601 H   0  0  0  0  0  0  0  0  0  0  0  0
   -5.9287    0.3296   -1.7166 H   0  0  0  0  0  0  0  0  0  0  0  0
   -1.6676   -3.9312    0.9098 H   0  0  0  0  0  0  0  0  0  0  0  0
   -3.3602   -3.5080    0.6736 H   0  0  0  0  0  0  0  0  0  0  0  0
  1 12  1  0  0  0  0
  1 14  1  0  0  0  0
  2 11  1  0  0  0  0
  2 30  1  0  0  0  0
  3 13  1  0  0  0  0
  3 31  1  0  0  0  0
  4 15  1  0  0  0  0
  4 33  1  0  0  0  0
  5 19  1  0  0  0  0
  5 21  1  0  0  0  0
  6 12  1  0  0  0  0
  6 16  1  0  0  0  0
  6 17  1  0  0  0  0
  7 17  2  0  0  0  0
  7 18  1  0  0  0  0
  8 16  1  0  0  0  0
  8 20  2  0  0  0  0
  9 19  2  0  0  0  0
  9 20  1  0  0  0  0
 10 20  1  0  0  0  0
 10 41  1  0  0  0  0
 10 42  1  0  0  0  0
 11 12  1  0  0  0  0
 11 13  1  0  0  0  0
 11 24  1  0  0  0  0
 12 25  1  0  0  0  0
 13 14  1  0  0  0  0
 13 26  1  0  0  0  0
 14 15  1  0  0  0  0
 14 27  1  0  0  0  0
 15 28  1  0  0  0  0
 15 29  1  0  0  0  0
 16 18  2  0  0  0  0
 17 32  1  0  0  0  0
 18 19  1  0  0  0  0
 21 22  1  0  0  0  0
 21 23  1  0  0  0  0
 21 34  1  0  0  0  0
 22 35  1  0  0  0  0
 22 36  1  0  0  0  0
 22 37  1  0  0  0  0
 23 38  1  0  0  0  0
 23 39  1  0  0  0  0
 23 40  1  0  0  0  0
M  END
> <PUBCHEM_COMPOUND_CID>
134088

> <PUBCHEM_CONFORMER_RMSD>
0.8

> <PUBCHEM_CONFORMER_DIVERSEORDER>
3
36
24
2
29
11
38
25
18
37
30
16
13
1
23
34
27
32
20
14
31
19
39
21
26
35
15
9
12
5
4
8
7
40
22
28
6
17
33
10

> <PUBCHEM_MMFF94_PARTIAL_CHARGES>
27
1 -0.56
10 -0.9
11 0.28
12 0.54
13 0.28
14 0.28
15 0.28
16 0.11
17 0.04
18 0.23
19 0.39
2 -0.68
20 0.72
21 0.28
3 -0.68
30 0.4
31 0.4
32 0.15
33 0.4
4 -0.68
41 0.4
42 0.4
5 -0.36
6 0.05
7 -0.57
8 -0.57
9 -0.62

> <PUBCHEM_EFFECTIVE_ROTOR_COUNT>
5

> <PUBCHEM_PHARMACOPHORE_FEATURES>
14
1 1 acceptor
1 10 donor
1 2 acceptor
1 2 donor
1 3 acceptor
1 3 donor
1 4 acceptor
1 4 donor
3 21 22 23 hydrophobe
3 6 7 17 cation
4 8 9 10 20 cation
5 1 11 12 13 14 rings
5 6 7 16 17 18 rings
6 8 9 16 18 19 20 rings

> <PUBCHEM_HEAVY_ATOM_COUNT>
23

> <PUBCHEM_ATOM_DEF_STEREO_COUNT>
4

> <PUBCHEM_ATOM_UDEF_STEREO_COUNT>
0

> <PUBCHEM_BOND_DEF_STEREO_COUNT>
0

> <PUBCHEM_BOND_UDEF_STEREO_COUNT>
0

> <PUBCHEM_ISOTOPIC_ATOM_COUNT>
0

> <PUBCHEM_COMPONENT_COUNT>
1

> <PUBCHEM_CACTVS_TAUTO_COUNT>
3

> <PUBCHEM_CONFORMER_ID>
00020BC800000003

> <PUBCHEM_MMFF94_ENERGY>
59.7075

> <PUBCHEM_FEATURE_SELFOVERLAP>
71.196

> <PUBCHEM_SHAPE_FINGERPRINT>
10366900 7 17561085821317078624
10906281 52 18270135559880591645
11405975 8 18408321086332742122
11578080 2 17058351825003477387
12236239 1 18202561757777086765
12403259 118 18121207934544377576
12788726 201 17846222098628718769
12969540 114 18187911851704871389
13533116 47 18060420179312240338
13544592 145 18340776927028202662
13862211 1 18335697205183542939
14528608 73 18202281441782267244
14790565 3 18337677386992087049
15099037 51 18335139769962595175
15196674 1 18409730681260764835
15375358 24 18412546521944263926
17834072 33 18060415828837670557
17980427 23 17605555668388101380
19141452 34 18409167718707219871
200 152 17203323386276029623
20645477 56 18333170570143411997
20645477 70 17775288222933568326
21279426 13 18267867181777655821
21304253 335 18334581269068337476
21421861 104 17823122459399610658
21859007 373 17460854229829135348
23402539 116 18343295930222392709
23557571 272 18265346164776592622
23558518 356 17753618137408862843
23559900 14 18411419501799984742
293599 30 18335140848120907029
3004659 81 18335421232212763326
335352 9 18337391543869599678
34797466 226 17346325954516038605
34934 24 18408600391986945034
350125 39 17973442105169277402
3545911 37 18335702758666005492
4073 2 18188212108631881898
495365 180 17632282493740268738
5104073 3 18334293197248129152
633830 44 18270113501355541741
9709674 26 18341899550170572982

> <PUBCHEM_SHAPE_MULTIPOLES>
419.08
12.2
2.68
0.84
5.43
0.57
-0.08
-4.8
-0.3
-0.33
0.34
-0.22
0.15
0.55

> <PUBCHEM_SHAPE_SELFOVERLAP>
896.253

> <PUBCHEM_SHAPE_VOLUME>
231.3

> <PUBCHEM_COORDINATE_TYPE>
2
5
10

$$$$
