134090
  -OEChem-03292013323D

 43 44  0     1  0  0  0  0  0999 V2000
   -2.0210   -0.1491    1.4222 O   0  0  0  0  0  0  0  0  0  0  0  0
   -5.9440    1.0449    0.9461 O   0  0  0  0  0  0  0  0  0  0  0  0
   -0.0134    0.5470   -1.9456 O   0  0  0  0  0  0  0  0  0  0  0  0
    1.9876    2.7319    1.7496 O   0  0  0  0  0  0  0  0  0  0  0  0
    2.3769    4.4844    0.3743 O   0  0  0  0  0  0  0  0  0  0  0  0
   -4.4699   -0.7739    0.9147 N   0  0  0  0  0  0  0  0  0  0  0  0
   -1.1507   -1.3764   -0.3548 N   0  0  0  0  0  0  0  0  0  0  0  0
    1.4177    1.0483   -0.1865 N   0  0  0  0  0  0  0  0  0  0  0  0
    3.6822   -2.0142   -0.7720 N   0  0  0  0  0  0  0  0  0  0  0  0
    4.3268   -2.0758    1.3523 N   0  0  0  0  0  0  0  0  0  0  0  0
   -3.5177   -1.3486    0.0069 C   0  0  1  0  0  0  0  0  0  0  0  0
   -3.9153   -0.7795   -1.3418 C   0  0  0  0  0  0  0  0  0  0  0  0
   -4.5857    0.5527   -1.0068 C   0  0  0  0  0  0  0  0  0  0  0  0
    0.2415   -1.0624   -0.1509 C   0  0  1  0  0  0  0  0  0  0  0  0
   -2.1665   -0.8900    0.4535 C   0  0  0  0  0  0  0  0  0  0  0  0
   -5.1196    0.3373    0.3882 C   0  0  0  0  0  0  0  0  0  0  0  0
    1.1633   -2.1751   -0.6644 C   0  0  0  0  0  0  0  0  0  0  0  0
    0.5272    0.2441   -0.8840 C   0  0  0  0  0  0  0  0  0  0  0  0
    2.5358   -2.1203   -0.0360 C   0  0  0  0  0  0  0  0  0  0  0  0
    1.8198    2.3610   -0.6377 C   0  0  2  0  0  0  0  0  0  0  0  0
    2.9592   -2.1571    1.2718 C   0  0  0  0  0  0  0  0  0  0  0  0
    3.0489    2.2597   -1.5285 C   0  0  0  0  0  0  0  0  0  0  0  0
    4.7313   -1.9913    0.1044 C   0  0  0  0  0  0  0  0  0  0  0  0
    2.0855    3.3025    0.5250 C   0  0  0  0  0  0  0  0  0  0  0  0
   -3.5790   -2.4401    0.0469 H   0  0  0  0  0  0  0  0  0  0  0  0
   -3.0945   -0.6517   -2.0533 H   0  0  0  0  0  0  0  0  0  0  0  0
   -4.6574   -1.4393   -1.8096 H   0  0  0  0  0  0  0  0  0  0  0  0
   -3.8589    1.3706   -0.9831 H   0  0  0  0  0  0  0  0  0  0  0  0
   -5.3935    0.7877   -1.7038 H   0  0  0  0  0  0  0  0  0  0  0  0
    0.3792   -0.9106    0.9268 H   0  0  0  0  0  0  0  0  0  0  0  0
   -4.6275   -1.1143    1.8582 H   0  0  0  0  0  0  0  0  0  0  0  0
   -1.3929   -1.9479   -1.1593 H   0  0  0  0  0  0  0  0  0  0  0  0
    0.7327   -3.1554   -0.4207 H   0  0  0  0  0  0  0  0  0  0  0  0
    1.2470   -2.1344   -1.7581 H   0  0  0  0  0  0  0  0  0  0  0  0
    1.8249    0.7030    0.6777 H   0  0  0  0  0  0  0  0  0  0  0  0
    0.9859    2.7887   -1.2068 H   0  0  0  0  0  0  0  0  0  0  0  0
    3.7463   -1.9602   -1.7799 H   0  0  0  0  0  0  0  0  0  0  0  0
    2.3509   -2.2382    2.1611 H   0  0  0  0  0  0  0  0  0  0  0  0
    3.3489    3.2446   -1.9019 H   0  0  0  0  0  0  0  0  0  0  0  0
    2.8586    1.6127   -2.3915 H   0  0  0  0  0  0  0  0  0  0  0  0
    3.9000    1.8399   -0.9797 H   0  0  0  0  0  0  0  0  0  0  0  0
    5.7562   -1.9108   -0.2288 H   0  0  0  0  0  0  0  0  0  0  0  0
    2.1721    3.3728    2.4689 H   0  0  0  0  0  0  0  0  0  0  0  0
  1 15  2  0  0  0  0
  2 16  2  0  0  0  0
  3 18  2  0  0  0  0
  4 24  1  0  0  0  0
  4 43  1  0  0  0  0
  5 24  2  0  0  0  0
  6 11  1  0  0  0  0
  6 16  1  0  0  0  0
  6 31  1  0  0  0  0
  7 14  1  0  0  0  0
  7 15  1  0  0  0  0
  7 32  1  0  0  0  0
  8 18  1  0  0  0  0
  8 20  1  0  0  0  0
  8 35  1  0  0  0  0
  9 19  1  0  0  0  0
  9 23  1  0  0  0  0
  9 37  1  0  0  0  0
 10 21  1  0  0  0  0
 10 23  2  0  0  0  0
 11 12  1  0  0  0  0
 11 15  1  0  0  0  0
 11 25  1  0  0  0  0
 12 13  1  0  0  0  0
 12 26  1  0  0  0  0
 12 27  1  0  0  0  0
 13 16  1  0  0  0  0
 13 28  1  0  0  0  0
 13 29  1  0  0  0  0
 14 17  1  0  0  0  0
 14 18  1  0  0  0  0
 14 30  1  0  0  0  0
 17 19  1  0  0  0  0
 17 33  1  0  0  0  0
 17 34  1  0  0  0  0
 19 21  2  0  0  0  0
 20 22  1  0  0  0  0
 20 24  1  0  0  0  0
 20 36  1  0  0  0  0
 21 38  1  0  0  0  0
 22 39  1  0  0  0  0
 22 40  1  0  0  0  0
 22 41  1  0  0  0  0
 23 42  1  0  0  0  0
M  END
> <PUBCHEM_COMPOUND_CID>
134090

> <PUBCHEM_CONFORMER_RMSD>
1

> <PUBCHEM_CONFORMER_DIVERSEORDER>
1
91
114
68
27
105
76
10
55
98
23
26
99
50
52
66
63
77
14
113
96
103
48
71
74
111
72
80
54
8
7
101
79
40
110
6
32
31
3
56
45
94
85
97
13
33
34
43
51
61
24
53
2
11
46
104
35
64
84
102
36
29
15
109
107
30
57
47
92
17
59
100
49
18
4
82
16
20
62
12
38
19
86
83
89
60
9
95
73
5
67
78
81
58
70
37
65
93
41
22
28
108
69
21
44
39
87
75
106
25
112
90
42
88

> <PUBCHEM_MMFF94_PARTIAL_CHARGES>
29
1 -0.57
10 -0.57
11 0.36
13 0.06
14 0.36
15 0.57
16 0.57
17 0.18
18 0.57
19 -0.33
2 -0.57
20 0.36
21 0.08
23 0.04
24 0.66
3 -0.57
31 0.37
32 0.37
35 0.37
37 0.27
38 0.15
4 -0.65
42 0.15
43 0.5
5 -0.57
6 -0.73
7 -0.73
8 -0.73
9 0.03

> <PUBCHEM_EFFECTIVE_ROTOR_COUNT>
9.8

> <PUBCHEM_PHARMACOPHORE_FEATURES>
13
1 1 acceptor
1 2 acceptor
1 3 acceptor
1 4 acceptor
1 5 acceptor
1 6 donor
1 7 donor
1 8 donor
1 9 donor
3 4 5 24 anion
3 9 10 23 cation
5 6 11 12 13 16 rings
5 9 10 19 21 23 rings

> <PUBCHEM_HEAVY_ATOM_COUNT>
24

> <PUBCHEM_ATOM_DEF_STEREO_COUNT>
3

> <PUBCHEM_ATOM_UDEF_STEREO_COUNT>
0

> <PUBCHEM_BOND_DEF_STEREO_COUNT>
0

> <PUBCHEM_BOND_UDEF_STEREO_COUNT>
0

> <PUBCHEM_ISOTOPIC_ATOM_COUNT>
0

> <PUBCHEM_COMPONENT_COUNT>
1

> <PUBCHEM_CACTVS_TAUTO_COUNT>
24

> <PUBCHEM_CONFORMER_ID>
00020BCA00000001

> <PUBCHEM_MMFF94_ENERGY>
40.7175

> <PUBCHEM_FEATURE_SELFOVERLAP>
66.034

> <PUBCHEM_SHAPE_FINGERPRINT>
11405975 8 18334862723340227787
12166972 35 18202278083381585899
12516196 113 18338515236158327842
12549972 3 17749686167800568169
12788726 201 17972598784505131442
13004483 165 17980191994157366643
13134695 92 18409165476549798638
13140716 1 18335143124390744723
13294875 104 18056761151213933424
13533116 47 18335701710847147879
13590594 115 18266460910426878145
13878862 14 18335965524976386421
13899415 154 18337966605836595262
14178342 30 17684088358962862302
14466204 15 18120090585632051979
14955137 171 18341058419306472070
15295992 7 18260843587699559667
15527383 91 18187931638461234063
17868525 174 18335979762170414817
17980427 23 17775002332740916025
17980427 26 18054780947910247060
1813 80 18270965631256997374
18222031 100 18341610365727793334
18785283 64 18335699498384725828
192875 21 18130792222372960539
20832881 197 18041840593224429011
21304253 13 18342453695593459530
23419403 2 18042381613333001318
23559900 14 18411133641076349595
3411729 13 18262242230703525308
345986 75 17462832195497462210
5104073 3 18336277816496127859
56638632 10 17770187730458903576
5895379 119 17344090493047883617
633830 44 17985273108162053189
6443956 14 18410571778129234728
67856867 119 18342733061762502019
69474 34 18410001118561992922
81228 2 17688322191931617878
84936 182 18199470037778684481
9841814 1 18261387828427487610
9971528 1 18059294249467812014
9981440 41 17907290314543958065

> <PUBCHEM_SHAPE_MULTIPOLES>
439.66
10.55
4.04
1.45
12.22
4.48
0.03
-2.37
-1.76
-6.95
-0.8
-0.13
0.35
-0.53

> <PUBCHEM_SHAPE_SELFOVERLAP>
915.495

> <PUBCHEM_SHAPE_VOLUME>
249.9

> <PUBCHEM_COORDINATE_TYPE>
2
5
10

$$$$
