134059
  -OEChem-03292013323D

 46 47  0     1  0  0  0  0  0999 V2000
    1.7912   -1.4660   -1.2143 O   0  0  0  0  0  0  0  0  0  0  0  0
    1.4894    2.7796   -0.5848 O   0  0  0  0  0  0  0  0  0  0  0  0
   -0.8599    0.0842    1.9955 O   0  0  0  0  0  0  0  0  0  0  0  0
   -5.1075    2.1846    0.6054 O   0  0  0  0  0  0  0  0  0  0  0  0
    8.5883    0.2334   -0.4872 O   0  5  0  0  0  0  0  0  0  0  0  0
    8.1483   -0.9391    1.3159 O   0  0  0  0  0  0  0  0  0  0  0  0
   -8.6294   -0.2538   -1.0511 O   0  0  0  0  0  0  0  0  0  0  0  0
   -0.0540    0.3567   -0.1653 N   0  0  0  0  0  0  0  0  0  0  0  0
   -6.6965   -1.3383   -0.4534 N   0  0  0  0  0  0  0  0  0  0  0  0
    7.7746   -0.3312    0.2836 N   0  3  0  0  0  0  0  0  0  0  0  0
   -6.8677    0.9730   -0.2248 N   0  0  0  0  0  0  0  0  0  0  0  0
    1.3421    0.4649    0.1893 C   0  0  1  0  0  0  0  0  0  0  0  0
    2.2110   -0.1248   -0.9423 C   0  0  1  0  0  0  0  0  0  0  0  0
    3.6865   -0.1801   -0.6170 C   0  0  0  0  0  0  0  0  0  0  0  0
    1.6673    1.9227    0.5358 C   0  0  0  0  0  0  0  0  0  0  0  0
    4.5894    0.4409   -1.4634 C   0  0  0  0  0  0  0  0  0  0  0  0
    4.1046   -0.8499    0.5205 C   0  0  0  0  0  0  0  0  0  0  0  0
   -1.0434    0.1733    0.7857 C   0  0  0  0  0  0  0  0  0  0  0  0
    5.9508    0.3904   -1.1634 C   0  0  0  0  0  0  0  0  0  0  0  0
    5.4659   -0.9001    0.8205 C   0  0  0  0  0  0  0  0  0  0  0  0
    6.3890   -0.2800   -0.0215 C   0  0  0  0  0  0  0  0  0  0  0  0
   -2.3966    0.0879    0.1700 C   0  0  0  0  0  0  0  0  0  0  0  0
   -4.8084   -0.1827    0.4162 C   0  0  0  0  0  0  0  0  0  0  0  0
   -3.4668   -0.0900    0.9462 C   0  0  0  0  0  0  0  0  0  0  0  0
   -5.4072   -1.3329    0.0388 C   0  0  0  0  0  0  0  0  0  0  0  0
   -5.5854    1.0986    0.2823 C   0  0  0  0  0  0  0  0  0  0  0  0
   -4.7952   -2.7090    0.0915 C   0  0  0  0  0  0  0  0  0  0  0  0
   -7.4808   -0.2123   -0.6086 C   0  0  0  0  0  0  0  0  0  0  0  0
    1.4761   -0.1324    1.0994 H   0  0  0  0  0  0  0  0  0  0  0  0
    2.0484    0.4420   -1.8677 H   0  0  0  0  0  0  0  0  0  0  0  0
    1.0212    2.2889    1.3414 H   0  0  0  0  0  0  0  0  0  0  0  0
    2.7019    2.0264    0.8766 H   0  0  0  0  0  0  0  0  0  0  0  0
   -0.3090    0.4748   -1.1420 H   0  0  0  0  0  0  0  0  0  0  0  0
    4.2599    0.9666   -2.3548 H   0  0  0  0  0  0  0  0  0  0  0  0
    3.4026   -1.3499    1.1808 H   0  0  0  0  0  0  0  0  0  0  0  0
    0.8408   -1.4391   -1.4180 H   0  0  0  0  0  0  0  0  0  0  0  0
    6.6410    0.8851   -1.8420 H   0  0  0  0  0  0  0  0  0  0  0  0
    5.7713   -1.4338    1.7169 H   0  0  0  0  0  0  0  0  0  0  0  0
    0.5724    2.6715   -0.8898 H   0  0  0  0  0  0  0  0  0  0  0  0
   -2.4837    0.1566   -0.9097 H   0  0  0  0  0  0  0  0  0  0  0  0
   -3.3866   -0.1390    2.0285 H   0  0  0  0  0  0  0  0  0  0  0  0
   -7.0949   -2.2343   -0.7208 H   0  0  0  0  0  0  0  0  0  0  0  0
   -5.4045   -3.3726    0.7148 H   0  0  0  0  0  0  0  0  0  0  0  0
   -3.7841   -2.7088    0.5090 H   0  0  0  0  0  0  0  0  0  0  0  0
   -4.7361   -3.1371   -0.9151 H   0  0  0  0  0  0  0  0  0  0  0  0
   -7.4109    1.8260   -0.3236 H   0  0  0  0  0  0  0  0  0  0  0  0
  1 13  1  0  0  0  0
  1 36  1  0  0  0  0
  2 15  1  0  0  0  0
  2 39  1  0  0  0  0
  3 18  2  0  0  0  0
  4 26  2  0  0  0  0
  5 10  1  0  0  0  0
  6 10  2  0  0  0  0
  7 28  2  0  0  0  0
  8 12  1  0  0  0  0
  8 18  1  0  0  0  0
  8 33  1  0  0  0  0
  9 25  1  0  0  0  0
  9 28  1  0  0  0  0
  9 42  1  0  0  0  0
 10 21  1  0  0  0  0
 11 26  1  0  0  0  0
 11 28  1  0  0  0  0
 11 46  1  0  0  0  0
 12 13  1  0  0  0  0
 12 15  1  0  0  0  0
 12 29  1  0  0  0  0
 13 14  1  0  0  0  0
 13 30  1  0  0  0  0
 14 16  2  0  0  0  0
 14 17  1  0  0  0  0
 15 31  1  0  0  0  0
 15 32  1  0  0  0  0
 16 19  1  0  0  0  0
 16 34  1  0  0  0  0
 17 20  2  0  0  0  0
 17 35  1  0  0  0  0
 18 22  1  0  0  0  0
 19 21  2  0  0  0  0
 19 37  1  0  0  0  0
 20 21  1  0  0  0  0
 20 38  1  0  0  0  0
 22 24  2  3  0  0  0
 22 40  1  0  0  0  0
 23 24  1  0  0  0  0
 23 25  2  0  0  0  0
 23 26  1  0  0  0  0
 24 41  1  0  0  0  0
 25 27  1  0  0  0  0
 27 43  1  0  0  0  0
 27 44  1  0  0  0  0
 27 45  1  0  0  0  0
M  CHG  2   5  -1  10   1
M  END
> <PUBCHEM_COMPOUND_CID>
134059

> <PUBCHEM_CONFORMER_RMSD>
1

> <PUBCHEM_CONFORMER_DIVERSEORDER>
2
12
27
18
14
26
4
25
19
6
24
15
1
17
3
20
16
28
23
11
5
13
9
7
10
21
22
8

> <PUBCHEM_MMFF94_PARTIAL_CHARGES>
39
1 -0.68
10 0.91
11 -0.49
12 0.3
13 0.42
14 -0.14
15 0.28
16 -0.15
17 -0.15
18 0.62
19 -0.15
2 -0.68
20 -0.15
21 0.13
22 -0.14
23 0.01
24 -0.15
25 -0.03
26 0.62
27 0.14
28 0.69
3 -0.57
33 0.37
34 0.15
35 0.15
36 0.4
37 0.15
38 0.15
39 0.4
4 -0.57
40 0.15
41 0.15
42 0.37
46 0.37
5 -0.52
6 -0.52
7 -0.57
8 -0.73
9 -0.54

> <PUBCHEM_EFFECTIVE_ROTOR_COUNT>
8

> <PUBCHEM_PHARMACOPHORE_FEATURES>
15
1 1 acceptor
1 1 donor
1 11 donor
1 2 acceptor
1 2 donor
1 3 acceptor
1 4 acceptor
1 5 acceptor
1 5 anion
1 6 acceptor
1 7 acceptor
1 8 donor
1 9 donor
6 14 16 17 19 20 21 rings
6 9 11 23 25 26 28 rings

> <PUBCHEM_HEAVY_ATOM_COUNT>
28

> <PUBCHEM_ATOM_DEF_STEREO_COUNT>
2

> <PUBCHEM_ATOM_UDEF_STEREO_COUNT>
0

> <PUBCHEM_BOND_DEF_STEREO_COUNT>
0

> <PUBCHEM_BOND_UDEF_STEREO_COUNT>
1

> <PUBCHEM_ISOTOPIC_ATOM_COUNT>
0

> <PUBCHEM_COMPONENT_COUNT>
1

> <PUBCHEM_CACTVS_TAUTO_COUNT>
21

> <PUBCHEM_CONFORMER_ID>
00020BAB00000002

> <PUBCHEM_MMFF94_ENERGY>
73.3323

> <PUBCHEM_FEATURE_SELFOVERLAP>
76.259

> <PUBCHEM_SHAPE_FINGERPRINT>
10 15 17561077025725183530
10299344 5 18113618988618176290
106641 1 13830128412569639639
10670039 82 17385999543172809085
10835480 77 17168718556295901828
11135609 127 16661218073811450028
11315181 36 18334580153299441001
11719270 70 18202003209643346654
12516196 113 17275106119703025088
13668630 136 16487259872478317701
14251764 18 18113902650165724828
14251764 46 17918275354807283446
15183329 4 17967532371998847873
15419008 47 17203322286812415049
15461852 350 17132111368657182989
15728490 51 14764339461803816117
15840311 113 18410577323866145556
15849732 13 17775566442298681676
18681886 176 18272927250189540131
21150785 3 18273215296281700797
22224240 67 17203607086689508030
23559900 14 18270395131230948809
249057 3 18410855491005316247
28498 318 16225764099870262858
3004659 81 18342737442671257729
34797466 226 13398633857879217928
4073 2 18041284390701507595
4093350 32 12396287171956273864
4325135 7 18333168366593230119
59682541 35 16200144417907097866
6081469 158 14634865315900196282

> <PUBCHEM_SHAPE_MULTIPOLES>
515.22
26.16
1.77
1.18
0.91
0.26
0.07
-4.89
-2.89
-1.91
0.03
0.78
-0.03
-1.1

> <PUBCHEM_SHAPE_SELFOVERLAP>
1087.771

> <PUBCHEM_SHAPE_VOLUME>
286.3

> <PUBCHEM_COORDINATE_TYPE>
2
5
10

$$$$
