134006
  -OEChem-03292013323D

 27 28  0     0  0  0  0  0  0999 V2000
    1.0310   -2.6696   -0.0157 S   0  0  0  0  0  0  0  0  0  0  0  0
    6.7183    2.0634    0.4206 S   0  0  0  0  0  0  0  0  0  0  0  0
   -0.9162    1.5291   -0.3184 O   0  0  0  0  0  0  0  0  0  0  0  0
   -0.8099   -0.8033   -0.0429 N   0  0  0  0  0  0  0  0  0  0  0  0
    1.4852   -0.1503   -0.3752 N   0  0  0  0  0  0  0  0  0  0  0  0
    4.4906    0.4379    0.6184 N   0  0  0  0  0  0  0  0  0  0  0  0
   -2.9124    0.3868    0.0102 C   0  0  0  0  0  0  0  0  0  0  0  0
    2.6999   -0.8058   -0.4282 C   0  0  0  0  0  0  0  0  0  0  0  0
    0.5632   -1.0382   -0.1646 C   0  0  0  0  0  0  0  0  0  0  0  0
   -1.4651    0.4326   -0.1232 C   0  0  0  0  0  0  0  0  0  0  0  0
    3.9185   -0.0059   -0.6609 C   0  0  0  0  0  0  0  0  0  0  0  0
    2.6550   -2.1732   -0.2553 C   0  0  0  0  0  0  0  0  0  0  0  0
   -3.6992    1.3730   -0.5850 C   0  0  0  0  0  0  0  0  0  0  0  0
   -3.5141   -0.6435    0.7328 C   0  0  0  0  0  0  0  0  0  0  0  0
   -5.0875    1.3291   -0.4574 C   0  0  0  0  0  0  0  0  0  0  0  0
   -4.9025   -0.6874    0.8604 C   0  0  0  0  0  0  0  0  0  0  0  0
   -5.6891    0.2989    0.2652 C   0  0  0  0  0  0  0  0  0  0  0  0
    5.4343    1.1262    0.5192 C   0  0  0  0  0  0  0  0  0  0  0  0
   -1.3471   -1.6568    0.0751 H   0  0  0  0  0  0  0  0  0  0  0  0
    4.6513   -0.6059   -1.2184 H   0  0  0  0  0  0  0  0  0  0  0  0
    3.6644    0.8592   -1.2895 H   0  0  0  0  0  0  0  0  0  0  0  0
    3.4693   -2.8841   -0.2572 H   0  0  0  0  0  0  0  0  0  0  0  0
   -3.2521    2.1819   -1.1570 H   0  0  0  0  0  0  0  0  0  0  0  0
   -2.9436   -1.4115    1.2464 H   0  0  0  0  0  0  0  0  0  0  0  0
   -5.7003    2.0964   -0.9213 H   0  0  0  0  0  0  0  0  0  0  0  0
   -5.3712   -1.4843    1.4304 H   0  0  0  0  0  0  0  0  0  0  0  0
   -6.7700    0.2657    0.3661 H   0  0  0  0  0  0  0  0  0  0  0  0
  1  9  1  0  0  0  0
  1 12  1  0  0  0  0
  2 18  2  0  0  0  0
  3 10  2  0  0  0  0
  4  9  1  0  0  0  0
  4 10  1  0  0  0  0
  4 19  1  0  0  0  0
  5  8  1  0  0  0  0
  5  9  2  0  0  0  0
  6 11  1  0  0  0  0
  6 18  2  0  0  0  0
  7 10  1  0  0  0  0
  7 13  2  0  0  0  0
  7 14  1  0  0  0  0
  8 11  1  0  0  0  0
  8 12  2  0  0  0  0
 11 20  1  0  0  0  0
 11 21  1  0  0  0  0
 12 22  1  0  0  0  0
 13 15  1  0  0  0  0
 13 23  1  0  0  0  0
 14 16  2  0  0  0  0
 14 24  1  0  0  0  0
 15 17  2  0  0  0  0
 15 25  1  0  0  0  0
 16 17  1  0  0  0  0
 16 26  1  0  0  0  0
 17 27  1  0  0  0  0
M  END
> <PUBCHEM_COMPOUND_CID>
134006

> <PUBCHEM_CONFORMER_RMSD>
0.6

> <PUBCHEM_CONFORMER_DIVERSEORDER>
1
60
59
28
45
29
53
52
30
7
61
41
21
33
56
26
22
32
35
27
49
14
57
42
23
44
25
36
6
62
12
54
38
20
43
13
48
31
50
55
15
19
39
9
37
58
18
10
51
47
24
11
46
5
16
8
40
4
3
34
17
2

> <PUBCHEM_MMFF94_PARTIAL_CHARGES>
25
1 -0.08
10 0.54
11 0.43
12 -0.11
13 -0.15
14 -0.15
15 -0.15
16 -0.15
17 -0.15
18 0.57
19 0.37
2 -0.27
22 0.15
23 0.15
24 0.15
25 0.15
26 0.15
27 0.15
3 -0.57
4 -0.49
5 -0.57
6 -0.55
7 0.09
8 0.05
9 0.44

> <PUBCHEM_EFFECTIVE_ROTOR_COUNT>
5

> <PUBCHEM_PHARMACOPHORE_FEATURES>
6
1 2 acceptor
1 3 acceptor
1 4 donor
1 6 acceptor
5 1 5 8 9 12 rings
6 7 13 14 15 16 17 rings

> <PUBCHEM_HEAVY_ATOM_COUNT>
18

> <PUBCHEM_ATOM_DEF_STEREO_COUNT>
0

> <PUBCHEM_ATOM_UDEF_STEREO_COUNT>
0

> <PUBCHEM_BOND_DEF_STEREO_COUNT>
0

> <PUBCHEM_BOND_UDEF_STEREO_COUNT>
0

> <PUBCHEM_ISOTOPIC_ATOM_COUNT>
0

> <PUBCHEM_COMPONENT_COUNT>
1

> <PUBCHEM_CACTVS_TAUTO_COUNT>
3

> <PUBCHEM_CONFORMER_ID>
00020B7600000001

> <PUBCHEM_MMFF94_ENERGY>
35.1224

> <PUBCHEM_FEATURE_SELFOVERLAP>
30.451

> <PUBCHEM_SHAPE_FINGERPRINT>
10 15 18260547870468922432
10835480 77 18335696097230050733
11128504 68 16128654150167003178
12403259 118 17821731658256834084
12403259 415 18334575699059574742
12730499 353 18273222993264275390
13533116 47 17386280979278237770
13631057 29 17915731184286894471
13955234 65 18267306430769245786
14123256 34 7853582344181041440
146900 427 18273218577467825963
15183329 4 11095896955522369308
15196674 1 18335424509104271471
15375358 24 18114469980954354051
15475509 35 16444175423745666050
16079462 125 18188198824124098405
19489759 90 17095522890091774817
20567600 254 18411412926062512800
20645477 70 18198343953220358175
21150785 3 17846488245721451605
21452121 103 18336262358460507386
22224240 67 18409727404253407210
23198884 109 15410901777281106936
23272321 79 18411980303589165684
23402539 116 15357696388428268967
23557571 272 17459478744956065263
23559900 14 17896893061882687007
249999 5 18338231571312896402
2838139 119 17988914601064392032
2916195 48 18411979191445973616
300161 21 18260264114938203031
34797466 226 17775010068024437101
34934 24 18412539907858314343
3545911 37 18336552637719228838
5104073 3 18189059698630943635
542803 24 16415480428700975659
543368 44 17417810668815186833
59682541 35 18336551633071188123
59682541 52 16701755869400876668
621550 34 18262515888539181206
67856867 119 18190174594621128986

> <PUBCHEM_SHAPE_MULTIPOLES>
357.32
15.09
2.25
0.81
6.95
0.88
-0.04
-10.04
-2.7
2.26
0.06
-0.1
-0.03
1.35

> <PUBCHEM_SHAPE_SELFOVERLAP>
737.761

> <PUBCHEM_SHAPE_VOLUME>
206.2

> <PUBCHEM_COORDINATE_TYPE>
2
5
10

$$$$
