134004
  -OEChem-03292013323D

 32 33  0     1  0  0  0  0  0999 V2000
    1.3831   -2.9291   -0.6333 F   0  0  0  0  0  0  0  0  0  0  0  0
    1.1800    0.9666   -0.6788 O   0  0  0  0  0  0  0  0  0  0  0  0
    3.2958   -0.6612    1.7116 O   0  0  0  0  0  0  0  0  0  0  0  0
    3.2353    2.8830   -0.9040 O   0  0  0  0  0  0  0  0  0  0  0  0
   -1.7652   -1.8140   -1.2715 O   0  0  0  0  0  0  0  0  0  0  0  0
   -0.9274    0.0598   -0.2167 N   0  0  0  0  0  0  0  0  0  0  0  0
   -3.2913   -0.4102   -0.3485 N   0  0  0  0  0  0  0  0  0  0  0  0
   -4.8499    1.0332    0.5978 N   0  0  0  0  0  0  0  0  0  0  0  0
    1.1215   -1.0023    0.6594 C   0  0  1  0  0  0  0  0  0  0  0  0
    2.5580   -0.5351    0.5126 C   0  0  1  0  0  0  0  0  0  0  0  0
    0.4467   -0.2552   -0.4867 C   0  0  2  0  0  0  0  0  0  0  0  0
    2.3549    0.9268    0.1471 C   0  0  1  0  0  0  0  0  0  0  0  0
    0.9523   -2.5120    0.5828 C   0  0  0  0  0  0  0  0  0  0  0  0
    3.5296    1.5287   -0.6030 C   0  0  0  0  0  0  0  0  0  0  0  0
   -1.2199    1.2200    0.4843 C   0  0  0  0  0  0  0  0  0  0  0  0
   -1.9896   -0.7768   -0.6450 C   0  0  0  0  0  0  0  0  0  0  0  0
   -2.4647    1.5906    0.7783 C   0  0  0  0  0  0  0  0  0  0  0  0
   -3.5492    0.6871    0.3136 C   0  0  0  0  0  0  0  0  0  0  0  0
    0.7359   -0.6720    1.6340 H   0  0  0  0  0  0  0  0  0  0  0  0
    3.0758   -1.0762   -0.2886 H   0  0  0  0  0  0  0  0  0  0  0  0
    0.5151   -0.8157   -1.4264 H   0  0  0  0  0  0  0  0  0  0  0  0
    2.1472    1.5350    1.0370 H   0  0  0  0  0  0  0  0  0  0  0  0
   -0.0942   -2.8079    0.6939 H   0  0  0  0  0  0  0  0  0  0  0  0
    1.5433   -3.0240    1.3473 H   0  0  0  0  0  0  0  0  0  0  0  0
    3.7101    1.0100   -1.5503 H   0  0  0  0  0  0  0  0  0  0  0  0
    4.4436    1.4975   -0.0030 H   0  0  0  0  0  0  0  0  0  0  0  0
    3.3381   -1.6068    1.9332 H   0  0  0  0  0  0  0  0  0  0  0  0
   -0.3940    1.8348    0.8220 H   0  0  0  0  0  0  0  0  0  0  0  0
    2.4173    2.8955   -1.4300 H   0  0  0  0  0  0  0  0  0  0  0  0
   -2.6990    2.4895    1.3328 H   0  0  0  0  0  0  0  0  0  0  0  0
   -5.0822    1.8782    1.1092 H   0  0  0  0  0  0  0  0  0  0  0  0
   -5.6217    0.4464    0.2997 H   0  0  0  0  0  0  0  0  0  0  0  0
  1 13  1  0  0  0  0
  2 11  1  0  0  0  0
  2 12  1  0  0  0  0
  3 10  1  0  0  0  0
  3 27  1  0  0  0  0
  4 14  1  0  0  0  0
  4 29  1  0  0  0  0
  5 16  2  0  0  0  0
  6 11  1  0  0  0  0
  6 15  1  0  0  0  0
  6 16  1  0  0  0  0
  7 16  1  0  0  0  0
  7 18  2  0  0  0  0
  8 18  1  0  0  0  0
  8 31  1  0  0  0  0
  8 32  1  0  0  0  0
  9 10  1  0  0  0  0
  9 11  1  0  0  0  0
  9 13  1  0  0  0  0
  9 19  1  0  0  0  0
 10 12  1  0  0  0  0
 10 20  1  0  0  0  0
 11 21  1  0  0  0  0
 12 14  1  0  0  0  0
 12 22  1  0  0  0  0
 13 23  1  0  0  0  0
 13 24  1  0  0  0  0
 14 25  1  0  0  0  0
 14 26  1  0  0  0  0
 15 17  2  0  0  0  0
 15 28  1  0  0  0  0
 17 18  1  0  0  0  0
 17 30  1  0  0  0  0
M  END
> <PUBCHEM_COMPOUND_CID>
134004

> <PUBCHEM_CONFORMER_RMSD>
0.6

> <PUBCHEM_CONFORMER_DIVERSEORDER>
1
7
32
23
15
2
14
35
6
3
11
27
26
18
16
33
13
24
4
29
22
25
34
17
8
28
10
30
9
21
5
19
20
31
12

> <PUBCHEM_MMFF94_PARTIAL_CHARGES>
23
1 -0.34
10 0.28
11 0.58
12 0.28
13 0.34
14 0.28
15 -0.04
16 0.84
17 -0.14
18 0.49
2 -0.56
27 0.4
28 0.15
29 0.4
3 -0.68
30 0.15
31 0.4
32 0.4
4 -0.68
5 -0.57
6 -0.47
7 -0.66
8 -0.85

> <PUBCHEM_EFFECTIVE_ROTOR_COUNT>
4

> <PUBCHEM_PHARMACOPHORE_FEATURES>
10
1 2 acceptor
1 3 acceptor
1 3 donor
1 4 acceptor
1 4 donor
1 5 acceptor
1 7 donor
1 8 donor
5 2 9 10 11 12 rings
6 6 7 15 16 17 18 rings

> <PUBCHEM_HEAVY_ATOM_COUNT>
18

> <PUBCHEM_ATOM_DEF_STEREO_COUNT>
3

> <PUBCHEM_ATOM_UDEF_STEREO_COUNT>
1

> <PUBCHEM_BOND_DEF_STEREO_COUNT>
0

> <PUBCHEM_BOND_UDEF_STEREO_COUNT>
0

> <PUBCHEM_ISOTOPIC_ATOM_COUNT>
0

> <PUBCHEM_COMPONENT_COUNT>
1

> <PUBCHEM_CACTVS_TAUTO_COUNT>
3

> <PUBCHEM_CONFORMER_ID>
00020B7400000001

> <PUBCHEM_MMFF94_ENERGY>
50.0337

> <PUBCHEM_FEATURE_SELFOVERLAP>
50.797

> <PUBCHEM_SHAPE_FINGERPRINT>
10465860 228 18341335478802919099
10980938 120 18411136900903565169
12251169 10 18339355258429918331
12346645 44 18336829800612064732
12346645 6 18334577919336276196
12644460 14 18262816067855775185
12788726 201 17908416210172332662
13140716 1 18338508733308167168
13538477 17 18271801345818879269
15279307 12 18342457036661596151
15342168 16 17750807725089773028
15490181 8 18409448115742481018
15669948 3 18130503149504144717
15775835 57 18412268358392808033
16945 1 18337102354793787694
1813 80 17972599888528017058
18186145 218 18335980952039671980
201361 129 18410862027201891648
20510252 161 18052547860783292426
20559304 39 18340488846312526472
20645477 70 18261107435808545255
21524375 3 18262238945043221508
22445834 79 18266455412942299971
2255824 54 18337677386596201274
22854114 111 18335138682835014705
23402539 116 18200311156027305268
23419403 2 12907944877549166104
23557571 272 16414621812819148163
23559900 14 17703237208505748629
23566358 27 18410864230478423367
283562 15 16888644550788118106
4340502 62 17749398083301601361
474 4 18334016115944145520
633830 44 18412549837801415740
7364860 26 18270404871472808382
77492 1 18411128169139950973
8272917 22 18336272240963828193

> <PUBCHEM_SHAPE_MULTIPOLES>
324.74
6.75
2.58
1.07
3.88
0.64
0.11
-3.46
0.79
-1.89
-0.46
-0.35
0.15
-1.49

> <PUBCHEM_SHAPE_SELFOVERLAP>
681.338

> <PUBCHEM_SHAPE_VOLUME>
184.1

> <PUBCHEM_COORDINATE_TYPE>
2
5
10

$$$$
