134096
  -OEChem-03292013323D

 41 43  0     1  0  0  0  0  0999 V2000
   -1.4774    2.1151   -0.7649 S   0  0  0  0  0  0  0  0  0  0  0  0
   -1.0094   -2.9138   -0.6557 P   0  0  0  0  0  0  0  0  0  0  0  0
   -1.1216   -1.9539    0.6169 O   0  0  0  0  0  0  0  0  0  0  0  0
   -1.7948    3.5202   -0.5986 O   0  0  0  0  0  0  0  0  0  0  0  0
   -1.1300    1.5734   -2.0648 O   0  0  0  0  0  0  0  0  0  0  0  0
    1.5130   -1.2180    1.3496 O   0  0  0  0  0  0  0  0  0  0  0  0
   -0.8088   -4.3673    0.0260 O   0  0  0  0  0  0  0  0  0  0  0  0
    0.4549   -2.6024   -1.2698 O   0  0  0  0  0  0  0  0  0  0  0  0
   -2.1334   -2.8458   -1.6479 O   0  0  0  0  0  0  0  0  0  0  0  0
   -0.2881    1.6551    0.4004 N   0  0  2  0  0  0  0  0  0  0  0  0
    2.1730    0.6059    0.0141 N   0  0  0  0  0  0  0  0  0  0  0  0
    4.2706    1.3942   -0.7421 N   0  0  0  0  0  0  0  0  0  0  0  0
   -2.8483    1.1761   -0.1933 C   0  0  0  0  0  0  0  0  0  0  0  0
   -2.5812   -0.0689    0.3885 C   0  0  0  0  0  0  0  0  0  0  0  0
   -0.1118    0.2279    0.5052 C   0  0  0  0  0  0  0  0  0  0  0  0
   -1.1929   -0.5783    0.5005 C   0  0  0  0  0  0  0  0  0  0  0  0
   -4.1382    1.6911   -0.3111 C   0  0  0  0  0  0  0  0  0  0  0  0
   -0.3150    2.3778    1.7054 C   0  0  0  0  0  0  0  0  0  0  0  0
   -3.6782   -0.8126    0.8468 C   0  0  0  0  0  0  0  0  0  0  0  0
    1.2741   -0.2176    0.6765 C   0  0  0  0  0  0  0  0  0  0  0  0
   -5.2088    0.9351    0.1554 C   0  0  0  0  0  0  0  0  0  0  0  0
   -4.9806   -0.3138    0.7318 C   0  0  0  0  0  0  0  0  0  0  0  0
    3.5826    0.4796   -0.0373 C   0  0  0  0  0  0  0  0  0  0  0  0
    4.1375   -0.5812    0.6454 C   0  0  0  0  0  0  0  0  0  0  0  0
    5.5208   -0.7147    0.6006 C   0  0  0  0  0  0  0  0  0  0  0  0
    5.6126    1.2319   -0.7629 C   0  0  0  0  0  0  0  0  0  0  0  0
    6.2797    0.2049   -0.1148 C   0  0  0  0  0  0  0  0  0  0  0  0
   -4.3240    2.6600   -0.7637 H   0  0  0  0  0  0  0  0  0  0  0  0
   -0.2102    3.4534    1.5367 H   0  0  0  0  0  0  0  0  0  0  0  0
    0.5276    2.0655    2.3311 H   0  0  0  0  0  0  0  0  0  0  0  0
   -1.2455    2.1794    2.2453 H   0  0  0  0  0  0  0  0  0  0  0  0
   -3.5419   -1.7871    1.3101 H   0  0  0  0  0  0  0  0  0  0  0  0
   -6.2222    1.3163    0.0699 H   0  0  0  0  0  0  0  0  0  0  0  0
   -5.8179   -0.9027    1.0958 H   0  0  0  0  0  0  0  0  0  0  0  0
    1.8087    1.4018   -0.5050 H   0  0  0  0  0  0  0  0  0  0  0  0
    3.6176   -1.3306    1.2177 H   0  0  0  0  0  0  0  0  0  0  0  0
   -1.5935   -4.8363    0.3816 H   0  0  0  0  0  0  0  0  0  0  0  0
    0.5793   -1.7981   -1.8172 H   0  0  0  0  0  0  0  0  0  0  0  0
    6.0083   -1.5335    1.1216 H   0  0  0  0  0  0  0  0  0  0  0  0
    6.1586    1.9752   -1.3344 H   0  0  0  0  0  0  0  0  0  0  0  0
    7.3592    0.1204   -0.1635 H   0  0  0  0  0  0  0  0  0  0  0  0
  1  4  2  0  0  0  0
  1  5  2  0  0  0  0
  1 10  1  0  0  0  0
  1 13  1  0  0  0  0
  2  3  1  0  0  0  0
  2  7  1  0  0  0  0
  2  8  1  0  0  0  0
  2  9  2  0  0  0  0
  3 16  1  0  0  0  0
  6 20  2  0  0  0  0
  7 37  1  0  0  0  0
  8 38  1  0  0  0  0
 10 15  1  0  0  0  0
 10 18  1  0  0  0  0
 11 20  1  0  0  0  0
 11 23  1  0  0  0  0
 11 35  1  0  0  0  0
 12 23  1  0  0  0  0
 12 26  2  0  0  0  0
 13 14  1  0  0  0  0
 13 17  2  0  0  0  0
 14 16  1  0  0  0  0
 14 19  2  0  0  0  0
 15 16  2  0  0  0  0
 15 20  1  0  0  0  0
 17 21  1  0  0  0  0
 17 28  1  0  0  0  0
 18 29  1  0  0  0  0
 18 30  1  0  0  0  0
 18 31  1  0  0  0  0
 19 22  1  0  0  0  0
 19 32  1  0  0  0  0
 21 22  2  0  0  0  0
 21 33  1  0  0  0  0
 22 34  1  0  0  0  0
 23 24  2  0  0  0  0
 24 25  1  0  0  0  0
 24 36  1  0  0  0  0
 25 27  2  0  0  0  0
 25 39  1  0  0  0  0
 26 27  1  0  0  0  0
 26 40  1  0  0  0  0
 27 41  1  0  0  0  0
M  END
> <PUBCHEM_COMPOUND_CID>
134096

> <PUBCHEM_CONFORMER_RMSD>
0.8

> <PUBCHEM_CONFORMER_DIVERSEORDER>
2
4
16
5
3
8
17
18
15
7
11
12
10
13
1
14
6
9

> <PUBCHEM_MMFF94_PARTIAL_CHARGES>
38
1 1.45
10 -0.68
11 -0.55
12 -0.62
13 -0.01
14 0.03
15 0.21
16 0.05
17 -0.15
18 0.36
19 -0.15
2 1.51
20 0.62
21 -0.15
22 -0.15
23 0.43
24 -0.15
25 -0.15
26 0.16
27 -0.15
28 0.15
3 -0.35
32 0.15
33 0.15
34 0.15
35 0.37
36 0.15
37 0.5
38 0.5
39 0.15
4 -0.65
40 0.15
41 0.15
5 -0.65
6 -0.57
7 -0.77
8 -0.77
9 -0.7

> <PUBCHEM_EFFECTIVE_ROTOR_COUNT>
5.2

> <PUBCHEM_PHARMACOPHORE_FEATURES>
12
1 11 donor
1 12 acceptor
1 4 acceptor
1 5 acceptor
1 6 acceptor
1 7 acceptor
1 8 acceptor
1 9 acceptor
4 2 7 8 9 anion
6 1 10 13 14 15 16 rings
6 12 23 24 25 26 27 rings
6 13 14 17 19 21 22 rings

> <PUBCHEM_HEAVY_ATOM_COUNT>
27

> <PUBCHEM_ATOM_DEF_STEREO_COUNT>
0

> <PUBCHEM_ATOM_UDEF_STEREO_COUNT>
0

> <PUBCHEM_BOND_DEF_STEREO_COUNT>
0

> <PUBCHEM_BOND_UDEF_STEREO_COUNT>
0

> <PUBCHEM_ISOTOPIC_ATOM_COUNT>
0

> <PUBCHEM_COMPONENT_COUNT>
1

> <PUBCHEM_CACTVS_TAUTO_COUNT>
3

> <PUBCHEM_CONFORMER_ID>
00020BD000000002

> <PUBCHEM_MMFF94_ENERGY>
52.8134

> <PUBCHEM_FEATURE_SELFOVERLAP>
60.973

> <PUBCHEM_SHAPE_FINGERPRINT>
10165383 225 18201443558334850801
11014199 57 17618219950132376954
11524674 6 17703791418501792790
12011746 2 18409721872989683589
12107183 9 17247786352883414576
12236239 1 18040718065257037368
12403814 3 18186519912385367501
12467345 10 18040155115213984036
12715332 25 18341613745639604089
14068700 675 17773308136200360431
14251757 5 18340207496285649146
14790565 3 18340492175060348329
15042514 8 18337676428850136507
17492 54 18264749061538594119
17980427 23 17822019683533561453
19591789 44 18337670931549953835
19958102 18 18410572847639635822
20101258 96 17831310758150928634
20600515 1 17845395360500622209
21033648 29 18199449035547402344
23227448 37 18335986479651759518
23402539 116 18413103974318265509
23558518 356 17190377500643623649
23559900 14 17904756687482055154
283562 15 18200316511556228473
3178227 256 18340220678099255491
3298306 158 18270398287430556878
350125 39 18260548901166374624
5265222 85 18339652243319395148
5486654 2 18341897380832013681
57527585 21 18123727791556585885
59755656 215 18272660000514064734
70251023 43 17617938479587887899

> <PUBCHEM_SHAPE_MULTIPOLES>
507.32
11.25
3.53
1.26
14.14
2.6
0.19
-3.03
-0.23
-2.45
1.04
-0.22
-0.07
-0.33

> <PUBCHEM_SHAPE_SELFOVERLAP>
1072.74

> <PUBCHEM_SHAPE_VOLUME>
284.9

> <PUBCHEM_COORDINATE_TYPE>
2
5
10

$$$$
