134093
  -OEChem-03292013323D

 43 44  0     1  0  0  0  0  0999 V2000
   -1.1413   -0.7510    1.3364 O   0  0  0  0  0  0  0  0  0  0  0  0
   -4.8788   -2.4946    1.1541 O   0  0  0  0  0  0  0  0  0  0  0  0
   -0.6019    1.5486   -1.8694 O   0  0  0  0  0  0  0  0  0  0  0  0
   -1.9224    2.9511    1.1692 O   0  0  0  0  0  0  0  0  0  0  0  0
   -2.3026    5.0552    0.4103 O   0  0  0  0  0  0  0  0  0  0  0  0
   -2.5918   -2.8019    0.7574 N   0  0  0  0  0  0  0  0  0  0  0  0
    0.0660   -0.8175   -0.6533 N   0  0  0  0  0  0  0  0  0  0  0  0
    4.1027   -0.2320    0.5293 N   0  0  0  0  0  0  0  0  0  0  0  0
    0.3590    2.6576   -0.0694 N   0  0  0  0  0  0  0  0  0  0  0  0
    4.4560   -2.4178    0.3572 N   0  0  0  0  0  0  0  0  0  0  0  0
   -1.6378   -2.4530   -0.2568 C   0  0  1  0  0  0  0  0  0  0  0  0
   -2.4959   -2.1393   -1.4677 C   0  0  0  0  0  0  0  0  0  0  0  0
   -3.8273   -1.6761   -0.8770 C   0  0  0  0  0  0  0  0  0  0  0  0
    0.9062    0.3294   -0.4150 C   0  0  1  0  0  0  0  0  0  0  0  0
   -0.8899   -1.2607    0.2476 C   0  0  0  0  0  0  0  0  0  0  0  0
    2.2511    0.2184   -1.1434 C   0  0  0  0  0  0  0  0  0  0  0  0
   -3.8811   -2.3736    0.4602 C   0  0  0  0  0  0  0  0  0  0  0  0
    3.2253   -0.6795   -0.4179 C   0  0  0  0  0  0  0  0  0  0  0  0
    0.1441    1.5611   -0.8925 C   0  0  0  0  0  0  0  0  0  0  0  0
    3.4625   -2.0310   -0.5070 C   0  0  0  0  0  0  0  0  0  0  0  0
    4.8203   -1.3109    0.9656 C   0  0  0  0  0  0  0  0  0  0  0  0
    4.2573    1.1255    0.9954 C   0  0  0  0  0  0  0  0  0  0  0  0
   -0.2827    3.9368   -0.2707 C   0  0  0  0  0  0  0  0  0  0  0  0
   -1.5969    4.0551    0.4572 C   0  0  0  0  0  0  0  0  0  0  0  0
   -0.9504   -3.2878   -0.4227 H   0  0  0  0  0  0  0  0  0  0  0  0
   -2.0782   -1.3978   -2.1547 H   0  0  0  0  0  0  0  0  0  0  0  0
   -2.6661   -3.0602   -2.0402 H   0  0  0  0  0  0  0  0  0  0  0  0
   -3.8354   -0.5944   -0.7102 H   0  0  0  0  0  0  0  0  0  0  0  0
   -4.6732   -1.9659   -1.5048 H   0  0  0  0  0  0  0  0  0  0  0  0
    1.0618    0.4089    0.6684 H   0  0  0  0  0  0  0  0  0  0  0  0
   -2.3494   -3.2758    1.6220 H   0  0  0  0  0  0  0  0  0  0  0  0
    2.1049   -0.1684   -2.1607 H   0  0  0  0  0  0  0  0  0  0  0  0
    2.7001    1.2118   -1.2671 H   0  0  0  0  0  0  0  0  0  0  0  0
    0.1553   -1.2935   -1.5465 H   0  0  0  0  0  0  0  0  0  0  0  0
    2.9683   -2.7467   -1.1480 H   0  0  0  0  0  0  0  0  0  0  0  0
    0.9849    2.5691    0.7255 H   0  0  0  0  0  0  0  0  0  0  0  0
    5.5895   -1.2335    1.7219 H   0  0  0  0  0  0  0  0  0  0  0  0
    4.9790    1.1482    1.8161 H   0  0  0  0  0  0  0  0  0  0  0  0
    3.2895    1.4879    1.3499 H   0  0  0  0  0  0  0  0  0  0  0  0
    4.6220    1.7368    0.1664 H   0  0  0  0  0  0  0  0  0  0  0  0
    0.3978    4.7041    0.1088 H   0  0  0  0  0  0  0  0  0  0  0  0
   -0.4620    4.0845   -1.3397 H   0  0  0  0  0  0  0  0  0  0  0  0
   -2.7807    3.0530    1.6332 H   0  0  0  0  0  0  0  0  0  0  0  0
  1 15  2  0  0  0  0
  2 17  2  0  0  0  0
  3 19  2  0  0  0  0
  4 24  1  0  0  0  0
  4 43  1  0  0  0  0
  5 24  2  0  0  0  0
  6 11  1  0  0  0  0
  6 17  1  0  0  0  0
  6 31  1  0  0  0  0
  7 14  1  0  0  0  0
  7 15  1  0  0  0  0
  7 34  1  0  0  0  0
  8 18  1  0  0  0  0
  8 21  1  0  0  0  0
  8 22  1  0  0  0  0
  9 19  1  0  0  0  0
  9 23  1  0  0  0  0
  9 36  1  0  0  0  0
 10 20  1  0  0  0  0
 10 21  2  0  0  0  0
 11 12  1  0  0  0  0
 11 15  1  0  0  0  0
 11 25  1  0  0  0  0
 12 13  1  0  0  0  0
 12 26  1  0  0  0  0
 12 27  1  0  0  0  0
 13 17  1  0  0  0  0
 13 28  1  0  0  0  0
 13 29  1  0  0  0  0
 14 16  1  0  0  0  0
 14 19  1  0  0  0  0
 14 30  1  0  0  0  0
 16 18  1  0  0  0  0
 16 32  1  0  0  0  0
 16 33  1  0  0  0  0
 18 20  2  0  0  0  0
 20 35  1  0  0  0  0
 21 37  1  0  0  0  0
 22 38  1  0  0  0  0
 22 39  1  0  0  0  0
 22 40  1  0  0  0  0
 23 24  1  0  0  0  0
 23 41  1  0  0  0  0
 23 42  1  0  0  0  0
M  END
> <PUBCHEM_COMPOUND_CID>
134093

> <PUBCHEM_CONFORMER_RMSD>
1

> <PUBCHEM_CONFORMER_DIVERSEORDER>
1
85
93
80
84
40
78
56
54
92
86
57
5
90
48
94
24
67
8
36
97
38
95
63
42
43
87
68
91
100
58
71
23
98
70
9
27
31
51
18
26
77
37
10
44
59
14
29
62
16
33
79
53
49
39
55
64
66
45
52
69
65
13
28
46
74
34
50
17
60
19
21
75
20
3
22
11
89
88
76
7
72
15
81
96
4
73
32
25
82
30
12
35
41
61
83
2
47
99
6

> <PUBCHEM_MMFF94_PARTIAL_CHARGES>
29
1 -0.57
10 -0.57
11 0.36
13 0.06
14 0.36
15 0.57
16 0.18
17 0.57
18 -0.33
19 0.57
2 -0.57
20 0.08
21 0.04
22 0.26
23 0.36
24 0.66
3 -0.57
31 0.37
34 0.37
35 0.15
36 0.37
37 0.15
4 -0.65
43 0.5
5 -0.57
6 -0.73
7 -0.73
8 0.05
9 -0.73

> <PUBCHEM_EFFECTIVE_ROTOR_COUNT>
9.8

> <PUBCHEM_PHARMACOPHORE_FEATURES>
12
1 1 acceptor
1 2 acceptor
1 3 acceptor
1 4 acceptor
1 5 acceptor
1 6 donor
1 7 donor
1 9 donor
3 4 5 24 anion
3 8 10 21 cation
5 6 11 12 13 17 rings
5 8 10 18 20 21 rings

> <PUBCHEM_HEAVY_ATOM_COUNT>
24

> <PUBCHEM_ATOM_DEF_STEREO_COUNT>
2

> <PUBCHEM_ATOM_UDEF_STEREO_COUNT>
0

> <PUBCHEM_BOND_DEF_STEREO_COUNT>
0

> <PUBCHEM_BOND_UDEF_STEREO_COUNT>
0

> <PUBCHEM_ISOTOPIC_ATOM_COUNT>
0

> <PUBCHEM_COMPONENT_COUNT>
1

> <PUBCHEM_CACTVS_TAUTO_COUNT>
12

> <PUBCHEM_CONFORMER_ID>
00020BCD00000001

> <PUBCHEM_MMFF94_ENERGY>
40.2149

> <PUBCHEM_FEATURE_SELFOVERLAP>
60.956

> <PUBCHEM_SHAPE_FINGERPRINT>
10064457 181 17905891375503752564
10074138 170 18120917443782018384
1100329 8 18409730634554604181
11265709 11 18338240469819787126
12422481 6 17984450497760987091
12553582 1 18267592475522178502
12788726 201 18336555966545665238
13004483 165 18340479040986709082
13052359 8 18120937209174307573
13134695 92 18195521717372071503
13540713 5 18041854905046943838
13692114 37 18050293557663673913
13757389 114 17905070066203990940
13955234 65 17617103946262493475
14178342 30 18264198129014663722
14866123 147 17904197027679746138
15042514 8 18337115544775464643
15420108 30 17412465015137543588
15927050 60 17691122635015579230
17138139 8 17621270760514272245
17876694 64 17844271681302368347
17980427 23 17273137032038158335
21041028 32 18410015476537196399
21344244 78 18127412478353709651
23419403 2 17844501474689809361
23558518 356 18335421219275289284
23845131 108 17760927338423350745
25147074 1 17968672523414287526
3091708 16 9351138023928338645
3380486 145 17981858007860452318
345986 75 18114445817051778426
5104073 3 18193818385832086810
59025328 239 17700378598612100855
59755656 520 17833546795935115292
6004065 56 18050550039619118399
6443956 14 18263641947349062318
79837 15 17979355257176217185
81228 2 18187928344141949740
84936 182 17333097928054354997
9777508 108 18196088828985473328
9981440 41 16909406366810115168

> <PUBCHEM_SHAPE_MULTIPOLES>
439.66
8.5
5.72
1.28
4.23
9.12
-0.16
-8.75
2.64
-5.21
0.99
-0.37
-0.09
-0.15

> <PUBCHEM_SHAPE_SELFOVERLAP>
914.816

> <PUBCHEM_SHAPE_VOLUME>
251.1

> <PUBCHEM_COORDINATE_TYPE>
2
5
10

$$$$
