134063731
  -OEChem-03292013293D

 77 80  0     1  0  0  0  0  0999 V2000
    1.2329   -3.5984   -0.5405 O   0  0  0  0  0  0  0  0  0  0  0  0
    2.3442   -1.4659   -1.8109 O   0  0  0  0  0  0  0  0  0  0  0  0
   -1.8110    0.2484   -0.5537 O   0  0  0  0  0  0  0  0  0  0  0  0
   -1.5517   -3.9935   -0.1606 O   0  0  0  0  0  0  0  0  0  0  0  0
   -3.0914   -1.4931    1.5489 O   0  0  0  0  0  0  0  0  0  0  0  0
    6.6393    3.4007    0.5961 O   0  0  0  0  0  0  0  0  0  0  0  0
   -1.9816    1.7000    1.2330 O   0  0  0  0  0  0  0  0  0  0  0  0
    0.9803   -2.2946    0.0092 C   0  0  2  0  0  0  0  0  0  0  0  0
   -0.4371   -1.7850   -0.4238 C   0  0  2  0  0  0  0  0  0  0  0  0
    2.1674   -1.3592   -0.3882 C   0  0  2  0  0  0  0  0  0  0  0  0
    1.9261    0.1192    0.0174 C   0  0  1  0  0  0  0  0  0  0  0  0
   -0.5966   -0.2837   -0.0203 C   0  0  1  0  0  0  0  0  0  0  0  0
   -1.3687   -2.7081    0.4305 C   0  0  2  0  0  0  0  0  0  0  0  0
    3.1179    1.0980   -0.3665 C   0  0  2  0  0  0  0  0  0  0  0  0
    0.5580    0.6003   -0.5009 C   0  0  0  0  0  0  0  0  0  0  0  0
    0.8218   -2.5177    1.5305 C   0  0  0  0  0  0  0  0  0  0  0  0
   -0.6520   -2.8737    1.7754 C   0  0  0  0  0  0  0  0  0  0  0  0
    3.5047   -1.8672    0.1928 C   0  0  0  0  0  0  0  0  0  0  0  0
   -0.7619   -1.9828   -1.9236 C   0  0  0  0  0  0  0  0  0  0  0  0
    4.4791    0.4351   -0.1335 C   0  0  0  0  0  0  0  0  0  0  0  0
    3.0216    2.3511    0.5629 C   0  0  0  0  0  0  0  0  0  0  0  0
    4.6234   -0.8759    0.1203 C   0  0  0  0  0  0  0  0  0  0  0  0
    3.0485    1.5707   -1.8403 C   0  0  0  0  0  0  0  0  0  0  0  0
   -2.7734   -2.2139    0.6043 C   0  0  0  0  0  0  0  0  0  0  0  0
    5.6940    1.3342   -0.1629 C   0  0  0  0  0  0  0  0  0  0  0  0
    4.2342    3.2810    0.4991 C   0  0  0  0  0  0  0  0  0  0  0  0
    5.5307    2.5254    0.7767 C   0  0  2  0  0  0  0  0  0  0  0  0
   -3.7754   -2.6434   -0.4332 C   0  0  0  0  0  0  0  0  0  0  0  0
   -2.3926    1.2365    0.1824 C   0  0  0  0  0  0  0  0  0  0  0  0
   -3.6368    1.6366   -0.5176 C   0  0  0  0  0  0  0  0  0  0  0  0
   -4.7532    2.0973    0.0801 C   0  0  0  0  0  0  0  0  0  0  0  0
   -5.9526    2.4755   -0.7890 C   0  0  0  0  0  0  0  0  0  0  0  0
   -4.9117    2.2790    1.5678 C   0  0  0  0  0  0  0  0  0  0  0  0
   -6.2995    3.9619   -0.6681 C   0  0  0  0  0  0  0  0  0  0  0  0
   -7.1772    1.6051   -0.4939 C   0  0  0  0  0  0  0  0  0  0  0  0
    1.8639    0.1327    1.1148 H   0  0  0  0  0  0  0  0  0  0  0  0
   -0.6225   -0.2231    1.0753 H   0  0  0  0  0  0  0  0  0  0  0  0
    0.3749    1.6314   -0.1791 H   0  0  0  0  0  0  0  0  0  0  0  0
    0.5427    0.6330   -1.5966 H   0  0  0  0  0  0  0  0  0  0  0  0
    1.0605   -1.6187    2.1072 H   0  0  0  0  0  0  0  0  0  0  0  0
    1.4620   -3.3235    1.9077 H   0  0  0  0  0  0  0  0  0  0  0  0
   -0.7252   -3.9002    2.1532 H   0  0  0  0  0  0  0  0  0  0  0  0
   -1.0403   -2.2180    2.5624 H   0  0  0  0  0  0  0  0  0  0  0  0
    3.8316   -2.7677   -0.3426 H   0  0  0  0  0  0  0  0  0  0  0  0
    3.3994   -2.1380    1.2488 H   0  0  0  0  0  0  0  0  0  0  0  0
   -0.6911   -3.0298   -2.2344 H   0  0  0  0  0  0  0  0  0  0  0  0
   -0.0596   -1.4260   -2.5512 H   0  0  0  0  0  0  0  0  0  0  0  0
   -1.7556   -1.6171   -2.1911 H   0  0  0  0  0  0  0  0  0  0  0  0
    2.1266    2.9372    0.3235 H   0  0  0  0  0  0  0  0  0  0  0  0
    2.9069    2.0272    1.6065 H   0  0  0  0  0  0  0  0  0  0  0  0
    5.6173   -1.2774    0.3050 H   0  0  0  0  0  0  0  0  0  0  0  0
    2.0184   -3.9732   -0.1091 H   0  0  0  0  0  0  0  0  0  0  0  0
    2.1491    2.1682   -2.0247 H   0  0  0  0  0  0  0  0  0  0  0  0
    3.8931    2.2116   -2.1139 H   0  0  0  0  0  0  0  0  0  0  0  0
    3.0487    0.7459   -2.5550 H   0  0  0  0  0  0  0  0  0  0  0  0
    3.2597   -1.2463   -2.0471 H   0  0  0  0  0  0  0  0  0  0  0  0
    6.6069    0.7907    0.1139 H   0  0  0  0  0  0  0  0  0  0  0  0
    5.8771    1.6818   -1.1872 H   0  0  0  0  0  0  0  0  0  0  0  0
    4.2890    3.7819   -0.4750 H   0  0  0  0  0  0  0  0  0  0  0  0
    4.1174    4.0892    1.2318 H   0  0  0  0  0  0  0  0  0  0  0  0
   -1.9645   -4.5816    0.4950 H   0  0  0  0  0  0  0  0  0  0  0  0
    5.5452    2.1789    1.8175 H   0  0  0  0  0  0  0  0  0  0  0  0
   -4.2025   -3.6076   -0.1442 H   0  0  0  0  0  0  0  0  0  0  0  0
   -3.3521   -2.7207   -1.4326 H   0  0  0  0  0  0  0  0  0  0  0  0
   -4.5792   -1.9017   -0.4736 H   0  0  0  0  0  0  0  0  0  0  0  0
    6.5224    4.1507    1.2038 H   0  0  0  0  0  0  0  0  0  0  0  0
   -3.6168    1.5096   -1.5977 H   0  0  0  0  0  0  0  0  0  0  0  0
   -5.6956    2.3011   -1.8431 H   0  0  0  0  0  0  0  0  0  0  0  0
   -4.8231    3.3373    1.8320 H   0  0  0  0  0  0  0  0  0  0  0  0
   -4.1779    1.7184    2.1510 H   0  0  0  0  0  0  0  0  0  0  0  0
   -5.8875    1.9218    1.9087 H   0  0  0  0  0  0  0  0  0  0  0  0
   -7.6126    1.8222    0.4868 H   0  0  0  0  0  0  0  0  0  0  0  0
   -7.9581    1.7833   -1.2417 H   0  0  0  0  0  0  0  0  0  0  0  0
   -6.9219    0.5403   -0.5280 H   0  0  0  0  0  0  0  0  0  0  0  0
   -6.6550    4.2161    0.3363 H   0  0  0  0  0  0  0  0  0  0  0  0
   -7.0904    4.2302   -1.3771 H   0  0  0  0  0  0  0  0  0  0  0  0
   -5.4276    4.5876   -0.8883 H   0  0  0  0  0  0  0  0  0  0  0  0
  1  8  1  0  0  0  0
  1 52  1  0  0  0  0
  2 10  1  0  0  0  0
  2 56  1  0  0  0  0
  3 12  1  0  0  0  0
  3 29  1  0  0  0  0
  4 13  1  0  0  0  0
  4 61  1  0  0  0  0
  5 24  2  0  0  0  0
  6 27  1  0  0  0  0
  6 66  1  0  0  0  0
  7 29  2  0  0  0  0
  8  9  1  0  0  0  0
  8 10  1  0  0  0  0
  8 16  1  0  0  0  0
  9 12  1  0  0  0  0
  9 13  1  0  0  0  0
  9 19  1  0  0  0  0
 10 11  1  0  0  0  0
 10 18  1  0  0  0  0
 11 14  1  0  0  0  0
 11 15  1  0  0  0  0
 11 36  1  0  0  0  0
 12 15  1  0  0  0  0
 12 37  1  0  0  0  0
 13 17  1  0  0  0  0
 13 24  1  0  0  0  0
 14 20  1  0  0  0  0
 14 21  1  0  0  0  0
 14 23  1  0  0  0  0
 15 38  1  0  0  0  0
 15 39  1  0  0  0  0
 16 17  1  0  0  0  0
 16 40  1  0  0  0  0
 16 41  1  0  0  0  0
 17 42  1  0  0  0  0
 17 43  1  0  0  0  0
 18 22  1  0  0  0  0
 18 44  1  0  0  0  0
 18 45  1  0  0  0  0
 19 46  1  0  0  0  0
 19 47  1  0  0  0  0
 19 48  1  0  0  0  0
 20 22  2  0  0  0  0
 20 25  1  0  0  0  0
 21 26  1  0  0  0  0
 21 49  1  0  0  0  0
 21 50  1  0  0  0  0
 22 51  1  0  0  0  0
 23 53  1  0  0  0  0
 23 54  1  0  0  0  0
 23 55  1  0  0  0  0
 24 28  1  0  0  0  0
 25 27  1  0  0  0  0
 25 57  1  0  0  0  0
 25 58  1  0  0  0  0
 26 27  1  0  0  0  0
 26 59  1  0  0  0  0
 26 60  1  0  0  0  0
 27 62  1  0  0  0  0
 28 63  1  0  0  0  0
 28 64  1  0  0  0  0
 28 65  1  0  0  0  0
 29 30  1  0  0  0  0
 30 31  2  0  0  0  0
 30 67  1  0  0  0  0
 31 32  1  0  0  0  0
 31 33  1  0  0  0  0
 32 34  1  0  0  0  0
 32 35  1  0  0  0  0
 32 68  1  0  0  0  0
 33 69  1  0  0  0  0
 33 70  1  0  0  0  0
 33 71  1  0  0  0  0
 34 75  1  0  0  0  0
 34 76  1  0  0  0  0
 34 77  1  0  0  0  0
 35 72  1  0  0  0  0
 35 73  1  0  0  0  0
 35 74  1  0  0  0  0
M  END
> <PUBCHEM_COMPOUND_CID>
134063731

> <PUBCHEM_CONFORMER_RMSD>
1

> <PUBCHEM_CONFORMER_DIVERSEORDER>
1
31
47
51
61
60
26
43
37
22
12
40
35
50
21
57
16
56
39
52
41
11
59
36
30
45
54
48
8
44
34
42
15
9
28
55
46
27
33
29
23
14
53
2
38
25
32
4
20
18
24
5
17
58
10
13
7
49
19
3
6

> <PUBCHEM_MMFF94_PARTIAL_CHARGES>
30
1 -0.68
10 0.28
12 0.28
13 0.34
14 0.14
18 0.14
2 -0.68
20 -0.28
22 -0.29
24 0.45
25 0.14
27 0.28
28 0.06
29 0.71
3 -0.43
30 -0.14
31 -0.28
32 0.14
33 0.14
4 -0.68
5 -0.57
51 0.15
52 0.4
56 0.4
6 -0.68
61 0.4
66 0.4
67 0.15
7 -0.57
8 0.28

> <PUBCHEM_EFFECTIVE_ROTOR_COUNT>
7

> <PUBCHEM_PHARMACOPHORE_FEATURES>
16
1 1 acceptor
1 1 donor
1 2 acceptor
1 2 donor
1 33 hydrophobe
1 4 acceptor
1 4 donor
1 5 acceptor
1 6 acceptor
1 6 donor
1 7 acceptor
3 32 34 35 hydrophobe
5 8 9 13 16 17 rings
6 10 11 14 18 20 22 rings
6 14 20 21 25 26 27 rings
6 8 9 10 11 12 15 rings

> <PUBCHEM_HEAVY_ATOM_COUNT>
35

> <PUBCHEM_ATOM_DEF_STEREO_COUNT>
6

> <PUBCHEM_ATOM_UDEF_STEREO_COUNT>
2

> <PUBCHEM_BOND_DEF_STEREO_COUNT>
1

> <PUBCHEM_BOND_UDEF_STEREO_COUNT>
0

> <PUBCHEM_ISOTOPIC_ATOM_COUNT>
0

> <PUBCHEM_COMPONENT_COUNT>
1

> <PUBCHEM_CACTVS_TAUTO_COUNT>
2

> <PUBCHEM_CONFORMER_ID>
07FDA67300000001

> <PUBCHEM_MMFF94_ENERGY>
123.1718

> <PUBCHEM_FEATURE_SELFOVERLAP>
81.415

> <PUBCHEM_SHAPE_FINGERPRINT>
10050765 1 18410852170389591078
10675989 125 18195528082340290609
1100329 8 18337669690114936482
11135609 127 17975116653786446173
11135609 187 18342731906295850969
12107183 9 18263067856883459192
12422481 6 17748833998923055517
12788726 201 17902528303887726221
12925494 130 18339916121409639776
13140716 1 18335699425639391562
13540713 4 18339940271915663086
13965767 371 17967805016686529716
140371 6 17900546979634504599
14790565 3 18339078173627169839
15276724 80 18342455980885982415
18681886 176 17836074586037073499
20554085 129 18129923629593711456
20715895 44 18339357470470145944
21033648 144 18335691741563344837
21049683 118 18262777645094300041
21521721 280 18340773638085547897
21859007 373 17532925009464388149
22311459 1 18194964037692149142
23558518 356 18189056550035221707
23559900 14 18271250396257901302
23569914 2 17056642063296376064
23845131 108 18260266326604241971
27425 322 17385730226599569160
283562 15 18192988438366485227
2838139 119 18411413991082683031
335352 9 18265054635487618934
3380486 145 17688321496089621611
350125 39 18337959003612372046
376196 1 18411696582339563746
4340502 62 18335143029969399413
44880168 125 13623527931211149656
474 4 18269836432508952177
5104073 3 18260541252061287858
5171179 24 17556847342016764889
6036956 94 17759243290210150965
6086070 43 17989490740682674360
9981440 41 18335985379908692586

> <PUBCHEM_SHAPE_MULTIPOLES>
679.2
13.97
5.24
1.36
8.06
0.58
-0.04
-19.51
0
1.53
0.62
0.25
0.33
1.16

> <PUBCHEM_SHAPE_SELFOVERLAP>
1443.583

> <PUBCHEM_SHAPE_VOLUME>
373.8

> <PUBCHEM_COORDINATE_TYPE>
2
5
10

$$$$
