134013
  -OEChem-03292013323D

 42 42  0     0  0  0  0  0  0999 V2000
    0.0256    2.4961   -0.9351 S   0  0  0  0  0  0  0  0  0  0  0  0
    0.6774   -2.1526   -1.0833 O   0  0  0  0  0  0  0  0  0  0  0  0
   -0.0101   -3.0968    0.9261 O   0  0  0  0  0  0  0  0  0  0  0  0
    1.9127   -1.4463    1.6895 O   0  0  0  0  0  0  0  0  0  0  0  0
   -2.2763   -1.9098    0.1918 O   0  0  0  0  0  0  0  0  0  0  0  0
    1.0660    0.3346    0.4196 N   0  0  0  0  0  0  0  0  0  0  0  0
   -1.1865    0.0810   -0.3997 N   0  0  0  0  0  0  0  0  0  0  0  0
    0.1096   -1.8961    0.1944 C   0  0  0  0  0  0  0  0  0  0  0  0
    2.2036    1.1745    0.8202 C   0  0  0  0  0  0  0  0  0  0  0  0
   -2.4552    0.6481   -0.8774 C   0  0  0  0  0  0  0  0  0  0  0  0
   -0.0282    0.9173   -0.2982 C   0  0  0  0  0  0  0  0  0  0  0  0
    1.1186   -1.0016    0.8599 C   0  0  0  0  0  0  0  0  0  0  0  0
   -1.2444   -1.2631    0.0112 C   0  0  0  0  0  0  0  0  0  0  0  0
    3.3662    1.0869   -0.1629 C   0  0  0  0  0  0  0  0  0  0  0  0
   -3.3002    1.2203    0.2561 C   0  0  0  0  0  0  0  0  0  0  0  0
    4.5635    1.9387    0.2650 C   0  0  0  0  0  0  0  0  0  0  0  0
   -4.6346    1.7872   -0.2337 C   0  0  0  0  0  0  0  0  0  0  0  0
    5.7278    1.7848   -0.7011 C   0  0  0  0  0  0  0  0  0  0  0  0
   -5.4803    2.2951    0.9237 C   0  0  0  0  0  0  0  0  0  0  0  0
   -0.1555   -2.9983   -1.8660 C   0  0  0  0  0  0  0  0  0  0  0  0
    1.9001    2.2146    0.9692 H   0  0  0  0  0  0  0  0  0  0  0  0
    2.5548    0.8399    1.8046 H   0  0  0  0  0  0  0  0  0  0  0  0
   -2.2952    1.3977   -1.6565 H   0  0  0  0  0  0  0  0  0  0  0  0
   -3.0234   -0.1548   -1.3656 H   0  0  0  0  0  0  0  0  0  0  0  0
    3.0391    1.3960   -1.1626 H   0  0  0  0  0  0  0  0  0  0  0  0
    3.6828    0.0402   -0.2566 H   0  0  0  0  0  0  0  0  0  0  0  0
   -2.7422    2.0070    0.7781 H   0  0  0  0  0  0  0  0  0  0  0  0
   -3.4922    0.4384    1.0014 H   0  0  0  0  0  0  0  0  0  0  0  0
    4.8893    1.6441    1.2693 H   0  0  0  0  0  0  0  0  0  0  0  0
    4.2693    2.9934    0.3141 H   0  0  0  0  0  0  0  0  0  0  0  0
   -5.1922    1.0123   -0.7724 H   0  0  0  0  0  0  0  0  0  0  0  0
   -4.4530    2.6069   -0.9382 H   0  0  0  0  0  0  0  0  0  0  0  0
   -0.9302   -3.4069    0.8852 H   0  0  0  0  0  0  0  0  0  0  0  0
    5.4434    2.0978   -1.7108 H   0  0  0  0  0  0  0  0  0  0  0  0
    6.5717    2.4027   -0.3788 H   0  0  0  0  0  0  0  0  0  0  0  0
    6.0660    0.7446   -0.7459 H   0  0  0  0  0  0  0  0  0  0  0  0
   -4.9624    3.0915    1.4677 H   0  0  0  0  0  0  0  0  0  0  0  0
   -6.4278    2.6978    0.5522 H   0  0  0  0  0  0  0  0  0  0  0  0
   -5.7070    1.4884    1.6280 H   0  0  0  0  0  0  0  0  0  0  0  0
    0.4065   -3.2682   -2.7655 H   0  0  0  0  0  0  0  0  0  0  0  0
   -1.0595   -2.4800   -2.1983 H   0  0  0  0  0  0  0  0  0  0  0  0
   -0.4088   -3.9277   -1.3475 H   0  0  0  0  0  0  0  0  0  0  0  0
  1 11  2  0  0  0  0
  2  8  1  0  0  0  0
  2 20  1  0  0  0  0
  3  8  1  0  0  0  0
  3 33  1  0  0  0  0
  4 12  2  0  0  0  0
  5 13  2  0  0  0  0
  6  9  1  0  0  0  0
  6 11  1  0  0  0  0
  6 12  1  0  0  0  0
  7 10  1  0  0  0  0
  7 11  1  0  0  0  0
  7 13  1  0  0  0  0
  8 12  1  0  0  0  0
  8 13  1  0  0  0  0
  9 14  1  0  0  0  0
  9 21  1  0  0  0  0
  9 22  1  0  0  0  0
 10 15  1  0  0  0  0
 10 23  1  0  0  0  0
 10 24  1  0  0  0  0
 14 16  1  0  0  0  0
 14 25  1  0  0  0  0
 14 26  1  0  0  0  0
 15 17  1  0  0  0  0
 15 27  1  0  0  0  0
 15 28  1  0  0  0  0
 16 18  1  0  0  0  0
 16 29  1  0  0  0  0
 16 30  1  0  0  0  0
 17 19  1  0  0  0  0
 17 31  1  0  0  0  0
 17 32  1  0  0  0  0
 18 34  1  0  0  0  0
 18 35  1  0  0  0  0
 18 36  1  0  0  0  0
 19 37  1  0  0  0  0
 19 38  1  0  0  0  0
 19 39  1  0  0  0  0
 20 40  1  0  0  0  0
 20 41  1  0  0  0  0
 20 42  1  0  0  0  0
M  END
> <PUBCHEM_COMPOUND_CID>
134013

> <PUBCHEM_CONFORMER_RMSD>
0.8

> <PUBCHEM_CONFORMER_DIVERSEORDER>
1
52
41
60
5
34
18
40
32
51
37
8
35
10
3
16
24
15
49
43
48
19
11
29
46
44
28
58
12
54
9
23
50
55
47
33
25
7
17
30
26
2
36
14
42
56
59
31
4
6
27
38
45
21
57
22
53
39
13
20

> <PUBCHEM_MMFF94_PARTIAL_CHARGES>
15
1 -0.38
10 0.3
11 0.5
12 0.57
13 0.57
2 -0.56
20 0.28
3 -0.68
33 0.4
4 -0.57
5 -0.57
6 -0.42
7 -0.42
8 0.68
9 0.3

> <PUBCHEM_EFFECTIVE_ROTOR_COUNT>
7.6

> <PUBCHEM_PHARMACOPHORE_FEATURES>
9
1 1 acceptor
1 18 hydrophobe
1 19 hydrophobe
1 2 acceptor
1 3 acceptor
1 3 donor
1 4 acceptor
1 5 acceptor
6 6 7 8 11 12 13 rings

> <PUBCHEM_HEAVY_ATOM_COUNT>
20

> <PUBCHEM_ATOM_DEF_STEREO_COUNT>
0

> <PUBCHEM_ATOM_UDEF_STEREO_COUNT>
0

> <PUBCHEM_BOND_DEF_STEREO_COUNT>
0

> <PUBCHEM_BOND_UDEF_STEREO_COUNT>
0

> <PUBCHEM_ISOTOPIC_ATOM_COUNT>
0

> <PUBCHEM_COMPONENT_COUNT>
1

> <PUBCHEM_CACTVS_TAUTO_COUNT>
1

> <PUBCHEM_CONFORMER_ID>
00020B7D00000001

> <PUBCHEM_MMFF94_ENERGY>
35.8992

> <PUBCHEM_FEATURE_SELFOVERLAP>
45.736

> <PUBCHEM_SHAPE_FINGERPRINT>
10382601 240 18262239893919757825
10493431 412 18335703862082489689
10681291 71 18410013230000671425
107951 10 18261120703163528502
11823591 26 18411689985169823680
12390115 104 18338809999473500833
12644460 14 17968934184968500448
12954195 1 18200874109747952367
13140716 1 18262230036790550147
14790565 3 18335145297164707468
16945 1 17973700511782059555
19784866 170 18186804655911811913
20600515 1 16753797669565510320
20739085 24 18117285748402324077
21524375 3 18339908372871308419
22182313 1 18198084601435274022
22620623 9 17915179255071082030
2334 1 18262782073152866227
23419403 2 17764919828094073906
23557571 272 18196101156259258508
23558518 356 17903355149453957660
25147074 1 18263903544943262458
2748010 2 18408595972349741319
293599 30 18410295821864233144
31174 14 17902225620805710331
350125 39 18191028009355479153
44154327 71 18334290929300109412
458136 41 18338231557620275121
5104073 3 18115013234552000464
559249 180 18410853292266832288
59554788 170 18191025603920599196
7364860 26 18128254476416127293
81228 2 17760624255096415136
9999458 23 18043249041908029610

> <PUBCHEM_SHAPE_MULTIPOLES>
382
8.66
3.68
1.25
0.71
2.2
0.13
-11.08
-0.71
-0.51
0.59
0.16
0.62
-0.78

> <PUBCHEM_SHAPE_SELFOVERLAP>
748.275

> <PUBCHEM_SHAPE_VOLUME>
231.7

> <PUBCHEM_COORDINATE_TYPE>
2
5
10

$$$$
