134024
  -OEChem-03292013323D

 49 52  0     0  0  0  0  0  0999 V2000
   -0.5943   -2.3872    0.0691 O   0  0  0  0  0  0  0  0  0  0  0  0
   -5.0951    2.1396    0.2932 O   0  0  0  0  0  0  0  0  0  0  0  0
    1.8852   -2.4889   -0.0105 O   0  0  0  0  0  0  0  0  0  0  0  0
    2.2912    2.8375    0.0645 O   0  0  0  0  0  0  0  0  0  0  0  0
    4.4186   -2.7742   -0.0946 O   0  0  0  0  0  0  0  0  0  0  0  0
    7.0450    1.1667   -0.1167 O   0  0  0  0  0  0  0  0  0  0  0  0
   -5.9562   -0.8508   -0.9893 O   0  0  0  0  0  0  0  0  0  0  0  0
   -6.0015   -0.9444    1.3009 O   0  0  0  0  0  0  0  0  0  0  0  0
   -1.6723   -0.2408    0.1407 C   0  0  0  0  0  0  0  0  0  0  0  0
    0.7579   -0.4207    0.0586 C   0  0  0  0  0  0  0  0  0  0  0  0
    0.8673    0.9684    0.0782 C   0  0  0  0  0  0  0  0  0  0  0  0
   -1.5612    1.1685    0.1606 C   0  0  0  0  0  0  0  0  0  0  0  0
   -0.5063   -1.0229    0.0896 C   0  0  0  0  0  0  0  0  0  0  0  0
   -2.9473   -0.8294    0.1729 C   0  0  0  0  0  0  0  0  0  0  0  0
   -0.2873    1.7598    0.1288 C   0  0  0  0  0  0  0  0  0  0  0  0
    3.2952   -0.6206   -0.0262 C   0  0  0  0  0  0  0  0  0  0  0  0
    3.4047    0.7712   -0.0073 C   0  0  0  0  0  0  0  0  0  0  0  0
    1.9678   -1.2676    0.0058 C   0  0  0  0  0  0  0  0  0  0  0  0
    2.1948    1.6167    0.0460 C   0  0  0  0  0  0  0  0  0  0  0  0
   -4.0961   -0.0398    0.2240 C   0  0  0  0  0  0  0  0  0  0  0  0
   -2.7286    1.9484    0.2120 C   0  0  0  0  0  0  0  0  0  0  0  0
   -3.9870    1.3471    0.2434 C   0  0  0  0  0  0  0  0  0  0  0  0
   -3.1671   -2.3153    0.1552 C   0  0  0  0  0  0  0  0  0  0  0  0
    4.4496   -1.4113   -0.0753 C   0  0  0  0  0  0  0  0  0  0  0  0
    4.6685    1.3727   -0.0383 C   0  0  0  0  0  0  0  0  0  0  0  0
    5.8164    0.5812   -0.0876 C   0  0  0  0  0  0  0  0  0  0  0  0
    5.7071   -0.8078   -0.1058 C   0  0  0  0  0  0  0  0  0  0  0  0
   -5.4241   -0.6473    0.2572 C   0  0  0  0  0  0  0  0  0  0  0  0
   -5.6630    2.5369   -0.9528 C   0  0  0  0  0  0  0  0  0  0  0  0
    8.1765    0.2992   -0.1666 C   0  0  0  0  0  0  0  0  0  0  0  0
   -7.2588   -1.4448   -1.0296 C   0  0  0  0  0  0  0  0  0  0  0  0
   -0.2052    2.8452    0.1443 H   0  0  0  0  0  0  0  0  0  0  0  0
   -2.6589    3.0347    0.2288 H   0  0  0  0  0  0  0  0  0  0  0  0
   -2.7114   -2.7811    1.0359 H   0  0  0  0  0  0  0  0  0  0  0  0
   -4.2116   -2.6348    0.1859 H   0  0  0  0  0  0  0  0  0  0  0  0
   -2.7732   -2.7504   -0.7699 H   0  0  0  0  0  0  0  0  0  0  0  0
    4.7742    2.4546   -0.0242 H   0  0  0  0  0  0  0  0  0  0  0  0
    6.5709   -1.4633   -0.1432 H   0  0  0  0  0  0  0  0  0  0  0  0
    0.2113   -2.7854    0.4331 H   0  0  0  0  0  0  0  0  0  0  0  0
    5.3241   -3.1266   -0.1289 H   0  0  0  0  0  0  0  0  0  0  0  0
   -5.0468    3.3193   -1.4067 H   0  0  0  0  0  0  0  0  0  0  0  0
   -6.6590    2.9451   -0.7605 H   0  0  0  0  0  0  0  0  0  0  0  0
   -5.7575    1.6958   -1.6453 H   0  0  0  0  0  0  0  0  0  0  0  0
    9.0687    0.9338   -0.1849 H   0  0  0  0  0  0  0  0  0  0  0  0
    8.2472   -0.3233    0.7319 H   0  0  0  0  0  0  0  0  0  0  0  0
    8.1893   -0.2943   -1.0871 H   0  0  0  0  0  0  0  0  0  0  0  0
   -7.5525   -1.5477   -2.0776 H   0  0  0  0  0  0  0  0  0  0  0  0
   -7.9833   -0.8003   -0.5230 H   0  0  0  0  0  0  0  0  0  0  0  0
   -7.2356   -2.4380   -0.5714 H   0  0  0  0  0  0  0  0  0  0  0  0
  1 13  1  0  0  0  0
  1 39  1  0  0  0  0
  2 22  1  0  0  0  0
  2 29  1  0  0  0  0
  3 18  2  0  0  0  0
  4 19  2  0  0  0  0
  5 24  1  0  0  0  0
  5 40  1  0  0  0  0
  6 26  1  0  0  0  0
  6 30  1  0  0  0  0
  7 28  1  0  0  0  0
  7 31  1  0  0  0  0
  8 28  2  0  0  0  0
  9 12  1  0  0  0  0
  9 13  2  0  0  0  0
  9 14  1  0  0  0  0
 10 11  2  0  0  0  0
 10 13  1  0  0  0  0
 10 18  1  0  0  0  0
 11 15  1  0  0  0  0
 11 19  1  0  0  0  0
 12 15  2  0  0  0  0
 12 21  1  0  0  0  0
 14 20  2  0  0  0  0
 14 23  1  0  0  0  0
 15 32  1  0  0  0  0
 16 17  2  0  0  0  0
 16 18  1  0  0  0  0
 16 24  1  0  0  0  0
 17 19  1  0  0  0  0
 17 25  1  0  0  0  0
 20 22  1  0  0  0  0
 20 28  1  0  0  0  0
 21 22  2  0  0  0  0
 21 33  1  0  0  0  0
 23 34  1  0  0  0  0
 23 35  1  0  0  0  0
 23 36  1  0  0  0  0
 24 27  2  0  0  0  0
 25 26  2  0  0  0  0
 25 37  1  0  0  0  0
 26 27  1  0  0  0  0
 27 38  1  0  0  0  0
 29 41  1  0  0  0  0
 29 42  1  0  0  0  0
 29 43  1  0  0  0  0
 30 44  1  0  0  0  0
 30 45  1  0  0  0  0
 30 46  1  0  0  0  0
 31 47  1  0  0  0  0
 31 48  1  0  0  0  0
 31 49  1  0  0  0  0
M  END
> <PUBCHEM_COMPOUND_CID>
134024

> <PUBCHEM_CONFORMER_RMSD>
0.8

> <PUBCHEM_CONFORMER_DIVERSEORDER>
2
1

> <PUBCHEM_MMFF94_PARTIAL_CHARGES>
35
1 -0.53
10 0.09
11 0.09
13 0.08
14 -0.14
15 -0.15
16 0.09
17 0.09
18 0.4
19 0.4
2 -0.36
20 0.09
21 -0.15
22 0.08
23 0.14
24 0.08
25 -0.15
26 0.08
27 -0.15
28 0.63
29 0.28
3 -0.57
30 0.28
31 0.28
32 0.15
33 0.15
37 0.15
38 0.15
39 0.45
4 -0.57
40 0.45
5 -0.53
6 -0.36
7 -0.43
8 -0.57

> <PUBCHEM_EFFECTIVE_ROTOR_COUNT>
4

> <PUBCHEM_PHARMACOPHORE_FEATURES>
11
1 1 donor
1 2 acceptor
1 3 acceptor
1 4 acceptor
1 5 donor
1 6 acceptor
1 8 acceptor
6 10 11 16 17 18 19 rings
6 16 17 24 25 26 27 rings
6 9 10 11 12 13 15 rings
6 9 12 14 20 21 22 rings

> <PUBCHEM_HEAVY_ATOM_COUNT>
31

> <PUBCHEM_ATOM_DEF_STEREO_COUNT>
0

> <PUBCHEM_ATOM_UDEF_STEREO_COUNT>
0

> <PUBCHEM_BOND_DEF_STEREO_COUNT>
0

> <PUBCHEM_BOND_UDEF_STEREO_COUNT>
0

> <PUBCHEM_ISOTOPIC_ATOM_COUNT>
0

> <PUBCHEM_COMPONENT_COUNT>
1

> <PUBCHEM_CACTVS_TAUTO_COUNT>
105

> <PUBCHEM_CONFORMER_ID>
00020B8800000002

> <PUBCHEM_MMFF94_ENERGY>
137.2144

> <PUBCHEM_FEATURE_SELFOVERLAP>
55.891

> <PUBCHEM_SHAPE_FINGERPRINT>
10595046 47 18340768152283221314
10835480 77 18336542716371428165
11315181 36 17748830743512002705
11578080 2 16952233344874692167
11719270 70 18413103936692753554
11963148 33 18336259145651806306
12107183 9 17762903156195839330
12166972 35 18059575818828243641
12236239 1 17989490705779493354
12516196 113 18060136548520741480
12788726 201 17560524980245769760
12838862 33 18339063987418827848
13402501 40 18409731750686334184
13811026 1 18411418385050666882
14251764 18 18334575746430834712
14341114 176 18412270518987899490
14394314 77 18342745078760081457
14790565 3 18410017636990388972
15131766 46 16011580514790361004
15183329 4 18410009952919109858
15196674 1 18410576154136380913
1577012 14 18409448046595229728
17492 89 18123470480371726282
17899979 129 16890023909833479797
1813 80 17095529474302949044
18608769 82 18337396061869454402
18681886 176 18342450473956953312
19611394 137 17896898739876354283
20028762 73 18202561787293816895
20511986 3 18336536149603257106
20721686 56 18408609153641582138
21033648 144 18263076618585743965
21130935 74 18201720605042673082
21236236 1 18411982447416227761
21267235 1 18410862092021884107
21279426 13 18337956666712241998
22311459 1 18411419540206686130
23522609 53 17984734270487776305
23559900 14 18341888601982593336
3004659 81 18261395508303473922
335352 9 18410856606958406638
34797466 226 17346605205332302748
350125 39 18411139130028729433
3545911 37 18411983576786768440
4073 2 18113908147206958082
4214541 1 18410576171759563145
4325135 7 18341893012871243087
5104073 3 18410577240752512689
59755656 215 18408885148387332662

> <PUBCHEM_SHAPE_MULTIPOLES>
591.01
18.4
2.77
0.74
5.77
0.03
-0.03
-0.08
-2.56
-1.09
-0.13
-0.86
-0.02
0.1

> <PUBCHEM_SHAPE_SELFOVERLAP>
1333.784

> <PUBCHEM_SHAPE_VOLUME>
311.4

> <PUBCHEM_COORDINATE_TYPE>
2
5
10

$$$$
