134159033
  -OEChem-03292013293D

 47 51  0     1  0  0  0  0  0999 V2000
    3.1465    0.3533   -0.2142 N   0  0  0  0  0  0  0  0  0  0  0  0
   -0.9417    2.4443   -0.5594 N   0  0  0  0  0  0  0  0  0  0  0  0
    2.6048   -1.7304   -0.9485 N   0  0  0  0  0  0  0  0  0  0  0  0
    2.0926    0.2836    1.9918 N   0  0  0  0  0  0  0  0  0  0  0  0
   -1.4783    0.2573   -1.4944 N   0  0  0  0  0  0  0  0  0  0  0  0
   -0.0844   -2.5193    0.3152 N   0  0  0  0  0  0  0  0  0  0  0  0
   -2.1341    2.3472    1.3197 N   0  0  0  0  0  0  0  0  0  0  0  0
    0.6642   -1.6167    2.2622 N   0  0  0  0  0  0  0  0  0  0  0  0
   -2.9907   -0.9784   -0.0486 N   0  0  0  0  0  0  0  0  0  0  0  0
   -3.8023   -0.0911    2.0191 N   0  0  0  0  0  0  0  0  0  0  0  0
    2.1777    2.6134   -0.4398 C   0  0  0  0  0  0  0  0  0  0  0  0
    3.4534    1.7628   -0.3822 C   0  0  0  0  0  0  0  0  0  0  0  0
    1.2947    2.3027   -1.6552 C   0  0  0  0  0  0  0  0  0  0  0  0
   -0.0722    2.9872   -1.5864 C   0  0  0  0  0  0  0  0  0  0  0  0
    2.2863   -1.6508    0.5088 C   0  0  1  0  0  0  0  0  0  0  0  0
    2.5282   -0.1948    0.8779 C   0  0  0  0  0  0  0  0  0  0  0  0
   -1.5584    1.2224   -0.5663 C   0  0  0  0  0  0  0  0  0  0  0  0
    3.1369   -0.5682   -1.2207 C   0  0  0  0  0  0  0  0  0  0  0  0
    0.8882   -1.9712    0.9425 C   0  0  0  0  0  0  0  0  0  0  0  0
   -2.2914    1.1848    0.6083 C   0  0  0  0  0  0  0  0  0  0  0  0
   -1.4463   -3.2282   -1.5526 C   0  0  0  0  0  0  0  0  0  0  0  0
   -2.1654   -1.9900   -2.1103 C   0  0  0  0  0  0  0  0  0  0  0  0
   -1.3221    3.0839    0.5903 C   0  0  0  0  0  0  0  0  0  0  0  0
   -0.0165   -2.9485   -1.0692 C   0  0  0  0  0  0  0  0  0  0  0  0
   -2.2240   -0.8232   -1.1601 C   0  0  0  0  0  0  0  0  0  0  0  0
   -3.0285    0.0325    0.8524 C   0  0  0  0  0  0  0  0  0  0  0  0
    1.2829   -0.5646    2.7198 C   0  0  0  0  0  0  0  0  0  0  0  0
    2.4632    3.6720   -0.4729 H   0  0  0  0  0  0  0  0  0  0  0  0
    1.6089    2.4773    0.4856 H   0  0  0  0  0  0  0  0  0  0  0  0
    4.0509    1.9205   -1.2878 H   0  0  0  0  0  0  0  0  0  0  0  0
    4.0679    2.0964    0.4623 H   0  0  0  0  0  0  0  0  0  0  0  0
    1.8143    2.6394   -2.5605 H   0  0  0  0  0  0  0  0  0  0  0  0
    1.1469    1.2237   -1.7610 H   0  0  0  0  0  0  0  0  0  0  0  0
    0.0388    4.0628   -1.4080 H   0  0  0  0  0  0  0  0  0  0  0  0
   -0.6008    2.8648   -2.5390 H   0  0  0  0  0  0  0  0  0  0  0  0
    2.9878   -2.2861    1.0631 H   0  0  0  0  0  0  0  0  0  0  0  0
    3.5153   -0.2554   -2.2048 H   0  0  0  0  0  0  0  0  0  0  0  0
   -2.0405   -3.6736   -0.7446 H   0  0  0  0  0  0  0  0  0  0  0  0
   -1.4020   -3.9712   -2.3587 H   0  0  0  0  0  0  0  0  0  0  0  0
   -3.1909   -2.2642   -2.3857 H   0  0  0  0  0  0  0  0  0  0  0  0
   -1.6706   -1.6754   -3.0379 H   0  0  0  0  0  0  0  0  0  0  0  0
   -0.9778    4.0774    0.8438 H   0  0  0  0  0  0  0  0  0  0  0  0
    0.4291   -2.1988   -1.7273 H   0  0  0  0  0  0  0  0  0  0  0  0
    0.5691   -3.8723   -1.1308 H   0  0  0  0  0  0  0  0  0  0  0  0
    1.1242   -0.2921    3.7757 H   0  0  0  0  0  0  0  0  0  0  0  0
   -3.8315    0.6604    2.6948 H   0  0  0  0  0  0  0  0  0  0  0  0
   -4.3282   -0.9403    2.1749 H   0  0  0  0  0  0  0  0  0  0  0  0
  1 12  1  0  0  0  0
  1 16  1  0  0  0  0
  1 18  1  0  0  0  0
  2 14  1  0  0  0  0
  2 17  1  0  0  0  0
  2 23  1  0  0  0  0
  3 15  1  0  0  0  0
  3 18  2  0  0  0  0
  4 16  2  0  0  0  0
  4 27  1  0  0  0  0
  5 17  2  0  0  0  0
  5 25  1  0  0  0  0
  6 19  2  0  0  0  0
  6 24  1  0  0  0  0
  7 20  1  0  0  0  0
  7 23  2  0  0  0  0
  8 19  1  0  0  0  0
  8 27  2  0  0  0  0
  9 25  2  0  0  0  0
  9 26  1  0  0  0  0
 10 26  1  0  0  0  0
 10 46  1  0  0  0  0
 10 47  1  0  0  0  0
 11 12  1  0  0  0  0
 11 13  1  0  0  0  0
 11 28  1  0  0  0  0
 11 29  1  0  0  0  0
 12 30  1  0  0  0  0
 12 31  1  0  0  0  0
 13 14  1  0  0  0  0
 13 32  1  0  0  0  0
 13 33  1  0  0  0  0
 14 34  1  0  0  0  0
 14 35  1  0  0  0  0
 15 16  1  0  0  0  0
 15 19  1  0  0  0  0
 15 36  1  0  0  0  0
 17 20  1  0  0  0  0
 18 37  1  0  0  0  0
 20 26  2  0  0  0  0
 21 22  1  0  0  0  0
 21 24  1  0  0  0  0
 21 38  1  0  0  0  0
 21 39  1  0  0  0  0
 22 25  1  0  0  0  0
 22 40  1  0  0  0  0
 22 41  1  0  0  0  0
 23 42  1  0  0  0  0
 24 43  1  0  0  0  0
 24 44  1  0  0  0  0
 27 45  1  0  0  0  0
M  END
> <PUBCHEM_COMPOUND_CID>
134159033

> <PUBCHEM_CONFORMER_RMSD>
0.6

> <PUBCHEM_CONFORMER_DIVERSEORDER>
1
4
2
5
8
7
3
6

> <PUBCHEM_MMFF94_PARTIAL_CHARGES>
29
1 -0.47
10 -0.9
12 0.37
14 0.26
15 0.37
16 0.44
17 0.11
18 0.44
19 0.6
2 0.05
20 0.23
22 0.14
23 0.04
24 0.25
25 0.48
26 0.41
27 0.6
3 -0.7
37 0.06
4 -0.66
42 0.15
45 0.06
46 0.4
47 0.4
5 -0.57
6 -0.7
7 -0.57
8 -0.66
9 -0.62

> <PUBCHEM_EFFECTIVE_ROTOR_COUNT>
1.4

> <PUBCHEM_PHARMACOPHORE_FEATURES>
13
1 10 cation
1 10 donor
3 1 3 18 cation
3 1 4 16 cation
3 2 5 17 cation
3 2 7 23 cation
3 4 8 27 cation
3 5 9 25 cation
3 6 8 19 cation
5 1 3 15 16 18 rings
5 2 7 17 20 23 rings
6 4 8 15 16 19 27 rings
6 5 9 17 20 25 26 rings

> <PUBCHEM_HEAVY_ATOM_COUNT>
27

> <PUBCHEM_ATOM_DEF_STEREO_COUNT>
1

> <PUBCHEM_ATOM_UDEF_STEREO_COUNT>
0

> <PUBCHEM_BOND_DEF_STEREO_COUNT>
0

> <PUBCHEM_BOND_UDEF_STEREO_COUNT>
0

> <PUBCHEM_ISOTOPIC_ATOM_COUNT>
0

> <PUBCHEM_COMPONENT_COUNT>
1

> <PUBCHEM_CACTVS_TAUTO_COUNT>
9

> <PUBCHEM_CONFORMER_ID>
07FF1AB900000001

> <PUBCHEM_MMFF94_ENERGY>
78.2592

> <PUBCHEM_FEATURE_SELFOVERLAP>
67.314

> <PUBCHEM_SHAPE_FINGERPRINT>
10119406 146 17751097825737686198
10165383 225 17773608121789771667
12156800 1 15546912572327863843
128993 33 18199182893218244274
14114207 22 15529311680220942417
14386348 128 17987513723727535323
17492 54 17684067455356695252
18981168 100 17772165549512058059
20600515 1 17619860288246926591
20775438 99 15463786440174616014
20905425 154 17682128677107295828
238 59 16608257527188992429
35225 105 17202177703818536925
3524813 1 17771352976175645767
3797600 57 17531543034705738218
445580 8 18410860996720892617
484985 159 10820858141807912417
57527585 103 17316771185615310114
5845 1 18054756659658671109
6287921 2 18270418112793554874

> <PUBCHEM_SHAPE_MULTIPOLES>
505.84
5.16
4.09
2.27
0.42
0.61
0.84
0.23
0.28
-0.49
-1.41
-0.26
-0.53
-1.61

> <PUBCHEM_SHAPE_SELFOVERLAP>
1112.446

> <PUBCHEM_SHAPE_VOLUME>
264.3

> <PUBCHEM_COORDINATE_TYPE>
2
5
10

$$$$
