134150
  -OEChem-03292013323D

 39 41  0     1  0  0  0  0  0999 V2000
   -2.7239    0.2730   -0.9148 O   0  0  0  0  0  0  0  0  0  0  0  0
   -4.1800   -2.2129    0.1946 O   0  0  0  0  0  0  0  0  0  0  0  0
   -4.4945    2.4329   -0.7879 O   0  0  0  0  0  0  0  0  0  0  0  0
   -0.5021    0.1124   -0.0994 N   0  0  0  0  0  0  0  0  0  0  0  0
    0.9788    1.7723    0.0931 N   0  0  0  0  0  0  0  0  0  0  0  0
    1.0150   -1.7826   -0.2069 N   0  0  0  0  0  0  0  0  0  0  0  0
    3.9707    1.2321    0.1543 N   0  0  0  0  0  0  0  0  0  0  0  0
    3.3439   -1.0671   -0.0640 N   0  0  0  0  0  0  0  0  0  0  0  0
    2.7703   -3.3285   -0.2743 N   0  0  0  0  0  0  0  0  0  0  0  0
   -1.7922   -0.5596   -0.2028 C   0  0  1  0  0  0  0  0  0  0  0  0
   -3.9002   -0.9375    0.7676 C   0  0  1  0  0  0  0  0  0  0  0  0
   -2.4351   -0.8906    1.1364 C   0  0  0  0  0  0  0  0  0  0  0  0
   -4.0244    0.1417   -0.3028 C   0  0  1  0  0  0  0  0  0  0  0  0
   -4.4141    1.4964    0.2723 C   0  0  0  0  0  0  0  0  0  0  0  0
    0.7336   -0.4748   -0.1057 C   0  0  0  0  0  0  0  0  0  0  0  0
   -0.2993    1.4638    0.0216 C   0  0  0  0  0  0  0  0  0  0  0  0
    1.6358    0.5700    0.0149 C   0  0  0  0  0  0  0  0  0  0  0  0
    2.9861    0.2360    0.0344 C   0  0  0  0  0  0  0  0  0  0  0  0
    2.3508   -1.9819   -0.1769 C   0  0  0  0  0  0  0  0  0  0  0  0
    3.6944    2.4606    0.8768 C   0  0  0  0  0  0  0  0  0  0  0  0
    5.2863    1.0444   -0.4304 C   0  0  0  0  0  0  0  0  0  0  0  0
   -1.6387   -1.4615   -0.8072 H   0  0  0  0  0  0  0  0  0  0  0  0
   -4.5708   -0.8017    1.6201 H   0  0  0  0  0  0  0  0  0  0  0  0
   -2.2569   -0.0896    1.8637 H   0  0  0  0  0  0  0  0  0  0  0  0
   -2.0482   -1.8274    1.5490 H   0  0  0  0  0  0  0  0  0  0  0  0
   -4.7230   -0.1417   -1.0982 H   0  0  0  0  0  0  0  0  0  0  0  0
   -3.6635    1.8601    0.9811 H   0  0  0  0  0  0  0  0  0  0  0  0
   -5.3872    1.4449    0.7703 H   0  0  0  0  0  0  0  0  0  0  0  0
   -1.1144    2.1738    0.0573 H   0  0  0  0  0  0  0  0  0  0  0  0
   -3.7005   -2.2934   -0.6467 H   0  0  0  0  0  0  0  0  0  0  0  0
   -4.7452    3.2873   -0.3974 H   0  0  0  0  0  0  0  0  0  0  0  0
    3.1764    3.1805    0.2350 H   0  0  0  0  0  0  0  0  0  0  0  0
    4.6236    2.9341    1.2137 H   0  0  0  0  0  0  0  0  0  0  0  0
    3.0972    2.2762    1.7770 H   0  0  0  0  0  0  0  0  0  0  0  0
    5.8647    0.3223    0.1552 H   0  0  0  0  0  0  0  0  0  0  0  0
    5.8509    1.9824   -0.4631 H   0  0  0  0  0  0  0  0  0  0  0  0
    5.2061    0.6780   -1.4598 H   0  0  0  0  0  0  0  0  0  0  0  0
    2.0776   -4.0595   -0.3593 H   0  0  0  0  0  0  0  0  0  0  0  0
    3.7577   -3.5434   -0.2563 H   0  0  0  0  0  0  0  0  0  0  0  0
  1 10  1  0  0  0  0
  1 13  1  0  0  0  0
  2 11  1  0  0  0  0
  2 30  1  0  0  0  0
  3 14  1  0  0  0  0
  3 31  1  0  0  0  0
  4 10  1  0  0  0  0
  4 15  1  0  0  0  0
  4 16  1  0  0  0  0
  5 16  2  0  0  0  0
  5 17  1  0  0  0  0
  6 15  1  0  0  0  0
  6 19  2  0  0  0  0
  7 18  1  0  0  0  0
  7 20  1  0  0  0  0
  7 21  1  0  0  0  0
  8 18  2  0  0  0  0
  8 19  1  0  0  0  0
  9 19  1  0  0  0  0
  9 38  1  0  0  0  0
  9 39  1  0  0  0  0
 10 12  1  0  0  0  0
 10 22  1  0  0  0  0
 11 12  1  0  0  0  0
 11 13  1  0  0  0  0
 11 23  1  0  0  0  0
 12 24  1  0  0  0  0
 12 25  1  0  0  0  0
 13 14  1  0  0  0  0
 13 26  1  0  0  0  0
 14 27  1  0  0  0  0
 14 28  1  0  0  0  0
 15 17  2  0  0  0  0
 16 29  1  0  0  0  0
 17 18  1  0  0  0  0
 20 32  1  0  0  0  0
 20 33  1  0  0  0  0
 20 34  1  0  0  0  0
 21 35  1  0  0  0  0
 21 36  1  0  0  0  0
 21 37  1  0  0  0  0
M  END
> <PUBCHEM_COMPOUND_CID>
134150

> <PUBCHEM_CONFORMER_RMSD>
0.6

> <PUBCHEM_CONFORMER_DIVERSEORDER>
1
24
28
10
19
17
20
26
5
7
16
31
13
2
8
18
15
30
27
25
3
6
11
22
12
29
14
9
4
23
21

> <PUBCHEM_MMFF94_PARTIAL_CHARGES>
25
1 -0.56
10 0.54
11 0.28
13 0.28
14 0.28
15 0.11
16 0.04
17 0.23
18 0.41
19 0.72
2 -0.68
20 0.37
21 0.37
29 0.15
3 -0.68
30 0.4
31 0.4
38 0.4
39 0.4
4 0.05
5 -0.57
6 -0.57
7 -0.84
8 -0.62
9 -0.9

> <PUBCHEM_EFFECTIVE_ROTOR_COUNT>
4

> <PUBCHEM_PHARMACOPHORE_FEATURES>
11
1 1 acceptor
1 2 acceptor
1 2 donor
1 3 acceptor
1 3 donor
1 9 donor
3 4 5 16 cation
4 6 8 9 19 cation
5 1 10 11 12 13 rings
5 4 5 15 16 17 rings
6 6 8 15 17 18 19 rings

> <PUBCHEM_HEAVY_ATOM_COUNT>
21

> <PUBCHEM_ATOM_DEF_STEREO_COUNT>
3

> <PUBCHEM_ATOM_UDEF_STEREO_COUNT>
0

> <PUBCHEM_BOND_DEF_STEREO_COUNT>
0

> <PUBCHEM_BOND_UDEF_STEREO_COUNT>
0

> <PUBCHEM_ISOTOPIC_ATOM_COUNT>
0

> <PUBCHEM_COMPONENT_COUNT>
1

> <PUBCHEM_CACTVS_TAUTO_COUNT>
3

> <PUBCHEM_CONFORMER_ID>
00020C0600000001

> <PUBCHEM_MMFF94_ENERGY>
62.7601

> <PUBCHEM_FEATURE_SELFOVERLAP>
55.958

> <PUBCHEM_SHAPE_FINGERPRINT>
10493431 412 18053660562836175504
10608611 8 18408601457418474237
1100329 8 17619633479935758496
11405975 8 18262235508678955995
11471102 20 18412824677264474748
11578080 2 17169536420884245886
116883 192 18052822438058239524
12107183 9 17766851528658856115
12236239 1 17346606308758933755
12403259 415 18270118041020429088
12507560 40 18408891715845748939
13296908 3 18409168788133178819
13583140 156 18201997772335464557
14790565 3 18265340697410611508
15196674 1 18410012126156886642
15219456 202 18407760330849009355
15375358 24 18334856125557947163
15442244 35 18125725582350136897
1601671 61 18334297578379125180
1813 80 16805613551184043045
18186145 218 17917153917672284680
19784866 170 18335423477990263148
20645477 56 18333450933240739409
20645477 70 18130787811162148318
21033648 29 18200582734930173232
21065198 57 18337954493791183735
21065199 12 18408327692039850979
21279426 13 18339930325108437622
21421861 104 17751070306789620218
21452121 103 18341602716664598832
21709351 56 18411416258551284444
221490 88 18338241453494184254
22393880 68 18343587360389911710
23402539 116 16950273044253963741
23557571 272 17530678792812080381
23559900 14 18267861684072245970
296302 2 18335141990059793017
33824 294 18410857693917773018
34934 24 18411696573686039839
3545911 37 18410577288540795793
4214541 1 18409449185225981561
495365 180 18129926906410664409
5104073 3 18408323267933288995
543358 83 18270122297005549456
7364860 26 18341894040054345718
8272917 22 18271248226924402782
9709674 26 18408888408462702039

> <PUBCHEM_SHAPE_MULTIPOLES>
384.68
10.19
2.77
0.8
1.92
0.87
0.08
-3
-0.08
-1.09
-0.02
0.32
-0.1
1.13

> <PUBCHEM_SHAPE_SELFOVERLAP>
825.306

> <PUBCHEM_SHAPE_VOLUME>
212.1

> <PUBCHEM_COORDINATE_TYPE>
2
5
10

$$$$
