134173
  -OEChem-03292013323D

 19 20  0     0  0  0  0  0  0999 V2000
    4.4714   -0.6587    0.0003 O   0  5  0  0  0  0  0  0  0  0  0  0
    4.0711    1.4997   -0.0002 O   0  0  0  0  0  0  0  0  0  0  0  0
   -4.5175   -0.3894    0.0000 O   0  5  0  0  0  0  0  0  0  0  0  0
   -3.8102    1.6887    0.0004 O   0  0  0  0  0  0  0  0  0  0  0  0
    1.3251    1.0316   -0.0003 N   0  0  0  0  0  0  0  0  0  0  0  0
    1.7450   -1.1510    0.0001 N   0  0  0  0  0  0  0  0  0  0  0  0
   -3.5895    0.4541    0.0000 N   0  3  0  0  0  0  0  0  0  0  0  0
    3.6510    0.3054    0.0001 N   0  3  0  0  0  0  0  0  0  0  0  0
    0.0964    0.4226   -0.0002 C   0  0  0  0  0  0  0  0  0  0  0  0
    0.3854   -0.9393   -0.0001 C   0  0  0  0  0  0  0  0  0  0  0  0
   -1.2032    0.9303   -0.0002 C   0  0  0  0  0  0  0  0  0  0  0  0
   -2.2441   -0.0040    0.0000 C   0  0  0  0  0  0  0  0  0  0  0  0
   -0.6727   -1.8639   -0.0001 C   0  0  0  0  0  0  0  0  0  0  0  0
    2.2773    0.0507    0.0001 C   0  0  0  0  0  0  0  0  0  0  0  0
   -1.9856   -1.3767   -0.0001 C   0  0  0  0  0  0  0  0  0  0  0  0
    1.4930    2.0292   -0.0004 H   0  0  0  0  0  0  0  0  0  0  0  0
   -1.3674    2.0026   -0.0003 H   0  0  0  0  0  0  0  0  0  0  0  0
   -0.4818   -2.9323   -0.0001 H   0  0  0  0  0  0  0  0  0  0  0  0
   -2.7892   -2.1101   -0.0001 H   0  0  0  0  0  0  0  0  0  0  0  0
  1  8  1  0  0  0  0
  2  8  2  0  0  0  0
  3  7  1  0  0  0  0
  4  7  2  0  0  0  0
  5  9  1  0  0  0  0
  5 14  1  0  0  0  0
  5 16  1  0  0  0  0
  6 10  1  0  0  0  0
  6 14  2  0  0  0  0
  7 12  1  0  0  0  0
  8 14  1  0  0  0  0
  9 10  2  0  0  0  0
  9 11  1  0  0  0  0
 10 13  1  0  0  0  0
 11 12  2  0  0  0  0
 11 17  1  0  0  0  0
 12 15  1  0  0  0  0
 13 15  2  0  0  0  0
 13 18  1  0  0  0  0
 15 19  1  0  0  0  0
M  CHG  4   1  -1   3  -1   7   1   8   1
M  END
> <PUBCHEM_COMPOUND_CID>
134173

> <PUBCHEM_CONFORMER_RMSD>
0.6

> <PUBCHEM_CONFORMER_DIVERSEORDER>
1

> <PUBCHEM_MMFF94_PARTIAL_CHARGES>
19
1 -0.52
10 0.23
11 -0.15
12 0.13
13 -0.15
14 0.27
15 -0.15
16 0.27
17 0.15
18 0.15
19 0.15
2 -0.52
3 -0.52
4 -0.52
5 0.03
6 -0.57
7 0.91
8 0.96
9 -0.15

> <PUBCHEM_EFFECTIVE_ROTOR_COUNT>
2

> <PUBCHEM_PHARMACOPHORE_FEATURES>
9
1 1 acceptor
1 2 acceptor
1 3 acceptor
1 3 anion
1 4 acceptor
1 5 donor
4 5 6 8 14 cation
5 5 6 9 10 14 rings
6 9 10 11 12 13 15 rings

> <PUBCHEM_HEAVY_ATOM_COUNT>
15

> <PUBCHEM_ATOM_DEF_STEREO_COUNT>
0

> <PUBCHEM_ATOM_UDEF_STEREO_COUNT>
0

> <PUBCHEM_BOND_DEF_STEREO_COUNT>
0

> <PUBCHEM_BOND_UDEF_STEREO_COUNT>
0

> <PUBCHEM_ISOTOPIC_ATOM_COUNT>
0

> <PUBCHEM_COMPONENT_COUNT>
1

> <PUBCHEM_CACTVS_TAUTO_COUNT>
2

> <PUBCHEM_CONFORMER_ID>
00020C1D00000001

> <PUBCHEM_MMFF94_ENERGY>
35.1782

> <PUBCHEM_FEATURE_SELFOVERLAP>
45.942

> <PUBCHEM_SHAPE_FINGERPRINT>
10608611 8 18341047518689621376
11132069 177 18411695513166753912
11401426 45 18272363179043854266
11471102 20 18411697686293520668
11543360 7 15841540916310029853
12119455 92 17418089901776543486
12346645 44 18410575046419868993
13380535 76 18411702079824025039
14325111 11 18410855455849044737
14897335 6 18411698785589136878
14943859 89 18409448106788198787
15196674 1 18410855464423129093
15536298 74 18270963440617850334
15775835 57 18407760326369425811
16945 1 18410575097590341223
18186145 218 18271814453932602493
200 152 17418092109310709470
20510252 161 18271810090446491553
20645477 56 18338795723249966192
20645477 70 17489598827017894766
21267235 1 18410301310584257754
23402539 116 18272923908298853709
23402655 69 18270670979763389989
23463225 33 18335136471427913122
23559900 14 18272651260439863016
2748010 2 18051972811933235431
366044 4 18410573985241511755
474 4 17168994563652748212
4990 188 18060707164974689150
5104073 3 18409448111330904890
528886 8 18411414020693773435
53812653 166 18342172288898427704
6430166 295 18410007719726006880
69090 78 18343016709465325823
7364860 26 18268429027935693854

> <PUBCHEM_SHAPE_MULTIPOLES>
265.29
7.61
1.6
0.56
1.71
0.16
0
-2.06
0
-0.34
0
-0.02
0.02
0

> <PUBCHEM_SHAPE_SELFOVERLAP>
584.026

> <PUBCHEM_SHAPE_VOLUME>
143.5

> <PUBCHEM_COORDINATE_TYPE>
2
5
10

$$$$
