134127
  -OEChem-03292013323D

 41 42  0     1  0  0  0  0  0999 V2000
    2.6750    2.2583    1.1972 O   0  0  0  0  0  0  0  0  0  0  0  0
    2.1736   -2.1357    0.9605 O   0  0  0  0  0  0  0  0  0  0  0  0
    0.0553    1.3131   -1.1852 O   0  0  0  0  0  0  0  0  0  0  0  0
   -4.3331    1.9120    0.3629 O   0  0  0  0  0  0  0  0  0  0  0  0
   -0.3567   -1.5853   -0.5705 N   0  0  0  0  0  0  0  0  0  0  0  0
    2.7733   -0.2239   -0.2146 N   0  0  0  0  0  0  0  0  0  0  0  0
   -3.4498   -0.2406    0.3747 N   0  0  0  0  0  0  0  0  0  0  0  0
   -2.1406    1.6379   -0.4149 N   0  0  0  0  0  0  0  0  0  0  0  0
   -2.2576   -2.3912    0.2705 N   0  0  0  0  0  0  0  0  0  0  0  0
    3.8301    0.2099    0.6695 C   0  0  1  0  0  0  0  0  0  0  0  0
   -1.1944   -0.5167   -0.4273 C   0  0  0  0  0  0  0  0  0  0  0  0
    0.9949   -1.5809   -1.0769 C   0  0  0  0  0  0  0  0  0  0  0  0
   -2.3496   -1.0374    0.0889 C   0  0  0  0  0  0  0  0  0  0  0  0
    4.9207    0.9632   -0.1035 C   0  0  0  0  0  0  0  0  0  0  0  0
    2.0278   -1.3722    0.0098 C   0  0  0  0  0  0  0  0  0  0  0  0
   -0.9901    0.8643   -0.7233 C   0  0  0  0  0  0  0  0  0  0  0  0
    3.2451    1.0893    1.7749 C   0  0  0  0  0  0  0  0  0  0  0  0
   -1.0416   -2.6912   -0.1372 C   0  0  0  0  0  0  0  0  0  0  0  0
   -3.3853    1.1537    0.1282 C   0  0  0  0  0  0  0  0  0  0  0  0
    5.5195    0.1357   -1.2338 C   0  0  0  0  0  0  0  0  0  0  0  0
   -4.6626   -0.8336    0.9245 C   0  0  0  0  0  0  0  0  0  0  0  0
   -2.0539    3.0713   -0.6745 C   0  0  0  0  0  0  0  0  0  0  0  0
    4.2731   -0.6787    1.1358 H   0  0  0  0  0  0  0  0  0  0  0  0
    1.1853   -2.5602   -1.5325 H   0  0  0  0  0  0  0  0  0  0  0  0
    1.0668   -0.8473   -1.8844 H   0  0  0  0  0  0  0  0  0  0  0  0
    4.5206    1.8872   -0.5386 H   0  0  0  0  0  0  0  0  0  0  0  0
    5.7215    1.2547    0.5867 H   0  0  0  0  0  0  0  0  0  0  0  0
    2.5332    0.3809   -0.9948 H   0  0  0  0  0  0  0  0  0  0  0  0
    2.4636    0.5675    2.3375 H   0  0  0  0  0  0  0  0  0  0  0  0
    4.0221    1.4019    2.4793 H   0  0  0  0  0  0  0  0  0  0  0  0
   -0.6064   -3.6814   -0.1406 H   0  0  0  0  0  0  0  0  0  0  0  0
    4.7789   -0.0878   -2.0078 H   0  0  0  0  0  0  0  0  0  0  0  0
    5.9216   -0.8098   -0.8560 H   0  0  0  0  0  0  0  0  0  0  0  0
    6.3387    0.6861   -1.7076 H   0  0  0  0  0  0  0  0  0  0  0  0
   -5.0435   -1.5797    0.2204 H   0  0  0  0  0  0  0  0  0  0  0  0
   -5.4377   -0.0823    1.0955 H   0  0  0  0  0  0  0  0  0  0  0  0
   -4.4217   -1.3153    1.8771 H   0  0  0  0  0  0  0  0  0  0  0  0
   -1.0831    3.3721   -1.0746 H   0  0  0  0  0  0  0  0  0  0  0  0
   -2.2405    3.6079    0.2613 H   0  0  0  0  0  0  0  0  0  0  0  0
   -2.8388    3.3446   -1.3870 H   0  0  0  0  0  0  0  0  0  0  0  0
    1.9728    1.9698    0.5894 H   0  0  0  0  0  0  0  0  0  0  0  0
  1 17  1  0  0  0  0
  1 41  1  0  0  0  0
  2 15  2  0  0  0  0
  3 16  2  0  0  0  0
  4 19  2  0  0  0  0
  5 11  1  0  0  0  0
  5 12  1  0  0  0  0
  5 18  1  0  0  0  0
  6 10  1  0  0  0  0
  6 15  1  0  0  0  0
  6 28  1  0  0  0  0
  7 13  1  0  0  0  0
  7 19  1  0  0  0  0
  7 21  1  0  0  0  0
  8 16  1  0  0  0  0
  8 19  1  0  0  0  0
  8 22  1  0  0  0  0
  9 13  1  0  0  0  0
  9 18  2  0  0  0  0
 10 14  1  0  0  0  0
 10 17  1  0  0  0  0
 10 23  1  0  0  0  0
 11 13  2  0  0  0  0
 11 16  1  0  0  0  0
 12 15  1  0  0  0  0
 12 24  1  0  0  0  0
 12 25  1  0  0  0  0
 14 20  1  0  0  0  0
 14 26  1  0  0  0  0
 14 27  1  0  0  0  0
 17 29  1  0  0  0  0
 17 30  1  0  0  0  0
 18 31  1  0  0  0  0
 20 32  1  0  0  0  0
 20 33  1  0  0  0  0
 20 34  1  0  0  0  0
 21 35  1  0  0  0  0
 21 36  1  0  0  0  0
 21 37  1  0  0  0  0
 22 38  1  0  0  0  0
 22 39  1  0  0  0  0
 22 40  1  0  0  0  0
M  END
> <PUBCHEM_COMPOUND_CID>
134127

> <PUBCHEM_CONFORMER_RMSD>
0.8

> <PUBCHEM_CONFORMER_DIVERSEORDER>
4
108
73
110
104
80
54
37
65
42
96
109
28
25
68
89
87
94
99
101
98
88
86
85
38
9
47
35
22
23
106
76
69
27
72
53
8
21
70
44
50
31
79
67
75
91
66
55
83
60
33
74
36
93
84
102
51
19
13
92
56
103
78
82
62
71
29
52
95
81
100
107
61
77
16
90
63
49
18
43
26
64
39
30
5
105
41
48
57
11
32
3
46
40
97
59
10
7
12
20
45
2
15
24
17
14
1
58
6
34

> <PUBCHEM_MMFF94_PARTIAL_CHARGES>
23
1 -0.68
10 0.3
11 -0.24
12 0.32
13 0.29
15 0.57
16 0.71
17 0.28
18 0.04
19 0.69
2 -0.57
21 0.3
22 0.3
28 0.37
3 -0.57
31 0.15
4 -0.57
41 0.4
5 0.05
6 -0.73
7 -0.42
8 -0.42
9 -0.57

> <PUBCHEM_EFFECTIVE_ROTOR_COUNT>
6

> <PUBCHEM_PHARMACOPHORE_FEATURES>
10
1 1 acceptor
1 1 donor
1 2 acceptor
1 20 hydrophobe
1 3 acceptor
1 4 acceptor
1 6 donor
3 5 9 18 cation
5 5 9 11 13 18 rings
6 7 8 11 13 16 19 rings

> <PUBCHEM_HEAVY_ATOM_COUNT>
22

> <PUBCHEM_ATOM_DEF_STEREO_COUNT>
0

> <PUBCHEM_ATOM_UDEF_STEREO_COUNT>
1

> <PUBCHEM_BOND_DEF_STEREO_COUNT>
0

> <PUBCHEM_BOND_UDEF_STEREO_COUNT>
0

> <PUBCHEM_ISOTOPIC_ATOM_COUNT>
0

> <PUBCHEM_COMPONENT_COUNT>
1

> <PUBCHEM_CACTVS_TAUTO_COUNT>
2

> <PUBCHEM_CONFORMER_ID>
00020BEF00000004

> <PUBCHEM_MMFF94_ENERGY>
30.9472

> <PUBCHEM_FEATURE_SELFOVERLAP>
50.863

> <PUBCHEM_SHAPE_FINGERPRINT>
10366900 7 18334291011094184562
10670039 82 18334583430169746732
10759866 29 18260548875591282058
11595378 159 17748820795956269080
12011746 2 18411980269298018853
12390115 104 18199203818557542089
12596602 18 16732988656048002720
12633257 1 18338502076325311712
13140716 1 18047760574450343271
13402501 40 18272091591066359592
13583140 156 16225760813809039645
14081887 123 18410002260595694530
14341114 328 17458345273359300984
14787075 74 17532096162158676475
18186145 218 17632570570145062026
19784866 170 18335427862951444774
20510252 161 18340772537835012793
23557571 272 18341623649713187887
23559900 14 18193570981644031470
2748010 2 17758695351715620055
3009799 131 18114731716868047007
350125 39 18263929834923397302
3524813 1 18272085028382581936
5104073 3 18263650576096863235
7097593 13 17826769487813778642
7808743 9 18408608080437457916
90316 7 17749659731939530037

> <PUBCHEM_SHAPE_MULTIPOLES>
404.37
9.51
2.94
1.17
6.36
0.31
0.19
2.92
1.2
-1.82
-0.08
0.95
0.26
0.86

> <PUBCHEM_SHAPE_SELFOVERLAP>
842.502

> <PUBCHEM_SHAPE_VOLUME>
230.6

> <PUBCHEM_COORDINATE_TYPE>
2
5
10

$$$$
