134152
  -OEChem-03292013323D

 56 59  0     0  0  0  0  0  0999 V2000
   -3.4368    2.7769   -0.0676 S   0  0  0  0  0  0  0  0  0  0  0  0
   -5.6384   -1.2138   -1.4087 O   0  0  0  0  0  0  0  0  0  0  0  0
   -6.8642    0.0902    0.9873 O   0  0  0  0  0  0  0  0  0  0  0  0
   -6.2932    2.3400   -0.8923 O   0  0  0  0  0  0  0  0  0  0  0  0
    7.3406    1.1530    0.9788 O   0  0  0  0  0  0  0  0  0  0  0  0
    8.9112   -1.1205    1.1145 O   0  0  0  0  0  0  0  0  0  0  0  0
    9.9099   -3.1262   -0.0416 O   0  0  0  0  0  0  0  0  0  0  0  0
    8.2587   -3.0713   -1.6335 O   0  0  0  0  0  0  0  0  0  0  0  0
   -5.5257    1.1402   -0.7645 C   0  0  0  0  0  0  0  0  0  0  0  0
   -6.1299    0.0932   -1.7027 C   0  0  0  0  0  0  0  0  0  0  0  0
   -5.5943    0.6850    0.6960 C   0  0  0  0  0  0  0  0  0  0  0  0
   -4.0763    1.4631   -1.1345 C   0  0  0  0  0  0  0  0  0  0  0  0
   -6.3313   -1.8614   -0.4176 C   0  0  0  0  0  0  0  0  0  0  0  0
   -6.9274   -1.2484    0.6929 C   0  0  0  0  0  0  0  0  0  0  0  0
   -1.6935    2.3730   -0.0027 C   0  0  0  0  0  0  0  0  0  0  0  0
   -6.4154   -3.2504   -0.5664 C   0  0  0  0  0  0  0  0  0  0  0  0
   -7.6690   -2.0201    1.5946 C   0  0  0  0  0  0  0  0  0  0  0  0
    1.0139    1.7448    0.0981 C   0  0  0  0  0  0  0  0  0  0  0  0
   -1.0963    2.0938    1.2216 C   0  0  0  0  0  0  0  0  0  0  0  0
   -0.9497    2.3410   -1.1771 C   0  0  0  0  0  0  0  0  0  0  0  0
   -7.1337   -4.0171    0.3509 C   0  0  0  0  0  0  0  0  0  0  0  0
   -7.7695   -3.4006    1.4252 C   0  0  0  0  0  0  0  0  0  0  0  0
    0.2617    1.7789    1.2723 C   0  0  0  0  0  0  0  0  0  0  0  0
    0.4082    2.0259   -1.1267 C   0  0  0  0  0  0  0  0  0  0  0  0
    2.4222    1.4179    0.1504 C   0  0  0  0  0  0  0  0  0  0  0  0
    3.1712    1.7382    1.2827 C   0  0  0  0  0  0  0  0  0  0  0  0
    3.0314    0.7827   -0.9319 C   0  0  0  0  0  0  0  0  0  0  0  0
    5.1383    0.7881    0.2505 C   0  0  0  0  0  0  0  0  0  0  0  0
    4.5292    1.4234    1.3327 C   0  0  0  0  0  0  0  0  0  0  0  0
    4.3893    0.4678   -0.8817 C   0  0  0  0  0  0  0  0  0  0  0  0
    6.5542    0.4604    0.3026 C   0  0  0  0  0  0  0  0  0  0  0  0
    7.0837   -0.7614   -0.4623 C   0  0  0  0  0  0  0  0  0  0  0  0
    8.2997   -1.4495    0.1093 C   0  0  0  0  0  0  0  0  0  0  0  0
    8.8213   -2.6373   -0.6489 C   0  0  0  0  0  0  0  0  0  0  0  0
   -7.2294    0.1173   -1.6971 H   0  0  0  0  0  0  0  0  0  0  0  0
   -5.8551    0.3209   -2.7402 H   0  0  0  0  0  0  0  0  0  0  0  0
   -5.5230    1.5353    1.3834 H   0  0  0  0  0  0  0  0  0  0  0  0
   -4.7825   -0.0062    0.9630 H   0  0  0  0  0  0  0  0  0  0  0  0
   -4.0134    1.8239   -2.1670 H   0  0  0  0  0  0  0  0  0  0  0  0
   -3.4544    0.5649   -1.0492 H   0  0  0  0  0  0  0  0  0  0  0  0
   -5.8869    3.0200   -0.3283 H   0  0  0  0  0  0  0  0  0  0  0  0
   -5.9388   -3.7417   -1.4113 H   0  0  0  0  0  0  0  0  0  0  0  0
   -8.1554   -1.5522    2.4471 H   0  0  0  0  0  0  0  0  0  0  0  0
   -1.6699    2.1088    2.1448 H   0  0  0  0  0  0  0  0  0  0  0  0
   -1.4014    2.5671   -2.1396 H   0  0  0  0  0  0  0  0  0  0  0  0
   -7.2045   -5.0931    0.2217 H   0  0  0  0  0  0  0  0  0  0  0  0
   -8.3361   -3.9951    2.1358 H   0  0  0  0  0  0  0  0  0  0  0  0
    0.6825    1.5371    2.2444 H   0  0  0  0  0  0  0  0  0  0  0  0
    0.9599    2.0427   -2.0626 H   0  0  0  0  0  0  0  0  0  0  0  0
    2.7474    2.2593    2.1368 H   0  0  0  0  0  0  0  0  0  0  0  0
    2.4831    0.4892   -1.8228 H   0  0  0  0  0  0  0  0  0  0  0  0
    5.0968    1.6829    2.2227 H   0  0  0  0  0  0  0  0  0  0  0  0
    4.8385   -0.0195   -1.7427 H   0  0  0  0  0  0  0  0  0  0  0  0
    7.3263   -0.4283   -1.4773 H   0  0  0  0  0  0  0  0  0  0  0  0
    6.2910   -1.5173   -0.5002 H   0  0  0  0  0  0  0  0  0  0  0  0
   10.2649   -3.9196   -0.4965 H   0  0  0  0  0  0  0  0  0  0  0  0
  1 12  1  0  0  0  0
  1 15  1  0  0  0  0
  2 10  1  0  0  0  0
  2 13  1  0  0  0  0
  3 11  1  0  0  0  0
  3 14  1  0  0  0  0
  4  9  1  0  0  0  0
  4 41  1  0  0  0  0
  5 31  2  0  0  0  0
  6 33  2  0  0  0  0
  7 34  1  0  0  0  0
  7 56  1  0  0  0  0
  8 34  2  0  0  0  0
  9 10  1  0  0  0  0
  9 11  1  0  0  0  0
  9 12  1  0  0  0  0
 10 35  1  0  0  0  0
 10 36  1  0  0  0  0
 11 37  1  0  0  0  0
 11 38  1  0  0  0  0
 12 39  1  0  0  0  0
 12 40  1  0  0  0  0
 13 14  1  0  0  0  0
 13 16  2  0  0  0  0
 14 17  2  0  0  0  0
 15 19  2  0  0  0  0
 15 20  1  0  0  0  0
 16 21  1  0  0  0  0
 16 42  1  0  0  0  0
 17 22  1  0  0  0  0
 17 43  1  0  0  0  0
 18 23  2  0  0  0  0
 18 24  1  0  0  0  0
 18 25  1  0  0  0  0
 19 23  1  0  0  0  0
 19 44  1  0  0  0  0
 20 24  2  0  0  0  0
 20 45  1  0  0  0  0
 21 22  2  0  0  0  0
 21 46  1  0  0  0  0
 22 47  1  0  0  0  0
 23 48  1  0  0  0  0
 24 49  1  0  0  0  0
 25 26  2  0  0  0  0
 25 27  1  0  0  0  0
 26 29  1  0  0  0  0
 26 50  1  0  0  0  0
 27 30  2  0  0  0  0
 27 51  1  0  0  0  0
 28 29  2  0  0  0  0
 28 30  1  0  0  0  0
 28 31  1  0  0  0  0
 29 52  1  0  0  0  0
 30 53  1  0  0  0  0
 31 32  1  0  0  0  0
 32 33  1  0  0  0  0
 32 54  1  0  0  0  0
 32 55  1  0  0  0  0
 33 34  1  0  0  0  0
M  END
> <PUBCHEM_COMPOUND_CID>
134152

> <PUBCHEM_CONFORMER_RMSD>
1

> <PUBCHEM_CONFORMER_DIVERSEORDER>
1
201
130
17
39
14
80
146
73
116
178
67
123
197
75
161
108
135
37
104
216
152
63
125
59
99
36
21
173
159
5
86
117
77
194
70
133
131
28
148
62
85
217
20
221
150
40
18
156
96
45
87
65
186
119
134
183
230
163
107
54
44
144
100
30
58
153
160
158
114
4
103
122
190
168
95
199
151
82
129
213
162
60
200
127
101
176
90
157
51
189
204
76
112
52
138
31
8
93
105
155
24
218
128
187
184
170
195
136
88
169
124
227
10
106
226
166
12
115
120
214
232
13
98
209
113
182
215
55
143
179
141
89
3
137
205
145
192
23
2
142
49
167
81
132
46
203
231
181
91
69
206
29
140
72
222
229
11
174
41
26
109
94
121
198
19
207
9
97
111
171
147
185
102
219
84
25
33
196
50
7
47
211
126
164
154
208
139
165
193
15
210
177
34
149
118
220
16
180
27
225
79
71
202
172
53
35
188
48
78
110
56
175
228
68
64
191
223
61
83
66
224
212
92
32
6
43
42
22
38
74
57

> <PUBCHEM_MMFF94_PARTIAL_CHARGES>
46
1 -0.33
10 0.28
11 0.28
12 0.23
13 0.08
14 0.08
15 0.1
16 -0.15
17 -0.15
19 -0.15
2 -0.36
20 -0.15
21 -0.15
22 -0.15
23 -0.15
24 -0.15
26 -0.15
27 -0.15
28 0.09
29 -0.15
3 -0.36
30 -0.15
31 0.42
32 0.12
33 0.51
34 0.72
4 -0.68
41 0.4
42 0.15
43 0.15
44 0.15
45 0.15
46 0.15
47 0.15
48 0.15
49 0.15
5 -0.57
50 0.15
51 0.15
52 0.15
53 0.15
56 0.5
6 -0.57
7 -0.65
8 -0.57
9 0.28

> <PUBCHEM_EFFECTIVE_ROTOR_COUNT>
9

> <PUBCHEM_PHARMACOPHORE_FEATURES>
14
1 2 acceptor
1 3 acceptor
1 32 anion
1 4 acceptor
1 4 donor
1 5 acceptor
1 6 acceptor
1 7 acceptor
1 8 acceptor
3 7 8 34 anion
6 13 14 16 17 21 22 rings
6 15 18 19 20 23 24 rings
6 25 26 27 28 29 30 rings
7 2 3 9 10 11 13 14 rings

> <PUBCHEM_HEAVY_ATOM_COUNT>
34

> <PUBCHEM_ATOM_DEF_STEREO_COUNT>
0

> <PUBCHEM_ATOM_UDEF_STEREO_COUNT>
0

> <PUBCHEM_BOND_DEF_STEREO_COUNT>
0

> <PUBCHEM_BOND_UDEF_STEREO_COUNT>
0

> <PUBCHEM_ISOTOPIC_ATOM_COUNT>
0

> <PUBCHEM_COMPONENT_COUNT>
1

> <PUBCHEM_CACTVS_TAUTO_COUNT>
3

> <PUBCHEM_CONFORMER_ID>
00020C0800000001

> <PUBCHEM_MMFF94_ENERGY>
123.0288

> <PUBCHEM_FEATURE_SELFOVERLAP>
71.141

> <PUBCHEM_SHAPE_FINGERPRINT>
10119406 146 18113060436927979899
10258705 36 18412831257445529694
10533779 1 11599741536818611595
10740516 88 18410019857172405306
11456790 92 16845570899339146994
11497681 19 18260828177193481208
11578821 258 10159400034663239810
11672396 43 18342179938926414676
117089 54 18116717516324827315
11828042 291 15069170175309342706
11963148 33 18187635895139397410
12013929 27 18114463469825878551
12013929 94 18343304744201964202
12522641 68 17392181942311066229
12539747 164 18339084774697537841
12559416 138 18341036519880510735
12643181 29 18410290312328300517
12717326 120 18410581695362124654
13383668 90 17749106648190314381
13690498 29 17385994119056161325
13782708 43 18411129247145808496
14178184 131 18130220570943087087
14268113 111 18271813410857963550
14344974 204 18270398416443541783
15183329 4 15864343675516952849
15350500 55 8790882982682059696
15455199 99 18048038763599400970
15467298 65 17897712189835228739
15510800 12 18410579495832278114
15604295 49 9222933873509569546
16067689 68 18272101491698973395
16728433 281 11746925474078065487
16994733 274 10735875075884305540
1754908 1 17489860528165361546
19303781 99 18411973689381839061
2026 5 18334860506435840546
20982279 24 17703239399973408550
21095123 293 9943225062342669682
212700 22 18411974733692387670
21424621 283 10159701308621416372
22149856 69 15195296309419609312
23569943 247 17903073331934723602
23576562 1 14274326733650948692
24771293 8 10879990268080977498
25025965 108 17916849297407551823
3525247 18 10446003090429966667
3711267 37 11167930386538942898
4149490 64 18342168965796657208
4169191 19 12107788471421106268
437795 150 18261107479032655055
437795 163 18334575694802303354
44426701 170 18264203789392254915
44802255 64 11891339746787163801
45377200 153 18408323302646981154
4625314 4 18408881802766876900
54039377 194 18260551173409347677
58083652 198 16558736941130174145
5937810 71 10809337820176381087
59584819 82 18340205164678167598
6201320 82 8069760632153228975
6289498 60 12823294602635335202
636775 8 18410862040820023332
999808 66 18342736356102736021

> <PUBCHEM_SHAPE_MULTIPOLES>
662.47
33.69
4.47
1.49
38.2
3.94
0
41.2
-1.56
-3.7
0.1
-0.9
0.01
3.94

> <PUBCHEM_SHAPE_SELFOVERLAP>
1431.921

> <PUBCHEM_SHAPE_VOLUME>
361.9

> <PUBCHEM_COORDINATE_TYPE>
2
5
10

$$$$
