134158997
  -OEChem-03292013293D

 65 68  0     1  0  0  0  0  0999 V2000
    4.9447   -3.1861    0.1864 Cl  0  0  0  0  0  0  0  0  0  0  0  0
   -2.9841    0.1255   -0.3873 O   0  0  0  0  0  0  0  0  0  0  0  0
   -1.1621   -0.7329    2.3876 O   0  0  0  0  0  0  0  0  0  0  0  0
    7.1523    1.5324   -0.8140 O   0  0  0  0  0  0  0  0  0  0  0  0
   -4.1673   -1.1511    1.1257 O   0  0  0  0  0  0  0  0  0  0  0  0
   -8.9939    0.3800    0.2129 O   0  0  0  0  0  0  0  0  0  0  0  0
   -7.7001    1.4799   -1.2968 O   0  0  0  0  0  0  0  0  0  0  0  0
   -0.5368    0.0795   -0.7106 C   0  0  1  0  0  0  0  0  0  0  0  0
    0.4962   -1.0009   -0.3394 C   0  0  2  0  0  0  0  0  0  0  0  0
    1.8276   -0.8581   -1.0926 C   0  0  1  0  0  0  0  0  0  0  0  0
    2.4509    0.5709   -0.9418 C   0  0  2  0  0  0  0  0  0  0  0  0
   -1.7661   -0.4160    0.0943 C   0  0  2  0  0  0  0  0  0  0  0  0
    0.0492    1.4383   -0.3065 C   0  0  0  0  0  0  0  0  0  0  0  0
   -0.2903   -2.3055   -0.4973 C   0  0  0  0  0  0  0  0  0  0  0  0
    3.5262    0.6981    0.2151 C   0  0  1  0  0  0  0  0  0  0  0  0
    1.3912    1.7107   -1.0001 C   0  0  0  0  0  0  0  0  0  0  0  0
   -1.7275   -1.9508   -0.0693 C   0  0  0  0  0  0  0  0  0  0  0  0
   -0.8962    0.1126   -2.2235 C   0  0  0  0  0  0  0  0  0  0  0  0
    2.7849   -1.9577   -0.7147 C   0  0  0  0  0  0  0  0  0  0  0  0
    4.5579   -0.4408    0.0642 C   0  0  0  0  0  0  0  0  0  0  0  0
    4.2322    2.0899    0.0956 C   0  0  0  0  0  0  0  0  0  0  0  0
   -1.7316   -0.0340    1.5507 C   0  0  0  0  0  0  0  0  0  0  0  0
    2.9080    0.5999    1.6278 C   0  0  0  0  0  0  0  0  0  0  0  0
    4.0130   -1.7695   -0.2094 C   0  0  0  0  0  0  0  0  0  0  0  0
    5.5464    2.1749    0.8702 C   0  0  0  0  0  0  0  0  0  0  0  0
    5.8863   -0.2156    0.1332 C   0  0  0  0  0  0  0  0  0  0  0  0
    6.5279    1.1109    0.3975 C   0  0  1  0  0  0  0  0  0  0  0  0
   -2.4288    1.2439    1.9321 C   0  0  0  0  0  0  0  0  0  0  0  0
   -4.1279   -0.3302    0.2199 C   0  0  0  0  0  0  0  0  0  0  0  0
   -5.3296    0.3418   -0.4088 C   0  0  0  0  0  0  0  0  0  0  0  0
   -6.6453   -0.0371    0.2605 C   0  0  0  0  0  0  0  0  0  0  0  0
   -7.8074    0.6971   -0.3615 C   0  0  0  0  0  0  0  0  0  0  0  0
    0.7229   -0.9187    0.7294 H   0  0  0  0  0  0  0  0  0  0  0  0
    1.6262   -1.0053   -2.1623 H   0  0  0  0  0  0  0  0  0  0  0  0
    3.0419    0.7077   -1.8641 H   0  0  0  0  0  0  0  0  0  0  0  0
    0.2092    1.4903    0.7745 H   0  0  0  0  0  0  0  0  0  0  0  0
   -0.6527    2.2445   -0.5521 H   0  0  0  0  0  0  0  0  0  0  0  0
    0.1192   -3.1062    0.1275 H   0  0  0  0  0  0  0  0  0  0  0  0
   -0.2788   -2.6579   -1.5350 H   0  0  0  0  0  0  0  0  0  0  0  0
    1.1889    1.9166   -2.0594 H   0  0  0  0  0  0  0  0  0  0  0  0
    1.7896    2.6539   -0.6180 H   0  0  0  0  0  0  0  0  0  0  0  0
   -2.4279   -2.2976   -0.8390 H   0  0  0  0  0  0  0  0  0  0  0  0
   -1.9808   -2.4931    0.8487 H   0  0  0  0  0  0  0  0  0  0  0  0
   -1.3776   -0.8118   -2.5586 H   0  0  0  0  0  0  0  0  0  0  0  0
   -0.0254    0.2625   -2.8667 H   0  0  0  0  0  0  0  0  0  0  0  0
   -1.5928    0.9324   -2.4349 H   0  0  0  0  0  0  0  0  0  0  0  0
    2.4357   -2.9731   -0.8937 H   0  0  0  0  0  0  0  0  0  0  0  0
    3.5779    2.8872    0.4668 H   0  0  0  0  0  0  0  0  0  0  0  0
    4.4353    2.3180   -0.9594 H   0  0  0  0  0  0  0  0  0  0  0  0
    2.1858    1.4013    1.8067 H   0  0  0  0  0  0  0  0  0  0  0  0
    2.4098   -0.3555    1.8062 H   0  0  0  0  0  0  0  0  0  0  0  0
    3.6728    0.6823    2.4085 H   0  0  0  0  0  0  0  0  0  0  0  0
    5.9775    3.1734    0.7288 H   0  0  0  0  0  0  0  0  0  0  0  0
    5.3561    2.0577    1.9428 H   0  0  0  0  0  0  0  0  0  0  0  0
    6.5932   -1.0267   -0.0239 H   0  0  0  0  0  0  0  0  0  0  0  0
    7.3162    0.9991    1.1504 H   0  0  0  0  0  0  0  0  0  0  0  0
   -3.4285    1.0474    2.3235 H   0  0  0  0  0  0  0  0  0  0  0  0
   -2.4735    1.9593    1.1078 H   0  0  0  0  0  0  0  0  0  0  0  0
   -1.8442    1.7223    2.7255 H   0  0  0  0  0  0  0  0  0  0  0  0
    7.8310    0.8746   -1.0443 H   0  0  0  0  0  0  0  0  0  0  0  0
   -5.3566    0.0629   -1.4687 H   0  0  0  0  0  0  0  0  0  0  0  0
   -5.1804    1.4262   -0.3399 H   0  0  0  0  0  0  0  0  0  0  0  0
   -6.6095    0.2142    1.3264 H   0  0  0  0  0  0  0  0  0  0  0  0
   -6.8202   -1.1140    0.1600 H   0  0  0  0  0  0  0  0  0  0  0  0
   -9.7425    0.8556   -0.2063 H   0  0  0  0  0  0  0  0  0  0  0  0
  1 24  1  0  0  0  0
  2 12  1  0  0  0  0
  2 29  1  0  0  0  0
  3 22  2  0  0  0  0
  4 27  1  0  0  0  0
  4 60  1  0  0  0  0
  5 29  2  0  0  0  0
  6 32  1  0  0  0  0
  6 65  1  0  0  0  0
  7 32  2  0  0  0  0
  8  9  1  0  0  0  0
  8 12  1  0  0  0  0
  8 13  1  0  0  0  0
  8 18  1  0  0  0  0
  9 10  1  0  0  0  0
  9 14  1  0  0  0  0
  9 33  1  0  0  0  0
 10 11  1  0  0  0  0
 10 19  1  0  0  0  0
 10 34  1  0  0  0  0
 11 15  1  0  0  0  0
 11 16  1  0  0  0  0
 11 35  1  0  0  0  0
 12 17  1  0  0  0  0
 12 22  1  0  0  0  0
 13 16  1  0  0  0  0
 13 36  1  0  0  0  0
 13 37  1  0  0  0  0
 14 17  1  0  0  0  0
 14 38  1  0  0  0  0
 14 39  1  0  0  0  0
 15 20  1  0  0  0  0
 15 21  1  0  0  0  0
 15 23  1  0  0  0  0
 16 40  1  0  0  0  0
 16 41  1  0  0  0  0
 17 42  1  0  0  0  0
 17 43  1  0  0  0  0
 18 44  1  0  0  0  0
 18 45  1  0  0  0  0
 18 46  1  0  0  0  0
 19 24  2  0  0  0  0
 19 47  1  0  0  0  0
 20 24  1  0  0  0  0
 20 26  2  0  0  0  0
 21 25  1  0  0  0  0
 21 48  1  0  0  0  0
 21 49  1  0  0  0  0
 22 28  1  0  0  0  0
 23 50  1  0  0  0  0
 23 51  1  0  0  0  0
 23 52  1  0  0  0  0
 25 27  1  0  0  0  0
 25 53  1  0  0  0  0
 25 54  1  0  0  0  0
 26 27  1  0  0  0  0
 26 55  1  0  0  0  0
 27 56  1  0  0  0  0
 28 57  1  0  0  0  0
 28 58  1  0  0  0  0
 28 59  1  0  0  0  0
 29 30  1  0  0  0  0
 30 31  1  0  0  0  0
 30 61  1  0  0  0  0
 30 62  1  0  0  0  0
 31 32  1  0  0  0  0
 31 63  1  0  0  0  0
 31 64  1  0  0  0  0
M  END
> <PUBCHEM_COMPOUND_CID>
134158997

> <PUBCHEM_CONFORMER_RMSD>
1

> <PUBCHEM_CONFORMER_DIVERSEORDER>
1
10
12
7
6
3
8
13
5
9
4
11
2

> <PUBCHEM_MMFF94_PARTIAL_CHARGES>
25
1 -0.14
10 0.14
12 0.34
15 0.14
19 -0.29
2 -0.43
20 -0.14
22 0.45
24 0.14
26 -0.29
27 0.42
28 0.06
29 0.66
3 -0.57
30 0.06
31 0.06
32 0.66
4 -0.68
47 0.15
5 -0.57
55 0.15
6 -0.65
60 0.4
65 0.5
7 -0.57

> <PUBCHEM_EFFECTIVE_ROTOR_COUNT>
7.6

> <PUBCHEM_PHARMACOPHORE_FEATURES>
11
1 3 acceptor
1 4 acceptor
1 4 donor
1 5 acceptor
1 6 acceptor
1 7 acceptor
3 6 7 32 anion
5 8 9 12 14 17 rings
6 10 11 15 19 20 24 rings
6 15 20 21 25 26 27 rings
6 8 9 10 11 13 16 rings

> <PUBCHEM_HEAVY_ATOM_COUNT>
32

> <PUBCHEM_ATOM_DEF_STEREO_COUNT>
7

> <PUBCHEM_ATOM_UDEF_STEREO_COUNT>
0

> <PUBCHEM_BOND_DEF_STEREO_COUNT>
0

> <PUBCHEM_BOND_UDEF_STEREO_COUNT>
0

> <PUBCHEM_ISOTOPIC_ATOM_COUNT>
0

> <PUBCHEM_COMPONENT_COUNT>
1

> <PUBCHEM_CACTVS_TAUTO_COUNT>
2

> <PUBCHEM_CONFORMER_ID>
07FF1A9500000001

> <PUBCHEM_MMFF94_ENERGY>
102.3906

> <PUBCHEM_FEATURE_SELFOVERLAP>
55.98

> <PUBCHEM_SHAPE_FINGERPRINT>
10 15 18186801392210835981
10165383 225 18412262870537472684
10411042 1 17909270179411599902
11796584 16 16154003407772475618
11828532 37 13829839279354893700
12011746 2 17775007916288136576
12236239 1 17704070702775851503
12788726 201 17131843044675297194
12838862 33 18130493211324745016
13140716 1 18051132785714519308
13383665 225 17749970860003566228
13533116 47 18131068199670615474
13811026 1 18259705597185523883
13914758 101 18340770334754452777
14170010 4 18333453132168776949
14251764 18 15285357336524914553
15131766 46 17827925345344676092
15183329 4 16773797004976043065
15238133 3 17385730217956413060
15849732 13 18408040736484540613
17980427 23 17775019972414700721
1813 80 17240486910040086206
19315958 150 18407762551626708754
20157964 124 18343302548107658239
20511986 3 18130215055735177254
21033648 29 18265600143383503432
21130935 74 18409452466871620603
21521721 280 18272654545995191379
21781051 124 15213599879254926209
21792934 111 18336535028685364656
21859007 373 17822844278567863957
23559900 14 18060134396557165688
255183 451 17129597743659340734
3009799 131 18335421253655912313
3178227 256 10953455219844084237
335352 9 18272656736649909326
3633792 109 18272092660449659433
4073 2 18187368778227762139
4093350 32 18410570660994872939
4325135 7 14549020983593674609
4340502 62 18412826893552385471
5104073 3 18339939146618271363
5385378 56 16371000751325682193
54039377 194 11314295136808376080
5486654 2 16272208591950604183
6081469 158 18409730630259149700
6086070 43 17131547361841444595

> <PUBCHEM_SHAPE_MULTIPOLES>
625.2
18.77
2.34
1.47
27.79
1
0.29
-6.76
-0.54
-3.79
0.04
0.66
-0.25
0.47

> <PUBCHEM_SHAPE_SELFOVERLAP>
1329.858

> <PUBCHEM_SHAPE_VOLUME>
345.6

> <PUBCHEM_COORDINATE_TYPE>
2
5
10

$$$$
