134151
  -OEChem-03292013323D

 44 45  0     1  0  0  0  0  0999 V2000
   -1.5076    0.3539   -0.3022 O   0  0  0  0  0  0  0  0  0  0  0  0
   -0.6387   -1.7609    0.1616 O   0  0  0  0  0  0  0  0  0  0  0  0
   -4.9123   -0.4217    1.8608 O   0  0  0  0  0  0  0  0  0  0  0  0
   -3.2185   -2.6362    0.9119 O   0  0  0  0  0  0  0  0  0  0  0  0
   -4.8836    1.7432   -0.0786 O   0  0  0  0  0  0  0  0  0  0  0  0
   -3.0471    3.3859   -1.1760 O   0  0  0  0  0  0  0  0  0  0  0  0
   -0.9347    2.8325   -0.5227 O   0  0  0  0  0  0  0  0  0  0  0  0
    4.2930   -2.0184   -0.1178 O   0  0  0  0  0  0  0  0  0  0  0  0
    6.0821    1.6648    0.7040 O   0  0  0  0  0  0  0  0  0  0  0  0
   -4.0971   -0.4001    0.6880 C   0  0  2  0  0  0  0  0  0  0  0  0
   -2.8515   -1.2568    0.9163 C   0  0  2  0  0  0  0  0  0  0  0  0
   -3.7277    1.0546    0.3956 C   0  0  1  0  0  0  0  0  0  0  0  0
   -1.8158   -1.0327   -0.1859 C   0  0  1  0  0  0  0  0  0  0  0  0
   -2.6409    1.1321   -0.6694 C   0  0  1  0  0  0  0  0  0  0  0  0
    0.0702   -2.1784   -0.9947 C   0  0  1  0  0  0  0  0  0  0  0  0
    1.5666   -2.2557   -0.6661 C   0  0  0  0  0  0  0  0  0  0  0  0
   -2.0889    2.5172   -0.7710 C   0  0  0  0  0  0  0  0  0  0  0  0
   -0.4650   -3.5352   -1.4341 C   0  0  0  0  0  0  0  0  0  0  0  0
    2.1800   -0.8984   -0.3010 C   0  0  0  0  0  0  0  0  0  0  0  0
    3.6871   -0.9481   -0.0562 C   0  0  0  0  0  0  0  0  0  0  0  0
    4.4056    0.3057    0.2355 C   0  0  0  0  0  0  0  0  0  0  0  0
    3.8688    1.5844    0.3212 C   0  0  0  0  0  0  0  0  0  0  0  0
    5.7356    0.3721    0.4680 C   0  0  0  0  0  0  0  0  0  0  0  0
    4.9404    2.3960    0.6128 C   0  0  0  0  0  0  0  0  0  0  0  0
   -4.7091   -0.8164   -0.1217 H   0  0  0  0  0  0  0  0  0  0  0  0
   -2.4202   -1.0458    1.9020 H   0  0  0  0  0  0  0  0  0  0  0  0
   -3.4102    1.5442    1.3255 H   0  0  0  0  0  0  0  0  0  0  0  0
   -2.2211   -1.3949   -1.1407 H   0  0  0  0  0  0  0  0  0  0  0  0
   -2.9929    0.8309   -1.6640 H   0  0  0  0  0  0  0  0  0  0  0  0
   -0.0556   -1.4556   -1.8123 H   0  0  0  0  0  0  0  0  0  0  0  0
    1.7219   -2.9423    0.1764 H   0  0  0  0  0  0  0  0  0  0  0  0
    2.1069   -2.6756   -1.5239 H   0  0  0  0  0  0  0  0  0  0  0  0
   -5.6867    0.1406    1.6876 H   0  0  0  0  0  0  0  0  0  0  0  0
   -3.5998   -2.8443    0.0420 H   0  0  0  0  0  0  0  0  0  0  0  0
   -4.6662    2.6890   -0.1311 H   0  0  0  0  0  0  0  0  0  0  0  0
   -0.3775   -4.2687   -0.6248 H   0  0  0  0  0  0  0  0  0  0  0  0
    0.0791   -3.9116   -2.3059 H   0  0  0  0  0  0  0  0  0  0  0  0
   -1.5272   -3.4824   -1.6931 H   0  0  0  0  0  0  0  0  0  0  0  0
    1.9948   -0.1918   -1.1186 H   0  0  0  0  0  0  0  0  0  0  0  0
    1.7042   -0.5106    0.6070 H   0  0  0  0  0  0  0  0  0  0  0  0
   -2.7047    4.3025   -1.2467 H   0  0  0  0  0  0  0  0  0  0  0  0
    2.8460    1.9091    0.1948 H   0  0  0  0  0  0  0  0  0  0  0  0
    6.5454   -0.3421    0.5061 H   0  0  0  0  0  0  0  0  0  0  0  0
    5.0510    3.4579    0.7777 H   0  0  0  0  0  0  0  0  0  0  0  0
  1 13  1  0  0  0  0
  1 14  1  0  0  0  0
  2 13  1  0  0  0  0
  2 15  1  0  0  0  0
  3 10  1  0  0  0  0
  3 33  1  0  0  0  0
  4 11  1  0  0  0  0
  4 34  1  0  0  0  0
  5 12  1  0  0  0  0
  5 35  1  0  0  0  0
  6 17  1  0  0  0  0
  6 41  1  0  0  0  0
  7 17  2  0  0  0  0
  8 20  2  0  0  0  0
  9 23  1  0  0  0  0
  9 24  1  0  0  0  0
 10 11  1  0  0  0  0
 10 12  1  0  0  0  0
 10 25  1  0  0  0  0
 11 13  1  0  0  0  0
 11 26  1  0  0  0  0
 12 14  1  0  0  0  0
 12 27  1  0  0  0  0
 13 28  1  0  0  0  0
 14 17  1  0  0  0  0
 14 29  1  0  0  0  0
 15 16  1  0  0  0  0
 15 18  1  0  0  0  0
 15 30  1  0  0  0  0
 16 19  1  0  0  0  0
 16 31  1  0  0  0  0
 16 32  1  0  0  0  0
 18 36  1  0  0  0  0
 18 37  1  0  0  0  0
 18 38  1  0  0  0  0
 19 20  1  0  0  0  0
 19 39  1  0  0  0  0
 19 40  1  0  0  0  0
 20 21  1  0  0  0  0
 21 22  1  0  0  0  0
 21 23  2  0  0  0  0
 22 24  2  0  0  0  0
 22 42  1  0  0  0  0
 23 43  1  0  0  0  0
 24 44  1  0  0  0  0
M  END
> <PUBCHEM_COMPOUND_CID>
134151

> <PUBCHEM_CONFORMER_RMSD>
1

> <PUBCHEM_CONFORMER_DIVERSEORDER>
1
166
122
165
360
97
279
401
188
80
201
287
204
213
76
252
206
176
131
232
22
136
150
91
402
299
102
295
39
33
26
36
415
307
57
19
169
184
324
283
314
298
244
363
341
192
183
313
60
258
340
361
260
14
78
262
222
13
420
336
397
7
245
413
89
170
147
101
27
392
419
382
149
321
230
351
179
411
15
167
371
374
10
148
332
218
93
21
118
72
62
322
249
126
347
77
265
240
117
317
400
34
161
225
254
159
315
270
194
373
349
171
216
28
264
98
342
129
23
55
58
11
187
112
364
300
358
199
92
318
96
31
375
380
202
143
172
308
63
229
141
51
109
210
310
144
399
178
353
395
253
2
18
142
84
311
328
209
408
217
43
111
278
181
271
94
236
346
277
356
256
305
405
416
330
384
343
189
200
105
83
25
120
226
273
319
403
30
323
3
337
65
297
284
133
71
398
193
381
9
338
61
75
198
173
367
350
306
227
370
152
309
164
365
242
40
263
162
208
383
412
223
294
115
368
267
247
390
212
292
393
151
407
231
354
362
418
182
135
79
104
238
257
69
125
409
68
99
106
6
344
205
290
303
246
302
389
45
404
261
74
195
154
248
274
20
100
174
160
140
285
352
326
376
293
250
207
107
379
175
191
251
366
312
59
56
186
348
233
32
378
64
42
190
180
185
38
329
320
286
296
145
239
369
211
276
123
272
66
331
241
355
50
88
85
220
410
196
116
203
53
153
215
396
128
388
86
228
168
108
110
47
16
44
219
235
214
386
224
29
67
138
82
414
146
234
158
334
333
372
304
268
325
387
394
35
81
316
139
377
95
132
275
121
259
391
137
406
4
281
12
280
357
54
114
157
345
335
134
73
90
243
113
255
52
288
156
5
46
221
385
197
155
70
48
339
24
291
87
266
237
163
177
103
49
41
119
17
327
417
359
289
8
301
127
37
269
130
124
282

> <PUBCHEM_MMFF94_PARTIAL_CHARGES>
29
1 -0.56
10 0.28
11 0.28
12 0.28
13 0.56
14 0.34
15 0.28
17 0.66
19 0.06
2 -0.56
20 0.6
21 -0.09
22 -0.15
23 -0.01
24 -0.01
3 -0.68
33 0.4
34 0.4
35 0.4
4 -0.68
41 0.5
42 0.15
43 0.15
44 0.15
5 -0.68
6 -0.65
7 -0.57
8 -0.57
9 -0.28

> <PUBCHEM_EFFECTIVE_ROTOR_COUNT>
8.2

> <PUBCHEM_PHARMACOPHORE_FEATURES>
15
1 1 acceptor
1 2 acceptor
1 3 acceptor
1 3 donor
1 4 acceptor
1 4 donor
1 5 acceptor
1 5 donor
1 6 acceptor
1 7 acceptor
1 8 acceptor
1 9 acceptor
3 6 7 17 anion
5 9 21 22 23 24 rings
6 1 10 11 12 13 14 rings

> <PUBCHEM_HEAVY_ATOM_COUNT>
24

> <PUBCHEM_ATOM_DEF_STEREO_COUNT>
5

> <PUBCHEM_ATOM_UDEF_STEREO_COUNT>
1

> <PUBCHEM_BOND_DEF_STEREO_COUNT>
0

> <PUBCHEM_BOND_UDEF_STEREO_COUNT>
0

> <PUBCHEM_ISOTOPIC_ATOM_COUNT>
0

> <PUBCHEM_COMPONENT_COUNT>
1

> <PUBCHEM_CACTVS_TAUTO_COUNT>
2

> <PUBCHEM_CONFORMER_ID>
00020C0700000001

> <PUBCHEM_MMFF94_ENERGY>
45.2676

> <PUBCHEM_FEATURE_SELFOVERLAP>
76.261

> <PUBCHEM_SHAPE_FINGERPRINT>
10319926 262 18188204300355256394
10670039 82 18263093253083486156
11014199 57 17548130495214777334
11595378 159 17676756626729638624
12035758 1 18115328713085135897
12403259 415 18340495473816309886
12596602 18 16515688883401257536
12892183 10 18040435464835851954
12925494 130 18195808457985000873
12978246 48 18410009966369111636
13402501 40 18411981355761571552
13583140 156 17532350038044690926
14251764 38 18197213642423865000
14950920 106 17604133909690650810
15163728 17 14547081346419135875
17834072 32 18343863316650203334
21033648 29 18272640252011662760
21049683 118 16737774598906112057
21302155 148 18336834199001720804
21315764 268 18336542716529118494
21623110 236 18342745104650613201
21864079 5 18339911628968273910
23227448 37 18272086162406980910
23559900 14 17907295455520123063
3187 122 17894916221886098005
4371632 12 17485608802004888785
474144 1 17460332150995642596
5081480 168 17200823033079715660
5104073 3 18262525792712712523
5252454 2 18059569230801832042
621550 34 18268725926250656399
633830 44 17274277036354077670
7808743 9 18269268140312300128

> <PUBCHEM_SHAPE_MULTIPOLES>
441.08
12.54
3.96
1.12
12.23
0.02
-0.08
-6.72
-4.52
-1.13
1.52
-1.09
0.19
1.96

> <PUBCHEM_SHAPE_SELFOVERLAP>
918.104

> <PUBCHEM_SHAPE_VOLUME>
249.4

> <PUBCHEM_COORDINATE_TYPE>
2
5
10

$$$$
