134162
  -OEChem-03292013323D

 46 47  0     1  0  0  0  0  0999 V2000
   -1.3467    2.4651    0.7250 O   0  0  0  0  0  0  0  0  0  0  0  0
   -3.2037    3.2295   -1.1969 O   0  0  0  0  0  0  0  0  0  0  0  0
   -0.6189   -1.7890   -0.9880 O   0  0  0  0  0  0  0  0  0  0  0  0
    2.7561   -1.7078   -0.6414 O   0  0  0  0  0  0  0  0  0  0  0  0
   -0.1099   -2.8596    0.9463 O   0  0  0  0  0  0  0  0  0  0  0  0
    4.7343   -1.5166   -1.7355 O   0  0  0  0  0  0  0  0  0  0  0  0
   -2.4610   -4.3264    0.6569 N   0  0  0  0  0  0  0  0  0  0  0  0
    5.8274   -0.4537    0.5964 N   0  0  0  0  0  0  0  0  0  0  0  0
   -3.2595   -2.0236    0.8637 C   0  0  0  0  0  0  0  0  0  0  0  0
    4.0910    1.1538   -0.0119 C   0  0  0  0  0  0  0  0  0  0  0  0
   -3.2415   -0.6347    0.3209 C   0  0  0  0  0  0  0  0  0  0  0  0
   -2.3786   -3.0045    0.0677 C   0  0  1  0  0  0  0  0  0  0  0  0
    2.6359    1.5043    0.1854 C   0  0  0  0  0  0  0  0  0  0  0  0
    4.4069   -0.3013    0.3515 C   0  0  1  0  0  0  0  0  0  0  0  0
   -2.2939    0.2809    0.7784 C   0  0  0  0  0  0  0  0  0  0  0  0
   -2.2932    1.5655    0.2637 C   0  0  0  0  0  0  0  0  0  0  0  0
   -4.1731   -0.2510   -0.6438 C   0  0  0  0  0  0  0  0  0  0  0  0
   -0.0346    2.1495    0.5477 C   0  0  0  0  0  0  0  0  0  0  0  0
    2.2166    1.9967    1.4109 C   0  0  0  0  0  0  0  0  0  0  0  0
    1.7468    1.3281   -0.8626 C   0  0  0  0  0  0  0  0  0  0  0  0
   -3.2094    1.9638   -0.6935 C   0  0  0  0  0  0  0  0  0  0  0  0
    0.8724    2.3214    1.5933 C   0  0  0  0  0  0  0  0  0  0  0  0
    0.4025    1.6528   -0.6802 C   0  0  0  0  0  0  0  0  0  0  0  0
   -4.1571    1.0482   -1.1510 C   0  0  0  0  0  0  0  0  0  0  0  0
   -0.9271   -2.5661    0.0835 C   0  0  0  0  0  0  0  0  0  0  0  0
    4.0184   -1.2251   -0.7864 C   0  0  0  0  0  0  0  0  0  0  0  0
   -2.9406   -1.9972    1.9156 H   0  0  0  0  0  0  0  0  0  0  0  0
   -4.2947   -2.3911    0.8859 H   0  0  0  0  0  0  0  0  0  0  0  0
    4.6889    1.8370    0.6082 H   0  0  0  0  0  0  0  0  0  0  0  0
    4.3833    1.3736   -1.0482 H   0  0  0  0  0  0  0  0  0  0  0  0
   -2.7158   -3.0694   -0.9735 H   0  0  0  0  0  0  0  0  0  0  0  0
    3.8779   -0.6123    1.2600 H   0  0  0  0  0  0  0  0  0  0  0  0
   -1.5771   -0.0117    1.5412 H   0  0  0  0  0  0  0  0  0  0  0  0
   -4.9151   -0.9556   -1.0099 H   0  0  0  0  0  0  0  0  0  0  0  0
    2.9147    2.1317    2.2321 H   0  0  0  0  0  0  0  0  0  0  0  0
    2.0774    0.9496   -1.8255 H   0  0  0  0  0  0  0  0  0  0  0  0
    0.5373    2.7066    2.5524 H   0  0  0  0  0  0  0  0  0  0  0  0
   -0.2772    1.5256   -1.5183 H   0  0  0  0  0  0  0  0  0  0  0  0
   -4.8850    1.3407   -1.9030 H   0  0  0  0  0  0  0  0  0  0  0  0
   -1.8546   -4.9739    0.1553 H   0  0  0  0  0  0  0  0  0  0  0  0
   -2.1328   -4.3075    1.6216 H   0  0  0  0  0  0  0  0  0  0  0  0
    6.0489   -1.4290    0.7921 H   0  0  0  0  0  0  0  0  0  0  0  0
    6.3610   -0.1937   -0.2321 H   0  0  0  0  0  0  0  0  0  0  0  0
   -2.4825    3.7240   -0.7700 H   0  0  0  0  0  0  0  0  0  0  0  0
    0.3186   -1.5011   -0.9725 H   0  0  0  0  0  0  0  0  0  0  0  0
    2.5069   -2.3041   -1.3794 H   0  0  0  0  0  0  0  0  0  0  0  0
  1 16  1  0  0  0  0
  1 18  1  0  0  0  0
  2 21  1  0  0  0  0
  2 44  1  0  0  0  0
  3 25  1  0  0  0  0
  3 45  1  0  0  0  0
  4 26  1  0  0  0  0
  4 46  1  0  0  0  0
  5 25  2  0  0  0  0
  6 26  2  0  0  0  0
  7 12  1  0  0  0  0
  7 40  1  0  0  0  0
  7 41  1  0  0  0  0
  8 14  1  0  0  0  0
  8 42  1  0  0  0  0
  8 43  1  0  0  0  0
  9 11  1  0  0  0  0
  9 12  1  0  0  0  0
  9 27  1  0  0  0  0
  9 28  1  0  0  0  0
 10 13  1  0  0  0  0
 10 14  1  0  0  0  0
 10 29  1  0  0  0  0
 10 30  1  0  0  0  0
 11 15  2  0  0  0  0
 11 17  1  0  0  0  0
 12 25  1  0  0  0  0
 12 31  1  0  0  0  0
 13 19  2  0  0  0  0
 13 20  1  0  0  0  0
 14 26  1  0  0  0  0
 14 32  1  0  0  0  0
 15 16  1  0  0  0  0
 15 33  1  0  0  0  0
 16 21  2  0  0  0  0
 17 24  2  0  0  0  0
 17 34  1  0  0  0  0
 18 22  2  0  0  0  0
 18 23  1  0  0  0  0
 19 22  1  0  0  0  0
 19 35  1  0  0  0  0
 20 23  2  0  0  0  0
 20 36  1  0  0  0  0
 21 24  1  0  0  0  0
 22 37  1  0  0  0  0
 23 38  1  0  0  0  0
 24 39  1  0  0  0  0
M  END
> <PUBCHEM_COMPOUND_CID>
134162

> <PUBCHEM_CONFORMER_RMSD>
0.8

> <PUBCHEM_CONFORMER_DIVERSEORDER>
1
126
75
141
233
265
140
317
307
67
120
188
309
234
47
289
204
242
319
60
189
269
284
236
303
93
100
57
267
147
302
78
247
80
273
63
146
96
143
133
130
205
220
314
300
150
69
200
105
311
36
101
280
56
58
117
197
77
196
85
138
237
276
294
180
66
190
282
268
292
168
299
125
70
31
275
12
248
216
210
259
106
179
102
215
84
207
95
217
23
253
214
139
89
272
152
41
90
263
71
74
238
245
6
167
183
81
115
191
170
65
310
111
244
156
181
87
296
218
26
64
30
32
298
144
255
97
54
46
52
159
241
213
199
172
198
222
142
94
195
45
297
219
91
35
184
193
50
34
283
266
107
212
27
166
229
42
163
304
211
254
260
5
14
231
137
288
162
161
116
22
209
186
82
108
79
287
274
169
109
223
171
227
295
114
148
40
51
192
132
39
279
72
281
49
118
320
59
201
62
174
10
178
158
104
48
316
182
305
113
83
252
235
239
68
301
16
321
103
177
9
278
293
127
308
53
291
261
43
243
131
18
21
160
99
119
29
256
187
33
277
28
262
154
155
123
203
37
312
121
2
315
157
15
313
165
136
228
25
7
44
176
17
38
122
221
208
286
246
250
251
19
230
249
206
258
55
271
270
240
164
173
185
306
226
264
149
4
86
124
318
225
153
76
194
290
13
134
73
20
202
8
129
257
110
285
92
112
61
3
224
232
135
175
98
151
24
145
88
128
11

> <PUBCHEM_MMFF94_PARTIAL_CHARGES>
40
1 -0.17
10 0.14
11 -0.14
12 0.33
13 -0.14
14 0.33
15 -0.15
16 0.08
17 -0.15
18 0.08
19 -0.15
2 -0.53
20 -0.15
21 0.08
22 -0.15
23 -0.15
24 -0.15
25 0.66
26 0.66
3 -0.65
33 0.15
34 0.15
35 0.15
36 0.15
37 0.15
38 0.15
39 0.15
4 -0.65
40 0.36
41 0.36
42 0.36
43 0.36
44 0.45
45 0.5
46 0.5
5 -0.57
6 -0.57
7 -0.99
8 -0.99
9 0.14

> <PUBCHEM_EFFECTIVE_ROTOR_COUNT>
8

> <PUBCHEM_PHARMACOPHORE_FEATURES>
14
1 1 acceptor
1 2 donor
1 3 acceptor
1 4 acceptor
1 5 acceptor
1 6 acceptor
1 7 cation
1 7 donor
1 8 cation
1 8 donor
3 3 5 25 anion
3 4 6 26 anion
6 11 15 16 17 21 24 rings
6 13 18 19 20 22 23 rings

> <PUBCHEM_HEAVY_ATOM_COUNT>
26

> <PUBCHEM_ATOM_DEF_STEREO_COUNT>
1

> <PUBCHEM_ATOM_UDEF_STEREO_COUNT>
1

> <PUBCHEM_BOND_DEF_STEREO_COUNT>
0

> <PUBCHEM_BOND_UDEF_STEREO_COUNT>
0

> <PUBCHEM_ISOTOPIC_ATOM_COUNT>
0

> <PUBCHEM_COMPONENT_COUNT>
1

> <PUBCHEM_CACTVS_TAUTO_COUNT>
3

> <PUBCHEM_CONFORMER_ID>
00020C1200000001

> <PUBCHEM_MMFF94_ENERGY>
64.0653

> <PUBCHEM_FEATURE_SELFOVERLAP>
71.164

> <PUBCHEM_SHAPE_FINGERPRINT>
10675989 125 17183615499374194660
10693767 8 17841970459938993903
107951 10 17386294169091031665
108634 29 18342745079112950478
1100329 8 17187853012812586682
11112241 14 17058623344251186416
11370993 70 18336260141714044372
11796584 16 18409162178199674448
12422481 6 18124620797220440523
12633257 1 18058184962467479641
12712778 12 18337379475153857826
13122387 1 18339929190710122218
13402501 40 18341896290010462967
14117953 113 17254540613688456014
14251751 93 18259701203017034273
14251757 17 18412263913280836018
14251757 5 18191043368116319030
14725015 67 18265043824527732682
14790565 3 17334220026915927209
14931854 50 18267023860242805694
15163728 17 16591372495400486293
15927050 60 17910676458935658257
17627616 140 18046626707295608818
20775530 9 17978519959120329707
21781051 124 17968108559948934339
23559900 14 18341043129418200600
27425 322 17095532798323344829
3052486 1 18260266348384825458
3298306 158 18266447716471603933
340366 18 18040439884251789533
463206 1 18269270321802583423
508706 21 18409162225333454063
5309563 4 17328589934364906082
56633871 153 18051143785110616123
59755656 215 18263352604636415701
9709674 26 18341611550853391052
9862886 166 18410854382851207792

> <PUBCHEM_SHAPE_MULTIPOLES>
489.89
9.5
4.33
1.27
8.58
2.59
0.03
2.16
1.75
-3.21
-0.51
0.27
-0.27
2.11

> <PUBCHEM_SHAPE_SELFOVERLAP>
1043.175

> <PUBCHEM_SHAPE_VOLUME>
270

> <PUBCHEM_COORDINATE_TYPE>
2
5
10

$$$$
