134159627
  -OEChem-03292013293D

 34 34  0     1  0  0  0  0  0999 V2000
   -1.5473    0.2789   -1.0234 O   0  0  0  0  0  0  0  0  0  0  0  0
    1.1644    0.4614   -2.1977 O   0  0  0  0  0  0  0  0  0  0  0  0
    2.3122    1.5385    0.1424 O   0  0  0  0  0  0  0  0  0  0  0  0
    3.2121   -0.5103   -0.6406 O   0  0  0  0  0  0  0  0  0  0  0  0
    1.8045   -0.4406    1.3234 O   0  0  0  0  0  0  0  0  0  0  0  0
   -4.1081    1.3674   -0.9858 O   0  0  0  0  0  0  0  0  0  0  0  0
    4.0934    1.0252    1.4679 O   0  5  0  0  0  0  0  0  0  0  0  0
    2.3757   -2.4307    0.0582 O   0  5  0  0  0  0  0  0  0  0  0  0
    4.2506   -2.4794   -1.1395 O   0  0  0  0  0  0  0  0  0  0  0  0
    3.5668    3.1401    1.0072 O   0  0  0  0  0  0  0  0  0  0  0  0
    3.3025   -1.9281   -0.5793 N   0  3  0  0  0  0  0  0  0  0  0  0
    3.4241    1.9183    0.9449 N   0  3  0  0  0  0  0  0  0  0  0  0
    0.8349   -0.0130   -0.8870 C   0  0  1  0  0  0  0  0  0  0  0  0
    2.0888    0.1077    0.0291 C   0  0  0  0  0  0  0  0  0  0  0  0
   -0.3756    0.7809   -0.3863 C   0  0  0  0  0  0  0  0  0  0  0  0
   -2.5153   -0.2414   -0.2070 C   0  0  0  0  0  0  0  0  0  0  0  0
   -3.7982    0.3058   -0.1907 C   0  0  0  0  0  0  0  0  0  0  0  0
   -2.2099   -1.3277    0.6129 C   0  0  0  0  0  0  0  0  0  0  0  0
   -4.7757   -0.2333    0.6457 C   0  0  0  0  0  0  0  0  0  0  0  0
   -3.1874   -1.8669    1.4493 C   0  0  0  0  0  0  0  0  0  0  0  0
   -4.4703   -1.3196    1.4656 C   0  0  0  0  0  0  0  0  0  0  0  0
   -5.4421    1.8669   -0.9090 C   0  0  0  0  0  0  0  0  0  0  0  0
    0.5574   -1.0659   -1.0039 H   0  0  0  0  0  0  0  0  0  0  0  0
   -0.2887    1.8365   -0.6683 H   0  0  0  0  0  0  0  0  0  0  0  0
   -0.4613    0.7366    0.7062 H   0  0  0  0  0  0  0  0  0  0  0  0
    0.3701    0.3638   -2.7504 H   0  0  0  0  0  0  0  0  0  0  0  0
    2.6355   -0.4280    1.8265 H   0  0  0  0  0  0  0  0  0  0  0  0
   -1.2185   -1.7718    0.6068 H   0  0  0  0  0  0  0  0  0  0  0  0
   -5.7921    0.1395    0.7112 H   0  0  0  0  0  0  0  0  0  0  0  0
   -2.9503   -2.7139    2.0863 H   0  0  0  0  0  0  0  0  0  0  0  0
   -5.2308   -1.7406    2.1170 H   0  0  0  0  0  0  0  0  0  0  0  0
   -5.5117    2.7081   -1.6067 H   0  0  0  0  0  0  0  0  0  0  0  0
   -5.6686    2.2611    0.0875 H   0  0  0  0  0  0  0  0  0  0  0  0
   -6.1724    1.1199   -1.2382 H   0  0  0  0  0  0  0  0  0  0  0  0
  1 15  1  0  0  0  0
  1 16  1  0  0  0  0
  2 13  1  0  0  0  0
  2 26  1  0  0  0  0
  3 12  1  0  0  0  0
  3 14  1  0  0  0  0
  4 11  1  0  0  0  0
  4 14  1  0  0  0  0
  5 14  1  0  0  0  0
  5 27  1  0  0  0  0
  6 17  1  0  0  0  0
  6 22  1  0  0  0  0
  7 12  1  0  0  0  0
  8 11  1  0  0  0  0
  9 11  2  0  0  0  0
 10 12  2  0  0  0  0
 13 14  1  0  0  0  0
 13 15  1  0  0  0  0
 13 23  1  0  0  0  0
 15 24  1  0  0  0  0
 15 25  1  0  0  0  0
 16 17  1  0  0  0  0
 16 18  2  0  0  0  0
 17 19  2  0  0  0  0
 18 20  1  0  0  0  0
 18 28  1  0  0  0  0
 19 21  1  0  0  0  0
 19 29  1  0  0  0  0
 20 21  2  0  0  0  0
 20 30  1  0  0  0  0
 21 31  1  0  0  0  0
 22 32  1  0  0  0  0
 22 33  1  0  0  0  0
 22 34  1  0  0  0  0
M  CHG  4   7  -1   8  -1  11   1  12   1
M  END
> <PUBCHEM_COMPOUND_CID>
134159627

> <PUBCHEM_CONFORMER_RMSD>
0.8

> <PUBCHEM_CONFORMER_DIVERSEORDER>
4
305
68
269
12
119
19
70
216
131
154
29
263
205
271
109
210
129
219
141
181
67
11
252
135
73
74
69
136
161
145
308
89
207
241
90
40
96
272
223
228
137
138
121
33
183
172
323
32
257
23
103
327
247
134
43
220
167
176
310
48
322
58
243
230
278
287
42
111
282
153
245
113
18
326
262
288
87
143
146
259
258
140
169
292
294
279
61
52
285
57
304
5
114
132
206
203
36
212
76
232
31
171
324
163
38
16
160
227
180
107
273
27
123
320
233
165
78
178
254
124
325
6
195
85
26
49
66
277
170
222
201
101
239
316
151
155
297
175
225
127
284
307
240
108
261
270
41
80
2
65
46
196
56
79
226
82
24
244
37
54
291
91
45
309
164
190
88
298
35
177
248
102
300
10
321
260
253
152
100
156
125
139
98
34
173
99
71
81
186
7
20
224
64
39
314
234
117
204
150
188
193
214
315
158
289
51
215
9
112
95
184
256
301
116
60
106
237
25
299
147
142
255
235
265
283
55
22
13
313
312
242
3
236
144
162
306
275
53
174
75
120
157
197
194
199
249
295
290
15
126
115
110
189
286
192
185
200
250
221
268
86
317
229
59
92
14
296
246
72
276
62
209
21
319
211
149
311
328
238
104
105
159
198
93
50
122
267
187
202
28
280
264
118
148
213
47
8
83
130
84
166
168
218
128
208
303
191
318
17
217
77
94
179
63
133
251
293
302
97
266
1
182
44
274
231
30
281

> <PUBCHEM_MMFF94_PARTIAL_CHARGES>
28
1 -0.36
10 -0.52
11 1.03
12 1.03
13 0.28
14 0.84
15 0.28
16 0.08
17 0.08
18 -0.15
19 -0.15
2 -0.68
20 -0.15
21 -0.15
22 0.28
26 0.4
27 0.4
28 0.15
29 0.15
3 -0.27
30 0.15
31 0.15
4 -0.27
5 -0.68
6 -0.36
7 -0.52
8 -0.52
9 -0.52

> <PUBCHEM_EFFECTIVE_ROTOR_COUNT>
9

> <PUBCHEM_PHARMACOPHORE_FEATURES>
11
1 1 acceptor
1 10 acceptor
1 2 acceptor
1 2 donor
1 5 acceptor
1 5 donor
1 6 acceptor
1 7 acceptor
1 8 acceptor
1 9 acceptor
6 16 17 18 19 20 21 rings

> <PUBCHEM_HEAVY_ATOM_COUNT>
22

> <PUBCHEM_ATOM_DEF_STEREO_COUNT>
0

> <PUBCHEM_ATOM_UDEF_STEREO_COUNT>
1

> <PUBCHEM_BOND_DEF_STEREO_COUNT>
0

> <PUBCHEM_BOND_UDEF_STEREO_COUNT>
0

> <PUBCHEM_ISOTOPIC_ATOM_COUNT>
0

> <PUBCHEM_COMPONENT_COUNT>
1

> <PUBCHEM_CACTVS_TAUTO_COUNT>
1

> <PUBCHEM_CONFORMER_ID>
07FF1D0B00000004

> <PUBCHEM_MMFF94_ENERGY>
82.389

> <PUBCHEM_FEATURE_SELFOVERLAP>
56.01

> <PUBCHEM_SHAPE_FINGERPRINT>
11370993 144 18341621391050734273
11405975 8 18409450250335465361
12403259 415 18408327670728460109
12507560 40 18409450301785343455
12553582 1 16443064993588004863
12616971 3 16630531704881117195
13533116 47 18340494387379604835
13544592 145 18261955133255934455
13583140 156 18342455976078785829
13675066 3 18334297578394338615
14178342 30 17458616843983158611
14252887 29 18335143128173379056
14289901 80 18201715201878213027
14866123 147 17256812187589691803
15375358 24 18409158939793975881
18785283 64 18339358691032044760
192875 21 16200142162991004707
19784866 170 18337669840507447788
20645477 70 18131347483960544703
20681651 13 17632016459292890687
20681677 155 17313396577901839999
21065199 12 18336549412525603305
21065201 7 17822013103500978707
21756936 100 17623283184731710768
2215653 11 18263926549415795639
22943178 12 18335139804100826359
23557571 272 18113902701473379961
23559900 14 18260554398244180156
268830 7 17774736307041046881
495365 180 18200297854086074531
5104073 3 18334014978241802617
57724786 102 18060149729896776841
6823239 73 18113909255667144670
90127 26 18410855452065949277
9709674 26 18334295400825086819

> <PUBCHEM_SHAPE_MULTIPOLES>
384.09
10.99
2.55
1.48
4.15
0.07
0.01
1.28
-1.33
-1.59
-0.37
-0.71
0.13
3.42

> <PUBCHEM_SHAPE_SELFOVERLAP>
786.916

> <PUBCHEM_SHAPE_VOLUME>
218.8

> <PUBCHEM_COORDINATE_TYPE>
2
5
10

$$$$
