134153
  -OEChem-03292013323D

 58 59  0     1  0  0  0  0  0999 V2000
    6.4287   -1.0104    0.5887 F   0  0  0  0  0  0  0  0  0  0  0  0
    5.1231   -2.1178   -0.7428 F   0  0  0  0  0  0  0  0  0  0  0  0
    6.3051   -0.4627   -1.5121 F   0  0  0  0  0  0  0  0  0  0  0  0
   -4.6793   -3.5010   -0.4634 O   0  0  0  0  0  0  0  0  0  0  0  0
    0.0534    2.7258   -1.2885 O   0  0  0  0  0  0  0  0  0  0  0  0
   -0.6297   -2.6359    2.6404 O   0  0  0  0  0  0  0  0  0  0  0  0
    1.3672   -2.5026    0.7113 O   0  0  0  0  0  0  0  0  0  0  0  0
   -4.1698    0.1729   -0.4769 N   0  0  0  0  0  0  0  0  0  0  0  0
    1.3239    2.7626    0.6856 N   0  0  0  0  0  0  0  0  0  0  0  0
   -4.8631    1.2831    0.1776 C   0  0  1  0  0  0  0  0  0  0  0  0
   -4.1721    2.6213   -0.1328 C   0  0  0  0  0  0  0  0  0  0  0  0
   -2.7203    2.6760    0.3582 C   0  0  0  0  0  0  0  0  0  0  0  0
   -2.0992    4.0519    0.0929 C   0  0  0  0  0  0  0  0  0  0  0  0
   -4.7868   -1.0967   -0.1270 C   0  0  0  0  0  0  0  0  0  0  0  0
   -6.3226    1.3140   -0.2753 C   0  0  0  0  0  0  0  0  0  0  0  0
   -4.0616   -2.2623   -0.8104 C   0  0  1  0  0  0  0  0  0  0  0  0
   -0.6413    4.1292    0.5449 C   0  0  0  0  0  0  0  0  0  0  0  0
   -2.6071   -2.3277   -0.3990 C   0  0  0  0  0  0  0  0  0  0  0  0
    0.2747    3.1307   -0.1520 C   0  0  0  0  0  0  0  0  0  0  0  0
   -2.2891   -2.4525    0.9423 C   0  0  0  0  0  0  0  0  0  0  0  0
   -1.6257   -2.2603   -1.3729 C   0  0  0  0  0  0  0  0  0  0  0  0
   -0.9481   -2.5118    1.3216 C   0  0  0  0  0  0  0  0  0  0  0  0
   -0.2848   -2.3196   -0.9936 C   0  0  0  0  0  0  0  0  0  0  0  0
    2.3774    1.8607    0.4035 C   0  0  0  0  0  0  0  0  0  0  0  0
    0.0540   -2.4454    0.3537 C   0  0  0  0  0  0  0  0  0  0  0  0
    3.3368    1.6157    1.3719 C   0  0  0  0  0  0  0  0  0  0  0  0
    2.4267    1.2422   -0.8346 C   0  0  0  0  0  0  0  0  0  0  0  0
    4.4394    0.0956   -0.1480 C   0  0  0  0  0  0  0  0  0  0  0  0
    4.3753    0.7268    1.0942 C   0  0  0  0  0  0  0  0  0  0  0  0
    3.4651    0.3533   -1.1125 C   0  0  0  0  0  0  0  0  0  0  0  0
    5.5497   -0.8550   -0.4452 C   0  0  0  0  0  0  0  0  0  0  0  0
   -4.8357    1.1429    1.2662 H   0  0  0  0  0  0  0  0  0  0  0  0
   -4.1978    2.8130   -1.2137 H   0  0  0  0  0  0  0  0  0  0  0  0
   -4.7368    3.4336    0.3428 H   0  0  0  0  0  0  0  0  0  0  0  0
   -2.1377    1.8945   -0.1400 H   0  0  0  0  0  0  0  0  0  0  0  0
   -2.6885    2.4652    1.4341 H   0  0  0  0  0  0  0  0  0  0  0  0
   -2.1609    4.2774   -0.9788 H   0  0  0  0  0  0  0  0  0  0  0  0
   -2.6754    4.8243    0.6163 H   0  0  0  0  0  0  0  0  0  0  0  0
   -4.1844    0.2991   -1.4887 H   0  0  0  0  0  0  0  0  0  0  0  0
   -4.8145   -1.2380    0.9606 H   0  0  0  0  0  0  0  0  0  0  0  0
   -5.8272   -1.1586   -0.4654 H   0  0  0  0  0  0  0  0  0  0  0  0
   -6.7988    2.2489    0.0430 H   0  0  0  0  0  0  0  0  0  0  0  0
   -6.9173    0.5094    0.1682 H   0  0  0  0  0  0  0  0  0  0  0  0
   -6.4145    1.2611   -1.3662 H   0  0  0  0  0  0  0  0  0  0  0  0
   -4.1517   -2.1575   -1.8989 H   0  0  0  0  0  0  0  0  0  0  0  0
   -0.2473    5.1309    0.3372 H   0  0  0  0  0  0  0  0  0  0  0  0
   -0.6020    3.9821    1.6309 H   0  0  0  0  0  0  0  0  0  0  0  0
   -3.0600   -2.5185    1.7047 H   0  0  0  0  0  0  0  0  0  0  0  0
   -1.8775   -2.1612   -2.4246 H   0  0  0  0  0  0  0  0  0  0  0  0
   -4.1210   -4.2226   -0.8004 H   0  0  0  0  0  0  0  0  0  0  0  0
    1.3614    3.1866    1.6099 H   0  0  0  0  0  0  0  0  0  0  0  0
    0.4862   -2.2653   -1.7577 H   0  0  0  0  0  0  0  0  0  0  0  0
    3.2958    2.1018    2.3427 H   0  0  0  0  0  0  0  0  0  0  0  0
    1.7132    1.3889   -1.6317 H   0  0  0  0  0  0  0  0  0  0  0  0
    5.1246    0.5388    1.8582 H   0  0  0  0  0  0  0  0  0  0  0  0
    3.5071   -0.1354   -2.0825 H   0  0  0  0  0  0  0  0  0  0  0  0
    0.3398   -2.6603    2.7199 H   0  0  0  0  0  0  0  0  0  0  0  0
    1.9169   -2.4313   -0.0879 H   0  0  0  0  0  0  0  0  0  0  0  0
  1 31  1  0  0  0  0
  2 31  1  0  0  0  0
  3 31  1  0  0  0  0
  4 16  1  0  0  0  0
  4 50  1  0  0  0  0
  5 19  2  0  0  0  0
  6 22  1  0  0  0  0
  6 57  1  0  0  0  0
  7 25  1  0  0  0  0
  7 58  1  0  0  0  0
  8 10  1  0  0  0  0
  8 14  1  0  0  0  0
  8 39  1  0  0  0  0
  9 19  1  0  0  0  0
  9 24  1  0  0  0  0
  9 51  1  0  0  0  0
 10 11  1  0  0  0  0
 10 15  1  0  0  0  0
 10 32  1  0  0  0  0
 11 12  1  0  0  0  0
 11 33  1  0  0  0  0
 11 34  1  0  0  0  0
 12 13  1  0  0  0  0
 12 35  1  0  0  0  0
 12 36  1  0  0  0  0
 13 17  1  0  0  0  0
 13 37  1  0  0  0  0
 13 38  1  0  0  0  0
 14 16  1  0  0  0  0
 14 40  1  0  0  0  0
 14 41  1  0  0  0  0
 15 42  1  0  0  0  0
 15 43  1  0  0  0  0
 15 44  1  0  0  0  0
 16 18  1  0  0  0  0
 16 45  1  0  0  0  0
 17 19  1  0  0  0  0
 17 46  1  0  0  0  0
 17 47  1  0  0  0  0
 18 20  2  0  0  0  0
 18 21  1  0  0  0  0
 20 22  1  0  0  0  0
 20 48  1  0  0  0  0
 21 23  2  0  0  0  0
 21 49  1  0  0  0  0
 22 25  2  0  0  0  0
 23 25  1  0  0  0  0
 23 52  1  0  0  0  0
 24 26  2  0  0  0  0
 24 27  1  0  0  0  0
 26 29  1  0  0  0  0
 26 53  1  0  0  0  0
 27 30  2  0  0  0  0
 27 54  1  0  0  0  0
 28 29  2  0  0  0  0
 28 30  1  0  0  0  0
 28 31  1  0  0  0  0
 29 55  1  0  0  0  0
 30 56  1  0  0  0  0
M  END
> <PUBCHEM_COMPOUND_CID>
134153

> <PUBCHEM_CONFORMER_RMSD>
1.2

> <PUBCHEM_CONFORMER_DIVERSEORDER>
2
130
39
134
322
173
226
98
44
101
176
316
258
268
183
136
35
131
256
19
73
94
81
85
260
222
127
189
41
180
114
165
248
66
290
228
70
68
295
315
83
281
163
154
199
49
310
28
152
233
262
100
192
119
8
291
278
312
303
88
46
169
263
149
64
65
3
311
150
158
123
159
124
45
1
63
102
24
52
84
220
144
304
32
30
259
274
147
293
327
128
80
209
143
321
22
23
319
179
191
202
99
110
12
227
252
178
61
211
171
197
182
77
53
7
186
43
193
148
135
71
284
104
103
79
140
195
117
170
33
57
137
121
122
320
5
47
279
225
196
9
60
305
89
21
210
42
297
276
261
92
255
16
97
15
14
239
331
251
223
286
50
69
246
206
55
112
207
240
175
75
177
309
300
59
157
285
151
231
218
58
48
164
306
187
87
105
188
205
243
288
253
29
107
235
54
139
17
272
168
190
67
229
294
116
74
238
213
86
224
185
323
25
51
318
275
155
257
301
108
36
34
153
95
141
167
280
106
162
26
113
237
329
241
20
129
198
40
82
184
18
27
11
76
4
160
296
174
230
166
132
302
203
217
221
194
307
265
109
324
266
120
10
200
282
271
292
254
328
13
172
133
277
273
31
6
146
298
299
37
236
62
204
242
201
325
181
245
125
145
138
270
78
269
118
115
267
317
156
212
330
216
90
283
215
313
111
208
244
234
56
161
72
249
232
96
314
287
126
308
326
93
91
219
214
289
38
264
247
142
250

> <PUBCHEM_MMFF94_PARTIAL_CHARGES>
39
1 -0.34
10 0.27
14 0.27
16 0.42
17 0.06
18 -0.14
19 0.57
2 -0.34
20 -0.15
21 -0.15
22 0.08
23 -0.15
24 0.12
25 0.08
26 -0.15
27 -0.15
28 -0.14
29 -0.15
3 -0.34
30 -0.15
31 1.16
39 0.36
4 -0.68
48 0.15
49 0.15
5 -0.57
50 0.4
51 0.37
52 0.15
53 0.15
54 0.15
55 0.15
56 0.15
57 0.45
58 0.45
6 -0.53
7 -0.53
8 -0.9
9 -0.55

> <PUBCHEM_EFFECTIVE_ROTOR_COUNT>
12

> <PUBCHEM_PHARMACOPHORE_FEATURES>
11
1 4 acceptor
1 4 donor
1 5 acceptor
1 6 donor
1 7 donor
1 8 cation
1 8 donor
1 9 donor
4 11 12 13 17 hydrophobe
6 18 20 21 22 23 25 rings
6 24 26 27 28 29 30 rings

> <PUBCHEM_HEAVY_ATOM_COUNT>
31

> <PUBCHEM_ATOM_DEF_STEREO_COUNT>
0

> <PUBCHEM_ATOM_UDEF_STEREO_COUNT>
2

> <PUBCHEM_BOND_DEF_STEREO_COUNT>
0

> <PUBCHEM_BOND_UDEF_STEREO_COUNT>
0

> <PUBCHEM_ISOTOPIC_ATOM_COUNT>
0

> <PUBCHEM_COMPONENT_COUNT>
1

> <PUBCHEM_CACTVS_TAUTO_COUNT>
20

> <PUBCHEM_CONFORMER_ID>
00020C0900000002

> <PUBCHEM_MMFF94_ENERGY>
60.7291

> <PUBCHEM_FEATURE_SELFOVERLAP>
55.826

> <PUBCHEM_SHAPE_FINGERPRINT>
10693767 8 17410193433501780119
11479125 193 15623369269834113792
11578080 2 16843857937342559634
11828532 37 18191588769113242455
12422481 6 18125183725767135883
12645989 146 18200594833737001559
12788726 201 18408327705114539836
13122387 1 18410568522591815377
13402501 40 18343022159752431348
14289585 56 17096089061271052404
144659 178 18408610274918411236
14725015 67 18193543700765549705
14866123 147 18265330621306013042
15001296 14 18334845156438794401
15274700 256 18410568514903688496
15274700 259 17533468199364745541
15297060 5 17988081076528610227
15322534 239 18334297565098311643
15629462 23 16699222474256313976
15927050 60 17622725319982878461
16112460 7 18270133399554818497
17627616 140 18044932377241035571
19311894 1 18412541042272680961
19930381 70 16969697279191143723
20764821 26 18338534030950831853
21133410 62 18044081364517082045
21133410 90 17131828798216087401
238918 7 18131352964502195518
24893992 56 18334573573847490823
3052486 1 18407757045262623800
3298306 158 18335129874743580293
338550 245 18334861601667967756
437795 70 18341060639983444406
463206 1 18410575081022843809
508706 21 18334011735367569435
59755656 215 18340485552146411693

> <PUBCHEM_SHAPE_MULTIPOLES>
582.7
13.06
5.64
1.35
7.93
2.46
0.4
-2.24
-2.33
-4.9
0.62
0.68
-0.77
0.29

> <PUBCHEM_SHAPE_SELFOVERLAP>
1213.775

> <PUBCHEM_SHAPE_VOLUME>
332.6

> <PUBCHEM_COORDINATE_TYPE>
2
5
10

$$$$
