134129
  -OEChem-03292013323D

 35 34  0     1  0  0  0  0  0999 V2000
   -0.8250   -1.3412   -0.7865 O   0  0  0  0  0  0  0  0  0  0  0  0
   -2.7631    1.1960    0.9613 O   0  0  0  0  0  0  0  0  0  0  0  0
    0.8593   -0.9931    3.3664 O   0  0  0  0  0  0  0  0  0  0  0  0
   -3.2659   -1.0311   -1.7764 O   0  0  0  0  0  0  0  0  0  0  0  0
   -4.6114   -0.4234   -0.0501 O   0  0  0  0  0  0  0  0  0  0  0  0
    1.4025    2.9334    0.9044 O   0  0  0  0  0  0  0  0  0  0  0  0
    3.3307   -0.1372   -1.0361 O   0  0  0  0  0  0  0  0  0  0  0  0
    0.5141    1.2274   -0.4046 N   0  0  0  0  0  0  0  0  0  0  0  0
    1.7099   -1.4765   -0.0354 N   0  0  0  0  0  0  0  0  0  0  0  0
    0.1523    0.3234    0.6755 C   0  0  1  0  0  0  0  0  0  0  0  0
   -1.1328   -0.4415    0.2885 C   0  0  1  0  0  0  0  0  0  0  0  0
    1.3420   -0.5819    1.0315 C   0  0  1  0  0  0  0  0  0  0  0  0
   -2.3259    0.4172   -0.1535 C   0  0  1  0  0  0  0  0  0  0  0  0
    1.0746   -1.4489    2.2462 C   0  0  0  0  0  0  0  0  0  0  0  0
   -3.5289   -0.3784   -0.6175 C   0  0  0  0  0  0  0  0  0  0  0  0
    1.1081    2.4532   -0.1870 C   0  0  0  0  0  0  0  0  0  0  0  0
    2.6776   -1.1761   -0.9825 C   0  0  0  0  0  0  0  0  0  0  0  0
    1.3988    3.1737   -1.4762 C   0  0  0  0  0  0  0  0  0  0  0  0
    2.8831   -2.2951   -1.9681 C   0  0  0  0  0  0  0  0  0  0  0  0
   -0.0802    0.9413    1.5529 H   0  0  0  0  0  0  0  0  0  0  0  0
   -1.4327   -1.0605    1.1437 H   0  0  0  0  0  0  0  0  0  0  0  0
    2.2190    0.0321    1.2720 H   0  0  0  0  0  0  0  0  0  0  0  0
   -2.0665    1.1077   -0.9628 H   0  0  0  0  0  0  0  0  0  0  0  0
    0.3875    0.9019   -1.3590 H   0  0  0  0  0  0  0  0  0  0  0  0
    1.2109   -2.3583   -0.1191 H   0  0  0  0  0  0  0  0  0  0  0  0
    1.0552   -2.5412    2.0878 H   0  0  0  0  0  0  0  0  0  0  0  0
   -1.5445   -1.9922   -0.8442 H   0  0  0  0  0  0  0  0  0  0  0  0
   -2.9542    0.5886    1.6965 H   0  0  0  0  0  0  0  0  0  0  0  0
    1.6549    4.2158   -1.2656 H   0  0  0  0  0  0  0  0  0  0  0  0
    2.2398    2.6912   -1.9817 H   0  0  0  0  0  0  0  0  0  0  0  0
    0.5214    3.1551   -2.1291 H   0  0  0  0  0  0  0  0  0  0  0  0
    3.5397   -1.9596   -2.7756 H   0  0  0  0  0  0  0  0  0  0  0  0
    3.3426   -3.1487   -1.4621 H   0  0  0  0  0  0  0  0  0  0  0  0
    1.9243   -2.5984   -2.3982 H   0  0  0  0  0  0  0  0  0  0  0  0
   -4.0407   -1.5427   -2.0929 H   0  0  0  0  0  0  0  0  0  0  0  0
  1 11  1  0  0  0  0
  1 27  1  0  0  0  0
  2 13  1  0  0  0  0
  2 28  1  0  0  0  0
  3 14  2  0  0  0  0
  4 15  1  0  0  0  0
  4 35  1  0  0  0  0
  5 15  2  0  0  0  0
  6 16  2  0  0  0  0
  7 17  2  0  0  0  0
  8 10  1  0  0  0  0
  8 16  1  0  0  0  0
  8 24  1  0  0  0  0
  9 12  1  0  0  0  0
  9 17  1  0  0  0  0
  9 25  1  0  0  0  0
 10 11  1  0  0  0  0
 10 12  1  0  0  0  0
 10 20  1  0  0  0  0
 11 13  1  0  0  0  0
 11 21  1  0  0  0  0
 12 14  1  0  0  0  0
 12 22  1  0  0  0  0
 13 15  1  0  0  0  0
 13 23  1  0  0  0  0
 14 26  1  0  0  0  0
 16 18  1  0  0  0  0
 17 19  1  0  0  0  0
 18 29  1  0  0  0  0
 18 30  1  0  0  0  0
 18 31  1  0  0  0  0
 19 32  1  0  0  0  0
 19 33  1  0  0  0  0
 19 34  1  0  0  0  0
M  END
> <PUBCHEM_COMPOUND_CID>
134129

> <PUBCHEM_CONFORMER_RMSD>
0.8

> <PUBCHEM_CONFORMER_DIVERSEORDER>
1
61
75
50
74
95
90
58
66
70
54
32
21
10
49
77
92
39
72
28
31
38
57
20
6
85
35
19
53
25
89
62
67
91
69
37
15
18
33
60
45
78
96
81
2
51
86
36
11
55
48
83
44
94
73
84
4
88
34
64
17
87
47
82
23
26
43
13
42
7
52
68
80
59
27
76
12
24
71
63
22
41
16
40
5
93
29
56
14
79
8
46
65
9
30
3

> <PUBCHEM_MMFF94_PARTIAL_CHARGES>
25
1 -0.68
10 0.3
11 0.28
12 0.36
13 0.34
14 0.45
15 0.66
16 0.57
17 0.57
18 0.06
19 0.06
2 -0.68
24 0.37
25 0.37
26 0.06
27 0.4
28 0.4
3 -0.57
35 0.5
4 -0.65
5 -0.57
6 -0.57
7 -0.57
8 -0.73
9 -0.73

> <PUBCHEM_EFFECTIVE_ROTOR_COUNT>
9

> <PUBCHEM_PHARMACOPHORE_FEATURES>
12
1 1 acceptor
1 1 donor
1 2 acceptor
1 2 donor
1 3 acceptor
1 4 acceptor
1 5 acceptor
1 6 acceptor
1 7 acceptor
1 8 donor
1 9 donor
3 4 5 15 anion

> <PUBCHEM_HEAVY_ATOM_COUNT>
19

> <PUBCHEM_ATOM_DEF_STEREO_COUNT>
4

> <PUBCHEM_ATOM_UDEF_STEREO_COUNT>
0

> <PUBCHEM_BOND_DEF_STEREO_COUNT>
0

> <PUBCHEM_BOND_UDEF_STEREO_COUNT>
0

> <PUBCHEM_ISOTOPIC_ATOM_COUNT>
0

> <PUBCHEM_COMPONENT_COUNT>
1

> <PUBCHEM_CACTVS_TAUTO_COUNT>
8

> <PUBCHEM_CONFORMER_ID>
00020BF100000001

> <PUBCHEM_MMFF94_ENERGY>
31.315

> <PUBCHEM_FEATURE_SELFOVERLAP>
60.989

> <PUBCHEM_SHAPE_FINGERPRINT>
11578080 2 17486759793421255104
12617007 42 18341899554243474671
12654903 92 18272935994400160662
13134695 92 17172601914878583563
13149001 5 17897190072124891562
13544592 271 18191889979448132748
14181834 199 18195221494578471541
14817 1 9825507352430056186
14863182 85 17198789155079509551
16945 1 17895491227669891126
18186145 218 17241632574985731822
20511035 2 17685775027465192496
20600515 1 18268124531501221490
20645477 70 18338506556445634775
21524375 3 17613419456621674117
22112679 90 18046339730317287048
2255824 54 18187358865748619609
23382010 3 17241911919521545990
23402539 116 18264776459066598198
23419403 2 17466557572651178322
23526113 38 17968674777628500110
23557571 272 18125710198183328114
3250762 1 17464564244227835698
4175511 335 17095514067865075522
4175511 376 18188775071174526388
5845 1 8931401719262317132
7364860 26 18201717422128742372
81228 2 17976844003279077704
9981440 41 17404582663523437256

> <PUBCHEM_SHAPE_MULTIPOLES>
339.96
5.52
2.91
2.2
5.72
3.09
-1.31
-2.06
2.97
-2.55
0.48
-1.16
-1.38
-0.09

> <PUBCHEM_SHAPE_SELFOVERLAP>
668.695

> <PUBCHEM_SHAPE_VOLUME>
200.7

> <PUBCHEM_COORDINATE_TYPE>
2
5
10

$$$$
