134158451
  -OEChem-03292013293D

 50 52  0     1  0  0  0  0  0999 V2000
   -7.8341    0.6905    1.4094 S   0  0  0  0  0  0  0  0  0  0  0  0
    3.7649    0.5313   -0.3039 O   0  0  0  0  0  0  0  0  0  0  0  0
    2.1323   -1.1222   -0.5129 O   0  0  0  0  0  0  0  0  0  0  0  0
    6.6889   -2.2579    0.4314 O   0  0  0  0  0  0  0  0  0  0  0  0
    3.8492   -2.9549    0.7823 O   0  0  0  0  0  0  0  0  0  0  0  0
    7.1189    0.5236    1.1549 O   0  0  0  0  0  0  0  0  0  0  0  0
    6.2422    2.9375    0.3279 O   0  0  0  0  0  0  0  0  0  0  0  0
    4.6239    2.7356   -1.2647 O   0  0  0  0  0  0  0  0  0  0  0  0
    0.8149    0.3600    0.6582 O   0  0  0  0  0  0  0  0  0  0  0  0
   -5.3850    2.3008    0.7803 O   0  0  0  0  0  0  0  0  0  0  0  0
    5.6474   -1.3462    0.7844 C   0  0  2  0  0  0  0  0  0  0  0  0
    4.3393   -1.7859    0.1262 C   0  0  2  0  0  0  0  0  0  0  0  0
    6.0638    0.0495    0.3198 C   0  0  1  0  0  0  0  0  0  0  0  0
    3.2732   -0.6950    0.2305 C   0  0  1  0  0  0  0  0  0  0  0  0
    4.8934    1.0205    0.4114 C   0  0  1  0  0  0  0  0  0  0  0  0
    5.2093    2.3061   -0.2818 C   0  0  0  0  0  0  0  0  0  0  0  0
   -0.1730   -1.0851   -1.0457 C   0  0  1  0  0  0  0  0  0  0  0  0
    0.9512   -0.5067   -0.1958 C   0  0  0  0  0  0  0  0  0  0  0  0
   -1.5245   -0.5017   -0.6666 C   0  0  0  0  0  0  0  0  0  0  0  0
    0.1327   -0.9161   -2.5365 C   0  0  0  0  0  0  0  0  0  0  0  0
   -2.5205   -1.3298   -0.1490 C   0  0  0  0  0  0  0  0  0  0  0  0
   -1.7687    0.8610   -0.8365 C   0  0  0  0  0  0  0  0  0  0  0  0
   -3.7608   -0.7949    0.1990 C   0  0  0  0  0  0  0  0  0  0  0  0
   -3.0092    1.3958   -0.4886 C   0  0  0  0  0  0  0  0  0  0  0  0
   -4.0051    0.5679    0.0293 C   0  0  0  0  0  0  0  0  0  0  0  0
   -5.2980    1.1262    0.3927 C   0  0  0  0  0  0  0  0  0  0  0  0
   -6.5619    0.3327    0.3205 C   0  0  0  0  0  0  0  0  0  0  0  0
   -6.8858   -0.7003   -0.5314 C   0  0  0  0  0  0  0  0  0  0  0  0
   -8.1957   -1.2045   -0.2870 C   0  0  0  0  0  0  0  0  0  0  0  0
   -8.8231   -0.5379    0.7424 C   0  0  0  0  0  0  0  0  0  0  0  0
    5.5660   -1.3859    1.8770 H   0  0  0  0  0  0  0  0  0  0  0  0
    4.5087   -2.0585   -0.9223 H   0  0  0  0  0  0  0  0  0  0  0  0
    6.4568    0.0046   -0.7034 H   0  0  0  0  0  0  0  0  0  0  0  0
    2.9897   -0.5566    1.2834 H   0  0  0  0  0  0  0  0  0  0  0  0
    4.6044    1.2518    1.4442 H   0  0  0  0  0  0  0  0  0  0  0  0
    6.7715   -2.2621   -0.5374 H   0  0  0  0  0  0  0  0  0  0  0  0
    3.6904   -2.7331    1.7156 H   0  0  0  0  0  0  0  0  0  0  0  0
    6.7822    0.5762    2.0657 H   0  0  0  0  0  0  0  0  0  0  0  0
   -0.1937   -2.1609   -0.8235 H   0  0  0  0  0  0  0  0  0  0  0  0
    0.3056    0.1337   -2.7986 H   0  0  0  0  0  0  0  0  0  0  0  0
    1.0332   -1.4716   -2.8203 H   0  0  0  0  0  0  0  0  0  0  0  0
   -0.6942   -1.2870   -3.1521 H   0  0  0  0  0  0  0  0  0  0  0  0
    6.4664    3.7842   -0.1140 H   0  0  0  0  0  0  0  0  0  0  0  0
   -2.3430   -2.3920   -0.0037 H   0  0  0  0  0  0  0  0  0  0  0  0
   -1.0059    1.5218   -1.2392 H   0  0  0  0  0  0  0  0  0  0  0  0
   -4.4992   -1.4634    0.6316 H   0  0  0  0  0  0  0  0  0  0  0  0
   -3.1819    2.4592   -0.6325 H   0  0  0  0  0  0  0  0  0  0  0  0
   -6.2329   -1.0775   -1.3082 H   0  0  0  0  0  0  0  0  0  0  0  0
   -8.6561   -2.0126   -0.8404 H   0  0  0  0  0  0  0  0  0  0  0  0
   -9.8152   -0.7128    1.1339 H   0  0  0  0  0  0  0  0  0  0  0  0
  1 27  1  0  0  0  0
  1 30  1  0  0  0  0
  2 14  1  0  0  0  0
  2 15  1  0  0  0  0
  3 14  1  0  0  0  0
  3 18  1  0  0  0  0
  4 11  1  0  0  0  0
  4 36  1  0  0  0  0
  5 12  1  0  0  0  0
  5 37  1  0  0  0  0
  6 13  1  0  0  0  0
  6 38  1  0  0  0  0
  7 16  1  0  0  0  0
  7 43  1  0  0  0  0
  8 16  2  0  0  0  0
  9 18  2  0  0  0  0
 10 26  2  0  0  0  0
 11 12  1  0  0  0  0
 11 13  1  0  0  0  0
 11 31  1  0  0  0  0
 12 14  1  0  0  0  0
 12 32  1  0  0  0  0
 13 15  1  0  0  0  0
 13 33  1  0  0  0  0
 14 34  1  0  0  0  0
 15 16  1  0  0  0  0
 15 35  1  0  0  0  0
 17 18  1  0  0  0  0
 17 19  1  0  0  0  0
 17 20  1  0  0  0  0
 17 39  1  0  0  0  0
 19 21  2  0  0  0  0
 19 22  1  0  0  0  0
 20 40  1  0  0  0  0
 20 41  1  0  0  0  0
 20 42  1  0  0  0  0
 21 23  1  0  0  0  0
 21 44  1  0  0  0  0
 22 24  2  0  0  0  0
 22 45  1  0  0  0  0
 23 25  2  0  0  0  0
 23 46  1  0  0  0  0
 24 25  1  0  0  0  0
 24 47  1  0  0  0  0
 25 26  1  0  0  0  0
 26 27  1  0  0  0  0
 27 28  2  0  0  0  0
 28 29  1  0  0  0  0
 28 48  1  0  0  0  0
 29 30  2  0  0  0  0
 29 49  1  0  0  0  0
 30 50  1  0  0  0  0
M  END
> <PUBCHEM_COMPOUND_CID>
134158451

> <PUBCHEM_CONFORMER_RMSD>
1

> <PUBCHEM_CONFORMER_DIVERSEORDER>
2
78
67
69
139
23
88
77
112
48
92
107
35
29
97
49
104
39
57
38
81
37
45
9
133
111
10
72
41
13
128
129
80
50
118
61
42
14
95
100
54
102
47
70
101
140
91
32
31
85
79
16
117
116
68
126
5
90
130
98
76
124
55
33
105
120
58
62
18
26
40
19
123
27
84
52
34
138
65
110
132
71
53
94
74
115
103
60
135
11
136
20
56
73
25
127
75
131
93
22
106
113
109
134
43
82
121
21
6
1
66
63
44
8
122
7
99
108
15
86
125
119
24
3
89
114
59
137
83
36
4
64
96
87
28
30
17
12
51
46

> <PUBCHEM_MMFF94_PARTIAL_CHARGES>
40
1 -0.08
10 -0.57
11 0.28
12 0.28
13 0.28
14 0.56
15 0.34
16 0.66
17 0.2
18 0.66
19 -0.14
2 -0.56
21 -0.15
22 -0.15
23 -0.15
24 -0.15
25 0.09
26 0.57
27 -0.05
28 -0.15
29 -0.15
3 -0.43
30 -0.11
36 0.4
37 0.4
38 0.4
4 -0.68
43 0.5
44 0.15
45 0.15
46 0.15
47 0.15
48 0.15
49 0.15
5 -0.68
50 0.15
6 -0.68
7 -0.65
8 -0.57
9 -0.57

> <PUBCHEM_EFFECTIVE_ROTOR_COUNT>
8.2

> <PUBCHEM_PHARMACOPHORE_FEATURES>
16
1 10 acceptor
1 2 acceptor
1 20 hydrophobe
1 4 acceptor
1 4 donor
1 5 acceptor
1 5 donor
1 6 acceptor
1 6 donor
1 7 acceptor
1 8 acceptor
1 9 acceptor
3 7 8 16 anion
5 1 27 28 29 30 rings
6 19 21 22 23 24 25 rings
6 2 11 12 13 14 15 rings

> <PUBCHEM_HEAVY_ATOM_COUNT>
30

> <PUBCHEM_ATOM_DEF_STEREO_COUNT>
6

> <PUBCHEM_ATOM_UDEF_STEREO_COUNT>
0

> <PUBCHEM_BOND_DEF_STEREO_COUNT>
0

> <PUBCHEM_BOND_UDEF_STEREO_COUNT>
0

> <PUBCHEM_ISOTOPIC_ATOM_COUNT>
0

> <PUBCHEM_COMPONENT_COUNT>
1

> <PUBCHEM_CACTVS_TAUTO_COUNT>
9

> <PUBCHEM_CONFORMER_ID>
07FF187300000002

> <PUBCHEM_MMFF94_ENERGY>
75.126

> <PUBCHEM_FEATURE_SELFOVERLAP>
81.287

> <PUBCHEM_SHAPE_FINGERPRINT>
10 15 18408608084468499129
10299344 5 18344145895565254483
106641 1 18411982477491490027
11724838 91 18412542128150385919
12596602 18 18334858282243544329
13177829 20 18410575098254921051
13533116 47 18113901511614769946
14251764 18 18272088301495684355
14294032 229 17060329730758305917
14849402 71 18272653502176246681
15183329 4 17418102039285927289
15301273 46 16370721530573798479
15419008 91 17023170665998556533
15840311 113 18409732876295151548
20157964 124 18409167718965656794
20281389 69 18412262830922801017
20567600 234 18412827988721235463
21130935 74 18340769217979092427
21315763 28 18410573950955366699
21792934 111 17895194381744122669
22149856 69 17274838904608509499
22224240 67 18186237342566822435
23522609 53 18129683970835624561
24771293 8 18202008720803623221
3383291 50 17022914458509471339
34797466 226 18059863865220435356
3663271 9 18340770347697143315
397830 11 17531822375315662233
4073 2 18187649170930684674
4625314 4 18412262814344097831
5104073 3 18260545649838961914
5758199 1 16630809898719332095
68570916 9 18341893026257460735
9689198 14 14045745915963449483

> <PUBCHEM_SHAPE_MULTIPOLES>
568.41
25.6
2.42
1.22
19.2
0.74
0.48
2.27
-8.86
-4.38
-0.05
0.1
-0.11
-1.59

> <PUBCHEM_SHAPE_SELFOVERLAP>
1206.117

> <PUBCHEM_SHAPE_VOLUME>
316.3

> <PUBCHEM_COORDINATE_TYPE>
2
5
10

$$$$
