134107
  -OEChem-03292013323D

 29 28  0     1  0  0  0  0  0999 V2000
    0.2035   -1.6891   -1.3948 O   0  0  0  0  0  0  0  0  0  0  0  0
   -0.9744    0.4471    1.3123 O   0  0  0  0  0  0  0  0  0  0  0  0
   -2.7393   -1.5609    0.6028 O   0  0  0  0  0  0  0  0  0  0  0  0
   -3.2316    1.5285   -1.1250 O   0  0  0  0  0  0  0  0  0  0  0  0
    3.7292   -1.6394   -0.0229 O   0  0  0  0  0  0  0  0  0  0  0  0
   -4.2874    0.5648    0.6365 O   0  0  0  0  0  0  0  0  0  0  0  0
    2.4259    1.8723    1.2759 O   0  0  0  0  0  0  0  0  0  0  0  0
    2.0253    0.3368   -0.4283 N   0  0  0  0  0  0  0  0  0  0  0  0
    0.1209   -1.2073   -0.0496 C   0  0  2  0  0  0  0  0  0  0  0  0
   -0.9515   -0.0991   -0.0125 C   0  0  1  0  0  0  0  0  0  0  0  0
    1.5175   -0.7372    0.3853 C   0  0  1  0  0  0  0  0  0  0  0  0
   -2.3750   -0.5623   -0.3529 C   0  0  2  0  0  0  0  0  0  0  0  0
    2.5530   -1.8406    0.2691 C   0  0  0  0  0  0  0  0  0  0  0  0
   -3.4022    0.5415   -0.2087 C   0  0  0  0  0  0  0  0  0  0  0  0
    2.4381    1.5558    0.0891 C   0  0  0  0  0  0  0  0  0  0  0  0
    2.9479    2.4889   -0.9763 C   0  0  0  0  0  0  0  0  0  0  0  0
   -0.1698   -2.0491    0.5908 H   0  0  0  0  0  0  0  0  0  0  0  0
   -0.6758    0.7111   -0.6974 H   0  0  0  0  0  0  0  0  0  0  0  0
    1.4924   -0.4389    1.4392 H   0  0  0  0  0  0  0  0  0  0  0  0
   -2.4474   -0.9954   -1.3550 H   0  0  0  0  0  0  0  0  0  0  0  0
    2.1178    0.1719   -1.4270 H   0  0  0  0  0  0  0  0  0  0  0  0
    2.2135   -2.8504    0.5574 H   0  0  0  0  0  0  0  0  0  0  0  0
   -0.6053   -2.1962   -1.5771 H   0  0  0  0  0  0  0  0  0  0  0  0
   -1.2367   -0.2655    1.9202 H   0  0  0  0  0  0  0  0  0  0  0  0
   -3.5890   -1.9395    0.3187 H   0  0  0  0  0  0  0  0  0  0  0  0
    3.0360    3.4998   -0.5688 H   0  0  0  0  0  0  0  0  0  0  0  0
    3.9300    2.1499   -1.3169 H   0  0  0  0  0  0  0  0  0  0  0  0
    2.2562    2.5128   -1.8233 H   0  0  0  0  0  0  0  0  0  0  0  0
   -3.8969    2.2420   -1.0222 H   0  0  0  0  0  0  0  0  0  0  0  0
  1  9  1  0  0  0  0
  1 23  1  0  0  0  0
  2 10  1  0  0  0  0
  2 24  1  0  0  0  0
  3 12  1  0  0  0  0
  3 25  1  0  0  0  0
  4 14  1  0  0  0  0
  4 29  1  0  0  0  0
  5 13  2  0  0  0  0
  6 14  2  0  0  0  0
  7 15  2  0  0  0  0
  8 11  1  0  0  0  0
  8 15  1  0  0  0  0
  8 21  1  0  0  0  0
  9 10  1  0  0  0  0
  9 11  1  0  0  0  0
  9 17  1  0  0  0  0
 10 12  1  0  0  0  0
 10 18  1  0  0  0  0
 11 13  1  0  0  0  0
 11 19  1  0  0  0  0
 12 14  1  0  0  0  0
 12 20  1  0  0  0  0
 13 22  1  0  0  0  0
 15 16  1  0  0  0  0
 16 26  1  0  0  0  0
 16 27  1  0  0  0  0
 16 28  1  0  0  0  0
M  END
> <PUBCHEM_COMPOUND_CID>
134107

> <PUBCHEM_CONFORMER_RMSD>
0.8

> <PUBCHEM_CONFORMER_DIVERSEORDER>
2
30
3
45
21
42
15
4
43
36
32
41
27
25
13
11
23
5
6
8
40
20
44
37
7
35
31
48
47
12
24
34
9
39
29
10
22
28
1
46
26
38
14
16
18
17
33
19

> <PUBCHEM_MMFF94_PARTIAL_CHARGES>
22
1 -0.68
10 0.28
11 0.36
12 0.34
13 0.45
14 0.66
15 0.57
16 0.06
2 -0.68
21 0.37
22 0.06
23 0.4
24 0.4
25 0.4
29 0.5
3 -0.68
4 -0.65
5 -0.57
6 -0.57
7 -0.57
8 -0.73
9 0.28

> <PUBCHEM_EFFECTIVE_ROTOR_COUNT>
7

> <PUBCHEM_PHARMACOPHORE_FEATURES>
12
1 1 acceptor
1 1 donor
1 2 acceptor
1 2 donor
1 3 acceptor
1 3 donor
1 4 acceptor
1 5 acceptor
1 6 acceptor
1 7 acceptor
1 8 donor
3 4 6 14 anion

> <PUBCHEM_HEAVY_ATOM_COUNT>
16

> <PUBCHEM_ATOM_DEF_STEREO_COUNT>
4

> <PUBCHEM_ATOM_UDEF_STEREO_COUNT>
0

> <PUBCHEM_BOND_DEF_STEREO_COUNT>
0

> <PUBCHEM_BOND_UDEF_STEREO_COUNT>
0

> <PUBCHEM_ISOTOPIC_ATOM_COUNT>
0

> <PUBCHEM_COMPONENT_COUNT>
1

> <PUBCHEM_CACTVS_TAUTO_COUNT>
4

> <PUBCHEM_CONFORMER_ID>
00020BDB00000002

> <PUBCHEM_MMFF94_ENERGY>
25.6553

> <PUBCHEM_FEATURE_SELFOVERLAP>
60.982

> <PUBCHEM_SHAPE_FINGERPRINT>
10465860 228 18408886269553183820
10608611 8 18333729113497278381
10980938 120 18338230569814739708
12932764 1 17987800850886410511
13134695 92 18059282163851353376
13380535 21 18337676428738950819
13922767 16 18339634547431837938
14123255 52 18120657100419534476
14993402 34 18200879470363237134
15219456 202 18334576854105181123
15375462 6 18263082274345119583
15775835 57 18341055223702681900
16945 1 18191291707008780131
17041 50 18263924345791376990
18186145 218 18409165485303081403
20671657 1 18341611568302330980
20671657 53 18195812873189476298
21501502 16 18412541050578097343
21524375 3 18194964273714357662
21639500 275 18272921726645501069
2255824 54 18334295357833378346
22854114 111 18411981377220180857
23559900 14 18334289859932263667
3071541 158 18337669707436782028
449060 62 18411144670467891413
7364860 26 18343581846047503242
81228 2 17619920452739470834

> <PUBCHEM_SHAPE_MULTIPOLES>
283.21
6.78
2.38
1.05
3.62
0.52
-0.01
1.86
-0.06
-2.34
0.35
-0.01
0.23
0.11

> <PUBCHEM_SHAPE_SELFOVERLAP>
554.512

> <PUBCHEM_SHAPE_VOLUME>
168

> <PUBCHEM_COORDINATE_TYPE>
2
5
10

$$$$
