134114
  -OEChem-03292013323D

 61 62  0     1  0  0  0  0  0999 V2000
    1.0782    0.7327   -0.5439 O   0  0  0  0  0  0  0  0  0  0  0  0
    3.4242   -0.9867   -1.6803 O   0  0  0  0  0  0  0  0  0  0  0  0
   -2.1998    1.8599   -2.4748 O   0  0  0  0  0  0  0  0  0  0  0  0
    4.4414    1.1213    1.1872 O   0  0  0  0  0  0  0  0  0  0  0  0
   -0.1637    3.1137    1.9855 O   0  0  0  0  0  0  0  0  0  0  0  0
   -5.5430   -3.1829    0.8504 O   0  0  0  0  0  0  0  0  0  0  0  0
    1.9382   -1.6015   -0.0159 N   0  0  0  0  0  0  0  0  0  0  0  0
   -0.7762    0.1164   -1.8402 N   0  0  0  0  0  0  0  0  0  0  0  0
    4.6813   -3.0126    0.2821 N   0  0  0  0  0  0  0  0  0  0  0  0
   -0.9990    3.0924   -0.1875 N   0  0  0  0  0  0  0  0  0  0  0  0
    6.5411    1.4464    0.3111 N   0  0  0  0  0  0  0  0  0  0  0  0
    0.7407   -1.5804   -0.8457 C   0  0  1  0  0  0  0  0  0  0  0  0
   -0.3115   -2.3186   -0.0262 C   0  0  0  0  0  0  0  0  0  0  0  0
    0.1131   -2.0550    1.4164 C   0  0  0  0  0  0  0  0  0  0  0  0
    1.6323   -2.0537    1.3389 C   0  0  0  0  0  0  0  0  0  0  0  0
    0.3741   -0.1422   -1.0563 C   0  0  0  0  0  0  0  0  0  0  0  0
    3.2044   -1.3686   -0.5296 C   0  0  0  0  0  0  0  0  0  0  0  0
    4.3465   -1.6024    0.4266 C   0  0  2  0  0  0  0  0  0  0  0  0
    5.5374   -0.7271    0.0521 C   0  0  0  0  0  0  0  0  0  0  0  0
   -1.5577    1.2709   -1.5998 C   0  0  0  0  0  0  0  0  0  0  0  0
   -1.6067    1.7832   -0.1536 C   0  0  2  0  0  0  0  0  0  0  0  0
   -1.1656   -0.8087   -2.9053 C   0  0  0  0  0  0  0  0  0  0  0  0
   -3.0562    1.8755    0.3420 C   0  0  0  0  0  0  0  0  0  0  0  0
    5.4194    0.6920    0.5826 C   0  0  0  0  0  0  0  0  0  0  0  0
   -3.7196    0.5272    0.4771 C   0  0  0  0  0  0  0  0  0  0  0  0
   -0.3276    3.6453    0.8904 C   0  0  0  0  0  0  0  0  0  0  0  0
   -4.4119   -0.0217   -0.6024 C   0  0  0  0  0  0  0  0  0  0  0  0
   -3.6402   -0.1710    1.6822 C   0  0  0  0  0  0  0  0  0  0  0  0
   -5.0248   -1.2683   -0.4769 C   0  0  0  0  0  0  0  0  0  0  0  0
   -4.2531   -1.4175    1.8078 C   0  0  0  0  0  0  0  0  0  0  0  0
    0.2299    5.0080    0.5779 C   0  0  0  0  0  0  0  0  0  0  0  0
   -4.9454   -1.9662    0.7283 C   0  0  0  0  0  0  0  0  0  0  0  0
    0.9516   -2.0623   -1.8047 H   0  0  0  0  0  0  0  0  0  0  0  0
   -1.3429   -2.0022   -0.2002 H   0  0  0  0  0  0  0  0  0  0  0  0
   -0.2476   -3.3948   -0.2286 H   0  0  0  0  0  0  0  0  0  0  0  0
   -0.2725   -2.8003    2.1175 H   0  0  0  0  0  0  0  0  0  0  0  0
   -0.2476   -1.0696    1.7352 H   0  0  0  0  0  0  0  0  0  0  0  0
    2.0276   -3.0648    1.4717 H   0  0  0  0  0  0  0  0  0  0  0  0
    2.0694   -1.3872    2.0868 H   0  0  0  0  0  0  0  0  0  0  0  0
    4.0710   -1.4035    1.4639 H   0  0  0  0  0  0  0  0  0  0  0  0
    5.7171   -0.6854   -1.0288 H   0  0  0  0  0  0  0  0  0  0  0  0
    6.4493   -1.1418    0.5048 H   0  0  0  0  0  0  0  0  0  0  0  0
   -1.0512    1.1428    0.5361 H   0  0  0  0  0  0  0  0  0  0  0  0
   -1.8957   -0.3463   -3.5747 H   0  0  0  0  0  0  0  0  0  0  0  0
   -0.2807   -1.1008   -3.4774 H   0  0  0  0  0  0  0  0  0  0  0  0
   -1.6179   -1.6994   -2.4627 H   0  0  0  0  0  0  0  0  0  0  0  0
   -3.6571    2.5078   -0.3262 H   0  0  0  0  0  0  0  0  0  0  0  0
   -3.0859    2.3863    1.3141 H   0  0  0  0  0  0  0  0  0  0  0  0
    5.4736   -3.2422    0.8808 H   0  0  0  0  0  0  0  0  0  0  0  0
    3.9106   -3.5975    0.5990 H   0  0  0  0  0  0  0  0  0  0  0  0
   -1.0895    3.6425   -1.0375 H   0  0  0  0  0  0  0  0  0  0  0  0
   -4.4893    0.5123   -1.5454 H   0  0  0  0  0  0  0  0  0  0  0  0
   -3.1003    0.2447    2.5288 H   0  0  0  0  0  0  0  0  0  0  0  0
    6.6028    2.4146    0.6079 H   0  0  0  0  0  0  0  0  0  0  0  0
    7.3395    1.0711   -0.1909 H   0  0  0  0  0  0  0  0  0  0  0  0
   -5.5635   -1.6901   -1.3210 H   0  0  0  0  0  0  0  0  0  0  0  0
   -4.1824   -1.9518    2.7513 H   0  0  0  0  0  0  0  0  0  0  0  0
   -0.5510    5.6480    0.1572 H   0  0  0  0  0  0  0  0  0  0  0  0
    0.6071    5.4712    1.4939 H   0  0  0  0  0  0  0  0  0  0  0  0
    1.0492    4.9118   -0.1398 H   0  0  0  0  0  0  0  0  0  0  0  0
   -5.3869   -3.5217    1.7487 H   0  0  0  0  0  0  0  0  0  0  0  0
  1 16  2  0  0  0  0
  2 17  2  0  0  0  0
  3 20  2  0  0  0  0
  4 24  2  0  0  0  0
  5 26  2  0  0  0  0
  6 32  1  0  0  0  0
  6 61  1  0  0  0  0
  7 12  1  0  0  0  0
  7 15  1  0  0  0  0
  7 17  1  0  0  0  0
  8 16  1  0  0  0  0
  8 20  1  0  0  0  0
  8 22  1  0  0  0  0
  9 18  1  0  0  0  0
  9 49  1  0  0  0  0
  9 50  1  0  0  0  0
 10 21  1  0  0  0  0
 10 26  1  0  0  0  0
 10 51  1  0  0  0  0
 11 24  1  0  0  0  0
 11 54  1  0  0  0  0
 11 55  1  0  0  0  0
 12 13  1  0  0  0  0
 12 16  1  0  0  0  0
 12 33  1  0  0  0  0
 13 14  1  0  0  0  0
 13 34  1  0  0  0  0
 13 35  1  0  0  0  0
 14 15  1  0  0  0  0
 14 36  1  0  0  0  0
 14 37  1  0  0  0  0
 15 38  1  0  0  0  0
 15 39  1  0  0  0  0
 17 18  1  0  0  0  0
 18 19  1  0  0  0  0
 18 40  1  0  0  0  0
 19 24  1  0  0  0  0
 19 41  1  0  0  0  0
 19 42  1  0  0  0  0
 20 21  1  0  0  0  0
 21 23  1  0  0  0  0
 21 43  1  0  0  0  0
 22 44  1  0  0  0  0
 22 45  1  0  0  0  0
 22 46  1  0  0  0  0
 23 25  1  0  0  0  0
 23 47  1  0  0  0  0
 23 48  1  0  0  0  0
 25 27  2  0  0  0  0
 25 28  1  0  0  0  0
 26 31  1  0  0  0  0
 27 29  1  0  0  0  0
 27 52  1  0  0  0  0
 28 30  2  0  0  0  0
 28 53  1  0  0  0  0
 29 32  2  0  0  0  0
 29 56  1  0  0  0  0
 30 32  1  0  0  0  0
 30 57  1  0  0  0  0
 31 58  1  0  0  0  0
 31 59  1  0  0  0  0
 31 60  1  0  0  0  0
M  END
> <PUBCHEM_COMPOUND_CID>
134114

> <PUBCHEM_CONFORMER_RMSD>
1.2

> <PUBCHEM_CONFORMER_DIVERSEORDER>
1
42
95
69
94
26
77
61
15
60
20
39
63
58
85
9
98
8
43
74
59
52
56
67
2
38
100
44
5
90
33
31
78
10
50
28
72
76
12
88
62
19
32
25
86
82
47
54
55
21
4
48
68
45
57
34
64
83
46
65
73
23
36
75
87
49
51
99
92
84
53
79
66
3
71
29
27
40
70
18
17
91
101
37
97
13
93
89
35
30
22
16
14
7
80
24
81
96
6
11
41

> <PUBCHEM_MMFF94_PARTIAL_CHARGES>
40
1 -0.57
10 -0.73
11 -0.8
12 0.36
15 0.3
16 0.57
17 0.57
18 0.33
19 0.06
2 -0.57
20 0.57
21 0.36
22 0.3
23 0.14
24 0.57
25 -0.14
26 0.57
27 -0.15
28 -0.15
29 -0.15
3 -0.57
30 -0.15
31 0.06
32 0.08
4 -0.57
49 0.36
5 -0.57
50 0.36
51 0.37
52 0.15
53 0.15
54 0.37
55 0.37
56 0.15
57 0.15
6 -0.53
61 0.45
7 -0.66
8 -0.42
9 -0.99

> <PUBCHEM_EFFECTIVE_ROTOR_COUNT>
13

> <PUBCHEM_PHARMACOPHORE_FEATURES>
12
1 1 acceptor
1 10 donor
1 11 donor
1 2 acceptor
1 3 acceptor
1 4 acceptor
1 5 acceptor
1 6 donor
1 9 cation
1 9 donor
5 7 12 13 14 15 rings
6 25 27 28 29 30 32 rings

> <PUBCHEM_HEAVY_ATOM_COUNT>
32

> <PUBCHEM_ATOM_DEF_STEREO_COUNT>
3

> <PUBCHEM_ATOM_UDEF_STEREO_COUNT>
0

> <PUBCHEM_BOND_DEF_STEREO_COUNT>
0

> <PUBCHEM_BOND_UDEF_STEREO_COUNT>
0

> <PUBCHEM_ISOTOPIC_ATOM_COUNT>
0

> <PUBCHEM_COMPONENT_COUNT>
1

> <PUBCHEM_CACTVS_TAUTO_COUNT>
8

> <PUBCHEM_CONFORMER_ID>
00020BE200000001

> <PUBCHEM_MMFF94_ENERGY>
86.2988

> <PUBCHEM_FEATURE_SELFOVERLAP>
60.899

> <PUBCHEM_SHAPE_FINGERPRINT>
10906281 52 17771909329650624549
11552529 35 18117839889351259419
13383668 40 18263646329186518595
14081887 123 18192434073925432091
14787075 74 18408603673478985788
14950920 106 18191299373868249706
15183329 4 10087644784208991158
17349148 13 16081383916095871822
17980427 23 17846513555831779995
20511986 3 17459177505004120275
23559900 14 18336537305477396185
392239 28 18337114466870607720
4394409 98 9439133091268399840
469060 322 17530686489461974828
6669772 16 17763750184024475321
6913067 236 16805600365444968750

> <PUBCHEM_SHAPE_MULTIPOLES>
598.42
11.74
4.48
1.95
8.95
5.06
-0.93
-6.18
3.27
-0.66
1.77
-1.23
0.04
1.23

> <PUBCHEM_SHAPE_SELFOVERLAP>
1244.553

> <PUBCHEM_SHAPE_VOLUME>
339.3

> <PUBCHEM_COORDINATE_TYPE>
2
5
10

$$$$
