134196
  -OEChem-03292013323D

 43 45  0     1  0  0  0  0  0999 V2000
   -5.9882   -0.4087   -0.1033 O   0  0  0  0  0  0  0  0  0  0  0  0
   -4.7895    1.5273    0.1097 O   0  0  0  0  0  0  0  0  0  0  0  0
    0.8234   -2.0375   -0.2614 N   0  0  0  0  0  0  0  0  0  0  0  0
    1.6518    0.6455   -0.0525 N   0  0  0  0  0  0  0  0  0  0  0  0
   -2.0085    1.0342    0.0583 N   0  0  0  0  0  0  0  0  0  0  0  0
   -3.7449   -0.5589   -0.1178 N   0  0  0  0  0  0  0  0  0  0  0  0
   -0.2599    2.6251    0.2050 N   0  0  0  0  0  0  0  0  0  0  0  0
    2.2011   -1.7742    0.1242 C   0  0  1  0  0  0  0  0  0  0  0  0
    2.5573   -0.2887   -0.0242 C   0  0  0  0  0  0  0  0  0  0  0  0
   -0.1197   -1.0325   -0.1541 C   0  0  0  0  0  0  0  0  0  0  0  0
    0.2973    0.2926   -0.0252 C   0  0  0  0  0  0  0  0  0  0  0  0
    2.4198   -2.2261    1.5658 C   0  0  0  0  0  0  0  0  0  0  0  0
    3.9730    0.0671   -0.0933 C   0  0  0  0  0  0  0  0  0  0  0  0
   -1.4864   -1.3107   -0.1975 C   0  0  0  0  0  0  0  0  0  0  0  0
   -0.6792    1.2762    0.0775 C   0  0  0  0  0  0  0  0  0  0  0  0
   -2.3785   -0.2561   -0.0828 C   0  0  0  0  0  0  0  0  0  0  0  0
    4.8848   -0.8310   -0.6387 C   0  0  0  0  0  0  0  0  0  0  0  0
    4.3985    1.3015    0.3872 C   0  0  0  0  0  0  0  0  0  0  0  0
    6.2362   -0.4915   -0.7043 C   0  0  0  0  0  0  0  0  0  0  0  0
    5.7498    1.6412    0.3215 C   0  0  0  0  0  0  0  0  0  0  0  0
    6.6686    0.7446   -0.2242 C   0  0  0  0  0  0  0  0  0  0  0  0
   -4.8252    0.3102   -0.0238 C   0  0  0  0  0  0  0  0  0  0  0  0
   -7.2018    0.3476   -0.0209 C   0  0  0  0  0  0  0  0  0  0  0  0
   -8.3798   -0.5974   -0.1253 C   0  0  0  0  0  0  0  0  0  0  0  0
    2.8072   -2.3979   -0.5326 H   0  0  0  0  0  0  0  0  0  0  0  0
    0.5105   -2.9986   -0.3354 H   0  0  0  0  0  0  0  0  0  0  0  0
    3.4685   -2.1187    1.8615 H   0  0  0  0  0  0  0  0  0  0  0  0
    1.8183   -1.6346    2.2658 H   0  0  0  0  0  0  0  0  0  0  0  0
    2.1385   -3.2772    1.6932 H   0  0  0  0  0  0  0  0  0  0  0  0
   -1.8342   -2.3340   -0.3095 H   0  0  0  0  0  0  0  0  0  0  0  0
    4.6037   -1.7898   -1.0569 H   0  0  0  0  0  0  0  0  0  0  0  0
    3.7029    2.0133    0.8235 H   0  0  0  0  0  0  0  0  0  0  0  0
    6.9513   -1.1858   -1.1359 H   0  0  0  0  0  0  0  0  0  0  0  0
    6.0871    2.6030    0.6966 H   0  0  0  0  0  0  0  0  0  0  0  0
   -3.9821   -1.5423   -0.2257 H   0  0  0  0  0  0  0  0  0  0  0  0
    0.6402    2.8084    0.6312 H   0  0  0  0  0  0  0  0  0  0  0  0
   -0.9847    3.3272    0.2868 H   0  0  0  0  0  0  0  0  0  0  0  0
    7.7205    1.0097   -0.2766 H   0  0  0  0  0  0  0  0  0  0  0  0
   -7.2366    0.8781    0.9372 H   0  0  0  0  0  0  0  0  0  0  0  0
   -7.2357    1.0733   -0.8411 H   0  0  0  0  0  0  0  0  0  0  0  0
   -9.3256   -0.0515   -0.0659 H   0  0  0  0  0  0  0  0  0  0  0  0
   -8.3487   -1.1492   -1.0706 H   0  0  0  0  0  0  0  0  0  0  0  0
   -8.3496   -1.3410    0.6780 H   0  0  0  0  0  0  0  0  0  0  0  0
  1 22  1  0  0  0  0
  1 23  1  0  0  0  0
  2 22  2  0  0  0  0
  3  8  1  0  0  0  0
  3 10  1  0  0  0  0
  3 26  1  0  0  0  0
  4  9  2  0  0  0  0
  4 11  1  0  0  0  0
  5 15  1  0  0  0  0
  5 16  2  0  0  0  0
  6 16  1  0  0  0  0
  6 22  1  0  0  0  0
  6 35  1  0  0  0  0
  7 15  1  0  0  0  0
  7 36  1  0  0  0  0
  7 37  1  0  0  0  0
  8  9  1  0  0  0  0
  8 12  1  0  0  0  0
  8 25  1  0  0  0  0
  9 13  1  0  0  0  0
 10 11  1  0  0  0  0
 10 14  2  0  0  0  0
 11 15  2  0  0  0  0
 12 27  1  0  0  0  0
 12 28  1  0  0  0  0
 12 29  1  0  0  0  0
 13 17  2  0  0  0  0
 13 18  1  0  0  0  0
 14 16  1  0  0  0  0
 14 30  1  0  0  0  0
 17 19  1  0  0  0  0
 17 31  1  0  0  0  0
 18 20  2  0  0  0  0
 18 32  1  0  0  0  0
 19 21  2  0  0  0  0
 19 33  1  0  0  0  0
 20 21  1  0  0  0  0
 20 34  1  0  0  0  0
 21 38  1  0  0  0  0
 23 24  1  0  0  0  0
 23 39  1  0  0  0  0
 23 40  1  0  0  0  0
 24 41  1  0  0  0  0
 24 42  1  0  0  0  0
 24 43  1  0  0  0  0
M  END
> <PUBCHEM_COMPOUND_CID>
134196

> <PUBCHEM_CONFORMER_RMSD>
0.8

> <PUBCHEM_CONFORMER_DIVERSEORDER>
3
4
13
2
16
17
8
5
10
15
12
9
6
1
11
14
7

> <PUBCHEM_MMFF94_PARTIAL_CHARGES>
32
1 -0.43
10 0.1
11 0.18
13 0.09
14 -0.15
15 0.41
16 0.43
17 -0.15
18 -0.15
19 -0.15
2 -0.57
20 -0.15
21 -0.15
22 0.78
23 0.28
26 0.4
3 -0.87
30 0.15
31 0.15
32 0.15
33 0.15
34 0.15
35 0.37
36 0.4
37 0.4
38 0.15
4 -0.63
5 -0.62
6 -0.55
7 -0.9
8 0.43
9 0.3

> <PUBCHEM_EFFECTIVE_ROTOR_COUNT>
5.4

> <PUBCHEM_PHARMACOPHORE_FEATURES>
10
1 2 acceptor
1 3 cation
1 3 donor
1 4 acceptor
1 6 donor
1 7 cation
1 7 donor
6 13 17 18 19 20 21 rings
6 3 4 8 9 10 11 rings
6 5 10 11 14 15 16 rings

> <PUBCHEM_HEAVY_ATOM_COUNT>
24

> <PUBCHEM_ATOM_DEF_STEREO_COUNT>
0

> <PUBCHEM_ATOM_UDEF_STEREO_COUNT>
1

> <PUBCHEM_BOND_DEF_STEREO_COUNT>
0

> <PUBCHEM_BOND_UDEF_STEREO_COUNT>
0

> <PUBCHEM_ISOTOPIC_ATOM_COUNT>
0

> <PUBCHEM_COMPONENT_COUNT>
1

> <PUBCHEM_CACTVS_TAUTO_COUNT>
54

> <PUBCHEM_CONFORMER_ID>
00020C3400000003

> <PUBCHEM_MMFF94_ENERGY>
80.3279

> <PUBCHEM_FEATURE_SELFOVERLAP>
50.777

> <PUBCHEM_SHAPE_FINGERPRINT>
10 15 18040433334637301840
10050765 1 18123754145427712949
10411042 1 17979073778960301510
11578080 2 17097481000062775038
12236239 1 17917994971258551137
12516196 113 18272088301385142017
12838862 33 18338780291100194717
13073987 5 18114179675851631625
13533116 47 17677326113655212714
13899415 154 17775566450899120449
14123256 10 18408323285387457503
14170010 4 18409166640702336917
14251764 18 18412263931051314985
14251764 46 18410011043793245692
14790565 3 18413394232630288120
15196674 1 18339360760219636348
15840311 113 18336266833315530309
15849732 13 18343302587331901165
18681886 176 17917422172850363123
20771845 171 16443072664996311314
21049683 271 18336549404100075925
21150785 3 17703790332091038911
21267235 1 18341619195789449047
21315763 28 18341895168886757629
21521721 280 18202285839617366192
21792934 111 18339347583444868344
221357 26 18202568359162887196
22224240 67 17676486176475138211
23402539 116 18201434813734015374
23559900 14 17917703660274230008
249057 3 10519981565676857473
335352 9 18411983593449718780
34797466 226 17203615899725120004
34934 24 18410852183126611438
3545911 37 18334576836698653495
4073 2 18187088402852311155
4325135 7 18333450941482215935
4340502 62 17022619775569652818
4463277 17 18413389834794331813
5104073 3 18188493446021855425
5486654 2 18408889550908074598
59755656 215 18411144602392025814
59755656 520 17749385997111435362

> <PUBCHEM_SHAPE_MULTIPOLES>
457.27
18.78
1.97
0.77
24.31
0.02
-0.14
2.65
1.79
-1.28
-0.41
-0.58
-0.26
-0.07

> <PUBCHEM_SHAPE_SELFOVERLAP>
985.157

> <PUBCHEM_SHAPE_VOLUME>
249.4

> <PUBCHEM_COORDINATE_TYPE>
2
5
10

$$$$
