13424663
  -OEChem-03292013303D

 49 53  0     1  0  0  0  0  0999 V2000
    4.3996   -0.9896   -0.7919 O   0  0  0  0  0  0  0  0  0  0  0  0
    4.2466    2.0863    1.0619 O   0  0  0  0  0  0  0  0  0  0  0  0
    6.4375    1.2237   -0.2952 O   0  0  0  0  0  0  0  0  0  0  0  0
    5.4872   -3.4192    0.0893 O   0  0  0  0  0  0  0  0  0  0  0  0
    2.2886   -0.0659   -0.2255 N   0  0  0  0  0  0  0  0  0  0  0  0
   -2.3195    0.0706   -0.0384 N   0  0  0  0  0  0  0  0  0  0  0  0
    0.4288   -1.1955    0.2595 N   0  0  0  0  0  0  0  0  0  0  0  0
    1.3214    2.0538   -0.9126 N   0  0  0  0  0  0  0  0  0  0  0  0
   -1.1144    2.0036   -0.7722 N   0  0  0  0  0  0  0  0  0  0  0  0
    3.7130    0.2126   -0.3936 C   0  0  1  0  0  0  0  0  0  0  0  0
    4.4040    0.6948    0.8729 C   0  0  1  0  0  0  0  0  0  0  0  0
    5.8403    0.2906    0.6053 C   0  0  1  0  0  0  0  0  0  0  0  0
    5.6740   -1.0462   -0.1103 C   0  0  1  0  0  0  0  0  0  0  0  0
   -3.6147    0.6846   -0.1859 C   0  0  2  0  0  0  0  0  0  0  0  0
   -3.9633    1.5223    1.0593 C   0  0  0  0  0  0  0  0  0  0  0  0
    5.6557   -2.2320    0.8441 C   0  0  0  0  0  0  0  0  0  0  0  0
   -5.4911    1.4815    1.2027 C   0  0  0  0  0  0  0  0  0  0  0  0
   -4.7395   -0.3104   -0.1880 C   0  0  0  0  0  0  0  0  0  0  0  0
   -5.8027    0.1471    0.6021 C   0  0  0  0  0  0  0  0  0  0  0  0
    1.2520    0.7893   -0.4701 C   0  0  0  0  0  0  0  0  0  0  0  0
    0.1081    0.0702   -0.1628 C   0  0  0  0  0  0  0  0  0  0  0  0
    1.7437   -1.2447    0.2100 C   0  0  0  0  0  0  0  0  0  0  0  0
   -1.1261    0.7145   -0.3239 C   0  0  0  0  0  0  0  0  0  0  0  0
   -4.8417   -1.5040   -0.8865 C   0  0  0  0  0  0  0  0  0  0  0  0
   -6.9769   -0.5789    0.7173 C   0  0  0  0  0  0  0  0  0  0  0  0
   -6.0171   -2.2493   -0.7658 C   0  0  0  0  0  0  0  0  0  0  0  0
   -7.0767   -1.7906    0.0314 C   0  0  0  0  0  0  0  0  0  0  0  0
    0.0834    2.5807   -1.0331 C   0  0  0  0  0  0  0  0  0  0  0  0
    3.8013    0.9363   -1.2132 H   0  0  0  0  0  0  0  0  0  0  0  0
    4.0171    0.1719    1.7558 H   0  0  0  0  0  0  0  0  0  0  0  0
    6.4570    0.2541    1.5078 H   0  0  0  0  0  0  0  0  0  0  0  0
    6.4353   -1.2023   -0.8830 H   0  0  0  0  0  0  0  0  0  0  0  0
   -3.6868    1.2853   -1.1016 H   0  0  0  0  0  0  0  0  0  0  0  0
   -3.5859    2.5481    0.9888 H   0  0  0  0  0  0  0  0  0  0  0  0
   -3.5095    1.0812    1.9590 H   0  0  0  0  0  0  0  0  0  0  0  0
    4.8214   -2.1665    1.5494 H   0  0  0  0  0  0  0  0  0  0  0  0
    6.5953   -2.2998    1.4010 H   0  0  0  0  0  0  0  0  0  0  0  0
   -5.9651    2.2775    0.6195 H   0  0  0  0  0  0  0  0  0  0  0  0
   -5.7956    1.5512    2.2507 H   0  0  0  0  0  0  0  0  0  0  0  0
   -2.2613   -0.8674    0.3437 H   0  0  0  0  0  0  0  0  0  0  0  0
    2.3450   -2.1016    0.4816 H   0  0  0  0  0  0  0  0  0  0  0  0
    4.8059    2.3427    1.8148 H   0  0  0  0  0  0  0  0  0  0  0  0
    7.3390    0.9103   -0.4815 H   0  0  0  0  0  0  0  0  0  0  0  0
   -4.0324   -1.8573   -1.5168 H   0  0  0  0  0  0  0  0  0  0  0  0
   -7.8028   -0.2182    1.3211 H   0  0  0  0  0  0  0  0  0  0  0  0
    5.4809   -4.1605    0.7185 H   0  0  0  0  0  0  0  0  0  0  0  0
   -6.1159   -3.1903   -1.3002 H   0  0  0  0  0  0  0  0  0  0  0  0
   -7.9860   -2.3807    0.1076 H   0  0  0  0  0  0  0  0  0  0  0  0
    0.0412    3.6053   -1.3865 H   0  0  0  0  0  0  0  0  0  0  0  0
  1 10  1  0  0  0  0
  1 13  1  0  0  0  0
  2 11  1  0  0  0  0
  2 42  1  0  0  0  0
  3 12  1  0  0  0  0
  3 43  1  0  0  0  0
  4 16  1  0  0  0  0
  4 46  1  0  0  0  0
  5 10  1  0  0  0  0
  5 20  1  0  0  0  0
  5 22  1  0  0  0  0
  6 14  1  0  0  0  0
  6 23  1  0  0  0  0
  6 40  1  0  0  0  0
  7 21  1  0  0  0  0
  7 22  2  0  0  0  0
  8 20  2  0  0  0  0
  8 28  1  0  0  0  0
  9 23  1  0  0  0  0
  9 28  2  0  0  0  0
 10 11  1  0  0  0  0
 10 29  1  0  0  0  0
 11 12  1  0  0  0  0
 11 30  1  0  0  0  0
 12 13  1  0  0  0  0
 12 31  1  0  0  0  0
 13 16  1  0  0  0  0
 13 32  1  0  0  0  0
 14 15  1  0  0  0  0
 14 18  1  0  0  0  0
 14 33  1  0  0  0  0
 15 17  1  0  0  0  0
 15 34  1  0  0  0  0
 15 35  1  0  0  0  0
 16 36  1  0  0  0  0
 16 37  1  0  0  0  0
 17 19  1  0  0  0  0
 17 38  1  0  0  0  0
 17 39  1  0  0  0  0
 18 19  1  0  0  0  0
 18 24  2  0  0  0  0
 19 25  2  0  0  0  0
 20 21  1  0  0  0  0
 21 23  2  0  0  0  0
 22 41  1  0  0  0  0
 24 26  1  0  0  0  0
 24 44  1  0  0  0  0
 25 27  1  0  0  0  0
 25 45  1  0  0  0  0
 26 27  2  0  0  0  0
 26 47  1  0  0  0  0
 27 48  1  0  0  0  0
 28 49  1  0  0  0  0
M  END
> <PUBCHEM_COMPOUND_CID>
13424663

> <PUBCHEM_CONFORMER_RMSD>
0.8

> <PUBCHEM_CONFORMER_DIVERSEORDER>
1
127
157
108
29
146
78
126
65
153
51
24
154
149
69
148
2
105
136
142
86
8
130
74
70
121
15
117
79
68
102
58
75
104
128
9
137
3
106
81
89
59
64
113
19
22
141
132
71
90
135
156
134
66
101
35
96
11
143
88
26
139
41
28
131
123
77
10
150
124
43
72
53
14
162
16
129
18
100
12
111
110
23
48
144
147
133
7
45
125
94
97
160
82
56
47
34
158
36
138
54
140
20
63
4
99
161
33
115
103
57
119
6
85
73
93
30
159
32
17
62
122
98
50
76
120
107
95
37
39
55
116
91
31
84
21
42
118
80
40
87
13
67
112
46
49
155
83
61
25
38
114
52
92
60
27
145
5
152
109
44
151

> <PUBCHEM_MMFF94_PARTIAL_CHARGES>
37
1 -0.56
10 0.54
11 0.28
12 0.28
13 0.28
14 0.51
16 0.28
17 0.14
18 -0.14
19 -0.14
2 -0.68
20 0.11
21 0.23
22 0.04
23 0.41
24 -0.15
25 -0.15
26 -0.15
27 -0.15
28 0.47
3 -0.68
4 -0.68
40 0.4
41 0.15
42 0.4
43 0.4
44 0.15
45 0.15
46 0.4
47 0.15
48 0.15
49 0.15
5 0.05
6 -0.87
7 -0.57
8 -0.57
9 -0.62

> <PUBCHEM_EFFECTIVE_ROTOR_COUNT>
5.6

> <PUBCHEM_PHARMACOPHORE_FEATURES>
17
1 1 acceptor
1 2 acceptor
1 2 donor
1 3 acceptor
1 3 donor
1 4 acceptor
1 4 donor
1 6 cation
1 6 donor
3 5 7 22 cation
3 5 8 20 cation
3 8 9 28 cation
5 1 10 11 12 13 rings
5 14 15 17 18 19 rings
5 5 7 20 21 22 rings
6 18 19 24 25 26 27 rings
6 8 9 20 21 23 28 rings

> <PUBCHEM_HEAVY_ATOM_COUNT>
28

> <PUBCHEM_ATOM_DEF_STEREO_COUNT>
5

> <PUBCHEM_ATOM_UDEF_STEREO_COUNT>
0

> <PUBCHEM_BOND_DEF_STEREO_COUNT>
0

> <PUBCHEM_BOND_UDEF_STEREO_COUNT>
0

> <PUBCHEM_ISOTOPIC_ATOM_COUNT>
0

> <PUBCHEM_COMPONENT_COUNT>
1

> <PUBCHEM_CACTVS_TAUTO_COUNT>
3

> <PUBCHEM_CONFORMER_ID>
00CCD81700000001

> <PUBCHEM_MMFF94_ENERGY>
74.1333

> <PUBCHEM_FEATURE_SELFOVERLAP>
86.977

> <PUBCHEM_SHAPE_FINGERPRINT>
10 15 16988841700321950233
10299344 5 18413111662431213414
10319926 262 17775277245244774393
11135609 127 10881694537396625182
11315181 36 18341615936922231657
11963148 33 18334288751879122482
11991303 11 14996580511426171347
12166972 35 18412829113697335681
12236239 1 18342178869215716297
12422481 6 17775002349778770446
12516196 113 18407761443129747885
12596602 18 18202566176770829833
12623949 98 18272095938090462478
13533116 47 18411135819178494218
13668630 136 17385445436366762771
13782708 43 18341328899177057962
13862211 1 18259703384813077578
14251764 18 18410854387014150352
14849402 71 18199189670677573216
14933364 13 17918278661879438433
15716309 27 18411700985134534443
16110190 28 18272087159024432095
17492 89 18045775690239218514
18222031 100 17603585227222986404
18335252 98 18334858325224819726
20028762 73 18411982472485054903
20715895 44 10015576221362555486
21130935 74 18412546483284667083
21267235 1 18335425663985906327
23081809 10 18408329877724543389
23522609 53 18120124768934954452
23559900 14 18269264820482279409
23569943 247 18044936770687423930
24771293 8 18337391638596867564
2838139 119 10807940357565364285
312425 54 18272371949309012001
32027 91 17555186752809492903
3383291 50 18115592685838747635
34797466 226 16916796227003965748
3663271 9 18202003217847464328
397830 11 16271349937351169779
4073 2 18336267963234787810
4340502 62 16271930406723683254
50009960 94 17098878466790164586
5104073 3 18131347492560886000
559249 180 18410576172450289317
67856867 119 18269275832583630449
9831232 110 18056768637527002254
9996256 80 18413107242809554682

> <PUBCHEM_SHAPE_MULTIPOLES>
527.84
19.99
2.64
1.01
5.1
0.71
0.08
9.73
3.76
-1.29
-0.2
0.32
-0.26
-1.26

> <PUBCHEM_SHAPE_SELFOVERLAP>
1168.352

> <PUBCHEM_SHAPE_VOLUME>
282.3

> <PUBCHEM_COORDINATE_TYPE>
2
5
10

$$$$
