134289
  -OEChem-03292013323D

 47 48  0     1  0  0  0  0  0999 V2000
   -1.8825    3.7081    1.2127 O   0  0  0  0  0  0  0  0  0  0  0  0
    1.0986    0.8590   -2.2435 O   0  0  0  0  0  0  0  0  0  0  0  0
    5.4038   -2.7233   -0.4389 O   0  0  0  0  0  0  0  0  0  0  0  0
    0.1998    2.9078    0.5593 N   0  0  0  0  0  0  0  0  0  0  0  0
   -0.9014    1.7982   -1.6434 N   0  0  0  0  0  0  0  0  0  0  0  0
   -3.0186   -1.9829    0.0709 N   0  0  0  0  0  0  0  0  0  0  0  0
   -2.6539   -3.9881    1.1748 N   0  0  0  0  0  0  0  0  0  0  0  0
   -4.7906   -3.5417    0.5188 N   0  0  0  0  0  0  0  0  0  0  0  0
    0.9402    1.7935   -0.0362 C   0  0  1  0  0  0  0  0  0  0  0  0
   -1.8404    2.1575   -0.6023 C   0  0  1  0  0  0  0  0  0  0  0  0
   -2.5673    0.9520   -0.0285 C   0  0  0  0  0  0  0  0  0  0  0  0
   -1.1862    3.0164    0.4667 C   0  0  0  0  0  0  0  0  0  0  0  0
    1.0139    0.5711    0.8689 C   0  0  0  0  0  0  0  0  0  0  0  0
    0.4105    1.4577   -1.4168 C   0  0  0  0  0  0  0  0  0  0  0  0
   -3.2510    0.1362   -1.1282 C   0  0  0  0  0  0  0  0  0  0  0  0
    0.9231    3.7508    1.5029 C   0  0  0  0  0  0  0  0  0  0  0  0
    2.1839   -0.3074    0.5202 C   0  0  0  0  0  0  0  0  0  0  0  0
   -3.9763   -1.0878   -0.5805 C   0  0  0  0  0  0  0  0  0  0  0  0
    2.0243   -1.3224   -0.4138 C   0  0  0  0  0  0  0  0  0  0  0  0
    3.4092   -0.0914    1.1365 C   0  0  0  0  0  0  0  0  0  0  0  0
    3.1099   -2.1367   -0.7371 C   0  0  0  0  0  0  0  0  0  0  0  0
    4.4948   -0.9053    0.8131 C   0  0  0  0  0  0  0  0  0  0  0  0
    4.3451   -1.9281   -0.1235 C   0  0  0  0  0  0  0  0  0  0  0  0
   -3.4888   -3.0932    0.5480 C   0  0  0  0  0  0  0  0  0  0  0  0
    1.9520    2.1852   -0.2154 H   0  0  0  0  0  0  0  0  0  0  0  0
   -2.5736    2.8058   -1.1002 H   0  0  0  0  0  0  0  0  0  0  0  0
   -1.8833    0.3177    0.5368 H   0  0  0  0  0  0  0  0  0  0  0  0
   -3.3216    1.2921    0.6928 H   0  0  0  0  0  0  0  0  0  0  0  0
    0.1036   -0.0312    0.8162 H   0  0  0  0  0  0  0  0  0  0  0  0
    1.0995    0.8664    1.9223 H   0  0  0  0  0  0  0  0  0  0  0  0
   -1.2761    1.6094   -2.5683 H   0  0  0  0  0  0  0  0  0  0  0  0
   -3.9704    0.7680   -1.6626 H   0  0  0  0  0  0  0  0  0  0  0  0
   -2.5124   -0.2077   -1.8618 H   0  0  0  0  0  0  0  0  0  0  0  0
    1.8381    4.1181    1.0298 H   0  0  0  0  0  0  0  0  0  0  0  0
    1.1745    3.1635    2.3901 H   0  0  0  0  0  0  0  0  0  0  0  0
    0.3168    4.6079    1.8088 H   0  0  0  0  0  0  0  0  0  0  0  0
   -4.7448   -0.7641    0.1320 H   0  0  0  0  0  0  0  0  0  0  0  0
   -4.4692   -1.5990   -1.4163 H   0  0  0  0  0  0  0  0  0  0  0  0
    1.0645   -1.5053   -0.8888 H   0  0  0  0  0  0  0  0  0  0  0  0
    3.5368    0.7039    1.8655 H   0  0  0  0  0  0  0  0  0  0  0  0
    2.9862   -2.9336   -1.4652 H   0  0  0  0  0  0  0  0  0  0  0  0
    5.4520   -0.7321    1.2976 H   0  0  0  0  0  0  0  0  0  0  0  0
    6.1766   -2.4385    0.0785 H   0  0  0  0  0  0  0  0  0  0  0  0
   -1.6628   -3.7974    1.2751 H   0  0  0  0  0  0  0  0  0  0  0  0
   -3.0018   -4.8613    1.5554 H   0  0  0  0  0  0  0  0  0  0  0  0
   -5.0448   -4.4349    0.9269 H   0  0  0  0  0  0  0  0  0  0  0  0
   -5.5388   -3.0042    0.0959 H   0  0  0  0  0  0  0  0  0  0  0  0
  1 12  2  0  0  0  0
  2 14  2  0  0  0  0
  3 23  1  0  0  0  0
  3 43  1  0  0  0  0
  4  9  1  0  0  0  0
  4 12  1  0  0  0  0
  4 16  1  0  0  0  0
  5 10  1  0  0  0  0
  5 14  1  0  0  0  0
  5 31  1  0  0  0  0
  6 18  1  0  0  0  0
  6 24  2  0  0  0  0
  7 24  1  0  0  0  0
  7 44  1  0  0  0  0
  7 45  1  0  0  0  0
  8 24  1  0  0  0  0
  8 46  1  0  0  0  0
  8 47  1  0  0  0  0
  9 13  1  0  0  0  0
  9 14  1  0  0  0  0
  9 25  1  0  0  0  0
 10 11  1  0  0  0  0
 10 12  1  0  0  0  0
 10 26  1  0  0  0  0
 11 15  1  0  0  0  0
 11 27  1  0  0  0  0
 11 28  1  0  0  0  0
 13 17  1  0  0  0  0
 13 29  1  0  0  0  0
 13 30  1  0  0  0  0
 15 18  1  0  0  0  0
 15 32  1  0  0  0  0
 15 33  1  0  0  0  0
 16 34  1  0  0  0  0
 16 35  1  0  0  0  0
 16 36  1  0  0  0  0
 17 19  2  0  0  0  0
 17 20  1  0  0  0  0
 18 37  1  0  0  0  0
 18 38  1  0  0  0  0
 19 21  1  0  0  0  0
 19 39  1  0  0  0  0
 20 22  2  0  0  0  0
 20 40  1  0  0  0  0
 21 23  2  0  0  0  0
 21 41  1  0  0  0  0
 22 23  1  0  0  0  0
 22 42  1  0  0  0  0
M  END
> <PUBCHEM_COMPOUND_CID>
134289

> <PUBCHEM_CONFORMER_RMSD>
0.8

> <PUBCHEM_CONFORMER_DIVERSEORDER>
1
60
26
38
68
79
59
14
85
52
56
24
67
72
64
12
81
5
55
48
8
75
69
50
53
86
31
4
17
88
36
44
74
30
58
82
65
22
37
29
78
62
70
84
7
28
90
9
63
40
57
35
83
87
43
45
16
41
32
73
13
80
15
51
54
6
11
91
77
2
76
19
39
18
46
27
71
20
3
89
34
21
23
66
25
47
33
61
42
49
10

> <PUBCHEM_MMFF94_PARTIAL_CHARGES>
32
1 -0.57
10 0.36
12 0.57
13 0.14
14 0.57
16 0.3
17 -0.14
18 0.25
19 -0.15
2 -0.57
20 -0.15
21 -0.15
22 -0.15
23 0.08
24 0.55
3 -0.53
31 0.37
39 0.15
4 -0.66
40 0.15
41 0.15
42 0.15
43 0.45
44 0.4
45 0.4
46 0.4
47 0.4
5 -0.73
6 -0.7
7 -0.85
8 -0.85
9 0.36

> <PUBCHEM_EFFECTIVE_ROTOR_COUNT>
6.8

> <PUBCHEM_PHARMACOPHORE_FEATURES>
9
1 1 acceptor
1 2 acceptor
1 3 donor
1 5 donor
1 7 donor
1 8 donor
4 6 7 8 24 cation
6 17 19 20 21 22 23 rings
6 4 5 9 10 12 14 rings

> <PUBCHEM_HEAVY_ATOM_COUNT>
24

> <PUBCHEM_ATOM_DEF_STEREO_COUNT>
2

> <PUBCHEM_ATOM_UDEF_STEREO_COUNT>
0

> <PUBCHEM_BOND_DEF_STEREO_COUNT>
0

> <PUBCHEM_BOND_UDEF_STEREO_COUNT>
0

> <PUBCHEM_ISOTOPIC_ATOM_COUNT>
0

> <PUBCHEM_COMPONENT_COUNT>
1

> <PUBCHEM_CACTVS_TAUTO_COUNT>
8

> <PUBCHEM_CONFORMER_ID>
00020C9100000001

> <PUBCHEM_MMFF94_ENERGY>
77.2465

> <PUBCHEM_FEATURE_SELFOVERLAP>
45.728

> <PUBCHEM_SHAPE_FINGERPRINT>
107951 10 17623568653336501293
114674 6 17901097843840443491
11552529 35 18337953364278283346
12969540 37 18191013698165337128
13533116 47 18050569840362520587
14251757 5 18334858260309966359
14363568 33 17979929520294892658
14863182 85 17613719640523275573
14866123 147 18267868290259084827
15420108 30 17189804079617515386
17909252 39 18192158315576722226
19611394 137 18339906187793382378
1979834 28 17036704799385797995
20775530 9 18261389018086222027
23466295 7 18335710403422962411
23557571 272 18198905816757536814
23559900 14 18269539564823503744
238078 22 18338237051226292620
3421961 26 18195527228005191355
4921388 177 18195245512399308300
5104073 3 17628336205170055106
57091435 65 17979357791296644631
602551 16 18263076618295476094

> <PUBCHEM_SHAPE_MULTIPOLES>
451.4
8.64
5.38
1.44
3.62
0.34
0.38
11.48
-0.5
-4.56
-2.3
0.05
-0.61
1.52

> <PUBCHEM_SHAPE_SELFOVERLAP>
937.852

> <PUBCHEM_SHAPE_VOLUME>
253.7

> <PUBCHEM_COORDINATE_TYPE>
2
5
10

$$$$
