13423142
  -OEChem-03292013303D

 46 48  0     1  0  0  0  0  0999 V2000
    2.8247   -2.5578   -0.0141 S   0  0  0  0  0  0  0  0  0  0  0  0
    0.1369    0.8918   -1.5943 O   0  0  0  0  0  0  0  0  0  0  0  0
   -2.2779   -2.1603   -1.6004 O   0  0  0  0  0  0  0  0  0  0  0  0
    2.8012    2.7794    0.2523 O   0  0  0  0  0  0  0  0  0  0  0  0
    3.3046    2.2023   -1.9027 O   0  0  0  0  0  0  0  0  0  0  0  0
   -5.9303    3.2268    0.4061 O   0  0  0  0  0  0  0  0  0  0  0  0
    1.8427   -0.1089   -0.3080 N   0  0  0  0  0  0  0  0  0  0  0  0
   -1.0333   -1.4743    0.2317 N   0  0  0  0  0  0  0  0  0  0  0  0
   -4.3288   -2.9062    0.0936 N   0  0  0  0  0  0  0  0  0  0  0  0
    1.5469   -1.3469    0.3907 C   0  0  1  0  0  0  0  0  0  0  0  0
    0.2558   -1.4036   -0.4541 C   0  0  2  0  0  0  0  0  0  0  0  0
    0.6425    0.0311   -0.9126 C   0  0  0  0  0  0  0  0  0  0  0  0
    3.0340    0.5407   -0.2246 C   0  0  0  0  0  0  0  0  0  0  0  0
    4.1654   -1.5413    0.6975 C   0  0  0  0  0  0  0  0  0  0  0  0
    4.1335   -0.0730    0.2767 C   0  0  0  0  0  0  0  0  0  0  0  0
   -2.2135   -1.8537   -0.4110 C   0  0  0  0  0  0  0  0  0  0  0  0
    3.0688    1.9174   -0.7473 C   0  0  0  0  0  0  0  0  0  0  0  0
   -3.4275   -1.8285    0.5114 C   0  0  1  0  0  0  0  0  0  0  0  0
    5.4215    0.5697    0.4602 C   0  0  0  0  0  0  0  0  0  0  0  0
   -4.0990   -0.4712    0.4831 C   0  0  0  0  0  0  0  0  0  0  0  0
    6.4818   -0.0641    0.9561 C   0  0  0  0  0  0  0  0  0  0  0  0
   -4.2133    0.2491    1.6584 C   0  0  0  0  0  0  0  0  0  0  0  0
   -4.5831    0.0161   -0.7177 C   0  0  0  0  0  0  0  0  0  0  0  0
    7.8082    0.5941    1.1500 C   0  0  0  0  0  0  0  0  0  0  0  0
   -4.8326    1.4988    1.6321 C   0  0  0  0  0  0  0  0  0  0  0  0
   -5.2023    1.2657   -0.7440 C   0  0  0  0  0  0  0  0  0  0  0  0
   -5.3271    2.0070    0.4309 C   0  0  0  0  0  0  0  0  0  0  0  0
    1.3814   -1.1944    1.4643 H   0  0  0  0  0  0  0  0  0  0  0  0
    0.2981   -2.1151   -1.2903 H   0  0  0  0  0  0  0  0  0  0  0  0
   -1.0890   -1.2251    1.2164 H   0  0  0  0  0  0  0  0  0  0  0  0
    4.1368   -1.6329    1.7889 H   0  0  0  0  0  0  0  0  0  0  0  0
    5.0471   -2.0587    0.3098 H   0  0  0  0  0  0  0  0  0  0  0  0
   -3.0946   -2.0622    1.5306 H   0  0  0  0  0  0  0  0  0  0  0  0
    5.5184    1.6108    0.1660 H   0  0  0  0  0  0  0  0  0  0  0  0
    6.4785   -1.0908    1.3018 H   0  0  0  0  0  0  0  0  0  0  0  0
   -5.1208   -2.9531    0.7341 H   0  0  0  0  0  0  0  0  0  0  0  0
   -3.8494   -3.8023    0.1771 H   0  0  0  0  0  0  0  0  0  0  0  0
    2.8147    3.7122   -0.0508 H   0  0  0  0  0  0  0  0  0  0  0  0
   -3.8318   -0.1361    2.5994 H   0  0  0  0  0  0  0  0  0  0  0  0
   -4.5002   -0.5483   -1.6416 H   0  0  0  0  0  0  0  0  0  0  0  0
    7.8076    1.6395    0.8253 H   0  0  0  0  0  0  0  0  0  0  0  0
    8.5752    0.0617    0.5789 H   0  0  0  0  0  0  0  0  0  0  0  0
    8.0871    0.5671    2.2080 H   0  0  0  0  0  0  0  0  0  0  0  0
   -4.9233    2.0665    2.5543 H   0  0  0  0  0  0  0  0  0  0  0  0
   -5.5864    1.6560   -1.6825 H   0  0  0  0  0  0  0  0  0  0  0  0
   -5.9289    3.5975    1.3054 H   0  0  0  0  0  0  0  0  0  0  0  0
  1 10  1  0  0  0  0
  1 14  1  0  0  0  0
  2 12  2  0  0  0  0
  3 16  2  0  0  0  0
  4 17  1  0  0  0  0
  4 38  1  0  0  0  0
  5 17  2  0  0  0  0
  6 27  1  0  0  0  0
  6 46  1  0  0  0  0
  7 10  1  0  0  0  0
  7 12  1  0  0  0  0
  7 13  1  0  0  0  0
  8 11  1  0  0  0  0
  8 16  1  0  0  0  0
  8 30  1  0  0  0  0
  9 18  1  0  0  0  0
  9 36  1  0  0  0  0
  9 37  1  0  0  0  0
 10 11  1  0  0  0  0
 10 28  1  0  0  0  0
 11 12  1  0  0  0  0
 11 29  1  0  0  0  0
 13 15  2  0  0  0  0
 13 17  1  0  0  0  0
 14 15  1  0  0  0  0
 14 31  1  0  0  0  0
 14 32  1  0  0  0  0
 15 19  1  0  0  0  0
 16 18  1  0  0  0  0
 18 20  1  0  0  0  0
 18 33  1  0  0  0  0
 19 21  2  0  0  0  0
 19 34  1  0  0  0  0
 20 22  2  0  0  0  0
 20 23  1  0  0  0  0
 21 24  1  0  0  0  0
 21 35  1  0  0  0  0
 22 25  1  0  0  0  0
 22 39  1  0  0  0  0
 23 26  2  0  0  0  0
 23 40  1  0  0  0  0
 24 41  1  0  0  0  0
 24 42  1  0  0  0  0
 24 43  1  0  0  0  0
 25 27  2  0  0  0  0
 25 44  1  0  0  0  0
 26 27  1  0  0  0  0
 26 45  1  0  0  0  0
M  END
> <PUBCHEM_COMPOUND_CID>
13423142

> <PUBCHEM_CONFORMER_RMSD>
0.8

> <PUBCHEM_CONFORMER_DIVERSEORDER>
3
19
51
1
31
37
5
42
47
7
50
41
32
25
12
35
45
23
28
55
11
29
52
34
54
9
43
48
10
53
33
49
8
21
4
22
30
17
24
27
39
13
46
15
40
36
16
44
38
26
2
14
18
20
6

> <PUBCHEM_MMFF94_PARTIAL_CHARGES>
38
1 -0.45
10 0.44
11 0.28
12 0.58
13 0.12
14 0.37
15 -0.14
16 0.57
17 0.71
18 0.47
19 -0.15
2 -0.57
20 -0.14
21 -0.29
22 -0.15
23 -0.15
24 0.14
25 -0.15
26 -0.15
27 0.08
3 -0.57
30 0.37
34 0.15
35 0.15
36 0.36
37 0.36
38 0.5
39 0.15
4 -0.65
40 0.15
44 0.15
45 0.15
46 0.45
5 -0.57
6 -0.53
7 -0.39
8 -0.65
9 -0.99

> <PUBCHEM_EFFECTIVE_ROTOR_COUNT>
6.6

> <PUBCHEM_PHARMACOPHORE_FEATURES>
13
1 2 acceptor
1 24 hydrophobe
1 3 acceptor
1 4 acceptor
1 5 acceptor
1 6 donor
1 8 donor
1 9 cation
1 9 donor
3 4 5 17 anion
4 7 10 11 12 rings
6 1 7 10 13 14 15 rings
6 20 22 23 25 26 27 rings

> <PUBCHEM_HEAVY_ATOM_COUNT>
27

> <PUBCHEM_ATOM_DEF_STEREO_COUNT>
2

> <PUBCHEM_ATOM_UDEF_STEREO_COUNT>
1

> <PUBCHEM_BOND_DEF_STEREO_COUNT>
1

> <PUBCHEM_BOND_UDEF_STEREO_COUNT>
0

> <PUBCHEM_ISOTOPIC_ATOM_COUNT>
0

> <PUBCHEM_COMPONENT_COUNT>
1

> <PUBCHEM_CACTVS_TAUTO_COUNT>
4

> <PUBCHEM_CONFORMER_ID>
00CCD22600000003

> <PUBCHEM_MMFF94_ENERGY>
78.371

> <PUBCHEM_FEATURE_SELFOVERLAP>
66.285

> <PUBCHEM_SHAPE_FINGERPRINT>
105312 117 17131837573129671855
10906281 52 18041288746668757270
11089746 13 18272643575778123460
11370993 144 18260551074387872535
12107183 9 18192427476713858027
12403259 118 18410292553235488547
12422481 6 18113894949110034980
13583140 156 17489300931954287059
13782708 43 13479399566824020672
14466204 15 18413388752420375520
14739800 52 17839742904835963648
14767858 380 11095880501908658674
14790565 3 17755597275488023020
14849402 71 18119248604945363540
14950920 106 17095535019190396857
15021287 119 17821726165299766844
15142383 8 17458617883534172716
15238133 3 18408892849759475628
15461852 350 17418087771309182590
15475509 8 18338252496519455326
1601671 61 18409167710365283102
16993438 75 17606949603945199221
17780758 139 13912321257763953631
17844677 252 18336552736493095843
20511986 3 18341602686046121787
20715895 44 18196374711205434081
20739085 24 17822577217501470004
21033648 144 18336819793907990775
21033648 29 17096368320619033751
21130935 74 18336538392194241746
21421861 104 17822844265820456282
21521721 280 16298388003122221032
235170 7 13398626092235273865
23522609 53 17822874060124548900
23559900 14 17916324765429787918
2838139 119 18272928332553213105
32027 91 16915967083783933886
350125 39 18260263084283696100
4144715 1 18336557091706394650
484989 97 10231170690272322388
5104073 3 18115028622622820848
6328613 192 18272086089550513162
7226269 152 18059856155680558952
7970288 3 8285327515057311121
9981440 41 18341619196660556451

> <PUBCHEM_SHAPE_MULTIPOLES>
515.21
16.91
3.06
1.34
6.77
0.19
-0.09
8.03
6.34
-2.5
-0.27
-0.33
0.4
-1.22

> <PUBCHEM_SHAPE_SELFOVERLAP>
1088.738

> <PUBCHEM_SHAPE_VOLUME>
290.4

> <PUBCHEM_COORDINATE_TYPE>
2
5
10

$$$$
