134231
  -OEChem-03292013323D

 65 65  0     1  0  0  0  0  0999 V2000
    1.0887   -1.2402   -2.1098 O   0  0  0  0  0  0  0  0  0  0  0  0
   -1.2928   -0.5870    0.9726 O   0  0  0  0  0  0  0  0  0  0  0  0
    5.0433   -0.7982   -0.6029 O   0  0  0  0  0  0  0  0  0  0  0  0
    5.3835    0.9551   -1.9887 O   0  0  0  0  0  0  0  0  0  0  0  0
    1.7124    1.4878    2.6037 O   0  5  0  0  0  0  0  0  0  0  0  0
    2.2526    3.6027    2.3701 O   0  0  0  0  0  0  0  0  0  0  0  0
   -0.4883   -2.3849   -0.2566 N   0  0  0  0  0  0  0  0  0  0  0  0
    2.4580   -0.4405   -0.4140 N   0  0  0  0  0  0  0  0  0  0  0  0
   -3.3417   -2.9565    0.6750 N   0  0  0  0  0  0  0  0  0  0  0  0
    1.6566    2.5722    1.9768 N   0  3  0  0  0  0  0  0  0  0  0  0
   -2.5749    3.4084   -0.2352 N   0  0  0  0  0  0  0  0  0  0  0  0
   -3.1083    3.0657    0.8424 N   0  3  0  0  0  0  0  0  0  0  0  0
   -3.6015    2.7554    1.8239 N   0  5  0  0  0  0  0  0  0  0  0  0
    0.9066   -2.2326    0.0882 C   0  0  1  0  0  0  0  0  0  0  0  0
    1.6074   -3.6007    0.0690 C   0  0  0  0  0  0  0  0  0  0  0  0
    1.0966   -4.5968    1.1325 C   0  0  0  0  0  0  0  0  0  0  0  0
   -2.8698   -1.9383   -0.2671 C   0  0  1  0  0  0  0  0  0  0  0  0
   -3.8435   -0.7491   -0.2906 C   0  0  0  0  0  0  0  0  0  0  0  0
   -5.2525   -1.0856   -0.8249 C   0  0  0  0  0  0  0  0  0  0  0  0
    1.4830   -1.2715   -0.9455 C   0  0  0  0  0  0  0  0  0  0  0  0
   -1.4806   -1.5407    0.2194 C   0  0  0  0  0  0  0  0  0  0  0  0
    1.7829   -5.9600    1.0361 C   0  0  0  0  0  0  0  0  0  0  0  0
    1.3086   -4.0107    2.5314 C   0  0  0  0  0  0  0  0  0  0  0  0
    3.1328    0.5762   -1.1877 C   0  0  1  0  0  0  0  0  0  0  0  0
    2.9271    1.9667   -0.5726 C   0  0  0  0  0  0  0  0  0  0  0  0
   -5.1488   -1.6009   -2.2632 C   0  0  0  0  0  0  0  0  0  0  0  0
   -6.2002    0.1136   -0.7747 C   0  0  0  0  0  0  0  0  0  0  0  0
    1.4715    2.3503   -0.4572 C   0  0  0  0  0  0  0  0  0  0  0  0
    4.6196    0.2768   -1.3098 C   0  0  0  0  0  0  0  0  0  0  0  0
    0.8921    2.6351    0.7792 C   0  0  0  0  0  0  0  0  0  0  0  0
    0.7032    2.4175   -1.6195 C   0  0  0  0  0  0  0  0  0  0  0  0
   -0.4555    2.9872    0.8535 C   0  0  0  0  0  0  0  0  0  0  0  0
   -0.6444    2.7694   -1.5451 C   0  0  0  0  0  0  0  0  0  0  0  0
   -1.2238    3.0542   -0.3086 C   0  0  0  0  0  0  0  0  0  0  0  0
    0.9773   -1.7598    1.0729 H   0  0  0  0  0  0  0  0  0  0  0  0
    1.4915   -4.0549   -0.9246 H   0  0  0  0  0  0  0  0  0  0  0  0
    2.6869   -3.4492    0.2029 H   0  0  0  0  0  0  0  0  0  0  0  0
    0.0217   -4.7599    0.9864 H   0  0  0  0  0  0  0  0  0  0  0  0
   -2.7702   -2.3731   -1.2665 H   0  0  0  0  0  0  0  0  0  0  0  0
   -3.9425   -0.3331    0.7216 H   0  0  0  0  0  0  0  0  0  0  0  0
   -3.4064    0.0554   -0.8977 H   0  0  0  0  0  0  0  0  0  0  0  0
   -5.7038   -1.8710   -0.2076 H   0  0  0  0  0  0  0  0  0  0  0  0
   -0.7382   -3.1122   -0.9208 H   0  0  0  0  0  0  0  0  0  0  0  0
    1.6245   -6.4015    0.0466 H   0  0  0  0  0  0  0  0  0  0  0  0
    1.3813   -6.6547    1.7814 H   0  0  0  0  0  0  0  0  0  0  0  0
    2.8624   -5.8722    1.1987 H   0  0  0  0  0  0  0  0  0  0  0  0
    0.6624   -3.1467    2.7115 H   0  0  0  0  0  0  0  0  0  0  0  0
    1.0615   -4.7510    3.3007 H   0  0  0  0  0  0  0  0  0  0  0  0
    2.3490   -3.7046    2.6846 H   0  0  0  0  0  0  0  0  0  0  0  0
    2.7448    0.5446   -2.2125 H   0  0  0  0  0  0  0  0  0  0  0  0
    2.7492   -0.5702    0.5507 H   0  0  0  0  0  0  0  0  0  0  0  0
    3.4483    2.0077    0.3902 H   0  0  0  0  0  0  0  0  0  0  0  0
    3.4255    2.7245   -1.1928 H   0  0  0  0  0  0  0  0  0  0  0  0
   -4.5931   -0.9040   -2.8998 H   0  0  0  0  0  0  0  0  0  0  0  0
   -6.1460   -1.7283   -2.6996 H   0  0  0  0  0  0  0  0  0  0  0  0
   -4.6611   -2.5789   -2.3104 H   0  0  0  0  0  0  0  0  0  0  0  0
   -5.8290    0.9372   -1.3940 H   0  0  0  0  0  0  0  0  0  0  0  0
   -7.1983   -0.1594   -1.1329 H   0  0  0  0  0  0  0  0  0  0  0  0
   -6.3010    0.4818    0.2516 H   0  0  0  0  0  0  0  0  0  0  0  0
   -4.2336   -3.3339    0.3595 H   0  0  0  0  0  0  0  0  0  0  0  0
   -2.6954   -3.7456    0.6744 H   0  0  0  0  0  0  0  0  0  0  0  0
    1.1388    2.2109   -2.5931 H   0  0  0  0  0  0  0  0  0  0  0  0
   -0.8699    3.2297    1.8295 H   0  0  0  0  0  0  0  0  0  0  0  0
   -1.2351    2.8210   -2.4559 H   0  0  0  0  0  0  0  0  0  0  0  0
    6.0065   -0.9506   -0.7089 H   0  0  0  0  0  0  0  0  0  0  0  0
  1 20  2  0  0  0  0
  2 21  2  0  0  0  0
  3 29  1  0  0  0  0
  3 65  1  0  0  0  0
  4 29  2  0  0  0  0
  5 10  1  0  0  0  0
  6 10  2  0  0  0  0
  7 14  1  0  0  0  0
  7 21  1  0  0  0  0
  7 43  1  0  0  0  0
  8 20  1  0  0  0  0
  8 24  1  0  0  0  0
  8 51  1  0  0  0  0
  9 17  1  0  0  0  0
  9 60  1  0  0  0  0
  9 61  1  0  0  0  0
 10 30  1  0  0  0  0
 11 12  2  0  0  0  0
 11 34  1  0  0  0  0
 12 13  2  0  0  0  0
 14 15  1  0  0  0  0
 14 20  1  0  0  0  0
 14 35  1  0  0  0  0
 15 16  1  0  0  0  0
 15 36  1  0  0  0  0
 15 37  1  0  0  0  0
 16 22  1  0  0  0  0
 16 23  1  0  0  0  0
 16 38  1  0  0  0  0
 17 18  1  0  0  0  0
 17 21  1  0  0  0  0
 17 39  1  0  0  0  0
 18 19  1  0  0  0  0
 18 40  1  0  0  0  0
 18 41  1  0  0  0  0
 19 26  1  0  0  0  0
 19 27  1  0  0  0  0
 19 42  1  0  0  0  0
 22 44  1  0  0  0  0
 22 45  1  0  0  0  0
 22 46  1  0  0  0  0
 23 47  1  0  0  0  0
 23 48  1  0  0  0  0
 23 49  1  0  0  0  0
 24 25  1  0  0  0  0
 24 29  1  0  0  0  0
 24 50  1  0  0  0  0
 25 28  1  0  0  0  0
 25 52  1  0  0  0  0
 25 53  1  0  0  0  0
 26 54  1  0  0  0  0
 26 55  1  0  0  0  0
 26 56  1  0  0  0  0
 27 57  1  0  0  0  0
 27 58  1  0  0  0  0
 27 59  1  0  0  0  0
 28 30  2  0  0  0  0
 28 31  1  0  0  0  0
 30 32  1  0  0  0  0
 31 33  2  0  0  0  0
 31 62  1  0  0  0  0
 32 34  2  0  0  0  0
 32 63  1  0  0  0  0
 33 34  1  0  0  0  0
 33 64  1  0  0  0  0
M  CHG  4   5  -1  10   1  12   1  13  -1
M  END
> <PUBCHEM_COMPOUND_CID>
134231

> <PUBCHEM_CONFORMER_RMSD>
1.2

> <PUBCHEM_CONFORMER_DIVERSEORDER>
2
29
9
50
41
40
39
18
51
13
54
45
36
20
53
17
16
48
1
37
19
44
46
8
43
34
23
35
21
14
27
22
42
55
31
6
24
25
15
33
49
28
38
7
30
3
5
56
32
4
52
10
12
26
47
11

> <PUBCHEM_MMFF94_PARTIAL_CHARGES>
34
1 -0.57
10 0.91
11 -0.5
12 0.69
13 -0.37
14 0.36
17 0.33
2 -0.57
20 0.57
21 0.57
24 0.36
25 0.14
28 -0.14
29 0.66
3 -0.65
30 0.13
31 -0.15
32 -0.15
33 -0.15
34 0.18
4 -0.57
43 0.37
5 -0.52
51 0.37
6 -0.52
60 0.36
61 0.36
62 0.15
63 0.15
64 0.15
65 0.5
7 -0.73
8 -0.73
9 -0.99

> <PUBCHEM_EFFECTIVE_ROTOR_COUNT>
15

> <PUBCHEM_PHARMACOPHORE_FEATURES>
15
1 1 acceptor
1 2 acceptor
1 3 acceptor
1 4 acceptor
1 5 acceptor
1 5 anion
1 6 acceptor
1 7 donor
1 8 donor
1 9 cation
1 9 donor
3 16 22 23 hydrophobe
3 19 26 27 hydrophobe
3 3 4 29 anion
6 28 30 31 32 33 34 rings

> <PUBCHEM_HEAVY_ATOM_COUNT>
34

> <PUBCHEM_ATOM_DEF_STEREO_COUNT>
3

> <PUBCHEM_ATOM_UDEF_STEREO_COUNT>
0

> <PUBCHEM_BOND_DEF_STEREO_COUNT>
0

> <PUBCHEM_BOND_UDEF_STEREO_COUNT>
0

> <PUBCHEM_ISOTOPIC_ATOM_COUNT>
0

> <PUBCHEM_COMPONENT_COUNT>
1

> <PUBCHEM_CACTVS_TAUTO_COUNT>
4

> <PUBCHEM_CONFORMER_ID>
00020C5700000002

> <PUBCHEM_MMFF94_ENERGY>
74.9026

> <PUBCHEM_FEATURE_SELFOVERLAP>
76.266

> <PUBCHEM_SHAPE_FINGERPRINT>
11513181 2 17986403200130953135
12156800 1 18197193911159400576
17093844 170 18197211670781168649
17627616 140 18190464861627522103
20764821 26 18191028009339239615
21033648 29 18047186633644060495
23419403 2 17632291307214204840
45266715 3 18053078890518645159
56638632 33 17833823876780785872

> <PUBCHEM_SHAPE_MULTIPOLES>
629.62
9.04
7.2
2.16
8.6
6.71
0.69
0.42
-4.85
-2.55
4.06
-0.89
-0.67
-1.62

> <PUBCHEM_SHAPE_SELFOVERLAP>
1277.042

> <PUBCHEM_SHAPE_VOLUME>
365.4

> <PUBCHEM_COORDINATE_TYPE>
2
5
10

$$$$
