134228
  -OEChem-03292013323D

 63 64  0     1  0  0  0  0  0999 V2000
    2.7183    1.4499   -1.5936 O   0  0  0  0  0  0  0  0  0  0  0  0
    5.8735    1.1449   -1.3160 O   0  0  0  0  0  0  0  0  0  0  0  0
   -1.7659   -0.6613   -1.7660 O   0  0  0  0  0  0  0  0  0  0  0  0
   -0.3254   -0.1733    1.2404 O   0  0  0  0  0  0  0  0  0  0  0  0
   -5.2197    0.7896    1.5052 O   0  0  0  0  0  0  0  0  0  0  0  0
    3.8909    1.1183    0.3740 N   0  0  0  0  0  0  0  0  0  0  0  0
    0.8050   -0.1324   -0.7883 N   0  0  0  0  0  0  0  0  0  0  0  0
    6.5271    3.2999   -0.8434 N   0  0  0  0  0  0  0  0  0  0  0  0
    3.1033   -3.8812    0.2066 N   0  0  0  0  0  0  0  0  0  0  0  0
   -6.3959    1.3440   -0.4172 N   0  0  0  0  0  0  0  0  0  0  0  0
    1.0599   -4.7261    0.4142 N   0  0  0  0  0  0  0  0  0  0  0  0
    4.6439    2.3650    0.3313 C   0  0  1  0  0  0  0  0  0  0  0  0
    5.2145    2.5212    1.7361 C   0  0  0  0  0  0  0  0  0  0  0  0
    5.3686    1.0809    2.2187 C   0  0  0  0  0  0  0  0  0  0  0  0
    4.1719    0.3749    1.5996 C   0  0  0  0  0  0  0  0  0  0  0  0
    2.9273    0.7977   -0.5693 C   0  0  0  0  0  0  0  0  0  0  0  0
    2.1211   -0.4429   -0.2788 C   0  0  2  0  0  0  0  0  0  0  0  0
    5.7252    2.1932   -0.6927 C   0  0  0  0  0  0  0  0  0  0  0  0
    2.7466   -1.6645   -0.9510 C   0  0  0  0  0  0  0  0  0  0  0  0
    2.2595   -2.9609   -0.3486 C   0  0  0  0  0  0  0  0  0  0  0  0
   -0.3156   -0.0229    0.0206 C   0  0  0  0  0  0  0  0  0  0  0  0
   -1.5704    0.3293   -0.7686 C   0  0  2  0  0  0  0  0  0  0  0  0
   -2.7963    0.4149    0.1456 C   0  0  0  0  0  0  0  0  0  0  0  0
   -4.0565    0.8227   -0.6187 C   0  0  0  0  0  0  0  0  0  0  0  0
    1.0043   -3.5047   -0.2090 C   0  0  0  0  0  0  0  0  0  0  0  0
   -8.5086    0.2711    0.2913 C   0  0  0  0  0  0  0  0  0  0  0  0
   -7.6705    1.5529    0.2273 C   0  0  0  0  0  0  0  0  0  0  0  0
   -5.2623    0.9740    0.2918 C   0  0  0  0  0  0  0  0  0  0  0  0
    2.3380   -4.9234    0.6506 C   0  0  0  0  0  0  0  0  0  0  0  0
   -8.7813   -0.2480   -1.1208 C   0  0  0  0  0  0  0  0  0  0  0  0
   -9.8304    0.4971    1.0286 C   0  0  0  0  0  0  0  0  0  0  0  0
    3.9959    3.1977    0.0379 H   0  0  0  0  0  0  0  0  0  0  0  0
    6.1567    3.0732    1.7930 H   0  0  0  0  0  0  0  0  0  0  0  0
    4.4836    3.0349    2.3730 H   0  0  0  0  0  0  0  0  0  0  0  0
    5.3901    0.9958    3.3087 H   0  0  0  0  0  0  0  0  0  0  0  0
    6.2996    0.6557    1.8250 H   0  0  0  0  0  0  0  0  0  0  0  0
    3.2981    0.4560    2.2554 H   0  0  0  0  0  0  0  0  0  0  0  0
    4.3689   -0.6789    1.3857 H   0  0  0  0  0  0  0  0  0  0  0  0
    2.0331   -0.6049    0.7982 H   0  0  0  0  0  0  0  0  0  0  0  0
    3.8402   -1.6251   -0.8647 H   0  0  0  0  0  0  0  0  0  0  0  0
    2.5230   -1.6731   -2.0256 H   0  0  0  0  0  0  0  0  0  0  0  0
    0.7199    0.0694   -1.7801 H   0  0  0  0  0  0  0  0  0  0  0  0
    7.2983    3.2990   -1.5026 H   0  0  0  0  0  0  0  0  0  0  0  0
    6.3747    4.1577   -0.3228 H   0  0  0  0  0  0  0  0  0  0  0  0
   -1.4096    1.2951   -1.2627 H   0  0  0  0  0  0  0  0  0  0  0  0
   -2.9738   -0.5597    0.6195 H   0  0  0  0  0  0  0  0  0  0  0  0
   -2.6083    1.1319    0.9548 H   0  0  0  0  0  0  0  0  0  0  0  0
   -3.8913    1.7805   -1.1264 H   0  0  0  0  0  0  0  0  0  0  0  0
   -4.2982    0.0728   -1.3811 H   0  0  0  0  0  0  0  0  0  0  0  0
    4.1094   -3.8077    0.2784 H   0  0  0  0  0  0  0  0  0  0  0  0
    0.0610   -3.0852   -0.5271 H   0  0  0  0  0  0  0  0  0  0  0  0
   -7.9440   -0.4988    0.8327 H   0  0  0  0  0  0  0  0  0  0  0  0
   -7.4977    1.9393    1.2383 H   0  0  0  0  0  0  0  0  0  0  0  0
   -8.1938    2.3310   -0.3398 H   0  0  0  0  0  0  0  0  0  0  0  0
    2.7701   -5.7879    1.1341 H   0  0  0  0  0  0  0  0  0  0  0  0
   -6.3383    1.4743   -1.4231 H   0  0  0  0  0  0  0  0  0  0  0  0
   -1.0688   -0.5574   -2.4348 H   0  0  0  0  0  0  0  0  0  0  0  0
   -9.3031    0.5003   -1.7274 H   0  0  0  0  0  0  0  0  0  0  0  0
   -9.4066   -1.1470   -1.0871 H   0  0  0  0  0  0  0  0  0  0  0  0
   -7.8544   -0.5191   -1.6366 H   0  0  0  0  0  0  0  0  0  0  0  0
  -10.4445    1.2485    0.5209 H   0  0  0  0  0  0  0  0  0  0  0  0
   -9.6473    0.8437    2.0511 H   0  0  0  0  0  0  0  0  0  0  0  0
  -10.4080   -0.4313    1.0875 H   0  0  0  0  0  0  0  0  0  0  0  0
  1 16  2  0  0  0  0
  2 18  2  0  0  0  0
  3 22  1  0  0  0  0
  3 57  1  0  0  0  0
  4 21  2  0  0  0  0
  5 28  2  0  0  0  0
  6 12  1  0  0  0  0
  6 15  1  0  0  0  0
  6 16  1  0  0  0  0
  7 17  1  0  0  0  0
  7 21  1  0  0  0  0
  7 42  1  0  0  0  0
  8 18  1  0  0  0  0
  8 43  1  0  0  0  0
  8 44  1  0  0  0  0
  9 20  1  0  0  0  0
  9 29  1  0  0  0  0
  9 50  1  0  0  0  0
 10 27  1  0  0  0  0
 10 28  1  0  0  0  0
 10 56  1  0  0  0  0
 11 25  1  0  0  0  0
 11 29  2  0  0  0  0
 12 13  1  0  0  0  0
 12 18  1  0  0  0  0
 12 32  1  0  0  0  0
 13 14  1  0  0  0  0
 13 33  1  0  0  0  0
 13 34  1  0  0  0  0
 14 15  1  0  0  0  0
 14 35  1  0  0  0  0
 14 36  1  0  0  0  0
 15 37  1  0  0  0  0
 15 38  1  0  0  0  0
 16 17  1  0  0  0  0
 17 19  1  0  0  0  0
 17 39  1  0  0  0  0
 19 20  1  0  0  0  0
 19 40  1  0  0  0  0
 19 41  1  0  0  0  0
 20 25  2  0  0  0  0
 21 22  1  0  0  0  0
 22 23  1  0  0  0  0
 22 45  1  0  0  0  0
 23 24  1  0  0  0  0
 23 46  1  0  0  0  0
 23 47  1  0  0  0  0
 24 28  1  0  0  0  0
 24 48  1  0  0  0  0
 24 49  1  0  0  0  0
 25 51  1  0  0  0  0
 26 27  1  0  0  0  0
 26 30  1  0  0  0  0
 26 31  1  0  0  0  0
 26 52  1  0  0  0  0
 27 53  1  0  0  0  0
 27 54  1  0  0  0  0
 29 55  1  0  0  0  0
 30 58  1  0  0  0  0
 30 59  1  0  0  0  0
 30 60  1  0  0  0  0
 31 61  1  0  0  0  0
 31 62  1  0  0  0  0
 31 63  1  0  0  0  0
M  END
> <PUBCHEM_COMPOUND_CID>
134228

> <PUBCHEM_CONFORMER_RMSD>
1.4

> <PUBCHEM_CONFORMER_DIVERSEORDER>
8
10
26
118
107
166
52
16
79
57
164
94
161
62
53
64
182
146
179
78
120
172
28
177
142
24
143
93
87
140
152
159
108
60
117
90
106
178
33
29
76
50
105
139
129
168
136
80
114
128
96
4
1
89
174
134
44
119
54
150
36
175
171
109
104
22
23
151
43
12
176
160
75
15
130
101
31
73
115
127
19
46
149
125
42
92
69
56
67
84
83
126
144
41
111
162
91
112
137
99
135
145
148
66
131
98
153
138
55
97
72
170
40
132
77
100
27
141
63
30
121
37
74
18
14
116
110
49
9
95
113
51
70
5
123
186
122
82
173
65
88
156
102
71
6
21
103
167
81
32
154
155
61
185
181
68
39
47
35
13
59
165
3
11
7
163
86
124
58
34
2
158
38
183
17
147
48
85
45
184
25
133
20
169
180
157

> <PUBCHEM_MMFF94_PARTIAL_CHARGES>
33
1 -0.57
10 -0.73
11 -0.57
12 0.36
15 0.3
16 0.57
17 0.36
18 0.57
19 0.18
2 -0.57
20 -0.33
21 0.57
22 0.34
24 0.06
25 0.08
27 0.3
28 0.57
29 0.04
3 -0.68
4 -0.57
42 0.37
43 0.37
44 0.37
5 -0.57
50 0.27
51 0.15
55 0.15
56 0.37
57 0.4
6 -0.66
7 -0.73
8 -0.8
9 0.03

> <PUBCHEM_EFFECTIVE_ROTOR_COUNT>
15

> <PUBCHEM_PHARMACOPHORE_FEATURES>
14
1 1 acceptor
1 10 donor
1 2 acceptor
1 3 acceptor
1 3 donor
1 4 acceptor
1 5 acceptor
1 7 donor
1 8 donor
1 9 donor
3 26 30 31 hydrophobe
3 9 11 29 cation
5 6 12 13 14 15 rings
5 9 11 20 25 29 rings

> <PUBCHEM_HEAVY_ATOM_COUNT>
31

> <PUBCHEM_ATOM_DEF_STEREO_COUNT>
2

> <PUBCHEM_ATOM_UDEF_STEREO_COUNT>
1

> <PUBCHEM_BOND_DEF_STEREO_COUNT>
0

> <PUBCHEM_BOND_UDEF_STEREO_COUNT>
0

> <PUBCHEM_ISOTOPIC_ATOM_COUNT>
0

> <PUBCHEM_COMPONENT_COUNT>
1

> <PUBCHEM_CACTVS_TAUTO_COUNT>
16

> <PUBCHEM_CONFORMER_ID>
00020C5400000008

> <PUBCHEM_MMFF94_ENERGY>
50.3275

> <PUBCHEM_FEATURE_SELFOVERLAP>
71.053

> <PUBCHEM_SHAPE_FINGERPRINT>
10 15 18186522129221845857
10165383 225 18408889555862620204
11719270 70 18407760347918115297
12522641 33 18334576854443154939
12788726 201 17468468666428149858
13533116 47 18339364042186840051
13540713 4 17752191800128926845
13955234 65 18338231544751626482
14118638 360 18271528607491964169
14150023 79 18409728478200810155
14400156 188 18118399549824638298
14400156 413 18337099065604285213
14461889 52 18333734641621420235
14565420 104 18342171184996926058
15392192 104 18187935005931663923
1979834 28 18259704480082654980
20157964 124 18410014317001540841
20505436 4 18131348639296289278
21033648 29 18268141145157947672
21049683 118 18198603601647647954
21049683 271 18118409437060360214
22149856 69 18263659394387758697
23845131 108 18336269032534237074
249999 5 18337953394200889506
3178227 256 18335697188505093818
4058900 60 18339936969349322816
4073 2 18408609188876844675
4340502 62 18411696578318883591
4403749 210 18119535589652315736
5385378 56 18410852136266592838
57634706 280 17988350593810259072
70251023 43 17701833076739514246
9849439 229 18339639048810654788

> <PUBCHEM_SHAPE_MULTIPOLES>
578.73
23.85
4.63
1.5
67.2
8.25
0.33
-18.86
3.35
-10.13
0.67
-1.38
-0.6
-0.6

> <PUBCHEM_SHAPE_SELFOVERLAP>
1182.67

> <PUBCHEM_SHAPE_VOLUME>
334.6

> <PUBCHEM_COORDINATE_TYPE>
2
5
10

$$$$
