134331
  -OEChem-03292013323D

 30 31  0     1  0  0  0  0  0999 V2000
   -0.0448    1.7533    0.1224 S   0  0  0  0  0  0  0  0  0  0  0  0
    3.8762    0.1656   -0.1208 S   0  0  0  0  0  0  0  0  0  0  0  0
   -0.0278   -2.5255   -0.9281 O   0  0  0  0  0  0  0  0  0  0  0  0
   -4.2391   -0.3200   -0.6613 O   0  0  0  0  0  0  0  0  0  0  0  0
   -3.2530   -1.6215    0.9292 O   0  0  0  0  0  0  0  0  0  0  0  0
    3.6937    1.2485    1.0848 O   0  0  0  0  0  0  0  0  0  0  0  0
    4.4793    0.8540   -1.2467 O   0  0  0  0  0  0  0  0  0  0  0  0
    4.5102   -1.0127    0.4410 O   0  0  0  0  0  0  0  0  0  0  0  0
   -0.8293   -0.7089    0.3477 N   0  0  0  0  0  0  0  0  0  0  0  0
    2.2564   -0.2505   -0.5399 N   0  0  0  0  0  0  0  0  0  0  0  0
    0.1650    0.1558    0.9901 C   0  0  1  0  0  0  0  0  0  0  0  0
   -1.8598    1.4205   -0.1323 C   0  0  0  0  0  0  0  0  0  0  0  0
   -1.9189   -0.1008   -0.3886 C   0  0  2  0  0  0  0  0  0  0  0  0
    1.2441   -0.7901    0.4457 C   0  0  1  0  0  0  0  0  0  0  0  0
    0.0775   -1.5871   -0.1713 C   0  0  0  0  0  0  0  0  0  0  0  0
   -2.6060    1.8838    1.1263 C   0  0  0  0  0  0  0  0  0  0  0  0
   -2.3443    2.2105   -1.3494 C   0  0  0  0  0  0  0  0  0  0  0  0
   -3.1794   -0.7748    0.0511 C   0  0  0  0  0  0  0  0  0  0  0  0
    0.0606    0.1882    2.0784 H   0  0  0  0  0  0  0  0  0  0  0  0
   -1.7648   -0.3391   -1.4497 H   0  0  0  0  0  0  0  0  0  0  0  0
    1.7486   -1.3687    1.2299 H   0  0  0  0  0  0  0  0  0  0  0  0
   -2.3133    1.3140    2.0153 H   0  0  0  0  0  0  0  0  0  0  0  0
   -2.4217    2.9450    1.3330 H   0  0  0  0  0  0  0  0  0  0  0  0
   -3.6895    1.7710    1.0093 H   0  0  0  0  0  0  0  0  0  0  0  0
   -2.2148    3.2897   -1.2054 H   0  0  0  0  0  0  0  0  0  0  0  0
   -1.8034    1.9280   -2.2602 H   0  0  0  0  0  0  0  0  0  0  0  0
   -3.4094    2.0365   -1.5357 H   0  0  0  0  0  0  0  0  0  0  0  0
    1.8388    0.3047   -1.2988 H   0  0  0  0  0  0  0  0  0  0  0  0
   -5.0770   -0.7499   -0.3867 H   0  0  0  0  0  0  0  0  0  0  0  0
    3.1442    2.0367    0.8636 H   0  0  0  0  0  0  0  0  0  0  0  0
  1 11  1  0  0  0  0
  1 12  1  0  0  0  0
  2  6  1  0  0  0  0
  2  7  2  0  0  0  0
  2  8  2  0  0  0  0
  2 10  1  0  0  0  0
  3 15  2  0  0  0  0
  4 18  1  0  0  0  0
  4 29  1  0  0  0  0
  5 18  2  0  0  0  0
  6 30  1  0  0  0  0
  9 11  1  0  0  0  0
  9 13  1  0  0  0  0
  9 15  1  0  0  0  0
 10 14  1  0  0  0  0
 10 28  1  0  0  0  0
 11 14  1  0  0  0  0
 11 19  1  0  0  0  0
 12 13  1  0  0  0  0
 12 16  1  0  0  0  0
 12 17  1  0  0  0  0
 13 18  1  0  0  0  0
 13 20  1  0  0  0  0
 14 15  1  0  0  0  0
 14 21  1  0  0  0  0
 16 22  1  0  0  0  0
 16 23  1  0  0  0  0
 16 24  1  0  0  0  0
 17 25  1  0  0  0  0
 17 26  1  0  0  0  0
 17 27  1  0  0  0  0
M  END
> <PUBCHEM_COMPOUND_CID>
134331

> <PUBCHEM_CONFORMER_RMSD>
0.6

> <PUBCHEM_CONFORMER_DIVERSEORDER>
3
5
8
6
9
7
4
2
1
10

> <PUBCHEM_MMFF94_PARTIAL_CHARGES>
19
1 -0.45
10 -0.87
11 0.44
12 0.23
13 0.36
14 0.36
15 0.58
18 0.66
2 1.62
28 0.42
29 0.5
3 -0.57
30 0.5
4 -0.65
5 -0.57
6 -0.68
7 -0.65
8 -0.65
9 -0.59

> <PUBCHEM_EFFECTIVE_ROTOR_COUNT>
3.8

> <PUBCHEM_PHARMACOPHORE_FEATURES>
11
1 10 donor
1 3 acceptor
1 4 acceptor
1 5 acceptor
1 6 acceptor
1 7 acceptor
1 8 acceptor
3 12 16 17 hydrophobe
3 4 5 18 anion
4 2 6 7 8 anion
7 1 9 11 12 13 14 15 rings

> <PUBCHEM_HEAVY_ATOM_COUNT>
18

> <PUBCHEM_ATOM_DEF_STEREO_COUNT>
3

> <PUBCHEM_ATOM_UDEF_STEREO_COUNT>
0

> <PUBCHEM_BOND_DEF_STEREO_COUNT>
0

> <PUBCHEM_BOND_UDEF_STEREO_COUNT>
0

> <PUBCHEM_ISOTOPIC_ATOM_COUNT>
0

> <PUBCHEM_COMPONENT_COUNT>
1

> <PUBCHEM_CACTVS_TAUTO_COUNT>
1

> <PUBCHEM_CONFORMER_ID>
00020CBB00000003

> <PUBCHEM_MMFF94_ENERGY>
41.4299

> <PUBCHEM_FEATURE_SELFOVERLAP>
55.938

> <PUBCHEM_SHAPE_FINGERPRINT>
10062212 137 18338507535181362722
10498660 4 18335417929045822580
11132069 177 18408610240505281873
12173636 292 18058450915432895337
12403259 415 18342736308768522336
13140716 1 17979635959048167802
13380535 21 18127419947185519331
14289901 80 17530964661751240184
14614273 12 18263079933877950845
16945 1 17967541172418466225
18186145 218 18202002088793616272
20510252 161 18202565085654068168
21501502 16 18197214742062132307
21524375 3 18409728426703777210
23402539 116 18343011216207351286
23557571 272 18339649944684015516
23559900 14 18124307208530527402
2748010 2 18341609270083111109
5104073 3 18410571752496425976
69090 78 18201995573175188958

> <PUBCHEM_SHAPE_MULTIPOLES>
332.95
7.53
2.25
1.11
6.88
0.01
-0.04
0.61
-0.51
-1.23
-0.25
-0.09
0.32
0.18

> <PUBCHEM_SHAPE_SELFOVERLAP>
665.848

> <PUBCHEM_SHAPE_VOLUME>
199.3

> <PUBCHEM_COORDINATE_TYPE>
2
5
10

$$$$
