134303
  -OEChem-03292013323D

 54 55  0     1  0  0  0  0  0999 V2000
   -0.3297   -1.1808   -0.5468 O   0  0  0  0  0  0  0  0  0  0  0  0
    3.9566   -0.2570    0.5216 O   0  0  0  0  0  0  0  0  0  0  0  0
    2.9647    0.4911    2.4534 O   0  0  0  0  0  0  0  0  0  0  0  0
   -2.8906    3.9164   -1.9281 O   0  0  0  0  0  0  0  0  0  0  0  0
   -7.7652   -2.3595    0.1273 O   0  5  0  0  0  0  0  0  0  0  0  0
   -6.7206   -3.5256   -1.4116 O   0  0  0  0  0  0  0  0  0  0  0  0
    1.7394    0.1181    0.5183 N   0  0  0  0  0  0  0  0  0  0  0  0
   -1.8744   -0.1826    0.9104 N   0  0  0  0  0  0  0  0  0  0  0  0
   -1.5125    4.2222   -0.0783 N   0  0  0  0  0  0  0  0  0  0  0  0
   -3.7910    4.5176    0.0962 N   0  0  0  0  0  0  0  0  0  0  0  0
   -6.7189   -2.6733   -0.4905 N   0  3  0  0  0  0  0  0  0  0  0  0
    0.1669    1.9873    0.8427 C   0  0  0  0  0  0  0  0  0  0  0  0
    0.4399    0.4882    1.0171 C   0  0  1  0  0  0  0  0  0  0  0  0
    0.0753    2.4414   -0.6189 C   0  0  0  0  0  0  0  0  0  0  0  0
   -0.2577    3.9263   -0.7131 C   0  0  0  0  0  0  0  0  0  0  0  0
   -0.6183   -0.3902    0.3473 C   0  0  0  0  0  0  0  0  0  0  0  0
    2.8933    0.1502    1.2772 C   0  0  0  0  0  0  0  0  0  0  0  0
   -3.0932   -0.8090    0.5576 C   0  0  0  0  0  0  0  0  0  0  0  0
   -3.1192   -1.7596   -0.4629 C   0  0  0  0  0  0  0  0  0  0  0  0
   -4.2688   -0.4763    1.2309 C   0  0  0  0  0  0  0  0  0  0  0  0
   -2.7375    4.1937   -0.7398 C   0  0  0  0  0  0  0  0  0  0  0  0
    5.2251   -0.2727    1.1862 C   0  0  0  0  0  0  0  0  0  0  0  0
    6.2766   -0.7402    0.2233 C   0  0  0  0  0  0  0  0  0  0  0  0
   -4.3207   -2.3775   -0.8102 C   0  0  0  0  0  0  0  0  0  0  0  0
   -5.4700   -1.0940    0.8836 C   0  0  0  0  0  0  0  0  0  0  0  0
   -5.4961   -2.0447   -0.1367 C   0  0  0  0  0  0  0  0  0  0  0  0
    6.5713   -2.0996    0.1181 C   0  0  0  0  0  0  0  0  0  0  0  0
    6.9593    0.1845   -0.5672 C   0  0  0  0  0  0  0  0  0  0  0  0
    7.5485   -2.5343   -0.7772 C   0  0  0  0  0  0  0  0  0  0  0  0
    7.9365   -0.2504   -1.4626 C   0  0  0  0  0  0  0  0  0  0  0  0
    8.2311   -1.6098   -1.5674 C   0  0  0  0  0  0  0  0  0  0  0  0
    0.9651    2.5560    1.3378 H   0  0  0  0  0  0  0  0  0  0  0  0
   -0.7585    2.2422    1.3708 H   0  0  0  0  0  0  0  0  0  0  0  0
    0.4210    0.2583    2.0906 H   0  0  0  0  0  0  0  0  0  0  0  0
   -0.6947    1.8656   -1.1453 H   0  0  0  0  0  0  0  0  0  0  0  0
    1.0266    2.2560   -1.1303 H   0  0  0  0  0  0  0  0  0  0  0  0
    0.5123    4.5279   -0.2192 H   0  0  0  0  0  0  0  0  0  0  0  0
   -0.3045    4.2301   -1.7644 H   0  0  0  0  0  0  0  0  0  0  0  0
    1.8223   -0.1703   -0.4523 H   0  0  0  0  0  0  0  0  0  0  0  0
   -1.9461    0.4839    1.6753 H   0  0  0  0  0  0  0  0  0  0  0  0
   -1.5056    4.4720    0.9060 H   0  0  0  0  0  0  0  0  0  0  0  0
   -2.2528   -2.0682   -1.0305 H   0  0  0  0  0  0  0  0  0  0  0  0
   -4.2620    0.2632    2.0275 H   0  0  0  0  0  0  0  0  0  0  0  0
    5.4652    0.7343    1.5492 H   0  0  0  0  0  0  0  0  0  0  0  0
    5.1805   -0.9438    2.0530 H   0  0  0  0  0  0  0  0  0  0  0  0
   -4.3046   -3.1132   -1.6104 H   0  0  0  0  0  0  0  0  0  0  0  0
   -6.3660   -0.8097    1.4296 H   0  0  0  0  0  0  0  0  0  0  0  0
    6.0447   -2.8299    0.7269 H   0  0  0  0  0  0  0  0  0  0  0  0
    6.7372    1.2459   -0.4961 H   0  0  0  0  0  0  0  0  0  0  0  0
   -4.7459    4.5383   -0.2459 H   0  0  0  0  0  0  0  0  0  0  0  0
   -3.6451    4.7422    1.0746 H   0  0  0  0  0  0  0  0  0  0  0  0
    7.7776   -3.5928   -0.8594 H   0  0  0  0  0  0  0  0  0  0  0  0
    8.4676    0.4693   -2.0786 H   0  0  0  0  0  0  0  0  0  0  0  0
    8.9918   -1.9483   -2.2648 H   0  0  0  0  0  0  0  0  0  0  0  0
  1 16  2  0  0  0  0
  2 17  1  0  0  0  0
  2 22  1  0  0  0  0
  3 17  2  0  0  0  0
  4 21  2  0  0  0  0
  5 11  1  0  0  0  0
  6 11  2  0  0  0  0
  7 13  1  0  0  0  0
  7 17  1  0  0  0  0
  7 39  1  0  0  0  0
  8 16  1  0  0  0  0
  8 18  1  0  0  0  0
  8 40  1  0  0  0  0
  9 15  1  0  0  0  0
  9 21  1  0  0  0  0
  9 41  1  0  0  0  0
 10 21  1  0  0  0  0
 10 50  1  0  0  0  0
 10 51  1  0  0  0  0
 11 26  1  0  0  0  0
 12 13  1  0  0  0  0
 12 14  1  0  0  0  0
 12 32  1  0  0  0  0
 12 33  1  0  0  0  0
 13 16  1  0  0  0  0
 13 34  1  0  0  0  0
 14 15  1  0  0  0  0
 14 35  1  0  0  0  0
 14 36  1  0  0  0  0
 15 37  1  0  0  0  0
 15 38  1  0  0  0  0
 18 19  2  0  0  0  0
 18 20  1  0  0  0  0
 19 24  1  0  0  0  0
 19 42  1  0  0  0  0
 20 25  2  0  0  0  0
 20 43  1  0  0  0  0
 22 23  1  0  0  0  0
 22 44  1  0  0  0  0
 22 45  1  0  0  0  0
 23 27  2  0  0  0  0
 23 28  1  0  0  0  0
 24 26  2  0  0  0  0
 24 46  1  0  0  0  0
 25 26  1  0  0  0  0
 25 47  1  0  0  0  0
 27 29  1  0  0  0  0
 27 48  1  0  0  0  0
 28 30  2  0  0  0  0
 28 49  1  0  0  0  0
 29 31  2  0  0  0  0
 29 52  1  0  0  0  0
 30 31  1  0  0  0  0
 30 53  1  0  0  0  0
 31 54  1  0  0  0  0
M  CHG  2   5  -1  11   1
M  END
> <PUBCHEM_COMPOUND_CID>
134303

> <PUBCHEM_CONFORMER_RMSD>
1.2

> <PUBCHEM_CONFORMER_DIVERSEORDER>
1
12
61
9
66
72
63
103
28
73
77
22
27
74
41
39
98
88
71
64
90
11
75
102
30
15
59
29
55
52
57
40
42
101
104
70
80
47
18
78
53
106
33
83
99
3
79
56
108
96
92
93
23
25
38
54
45
50
81
82
36
21
85
89
7
49
87
51
8
16
97
91
84
44
67
37
62
68
105
46
107
20
34
35
86
14
60
5
26
100
2
32
24
109
10
48
95
19
31
6
94
65
58
43
4
17
76
13
69

> <PUBCHEM_MMFF94_PARTIAL_CHARGES>
43
1 -0.57
10 -0.8
11 0.91
13 0.36
15 0.3
16 0.57
17 0.78
18 0.12
19 -0.15
2 -0.43
20 -0.15
21 0.69
22 0.42
23 -0.14
24 -0.15
25 -0.15
26 0.13
27 -0.15
28 -0.15
29 -0.15
3 -0.57
30 -0.15
31 -0.15
39 0.37
4 -0.57
40 0.37
41 0.37
42 0.15
43 0.15
46 0.15
47 0.15
48 0.15
49 0.15
5 -0.52
50 0.37
51 0.37
52 0.15
53 0.15
54 0.15
6 -0.52
7 -0.73
8 -0.55
9 -0.73

> <PUBCHEM_EFFECTIVE_ROTOR_COUNT>
14

> <PUBCHEM_PHARMACOPHORE_FEATURES>
12
1 1 acceptor
1 10 donor
1 3 acceptor
1 4 acceptor
1 5 acceptor
1 5 anion
1 6 acceptor
1 7 donor
1 8 donor
1 9 donor
6 18 19 20 24 25 26 rings
6 23 27 28 29 30 31 rings

> <PUBCHEM_HEAVY_ATOM_COUNT>
31

> <PUBCHEM_ATOM_DEF_STEREO_COUNT>
1

> <PUBCHEM_ATOM_UDEF_STEREO_COUNT>
0

> <PUBCHEM_BOND_DEF_STEREO_COUNT>
0

> <PUBCHEM_BOND_UDEF_STEREO_COUNT>
0

> <PUBCHEM_ISOTOPIC_ATOM_COUNT>
0

> <PUBCHEM_COMPONENT_COUNT>
1

> <PUBCHEM_CACTVS_TAUTO_COUNT>
12

> <PUBCHEM_CONFORMER_ID>
00020C9F00000001

> <PUBCHEM_MMFF94_ENERGY>
72.6883

> <PUBCHEM_FEATURE_SELFOVERLAP>
61.03

> <PUBCHEM_SHAPE_FINGERPRINT>
10454371 7 18262521386240277340
11991303 11 17754723945163770229
12166972 35 18199747119494163473
12645989 146 18338515356892010103
13540713 4 18200292378525649000
13540713 5 17605822622122264138
13617811 41 18260545658882440202
13673619 4 18131353020901266122
13690498 29 18410853252530802404
13782708 43 18131066022602069122
14117953 113 18340195376505118775
14340393 91 18407759231353673640
14347332 77 18337671919877923474
14556957 393 17822871822272352036
15198563 99 18260829271803935868
15276724 80 18410859893252349468
16090146 7 16950578661727506098
16991971 28 18337391655528706323
16994733 274 12829478272914040334
20554085 129 7997699653521913604
21424621 283 8430327843572166102
22224240 67 9727642704317661075
23522609 53 17914088432458188448
23559900 14 18048308140453688939
255183 451 18193554691281236167
4107672 100 18336831875181586320
44426701 291 15623929968956263893
513202 73 18411698755593002522
5758199 1 8935010269296069323
5969126 39 18408887325788006724
6058803 2 17462269245875791616

> <PUBCHEM_SHAPE_MULTIPOLES>
577.84
22.97
5.28
1.48
29.09
7.32
0.14
-25.51
-7.82
-10.79
-2.69
0.9
0.18
0.61

> <PUBCHEM_SHAPE_SELFOVERLAP>
1203.795

> <PUBCHEM_SHAPE_VOLUME>
325.3

> <PUBCHEM_COORDINATE_TYPE>
2
5
10

$$$$
