134384
  -OEChem-03292013323D

 51 50  0     1  0  0  0  0  0999 V2000
   -2.4759    3.5997   -0.4600 S   0  0  0  0  0  0  0  0  0  0  0  0
    0.8414   -0.7188   -1.9434 O   0  0  0  0  0  0  0  0  0  0  0  0
    4.5086   -1.9720    0.7439 O   0  0  0  0  0  0  0  0  0  0  0  0
    5.7849   -0.7767   -0.6895 O   0  0  0  0  0  0  0  0  0  0  0  0
   -2.3537   -1.3316    1.7527 O   0  0  0  0  0  0  0  0  0  0  0  0
   -6.4886   -0.7084   -0.5924 O   0  0  0  0  0  0  0  0  0  0  0  0
    2.2178   -0.9240   -0.0858 N   0  0  0  0  0  0  0  0  0  0  0  0
   -1.3325   -1.1843   -0.3259 N   0  0  0  0  0  0  0  0  0  0  0  0
   -4.6891   -0.3628    0.8613 N   0  0  0  0  0  0  0  0  0  0  0  0
    3.4435    1.1705   -0.5553 C   0  0  0  0  0  0  0  0  0  0  0  0
    3.1599    1.7848    0.8343 C   0  0  0  0  0  0  0  0  0  0  0  0
    3.4013   -0.3599   -0.6813 C   0  0  1  0  0  0  0  0  0  0  0  0
   -0.0593   -1.7277    0.0677 C   0  0  2  0  0  0  0  0  0  0  0  0
    4.1974    1.2657    1.8371 C   0  0  0  0  0  0  0  0  0  0  0  0
    3.1623    3.3117    0.8464 C   0  0  0  0  0  0  0  0  0  0  0  0
   -3.6141   -0.3980   -0.0965 C   0  0  1  0  0  0  0  0  0  0  0  0
    1.0183   -1.0589   -0.7756 C   0  0  0  0  0  0  0  0  0  0  0  0
   -3.3228    0.9869   -0.6905 C   0  0  0  0  0  0  0  0  0  0  0  0
    4.6837   -1.0287   -0.2122 C   0  0  0  0  0  0  0  0  0  0  0  0
   -2.3909   -1.0285    0.5619 C   0  0  0  0  0  0  0  0  0  0  0  0
   -0.0252   -3.2383   -0.1050 C   0  0  0  0  0  0  0  0  0  0  0  0
   -2.8024    1.9977    0.3341 C   0  0  0  0  0  0  0  0  0  0  0  0
   -6.0167   -0.5208    0.5217 C   0  0  0  0  0  0  0  0  0  0  0  0
   -0.8479    3.2224   -1.1477 C   0  0  0  0  0  0  0  0  0  0  0  0
    4.4103    1.5414   -0.9205 H   0  0  0  0  0  0  0  0  0  0  0  0
    2.6901    1.5798   -1.2430 H   0  0  0  0  0  0  0  0  0  0  0  0
    2.1665    1.4622    1.1702 H   0  0  0  0  0  0  0  0  0  0  0  0
    3.3548   -0.5996   -1.7527 H   0  0  0  0  0  0  0  0  0  0  0  0
    0.1049   -1.4845    1.1243 H   0  0  0  0  0  0  0  0  0  0  0  0
    2.2734   -1.2348    0.8797 H   0  0  0  0  0  0  0  0  0  0  0  0
    5.2199    1.4003    1.4692 H   0  0  0  0  0  0  0  0  0  0  0  0
    4.0369    0.2112    2.0722 H   0  0  0  0  0  0  0  0  0  0  0  0
    4.1151    1.8046    2.7881 H   0  0  0  0  0  0  0  0  0  0  0  0
    4.1411    3.7078    0.5557 H   0  0  0  0  0  0  0  0  0  0  0  0
    2.4184    3.7028    0.1447 H   0  0  0  0  0  0  0  0  0  0  0  0
    2.9195    3.6983    1.8418 H   0  0  0  0  0  0  0  0  0  0  0  0
   -3.9201   -1.0640   -0.9139 H   0  0  0  0  0  0  0  0  0  0  0  0
   -4.2468    1.3738   -1.1413 H   0  0  0  0  0  0  0  0  0  0  0  0
   -2.6031    0.8811   -1.5101 H   0  0  0  0  0  0  0  0  0  0  0  0
   -1.4704   -0.9568   -1.3063 H   0  0  0  0  0  0  0  0  0  0  0  0
   -0.8004   -3.7212    0.4992 H   0  0  0  0  0  0  0  0  0  0  0  0
    0.9462   -3.6454    0.1949 H   0  0  0  0  0  0  0  0  0  0  0  0
   -0.1938   -3.5212   -1.1504 H   0  0  0  0  0  0  0  0  0  0  0  0
   -3.5579    2.1668    1.1082 H   0  0  0  0  0  0  0  0  0  0  0  0
   -1.8949    1.6479    0.8355 H   0  0  0  0  0  0  0  0  0  0  0  0
   -4.4622   -0.1957    1.8376 H   0  0  0  0  0  0  0  0  0  0  0  0
    5.3555   -2.3944    1.0019 H   0  0  0  0  0  0  0  0  0  0  0  0
   -6.6554   -0.4533    1.4178 H   0  0  0  0  0  0  0  0  0  0  0  0
   -0.4470    4.1197   -1.6270 H   0  0  0  0  0  0  0  0  0  0  0  0
   -0.9132    2.4342   -1.9014 H   0  0  0  0  0  0  0  0  0  0  0  0
   -0.1567    2.9191   -0.3569 H   0  0  0  0  0  0  0  0  0  0  0  0
  1 22  1  0  0  0  0
  1 24  1  0  0  0  0
  2 17  2  0  0  0  0
  3 19  1  0  0  0  0
  3 47  1  0  0  0  0
  4 19  2  0  0  0  0
  5 20  2  0  0  0  0
  6 23  2  0  0  0  0
  7 12  1  0  0  0  0
  7 17  1  0  0  0  0
  7 30  1  0  0  0  0
  8 13  1  0  0  0  0
  8 20  1  0  0  0  0
  8 40  1  0  0  0  0
  9 16  1  0  0  0  0
  9 23  1  0  0  0  0
  9 46  1  0  0  0  0
 10 11  1  0  0  0  0
 10 12  1  0  0  0  0
 10 25  1  0  0  0  0
 10 26  1  0  0  0  0
 11 14  1  0  0  0  0
 11 15  1  0  0  0  0
 11 27  1  0  0  0  0
 12 19  1  0  0  0  0
 12 28  1  0  0  0  0
 13 17  1  0  0  0  0
 13 21  1  0  0  0  0
 13 29  1  0  0  0  0
 14 31  1  0  0  0  0
 14 32  1  0  0  0  0
 14 33  1  0  0  0  0
 15 34  1  0  0  0  0
 15 35  1  0  0  0  0
 15 36  1  0  0  0  0
 16 18  1  0  0  0  0
 16 20  1  0  0  0  0
 16 37  1  0  0  0  0
 18 22  1  0  0  0  0
 18 38  1  0  0  0  0
 18 39  1  0  0  0  0
 21 41  1  0  0  0  0
 21 42  1  0  0  0  0
 21 43  1  0  0  0  0
 22 44  1  0  0  0  0
 22 45  1  0  0  0  0
 23 48  1  0  0  0  0
 24 49  1  0  0  0  0
 24 50  1  0  0  0  0
 24 51  1  0  0  0  0
M  END
> <PUBCHEM_COMPOUND_CID>
134384

> <PUBCHEM_CONFORMER_RMSD>
1.2

> <PUBCHEM_CONFORMER_DIVERSEORDER>
1
47
6
9
15
2
40
8
36
24
39
13
31
23
19
37
38
21
12
16
10
28
4
48
32
11
17
43
27
42
41
3
25
14
5
18
30
44
29
7
45
35
33
46
26
34
20
22

> <PUBCHEM_MMFF94_PARTIAL_CHARGES>
23
1 -0.46
12 0.36
13 0.36
16 0.36
17 0.57
19 0.66
2 -0.57
20 0.57
22 0.23
23 0.57
24 0.23
3 -0.65
30 0.37
4 -0.57
40 0.37
46 0.37
47 0.5
48 0.06
5 -0.57
6 -0.57
7 -0.73
8 -0.73
9 -0.73

> <PUBCHEM_EFFECTIVE_ROTOR_COUNT>
14

> <PUBCHEM_PHARMACOPHORE_FEATURES>
11
1 2 acceptor
1 24 hydrophobe
1 3 acceptor
1 4 acceptor
1 5 acceptor
1 6 acceptor
1 7 donor
1 8 donor
1 9 donor
3 11 14 15 hydrophobe
3 3 4 19 anion

> <PUBCHEM_HEAVY_ATOM_COUNT>
24

> <PUBCHEM_ATOM_DEF_STEREO_COUNT>
3

> <PUBCHEM_ATOM_UDEF_STEREO_COUNT>
0

> <PUBCHEM_BOND_DEF_STEREO_COUNT>
0

> <PUBCHEM_BOND_UDEF_STEREO_COUNT>
0

> <PUBCHEM_ISOTOPIC_ATOM_COUNT>
0

> <PUBCHEM_COMPONENT_COUNT>
1

> <PUBCHEM_CACTVS_TAUTO_COUNT>
8

> <PUBCHEM_CONFORMER_ID>
00020CF000000001

> <PUBCHEM_MMFF94_ENERGY>
42.1458

> <PUBCHEM_FEATURE_SELFOVERLAP>
55.884

> <PUBCHEM_SHAPE_FINGERPRINT>
10366900 7 18260841375132129338
10670039 82 18189072922961848772
12107183 9 17393879557829373530
12166972 35 17632580431411241938
12403259 226 18265615385910810644
12403259 415 18410289203060686637
12403260 363 18409730625489363663
12596602 18 16298961964274465344
12645989 146 18343024363282099366
13402501 40 18411981351472002253
13533116 47 18041555854210158907
14251764 38 18342739615466384408
14466204 15 18266453205708879090
15840311 113 17773621364244902537
19319366 153 13542468614075363189
21033648 144 18129654326691051502
21033648 29 18334849528530527828
21279426 13 18051700945437202718
21315764 268 18410851057897777996
221357 26 18413672391991985772
23402539 116 18410292506655655831
23557571 272 18261399910238718757
23559900 14 17968104156557857850
350125 39 18410859832637354548
351380 180 18412265029824633223
3524813 1 18342738502895514825
392239 28 18339370660752691777
508706 21 18263353698982917412

> <PUBCHEM_SHAPE_MULTIPOLES>
453.47
12.42
3.85
1.29
4.51
3
-0.16
-1.49
-1.71
-0.29
0.13
-0.54
0.22
1.65

> <PUBCHEM_SHAPE_SELFOVERLAP>
862.718

> <PUBCHEM_SHAPE_VOLUME>
280.1

> <PUBCHEM_COORDINATE_TYPE>
2
5
10

$$$$
