134307
  -OEChem-03292013323D

 45 47  0     0  0  0  0  0  0999 V2000
    6.3192   -2.5495    0.7091 S   0  3  0  0  0  0  0  0  0  0  0  0
   -0.3819    2.5181    1.0876 S   0  0  0  0  0  0  0  0  0  0  0  0
   -2.6683   -1.5779   -1.3517 S   0  0  0  0  0  0  0  0  0  0  0  0
    4.0110    2.7865    0.2557 O   0  0  0  0  0  0  0  0  0  0  0  0
    3.7044    0.9064   -1.0682 N   0  0  0  0  0  0  0  0  0  0  0  0
    1.0435    0.9531   -0.3961 N   0  0  0  0  0  0  0  0  0  0  0  0
   -2.5796    0.5194    0.1570 N   0  0  0  0  0  0  0  0  0  0  0  0
    5.8795   -0.1276   -0.5280 C   0  0  0  0  0  0  0  0  0  0  0  0
    5.3293   -1.5473   -0.4444 C   0  0  0  0  0  0  0  0  0  0  0  0
    5.0749    0.7576   -1.4748 C   0  0  0  0  0  0  0  0  0  0  0  0
    5.4058   -4.0884    0.4609 C   0  0  0  0  0  0  0  0  0  0  0  0
    5.4528   -2.0317    2.2078 C   0  0  0  0  0  0  0  0  0  0  0  0
    3.2785    1.9247   -0.2230 C   0  0  0  0  0  0  0  0  0  0  0  0
    1.8339    1.9255    0.1238 C   0  0  0  0  0  0  0  0  0  0  0  0
   -0.1741    1.1661    0.0512 C   0  0  0  0  0  0  0  0  0  0  0  0
   -1.3061    0.2881   -0.3180 C   0  0  0  0  0  0  0  0  0  0  0  0
    1.2917    2.8605    0.9361 C   0  0  0  0  0  0  0  0  0  0  0  0
   -3.3823   -0.4040   -0.3236 C   0  0  0  0  0  0  0  0  0  0  0  0
   -4.7974   -0.4939   -0.0504 C   0  0  0  0  0  0  0  0  0  0  0  0
   -1.1538   -0.7995   -1.1480 C   0  0  0  0  0  0  0  0  0  0  0  0
   -5.4890    0.6253    0.4112 C   0  0  0  0  0  0  0  0  0  0  0  0
   -5.4700   -1.6992   -0.2476 C   0  0  0  0  0  0  0  0  0  0  0  0
   -6.8557    0.5390    0.6763 C   0  0  0  0  0  0  0  0  0  0  0  0
   -6.8368   -1.7853    0.0174 C   0  0  0  0  0  0  0  0  0  0  0  0
   -7.5296   -0.6661    0.4794 C   0  0  0  0  0  0  0  0  0  0  0  0
    5.8892    0.3316    0.4681 H   0  0  0  0  0  0  0  0  0  0  0  0
    6.9218   -0.1544   -0.8696 H   0  0  0  0  0  0  0  0  0  0  0  0
    4.2784   -1.5626   -0.1399 H   0  0  0  0  0  0  0  0  0  0  0  0
    5.4010   -2.0225   -1.4289 H   0  0  0  0  0  0  0  0  0  0  0  0
    5.5406    1.7474   -1.5356 H   0  0  0  0  0  0  0  0  0  0  0  0
    5.0699    0.3292   -2.4829 H   0  0  0  0  0  0  0  0  0  0  0  0
    3.0268    0.2302   -1.4089 H   0  0  0  0  0  0  0  0  0  0  0  0
    5.6558   -4.4922   -0.5234 H   0  0  0  0  0  0  0  0  0  0  0  0
    4.3270   -3.9255    0.5231 H   0  0  0  0  0  0  0  0  0  0  0  0
    5.7096   -4.8060    1.2271 H   0  0  0  0  0  0  0  0  0  0  0  0
    5.7580   -2.6852    3.0294 H   0  0  0  0  0  0  0  0  0  0  0  0
    4.3682   -2.0901    2.0885 H   0  0  0  0  0  0  0  0  0  0  0  0
    5.7385   -1.0060    2.4526 H   0  0  0  0  0  0  0  0  0  0  0  0
    1.7449    3.7018    1.4412 H   0  0  0  0  0  0  0  0  0  0  0  0
   -0.2642   -1.1742   -1.6351 H   0  0  0  0  0  0  0  0  0  0  0  0
   -4.9863    1.5763    0.5696 H   0  0  0  0  0  0  0  0  0  0  0  0
   -4.9863   -2.6130   -0.5784 H   0  0  0  0  0  0  0  0  0  0  0  0
   -7.3955    1.4103    1.0357 H   0  0  0  0  0  0  0  0  0  0  0  0
   -7.3614   -2.7250   -0.1297 H   0  0  0  0  0  0  0  0  0  0  0  0
   -8.5935   -0.7337    0.6871 H   0  0  0  0  0  0  0  0  0  0  0  0
  1  9  1  0  0  0  0
  1 11  1  0  0  0  0
  1 12  1  0  0  0  0
  2 15  1  0  0  0  0
  2 17  1  0  0  0  0
  3 18  1  0  0  0  0
  3 20  1  0  0  0  0
  4 13  2  0  0  0  0
  5 10  1  0  0  0  0
  5 13  1  0  0  0  0
  5 32  1  0  0  0  0
  6 14  1  0  0  0  0
  6 15  2  0  0  0  0
  7 16  1  0  0  0  0
  7 18  2  0  0  0  0
  8  9  1  0  0  0  0
  8 10  1  0  0  0  0
  8 26  1  0  0  0  0
  8 27  1  0  0  0  0
  9 28  1  0  0  0  0
  9 29  1  0  0  0  0
 10 30  1  0  0  0  0
 10 31  1  0  0  0  0
 11 33  1  0  0  0  0
 11 34  1  0  0  0  0
 11 35  1  0  0  0  0
 12 36  1  0  0  0  0
 12 37  1  0  0  0  0
 12 38  1  0  0  0  0
 13 14  1  0  0  0  0
 14 17  2  0  0  0  0
 15 16  1  0  0  0  0
 16 20  2  0  0  0  0
 17 39  1  0  0  0  0
 18 19  1  0  0  0  0
 19 21  2  0  0  0  0
 19 22  1  0  0  0  0
 20 40  1  0  0  0  0
 21 23  1  0  0  0  0
 21 41  1  0  0  0  0
 22 24  2  0  0  0  0
 22 42  1  0  0  0  0
 23 25  2  0  0  0  0
 23 43  1  0  0  0  0
 24 25  1  0  0  0  0
 24 44  1  0  0  0  0
 25 45  1  0  0  0  0
M  CHG  1   1   1
M  END
> <PUBCHEM_COMPOUND_CID>
134307

> <PUBCHEM_CONFORMER_RMSD>
0.8

> <PUBCHEM_CONFORMER_DIVERSEORDER>
1
218
152
24
113
141
203
317
37
236
183
297
119
204
303
18
120
188
99
312
121
13
154
92
184
296
157
315
25
271
209
239
260
27
83
127
58
63
35
60
268
174
30
278
293
61
249
32
238
42
67
298
213
28
208
196
192
309
6
34
229
280
102
257
305
217
43
167
97
279
289
107
258
291
175
193
9
104
226
242
101
53
76
79
277
17
125
100
156
210
172
190
205
26
267
11
46
246
68
222
195
281
165
266
259
74
115
103
88
177
108
65
276
176
191
137
10
14
273
225
173
304
40
110
54
123
201
264
129
153
288
70
301
311
66
181
128
16
166
150
136
45
41
179
295
149
143
48
178
51
212
228
245
270
227
251
86
161
306
2
285
223
164
247
248
160
199
8
109
134
158
29
283
23
318
269
235
290
155
84
214
91
49
20
308
124
261
44
262
135
302
202
159
72
300
197
231
4
215
170
106
93
62
80
114
307
15
59
146
52
117
219
286
81
144
12
47
314
133
200
287
64
294
207
194
140
19
38
139
111
138
130
284
21
211
105
274
148
85
71
263
142
36
75
185
33
126
313
151
216
69
256
31
316
250
89
39
310
186
22
237
73
243
189
198
112
77
187
122
224
253
98
116
163
233
171
232
206
234
132
240
78
3
292
241
169
168
7
94
221
145
82
95
57
182
90
162
244
220
87
255
252
275
180
254
55
282
56
50
147
265
5
230
299
131
96
272
118

> <PUBCHEM_EFFECTIVE_ROTOR_COUNT>
8

> <PUBCHEM_PHARMACOPHORE_FEATURES>
7
1 4 acceptor
1 5 donor
1 6 acceptor
1 7 acceptor
5 2 6 14 15 17 rings
5 3 7 16 18 20 rings
6 19 21 22 23 24 25 rings

> <PUBCHEM_HEAVY_ATOM_COUNT>
25

> <PUBCHEM_ATOM_DEF_STEREO_COUNT>
0

> <PUBCHEM_ATOM_UDEF_STEREO_COUNT>
0

> <PUBCHEM_BOND_DEF_STEREO_COUNT>
0

> <PUBCHEM_BOND_UDEF_STEREO_COUNT>
0

> <PUBCHEM_ISOTOPIC_ATOM_COUNT>
0

> <PUBCHEM_COMPONENT_COUNT>
1

> <PUBCHEM_CACTVS_TAUTO_COUNT>
2

> <PUBCHEM_CONFORMER_ID>
00020CA300000001

> <PUBCHEM_MMFF94_ENERGY>
38.4215

> <PUBCHEM_FEATURE_SELFOVERLAP>
35.522

> <PUBCHEM_SHAPE_FINGERPRINT>
10939801 23 18131349756874105952
11374522 174 11526791224880008210
11374522 72 12463562998092822602
11409948 35 18187360988085560195
12047536 79 16916778561987958352
12107183 9 18202004330713465911
12821665 9 8934705696565255705
13533116 47 18334577949654098890
13782708 43 18113614582213949783
14251764 18 17988365974009238693
14347332 77 18335137553353782292
14428016 204 12823003258123880522
15183329 4 18130799974836681669
15352257 5 17821731662747317915
15475509 35 18413100659405256136
16728300 4 18267860575860031166
17134984 74 17530966878661714554
1979834 28 17346601833767431238
19841028 212 18260829242657094754
20567600 234 12319732574779590194
208703 8 18264485092980976586
21267235 1 18131082544951055276
21304303 94 17967254213475511402
21344244 181 17385729097001857842
21641784 216 14201386171261559055
23522609 53 18122096227796366709
23559900 14 18114464582475537203
23569943 247 18260546672020612403
3004659 81 18272662276525056260
3014965 18 18408884040306681109
335352 9 17988369268829436149
345986 75 18059857247124504400
34797466 226 16081372989846296756
3680242 22 18341899571608427558
3886686 26 17192076259046115082
397830 11 12966838096156018357
4073 2 18121783000130756488
439807 62 18261114058226259062
5104073 3 17774446121881267787
513202 73 18114745936940430461
54039377 194 18336549309964047942
9849439 229 8502074225155168958
9965369 4 18130795568590489713

> <PUBCHEM_SHAPE_MULTIPOLES>
505.22
20.79
3.64
1.28
11.01
0.74
0.19
15.74
3.44
-6.62
1.15
-1.5
0.29
-2.46

> <PUBCHEM_SHAPE_SELFOVERLAP>
1029.85

> <PUBCHEM_SHAPE_VOLUME>
296.7

> <PUBCHEM_COORDINATE_TYPE>
2
5
10

$$$$
