134364
  -OEChem-03292013323D

 32 33  0     1  0  0  0  0  0999 V2000
   -0.7267   -1.6442    0.5666 O   0  0  0  0  0  0  0  0  0  0  0  0
   -0.9467    1.0890   -0.6506 O   0  0  0  0  0  0  0  0  0  0  0  0
   -2.7796    0.0091    2.2594 O   0  0  0  0  0  0  0  0  0  0  0  0
   -2.2424   -3.0782   -1.2794 O   0  0  0  0  0  0  0  0  0  0  0  0
    2.0907    0.7416    2.3372 O   0  0  0  0  0  0  0  0  0  0  0  0
   -2.3743    2.7095   -0.1662 O   0  5  0  0  0  0  0  0  0  0  0  0
   -2.2833    1.9673   -2.2668 O   0  0  0  0  0  0  0  0  0  0  0  0
    1.1852   -0.2911    0.4823 N   0  0  0  0  0  0  0  0  0  0  0  0
   -1.9550    1.9962   -1.0785 N   0  3  0  0  0  0  0  0  0  0  0  0
    3.4918    0.4240    0.5800 N   0  0  0  0  0  0  0  0  0  0  0  0
    4.9217    0.0972   -1.2246 N   0  0  0  0  0  0  0  0  0  0  0  0
   -1.0821    0.6896    0.7082 C   0  0  1  0  0  0  0  0  0  0  0  0
   -2.4241    0.0090    0.8786 C   0  0  1  0  0  0  0  0  0  0  0  0
   -0.1212   -0.4383    1.0508 C   0  0  1  0  0  0  0  0  0  0  0  0
   -2.1492   -1.4341    0.4519 C   0  0  1  0  0  0  0  0  0  0  0  0
   -2.5486   -1.7255   -0.9877 C   0  0  0  0  0  0  0  0  0  0  0  0
    1.4114   -0.7561   -0.8062 C   0  0  0  0  0  0  0  0  0  0  0  0
    2.2549    0.3156    1.1925 C   0  0  0  0  0  0  0  0  0  0  0  0
    2.5928   -0.6603   -1.4132 C   0  0  0  0  0  0  0  0  0  0  0  0
    3.6848   -0.0204   -0.6342 C   0  0  0  0  0  0  0  0  0  0  0  0
   -0.9034    1.5411    1.3759 H   0  0  0  0  0  0  0  0  0  0  0  0
   -3.2774    0.4251    0.3395 H   0  0  0  0  0  0  0  0  0  0  0  0
   -0.0300   -0.5417    2.1389 H   0  0  0  0  0  0  0  0  0  0  0  0
   -2.6290   -2.1592    1.1197 H   0  0  0  0  0  0  0  0  0  0  0  0
   -1.9924   -1.1052   -1.6960 H   0  0  0  0  0  0  0  0  0  0  0  0
   -3.6214   -1.5683   -1.1353 H   0  0  0  0  0  0  0  0  0  0  0  0
   -2.1169   -0.4964    2.7586 H   0  0  0  0  0  0  0  0  0  0  0  0
    0.5793   -1.2016   -1.3389 H   0  0  0  0  0  0  0  0  0  0  0  0
   -2.5101   -3.2408   -2.1999 H   0  0  0  0  0  0  0  0  0  0  0  0
    2.7715   -1.0152   -2.4193 H   0  0  0  0  0  0  0  0  0  0  0  0
    5.1030   -0.2380   -2.1650 H   0  0  0  0  0  0  0  0  0  0  0  0
    5.6959    0.5270   -0.7299 H   0  0  0  0  0  0  0  0  0  0  0  0
  1 14  1  0  0  0  0
  1 15  1  0  0  0  0
  2  9  1  0  0  0  0
  2 12  1  0  0  0  0
  3 13  1  0  0  0  0
  3 27  1  0  0  0  0
  4 16  1  0  0  0  0
  4 29  1  0  0  0  0
  5 18  2  0  0  0  0
  6  9  1  0  0  0  0
  7  9  2  0  0  0  0
  8 14  1  0  0  0  0
  8 17  1  0  0  0  0
  8 18  1  0  0  0  0
 10 18  1  0  0  0  0
 10 20  2  0  0  0  0
 11 20  1  0  0  0  0
 11 31  1  0  0  0  0
 11 32  1  0  0  0  0
 12 13  1  0  0  0  0
 12 14  1  0  0  0  0
 12 21  1  0  0  0  0
 13 15  1  0  0  0  0
 13 22  1  0  0  0  0
 14 23  1  0  0  0  0
 15 16  1  0  0  0  0
 15 24  1  0  0  0  0
 16 25  1  0  0  0  0
 16 26  1  0  0  0  0
 17 19  2  0  0  0  0
 17 28  1  0  0  0  0
 19 20  1  0  0  0  0
 19 30  1  0  0  0  0
M  CHG  2   6  -1   9   1
M  END
> <PUBCHEM_COMPOUND_CID>
134364

> <PUBCHEM_CONFORMER_RMSD>
0.8

> <PUBCHEM_CONFORMER_DIVERSEORDER>
1
9
10
3
6
8
7
4
5
2

> <PUBCHEM_MMFF94_PARTIAL_CHARGES>
26
1 -0.56
10 -0.66
11 -0.85
12 0.28
13 0.28
14 0.58
15 0.28
16 0.28
17 -0.04
18 0.84
19 -0.14
2 -0.27
20 0.49
27 0.4
28 0.15
29 0.4
3 -0.68
30 0.15
31 0.4
32 0.4
4 -0.68
5 -0.57
6 -0.52
7 -0.52
8 -0.47
9 1.03

> <PUBCHEM_EFFECTIVE_ROTOR_COUNT>
5

> <PUBCHEM_PHARMACOPHORE_FEATURES>
12
1 1 acceptor
1 10 donor
1 11 donor
1 3 acceptor
1 3 donor
1 4 acceptor
1 4 donor
1 5 acceptor
1 6 acceptor
1 7 acceptor
5 1 12 13 14 15 rings
6 8 10 17 18 19 20 rings

> <PUBCHEM_HEAVY_ATOM_COUNT>
20

> <PUBCHEM_ATOM_DEF_STEREO_COUNT>
4

> <PUBCHEM_ATOM_UDEF_STEREO_COUNT>
0

> <PUBCHEM_BOND_DEF_STEREO_COUNT>
0

> <PUBCHEM_BOND_UDEF_STEREO_COUNT>
0

> <PUBCHEM_ISOTOPIC_ATOM_COUNT>
0

> <PUBCHEM_COMPONENT_COUNT>
1

> <PUBCHEM_CACTVS_TAUTO_COUNT>
3

> <PUBCHEM_CONFORMER_ID>
00020CDC00000001

> <PUBCHEM_MMFF94_ENERGY>
66.6431

> <PUBCHEM_FEATURE_SELFOVERLAP>
61.02

> <PUBCHEM_SHAPE_FINGERPRINT>
11640471 11 17241592949358872596
12138202 97 18339351964163563654
12173636 292 17773613623605896177
12403814 3 18263100901591700755
12932764 1 18411700976354735130
13583140 156 17842240836498100162
13764800 53 18188778219159292233
14142880 1 16443068291985680101
14614273 12 18411417302281123347
14787075 74 15941232669438339408
16945 1 18186798131713629642
17357779 13 17772447226806133783
1813 80 18050000288521976391
18186145 218 18131639967666155544
18981168 100 17096935659148485255
20511035 2 17682668533063940307
20525323 117 17894914013987551040
20600515 1 17834377300602493411
21524375 3 17681534953824267213
22112679 90 18120959435930484807
22620623 9 18270664463939221663
23402539 116 18113907103915097998
23419403 2 16980072142214267771
23557571 272 18197198442349799721
23559900 14 17346034592566486098
3268164 11 18333732446492049196
3286 77 17346041202753171770
5845 1 12501621949053650921
633830 44 16733278859110480286
7615 1 17241308227756112512
81228 2 18336541707349038571

> <PUBCHEM_SHAPE_MULTIPOLES>
350.58
6.32
2.21
1.93
6.52
0.52
0.06
0.2
1.33
-2.77
1.01
-0.56
-0.8
0.96

> <PUBCHEM_SHAPE_SELFOVERLAP>
738.356

> <PUBCHEM_SHAPE_VOLUME>
195.8

> <PUBCHEM_COORDINATE_TYPE>
2
5
10

$$$$
