134339
  -OEChem-03292013323D

 37 37  0     1  0  0  0  0  0999 V2000
   -1.4346    3.0226    0.8132 O   0  5  0  0  0  0  0  0  0  0  0  0
    0.4366    1.9896    1.3143 O   0  0  0  0  0  0  0  0  0  0  0  0
   -5.1065   -1.5877   -1.0993 O   0  5  0  0  0  0  0  0  0  0  0  0
   -5.2218    0.5881   -0.8312 O   0  0  0  0  0  0  0  0  0  0  0  0
    3.7803   -0.8393   -0.6575 N   0  0  1  0  0  0  0  0  0  0  0  0
    0.7254   -0.4687    1.0681 N   0  0  0  0  0  0  0  0  0  0  0  0
   -0.7477    1.9781    0.9041 N   0  3  0  0  0  0  0  0  0  0  0  0
   -4.5897   -0.4938   -0.7666 N   0  3  0  0  0  0  0  0  0  0  0  0
    2.9454   -1.3297    1.6237 C   0  0  0  0  0  0  0  0  0  0  0  0
    3.6874   -0.3478    0.7117 C   0  0  0  0  0  0  0  0  0  0  0  0
    1.5241   -1.6659    1.1736 C   0  0  0  0  0  0  0  0  0  0  0  0
   -0.5857   -0.4550    0.6185 C   0  0  0  0  0  0  0  0  0  0  0  0
    4.3834    0.1711   -1.5286 C   0  0  0  0  0  0  0  0  0  0  0  0
    4.5549   -2.0807   -0.7083 C   0  0  0  0  0  0  0  0  0  0  0  0
   -1.3329    0.7364    0.5292 C   0  0  0  0  0  0  0  0  0  0  0  0
   -1.2079   -1.6584    0.2341 C   0  0  0  0  0  0  0  0  0  0  0  0
   -2.6511    0.7238    0.0732 C   0  0  0  0  0  0  0  0  0  0  0  0
   -3.2477   -0.4799   -0.3022 C   0  0  0  0  0  0  0  0  0  0  0  0
   -2.5260   -1.6710   -0.2219 C   0  0  0  0  0  0  0  0  0  0  0  0
    3.6184    1.4211   -1.4887 C   0  0  0  0  0  0  0  0  0  0  0  0
    2.9957    2.4473   -1.4595 C   0  0  0  0  0  0  0  0  0  0  0  0
    3.5154   -2.2555    1.7604 H   0  0  0  0  0  0  0  0  0  0  0  0
    2.8938   -0.8750    2.6227 H   0  0  0  0  0  0  0  0  0  0  0  0
    4.6872   -0.1680    1.1306 H   0  0  0  0  0  0  0  0  0  0  0  0
    3.1599    0.6089    0.7762 H   0  0  0  0  0  0  0  0  0  0  0  0
    1.0813   -2.3465    1.9107 H   0  0  0  0  0  0  0  0  0  0  0  0
    1.5643   -2.1918    0.2129 H   0  0  0  0  0  0  0  0  0  0  0  0
    1.0981    0.3739    1.4844 H   0  0  0  0  0  0  0  0  0  0  0  0
    5.4247    0.3683   -1.2425 H   0  0  0  0  0  0  0  0  0  0  0  0
    4.3961   -0.1944   -2.5628 H   0  0  0  0  0  0  0  0  0  0  0  0
    4.0288   -2.9121   -0.2297 H   0  0  0  0  0  0  0  0  0  0  0  0
    5.5445   -1.9747   -0.2490 H   0  0  0  0  0  0  0  0  0  0  0  0
    4.7016   -2.3948   -1.7488 H   0  0  0  0  0  0  0  0  0  0  0  0
   -0.6895   -2.6122    0.2820 H   0  0  0  0  0  0  0  0  0  0  0  0
   -3.2175    1.6499    0.0086 H   0  0  0  0  0  0  0  0  0  0  0  0
   -2.9590   -2.6270   -0.5052 H   0  0  0  0  0  0  0  0  0  0  0  0
    2.4413    3.3561   -1.4314 H   0  0  0  0  0  0  0  0  0  0  0  0
  1  7  1  0  0  0  0
  2  7  2  0  0  0  0
  3  8  1  0  0  0  0
  4  8  2  0  0  0  0
  5 10  1  0  0  0  0
  5 13  1  0  0  0  0
  5 14  1  0  0  0  0
  6 11  1  0  0  0  0
  6 12  1  0  0  0  0
  6 28  1  0  0  0  0
  7 15  1  0  0  0  0
  8 18  1  0  0  0  0
  9 10  1  0  0  0  0
  9 11  1  0  0  0  0
  9 22  1  0  0  0  0
  9 23  1  0  0  0  0
 10 24  1  0  0  0  0
 10 25  1  0  0  0  0
 11 26  1  0  0  0  0
 11 27  1  0  0  0  0
 12 15  2  0  0  0  0
 12 16  1  0  0  0  0
 13 20  1  0  0  0  0
 13 29  1  0  0  0  0
 13 30  1  0  0  0  0
 14 31  1  0  0  0  0
 14 32  1  0  0  0  0
 14 33  1  0  0  0  0
 15 17  1  0  0  0  0
 16 19  2  0  0  0  0
 16 34  1  0  0  0  0
 17 18  2  0  0  0  0
 17 35  1  0  0  0  0
 18 19  1  0  0  0  0
 19 36  1  0  0  0  0
 20 21  3  0  0  0  0
 21 37  1  0  0  0  0
M  CHG  4   1  -1   3  -1   7   1   8   1
M  END
> <PUBCHEM_COMPOUND_CID>
134339

> <PUBCHEM_CONFORMER_RMSD>
0.8

> <PUBCHEM_CONFORMER_DIVERSEORDER>
6
79
49
61
88
86
36
68
72
33
30
97
96
47
16
82
73
26
69
93
46
65
64
40
23
28
66
2
55
42
67
18
37
7
70
75
87
8
54
52
13
50
44
60
45
89
57
59
92
20
3
27
76
62
81
15
58
41
83
51
22
21
34
39
48
29
32
63
14
43
10
84
17
31
53
24
5
94
19
38
9
35
85
1
25
4
78
11
71
12
91
80
90
77
95
56
74

> <PUBCHEM_MMFF94_PARTIAL_CHARGES>
25
1 -0.52
10 0.27
11 0.37
12 0.1
13 0.47
14 0.27
15 0.13
16 -0.15
17 -0.15
18 0.13
19 -0.15
2 -0.52
20 -0.2
21 -0.18
28 0.4
3 -0.52
34 0.15
35 0.15
36 0.15
37 0.18
4 -0.52
5 -0.81
6 -0.87
7 0.91
8 0.91

> <PUBCHEM_EFFECTIVE_ROTOR_COUNT>
8

> <PUBCHEM_PHARMACOPHORE_FEATURES>
11
1 1 acceptor
1 1 anion
1 2 acceptor
1 21 hydrophobe
1 3 acceptor
1 3 anion
1 4 acceptor
1 5 cation
1 6 cation
1 6 donor
6 12 15 16 17 18 19 rings

> <PUBCHEM_HEAVY_ATOM_COUNT>
21

> <PUBCHEM_ATOM_DEF_STEREO_COUNT>
0

> <PUBCHEM_ATOM_UDEF_STEREO_COUNT>
0

> <PUBCHEM_BOND_DEF_STEREO_COUNT>
0

> <PUBCHEM_BOND_UDEF_STEREO_COUNT>
0

> <PUBCHEM_ISOTOPIC_ATOM_COUNT>
0

> <PUBCHEM_COMPONENT_COUNT>
1

> <PUBCHEM_CACTVS_TAUTO_COUNT>
1

> <PUBCHEM_CONFORMER_ID>
00020CC300000006

> <PUBCHEM_MMFF94_ENERGY>
69.7883

> <PUBCHEM_FEATURE_SELFOVERLAP>
55.983

> <PUBCHEM_SHAPE_FINGERPRINT>
12035759 4 18335424542983883953
12166972 35 17968362465176962338
12670546 177 18334575763057212519
14790565 3 18340778027157307865
14931854 50 18335715965753822956
15475509 8 17774737359397958137
16752209 62 18342456989253191880
17959699 21 17967249797547452325
1813 80 17060340755559585017
192875 21 18260548914230228216
212916 134 11818992989263177303
23557571 272 17988918943043694090
23559900 14 18413108364323792974
3004659 81 18408317779012829494
474 4 17531251703248230750
495365 180 14562522951758963880
5262128 65 18196400107373000470
537710 114 18408315584131372203
7164475 11 18340771438381712580
9981440 41 17756717699870173304

> <PUBCHEM_SHAPE_MULTIPOLES>
388.77
10.16
2.67
1.51
3.31
1.37
-0.05
-1.96
5.86
-1.25
-0.18
-0.9
0.25
-1.7

> <PUBCHEM_SHAPE_SELFOVERLAP>
793.53

> <PUBCHEM_SHAPE_VOLUME>
225.4

> <PUBCHEM_COORDINATE_TYPE>
2
5
10

$$$$
