134454
  -OEChem-03292013323D

 40 42  0     0  0  0  0  0  0999 V2000
    4.0875    1.7892   -0.0225 O   0  0  0  0  0  0  0  0  0  0  0  0
   -0.0875   -0.4669   -0.5152 O   0  0  0  0  0  0  0  0  0  0  0  0
    6.0804    2.8851    0.2147 O   0  0  0  0  0  0  0  0  0  0  0  0
   -0.2054   -0.6799    1.8027 O   0  0  0  0  0  0  0  0  0  0  0  0
   -6.3442   -0.3093    0.0532 N   0  0  0  0  0  0  0  0  0  0  0  0
   -8.1057    1.1178   -0.7872 N   0  0  0  0  0  0  0  0  0  0  0  0
   -5.9159    1.7497   -0.8721 N   0  0  0  0  0  0  0  0  0  0  0  0
    4.0816   -0.6426   -0.2544 C   0  0  0  0  0  0  0  0  0  0  0  0
    3.3969    0.5715   -0.1846 C   0  0  0  0  0  0  0  0  0  0  0  0
    5.5473   -0.6305   -0.1554 C   0  0  0  0  0  0  0  0  0  0  0  0
    3.3218   -1.8090   -0.4156 C   0  0  0  0  0  0  0  0  0  0  0  0
    2.0055    0.6489   -0.2699 C   0  0  0  0  0  0  0  0  0  0  0  0
    1.2694   -0.5202   -0.4299 C   0  0  0  0  0  0  0  0  0  0  0  0
    1.9263   -1.7474   -0.5026 C   0  0  0  0  0  0  0  0  0  0  0  0
    6.1778    0.5424   -0.0017 C   0  0  0  0  0  0  0  0  0  0  0  0
    6.3128   -1.9194   -0.2270 C   0  0  0  0  0  0  0  0  0  0  0  0
    5.4697    1.8314    0.0739 C   0  0  0  0  0  0  0  0  0  0  0  0
   -2.2199   -0.4985    0.5399 C   0  0  0  0  0  0  0  0  0  0  0  0
   -0.7462   -0.5642    0.7131 C   0  0  0  0  0  0  0  0  0  0  0  0
   -2.9859    0.0442    1.5509 C   0  0  0  0  0  0  0  0  0  0  0  0
   -2.7763   -0.9800   -0.6272 C   0  0  0  0  0  0  0  0  0  0  0  0
   -4.9569   -0.3720    0.2169 C   0  0  0  0  0  0  0  0  0  0  0  0
   -4.3698    0.1081    1.3875 C   0  0  0  0  0  0  0  0  0  0  0  0
   -4.1601   -0.9160   -0.7906 C   0  0  0  0  0  0  0  0  0  0  0  0
   -6.8033    0.7679   -0.4969 C   0  0  0  0  0  0  0  0  0  0  0  0
    3.7931   -2.7865   -0.4770 H   0  0  0  0  0  0  0  0  0  0  0  0
    1.5041    1.6110   -0.2124 H   0  0  0  0  0  0  0  0  0  0  0  0
    1.3583   -2.6657   -0.6282 H   0  0  0  0  0  0  0  0  0  0  0  0
    7.2600    0.5886    0.0748 H   0  0  0  0  0  0  0  0  0  0  0  0
    7.3933   -1.7585   -0.1397 H   0  0  0  0  0  0  0  0  0  0  0  0
    6.1381   -2.4230   -1.1838 H   0  0  0  0  0  0  0  0  0  0  0  0
    6.0201   -2.5915    0.5868 H   0  0  0  0  0  0  0  0  0  0  0  0
   -2.5402    0.4246    2.4650 H   0  0  0  0  0  0  0  0  0  0  0  0
   -2.1786   -1.4197   -1.4199 H   0  0  0  0  0  0  0  0  0  0  0  0
   -4.9819    0.5336    2.1786 H   0  0  0  0  0  0  0  0  0  0  0  0
   -4.6084   -1.2964   -1.7048 H   0  0  0  0  0  0  0  0  0  0  0  0
   -8.8754    0.4944   -0.5693 H   0  0  0  0  0  0  0  0  0  0  0  0
   -8.3318    2.0036   -1.2259 H   0  0  0  0  0  0  0  0  0  0  0  0
   -6.2605    2.6004   -1.3055 H   0  0  0  0  0  0  0  0  0  0  0  0
   -4.9111    1.7064   -0.7553 H   0  0  0  0  0  0  0  0  0  0  0  0
  1  9  1  0  0  0  0
  1 17  1  0  0  0  0
  2 13  1  0  0  0  0
  2 19  1  0  0  0  0
  3 17  2  0  0  0  0
  4 19  2  0  0  0  0
  5 22  1  0  0  0  0
  5 25  2  0  0  0  0
  6 25  1  0  0  0  0
  6 37  1  0  0  0  0
  6 38  1  0  0  0  0
  7 25  1  0  0  0  0
  7 39  1  0  0  0  0
  7 40  1  0  0  0  0
  8  9  2  0  0  0  0
  8 10  1  0  0  0  0
  8 11  1  0  0  0  0
  9 12  1  0  0  0  0
 10 15  2  0  0  0  0
 10 16  1  0  0  0  0
 11 14  2  0  0  0  0
 11 26  1  0  0  0  0
 12 13  2  0  0  0  0
 12 27  1  0  0  0  0
 13 14  1  0  0  0  0
 14 28  1  0  0  0  0
 15 17  1  0  0  0  0
 15 29  1  0  0  0  0
 16 30  1  0  0  0  0
 16 31  1  0  0  0  0
 16 32  1  0  0  0  0
 18 19  1  0  0  0  0
 18 20  2  0  0  0  0
 18 21  1  0  0  0  0
 20 23  1  0  0  0  0
 20 33  1  0  0  0  0
 21 24  2  0  0  0  0
 21 34  1  0  0  0  0
 22 23  2  0  0  0  0
 22 24  1  0  0  0  0
 23 35  1  0  0  0  0
 24 36  1  0  0  0  0
M  END
> <PUBCHEM_COMPOUND_CID>
134454

> <PUBCHEM_CONFORMER_RMSD>
0.8

> <PUBCHEM_CONFORMER_DIVERSEORDER>
2
40
17
70
55
65
66
16
69
13
75
71
5
56
29
4
62
59
54
73
10
49
8
11
43
36
28
1
41
60
68
46
6
57
15
63
44
47
78
7
45
42
52
3
33
67
26
18
31
53
34
19
74
25
21
72
23
27
51
37
20
38
58
9
77
32
12
50
61
30
76
24
14
35
22
64
48
39

> <PUBCHEM_MMFF94_PARTIAL_CHARGES>
37
1 -0.23
10 -0.17
11 -0.15
12 -0.15
13 0.08
14 -0.15
15 -0.14
16 0.14
17 0.71
18 0.09
19 0.63
2 -0.23
20 -0.15
21 -0.15
22 0.18
23 -0.15
24 -0.15
25 0.55
26 0.15
27 0.15
28 0.15
29 0.15
3 -0.57
33 0.15
34 0.15
35 0.15
36 0.15
37 0.4
38 0.4
39 0.4
4 -0.57
40 0.4
5 -0.63
6 -0.85
7 -0.85
8 0.03
9 0.08

> <PUBCHEM_EFFECTIVE_ROTOR_COUNT>
4

> <PUBCHEM_PHARMACOPHORE_FEATURES>
8
1 3 acceptor
1 4 acceptor
1 6 donor
1 7 donor
4 5 6 7 25 cation
6 1 8 9 10 15 17 rings
6 18 20 21 22 23 24 rings
6 8 9 11 12 13 14 rings

> <PUBCHEM_HEAVY_ATOM_COUNT>
25

> <PUBCHEM_ATOM_DEF_STEREO_COUNT>
0

> <PUBCHEM_ATOM_UDEF_STEREO_COUNT>
0

> <PUBCHEM_BOND_DEF_STEREO_COUNT>
0

> <PUBCHEM_BOND_UDEF_STEREO_COUNT>
0

> <PUBCHEM_ISOTOPIC_ATOM_COUNT>
0

> <PUBCHEM_COMPONENT_COUNT>
1

> <PUBCHEM_CACTVS_TAUTO_COUNT>
3

> <PUBCHEM_CONFORMER_ID>
00020D3600000002

> <PUBCHEM_MMFF94_ENERGY>
100.7214

> <PUBCHEM_FEATURE_SELFOVERLAP>
40.677

> <PUBCHEM_SHAPE_FINGERPRINT>
10411042 1 17980201886622720358
10595046 47 18202566193734517987
10763959 59 18260268577156678916
10835480 77 18410855490388410649
11315181 36 17775288274731651363
11578080 2 13552626031811229404
11646440 116 17167868551934110173
11719270 70 17989203720629514774
12107183 9 17410231511911244594
12236239 1 17917713513103384006
125118 31 18259706691896178628
13167372 99 18271530810155741056
13533116 47 16988286369978804654
13878862 14 18270102600734423196
13914758 101 18336826394607839257
14528608 73 17917434271841599712
14556957 393 17346325886408778065
14767858 380 17132113537663107215
14933364 13 18335421266356133109
15131766 46 18124027090900827692
15183329 4 18060143132494466577
15475509 35 16733246977969000642
18222031 100 14261351357939540787
18335252 114 18341041961123370381
18335252 98 18341054108071786731
20157964 124 18342179959963414102
20281389 69 18334575737461345341
20511986 3 18130495409888992918
21033648 29 17603585261709026186
21150785 3 14405181785283001536
21344244 181 10663827394636925284
21424621 283 17822009775096607153
21859007 373 17822284635412089373
23081809 10 16702030738063705755
23536379 177 18412262839539063819
23559900 14 17346305047131855987
249057 25 17632025160885609426
2838139 119 18339362964203140525
2916195 48 18186801400547498147
29717793 49 17704077270134294470
300161 21 18342455958593175727
33532 11 9223231845286703245
335352 9 18343591738069511814
3633792 109 18129383713850350823
4073 2 18114466763681302562
4093350 32 17531520980317751371
4098825 35 18411695470559862023
4325135 7 17703791409568563510
504579 68 18060427919407914556
5104073 3 14491294355471836709
5385378 56 16298660590856652563
54039377 194 10954001682246426672
57724786 102 17313954163451970780
59755656 215 18040719112886581666
59755656 520 17385722500486264331
999808 66 10015582835565251549

> <PUBCHEM_SHAPE_MULTIPOLES>
476.07
20.55
1.91
1.06
14.67
0.77
-0.37
7.35
3.51
-3.43
0.26
1.3
-0.04
0.8

> <PUBCHEM_SHAPE_SELFOVERLAP>
1045.836

> <PUBCHEM_SHAPE_VOLUME>
253.1

> <PUBCHEM_COORDINATE_TYPE>
2
5
10

$$$$
