134693241
  -OEChem-03292013293D

 56 57  0     1  0  0  0  0  0999 V2000
   -4.4525   -0.3837    0.0576 O   0  0  0  0  0  0  0  0  0  0  0  0
    0.9357   -0.2421   -1.6305 O   0  0  0  0  0  0  0  0  0  0  0  0
   -2.3796   -1.3711    1.7133 O   0  0  0  0  0  0  0  0  0  0  0  0
    4.2674    1.6254   -2.1194 O   0  0  0  0  0  0  0  0  0  0  0  0
    4.4286   -0.1646   -0.7173 O   0  0  0  0  0  0  0  0  0  0  0  0
   -2.1479    1.1689   -2.1202 O   0  0  0  0  0  0  0  0  0  0  0  0
    1.9821    0.4798    0.3036 N   0  0  0  0  0  0  0  0  0  0  0  0
   -1.0679   -1.2455   -0.2083 N   0  0  0  0  0  0  0  0  0  0  0  0
   -3.3014    1.9640   -0.2603 N   0  0  0  0  0  0  0  0  0  0  0  0
    2.7636    1.5417   -0.3164 C   0  0  1  0  0  0  0  0  0  0  0  0
    0.2205   -1.2170    0.4206 C   0  0  1  0  0  0  0  0  0  0  0  0
    3.2531    2.3931    0.8493 C   0  0  0  0  0  0  0  0  0  0  0  0
    2.1735    0.4613    1.7515 C   0  0  0  0  0  0  0  0  0  0  0  0
    3.3467    1.3965    2.0021 C   0  0  0  0  0  0  0  0  0  0  0  0
    0.8829   -2.5972    0.5755 C   0  0  2  0  0  0  0  0  0  0  0  0
   -3.4833   -1.3352   -0.3639 C   0  0  1  0  0  0  0  0  0  0  0  0
    1.0693   -0.2845   -0.4063 C   0  0  0  0  0  0  0  0  0  0  0  0
   -3.8276   -0.1596   -1.2132 C   0  0  2  0  0  0  0  0  0  0  0  0
   -2.2623   -1.3204    0.4946 C   0  0  0  0  0  0  0  0  0  0  0  0
    0.7095   -3.4899   -0.6737 C   0  0  0  0  0  0  0  0  0  0  0  0
    0.3451   -3.2851    1.8372 C   0  0  0  0  0  0  0  0  0  0  0  0
    3.8996    0.8875   -1.0435 C   0  0  0  0  0  0  0  0  0  0  0  0
   -3.0055    1.0497   -1.2531 C   0  0  0  0  0  0  0  0  0  0  0  0
    1.3853   -4.8496   -0.5472 C   0  0  0  0  0  0  0  0  0  0  0  0
   -2.6091    3.2243   -0.1154 C   0  0  0  0  0  0  0  0  0  0  0  0
   -1.3884    3.1152    0.7904 C   0  0  0  0  0  0  0  0  0  0  0  0
   -1.7374    2.6382    2.1930 C   0  0  0  0  0  0  0  0  0  0  0  0
    2.1357    2.0949   -1.0229 H   0  0  0  0  0  0  0  0  0  0  0  0
    0.0629   -0.7747    1.4082 H   0  0  0  0  0  0  0  0  0  0  0  0
    2.5029    3.1560    1.0911 H   0  0  0  0  0  0  0  0  0  0  0  0
    4.2059    2.8959    0.6582 H   0  0  0  0  0  0  0  0  0  0  0  0
    2.3599   -0.5518    2.1159 H   0  0  0  0  0  0  0  0  0  0  0  0
    1.2654    0.8556    2.2206 H   0  0  0  0  0  0  0  0  0  0  0  0
    4.2905    0.8421    1.9407 H   0  0  0  0  0  0  0  0  0  0  0  0
    3.2996    1.8760    2.9838 H   0  0  0  0  0  0  0  0  0  0  0  0
    1.9604   -2.4529    0.7313 H   0  0  0  0  0  0  0  0  0  0  0  0
   -3.8441   -2.3122   -0.6605 H   0  0  0  0  0  0  0  0  0  0  0  0
   -4.4271   -0.3495   -2.0964 H   0  0  0  0  0  0  0  0  0  0  0  0
   -1.1071   -1.2308   -1.2241 H   0  0  0  0  0  0  0  0  0  0  0  0
   -0.3531   -3.6593   -0.8839 H   0  0  0  0  0  0  0  0  0  0  0  0
    1.1307   -2.9774   -1.5464 H   0  0  0  0  0  0  0  0  0  0  0  0
   -0.6948   -3.6021    1.7100 H   0  0  0  0  0  0  0  0  0  0  0  0
    0.9382   -4.1706    2.0869 H   0  0  0  0  0  0  0  0  0  0  0  0
    0.3974   -2.6180    2.7045 H   0  0  0  0  0  0  0  0  0  0  0  0
    0.8916   -5.4781    0.1996 H   0  0  0  0  0  0  0  0  0  0  0  0
    1.3375   -5.3803   -1.5038 H   0  0  0  0  0  0  0  0  0  0  0  0
    2.4394   -4.7415   -0.2732 H   0  0  0  0  0  0  0  0  0  0  0  0
   -4.0365    1.7486    0.4071 H   0  0  0  0  0  0  0  0  0  0  0  0
   -3.3269    3.9428    0.2942 H   0  0  0  0  0  0  0  0  0  0  0  0
   -2.3031    3.5788   -1.1057 H   0  0  0  0  0  0  0  0  0  0  0  0
    5.0116    1.2140   -2.6086 H   0  0  0  0  0  0  0  0  0  0  0  0
   -0.6604    2.4221    0.3526 H   0  0  0  0  0  0  0  0  0  0  0  0
   -0.9019    4.0951    0.8548 H   0  0  0  0  0  0  0  0  0  0  0  0
   -2.4754    3.2983    2.6599 H   0  0  0  0  0  0  0  0  0  0  0  0
   -2.1403    1.6209    2.1828 H   0  0  0  0  0  0  0  0  0  0  0  0
   -0.8408    2.6339    2.8212 H   0  0  0  0  0  0  0  0  0  0  0  0
  1 16  1  0  0  0  0
  1 18  1  0  0  0  0
  2 17  2  0  0  0  0
  3 19  2  0  0  0  0
  4 22  1  0  0  0  0
  4 51  1  0  0  0  0
  5 22  2  0  0  0  0
  6 23  2  0  0  0  0
  7 10  1  0  0  0  0
  7 13  1  0  0  0  0
  7 17  1  0  0  0  0
  8 11  1  0  0  0  0
  8 19  1  0  0  0  0
  8 39  1  0  0  0  0
  9 23  1  0  0  0  0
  9 25  1  0  0  0  0
  9 48  1  0  0  0  0
 10 12  1  0  0  0  0
 10 22  1  0  0  0  0
 10 28  1  0  0  0  0
 11 15  1  0  0  0  0
 11 17  1  0  0  0  0
 11 29  1  0  0  0  0
 12 14  1  0  0  0  0
 12 30  1  0  0  0  0
 12 31  1  0  0  0  0
 13 14  1  0  0  0  0
 13 32  1  0  0  0  0
 13 33  1  0  0  0  0
 14 34  1  0  0  0  0
 14 35  1  0  0  0  0
 15 20  1  0  0  0  0
 15 21  1  0  0  0  0
 15 36  1  0  0  0  0
 16 18  1  0  0  0  0
 16 19  1  0  0  0  0
 16 37  1  0  0  0  0
 18 23  1  0  0  0  0
 18 38  1  0  0  0  0
 20 24  1  0  0  0  0
 20 40  1  0  0  0  0
 20 41  1  0  0  0  0
 21 42  1  0  0  0  0
 21 43  1  0  0  0  0
 21 44  1  0  0  0  0
 24 45  1  0  0  0  0
 24 46  1  0  0  0  0
 24 47  1  0  0  0  0
 25 26  1  0  0  0  0
 25 49  1  0  0  0  0
 25 50  1  0  0  0  0
 26 27  1  0  0  0  0
 26 52  1  0  0  0  0
 26 53  1  0  0  0  0
 27 54  1  0  0  0  0
 27 55  1  0  0  0  0
 27 56  1  0  0  0  0
M  END
> <PUBCHEM_COMPOUND_CID>
134693241

> <PUBCHEM_CONFORMER_RMSD>
1.2

> <PUBCHEM_CONFORMER_DIVERSEORDER>
1
99
89
97
86
46
54
62
36
74
76
64
110
57
78
73
108
60
68
71
82
98
69
59
109
27
94
41
107
83
105
104
72
81
79
93
17
63
38
84
75
88
66
48
56
100
22
106
55
23
101
67
61
80
87
8
90
24
96
102
77
37
58
28
26
95
70
45
85
21
91
11
31
103
34
15
49
20
51
43
29
16
30
42
50
40
52
12
6
39
92
4
19
65
25
35
14
32
53
18
33
47
3
44
10
7
9
5
13
2

> <PUBCHEM_MMFF94_PARTIAL_CHARGES>
24
1 -0.3
10 0.36
11 0.36
13 0.3
16 0.05
17 0.57
18 0.05
19 0.63
2 -0.57
22 0.66
23 0.63
25 0.3
3 -0.57
37 0.1
38 0.1
39 0.37
4 -0.65
48 0.37
5 -0.57
51 0.5
6 -0.57
7 -0.66
8 -0.73
9 -0.73

> <PUBCHEM_EFFECTIVE_ROTOR_COUNT>
13.6

> <PUBCHEM_PHARMACOPHORE_FEATURES>
13
1 1 acceptor
1 2 acceptor
1 21 hydrophobe
1 24 hydrophobe
1 27 hydrophobe
1 3 acceptor
1 4 acceptor
1 5 acceptor
1 6 acceptor
1 8 donor
1 9 donor
3 4 5 22 anion
5 7 10 12 13 14 rings

> <PUBCHEM_HEAVY_ATOM_COUNT>
27

> <PUBCHEM_ATOM_DEF_STEREO_COUNT>
3

> <PUBCHEM_ATOM_UDEF_STEREO_COUNT>
2

> <PUBCHEM_BOND_DEF_STEREO_COUNT>
0

> <PUBCHEM_BOND_UDEF_STEREO_COUNT>
0

> <PUBCHEM_ISOTOPIC_ATOM_COUNT>
0

> <PUBCHEM_COMPONENT_COUNT>
1

> <PUBCHEM_CACTVS_TAUTO_COUNT>
4

> <PUBCHEM_CONFORMER_ID>
0807417900000001

> <PUBCHEM_MMFF94_ENERGY>
38.8408

> <PUBCHEM_FEATURE_SELFOVERLAP>
66.033

> <PUBCHEM_SHAPE_FINGERPRINT>
10006869 2 17984991397732404361
10498660 4 18338227275680455117
10759866 29 17604141627425231616
11582403 64 16482985044025759362
11725454 13 17200764947731105138
12160290 23 17899682742210302670
12788726 201 17246112208717144722
133893 2 18044094544858816954
13681431 1 18051408461990086234
14114211 68 18264791903489569133
14251757 5 18047487895872740276
14251764 3 18130218363170906550
14466204 15 18268137683323869968
15297060 5 18339096929307097564
16752209 62 18336261340257820200
17980427 23 17623813896005863779
18981168 100 17752229222162807723
20510252 161 18264771132763643561
20715895 44 16954187169070081021
20775438 99 16761101201449969735
23559900 14 18265881467703815207
3493558 16 17125044605272373946
469060 322 18187943810699491353
633830 44 17775291615656947531
81228 2 17404015315465404338
9981440 41 18339059554400538955

> <PUBCHEM_SHAPE_MULTIPOLES>
505.49
7.42
4.91
1.94
0.11
3.93
-0.24
-4.23
2.24
0.73
-1.01
0.63
-0.61
0.03

> <PUBCHEM_SHAPE_SELFOVERLAP>
1023.408

> <PUBCHEM_SHAPE_VOLUME>
294.2

> <PUBCHEM_COORDINATE_TYPE>
2
5
10

$$$$
