134688295
  -OEChem-03292013293D

 54 54  0     1  0  0  0  0  0999 V2000
   -3.5873   -1.0438   -0.2855 O   0  0  0  0  0  0  0  0  0  0  0  0
   -1.1290   -2.8614    1.5030 O   0  0  0  0  0  0  0  0  0  0  0  0
   -5.0865   -2.8272   -0.0630 O   0  0  0  0  0  0  0  0  0  0  0  0
   -3.3510    4.1122    0.0687 O   0  0  0  0  0  0  0  0  0  0  0  0
    5.9003   -2.8855   -0.5437 O   0  0  0  0  0  0  0  0  0  0  0  0
    4.9769   -1.1488    0.5891 O   0  0  0  0  0  0  0  0  0  0  0  0
   -1.1722   -1.3651   -0.4356 C   0  0  1  0  0  0  0  0  0  0  0  0
   -1.3415   -2.8039    0.0937 C   0  0  2  0  0  0  0  0  0  0  0  0
   -2.3241   -0.4718    0.0765 C   0  0  1  0  0  0  0  0  0  0  0  0
   -2.7526   -3.3118   -0.1906 C   0  0  0  0  0  0  0  0  0  0  0  0
    0.2057   -0.7959   -0.0838 C   0  0  0  0  0  0  0  0  0  0  0  0
   -3.8061   -2.3230    0.3058 C   0  0  1  0  0  0  0  0  0  0  0  0
   -2.2889    0.9035   -0.5092 C   0  0  0  0  0  0  0  0  0  0  0  0
    1.3952   -1.5795   -0.5538 C   0  0  0  0  0  0  0  0  0  0  0  0
   -2.2231    2.0251    0.2229 C   0  0  0  0  0  0  0  0  0  0  0  0
   -2.1892    3.4058   -0.3700 C   0  0  2  0  0  0  0  0  0  0  0  0
   -0.9634    4.2160    0.0734 C   0  0  0  0  0  0  0  0  0  0  0  0
    0.3655    3.5260   -0.2484 C   0  0  0  0  0  0  0  0  0  0  0  0
    2.3844   -2.0923    0.1942 C   0  0  0  0  0  0  0  0  0  0  0  0
    1.5883    4.2945    0.2631 C   0  0  0  0  0  0  0  0  0  0  0  0
    2.9193    3.6450   -0.1176 C   0  0  0  0  0  0  0  0  0  0  0  0
    3.5348   -2.8685   -0.3719 C   0  0  0  0  0  0  0  0  0  0  0  0
    4.0985    4.4399    0.4228 C   0  0  0  0  0  0  0  0  0  0  0  0
    4.8463   -2.1897   -0.0401 C   0  0  0  0  0  0  0  0  0  0  0  0
   -1.2526   -1.4251   -1.5316 H   0  0  0  0  0  0  0  0  0  0  0  0
   -0.6150   -3.4754   -0.3774 H   0  0  0  0  0  0  0  0  0  0  0  0
   -2.2836   -0.4060    1.1724 H   0  0  0  0  0  0  0  0  0  0  0  0
   -2.8721   -3.4531   -1.2727 H   0  0  0  0  0  0  0  0  0  0  0  0
   -2.9223   -4.2891    0.2769 H   0  0  0  0  0  0  0  0  0  0  0  0
    0.2736   -0.6425    1.0013 H   0  0  0  0  0  0  0  0  0  0  0  0
    0.3074    0.2002   -0.5308 H   0  0  0  0  0  0  0  0  0  0  0  0
   -3.7795   -2.2366    1.3988 H   0  0  0  0  0  0  0  0  0  0  0  0
   -2.3242    0.9798   -1.5936 H   0  0  0  0  0  0  0  0  0  0  0  0
   -1.2175   -3.7903    1.7765 H   0  0  0  0  0  0  0  0  0  0  0  0
    1.4448   -1.7243   -1.6320 H   0  0  0  0  0  0  0  0  0  0  0  0
   -2.1972    1.9540    1.3078 H   0  0  0  0  0  0  0  0  0  0  0  0
   -2.2186    3.3696   -1.4654 H   0  0  0  0  0  0  0  0  0  0  0  0
   -0.9955    5.2050   -0.4018 H   0  0  0  0  0  0  0  0  0  0  0  0
   -1.0241    4.4098    1.1530 H   0  0  0  0  0  0  0  0  0  0  0  0
   -5.7334   -2.4391    0.5503 H   0  0  0  0  0  0  0  0  0  0  0  0
    0.3913    2.5265    0.1989 H   0  0  0  0  0  0  0  0  0  0  0  0
    0.4468    3.3931   -1.3342 H   0  0  0  0  0  0  0  0  0  0  0  0
    2.3504   -1.9642    1.2734 H   0  0  0  0  0  0  0  0  0  0  0  0
    1.5604    5.3159   -0.1367 H   0  0  0  0  0  0  0  0  0  0  0  0
    1.5246    4.3809    1.3550 H   0  0  0  0  0  0  0  0  0  0  0  0
    2.9599    2.6235    0.2780 H   0  0  0  0  0  0  0  0  0  0  0  0
    2.9993    3.5745   -1.2084 H   0  0  0  0  0  0  0  0  0  0  0  0
   -4.1302    3.6271   -0.2535 H   0  0  0  0  0  0  0  0  0  0  0  0
    3.5403   -3.8699    0.0709 H   0  0  0  0  0  0  0  0  0  0  0  0
    3.4592   -2.9591   -1.4608 H   0  0  0  0  0  0  0  0  0  0  0  0
    4.1024    5.4581    0.0210 H   0  0  0  0  0  0  0  0  0  0  0  0
    5.0403    3.9593    0.1400 H   0  0  0  0  0  0  0  0  0  0  0  0
    4.0629    4.5010    1.5152 H   0  0  0  0  0  0  0  0  0  0  0  0
    6.7558   -2.4520   -0.3375 H   0  0  0  0  0  0  0  0  0  0  0  0
  1  9  1  0  0  0  0
  1 12  1  0  0  0  0
  2  8  1  0  0  0  0
  2 34  1  0  0  0  0
  3 12  1  0  0  0  0
  3 40  1  0  0  0  0
  4 16  1  0  0  0  0
  4 48  1  0  0  0  0
  5 24  1  0  0  0  0
  5 54  1  0  0  0  0
  6 24  2  0  0  0  0
  7  8  1  0  0  0  0
  7  9  1  0  0  0  0
  7 11  1  0  0  0  0
  7 25  1  0  0  0  0
  8 10  1  0  0  0  0
  8 26  1  0  0  0  0
  9 13  1  0  0  0  0
  9 27  1  0  0  0  0
 10 12  1  0  0  0  0
 10 28  1  0  0  0  0
 10 29  1  0  0  0  0
 11 14  1  0  0  0  0
 11 30  1  0  0  0  0
 11 31  1  0  0  0  0
 12 32  1  0  0  0  0
 13 15  2  0  0  0  0
 13 33  1  0  0  0  0
 14 19  2  3  0  0  0
 14 35  1  0  0  0  0
 15 16  1  0  0  0  0
 15 36  1  0  0  0  0
 16 17  1  0  0  0  0
 16 37  1  0  0  0  0
 17 18  1  0  0  0  0
 17 38  1  0  0  0  0
 17 39  1  0  0  0  0
 18 20  1  0  0  0  0
 18 41  1  0  0  0  0
 18 42  1  0  0  0  0
 19 22  1  0  0  0  0
 19 43  1  0  0  0  0
 20 21  1  0  0  0  0
 20 44  1  0  0  0  0
 20 45  1  0  0  0  0
 21 23  1  0  0  0  0
 21 46  1  0  0  0  0
 21 47  1  0  0  0  0
 22 24  1  0  0  0  0
 22 49  1  0  0  0  0
 22 50  1  0  0  0  0
 23 51  1  0  0  0  0
 23 52  1  0  0  0  0
 23 53  1  0  0  0  0
M  END
> <PUBCHEM_COMPOUND_CID>
134688295

> <PUBCHEM_CONFORMER_RMSD>
1

> <PUBCHEM_CONFORMER_DIVERSEORDER>
1
55
66
75
46
38
57
80
96
99
74
33
32
34
103
14
87
13
62
93
76
5
42
40
6
52
60
92
35
51
89
94
110
68
84
18
98
77
90
79
49
107
102
70
58
53
63
9
91
43
108
111
78
17
59
85
61
36
54
24
48
106
81
30
101
27
22
64
109
105
112
7
44
104
88
26
16
12
72
45
37
95
71
28
67
69
47
100
11
82
56
65
29
83
20
19
50
39
31
21
41
25
73
2
97
10
86
23
4
8
15
3

> <PUBCHEM_MMFF94_PARTIAL_CHARGES>
25
1 -0.56
11 0.14
12 0.56
13 -0.29
14 -0.29
15 -0.29
16 0.42
19 -0.29
2 -0.68
22 0.2
24 0.66
3 -0.68
33 0.15
34 0.4
35 0.15
36 0.15
4 -0.68
40 0.4
43 0.15
48 0.4
5 -0.65
54 0.5
6 -0.57
8 0.28
9 0.42

> <PUBCHEM_EFFECTIVE_ROTOR_COUNT>
11.2

> <PUBCHEM_PHARMACOPHORE_FEATURES>
13
1 1 acceptor
1 2 acceptor
1 2 donor
1 23 hydrophobe
1 3 acceptor
1 3 donor
1 4 acceptor
1 4 donor
1 5 acceptor
1 6 acceptor
3 5 6 24 anion
4 17 18 20 21 hydrophobe
6 1 7 8 9 10 12 rings

> <PUBCHEM_HEAVY_ATOM_COUNT>
24

> <PUBCHEM_ATOM_DEF_STEREO_COUNT>
5

> <PUBCHEM_ATOM_UDEF_STEREO_COUNT>
0

> <PUBCHEM_BOND_DEF_STEREO_COUNT>
1

> <PUBCHEM_BOND_UDEF_STEREO_COUNT>
1

> <PUBCHEM_ISOTOPIC_ATOM_COUNT>
0

> <PUBCHEM_COMPONENT_COUNT>
1

> <PUBCHEM_CACTVS_TAUTO_COUNT>
1

> <PUBCHEM_CONFORMER_ID>
08072E2700000001

> <PUBCHEM_MMFF94_ENERGY>
25.7518

> <PUBCHEM_FEATURE_SELFOVERLAP>
66.074

> <PUBCHEM_SHAPE_FINGERPRINT>
10411042 1 18410576219221130831
10429389 16 17123402979331929246
1100329 8 18266462005590894949
11578080 2 16665378625690134935
12788726 201 18190485833731899967
13140716 1 18336838545851119267
138480 1 15240039435244967359
13911987 19 17613991898511186901
14508225 48 18340756097027771455
14790565 3 16392967609968583070
15403338 16 17028766153201280480
17818456 19 17686338668929616178
19591789 44 16896800766128102987
19930381 70 18049721025210323316
20101258 96 18410303483937865187
21033650 10 17974882509001158350
21344244 246 17907845551348694903
23559900 14 18410566323057071250
532947 4 17763472007365993494
6138700 20 17834113421974833981
7808743 9 18049440344739538450
9961470 85 18341036446122358728

> <PUBCHEM_SHAPE_MULTIPOLES>
458.69
9.49
8.46
0.76
5.28
6.92
0.09
-6.66
0.35
6.94
0.06
-0.02
-0.22
0.96

> <PUBCHEM_SHAPE_SELFOVERLAP>
896.645

> <PUBCHEM_SHAPE_VOLUME>
272.9

> <PUBCHEM_COORDINATE_TYPE>
2
5
10

$$$$
