134694028
  -OEChem-03292013293D

 48 48  0     1  0  0  0  0  0999 V2000
   -3.7466    1.5307    1.0301 O   0  0  0  0  0  0  0  0  0  0  0  0
   -1.3838    0.5485    2.2446 O   0  0  0  0  0  0  0  0  0  0  0  0
    0.6149    1.2474   -1.1173 O   0  0  0  0  0  0  0  0  0  0  0  0
   -5.0651   -0.4183   -1.4925 O   0  0  0  0  0  0  0  0  0  0  0  0
   -5.8664    1.6445   -0.9178 O   0  0  0  0  0  0  0  0  0  0  0  0
   -1.0298   -0.5000    0.1951 N   0  0  0  0  0  0  0  0  0  0  0  0
    2.2011    0.8849    0.5393 N   0  0  0  0  0  0  0  0  0  0  0  0
   -3.2452    0.2134    0.8459 C   0  0  1  0  0  0  0  0  0  0  0  0
   -3.6669    1.0464   -0.3173 C   0  0  1  0  0  0  0  0  0  0  0  0
    0.3915   -0.7005    0.3095 C   0  0  1  0  0  0  0  0  0  0  0  0
    0.8737   -1.9131   -0.4967 C   0  0  0  0  0  0  0  0  0  0  0  0
    0.2190   -3.2529   -0.1031 C   0  0  0  0  0  0  0  0  0  0  0  0
   -1.7934    0.1088    1.1767 C   0  0  0  0  0  0  0  0  0  0  0  0
    1.0662    0.5711   -0.1954 C   0  0  0  0  0  0  0  0  0  0  0  0
   -4.9741    0.8101   -0.9283 C   0  0  0  0  0  0  0  0  0  0  0  0
    4.1138    1.8227   -0.7142 C   0  0  0  0  0  0  0  0  0  0  0  0
    2.9985    2.0663    0.2998 C   0  0  0  0  0  0  0  0  0  0  0  0
    0.6973   -4.4136   -0.9765 C   0  0  0  0  0  0  0  0  0  0  0  0
    0.5142   -3.5595    1.3677 C   0  0  0  0  0  0  0  0  0  0  0  0
    5.1133    0.7133   -0.3303 C   0  0  0  0  0  0  0  0  0  0  0  0
    5.7982    1.0704    0.9918 C   0  0  0  0  0  0  0  0  0  0  0  0
    6.1695    0.4792   -1.4110 C   0  0  0  0  0  0  0  0  0  0  0  0
   -3.8705   -0.6069    1.1753 H   0  0  0  0  0  0  0  0  0  0  0  0
   -2.9131    1.4953   -0.9521 H   0  0  0  0  0  0  0  0  0  0  0  0
    0.6337   -0.8223    1.3711 H   0  0  0  0  0  0  0  0  0  0  0  0
    1.9649   -1.9967   -0.4033 H   0  0  0  0  0  0  0  0  0  0  0  0
    0.6795   -1.7345   -1.5635 H   0  0  0  0  0  0  0  0  0  0  0  0
   -0.8679   -3.1753   -0.2282 H   0  0  0  0  0  0  0  0  0  0  0  0
   -1.4827   -0.7785   -0.6710 H   0  0  0  0  0  0  0  0  0  0  0  0
    4.6545    2.7644   -0.8729 H   0  0  0  0  0  0  0  0  0  0  0  0
    3.6608    1.5598   -1.6791 H   0  0  0  0  0  0  0  0  0  0  0  0
    3.3926    2.4022    1.2632 H   0  0  0  0  0  0  0  0  0  0  0  0
    2.3425    2.8607   -0.0738 H   0  0  0  0  0  0  0  0  0  0  0  0
    4.5701   -0.2299   -0.1938 H   0  0  0  0  0  0  0  0  0  0  0  0
    0.0214   -2.8476    2.0364 H   0  0  0  0  0  0  0  0  0  0  0  0
    0.4754   -4.2190   -2.0310 H   0  0  0  0  0  0  0  0  0  0  0  0
    0.1980   -5.3469   -0.6957 H   0  0  0  0  0  0  0  0  0  0  0  0
    1.7780   -4.5629   -0.8801 H   0  0  0  0  0  0  0  0  0  0  0  0
    0.1409   -4.5540    1.6366 H   0  0  0  0  0  0  0  0  0  0  0  0
    1.5899   -3.5395    1.5728 H   0  0  0  0  0  0  0  0  0  0  0  0
    2.5054    0.2583    1.2785 H   0  0  0  0  0  0  0  0  0  0  0  0
    6.2725    2.0565    0.9434 H   0  0  0  0  0  0  0  0  0  0  0  0
    5.0921    1.0672    1.8273 H   0  0  0  0  0  0  0  0  0  0  0  0
    6.5757    0.3370    1.2333 H   0  0  0  0  0  0  0  0  0  0  0  0
    6.7675    1.3806   -1.5826 H   0  0  0  0  0  0  0  0  0  0  0  0
    5.6960    0.2018   -2.3586 H   0  0  0  0  0  0  0  0  0  0  0  0
    6.8488   -0.3311   -1.1260 H   0  0  0  0  0  0  0  0  0  0  0  0
   -5.9441   -0.5703   -1.9005 H   0  0  0  0  0  0  0  0  0  0  0  0
  1  8  1  0  0  0  0
  1  9  1  0  0  0  0
  2 13  2  0  0  0  0
  3 14  2  0  0  0  0
  4 15  1  0  0  0  0
  4 48  1  0  0  0  0
  5 15  2  0  0  0  0
  6 10  1  0  0  0  0
  6 13  1  0  0  0  0
  6 29  1  0  0  0  0
  7 14  1  0  0  0  0
  7 17  1  0  0  0  0
  7 41  1  0  0  0  0
  8  9  1  0  0  0  0
  8 13  1  0  0  0  0
  8 23  1  0  0  0  0
  9 15  1  0  0  0  0
  9 24  1  0  0  0  0
 10 11  1  0  0  0  0
 10 14  1  0  0  0  0
 10 25  1  0  0  0  0
 11 12  1  0  0  0  0
 11 26  1  0  0  0  0
 11 27  1  0  0  0  0
 12 18  1  0  0  0  0
 12 19  1  0  0  0  0
 12 28  1  0  0  0  0
 16 17  1  0  0  0  0
 16 20  1  0  0  0  0
 16 30  1  0  0  0  0
 16 31  1  0  0  0  0
 17 32  1  0  0  0  0
 17 33  1  0  0  0  0
 18 36  1  0  0  0  0
 18 37  1  0  0  0  0
 18 38  1  0  0  0  0
 19 35  1  0  0  0  0
 19 39  1  0  0  0  0
 19 40  1  0  0  0  0
 20 21  1  0  0  0  0
 20 22  1  0  0  0  0
 20 34  1  0  0  0  0
 21 42  1  0  0  0  0
 21 43  1  0  0  0  0
 21 44  1  0  0  0  0
 22 45  1  0  0  0  0
 22 46  1  0  0  0  0
 22 47  1  0  0  0  0
M  END
> <PUBCHEM_COMPOUND_CID>
134694028

> <PUBCHEM_CONFORMER_RMSD>
1

> <PUBCHEM_CONFORMER_DIVERSEORDER>
1
129
240
170
34
275
211
135
217
5
13
272
102
280
160
134
192
145
125
249
291
180
214
296
142
239
184
126
243
148
190
38
39
219
10
28
62
108
269
79
293
245
105
98
71
262
66
67
255
15
40
150
147
237
185
242
73
206
2
111
158
251
83
213
120
261
117
175
216
21
258
169
140
106
304
88
149
172
131
224
299
115
37
173
252
281
163
84
133
35
50
287
97
285
207
195
271
58
110
212
74
41
57
193
234
159
256
72
231
104
144
137
20
136
153
254
22
268
113
303
23
68
165
286
191
248
279
154
81
94
266
209
139
119
103
31
227
89
6
208
122
32
289
166
96
7
118
12
51
244
146
63
200
220
236
70
80
223
177
182
225
273
19
26
44
174
171
181
128
53
18
203
101
278
47
55
69
215
78
186
43
302
91
198
297
112
29
250
60
241
86
27
42
65
87
290
267
99
274
45
178
233
77
16
196
194
92
161
188
164
295
11
151
205
259
168
75
204
123
90
300
298
56
292
246
109
167
229
116
187
218
152
264
228
3
100
235
199
162
9
155
197
260
93
276
36
14
263
189
76
132
202
138
49
121
82
4
230
85
301
24
61
156
222
33
8
127
210
64
52
30
17
48
59
277
201
221
232
157
46
107
265
284
253
257
282
247
288
25
141
183
294
124
176
95
114
130
54
143
270
179
283
226
238

> <PUBCHEM_MMFF94_PARTIAL_CHARGES>
19
1 -0.3
10 0.36
13 0.63
14 0.57
15 0.72
17 0.3
2 -0.57
23 0.1
24 0.1
29 0.37
3 -0.57
4 -0.65
41 0.37
48 0.5
5 -0.57
6 -0.73
7 -0.73
8 0.05
9 0.05

> <PUBCHEM_EFFECTIVE_ROTOR_COUNT>
11.6

> <PUBCHEM_PHARMACOPHORE_FEATURES>
10
1 1 acceptor
1 2 acceptor
1 3 acceptor
1 4 acceptor
1 5 acceptor
1 6 donor
1 7 donor
3 12 18 19 hydrophobe
3 20 21 22 hydrophobe
3 4 5 15 anion

> <PUBCHEM_HEAVY_ATOM_COUNT>
22

> <PUBCHEM_ATOM_DEF_STEREO_COUNT>
1

> <PUBCHEM_ATOM_UDEF_STEREO_COUNT>
2

> <PUBCHEM_BOND_DEF_STEREO_COUNT>
0

> <PUBCHEM_BOND_UDEF_STEREO_COUNT>
0

> <PUBCHEM_ISOTOPIC_ATOM_COUNT>
0

> <PUBCHEM_COMPONENT_COUNT>
1

> <PUBCHEM_CACTVS_TAUTO_COUNT>
4

> <PUBCHEM_CONFORMER_ID>
0807448C00000001

> <PUBCHEM_MMFF94_ENERGY>
27.4541

> <PUBCHEM_FEATURE_SELFOVERLAP>
50.807

> <PUBCHEM_SHAPE_FINGERPRINT>
10906281 52 17822867376643927637
121448 382 18059576957231609027
12643181 29 18340220652704179902
13052359 8 18268147741636623602
1361 2 17416701150510165654
13673619 4 12175616309300179473
13968360 50 18410564068294024151
14784336 7 17846495907721503098
167882 2 18335984147305754186
17980427 23 16733272343223183951
20197701 30 18341047501488601098
20554085 129 18130205113070198730
21033648 29 18337387261539870544
21054139 6 18271794766187594551
21344244 246 18343022151326559998
21521239 73 17775566429376772326
22950370 63 8935005879786810112
23402539 116 16773525416249676361
23419403 2 17170938267913215422
23622692 88 12035447238265020721
25147074 1 17558839390718961265
266924 1 17702672029801956185
266924 87 18265899047021256276
2838139 119 18040424504063644421
314173 85 8070036549051082432
329604 57 11671784870915561520
3759504 43 18261393407236590114
4017518 198 18272937125053337022
532947 4 18270133305455518494
5385378 56 18338808792576862065
559249 180 18337110168246881338
57307002 29 18121813692726840118
59755656 520 18201173130130375131
7164475 11 17617662498068637534

> <PUBCHEM_SHAPE_MULTIPOLES>
413.44
12.38
3.78
1.46
2.72
6.77
-0.29
-11.04
4.22
0.8
0.34
-0.43
0.07
0.25

> <PUBCHEM_SHAPE_SELFOVERLAP>
808.493

> <PUBCHEM_SHAPE_VOLUME>
249.2

> <PUBCHEM_COORDINATE_TYPE>
2
5
10

$$$$
