134693142
  -OEChem-03292013293D

 52 52  0     1  0  0  0  0  0999 V2000
    0.9183   -3.0591    0.5158 O   0  0  0  0  0  0  0  0  0  0  0  0
    0.2013   -0.5252    1.5588 O   0  0  0  0  0  0  0  0  0  0  0  0
    4.1557   -3.3508   -0.6392 O   0  0  0  0  0  0  0  0  0  0  0  0
    0.4224    1.0222   -2.0939 O   0  0  0  0  0  0  0  0  0  0  0  0
    2.5688   -4.9828   -0.8539 O   0  0  0  0  0  0  0  0  0  0  0  0
    1.8458    0.2855    0.1224 N   0  0  0  0  0  0  0  0  0  0  0  0
   -0.6853    2.5796   -0.7750 N   0  0  0  0  0  0  0  0  0  0  0  0
   -4.1672   -0.3645    0.2672 N   0  0  0  0  0  0  0  0  0  0  0  0
   -4.6678   -2.6242    0.3907 N   0  0  0  0  0  0  0  0  0  0  0  0
   -6.3527   -1.1637    0.8636 N   0  0  0  0  0  0  0  0  0  0  0  0
    1.8508   -2.0293    0.8167 C   0  0  1  0  0  0  0  0  0  0  0  0
    1.8972   -2.7534   -0.4864 C   0  0  1  0  0  0  0  0  0  0  0  0
    1.3916    1.6493    0.0387 C   0  0  1  0  0  0  0  0  0  0  0  0
    2.5378    2.6264   -0.2519 C   0  0  0  0  0  0  0  0  0  0  0  0
    3.6751    2.6169    0.7898 C   0  0  0  0  0  0  0  0  0  0  0  0
    1.2078   -0.6836    0.8780 C   0  0  0  0  0  0  0  0  0  0  0  0
    0.3522    1.7085   -1.0764 C   0  0  0  0  0  0  0  0  0  0  0  0
    2.8836   -3.8154   -0.6786 C   0  0  0  0  0  0  0  0  0  0  0  0
    4.8129    3.5689    0.4185 C   0  0  0  0  0  0  0  0  0  0  0  0
    3.1181    2.9920    2.1659 C   0  0  0  0  0  0  0  0  0  0  0  0
   -1.8249    2.7841   -1.6401 C   0  0  0  0  0  0  0  0  0  0  0  0
   -2.9691    1.8231   -1.3320 C   0  0  0  0  0  0  0  0  0  0  0  0
   -3.5021    1.9835    0.0967 C   0  0  0  0  0  0  0  0  0  0  0  0
   -4.6385    1.0144    0.4053 C   0  0  0  0  0  0  0  0  0  0  0  0
   -5.0318   -1.3027    0.4994 C   0  0  0  0  0  0  0  0  0  0  0  0
    2.5944   -2.2384    1.5754 H   0  0  0  0  0  0  0  0  0  0  0  0
    1.5393   -2.2613   -1.3823 H   0  0  0  0  0  0  0  0  0  0  0  0
    0.8991    1.9025    0.9840 H   0  0  0  0  0  0  0  0  0  0  0  0
    2.9687    2.3914   -1.2351 H   0  0  0  0  0  0  0  0  0  0  0  0
    2.1310    3.6427   -0.3410 H   0  0  0  0  0  0  0  0  0  0  0  0
    4.1000    1.6077    0.8527 H   0  0  0  0  0  0  0  0  0  0  0  0
    2.6478    0.0144   -0.4400 H   0  0  0  0  0  0  0  0  0  0  0  0
    4.4606    4.6044    0.3619 H   0  0  0  0  0  0  0  0  0  0  0  0
    2.5832    3.9473    2.1346 H   0  0  0  0  0  0  0  0  0  0  0  0
    3.9287    3.0864    2.8971 H   0  0  0  0  0  0  0  0  0  0  0  0
    2.4368    2.2267    2.5492 H   0  0  0  0  0  0  0  0  0  0  0  0
    5.6190    3.5233    1.1583 H   0  0  0  0  0  0  0  0  0  0  0  0
    5.2362    3.3018   -0.5554 H   0  0  0  0  0  0  0  0  0  0  0  0
   -0.6556    3.1087    0.0915 H   0  0  0  0  0  0  0  0  0  0  0  0
   -1.5082    2.6583   -2.6812 H   0  0  0  0  0  0  0  0  0  0  0  0
   -2.1500    3.8217   -1.5095 H   0  0  0  0  0  0  0  0  0  0  0  0
   -3.7827    1.9993   -2.0457 H   0  0  0  0  0  0  0  0  0  0  0  0
   -2.6207    0.7952   -1.4885 H   0  0  0  0  0  0  0  0  0  0  0  0
   -3.8570    3.0107    0.2425 H   0  0  0  0  0  0  0  0  0  0  0  0
   -2.6923    1.8160    0.8172 H   0  0  0  0  0  0  0  0  0  0  0  0
    4.8123   -4.0681   -0.7687 H   0  0  0  0  0  0  0  0  0  0  0  0
   -4.9829    1.1982    1.4301 H   0  0  0  0  0  0  0  0  0  0  0  0
   -5.4710    1.2075   -0.2823 H   0  0  0  0  0  0  0  0  0  0  0  0
   -6.7867   -0.2562    0.9893 H   0  0  0  0  0  0  0  0  0  0  0  0
   -3.7239   -2.8875    0.1293 H   0  0  0  0  0  0  0  0  0  0  0  0
   -5.3287   -3.3727    0.5679 H   0  0  0  0  0  0  0  0  0  0  0  0
   -6.9398   -1.9760    1.0200 H   0  0  0  0  0  0  0  0  0  0  0  0
  1 11  1  0  0  0  0
  1 12  1  0  0  0  0
  2 16  2  0  0  0  0
  3 18  1  0  0  0  0
  3 46  1  0  0  0  0
  4 17  2  0  0  0  0
  5 18  2  0  0  0  0
  6 13  1  0  0  0  0
  6 16  1  0  0  0  0
  6 32  1  0  0  0  0
  7 17  1  0  0  0  0
  7 21  1  0  0  0  0
  7 39  1  0  0  0  0
  8 24  1  0  0  0  0
  8 25  2  0  0  0  0
  9 25  1  0  0  0  0
  9 50  1  0  0  0  0
  9 51  1  0  0  0  0
 10 25  1  0  0  0  0
 10 49  1  0  0  0  0
 10 52  1  0  0  0  0
 11 12  1  0  0  0  0
 11 16  1  0  0  0  0
 11 26  1  0  0  0  0
 12 18  1  0  0  0  0
 12 27  1  0  0  0  0
 13 14  1  0  0  0  0
 13 17  1  0  0  0  0
 13 28  1  0  0  0  0
 14 15  1  0  0  0  0
 14 29  1  0  0  0  0
 14 30  1  0  0  0  0
 15 19  1  0  0  0  0
 15 20  1  0  0  0  0
 15 31  1  0  0  0  0
 19 33  1  0  0  0  0
 19 37  1  0  0  0  0
 19 38  1  0  0  0  0
 20 34  1  0  0  0  0
 20 35  1  0  0  0  0
 20 36  1  0  0  0  0
 21 22  1  0  0  0  0
 21 40  1  0  0  0  0
 21 41  1  0  0  0  0
 22 23  1  0  0  0  0
 22 42  1  0  0  0  0
 22 43  1  0  0  0  0
 23 24  1  0  0  0  0
 23 44  1  0  0  0  0
 23 45  1  0  0  0  0
 24 47  1  0  0  0  0
 24 48  1  0  0  0  0
M  END
> <PUBCHEM_COMPOUND_CID>
134693142

> <PUBCHEM_CONFORMER_RMSD>
1.2

> <PUBCHEM_CONFORMER_DIVERSEORDER>
1
34
115
20
21
49
97
8
114
123
109
143
13
26
120
119
196
147
33
47
162
124
195
166
104
99
66
67
107
103
88
185
172
155
182
75
22
19
3
17
149
199
192
43
130
36
73
96
12
133
198
167
112
158
177
180
178
81
175
94
87
56
108
90
92
62
142
197
168
5
138
194
153
76
93
146
121
110
116
141
135
91
16
59
30
42
55
150
60
68
118
164
188
176
174
23
78
152
71
137
190
82
40
58
48
111
25
53
189
160
54
32
45
95
117
41
171
65
85
157
145
101
163
131
154
27
28
200
70
84
169
63
106
11
129
156
132
79
184
39
50
151
126
140
29
159
98
186
4
127
170
38
6
187
191
181
105
165
44
10
173
61
52
128
100
74
102
148
9
193
77
136
134
125
15
72
89
69
113
7
144
179
139
64
201
14
161
80
31
18
46
122
2
37
202
35
57
83
86
183
24
51

> <PUBCHEM_MMFF94_PARTIAL_CHARGES>
28
1 -0.3
10 -0.85
11 0.05
12 0.05
13 0.36
16 0.63
17 0.57
18 0.72
2 -0.57
21 0.3
24 0.25
25 0.55
26 0.1
27 0.1
3 -0.65
32 0.37
39 0.37
4 -0.57
46 0.5
49 0.4
5 -0.57
50 0.4
51 0.4
52 0.4
6 -0.73
7 -0.73
8 -0.7
9 -0.85

> <PUBCHEM_EFFECTIVE_ROTOR_COUNT>
13.6

> <PUBCHEM_PHARMACOPHORE_FEATURES>
12
1 1 acceptor
1 10 donor
1 2 acceptor
1 3 acceptor
1 4 acceptor
1 5 acceptor
1 6 donor
1 7 donor
1 9 donor
3 15 19 20 hydrophobe
3 3 5 18 anion
4 8 9 10 25 cation

> <PUBCHEM_HEAVY_ATOM_COUNT>
25

> <PUBCHEM_ATOM_DEF_STEREO_COUNT>
1

> <PUBCHEM_ATOM_UDEF_STEREO_COUNT>
2

> <PUBCHEM_BOND_DEF_STEREO_COUNT>
0

> <PUBCHEM_BOND_UDEF_STEREO_COUNT>
0

> <PUBCHEM_ISOTOPIC_ATOM_COUNT>
0

> <PUBCHEM_COMPONENT_COUNT>
1

> <PUBCHEM_CACTVS_TAUTO_COUNT>
8

> <PUBCHEM_CONFORMER_ID>
0807411600000001

> <PUBCHEM_MMFF94_ENERGY>
38.3633

> <PUBCHEM_FEATURE_SELFOVERLAP>
61.013

> <PUBCHEM_SHAPE_FINGERPRINT>
11118852 30 18189616223461203241
11488393 25 18337945706419945810
12788726 201 16393787850190669436
12839892 36 18263633133992359705
12969540 37 18263645073969417294
13533116 47 18341604868723477269
13757389 114 17617669095328529324
14251757 5 17613443246756308535
14363568 33 18341335483209078598
14863182 85 18188217618600162349
17909252 39 18337684030778505634
1979834 28 18191316064358789603
20028762 73 18051131694344206071
20775530 9 18335702685830922675
21365058 27 18196659707717743284
23379529 103 17906460922005292551
23559900 14 18191014608767599477
238078 22 17616536151416559364
238918 7 18263646341021615282
255183 313 18049984886811587800
474229 33 18115860978695578052
6287921 2 18408886243820017563
6371380 46 17687457967482560533
6442390 28 18196648712591123792
6703917 75 18196667408853275656

> <PUBCHEM_SHAPE_MULTIPOLES>
460.24
10.6
6.38
1.51
15.14
6.57
-0.07
-0.12
3.36
-8.51
-1.26
-0.32
-0.83
3.29

> <PUBCHEM_SHAPE_SELFOVERLAP>
905.079

> <PUBCHEM_SHAPE_VOLUME>
273.4

> <PUBCHEM_COORDINATE_TYPE>
2
5
10

$$$$
