134613244
  -OEChem-03292013293D

 48 49  0     1  0  0  0  0  0999 V2000
   -1.8443    0.3125    0.9062 O   0  0  0  0  0  0  0  0  0  0  0  0
   -5.7029    1.7748    0.9678 O   0  0  0  0  0  0  0  0  0  0  0  0
   -0.2024   -4.0873   -1.0687 O   0  0  0  0  0  0  0  0  0  0  0  0
    0.9040   -1.1922   -1.5814 O   0  0  0  0  0  0  0  0  0  0  0  0
    4.2466   -2.2299    1.3680 O   0  0  0  0  0  0  0  0  0  0  0  0
   -3.9372    1.0662   -0.3967 N   0  0  0  0  0  0  0  0  0  0  0  0
   -1.5317   -1.6191   -0.3564 N   0  0  0  0  0  0  0  0  0  0  0  0
    1.8686   -1.1355    0.5286 N   0  0  0  0  0  0  0  0  0  0  0  0
    5.2283   -1.3870   -0.5300 N   0  0  0  0  0  0  0  0  0  0  0  0
   -3.3824   -0.1785   -0.8475 C   0  0  2  0  0  0  0  0  0  0  0  0
   -4.5031   -1.1759   -0.6239 C   0  0  0  0  0  0  0  0  0  0  0  0
   -5.3129   -0.5821    0.5282 C   0  0  0  0  0  0  0  0  0  0  0  0
   -2.1858   -0.4509    0.0066 C   0  0  0  0  0  0  0  0  0  0  0  0
   -5.0560    0.9004    0.4124 C   0  0  0  0  0  0  0  0  0  0  0  0
   -0.3385   -2.0935    0.2956 C   0  0  2  0  0  0  0  0  0  0  0  0
    3.0943   -0.4743    0.1448 C   0  0  1  0  0  0  0  0  0  0  0  0
    0.8644   -1.4424   -0.3785 C   0  0  0  0  0  0  0  0  0  0  0  0
    3.3104    0.8358    0.9110 C   0  0  0  0  0  0  0  0  0  0  0  0
   -0.2502   -3.6161    0.2732 C   0  0  0  0  0  0  0  0  0  0  0  0
    2.4993    1.9796    0.3523 C   0  0  0  0  0  0  0  0  0  0  0  0
    4.2328   -1.4449    0.4228 C   0  0  0  0  0  0  0  0  0  0  0  0
    3.0349    2.7918   -0.6472 C   0  0  0  0  0  0  0  0  0  0  0  0
    1.2142    2.2244    0.8359 C   0  0  0  0  0  0  0  0  0  0  0  0
    2.2852    3.8489   -1.1633 C   0  0  0  0  0  0  0  0  0  0  0  0
    0.4645    3.2815    0.3200 C   0  0  0  0  0  0  0  0  0  0  0  0
    1.0000    4.0937   -0.6797 C   0  0  0  0  0  0  0  0  0  0  0  0
   -3.0872   -0.0932   -1.8975 H   0  0  0  0  0  0  0  0  0  0  0  0
   -4.1753   -2.1968   -0.4068 H   0  0  0  0  0  0  0  0  0  0  0  0
   -5.1384   -1.2156   -1.5181 H   0  0  0  0  0  0  0  0  0  0  0  0
   -4.9419   -0.9288    1.4977 H   0  0  0  0  0  0  0  0  0  0  0  0
   -6.3785   -0.8040    0.4325 H   0  0  0  0  0  0  0  0  0  0  0  0
   -3.5342    1.9739   -0.6083 H   0  0  0  0  0  0  0  0  0  0  0  0
   -0.3818   -1.7631    1.3408 H   0  0  0  0  0  0  0  0  0  0  0  0
   -1.8600   -2.1311   -1.1706 H   0  0  0  0  0  0  0  0  0  0  0  0
    3.0668   -0.2749   -0.9336 H   0  0  0  0  0  0  0  0  0  0  0  0
    4.3714    1.1193    0.8836 H   0  0  0  0  0  0  0  0  0  0  0  0
    3.0772    0.7049    1.9765 H   0  0  0  0  0  0  0  0  0  0  0  0
    1.7648   -1.4152    1.4999 H   0  0  0  0  0  0  0  0  0  0  0  0
   -1.1277   -4.0625    0.7519 H   0  0  0  0  0  0  0  0  0  0  0  0
    0.6454   -3.9720    0.7930 H   0  0  0  0  0  0  0  0  0  0  0  0
    4.0340    2.6094   -1.0339 H   0  0  0  0  0  0  0  0  0  0  0  0
    0.7861    1.5992    1.6149 H   0  0  0  0  0  0  0  0  0  0  0  0
    0.6353   -3.7867   -1.4597 H   0  0  0  0  0  0  0  0  0  0  0  0
    2.7018    4.4808   -1.9422 H   0  0  0  0  0  0  0  0  0  0  0  0
   -0.5367    3.4711    0.6958 H   0  0  0  0  0  0  0  0  0  0  0  0
    5.2038   -0.7354   -1.3078 H   0  0  0  0  0  0  0  0  0  0  0  0
    6.0392   -1.9941   -0.4721 H   0  0  0  0  0  0  0  0  0  0  0  0
    0.4159    4.9164   -1.0818 H   0  0  0  0  0  0  0  0  0  0  0  0
  1 13  2  0  0  0  0
  2 14  2  0  0  0  0
  3 19  1  0  0  0  0
  3 43  1  0  0  0  0
  4 17  2  0  0  0  0
  5 21  2  0  0  0  0
  6 10  1  0  0  0  0
  6 14  1  0  0  0  0
  6 32  1  0  0  0  0
  7 13  1  0  0  0  0
  7 15  1  0  0  0  0
  7 34  1  0  0  0  0
  8 16  1  0  0  0  0
  8 17  1  0  0  0  0
  8 38  1  0  0  0  0
  9 21  1  0  0  0  0
  9 46  1  0  0  0  0
  9 47  1  0  0  0  0
 10 11  1  0  0  0  0
 10 13  1  0  0  0  0
 10 27  1  0  0  0  0
 11 12  1  0  0  0  0
 11 28  1  0  0  0  0
 11 29  1  0  0  0  0
 12 14  1  0  0  0  0
 12 30  1  0  0  0  0
 12 31  1  0  0  0  0
 15 17  1  0  0  0  0
 15 19  1  0  0  0  0
 15 33  1  0  0  0  0
 16 18  1  0  0  0  0
 16 21  1  0  0  0  0
 16 35  1  0  0  0  0
 18 20  1  0  0  0  0
 18 36  1  0  0  0  0
 18 37  1  0  0  0  0
 19 39  1  0  0  0  0
 19 40  1  0  0  0  0
 20 22  2  0  0  0  0
 20 23  1  0  0  0  0
 22 24  1  0  0  0  0
 22 41  1  0  0  0  0
 23 25  2  0  0  0  0
 23 42  1  0  0  0  0
 24 26  2  0  0  0  0
 24 44  1  0  0  0  0
 25 26  1  0  0  0  0
 25 45  1  0  0  0  0
 26 48  1  0  0  0  0
M  END
> <PUBCHEM_COMPOUND_CID>
134613244

> <PUBCHEM_CONFORMER_RMSD>
1

> <PUBCHEM_CONFORMER_DIVERSEORDER>
1
8
66
60
117
124
105
15
106
2
87
136
113
103
52
58
20
57
65
53
120
13
126
31
90
101
21
26
86
50
115
10
33
24
40
89
41
4
80
63
131
99
17
30
32
123
118
43
70
29
98
64
62
107
127
96
59
12
85
18
100
93
16
22
42
51
6
5
130
102
49
78
121
109
95
88
47
25
76
114
108
110
122
71
38
7
75
35
61
104
45
11
37
97
39
54
116
27
119
28
112
19
84
55
72
133
68
79
14
23
56
135
77
34
92
48
81
9
44
134
74
128
67
91
111
125
3
132
129
69
36
94
73
46
83
82

> <PUBCHEM_MMFF94_PARTIAL_CHARGES>
36
1 -0.57
10 0.36
12 0.06
13 0.57
14 0.57
15 0.36
16 0.36
17 0.57
18 0.14
19 0.28
2 -0.57
20 -0.14
21 0.57
22 -0.15
23 -0.15
24 -0.15
25 -0.15
26 -0.15
3 -0.68
32 0.37
34 0.37
38 0.37
4 -0.57
41 0.15
42 0.15
43 0.4
44 0.15
45 0.15
46 0.37
47 0.37
48 0.15
5 -0.57
6 -0.73
7 -0.73
8 -0.73
9 -0.8

> <PUBCHEM_EFFECTIVE_ROTOR_COUNT>
10.8

> <PUBCHEM_PHARMACOPHORE_FEATURES>
12
1 1 acceptor
1 2 acceptor
1 3 acceptor
1 3 donor
1 4 acceptor
1 5 acceptor
1 6 donor
1 7 donor
1 8 donor
1 9 donor
5 6 10 11 12 14 rings
6 20 22 23 24 25 26 rings

> <PUBCHEM_HEAVY_ATOM_COUNT>
26

> <PUBCHEM_ATOM_DEF_STEREO_COUNT>
3

> <PUBCHEM_ATOM_UDEF_STEREO_COUNT>
0

> <PUBCHEM_BOND_DEF_STEREO_COUNT>
0

> <PUBCHEM_BOND_UDEF_STEREO_COUNT>
0

> <PUBCHEM_ISOTOPIC_ATOM_COUNT>
0

> <PUBCHEM_COMPONENT_COUNT>
1

> <PUBCHEM_CACTVS_TAUTO_COUNT>
240

> <PUBCHEM_CONFORMER_ID>
080608FC00000001

> <PUBCHEM_MMFF94_ENERGY>
61.2037

> <PUBCHEM_FEATURE_SELFOVERLAP>
60.903

> <PUBCHEM_SHAPE_FINGERPRINT>
10688039 33 18042686104997700844
1100329 8 18410291440928694754
11578080 2 15141828248725104972
12166972 35 18343864428640369531
12403260 363 18340476872445144447
12596602 18 13623537835452478647
12633257 1 17970888167581526816
12788726 201 18191307083809501018
13583140 156 17459726251326828595
14117953 113 18197498428957576285
14251764 38 18337393867615542747
14466204 15 18337102346161869618
151778 21 18263649626825057829
15475509 84 17396973566217175891
18785283 64 18335713762345642769
20642791 178 18411707586446741953
20739085 24 18410577253748625368
21033648 29 17023449907228113503
21285901 2 17915469298777099934
21709351 56 18411692167624737399
21860390 5 18272373070242787502
22113638 7 18412255155937490838
22907989 373 17402892722972848365
23558518 356 18121769788759359918
23559900 14 18271240633723345362
3052486 1 18122635950745232956
338550 245 18339649949333060193
340366 18 18343020034187023838
345986 75 17462261574974913418
3680242 22 18338240366708807019
474 4 18412263948025429899
5048184 11 18049164663668604109
513532 50 17917158298739608052
6086070 43 17899100937571926799
7832392 63 18267296720037274770

> <PUBCHEM_SHAPE_MULTIPOLES>
485.8
10.31
5.14
1.09
10.37
1.33
0.09
0.85
-1.5
-4.02
0.97
-0.21
0.02
-1.43

> <PUBCHEM_SHAPE_SELFOVERLAP>
1011.477

> <PUBCHEM_SHAPE_VOLUME>
274.3

> <PUBCHEM_COORDINATE_TYPE>
2
5
10

$$$$
