134692548
  -OEChem-03292013293D

 39 41  0     1  0  0  0  0  0999 V2000
    2.3614    0.1134    1.0002 O   0  0  0  0  0  0  0  0  0  0  0  0
    1.7559   -2.4950   -1.3439 O   0  0  0  0  0  0  0  0  0  0  0  0
    4.2188   -0.7044   -1.9488 O   0  0  0  0  0  0  0  0  0  0  0  0
    4.6643    1.5542    1.8004 O   0  0  0  0  0  0  0  0  0  0  0  0
   -3.5530    1.4448   -0.2117 O   0  0  0  0  0  0  0  0  0  0  0  0
   -0.2092    3.8794   -0.3797 O   0  0  0  0  0  0  0  0  0  0  0  0
    0.1450   -0.1919    0.2148 N   0  0  0  0  0  0  0  0  0  0  0  0
   -0.8162   -2.3988    0.4791 N   0  0  0  0  0  0  0  0  0  0  0  0
   -3.2051   -2.7141    0.3998 N   0  0  0  0  0  0  0  0  0  0  0  0
   -4.6548   -0.9107    0.0674 N   0  0  0  0  0  0  0  0  0  0  0  0
   -2.5117    3.7381   -0.4809 N   0  0  0  0  0  0  0  0  0  0  0  0
    2.0357   -1.1531   -0.9868 C   0  0  1  0  0  0  0  0  0  0  0  0
    1.4437   -0.7988    0.3702 C   0  0  1  0  0  0  0  0  0  0  0  0
    3.5162   -0.9588   -0.7479 C   0  0  2  0  0  0  0  0  0  0  0  0
    3.5128    0.2607    0.1548 C   0  0  2  0  0  0  0  0  0  0  0  0
    4.7631    0.3827    1.0069 C   0  0  0  0  0  0  0  0  0  0  0  0
   -0.9714   -1.0655    0.2811 C   0  0  0  0  0  0  0  0  0  0  0  0
   -0.0454    1.1607    0.0128 C   0  0  0  0  0  0  0  0  0  0  0  0
   -2.2530   -0.5242    0.1372 C   0  0  0  0  0  0  0  0  0  0  0  0
   -1.2287    1.7693   -0.1354 C   0  0  0  0  0  0  0  0  0  0  0  0
   -2.4511    0.9276   -0.0800 C   0  0  0  0  0  0  0  0  0  0  0  0
   -3.3329   -1.3890    0.2042 C   0  0  0  0  0  0  0  0  0  0  0  0
   -1.2456    3.2181   -0.3409 C   0  0  0  0  0  0  0  0  0  0  0  0
   -1.9389   -3.1448    0.5271 C   0  0  0  0  0  0  0  0  0  0  0  0
    1.6730   -0.5090   -1.7964 H   0  0  0  0  0  0  0  0  0  0  0  0
    1.4130   -1.6702    1.0358 H   0  0  0  0  0  0  0  0  0  0  0  0
    3.9620   -1.8352   -0.2636 H   0  0  0  0  0  0  0  0  0  0  0  0
    3.3770    1.1871   -0.4183 H   0  0  0  0  0  0  0  0  0  0  0  0
    5.6597    0.4543    0.3837 H   0  0  0  0  0  0  0  0  0  0  0  0
    4.8592   -0.4710    1.6857 H   0  0  0  0  0  0  0  0  0  0  0  0
    0.8823    1.7197   -0.0327 H   0  0  0  0  0  0  0  0  0  0  0  0
    2.0717   -3.0752   -0.6305 H   0  0  0  0  0  0  0  0  0  0  0  0
    3.8190    0.0696   -2.3805 H   0  0  0  0  0  0  0  0  0  0  0  0
    5.4751    1.6074    2.3345 H   0  0  0  0  0  0  0  0  0  0  0  0
   -1.8030   -4.2077    0.6855 H   0  0  0  0  0  0  0  0  0  0  0  0
   -4.8670    0.0251    0.3896 H   0  0  0  0  0  0  0  0  0  0  0  0
   -5.3942   -1.6010    0.1198 H   0  0  0  0  0  0  0  0  0  0  0  0
   -3.3671    3.1968   -0.4495 H   0  0  0  0  0  0  0  0  0  0  0  0
   -2.6353    4.7348   -0.6281 H   0  0  0  0  0  0  0  0  0  0  0  0
  1 13  1  0  0  0  0
  1 15  1  0  0  0  0
  2 12  1  0  0  0  0
  2 32  1  0  0  0  0
  3 14  1  0  0  0  0
  3 33  1  0  0  0  0
  4 16  1  0  0  0  0
  4 34  1  0  0  0  0
  5 21  2  0  0  0  0
  6 23  2  0  0  0  0
  7 13  1  0  0  0  0
  7 17  1  0  0  0  0
  7 18  1  0  0  0  0
  8 17  2  0  0  0  0
  8 24  1  0  0  0  0
  9 22  1  0  0  0  0
  9 24  2  0  0  0  0
 10 22  1  0  0  0  0
 10 36  1  0  0  0  0
 10 37  1  0  0  0  0
 11 23  1  0  0  0  0
 11 38  1  0  0  0  0
 11 39  1  0  0  0  0
 12 13  1  0  0  0  0
 12 14  1  0  0  0  0
 12 25  1  0  0  0  0
 13 26  1  0  0  0  0
 14 15  1  0  0  0  0
 14 27  1  0  0  0  0
 15 16  1  0  0  0  0
 15 28  1  0  0  0  0
 16 29  1  0  0  0  0
 16 30  1  0  0  0  0
 17 19  1  0  0  0  0
 18 20  2  0  0  0  0
 18 31  1  0  0  0  0
 19 21  1  0  0  0  0
 19 22  2  0  0  0  0
 20 21  1  0  0  0  0
 20 23  1  0  0  0  0
 24 35  1  0  0  0  0
M  END
> <PUBCHEM_COMPOUND_CID>
134692548

> <PUBCHEM_CONFORMER_RMSD>
0.8

> <PUBCHEM_CONFORMER_DIVERSEORDER>
1
36
30
10
2
34
16
27
24
23
18
33
26
28
13
32
29
20
8
25
15
22
4
9
31
5
19
17
7
12
11
21
38
6
35
3
37
14

> <PUBCHEM_MMFF94_PARTIAL_CHARGES>
33
1 -0.56
10 -0.9
11 -0.8
12 0.28
13 0.65
14 0.28
15 0.28
16 0.28
17 0.41
18 -0.05
19 0.09
2 -0.68
20 0.03
21 0.47
22 0.41
23 0.62
24 0.47
3 -0.68
31 0.15
32 0.4
33 0.4
34 0.4
35 0.15
36 0.4
37 0.4
38 0.37
39 0.37
4 -0.68
5 -0.57
6 -0.57
7 -0.57
8 -0.62
9 -0.62

> <PUBCHEM_EFFECTIVE_ROTOR_COUNT>
4

> <PUBCHEM_PHARMACOPHORE_FEATURES>
18
1 1 acceptor
1 10 cation
1 10 donor
1 11 donor
1 2 acceptor
1 2 donor
1 20 anion
1 3 acceptor
1 3 donor
1 4 acceptor
1 4 donor
1 5 acceptor
1 6 acceptor
3 7 8 17 cation
3 8 9 24 cation
5 1 12 13 14 15 rings
6 7 17 18 19 20 21 rings
6 8 9 17 19 22 24 rings

> <PUBCHEM_HEAVY_ATOM_COUNT>
24

> <PUBCHEM_ATOM_DEF_STEREO_COUNT>
1

> <PUBCHEM_ATOM_UDEF_STEREO_COUNT>
3

> <PUBCHEM_BOND_DEF_STEREO_COUNT>
0

> <PUBCHEM_BOND_UDEF_STEREO_COUNT>
0

> <PUBCHEM_ISOTOPIC_ATOM_COUNT>
0

> <PUBCHEM_COMPONENT_COUNT>
1

> <PUBCHEM_CACTVS_TAUTO_COUNT>
10

> <PUBCHEM_CONFORMER_ID>
08073EC400000001

> <PUBCHEM_MMFF94_ENERGY>
84.8375

> <PUBCHEM_FEATURE_SELFOVERLAP>
91.5

> <PUBCHEM_SHAPE_FINGERPRINT>
10165383 225 17689175417070735740
10319926 262 18267000831609216690
10369192 42 17272851168275460008
10411042 1 18048034357209932915
10498660 4 18335700486258852461
10906281 52 18338247067037201305
10967382 1 17544198641606989281
1100329 8 18262800804259241507
11833330 49 18333729147751768529
12035758 1 18336834190680513067
12173636 292 18192147097074743765
12236239 1 17167857591130143218
12403259 226 18343303652415419554
12553582 1 18264503925879377671
12788726 201 18187657898235079880
13034934 17 17986937738959743096
13140716 1 18192150618995152369
13402501 40 18272362109903349432
138480 1 15887146047638273921
13965767 371 17246665967429814252
14081887 123 18409724058690031560
14178342 30 18261386716167886994
14790565 3 18121514466170979973
15099037 37 18338507646929471386
15961568 22 18191869140272970932
16945 1 18335987480031031531
17134986 127 17469329132100614341
17357779 13 18270671065235331495
19591789 44 17834124043845285641
20510252 161 18340485569510981617
20642791 13 18342451535357187541
20693207 138 17986973885409865526
21524375 3 17538290527101270537
22182313 1 18131633379312937014
23366157 5 17320137937110713821
23402539 116 18339630248106647911
23557571 272 18412267246407475204
23558518 356 18115872892997797266
23559900 14 18339929221354947318
23845131 108 17690291408973668017
2748010 2 18338226172148017281
3178227 256 18260841432079833283
3187 122 18192130802048197296
350125 39 17758964722957233195
352729 6 17831570982103497457
3886686 26 17614255798856236586
5104073 3 18342176639901162058
6049 1 18130797724495098180
621550 34 18201998858920011882
6913067 236 18058711633106795554
7097593 13 17609192590764976770
7364860 26 17761783162243515857
7399639 24 18201997755039726286
7808743 9 18262249807184578500
81228 2 18337408070650261307
84936 182 17330550947707105304
9709674 26 18270681965714811038
9925002 15 17051037998140978062

> <PUBCHEM_SHAPE_MULTIPOLES>
433.79
8
3.99
1.09
5.87
2.73
-0.11
-0.86
0.94
-3.8
-0.4
1.62
-0.15
1.77

> <PUBCHEM_SHAPE_SELFOVERLAP>
946.643

> <PUBCHEM_SHAPE_VOLUME>
230.8

> <PUBCHEM_COORDINATE_TYPE>
2
5
10

$$$$
