134692099
  -OEChem-03292013293D

 39 39  0     1  0  0  0  0  0999 V2000
    4.1809    0.4109    1.6229 S   0  0  0  0  0  0  0  0  0  0  0  0
    2.3706   -2.5540   -2.2056 O   0  0  0  0  0  0  0  0  0  0  0  0
    0.2428   -2.4679    1.3369 O   0  0  0  0  0  0  0  0  0  0  0  0
   -1.4856    3.0787   -0.3486 O   0  0  0  0  0  0  0  0  0  0  0  0
    0.7351   -1.6921   -0.7924 N   0  0  0  0  0  0  0  0  0  0  0  0
   -0.5036    0.9623   -0.0564 N   0  0  0  0  0  0  0  0  0  0  0  0
    1.2957    3.2456    1.0810 N   0  0  0  0  0  0  0  0  0  0  0  0
    2.0911   -2.2042   -0.8576 C   0  0  2  0  0  0  0  0  0  0  0  0
    3.1286   -1.1922   -0.3573 C   0  0  0  0  0  0  0  0  0  0  0  0
   -1.4329   -1.2661    0.2218 C   0  0  0  0  0  0  0  0  0  0  0  0
   -1.6041    0.1064    0.0418 C   0  0  0  0  0  0  0  0  0  0  0  0
   -0.0804   -1.8713    0.3134 C   0  0  0  0  0  0  0  0  0  0  0  0
    0.9175    2.9175   -0.2916 C   0  0  1  0  0  0  0  0  0  0  0  0
    2.9185   -0.7887    1.1042 C   0  0  0  0  0  0  0  0  0  0  0  0
   -0.5007    2.3546   -0.2341 C   0  0  0  0  0  0  0  0  0  0  0  0
   -2.5461   -2.1008    0.3202 C   0  0  0  0  0  0  0  0  0  0  0  0
   -2.8886    0.6442   -0.0399 C   0  0  0  0  0  0  0  0  0  0  0  0
   -3.8306   -1.5630    0.2386 C   0  0  0  0  0  0  0  0  0  0  0  0
   -4.0019   -0.1905    0.0585 C   0  0  0  0  0  0  0  0  0  0  0  0
    0.9936    4.1707   -1.1558 C   0  0  0  0  0  0  0  0  0  0  0  0
    2.1544   -3.1186   -0.2567 H   0  0  0  0  0  0  0  0  0  0  0  0
    3.0916   -0.3022   -1.0005 H   0  0  0  0  0  0  0  0  0  0  0  0
    4.1295   -1.6222   -0.4944 H   0  0  0  0  0  0  0  0  0  0  0  0
    0.3878   -1.1754   -1.5948 H   0  0  0  0  0  0  0  0  0  0  0  0
    1.6047    2.1660   -0.6965 H   0  0  0  0  0  0  0  0  0  0  0  0
    1.9502   -0.3122    1.2618 H   0  0  0  0  0  0  0  0  0  0  0  0
    2.9830   -1.6642    1.7577 H   0  0  0  0  0  0  0  0  0  0  0  0
    0.4067    0.5172    0.0075 H   0  0  0  0  0  0  0  0  0  0  0  0
   -2.4267   -3.1723    0.4589 H   0  0  0  0  0  0  0  0  0  0  0  0
   -3.1116    1.6920   -0.1772 H   0  0  0  0  0  0  0  0  0  0  0  0
   -4.6973   -2.2130    0.3149 H   0  0  0  0  0  0  0  0  0  0  0  0
   -5.0028    0.2267   -0.0048 H   0  0  0  0  0  0  0  0  0  0  0  0
    0.3558    4.9740   -0.7689 H   0  0  0  0  0  0  0  0  0  0  0  0
    2.0199    4.5503   -1.2089 H   0  0  0  0  0  0  0  0  0  0  0  0
    0.6610    3.9529   -2.1767 H   0  0  0  0  0  0  0  0  0  0  0  0
    1.6211   -3.0894   -2.5165 H   0  0  0  0  0  0  0  0  0  0  0  0
    2.2360    3.6390    1.0924 H   0  0  0  0  0  0  0  0  0  0  0  0
    1.3404    2.3914    1.6360 H   0  0  0  0  0  0  0  0  0  0  0  0
    3.7404    0.5605    2.8806 H   0  0  0  0  0  0  0  0  0  0  0  0
  1 14  1  0  0  0  0
  1 39  1  0  0  0  0
  2  8  1  0  0  0  0
  2 36  1  0  0  0  0
  3 12  2  0  0  0  0
  4 15  2  0  0  0  0
  5  8  1  0  0  0  0
  5 12  1  0  0  0  0
  5 24  1  0  0  0  0
  6 11  1  0  0  0  0
  6 15  1  0  0  0  0
  6 28  1  0  0  0  0
  7 13  1  0  0  0  0
  7 37  1  0  0  0  0
  7 38  1  0  0  0  0
  8  9  1  0  0  0  0
  8 21  1  0  0  0  0
  9 14  1  0  0  0  0
  9 22  1  0  0  0  0
  9 23  1  0  0  0  0
 10 11  1  0  0  0  0
 10 12  1  0  0  0  0
 10 16  2  0  0  0  0
 11 17  2  0  0  0  0
 13 15  1  0  0  0  0
 13 20  1  0  0  0  0
 13 25  1  0  0  0  0
 14 26  1  0  0  0  0
 14 27  1  0  0  0  0
 16 18  1  0  0  0  0
 16 29  1  0  0  0  0
 17 19  1  0  0  0  0
 17 30  1  0  0  0  0
 18 19  2  0  0  0  0
 18 31  1  0  0  0  0
 19 32  1  0  0  0  0
 20 33  1  0  0  0  0
 20 34  1  0  0  0  0
 20 35  1  0  0  0  0
M  END
> <PUBCHEM_COMPOUND_CID>
134692099

> <PUBCHEM_CONFORMER_RMSD>
1

> <PUBCHEM_CONFORMER_DIVERSEORDER>
1
40
38
50
24
29
26
4
21
57
31
77
3
60
11
12
20
34
70
56
82
41
30
67
16
49
44
75
54
55
78
27
69
68
80
59
52
79
17
48
32
5
19
9
45
23
35
36
74
6
46
13
58
15
33
64
2
22
51
39
8
73
43
25
62
53
10
37
66
76
61
14
28
65
47
71
63
42
81
7
72
18

> <PUBCHEM_MMFF94_PARTIAL_CHARGES>
28
1 -0.41
10 0.09
11 0.12
12 0.54
13 0.33
14 0.23
15 0.57
16 -0.15
17 -0.15
18 -0.15
19 -0.15
2 -0.68
24 0.37
28 0.37
29 0.15
3 -0.57
30 0.15
31 0.15
32 0.15
36 0.4
37 0.36
38 0.36
39 0.18
4 -0.57
5 -0.73
6 -0.55
7 -0.99
8 0.58

> <PUBCHEM_EFFECTIVE_ROTOR_COUNT>
8

> <PUBCHEM_PHARMACOPHORE_FEATURES>
9
1 2 acceptor
1 2 donor
1 3 acceptor
1 4 acceptor
1 5 donor
1 6 donor
1 7 cation
1 7 donor
6 10 11 16 17 18 19 rings

> <PUBCHEM_HEAVY_ATOM_COUNT>
20

> <PUBCHEM_ATOM_DEF_STEREO_COUNT>
2

> <PUBCHEM_ATOM_UDEF_STEREO_COUNT>
0

> <PUBCHEM_BOND_DEF_STEREO_COUNT>
0

> <PUBCHEM_BOND_UDEF_STEREO_COUNT>
0

> <PUBCHEM_ISOTOPIC_ATOM_COUNT>
0

> <PUBCHEM_COMPONENT_COUNT>
1

> <PUBCHEM_CACTVS_TAUTO_COUNT>
116

> <PUBCHEM_CONFORMER_ID>
08073D0300000001

> <PUBCHEM_MMFF94_ENERGY>
45.6293

> <PUBCHEM_FEATURE_SELFOVERLAP>
45.718

> <PUBCHEM_SHAPE_FINGERPRINT>
10498660 4 18119814607707078068
107951 10 16815192767189856708
11578080 2 16736045362808753607
12403259 226 18127410038712577710
12553582 1 18337402590235314949
12592029 89 17542230502802873859
13140716 1 18336826515304903561
14022349 108 18120659290562231161
14790565 3 17690854358637100573
15006816 218 18050574233190430581
18785283 64 18117571823694599641
19591789 44 16392969392669764931
20905425 154 17615418385845914026
23419403 2 17825921944277830311
23557571 272 18197218053418594462
23728640 28 16971390526659744384
2748010 2 18196370321184010669
3524813 1 18131055048833780898
352729 6 17110436395528526291
43471831 8 17616252928377719995
5939293 188 18337107981459479688
7364860 26 18196941178372670881
81228 2 18194416493284836635
84936 31 17274829064195005502
90316 7 18189884349241448648
90525 40 17038385956431535217
9925002 15 17052149578706210742

> <PUBCHEM_SHAPE_MULTIPOLES>
382.89
6.16
4.75
1.3
1.07
4.64
0.24
-2.2
-1.82
-2.55
1.51
-1.47
-0.58
0.72

> <PUBCHEM_SHAPE_SELFOVERLAP>
766.831

> <PUBCHEM_SHAPE_VOLUME>
226.8

> <PUBCHEM_COORDINATE_TYPE>
2
5
10

$$$$
