134692168
  -OEChem-03292013293D

 53 58  0     1  0  0  0  0  0999 V2000
    0.3617    0.4611    1.6622 O   0  0  0  0  0  0  0  0  0  0  0  0
   -0.4055    2.7186   -0.7460 O   0  0  0  0  0  0  0  0  0  0  0  0
   -0.1250   -1.8594    1.5318 O   0  0  0  0  0  0  0  0  0  0  0  0
    3.3113   -0.4819   -1.6271 O   0  0  0  0  0  0  0  0  0  0  0  0
    2.9816    1.9729    0.1177 O   0  0  0  0  0  0  0  0  0  0  0  0
   -1.6141   -2.0382   -1.6575 O   0  0  0  0  0  0  0  0  0  0  0  0
    0.5901    3.2863    1.2293 O   0  0  0  0  0  0  0  0  0  0  0  0
   -0.2322   -3.7386    0.2221 O   0  0  0  0  0  0  0  0  0  0  0  0
    4.8082   -1.5926   -0.2970 O   0  0  0  0  0  0  0  0  0  0  0  0
   -0.1216    0.3447   -0.6837 C   0  0  2  0  0  0  0  0  0  0  0  0
   -1.2535   -0.3648    0.0901 C   0  0  2  0  0  0  0  0  0  0  0  0
    0.7280    1.0038    0.4018 C   0  0  2  0  0  0  0  0  0  0  0  0
   -0.7519    1.5143   -1.4436 C   0  0  1  0  0  0  0  0  0  0  0  0
   -2.4246    0.6529    0.0347 C   0  0  1  0  0  0  0  0  0  0  0  0
    2.2079    0.7818    0.0287 C   0  0  1  0  0  0  0  0  0  0  0  0
    0.8654   -0.4506   -1.5423 C   0  0  0  0  0  0  0  0  0  0  0  0
   -0.6638   -0.5272    1.4831 C   0  0  2  0  0  0  0  0  0  0  0  0
   -2.2562    1.2988   -1.3420 C   0  0  0  0  0  0  0  0  0  0  0  0
    2.1641    0.3432   -1.4257 C   0  0  2  0  0  0  0  0  0  0  0  0
   -1.6109   -1.7982   -0.2768 C   0  0  2  0  0  0  0  0  0  0  0  0
    0.3155    2.4542    0.3773 C   0  0  0  0  0  0  0  0  0  0  0  0
   -3.8344    0.1155    0.2391 C   0  0  0  0  0  0  0  0  0  0  0  0
    2.9412   -0.3820    0.7008 C   0  0  1  0  0  0  0  0  0  0  0  0
   -0.5880   -2.6001    0.4809 C   0  0  0  0  0  0  0  0  0  0  0  0
    3.8181   -0.8882   -0.4218 C   0  0  0  0  0  0  0  0  0  0  0  0
   -4.1356   -0.9767   -0.8036 C   0  0  0  0  0  0  0  0  0  0  0  0
   -4.8582    1.2548    0.0824 C   0  0  0  0  0  0  0  0  0  0  0  0
   -3.9665   -0.4874    1.6496 C   0  0  0  0  0  0  0  0  0  0  0  0
    3.7488   -0.0174    1.9357 C   0  0  0  0  0  0  0  0  0  0  0  0
   -0.4280    1.6161   -2.4839 H   0  0  0  0  0  0  0  0  0  0  0  0
   -2.2509    1.4299    0.7944 H   0  0  0  0  0  0  0  0  0  0  0  0
    0.5491   -0.5400   -2.5871 H   0  0  0  0  0  0  0  0  0  0  0  0
    1.0233   -1.4704   -1.1814 H   0  0  0  0  0  0  0  0  0  0  0  0
   -1.3712   -0.4259    2.3081 H   0  0  0  0  0  0  0  0  0  0  0  0
   -2.5704    0.6709   -2.1771 H   0  0  0  0  0  0  0  0  0  0  0  0
   -2.7874    2.2538   -1.4093 H   0  0  0  0  0  0  0  0  0  0  0  0
    2.2003    1.1845   -2.1270 H   0  0  0  0  0  0  0  0  0  0  0  0
   -2.4978   -2.2056    0.1891 H   0  0  0  0  0  0  0  0  0  0  0  0
    2.2598   -1.2038    0.9394 H   0  0  0  0  0  0  0  0  0  0  0  0
    3.8446    1.8127   -0.3006 H   0  0  0  0  0  0  0  0  0  0  0  0
   -5.8659    0.9171    0.3526 H   0  0  0  0  0  0  0  0  0  0  0  0
   -4.9142    1.6257   -0.9464 H   0  0  0  0  0  0  0  0  0  0  0  0
   -4.6131    2.0998    0.7359 H   0  0  0  0  0  0  0  0  0  0  0  0
   -5.1715   -0.8242   -1.1483 H   0  0  0  0  0  0  0  0  0  0  0  0
   -5.0014   -0.8038    1.8301 H   0  0  0  0  0  0  0  0  0  0  0  0
   -4.2155   -1.9938   -0.4095 H   0  0  0  0  0  0  0  0  0  0  0  0
   -3.3465   -1.3647    1.8357 H   0  0  0  0  0  0  0  0  0  0  0  0
   -3.7261    0.2597    2.4151 H   0  0  0  0  0  0  0  0  0  0  0  0
   -3.5884   -0.9456   -1.7408 H   0  0  0  0  0  0  0  0  0  0  0  0
    4.5800    0.6557    1.6997 H   0  0  0  0  0  0  0  0  0  0  0  0
    3.1160    0.4613    2.6894 H   0  0  0  0  0  0  0  0  0  0  0  0
    4.1861   -0.9163    2.3841 H   0  0  0  0  0  0  0  0  0  0  0  0
   -1.8432   -2.9730   -1.7954 H   0  0  0  0  0  0  0  0  0  0  0  0
  1 12  1  0  0  0  0
  1 17  1  0  0  0  0
  2 13  1  0  0  0  0
  2 21  1  0  0  0  0
  3 17  1  0  0  0  0
  3 24  1  0  0  0  0
  4 19  1  0  0  0  0
  4 25  1  0  0  0  0
  5 15  1  0  0  0  0
  5 40  1  0  0  0  0
  6 20  1  0  0  0  0
  6 53  1  0  0  0  0
  7 21  2  0  0  0  0
  8 24  2  0  0  0  0
  9 25  2  0  0  0  0
 10 11  1  0  0  0  0
 10 12  1  0  0  0  0
 10 13  1  0  0  0  0
 10 16  1  0  0  0  0
 11 14  1  0  0  0  0
 11 17  1  0  0  0  0
 11 20  1  0  0  0  0
 12 15  1  0  0  0  0
 12 21  1  0  0  0  0
 13 18  1  0  0  0  0
 13 30  1  0  0  0  0
 14 18  1  0  0  0  0
 14 22  1  0  0  0  0
 14 31  1  0  0  0  0
 15 19  1  0  0  0  0
 15 23  1  0  0  0  0
 16 19  1  0  0  0  0
 16 32  1  0  0  0  0
 16 33  1  0  0  0  0
 17 34  1  0  0  0  0
 18 35  1  0  0  0  0
 18 36  1  0  0  0  0
 19 37  1  0  0  0  0
 20 24  1  0  0  0  0
 20 38  1  0  0  0  0
 22 26  1  0  0  0  0
 22 27  1  0  0  0  0
 22 28  1  0  0  0  0
 23 25  1  0  0  0  0
 23 29  1  0  0  0  0
 23 39  1  0  0  0  0
 26 44  1  0  0  0  0
 26 46  1  0  0  0  0
 26 49  1  0  0  0  0
 27 41  1  0  0  0  0
 27 42  1  0  0  0  0
 27 43  1  0  0  0  0
 28 45  1  0  0  0  0
 28 47  1  0  0  0  0
 28 48  1  0  0  0  0
 29 50  1  0  0  0  0
 29 51  1  0  0  0  0
 29 52  1  0  0  0  0
M  END
> <PUBCHEM_COMPOUND_CID>
134692168

> <PUBCHEM_CONFORMER_RMSD>
0.8

> <PUBCHEM_CONFORMER_DIVERSEORDER>
1
5
2
4
6
3

> <PUBCHEM_MMFF94_PARTIAL_CHARGES>
21
1 -0.56
12 0.34
13 0.28
15 0.28
17 0.56
19 0.28
2 -0.43
20 0.34
21 0.66
23 0.06
24 0.66
25 0.66
3 -0.43
4 -0.43
40 0.4
5 -0.68
53 0.4
6 -0.68
7 -0.57
8 -0.57
9 -0.57

> <PUBCHEM_EFFECTIVE_ROTOR_COUNT>
2.8

> <PUBCHEM_PHARMACOPHORE_FEATURES>
15
1 1 acceptor
1 5 acceptor
1 5 donor
1 6 acceptor
1 6 donor
1 7 acceptor
1 8 acceptor
1 9 acceptor
4 22 26 27 28 hydrophobe
5 1 10 11 12 17 rings
5 10 11 13 14 18 rings
5 10 12 15 16 19 rings
5 2 10 12 13 21 rings
5 3 11 17 20 24 rings
5 4 15 19 23 25 rings

> <PUBCHEM_HEAVY_ATOM_COUNT>
29

> <PUBCHEM_ATOM_DEF_STEREO_COUNT>
5

> <PUBCHEM_ATOM_UDEF_STEREO_COUNT>
5

> <PUBCHEM_BOND_DEF_STEREO_COUNT>
0

> <PUBCHEM_BOND_UDEF_STEREO_COUNT>
0

> <PUBCHEM_ISOTOPIC_ATOM_COUNT>
0

> <PUBCHEM_COMPONENT_COUNT>
1

> <PUBCHEM_CACTVS_TAUTO_COUNT>
4

> <PUBCHEM_CONFORMER_ID>
08073D4800000001

> <PUBCHEM_MMFF94_ENERGY>
132.0087

> <PUBCHEM_FEATURE_SELFOVERLAP>
79.499

> <PUBCHEM_SHAPE_FINGERPRINT>
10863032 1 17845934168305163557
10906281 52 18129122098755086972
10948715 1 18341894151174752237
11370993 70 16988840579430821783
11578080 2 16842194487555101819
12011746 2 18041274397040232919
12035758 1 18411423946294467315
12422481 6 17826784842062781721
12592029 89 18261959531350288843
12633257 1 18266721640985550848
12714826 92 18186515475647364124
12788726 201 18269852934237819424
13140716 1 18336540611947774834
13224815 77 17749385983788027129
14022347 108 18337402560518534492
14790565 3 18335992986332924045
14955137 171 18338816558399966251
15209289 33 18410859854317600967
1601671 61 18263928748475980481
16752209 62 18188208689431569572
16945 1 17988929980740691021
17349148 13 17274831280556145035
18981168 100 13047603895121151311
19591789 44 18407757036736005707
20028762 73 18199751509036259591
20600515 1 18338813263733107180
20691752 17 18261662757710326919
20905425 154 18047189644526956959
21330990 113 18263932042320017349
21421861 104 17684095686340177761
22033318 11 16966942908513155987
22393880 68 18192123041717130991
23402539 116 18271803488838768093
23419403 2 17199348750494134482
23493267 7 16370717107216627477
23559900 14 18411140243063257380
296302 2 16415474986602871864
3493558 16 17060336340275475865
4340502 62 16773795887989367871
463206 1 18411135805671931438
465052 167 17459210593474321771
484985 159 15187453277802863166
5265222 85 18336559252897604782
59755656 215 18118686522036707599
9981440 41 17191485219801019337

> <PUBCHEM_SHAPE_MULTIPOLES>
543.98
6.97
2.86
1.66
0.35
0.36
0.12
0.82
0.4
0.14
0.21
-0.33
0.05
0.33

> <PUBCHEM_SHAPE_SELFOVERLAP>
1247.325

> <PUBCHEM_SHAPE_VOLUME>
284.9

> <PUBCHEM_COORDINATE_TYPE>
2
5
10

$$$$
