134688818
  -OEChem-03292013293D

 59 61  0     1  0  0  0  0  0999 V2000
    0.9633    0.1943   -1.1155 O   0  0  0  0  0  0  0  0  0  0  0  0
   -1.7553   -0.9146   -0.4986 O   0  0  0  0  0  0  0  0  0  0  0  0
   -0.1568    2.0387   -1.7698 O   0  0  0  0  0  0  0  0  0  0  0  0
   -1.9999   -2.9252    0.6125 O   0  0  0  0  0  0  0  0  0  0  0  0
   -6.1559    0.2956    0.4561 O   0  0  0  0  0  0  0  0  0  0  0  0
   -5.3893    1.1400   -1.5585 O   0  0  0  0  0  0  0  0  0  0  0  0
    7.5335   -1.1493    0.2523 O   0  0  0  0  0  0  0  0  0  0  0  0
    8.1216    1.0350    0.4116 O   0  0  0  0  0  0  0  0  0  0  0  0
   -1.1790   -0.3297    0.6626 C   0  0  2  0  0  0  0  0  0  0  0  0
   -0.7086    1.1203    0.4160 C   0  0  2  0  0  0  0  0  0  0  0  0
    0.1933   -0.9667    0.9847 C   0  0  2  0  0  0  0  0  0  0  0  0
    0.3579    1.3875    1.5199 C   0  0  0  0  0  0  0  0  0  0  0  0
    0.7409    0.0058    2.0436 C   0  0  0  0  0  0  0  0  0  0  0  0
    1.0982   -1.0048   -0.2899 C   0  0  1  0  0  0  0  0  0  0  0  0
   -2.2244   -0.4170    1.7982 C   0  0  0  0  0  0  0  0  0  0  0  0
   -1.8059    2.2030    0.5162 C   0  0  0  0  0  0  0  0  0  0  0  0
    0.0283    1.1671   -0.9260 C   0  0  0  0  0  0  0  0  0  0  0  0
   -3.6803   -0.1660    1.3491 C   0  0  0  0  0  0  0  0  0  0  0  0
    0.7754   -2.1968   -1.2087 C   0  0  0  0  0  0  0  0  0  0  0  0
   -3.1308    1.8767   -0.1034 C   0  0  0  0  0  0  0  0  0  0  0  0
    2.5594   -1.1333    0.0548 C   0  0  0  0  0  0  0  0  0  0  0  0
   -3.9424    0.8886    0.3056 C   0  0  0  0  0  0  0  0  0  0  0  0
   -2.1230   -2.2272   -0.3848 C   0  0  0  0  0  0  0  0  0  0  0  0
    3.4886   -0.2289   -0.2910 C   0  0  0  0  0  0  0  0  0  0  0  0
   -5.2317    0.8008   -0.3981 C   0  0  0  0  0  0  0  0  0  0  0  0
   -2.7109   -2.7066   -1.6773 C   0  0  0  0  0  0  0  0  0  0  0  0
    4.8909   -0.3719    0.0478 C   0  0  0  0  0  0  0  0  0  0  0  0
    5.8848    0.4847   -0.2589 C   0  0  0  0  0  0  0  0  0  0  0  0
   -7.4726    0.1489   -0.0859 C   0  0  0  0  0  0  0  0  0  0  0  0
    5.7433    1.7737   -1.0210 C   0  0  0  0  0  0  0  0  0  0  0  0
    7.2876    0.1772    0.1563 C   0  0  0  0  0  0  0  0  0  0  0  0
    0.1230   -1.9687    1.4213 H   0  0  0  0  0  0  0  0  0  0  0  0
   -0.0207    1.9941    2.3499 H   0  0  0  0  0  0  0  0  0  0  0  0
    1.2373    1.9073    1.1210 H   0  0  0  0  0  0  0  0  0  0  0  0
    1.8125   -0.0765    2.2403 H   0  0  0  0  0  0  0  0  0  0  0  0
    0.2473   -0.1751    3.0065 H   0  0  0  0  0  0  0  0  0  0  0  0
   -1.9877    0.3078    2.5880 H   0  0  0  0  0  0  0  0  0  0  0  0
   -2.1840   -1.3820    2.3162 H   0  0  0  0  0  0  0  0  0  0  0  0
   -1.4443    3.1425    0.0775 H   0  0  0  0  0  0  0  0  0  0  0  0
   -2.0044    2.4559    1.5669 H   0  0  0  0  0  0  0  0  0  0  0  0
   -4.2629    0.0798    2.2471 H   0  0  0  0  0  0  0  0  0  0  0  0
   -4.0862   -1.1210    0.9918 H   0  0  0  0  0  0  0  0  0  0  0  0
   -0.0371   -1.9758   -1.9027 H   0  0  0  0  0  0  0  0  0  0  0  0
    0.5634   -3.1113   -0.6459 H   0  0  0  0  0  0  0  0  0  0  0  0
    1.6232   -2.4223   -1.8707 H   0  0  0  0  0  0  0  0  0  0  0  0
   -3.4487    2.5616   -0.8870 H   0  0  0  0  0  0  0  0  0  0  0  0
    2.8514   -2.0200    0.6150 H   0  0  0  0  0  0  0  0  0  0  0  0
    3.2099    0.6622   -0.8396 H   0  0  0  0  0  0  0  0  0  0  0  0
   -3.7994   -2.6269   -1.6302 H   0  0  0  0  0  0  0  0  0  0  0  0
   -2.4159   -3.7462   -1.8430 H   0  0  0  0  0  0  0  0  0  0  0  0
   -2.3396   -2.1154   -2.5190 H   0  0  0  0  0  0  0  0  0  0  0  0
    5.1256   -1.2713    0.6155 H   0  0  0  0  0  0  0  0  0  0  0  0
   -8.1177   -0.2625    0.6950 H   0  0  0  0  0  0  0  0  0  0  0  0
   -7.4584   -0.5451   -0.9317 H   0  0  0  0  0  0  0  0  0  0  0  0
   -7.8673    1.1227   -0.3911 H   0  0  0  0  0  0  0  0  0  0  0  0
    5.8475    2.6259   -0.3414 H   0  0  0  0  0  0  0  0  0  0  0  0
    4.7885    1.8719   -1.5418 H   0  0  0  0  0  0  0  0  0  0  0  0
    6.5233    1.8488   -1.7871 H   0  0  0  0  0  0  0  0  0  0  0  0
    8.4539   -1.3329    0.5377 H   0  0  0  0  0  0  0  0  0  0  0  0
  1 14  1  0  0  0  0
  1 17  1  0  0  0  0
  2  9  1  0  0  0  0
  2 23  1  0  0  0  0
  3 17  2  0  0  0  0
  4 23  2  0  0  0  0
  5 25  1  0  0  0  0
  5 29  1  0  0  0  0
  6 25  2  0  0  0  0
  7 31  1  0  0  0  0
  7 59  1  0  0  0  0
  8 31  2  0  0  0  0
  9 10  1  0  0  0  0
  9 11  1  0  0  0  0
  9 15  1  0  0  0  0
 10 12  1  0  0  0  0
 10 16  1  0  0  0  0
 10 17  1  0  0  0  0
 11 13  1  0  0  0  0
 11 14  1  0  0  0  0
 11 32  1  0  0  0  0
 12 13  1  0  0  0  0
 12 33  1  0  0  0  0
 12 34  1  0  0  0  0
 13 35  1  0  0  0  0
 13 36  1  0  0  0  0
 14 19  1  0  0  0  0
 14 21  1  0  0  0  0
 15 18  1  0  0  0  0
 15 37  1  0  0  0  0
 15 38  1  0  0  0  0
 16 20  1  0  0  0  0
 16 39  1  0  0  0  0
 16 40  1  0  0  0  0
 18 22  1  0  0  0  0
 18 41  1  0  0  0  0
 18 42  1  0  0  0  0
 19 43  1  0  0  0  0
 19 44  1  0  0  0  0
 19 45  1  0  0  0  0
 20 22  2  0  0  0  0
 20 46  1  0  0  0  0
 21 24  2  0  0  0  0
 21 47  1  0  0  0  0
 22 25  1  0  0  0  0
 23 26  1  0  0  0  0
 24 27  1  0  0  0  0
 24 48  1  0  0  0  0
 26 49  1  0  0  0  0
 26 50  1  0  0  0  0
 26 51  1  0  0  0  0
 27 28  2  0  0  0  0
 27 52  1  0  0  0  0
 28 30  1  0  0  0  0
 28 31  1  0  0  0  0
 29 53  1  0  0  0  0
 29 54  1  0  0  0  0
 29 55  1  0  0  0  0
 30 56  1  0  0  0  0
 30 57  1  0  0  0  0
 30 58  1  0  0  0  0
M  END
> <PUBCHEM_COMPOUND_CID>
134688818

> <PUBCHEM_CONFORMER_RMSD>
1

> <PUBCHEM_CONFORMER_DIVERSEORDER>
1
4
7
5
6
3
2

> <PUBCHEM_MMFF94_PARTIAL_CHARGES>
31
1 -0.43
10 0.06
14 0.42
16 0.14
17 0.66
18 0.14
2 -0.43
20 -0.29
21 -0.29
22 -0.12
23 0.66
24 -0.15
25 0.71
26 0.06
27 -0.15
28 -0.12
29 0.28
3 -0.57
30 0.14
31 0.71
4 -0.57
46 0.15
47 0.15
48 0.15
5 -0.43
52 0.15
59 0.5
6 -0.57
7 -0.65
8 -0.57
9 0.28

> <PUBCHEM_EFFECTIVE_ROTOR_COUNT>
8.4

> <PUBCHEM_PHARMACOPHORE_FEATURES>
9
1 3 acceptor
1 30 hydrophobe
1 4 acceptor
1 6 acceptor
1 7 acceptor
1 8 acceptor
3 7 8 31 anion
7 9 10 15 16 18 20 22 rings
8 1 9 10 11 12 13 14 17 rings

> <PUBCHEM_HEAVY_ATOM_COUNT>
31

> <PUBCHEM_ATOM_DEF_STEREO_COUNT>
4

> <PUBCHEM_ATOM_UDEF_STEREO_COUNT>
0

> <PUBCHEM_BOND_DEF_STEREO_COUNT>
2

> <PUBCHEM_BOND_UDEF_STEREO_COUNT>
0

> <PUBCHEM_ISOTOPIC_ATOM_COUNT>
0

> <PUBCHEM_COMPONENT_COUNT>
1

> <PUBCHEM_CACTVS_TAUTO_COUNT>
1

> <PUBCHEM_CONFORMER_ID>
0807303200000001

> <PUBCHEM_MMFF94_ENERGY>
108.824

> <PUBCHEM_FEATURE_SELFOVERLAP>
45.741

> <PUBCHEM_SHAPE_FINGERPRINT>
10 15 18261108591935846720
10076449 9 18131354145976988507
10906281 52 17988098719948462513
10930396 42 18189313793677172904
11135609 187 18059579032064595819
11578080 2 17701814621438961161
12011746 2 17704070685743564707
12788726 201 17703228386880455584
13914758 101 16588302757350606904
14674994 50 14691990548845338221
14787075 74 17988359274139422257
14856354 85 15267338540037974125
15131766 46 15215869404050755822
15849732 13 18040718065214748447
16945 1 18199208233815298059
18681886 176 18335696161891754985
20511986 3 18187921820281961796
21236236 1 18272650190328822934
21267235 1 10807929375629387433
23402539 116 18114464539267602858
23559900 14 18130497647651474080
249057 3 18410575110976474732
2838139 119 18260265239671619452
3009799 131 17603587417772371125
3380486 145 17988379146927272883
34934 24 18040152894526001123
4325135 7 18413671297044357180
5171179 24 17487039318060586066
57527306 92 17967529065428268813
59755656 215 18341621352823647406
59755656 520 16805322214688445634

> <PUBCHEM_SHAPE_MULTIPOLES>
591.01
16.31
2.37
1.49
21.77
1.11
-0.13
-4.11
1.44
-1.24
0.69
-0.69
-0.08
-0.32

> <PUBCHEM_SHAPE_SELFOVERLAP>
1263.458

> <PUBCHEM_SHAPE_VOLUME>
323.1

> <PUBCHEM_COORDINATE_TYPE>
2
5
10

$$$$
