134613193
  -OEChem-03292013293D

 36 40  0     1  0  0  0  0  0999 V2000
   -3.2844    1.8748   -0.0887 O   0  0  0  0  0  0  0  0  0  0  0  0
   -5.5164    0.7928    0.4368 O   0  0  0  0  0  0  0  0  0  0  0  0
   -3.9382   -0.4417   -1.6608 O   0  0  0  0  0  0  0  0  0  0  0  0
   -1.3296   -2.3750   -0.0944 O   0  0  0  0  0  0  0  0  0  0  0  0
    1.2205   -2.5317    0.0188 O   0  0  0  0  0  0  0  0  0  0  0  0
    1.7557    2.7884   -0.0287 O   0  0  0  0  0  0  0  0  0  0  0  0
    3.7520   -2.8834    0.0837 O   0  0  0  0  0  0  0  0  0  0  0  0
    4.3278    2.6011    0.0354 O   0  0  0  0  0  0  0  0  0  0  0  0
   -3.6544   -0.4666   -0.2628 C   0  0  2  0  0  0  0  0  0  0  0  0
   -4.0843    0.8149    0.4631 C   0  0  1  0  0  0  0  0  0  0  0  0
   -2.2167   -0.1971   -0.0886 C   0  0  0  0  0  0  0  0  0  0  0  0
   -2.0584    1.2028   -0.0925 C   0  0  0  0  0  0  0  0  0  0  0  0
   -4.6012   -1.3492    0.4360 C   0  0  0  0  0  0  0  0  0  0  0  0
   -1.1219   -1.0332   -0.0613 C   0  0  0  0  0  0  0  0  0  0  0  0
    0.1514   -0.4405   -0.0277 C   0  0  0  0  0  0  0  0  0  0  0  0
    0.3004    0.9635   -0.0429 C   0  0  0  0  0  0  0  0  0  0  0  0
   -0.8200    1.8064   -0.0821 C   0  0  0  0  0  0  0  0  0  0  0  0
   -5.6643   -0.5815    0.7176 C   0  0  0  0  0  0  0  0  0  0  0  0
    1.3438   -1.3135    0.0076 C   0  0  0  0  0  0  0  0  0  0  0  0
    1.6489    1.5682   -0.0172 C   0  0  0  0  0  0  0  0  0  0  0  0
    2.6867   -0.7000    0.0333 C   0  0  0  0  0  0  0  0  0  0  0  0
    2.8336    0.6879    0.0216 C   0  0  0  0  0  0  0  0  0  0  0  0
    3.8203   -1.5216    0.0698 C   0  0  0  0  0  0  0  0  0  0  0  0
    4.1141    1.2545    0.0466 C   0  0  0  0  0  0  0  0  0  0  0  0
    5.0940   -0.9529    0.0946 C   0  0  0  0  0  0  0  0  0  0  0  0
    5.2406    0.4324    0.0830 C   0  0  0  0  0  0  0  0  0  0  0  0
   -3.8298    0.8138    1.5456 H   0  0  0  0  0  0  0  0  0  0  0  0
   -4.5443   -2.4203    0.5418 H   0  0  0  0  0  0  0  0  0  0  0  0
   -0.7367    2.8872   -0.0877 H   0  0  0  0  0  0  0  0  0  0  0  0
   -6.6307   -0.8613    1.0960 H   0  0  0  0  0  0  0  0  0  0  0  0
   -4.3056   -1.3031   -1.9225 H   0  0  0  0  0  0  0  0  0  0  0  0
   -0.4873   -2.8527   -0.1222 H   0  0  0  0  0  0  0  0  0  0  0  0
    5.9782   -1.5843    0.1231 H   0  0  0  0  0  0  0  0  0  0  0  0
    6.2373    0.8654    0.1023 H   0  0  0  0  0  0  0  0  0  0  0  0
    2.8310   -3.1826    0.0632 H   0  0  0  0  0  0  0  0  0  0  0  0
    3.4875    3.0825    0.0094 H   0  0  0  0  0  0  0  0  0  0  0  0
  1 10  1  0  0  0  0
  1 12  1  0  0  0  0
  2 10  1  0  0  0  0
  2 18  1  0  0  0  0
  3  9  1  0  0  0  0
  3 31  1  0  0  0  0
  4 14  1  0  0  0  0
  4 32  1  0  0  0  0
  5 19  2  0  0  0  0
  6 20  2  0  0  0  0
  7 23  1  0  0  0  0
  7 35  1  0  0  0  0
  8 24  1  0  0  0  0
  8 36  1  0  0  0  0
  9 10  1  0  0  0  0
  9 11  1  0  0  0  0
  9 13  1  0  0  0  0
 10 27  1  0  0  0  0
 11 12  2  0  0  0  0
 11 14  1  0  0  0  0
 12 17  1  0  0  0  0
 13 18  2  0  0  0  0
 13 28  1  0  0  0  0
 14 15  2  0  0  0  0
 15 16  1  0  0  0  0
 15 19  1  0  0  0  0
 16 17  2  0  0  0  0
 16 20  1  0  0  0  0
 17 29  1  0  0  0  0
 18 30  1  0  0  0  0
 19 21  1  0  0  0  0
 20 22  1  0  0  0  0
 21 22  1  0  0  0  0
 21 23  2  0  0  0  0
 22 24  2  0  0  0  0
 23 25  1  0  0  0  0
 24 26  1  0  0  0  0
 25 26  2  0  0  0  0
 25 33  1  0  0  0  0
 26 34  1  0  0  0  0
M  END
> <PUBCHEM_COMPOUND_CID>
134613193

> <PUBCHEM_CONFORMER_RMSD>
0.6

> <PUBCHEM_CONFORMER_DIVERSEORDER>
1

> <PUBCHEM_MMFF94_PARTIAL_CHARGES>
35
1 -0.36
10 0.56
11 -0.14
12 0.08
13 -0.29
14 0.08
15 0.09
16 0.09
17 -0.15
18 -0.07
19 0.4
2 -0.36
20 0.4
21 0.09
22 0.09
23 0.08
24 0.08
25 -0.15
26 -0.15
28 0.15
29 0.15
3 -0.68
30 0.15
31 0.4
32 0.45
33 0.15
34 0.15
35 0.45
36 0.45
4 -0.53
5 -0.57
6 -0.57
7 -0.53
8 -0.53
9 0.56

> <PUBCHEM_EFFECTIVE_ROTOR_COUNT>
0.4

> <PUBCHEM_PHARMACOPHORE_FEATURES>
14
1 1 acceptor
1 2 acceptor
1 3 acceptor
1 3 donor
1 4 donor
1 5 acceptor
1 6 acceptor
1 7 donor
1 8 donor
5 1 9 10 11 12 rings
5 2 9 10 13 18 rings
6 11 12 14 15 16 17 rings
6 15 16 19 20 21 22 rings
6 21 22 23 24 25 26 rings

> <PUBCHEM_HEAVY_ATOM_COUNT>
26

> <PUBCHEM_ATOM_DEF_STEREO_COUNT>
2

> <PUBCHEM_ATOM_UDEF_STEREO_COUNT>
0

> <PUBCHEM_BOND_DEF_STEREO_COUNT>
0

> <PUBCHEM_BOND_UDEF_STEREO_COUNT>
0

> <PUBCHEM_ISOTOPIC_ATOM_COUNT>
0

> <PUBCHEM_COMPONENT_COUNT>
1

> <PUBCHEM_CACTVS_TAUTO_COUNT>
70

> <PUBCHEM_CONFORMER_ID>
080608C900000001

> <PUBCHEM_MMFF94_ENERGY>
119.7818

> <PUBCHEM_FEATURE_SELFOVERLAP>
71.539

> <PUBCHEM_SHAPE_FINGERPRINT>
10 15 18335132151165821024
10411042 1 17978511928048886050
10967382 1 18410572899110229244
11135609 12 17605574338784886987
11578080 2 13697309653970275116
12107183 9 17765440846276152913
12166972 35 17821737096413288198
12236239 1 17989490736255656065
12403259 226 18335134241997255156
12403259 415 18186795872592616917
12788726 201 17489041395533336264
12838862 33 18339061771115762128
13009979 54 17701263521337265146
13140716 1 18194401319012334067
13224815 77 18408321077336436873
13402501 40 18335423473552708803
13583140 156 16733807779494527231
13862211 1 18410569587231865386
14341114 176 18410018732143414819
14790565 3 18412270523198795601
15196674 1 18410575067541368449
15536298 74 18341894086787088076
15788980 27 17989204841420033199
1601671 61 18410855482141068464
17349148 13 18411134744687388776
17492 89 18267021652798978498
17844677 252 18339651052853980513
1813 80 17167865261572319804
19591789 44 18337671914865615594
200 152 18273213097374385929
20028762 73 18273210910920392086
21033648 29 17677034815945773621
21197605 99 18267311021783264979
21267235 1 18411144606518057694
21279426 13 18264769857063275013
21421861 104 18114451280872502178
21792934 111 18339630136395112289
221490 88 18408327682917036418
23402539 116 18272646861865889893
23522609 53 18122096210495054684
23559900 14 18339920523898564144
239999 70 18272660030604936702
3004659 81 18260551104705779620
335352 9 18410856538170254254
34797466 226 15769776909046018496
34934 24 18341328993972066206
350125 39 18410577275239318397
3545911 37 18409169930784078318
3633792 109 18338509748028556005
3680242 22 18335420110931095538
4073 2 18041569129964146123
4093350 32 16988850501818111900
4214541 1 18410293571248349705
5104073 3 18411136892181684609
9709674 26 18411423882186936118
9981440 41 17401480945358160672

> <PUBCHEM_SHAPE_MULTIPOLES>
488.11
11.87
2.62
0.72
3.62
0.08
-0.11
0.59
1.25
-2.11
0.03
0.54
0.05
-0.03

> <PUBCHEM_SHAPE_SELFOVERLAP>
1144.75

> <PUBCHEM_SHAPE_VOLUME>
244.7

> <PUBCHEM_COORDINATE_TYPE>
2
5
10

$$$$
