134687862
  -OEChem-03292013293D

 79 83  0     1  0  0  0  0  0999 V2000
   -2.3733    0.3219   -0.5374 O   0  0  0  0  0  0  0  0  0  0  0  0
    7.3946    0.7634    1.2379 O   0  0  0  0  0  0  0  0  0  0  0  0
   -4.5609   -0.4770   -0.4005 O   0  0  0  0  0  0  0  0  0  0  0  0
   -3.2907    2.9005    0.1648 O   0  0  0  0  0  0  0  0  0  0  0  0
   -6.1052    3.3242   -0.5915 O   0  0  0  0  0  0  0  0  0  0  0  0
   -7.7373    1.1414    0.4173 O   0  0  0  0  0  0  0  0  0  0  0  0
   -7.8710   -1.5346    0.0998 O   0  0  0  0  0  0  0  0  0  0  0  0
   -6.1570   -2.3077   -1.1888 O   0  0  0  0  0  0  0  0  0  0  0  0
    3.1388   -1.2574   -0.3656 C   0  0  1  0  0  0  0  0  0  0  0  0
    4.0673   -0.3093   -1.1785 C   0  0  1  0  0  0  0  0  0  0  0  0
    2.2111   -0.4606    0.5855 C   0  0  1  0  0  0  0  0  0  0  0  0
    4.6538    0.8916   -0.3708 C   0  0  2  0  0  0  0  0  0  0  0  0
    1.1397   -1.3602    1.3116 C   0  0  2  0  0  0  0  0  0  0  0  0
    0.3450   -2.1931    0.2554 C   0  0  2  0  0  0  0  0  0  0  0  0
    6.1469    0.9356   -0.8075 C   0  0  2  0  0  0  0  0  0  0  0  0
    3.0231    0.4264    1.5573 C   0  0  0  0  0  0  0  0  0  0  0  0
    4.4748    0.6597    1.1409 C   0  0  0  0  0  0  0  0  0  0  0  0
    2.3348   -2.1416   -1.3401 C   0  0  0  0  0  0  0  0  0  0  0  0
    5.2817   -1.0664   -1.7609 C   0  0  0  0  0  0  0  0  0  0  0  0
    1.2827   -3.0022   -0.6521 C   0  0  0  0  0  0  0  0  0  0  0  0
    6.5003   -0.5298   -1.0290 C   0  0  0  0  0  0  0  0  0  0  0  0
    0.1354   -0.5043    2.1379 C   0  0  0  0  0  0  0  0  0  0  0  0
   -0.6172   -1.3301   -0.5854 C   0  0  0  0  0  0  0  0  0  0  0  0
    3.9720    2.2143   -0.7755 C   0  0  0  0  0  0  0  0  0  0  0  0
    1.8119   -2.3409    2.3115 C   0  0  0  0  0  0  0  0  0  0  0  0
   -0.8024    0.3458    1.2883 C   0  0  0  0  0  0  0  0  0  0  0  0
    7.1154    1.6286    0.1421 C   0  0  2  0  0  0  0  0  0  0  0  0
   -1.5651   -0.5119    0.2866 C   0  0  1  0  0  0  0  0  0  0  0  0
    8.4181    1.9978   -0.5493 C   0  0  0  0  0  0  0  0  0  0  0  0
   -3.6604    0.5360    0.0404 C   0  0  2  0  0  0  0  0  0  0  0  0
   -4.1526    1.9142   -0.4022 C   0  0  1  0  0  0  0  0  0  0  0  0
   -5.5867    2.1659    0.0643 C   0  0  2  0  0  0  0  0  0  0  0  0
   -5.8600   -0.3291    0.1607 C   0  0  1  0  0  0  0  0  0  0  0  0
   -6.4979    0.9851   -0.2718 C   0  0  1  0  0  0  0  0  0  0  0  0
   -6.6098   -1.4962   -0.3953 C   0  0  0  0  0  0  0  0  0  0  0  0
    3.7702   -1.9188    0.2423 H   0  0  0  0  0  0  0  0  0  0  0  0
    3.4900    0.0834   -2.0273 H   0  0  0  0  0  0  0  0  0  0  0  0
    1.6614    0.2365   -0.0608 H   0  0  0  0  0  0  0  0  0  0  0  0
   -0.2833   -2.9188    0.7924 H   0  0  0  0  0  0  0  0  0  0  0  0
    6.1944    1.4458   -1.7813 H   0  0  0  0  0  0  0  0  0  0  0  0
    3.0413    0.0187    2.5716 H   0  0  0  0  0  0  0  0  0  0  0  0
    2.5135    1.3945    1.6492 H   0  0  0  0  0  0  0  0  0  0  0  0
    4.8613    1.5076    1.7189 H   0  0  0  0  0  0  0  0  0  0  0  0
    5.0510   -0.2189    1.4565 H   0  0  0  0  0  0  0  0  0  0  0  0
    3.0126   -2.8012   -1.8944 H   0  0  0  0  0  0  0  0  0  0  0  0
    1.8455   -1.5133   -2.0942 H   0  0  0  0  0  0  0  0  0  0  0  0
    5.3682   -0.8359   -2.8303 H   0  0  0  0  0  0  0  0  0  0  0  0
    5.2155   -2.1545   -1.6700 H   0  0  0  0  0  0  0  0  0  0  0  0
    0.6978   -3.5333   -1.4133 H   0  0  0  0  0  0  0  0  0  0  0  0
    1.7848   -3.7814   -0.0667 H   0  0  0  0  0  0  0  0  0  0  0  0
    6.6292   -1.0857   -0.0941 H   0  0  0  0  0  0  0  0  0  0  0  0
    7.4094   -0.6571   -1.6246 H   0  0  0  0  0  0  0  0  0  0  0  0
    0.6645    0.1447    2.8450 H   0  0  0  0  0  0  0  0  0  0  0  0
   -0.4823   -1.1725    2.7543 H   0  0  0  0  0  0  0  0  0  0  0  0
   -0.0738   -0.6529   -1.2544 H   0  0  0  0  0  0  0  0  0  0  0  0
   -1.2099   -1.9719   -1.2503 H   0  0  0  0  0  0  0  0  0  0  0  0
    4.1149    2.4254   -1.8415 H   0  0  0  0  0  0  0  0  0  0  0  0
    4.3843    3.0594   -0.2136 H   0  0  0  0  0  0  0  0  0  0  0  0
    2.8926    2.1917   -0.5986 H   0  0  0  0  0  0  0  0  0  0  0  0
    2.6279   -2.9116    1.8612 H   0  0  0  0  0  0  0  0  0  0  0  0
    1.0830   -3.0657    2.6936 H   0  0  0  0  0  0  0  0  0  0  0  0
    2.2186   -1.8231    3.1855 H   0  0  0  0  0  0  0  0  0  0  0  0
   -1.5011    0.8766    1.9454 H   0  0  0  0  0  0  0  0  0  0  0  0
   -0.2480    1.1343    0.7653 H   0  0  0  0  0  0  0  0  0  0  0  0
    6.6660    2.5461    0.5376 H   0  0  0  0  0  0  0  0  0  0  0  0
   -2.1999   -1.2282    0.8279 H   0  0  0  0  0  0  0  0  0  0  0  0
    8.9536    1.1073   -0.8953 H   0  0  0  0  0  0  0  0  0  0  0  0
    9.0887    2.5077    0.1513 H   0  0  0  0  0  0  0  0  0  0  0  0
    8.2458    2.6604   -1.4029 H   0  0  0  0  0  0  0  0  0  0  0  0
    7.9965    1.2347    1.8387 H   0  0  0  0  0  0  0  0  0  0  0  0
   -3.5953    0.5114    1.1369 H   0  0  0  0  0  0  0  0  0  0  0  0
   -4.0788    2.0171   -1.4913 H   0  0  0  0  0  0  0  0  0  0  0  0
   -5.6137    2.3868    1.1379 H   0  0  0  0  0  0  0  0  0  0  0  0
   -5.8076   -0.4455    1.2504 H   0  0  0  0  0  0  0  0  0  0  0  0
   -6.7236    0.9767   -1.3452 H   0  0  0  0  0  0  0  0  0  0  0  0
   -3.3352    2.8197    1.1328 H   0  0  0  0  0  0  0  0  0  0  0  0
   -6.0741    3.1678   -1.5507 H   0  0  0  0  0  0  0  0  0  0  0  0
   -7.5534    1.1429    1.3722 H   0  0  0  0  0  0  0  0  0  0  0  0
   -8.3809   -2.2939   -0.2549 H   0  0  0  0  0  0  0  0  0  0  0  0
  1 28  1  0  0  0  0
  1 30  1  0  0  0  0
  2 27  1  0  0  0  0
  2 70  1  0  0  0  0
  3 30  1  0  0  0  0
  3 33  1  0  0  0  0
  4 31  1  0  0  0  0
  4 76  1  0  0  0  0
  5 32  1  0  0  0  0
  5 77  1  0  0  0  0
  6 34  1  0  0  0  0
  6 78  1  0  0  0  0
  7 35  1  0  0  0  0
  7 79  1  0  0  0  0
  8 35  2  0  0  0  0
  9 10  1  0  0  0  0
  9 11  1  0  0  0  0
  9 18  1  0  0  0  0
  9 36  1  0  0  0  0
 10 12  1  0  0  0  0
 10 19  1  0  0  0  0
 10 37  1  0  0  0  0
 11 13  1  0  0  0  0
 11 16  1  0  0  0  0
 11 38  1  0  0  0  0
 12 15  1  0  0  0  0
 12 17  1  0  0  0  0
 12 24  1  0  0  0  0
 13 14  1  0  0  0  0
 13 22  1  0  0  0  0
 13 25  1  0  0  0  0
 14 20  1  0  0  0  0
 14 23  1  0  0  0  0
 14 39  1  0  0  0  0
 15 21  1  0  0  0  0
 15 27  1  0  0  0  0
 15 40  1  0  0  0  0
 16 17  1  0  0  0  0
 16 41  1  0  0  0  0
 16 42  1  0  0  0  0
 17 43  1  0  0  0  0
 17 44  1  0  0  0  0
 18 20  1  0  0  0  0
 18 45  1  0  0  0  0
 18 46  1  0  0  0  0
 19 21  1  0  0  0  0
 19 47  1  0  0  0  0
 19 48  1  0  0  0  0
 20 49  1  0  0  0  0
 20 50  1  0  0  0  0
 21 51  1  0  0  0  0
 21 52  1  0  0  0  0
 22 26  1  0  0  0  0
 22 53  1  0  0  0  0
 22 54  1  0  0  0  0
 23 28  1  0  0  0  0
 23 55  1  0  0  0  0
 23 56  1  0  0  0  0
 24 57  1  0  0  0  0
 24 58  1  0  0  0  0
 24 59  1  0  0  0  0
 25 60  1  0  0  0  0
 25 61  1  0  0  0  0
 25 62  1  0  0  0  0
 26 28  1  0  0  0  0
 26 63  1  0  0  0  0
 26 64  1  0  0  0  0
 27 29  1  0  0  0  0
 27 65  1  0  0  0  0
 28 66  1  0  0  0  0
 29 67  1  0  0  0  0
 29 68  1  0  0  0  0
 29 69  1  0  0  0  0
 30 31  1  0  0  0  0
 30 71  1  0  0  0  0
 31 32  1  0  0  0  0
 31 72  1  0  0  0  0
 32 34  1  0  0  0  0
 32 73  1  0  0  0  0
 33 34  1  0  0  0  0
 33 35  1  0  0  0  0
 33 74  1  0  0  0  0
 34 75  1  0  0  0  0
M  END
> <PUBCHEM_COMPOUND_CID>
134687862

> <PUBCHEM_CONFORMER_RMSD>
1

> <PUBCHEM_CONFORMER_DIVERSEORDER>
1
13
11
42
10
36
29
25
38
30
19
5
34
28
35
21
33
12
40
23
20
18
6
9
31
15
37
39
2
22
16
27
26
32
24
3
41
8
17
4
7
14

> <PUBCHEM_MMFF94_PARTIAL_CHARGES>
21
1 -0.56
2 -0.68
27 0.28
28 0.28
3 -0.56
30 0.56
31 0.28
32 0.28
33 0.34
34 0.28
35 0.66
4 -0.68
5 -0.68
6 -0.68
7 -0.65
70 0.4
76 0.4
77 0.4
78 0.4
79 0.5
8 -0.57

> <PUBCHEM_EFFECTIVE_ROTOR_COUNT>
7.4

> <PUBCHEM_PHARMACOPHORE_FEATURES>
18
1 1 acceptor
1 2 acceptor
1 2 donor
1 3 acceptor
1 4 acceptor
1 4 donor
1 5 acceptor
1 5 donor
1 6 acceptor
1 6 donor
1 7 acceptor
1 8 acceptor
3 7 8 35 anion
5 10 12 15 19 21 rings
6 13 14 22 23 26 28 rings
6 3 30 31 32 33 34 rings
6 9 10 11 12 16 17 rings
6 9 11 13 14 18 20 rings

> <PUBCHEM_HEAVY_ATOM_COUNT>
35

> <PUBCHEM_ATOM_DEF_STEREO_COUNT>
14

> <PUBCHEM_ATOM_UDEF_STEREO_COUNT>
0

> <PUBCHEM_BOND_DEF_STEREO_COUNT>
0

> <PUBCHEM_BOND_UDEF_STEREO_COUNT>
0

> <PUBCHEM_ISOTOPIC_ATOM_COUNT>
0

> <PUBCHEM_COMPONENT_COUNT>
1

> <PUBCHEM_CACTVS_TAUTO_COUNT>
1

> <PUBCHEM_CONFORMER_ID>
08072C7600000001

> <PUBCHEM_MMFF94_ENERGY>
117.3776

> <PUBCHEM_FEATURE_SELFOVERLAP>
91.659

> <PUBCHEM_SHAPE_FINGERPRINT>
10190206 1 17917723387539283160
10533779 47 13623804977892090984
10595046 47 18261670385952033323
10673678 19 18272375252503275214
11115154 58 15051740776118373443
13165053 68 18187363272370333154
13690498 29 17631722898563072639
13726171 33 18341336574895637193
13811026 1 18412267242545109002
14118638 360 18335977598250488203
14294032 229 18337099142179343206
14856354 85 18340484586602222711
14931854 50 17489880328033368780
150020 25 18131636672687891405
15064986 96 13985200212947947856
15183329 4 15410896253763201765
15301273 46 12685085974180839994
15352257 5 16845572054453637247
15361156 5 17988638563853375477
1577012 14 18114458985447699257
15961568 22 18260548896607884461
16994733 274 18408040697592535936
18608769 82 18343864441884038671
19304144 158 18343297033343276652
19377110 9 17821725005980051339
19611394 137 17897458396265151187
20511986 3 17604707752008032597
20715895 44 18413392038734962468
21033648 29 17822588165731692562
21403212 168 15430025587592282602
21424621 283 18334014999827427714
24771293 8 18186242835613963484
2747138 104 18336551629230167659
2838139 119 18261110802852188132
335507 130 18342740767076178271
34797466 226 18271531892935561407
4073 2 18335425647550426979
4098825 35 18343585118438276998
4325135 7 18335700568243065207
44317340 157 17489302009969544192
4461854 278 17986683761050685071
504579 68 18337098026326499469
513532 50 18410292468137956994
5219985 9 12535634864628457706
5265222 85 18343866611323149463
53794403 172 18190465059138827380
5381727 24 18261388975626886946
5385378 56 17458622281928960770
5758199 1 17967534570858573115
5776283 40 18199752612826828968
6691757 9 16153436068657799201

> <PUBCHEM_SHAPE_MULTIPOLES>
673.33
22.87
2.98
1.53
13.26
0.4
-0.59
11.78
5.15
1.9
0.44
-1.71
-0.7
-0.07

> <PUBCHEM_SHAPE_SELFOVERLAP>
1424.828

> <PUBCHEM_SHAPE_VOLUME>
371.8

> <PUBCHEM_COORDINATE_TYPE>
2
5
10

$$$$
