134687968
  -OEChem-03292013293D

 64 67  0     1  0  0  0  0  0999 V2000
   -3.3047    0.6365   -1.3981 O   0  0  0  0  0  0  0  0  0  0  0  0
   -4.0209    0.1781    1.6518 O   0  0  0  0  0  0  0  0  0  0  0  0
    0.6937   -0.6617    2.0754 O   0  0  0  0  0  0  0  0  0  0  0  0
    1.3355   -1.2850   -2.1557 O   0  0  0  0  0  0  0  0  0  0  0  0
    2.7541   -3.4421   -0.7518 O   0  0  0  0  0  0  0  0  0  0  0  0
   -5.4162    1.0800   -0.5820 O   0  0  0  0  0  0  0  0  0  0  0  0
    4.6247    1.3520    0.1794 O   0  0  0  0  0  0  0  0  0  0  0  0
    6.0725    2.7069   -1.0016 O   0  0  0  0  0  0  0  0  0  0  0  0
   -1.2456    1.5228   -0.2928 C   0  0  1  0  0  0  0  0  0  0  0  0
   -2.6323    0.9307   -0.1514 C   0  0  1  0  0  0  0  0  0  0  0  0
   -2.4056    2.4212    0.1284 C   0  0  0  0  0  0  0  0  0  0  0  0
   -0.1212    1.1102    0.6461 C   0  0  1  0  0  0  0  0  0  0  0  0
   -2.8712   -0.1494    0.8720 C   0  0  1  0  0  0  0  0  0  0  0  0
   -0.2918   -0.3934    1.0703 C   0  0  2  0  0  0  0  0  0  0  0  0
   -1.6833   -0.4504    1.8033 C   0  0  2  0  0  0  0  0  0  0  0  0
   -2.8740    3.4248   -0.9063 C   0  0  0  0  0  0  0  0  0  0  0  0
   -2.5266    2.9693    1.5269 C   0  0  0  0  0  0  0  0  0  0  0  0
   -0.0973   -1.3248   -0.1715 C   0  0  1  0  0  0  0  0  0  0  0  0
    1.2155    1.5727    0.1063 C   0  0  0  0  0  0  0  0  0  0  0  0
    1.3451   -1.4494   -0.7336 C   0  0  2  0  0  0  0  0  0  0  0  0
   -1.9661   -1.6927    2.6695 C   0  0  0  0  0  0  0  0  0  0  0  0
    2.3213    0.8888   -0.2279 C   0  0  0  0  0  0  0  0  0  0  0  0
    2.4876   -0.6048   -0.1698 C   0  0  0  0  0  0  0  0  0  0  0  0
   -0.4771   -2.7704    0.0421 C   0  0  0  0  0  0  0  0  0  0  0  0
    1.6694   -2.9191   -0.5379 C   0  0  0  0  0  0  0  0  0  0  0  0
   -4.6644    0.5075   -1.3590 C   0  0  0  0  0  0  0  0  0  0  0  0
    0.4879   -3.6780   -0.1134 C   0  0  0  0  0  0  0  0  0  0  0  0
    3.5479    1.6372   -0.6888 C   0  0  0  0  0  0  0  0  0  0  0  0
   -5.1182   -0.4470   -2.4212 C   0  0  0  0  0  0  0  0  0  0  0  0
    0.4443   -5.1491    0.0167 C   0  0  0  0  0  0  0  0  0  0  0  0
    5.8485    1.9442   -0.0718 C   0  0  0  0  0  0  0  0  0  0  0  0
    6.8685    1.5343    0.9462 C   0  0  0  0  0  0  0  0  0  0  0  0
   -0.8880    1.6085   -1.3170 H   0  0  0  0  0  0  0  0  0  0  0  0
   -0.2082    1.7020    1.5680 H   0  0  0  0  0  0  0  0  0  0  0  0
   -3.1072   -1.0811    0.3418 H   0  0  0  0  0  0  0  0  0  0  0  0
   -1.6486    0.3341    2.5708 H   0  0  0  0  0  0  0  0  0  0  0  0
   -3.9426    3.6285   -0.7826 H   0  0  0  0  0  0  0  0  0  0  0  0
   -2.7110    3.0797   -1.9327 H   0  0  0  0  0  0  0  0  0  0  0  0
   -2.3296    4.3682   -0.7904 H   0  0  0  0  0  0  0  0  0  0  0  0
   -3.5569    3.2917    1.7135 H   0  0  0  0  0  0  0  0  0  0  0  0
   -1.8745    3.8416    1.6443 H   0  0  0  0  0  0  0  0  0  0  0  0
   -2.2689    2.2633    2.3136 H   0  0  0  0  0  0  0  0  0  0  0  0
   -0.7521   -0.9733   -0.9791 H   0  0  0  0  0  0  0  0  0  0  0  0
    1.2635    2.6590    0.0073 H   0  0  0  0  0  0  0  0  0  0  0  0
   -2.3381   -2.5396    2.0909 H   0  0  0  0  0  0  0  0  0  0  0  0
   -2.7420   -1.4632    3.4097 H   0  0  0  0  0  0  0  0  0  0  0  0
   -1.0796   -2.0125    3.2247 H   0  0  0  0  0  0  0  0  0  0  0  0
   -4.8078    0.0699    1.0936 H   0  0  0  0  0  0  0  0  0  0  0  0
    0.5863   -0.0165    2.7947 H   0  0  0  0  0  0  0  0  0  0  0  0
    3.3929   -0.8583   -0.7420 H   0  0  0  0  0  0  0  0  0  0  0  0
    2.7366   -0.8970    0.8575 H   0  0  0  0  0  0  0  0  0  0  0  0
   -1.4931   -3.0649    0.2625 H   0  0  0  0  0  0  0  0  0  0  0  0
    2.2367   -1.4279   -2.4919 H   0  0  0  0  0  0  0  0  0  0  0  0
    3.3794    2.7207   -0.7053 H   0  0  0  0  0  0  0  0  0  0  0  0
    3.8021    1.3223   -1.7084 H   0  0  0  0  0  0  0  0  0  0  0  0
   -4.8466   -0.0606   -3.4066 H   0  0  0  0  0  0  0  0  0  0  0  0
   -6.2058   -0.5516   -2.3741 H   0  0  0  0  0  0  0  0  0  0  0  0
   -4.6667   -1.4281   -2.2538 H   0  0  0  0  0  0  0  0  0  0  0  0
    0.7270   -5.6276   -0.9261 H   0  0  0  0  0  0  0  0  0  0  0  0
   -0.5587   -5.4975    0.2836 H   0  0  0  0  0  0  0  0  0  0  0  0
    1.1358   -5.4847    0.7957 H   0  0  0  0  0  0  0  0  0  0  0  0
    6.9998    0.4498    0.9206 H   0  0  0  0  0  0  0  0  0  0  0  0
    6.5496    1.8600    1.9393 H   0  0  0  0  0  0  0  0  0  0  0  0
    7.8262    2.0078    0.7126 H   0  0  0  0  0  0  0  0  0  0  0  0
  1 10  1  0  0  0  0
  1 26  1  0  0  0  0
  2 13  1  0  0  0  0
  2 48  1  0  0  0  0
  3 14  1  0  0  0  0
  3 49  1  0  0  0  0
  4 20  1  0  0  0  0
  4 53  1  0  0  0  0
  5 25  2  0  0  0  0
  6 26  2  0  0  0  0
  7 28  1  0  0  0  0
  7 31  1  0  0  0  0
  8 31  2  0  0  0  0
  9 10  1  0  0  0  0
  9 11  1  0  0  0  0
  9 12  1  0  0  0  0
  9 33  1  0  0  0  0
 10 11  1  0  0  0  0
 10 13  1  0  0  0  0
 11 16  1  0  0  0  0
 11 17  1  0  0  0  0
 12 14  1  0  0  0  0
 12 19  1  0  0  0  0
 12 34  1  0  0  0  0
 13 15  1  0  0  0  0
 13 35  1  0  0  0  0
 14 15  1  0  0  0  0
 14 18  1  0  0  0  0
 15 21  1  0  0  0  0
 15 36  1  0  0  0  0
 16 37  1  0  0  0  0
 16 38  1  0  0  0  0
 16 39  1  0  0  0  0
 17 40  1  0  0  0  0
 17 41  1  0  0  0  0
 17 42  1  0  0  0  0
 18 20  1  0  0  0  0
 18 24  1  0  0  0  0
 18 43  1  0  0  0  0
 19 22  2  0  0  0  0
 19 44  1  0  0  0  0
 20 23  1  0  0  0  0
 20 25  1  0  0  0  0
 21 45  1  0  0  0  0
 21 46  1  0  0  0  0
 21 47  1  0  0  0  0
 22 23  1  0  0  0  0
 22 28  1  0  0  0  0
 23 50  1  0  0  0  0
 23 51  1  0  0  0  0
 24 27  2  0  0  0  0
 24 52  1  0  0  0  0
 25 27  1  0  0  0  0
 26 29  1  0  0  0  0
 27 30  1  0  0  0  0
 28 54  1  0  0  0  0
 28 55  1  0  0  0  0
 29 56  1  0  0  0  0
 29 57  1  0  0  0  0
 29 58  1  0  0  0  0
 30 59  1  0  0  0  0
 30 60  1  0  0  0  0
 30 61  1  0  0  0  0
 31 32  1  0  0  0  0
 32 62  1  0  0  0  0
 32 63  1  0  0  0  0
 32 64  1  0  0  0  0
M  END
> <PUBCHEM_COMPOUND_CID>
134687968

> <PUBCHEM_CONFORMER_RMSD>
0.8

> <PUBCHEM_CONFORMER_DIVERSEORDER>
1
19
22
10
13
32
14
26
33
12
29
6
11
23
16
20
2
30
28
7
24
31
15
18
27
17
9
8
25
3
4
21
5

> <PUBCHEM_MMFF94_PARTIAL_CHARGES>
36
1 -0.3
10 0.05
11 -0.19
12 0.23
13 0.38
14 0.28
16 0.09
17 0.09
18 0.14
19 -0.29
2 -0.68
20 0.34
22 -0.28
23 0.14
24 -0.29
25 0.49
26 0.66
27 -0.12
28 0.42
29 0.06
3 -0.68
30 0.14
31 0.66
32 0.06
33 0.1
4 -0.68
44 0.15
48 0.4
49 0.4
5 -0.57
52 0.15
53 0.4
6 -0.57
7 -0.43
8 -0.57
9 -0.19

> <PUBCHEM_EFFECTIVE_ROTOR_COUNT>
5.8

> <PUBCHEM_PHARMACOPHORE_FEATURES>
13
1 2 acceptor
1 2 donor
1 3 acceptor
1 3 donor
1 4 acceptor
1 4 donor
1 5 acceptor
1 6 acceptor
1 8 acceptor
3 11 16 17 hydrophobe
5 18 20 24 25 27 rings
7 12 14 18 19 20 22 23 rings
7 9 10 11 12 13 14 15 rings

> <PUBCHEM_HEAVY_ATOM_COUNT>
32

> <PUBCHEM_ATOM_DEF_STEREO_COUNT>
8

> <PUBCHEM_ATOM_UDEF_STEREO_COUNT>
0

> <PUBCHEM_BOND_DEF_STEREO_COUNT>
0

> <PUBCHEM_BOND_UDEF_STEREO_COUNT>
0

> <PUBCHEM_ISOTOPIC_ATOM_COUNT>
0

> <PUBCHEM_COMPONENT_COUNT>
1

> <PUBCHEM_CACTVS_TAUTO_COUNT>
3

> <PUBCHEM_CONFORMER_ID>
08072CE000000001

> <PUBCHEM_MMFF94_ENERGY>
91.634

> <PUBCHEM_FEATURE_SELFOVERLAP>
66.009

> <PUBCHEM_SHAPE_FINGERPRINT>
10764073 3 17316463013311628858
10906281 52 18335147474865587449
11135609 187 18410567384241144909
11991303 11 18042125517656081270
12597179 24 18259985985018667411
13052359 8 18267020746929572598
13140716 1 17837223927685078472
13383661 66 16699498755905934655
13583140 156 17458622375959519296
13911987 19 18337670918385932029
15042514 8 18050579735439266754
15840311 113 17974013848087760517
16728300 4 17895180113641024842
17138139 8 17629736097656394775
17492 54 18271513295379042717
17980427 23 17313388992736251958
20691752 17 17752773428794786761
21033648 144 18040431057919461324
21033648 29 14635419421761412037
22182313 1 18264514860955732126
22393880 68 18127977412318329548
23559900 14 17977105656881698634
238 59 18411415094762606015
2838139 119 18260819428013225612
3380486 145 18118426135755836419
4409770 3 18191585474171556763
469060 322 18123200257729244475
59444896 2 17827880136054557938
6669772 16 17967806128940920771
7399639 24 18264511553778271147
9981440 41 18408603656241133824

> <PUBCHEM_SHAPE_MULTIPOLES>
611.59
10.46
4.79
1.84
11.38
4.98
-0.42
-10.56
2.8
2.18
0.44
-2
0.32
0.41

> <PUBCHEM_SHAPE_SELFOVERLAP>
1304.202

> <PUBCHEM_SHAPE_VOLUME>
335.6

> <PUBCHEM_COORDINATE_TYPE>
2
5
10

$$$$
