134692605
  -OEChem-03292013293D

 62 66  0     1  0  0  0  0  0999 V2000
   -6.7989   -0.6483   -0.8835 Cl  0  0  0  0  0  0  0  0  0  0  0  0
    7.1902    0.3488   -1.7919 O   0  0  0  0  0  0  0  0  0  0  0  0
    8.5741    0.0759    0.4056 O   0  0  0  0  0  0  0  0  0  0  0  0
    5.2409    0.7690   -0.5997 N   0  0  0  0  0  0  0  0  0  0  0  0
    1.5254   -1.2635    0.2103 N   0  0  0  0  0  0  0  0  0  0  0  0
    1.8721   -2.2473    1.0577 N   0  0  0  0  0  0  0  0  0  0  0  0
   -1.5358   -2.9632    0.2087 N   0  0  0  0  0  0  0  0  0  0  0  0
   -2.8709   -1.0385   -0.2147 N   0  0  0  0  0  0  0  0  0  0  0  0
   -3.8763   -3.2272   -0.1352 N   0  0  0  0  0  0  0  0  0  0  0  0
   -3.8944    3.0835   -0.2214 N   0  0  0  0  0  0  0  0  0  0  0  0
   -4.3819    3.0004   -1.4890 N   0  0  0  0  0  0  0  0  0  0  0  0
    2.5468   -0.2002   -0.1465 C   0  0  0  0  0  0  0  0  0  0  0  0
    3.5111    0.0903    1.0196 C   0  0  0  0  0  0  0  0  0  0  0  0
    3.3372   -0.5621   -1.4185 C   0  0  0  0  0  0  0  0  0  0  0  0
    4.5396    1.1526    0.6315 C   0  0  0  0  0  0  0  0  0  0  0  0
    4.3681    0.5161   -1.7476 C   0  0  0  0  0  0  0  0  0  0  0  0
    0.2409   -1.3514   -0.2403 C   0  0  0  0  0  0  0  0  0  0  0  0
    6.6236    0.6560   -0.7398 C   0  0  0  0  0  0  0  0  0  0  0  0
   -0.2893   -2.4709    0.3534 C   0  0  0  0  0  0  0  0  0  0  0  0
    0.7595   -2.9817    1.1413 C   0  0  0  0  0  0  0  0  0  0  0  0
    7.4518    0.9301    0.4900 C   0  0  2  0  0  0  0  0  0  0  0  0
   -0.3454   -0.3723   -1.1761 C   0  0  0  0  0  0  0  0  0  0  0  0
    0.7469   -4.1794    2.0003 C   0  0  0  0  0  0  0  0  0  0  0  0
    7.8777    2.3791    0.5400 C   0  0  0  0  0  0  0  0  0  0  0  0
   -2.8352   -2.3762   -0.0626 C   0  0  0  0  0  0  0  0  0  0  0  0
   -4.0938   -0.5267   -0.4656 C   0  0  0  0  0  0  0  0  0  0  0  0
   -4.1134    0.9023   -0.6251 C   0  0  0  0  0  0  0  0  0  0  0  0
   -3.7212    1.8088    0.3288 C   0  0  0  0  0  0  0  0  0  0  0  0
   -5.2391   -1.2901   -0.5646 C   0  0  0  0  0  0  0  0  0  0  0  0
   -5.0683   -2.6480   -0.3886 C   0  0  0  0  0  0  0  0  0  0  0  0
   -4.5078    1.6922   -1.7156 C   0  0  0  0  0  0  0  0  0  0  0  0
   -3.2160    1.7128    1.6558 C   0  0  0  0  0  0  0  0  0  0  0  0
   -3.5858    4.2443    0.4971 C   0  0  0  0  0  0  0  0  0  0  0  0
   -2.9224    2.8355    2.3376 C   0  0  0  0  0  0  0  0  0  0  0  0
   -3.1098    4.1494    1.7485 C   0  0  0  0  0  0  0  0  0  0  0  0
    1.9549    0.7068   -0.3232 H   0  0  0  0  0  0  0  0  0  0  0  0
    2.6586   -0.6954   -2.2684 H   0  0  0  0  0  0  0  0  0  0  0  0
    3.8472   -1.5229   -1.2696 H   0  0  0  0  0  0  0  0  0  0  0  0
    4.0465   -0.8234    1.3079 H   0  0  0  0  0  0  0  0  0  0  0  0
    2.9483    0.4243    1.8994 H   0  0  0  0  0  0  0  0  0  0  0  0
    4.0264    2.0984    0.4154 H   0  0  0  0  0  0  0  0  0  0  0  0
    4.9518    0.2126   -2.6223 H   0  0  0  0  0  0  0  0  0  0  0  0
    3.8700    1.4604   -1.9970 H   0  0  0  0  0  0  0  0  0  0  0  0
    5.1956    1.3573    1.4747 H   0  0  0  0  0  0  0  0  0  0  0  0
    6.9492    0.6302    1.4081 H   0  0  0  0  0  0  0  0  0  0  0  0
   -0.8261    0.4477   -0.6354 H   0  0  0  0  0  0  0  0  0  0  0  0
    0.4114    0.0741   -1.8286 H   0  0  0  0  0  0  0  0  0  0  0  0
   -1.0580   -0.8425   -1.8599 H   0  0  0  0  0  0  0  0  0  0  0  0
   -1.6884   -3.9377    0.4675 H   0  0  0  0  0  0  0  0  0  0  0  0
    0.5993   -5.0811    1.3971 H   0  0  0  0  0  0  0  0  0  0  0  0
    1.6850   -4.2958    2.5533 H   0  0  0  0  0  0  0  0  0  0  0  0
   -0.0656   -4.1196    2.7318 H   0  0  0  0  0  0  0  0  0  0  0  0
    8.4647    2.6476   -0.3457 H   0  0  0  0  0  0  0  0  0  0  0  0
    8.5184    2.5639    1.4088 H   0  0  0  0  0  0  0  0  0  0  0  0
    7.0158    3.0514    0.5925 H   0  0  0  0  0  0  0  0  0  0  0  0
    9.1858    0.3127    1.1234 H   0  0  0  0  0  0  0  0  0  0  0  0
   -5.9029   -3.3401   -0.4457 H   0  0  0  0  0  0  0  0  0  0  0  0
   -4.8817    1.3729   -2.6784 H   0  0  0  0  0  0  0  0  0  0  0  0
   -3.0709    0.7405    2.1143 H   0  0  0  0  0  0  0  0  0  0  0  0
   -3.7478    5.1937    0.0016 H   0  0  0  0  0  0  0  0  0  0  0  0
   -2.5371    2.7858    3.3502 H   0  0  0  0  0  0  0  0  0  0  0  0
   -2.8607    5.0268    2.3328 H   0  0  0  0  0  0  0  0  0  0  0  0
  1 29  1  0  0  0  0
  2 18  2  0  0  0  0
  3 21  1  0  0  0  0
  3 56  1  0  0  0  0
  4 15  1  0  0  0  0
  4 16  1  0  0  0  0
  4 18  1  0  0  0  0
  5  6  1  0  0  0  0
  5 12  1  0  0  0  0
  5 17  1  0  0  0  0
  6 20  2  0  0  0  0
  7 19  1  0  0  0  0
  7 25  1  0  0  0  0
  7 49  1  0  0  0  0
  8 25  1  0  0  0  0
  8 26  2  0  0  0  0
  9 25  2  0  0  0  0
  9 30  1  0  0  0  0
 10 11  1  0  0  0  0
 10 28  1  0  0  0  0
 10 33  1  0  0  0  0
 11 31  2  0  0  0  0
 12 13  1  0  0  0  0
 12 14  1  0  0  0  0
 12 36  1  0  0  0  0
 13 15  1  0  0  0  0
 13 39  1  0  0  0  0
 13 40  1  0  0  0  0
 14 16  1  0  0  0  0
 14 37  1  0  0  0  0
 14 38  1  0  0  0  0
 15 41  1  0  0  0  0
 15 44  1  0  0  0  0
 16 42  1  0  0  0  0
 16 43  1  0  0  0  0
 17 19  2  0  0  0  0
 17 22  1  0  0  0  0
 18 21  1  0  0  0  0
 19 20  1  0  0  0  0
 20 23  1  0  0  0  0
 21 24  1  0  0  0  0
 21 45  1  0  0  0  0
 22 46  1  0  0  0  0
 22 47  1  0  0  0  0
 22 48  1  0  0  0  0
 23 50  1  0  0  0  0
 23 51  1  0  0  0  0
 23 52  1  0  0  0  0
 24 53  1  0  0  0  0
 24 54  1  0  0  0  0
 24 55  1  0  0  0  0
 26 27  1  0  0  0  0
 26 29  1  0  0  0  0
 27 28  2  0  0  0  0
 27 31  1  0  0  0  0
 28 32  1  0  0  0  0
 29 30  2  0  0  0  0
 30 57  1  0  0  0  0
 31 58  1  0  0  0  0
 32 34  2  0  0  0  0
 32 59  1  0  0  0  0
 33 35  2  0  0  0  0
 33 60  1  0  0  0  0
 34 35  1  0  0  0  0
 34 61  1  0  0  0  0
 35 62  1  0  0  0  0
M  END
> <PUBCHEM_COMPOUND_CID>
134692605

> <PUBCHEM_CONFORMER_RMSD>
1.2

> <PUBCHEM_CONFORMER_DIVERSEORDER>
1
86
111
8
81
11
37
84
95
113
124
24
141
115
108
130
32
121
68
58
76
55
62
48
109
137
88
139
31
122
116
26
94
41
23
71
114
134
89
85
28
112
33
73
120
98
47
70
142
19
107
56
61
54
99
46
144
57
143
128
40
5
104
3
91
79
136
43
27
140
90
92
66
59
30
34
44
106
100
97
133
49
60
51
125
39
25
50
65
74
20
35
126
110
87
127
64
29
78
12
132
119
14
105
45
7
118
72
53
102
52
75
67
103
80
131
77
42
15
93
21
82
96
69
38
101
4
135
6
2
17
83
63
36
9
22
18
138
16
129
10
117
123
13

> <PUBCHEM_MMFF94_PARTIAL_CHARGES>
40
1 -0.18
10 0.6
11 -0.71
12 0.26
15 0.3
16 0.3
17 -0.33
18 0.57
19 0.08
2 -0.57
20 0.11
21 0.34
22 0.18
23 0.18
25 0.72
26 0.36
27 -0.05
28 -0.2
29 0.18
3 -0.68
30 0.16
31 0.14
32 -0.11
33 -0.18
34 -0.15
35 -0.15
4 -0.66
49 0.4
5 0.31
56 0.4
57 0.15
58 0.15
59 0.15
6 -0.71
60 0.15
61 0.15
62 0.15
7 -0.58
8 -0.62
9 -0.62

> <PUBCHEM_EFFECTIVE_ROTOR_COUNT>
7.2

> <PUBCHEM_PHARMACOPHORE_FEATURES>
13
1 11 acceptor
1 2 acceptor
1 3 acceptor
1 3 donor
1 6 acceptor
1 7 donor
1 8 acceptor
4 7 8 9 25 cation
5 10 11 27 28 31 rings
5 5 6 17 19 20 rings
6 10 28 32 33 34 35 rings
6 4 12 13 14 15 16 rings
6 8 9 25 26 29 30 rings

> <PUBCHEM_HEAVY_ATOM_COUNT>
35

> <PUBCHEM_ATOM_DEF_STEREO_COUNT>
0

> <PUBCHEM_ATOM_UDEF_STEREO_COUNT>
1

> <PUBCHEM_BOND_DEF_STEREO_COUNT>
0

> <PUBCHEM_BOND_UDEF_STEREO_COUNT>
0

> <PUBCHEM_ISOTOPIC_ATOM_COUNT>
0

> <PUBCHEM_COMPONENT_COUNT>
1

> <PUBCHEM_CACTVS_TAUTO_COUNT>
10

> <PUBCHEM_CONFORMER_ID>
08073EFD00000001

> <PUBCHEM_MMFF94_ENERGY>
83.6685

> <PUBCHEM_FEATURE_SELFOVERLAP>
66.095

> <PUBCHEM_SHAPE_FINGERPRINT>
100830 39 18412261753276399792
10670039 82 18342457045203811264
10951579 204 18338816537363350460
11007060 377 18409453591862343226
11135609 149 16342043991795973116
11135609 187 18191580849462872941
11136131 41 17823406099103590178
11434127 23 18131070402893932557
11477941 20 17988630952464737757
11479125 193 17755861918831031845
11505856 67 17487342530848892881
11524674 6 13118271607840755593
12390115 104 18335424560517148726
12655364 131 17531514396354491330
13560911 43 18188203316475475009
13631057 29 18411132576446524103
13726171 33 17845382059308562961
14068700 675 18264205992941118477
14118638 360 18409731746703090622
14932701 244 18202012044411666761
15021287 119 16805326613188546588
15119646 57 16988014782127339153
15183329 4 18186806907286694950
15289351 153 18341603799497666618
15347590 135 17968105261208914715
15351339 4 18339071610336887010
15419008 47 17845936350116928249
16112460 7 18040991826757756562
18603816 31 12613030647674570481
19304152 47 17968675817016503929
21033650 10 18265359316051148390
21049683 271 18263920094828886463
21859007 373 18201993379047943306
22122407 14 16081093700770589405
22956985 138 17184752936306635471
23569943 247 16879322586518935506
354706 132 18342184315150722024
3918712 181 18336535084172572396
397830 11 12108083231485725966
44426695 248 15213317330362442320
469060 322 18042144162351258171
48014 12 18187366532123286517
550186 7 18202007646207069367
563151 74 15936403425443581192
6058803 2 18120639246557217043
6201320 215 18272643546383408568
6299153 45 18113892724834148130
6371009 1 18188211008703568332
9980921 221 18268735890833136204

> <PUBCHEM_SHAPE_MULTIPOLES>
670.57
19.41
5.09
1.71
38.4
1.12
0.27
10.17
-4.77
-7.45
2.89
-0.15
0.58
-1.35

> <PUBCHEM_SHAPE_SELFOVERLAP>
1448.222

> <PUBCHEM_SHAPE_VOLUME>
368.2

> <PUBCHEM_COORDINATE_TYPE>
2
5
10

$$$$
