134692352
  -OEChem-03292013293D

 64 65  0     1  0  0  0  0  0999 V2000
    1.9002   -0.3945    1.6180 O   0  0  0  0  0  0  0  0  0  0  0  0
    4.6270    0.2721    1.2177 O   0  0  0  0  0  0  0  0  0  0  0  0
    3.5917    0.6849   -3.2412 O   0  0  0  0  0  0  0  0  0  0  0  0
   -1.0023   -2.1838   -1.4410 O   0  0  0  0  0  0  0  0  0  0  0  0
   -0.3755    0.9521   -1.3488 O   0  0  0  0  0  0  0  0  0  0  0  0
   -0.2311   -1.9157    0.7334 N   0  0  0  0  0  0  0  0  0  0  0  0
    4.2954    0.7357   -1.0313 N   0  0  0  0  0  0  0  0  0  0  0  0
   -2.2027    1.1261    0.0777 N   0  0  0  0  0  0  0  0  0  0  0  0
    3.2650   -1.1638   -0.1805 C   0  0  2  0  0  0  0  0  0  0  0  0
    1.1078   -2.3988    0.5141 C   0  0  1  0  0  0  0  0  0  0  0  0
    2.8345   -0.9788   -1.6393 C   0  0  1  0  0  0  0  0  0  0  0  0
    2.0634   -1.2296    0.7279 C   0  0  0  0  0  0  0  0  0  0  0  0
    1.4757   -3.6174    1.3810 C   0  0  0  0  0  0  0  0  0  0  0  0
    4.1430    0.0150    0.1246 C   0  0  0  0  0  0  0  0  0  0  0  0
    3.6025    0.2362   -2.1040 C   0  0  0  0  0  0  0  0  0  0  0  0
    3.1720   -2.1889   -2.4988 C   0  0  0  0  0  0  0  0  0  0  0  0
    0.5399   -4.7957    1.0937 C   0  0  0  0  0  0  0  0  0  0  0  0
    1.4821   -3.3157    2.8831 C   0  0  0  0  0  0  0  0  0  0  0  0
   -1.1862   -1.8476   -0.2745 C   0  0  0  0  0  0  0  0  0  0  0  0
   -2.5135   -1.3123    0.2446 C   0  0  0  0  0  0  0  0  0  0  0  0
   -2.9515   -0.0033   -0.4299 C   0  0  1  0  0  0  0  0  0  0  0  0
   -4.4398    0.2348   -0.2742 C   0  0  0  0  0  0  0  0  0  0  0  0
   -5.1097   -0.2501    0.8489 C   0  0  0  0  0  0  0  0  0  0  0  0
   -5.1398    0.9389   -1.2539 C   0  0  0  0  0  0  0  0  0  0  0  0
   -0.9729    1.5051   -0.4311 C   0  0  0  0  0  0  0  0  0  0  0  0
   -6.4797   -0.0309    0.9925 C   0  0  0  0  0  0  0  0  0  0  0  0
   -6.5100    1.1583   -1.1104 C   0  0  0  0  0  0  0  0  0  0  0  0
   -7.1799    0.6733    0.0128 C   0  0  0  0  0  0  0  0  0  0  0  0
   -0.4272    2.6981    0.2750 C   0  0  0  0  0  0  0  0  0  0  0  0
    0.8976    2.8661    0.3886 C   0  0  0  0  0  0  0  0  0  0  0  0
    1.4857    4.0020    1.0638 C   0  0  0  0  0  0  0  0  0  0  0  0
    2.8096    4.1798    1.1833 C   0  0  0  0  0  0  0  0  0  0  0  0
    3.4287    5.3482    1.8780 C   0  0  0  0  0  0  0  0  0  0  0  0
    3.8623   -2.0708   -0.0318 H   0  0  0  0  0  0  0  0  0  0  0  0
    1.1732   -2.7077   -0.5314 H   0  0  0  0  0  0  0  0  0  0  0  0
    1.7677   -0.7464   -1.7318 H   0  0  0  0  0  0  0  0  0  0  0  0
    2.4935   -3.9293    1.1111 H   0  0  0  0  0  0  0  0  0  0  0  0
    2.8519   -2.0267   -3.5339 H   0  0  0  0  0  0  0  0  0  0  0  0
    2.6820   -3.0959   -2.1341 H   0  0  0  0  0  0  0  0  0  0  0  0
    4.2523   -2.3721   -2.5204 H   0  0  0  0  0  0  0  0  0  0  0  0
   -0.4571   -1.5637    1.6588 H   0  0  0  0  0  0  0  0  0  0  0  0
    4.8679    1.5708   -1.0871 H   0  0  0  0  0  0  0  0  0  0  0  0
   -0.4885   -4.5827    1.4039 H   0  0  0  0  0  0  0  0  0  0  0  0
    0.5323   -5.0356    0.0252 H   0  0  0  0  0  0  0  0  0  0  0  0
    0.8712   -5.6905    1.6318 H   0  0  0  0  0  0  0  0  0  0  0  0
    0.5022   -2.9759    3.2335 H   0  0  0  0  0  0  0  0  0  0  0  0
    2.2223   -2.5507    3.1355 H   0  0  0  0  0  0  0  0  0  0  0  0
    1.7433   -4.2147    3.4525 H   0  0  0  0  0  0  0  0  0  0  0  0
   -3.2350   -2.1158    0.0424 H   0  0  0  0  0  0  0  0  0  0  0  0
   -2.4659   -1.1933    1.3341 H   0  0  0  0  0  0  0  0  0  0  0  0
   -2.7347   -0.0900   -1.5032 H   0  0  0  0  0  0  0  0  0  0  0  0
   -2.5912    1.6357    0.8669 H   0  0  0  0  0  0  0  0  0  0  0  0
   -4.6017   -0.7833    1.6456 H   0  0  0  0  0  0  0  0  0  0  0  0
   -4.6288    1.3234   -2.1326 H   0  0  0  0  0  0  0  0  0  0  0  0
   -7.0010   -0.4037    1.8694 H   0  0  0  0  0  0  0  0  0  0  0  0
   -7.0549    1.7072   -1.8728 H   0  0  0  0  0  0  0  0  0  0  0  0
   -8.2463    0.8451    0.1253 H   0  0  0  0  0  0  0  0  0  0  0  0
   -1.1328    3.3970    0.7134 H   0  0  0  0  0  0  0  0  0  0  0  0
    1.5803    2.1387   -0.0426 H   0  0  0  0  0  0  0  0  0  0  0  0
    0.8061    4.7363    1.4890 H   0  0  0  0  0  0  0  0  0  0  0  0
    3.4975    3.4506    0.7620 H   0  0  0  0  0  0  0  0  0  0  0  0
    4.0661    5.9007    1.1809 H   0  0  0  0  0  0  0  0  0  0  0  0
    4.0490    5.0006    2.7098 H   0  0  0  0  0  0  0  0  0  0  0  0
    2.6795    6.0395    2.2766 H   0  0  0  0  0  0  0  0  0  0  0  0
  1 12  2  0  0  0  0
  2 14  2  0  0  0  0
  3 15  2  0  0  0  0
  4 19  2  0  0  0  0
  5 25  2  0  0  0  0
  6 10  1  0  0  0  0
  6 19  1  0  0  0  0
  6 41  1  0  0  0  0
  7 14  1  0  0  0  0
  7 15  1  0  0  0  0
  7 42  1  0  0  0  0
  8 21  1  0  0  0  0
  8 25  1  0  0  0  0
  8 52  1  0  0  0  0
  9 11  1  0  0  0  0
  9 12  1  0  0  0  0
  9 14  1  0  0  0  0
  9 34  1  0  0  0  0
 10 12  1  0  0  0  0
 10 13  1  0  0  0  0
 10 35  1  0  0  0  0
 11 15  1  0  0  0  0
 11 16  1  0  0  0  0
 11 36  1  0  0  0  0
 13 17  1  0  0  0  0
 13 18  1  0  0  0  0
 13 37  1  0  0  0  0
 16 38  1  0  0  0  0
 16 39  1  0  0  0  0
 16 40  1  0  0  0  0
 17 43  1  0  0  0  0
 17 44  1  0  0  0  0
 17 45  1  0  0  0  0
 18 46  1  0  0  0  0
 18 47  1  0  0  0  0
 18 48  1  0  0  0  0
 19 20  1  0  0  0  0
 20 21  1  0  0  0  0
 20 49  1  0  0  0  0
 20 50  1  0  0  0  0
 21 22  1  0  0  0  0
 21 51  1  0  0  0  0
 22 23  2  0  0  0  0
 22 24  1  0  0  0  0
 23 26  1  0  0  0  0
 23 53  1  0  0  0  0
 24 27  2  0  0  0  0
 24 54  1  0  0  0  0
 25 29  1  0  0  0  0
 26 28  2  0  0  0  0
 26 55  1  0  0  0  0
 27 28  1  0  0  0  0
 27 56  1  0  0  0  0
 28 57  1  0  0  0  0
 29 30  2  0  0  0  0
 29 58  1  0  0  0  0
 30 31  1  0  0  0  0
 30 59  1  0  0  0  0
 31 32  2  0  0  0  0
 31 60  1  0  0  0  0
 32 33  1  0  0  0  0
 32 61  1  0  0  0  0
 33 62  1  0  0  0  0
 33 63  1  0  0  0  0
 33 64  1  0  0  0  0
M  END
> <PUBCHEM_COMPOUND_CID>
134692352

> <PUBCHEM_CONFORMER_RMSD>
1.6

> <PUBCHEM_CONFORMER_DIVERSEORDER>
1
89
2
130
106
45
26
124
46
61
62
21
60
57
122
131
98
51
8
107
5
102
39
126
90
20
101
96
4
75
129
128
35
10
78
116
68
49
24
69
9
59
132
14
112
58
108
84
36
119
85
71
80
70
121
52
16
105
7
65
81
92
38
67
76
86
113
6
97
56
77
47
66
120
88
82
23
117
43
115
54
42
13
25
91
125
41
3
28
17
40
110
34
11
12
127
30
104
50
94
19
83
93
72
111
53
31
18
73
27
55
74
15
29
32
100
63
64
44
123
99
48
114
33
37
95
79
87
103
22
109
118

> <PUBCHEM_MMFF94_PARTIAL_CHARGES>
41
1 -0.57
10 0.36
11 0.06
12 0.45
14 0.57
15 0.57
19 0.57
2 -0.57
20 0.06
21 0.44
22 -0.14
23 -0.15
24 -0.15
25 0.62
26 -0.15
27 -0.15
28 -0.15
29 -0.14
3 -0.57
30 -0.15
31 -0.15
32 -0.29
33 0.14
4 -0.57
41 0.37
42 0.37
5 -0.57
52 0.37
53 0.15
54 0.15
55 0.15
56 0.15
57 0.15
58 0.15
59 0.15
6 -0.73
60 0.15
61 0.15
7 -0.49
8 -0.73
9 0.12

> <PUBCHEM_EFFECTIVE_ROTOR_COUNT>
12.6

> <PUBCHEM_PHARMACOPHORE_FEATURES>
13
1 1 acceptor
1 2 acceptor
1 3 acceptor
1 33 hydrophobe
1 4 acceptor
1 5 acceptor
1 6 donor
1 7 donor
1 8 donor
1 9 anion
3 13 17 18 hydrophobe
5 7 9 11 14 15 rings
6 22 23 24 26 27 28 rings

> <PUBCHEM_HEAVY_ATOM_COUNT>
33

> <PUBCHEM_ATOM_DEF_STEREO_COUNT>
1

> <PUBCHEM_ATOM_UDEF_STEREO_COUNT>
3

> <PUBCHEM_BOND_DEF_STEREO_COUNT>
2

> <PUBCHEM_BOND_UDEF_STEREO_COUNT>
0

> <PUBCHEM_ISOTOPIC_ATOM_COUNT>
0

> <PUBCHEM_COMPONENT_COUNT>
1

> <PUBCHEM_CACTVS_TAUTO_COUNT>
330

> <PUBCHEM_CONFORMER_ID>
08073E0000000001

> <PUBCHEM_MMFF94_ENERGY>
61.184

> <PUBCHEM_FEATURE_SELFOVERLAP>
65.975

> <PUBCHEM_SHAPE_FINGERPRINT>
10305334 12 17831547110775591544
10675989 125 18408609162179152461
1100329 8 18339636849365412889
12166972 35 17822572694900666382
12597179 24 18053099811521290480
12741549 16 16343141295557292394
13009979 54 17758670058094246090
13140716 1 18265328585485791947
14114211 68 17896343370719973814
14725015 67 18411691076809059040
15081414 286 18272656714162248465
15183329 4 13254797907102286715
15439362 3 18195239138800775640
15664445 248 18272369746101915784
15927050 60 18124870415959875087
19319366 153 18187081737031626859
20642791 35 18341893025893658593
22149856 69 18189068512610573817
22223350 30 18042681887466449826
23558518 356 17906165510091197831
23559900 14 18059862804358660581
3411729 13 18199464553011248976
376196 1 17840855593016845360
394071 54 18131633400213377953
4409770 3 15300539014903324390
57527452 28 17603584089700003898
6669772 16 18267860760601575113
70251023 43 17979930314811776923

> <PUBCHEM_SHAPE_MULTIPOLES>
634.83
12.36
5.72
2.26
25.03
3.34
0.73
4.85
2.34
-7.84
-4.76
-2.98
-0.77
1.69

> <PUBCHEM_SHAPE_SELFOVERLAP>
1312.539

> <PUBCHEM_SHAPE_VOLUME>
362.2

> <PUBCHEM_COORDINATE_TYPE>
2
5
10

$$$$
