134686
  -OEChem-03292013323D

 28 28  0     1  0  0  0  0  0999 V2000
    3.3186    0.1489    0.0946 S   0  0  0  0  0  0  0  0  0  0  0  0
    3.2849    0.2016    1.5460 O   0  0  0  0  0  0  0  0  0  0  0  0
    3.9675   -0.9554   -0.5911 O   0  0  0  0  0  0  0  0  0  0  0  0
   -2.4309   -1.9037    0.6510 O   0  0  0  0  0  0  0  0  0  0  0  0
   -1.0713   -3.2966   -0.5005 O   0  0  0  0  0  0  0  0  0  0  0  0
   -1.7809    1.2593   -2.2551 O   0  0  0  0  0  0  0  0  0  0  0  0
   -1.0867    0.1212    2.1513 O   0  0  0  0  0  0  0  0  0  0  0  0
   -1.2378    0.3026   -0.1837 N   0  0  0  0  0  0  0  0  0  0  0  0
   -0.6062   -0.9230   -0.6011 C   0  0  1  0  0  0  0  0  0  0  0  0
    0.8541   -0.9745   -0.1396 C   0  0  0  0  0  0  0  0  0  0  0  0
    1.6601    0.2694   -0.5004 C   0  0  0  0  0  0  0  0  0  0  0  0
   -1.3855   -2.1575   -0.1727 C   0  0  0  0  0  0  0  0  0  0  0  0
   -1.7523    1.2495   -1.0361 C   0  0  0  0  0  0  0  0  0  0  0  0
   -1.4110    0.6898    1.1226 C   0  0  0  0  0  0  0  0  0  0  0  0
    4.0705    1.6541   -0.4803 C   0  0  0  0  0  0  0  0  0  0  0  0
   -2.2976    2.3225   -0.1905 C   0  0  0  0  0  0  0  0  0  0  0  0
   -2.0957    1.9917    1.0855 C   0  0  0  0  0  0  0  0  0  0  0  0
   -0.6232   -0.9371   -1.6988 H   0  0  0  0  0  0  0  0  0  0  0  0
    1.3333   -1.8606   -0.5759 H   0  0  0  0  0  0  0  0  0  0  0  0
    0.8955   -1.1343    0.9456 H   0  0  0  0  0  0  0  0  0  0  0  0
    1.2372    1.1740   -0.0545 H   0  0  0  0  0  0  0  0  0  0  0  0
    1.7055    0.3945   -1.5867 H   0  0  0  0  0  0  0  0  0  0  0  0
    5.1116    1.6617   -0.1508 H   0  0  0  0  0  0  0  0  0  0  0  0
    4.0225    1.6779   -1.5704 H   0  0  0  0  0  0  0  0  0  0  0  0
    3.5352    2.5021   -0.0495 H   0  0  0  0  0  0  0  0  0  0  0  0
   -2.7729    3.2132   -0.5654 H   0  0  0  0  0  0  0  0  0  0  0  0
   -2.3739    2.5593    1.9574 H   0  0  0  0  0  0  0  0  0  0  0  0
   -2.8907   -2.7260    0.9241 H   0  0  0  0  0  0  0  0  0  0  0  0
  1  2  2  0  0  0  0
  1  3  2  0  0  0  0
  1 11  1  0  0  0  0
  1 15  1  0  0  0  0
  4 12  1  0  0  0  0
  4 28  1  0  0  0  0
  5 12  2  0  0  0  0
  6 13  2  0  0  0  0
  7 14  2  0  0  0  0
  8  9  1  0  0  0  0
  8 13  1  0  0  0  0
  8 14  1  0  0  0  0
  9 10  1  0  0  0  0
  9 12  1  0  0  0  0
  9 18  1  0  0  0  0
 10 11  1  0  0  0  0
 10 19  1  0  0  0  0
 10 20  1  0  0  0  0
 11 21  1  0  0  0  0
 11 22  1  0  0  0  0
 13 16  1  0  0  0  0
 14 17  1  0  0  0  0
 15 23  1  0  0  0  0
 15 24  1  0  0  0  0
 15 25  1  0  0  0  0
 16 17  2  0  0  0  0
 16 26  1  0  0  0  0
 17 27  1  0  0  0  0
M  END
> <PUBCHEM_COMPOUND_CID>
134686

> <PUBCHEM_CONFORMER_RMSD>
0.6

> <PUBCHEM_CONFORMER_DIVERSEORDER>
1
23
29
31
8
26
39
42
10
43
13
9
37
19
38
16
15
34
30
11
32
22
21
33
5
12
7
20
35
25
2
17
3
18
27
41
24
36
28
40
4
14
6

> <PUBCHEM_MMFF94_PARTIAL_CHARGES>
19
1 1.09
11 0.11
12 0.66
13 0.62
14 0.62
15 0.11
16 -0.14
17 -0.14
2 -0.65
26 0.15
27 0.15
28 0.5
3 -0.65
4 -0.65
5 -0.57
6 -0.57
7 -0.57
8 -0.42
9 0.36

> <PUBCHEM_EFFECTIVE_ROTOR_COUNT>
5.2

> <PUBCHEM_PHARMACOPHORE_FEATURES>
8
1 2 acceptor
1 3 acceptor
1 4 acceptor
1 5 acceptor
1 6 acceptor
1 7 acceptor
3 4 5 12 anion
5 8 13 14 16 17 rings

> <PUBCHEM_HEAVY_ATOM_COUNT>
17

> <PUBCHEM_ATOM_DEF_STEREO_COUNT>
1

> <PUBCHEM_ATOM_UDEF_STEREO_COUNT>
0

> <PUBCHEM_BOND_DEF_STEREO_COUNT>
0

> <PUBCHEM_BOND_UDEF_STEREO_COUNT>
0

> <PUBCHEM_ISOTOPIC_ATOM_COUNT>
0

> <PUBCHEM_COMPONENT_COUNT>
1

> <PUBCHEM_CACTVS_TAUTO_COUNT>
1

> <PUBCHEM_CONFORMER_ID>
00020E1E00000001

> <PUBCHEM_MMFF94_ENERGY>
22.1746

> <PUBCHEM_FEATURE_SELFOVERLAP>
40.681

> <PUBCHEM_SHAPE_FINGERPRINT>
11725454 13 16662874839923413573
12173636 292 18343303630386825080
12932764 1 17821730512070147844
13024252 1 15285358427240853325
13764800 53 18273498978776532848
14817 1 16300104206821883097
15309172 13 18264498282023305980
16945 1 18198357319210914647
18981168 100 18200051572240075732
19765921 60 17773023151660336657
20510252 161 18340487884413977330
21524375 3 17843685465199971485
23419403 2 17484498381459951403
23557571 272 18198350752379765510
27216 239 18260275152561659168
2748010 2 18195545708906724087
305870 269 17979356352355739785
5706482 22 18338507526417205395
6049 1 17703511120704381712
74978 22 18411417285464841860
81228 2 18337396057569185931
9981440 41 17128979955420727458

> <PUBCHEM_SHAPE_MULTIPOLES>
313.5
5.73
2.74
1.49
8.24
1.5
-0.14
-2.05
-0.05
-2.15
0.33
-0.65
-0.53
0.07

> <PUBCHEM_SHAPE_SELFOVERLAP>
634.701

> <PUBCHEM_SHAPE_VOLUME>
184

> <PUBCHEM_COORDINATE_TYPE>
2
5
10

$$$$
