134611890
  -OEChem-03292013293D

 45 47  0     1  0  0  0  0  0999 V2000
   -2.6713    1.7643   -0.7017 S   0  0  0  0  0  0  0  0  0  0  0  0
    7.8663   -0.1113    1.0175 S   0  0  0  0  0  0  0  0  0  0  0  0
   -2.9704    3.1639   -0.4606 O   0  0  0  0  0  0  0  0  0  0  0  0
   -2.9354    1.1931   -2.0094 O   0  0  0  0  0  0  0  0  0  0  0  0
    3.6701   -0.8919   -0.8744 O   0  0  0  0  0  0  0  0  0  0  0  0
   -3.4279    0.7987    0.5105 N   0  0  1  0  0  0  0  0  0  0  0  0
    3.1216    0.9729    0.4337 N   0  0  0  0  0  0  0  0  0  0  0  0
    5.2843    0.1617    0.4497 N   0  0  0  0  0  0  0  0  0  0  0  0
    6.5592   -1.6511   -0.5961 N   0  0  0  0  0  0  0  0  0  0  0  0
   -3.4927   -0.6681    0.2871 C   0  0  0  0  0  0  0  0  0  0  0  0
   -0.9487    1.5289   -0.3640 C   0  0  0  0  0  0  0  0  0  0  0  0
   -4.9072   -1.1696    0.2057 C   0  0  0  0  0  0  0  0  0  0  0  0
   -3.1576    1.1330    1.9317 C   0  0  0  0  0  0  0  0  0  0  0  0
   -0.2537    0.4866   -0.9774 C   0  0  0  0  0  0  0  0  0  0  0  0
   -0.2869    2.3861    0.5153 C   0  0  0  0  0  0  0  0  0  0  0  0
    1.7646    1.1583    0.1677 C   0  0  0  0  0  0  0  0  0  0  0  0
    1.1028    0.3013   -0.7115 C   0  0  0  0  0  0  0  0  0  0  0  0
    1.0698    2.2008    0.7812 C   0  0  0  0  0  0  0  0  0  0  0  0
   -5.5681   -1.5841    1.3619 C   0  0  0  0  0  0  0  0  0  0  0  0
   -5.5588   -1.2206   -1.0265 C   0  0  0  0  0  0  0  0  0  0  0  0
   -6.8809   -2.0497    1.2859 C   0  0  0  0  0  0  0  0  0  0  0  0
   -6.8715   -1.6861   -1.1025 C   0  0  0  0  0  0  0  0  0  0  0  0
   -7.5326   -2.1006    0.0537 C   0  0  0  0  0  0  0  0  0  0  0  0
    3.9965   -0.0146   -0.0814 C   0  0  0  0  0  0  0  0  0  0  0  0
    6.4443   -0.6071    0.1945 C   0  0  0  0  0  0  0  0  0  0  0  0
    8.7198   -1.3940    0.2642 C   0  0  0  0  0  0  0  0  0  0  0  0
    7.8645   -2.1006   -0.5550 C   0  0  0  0  0  0  0  0  0  0  0  0
   -2.9530   -1.2021    1.0802 H   0  0  0  0  0  0  0  0  0  0  0  0
   -2.9653   -0.9499   -0.6314 H   0  0  0  0  0  0  0  0  0  0  0  0
   -3.1538    2.2171    2.0759 H   0  0  0  0  0  0  0  0  0  0  0  0
   -2.1997    0.7197    2.2594 H   0  0  0  0  0  0  0  0  0  0  0  0
   -3.9530    0.7308    2.5661 H   0  0  0  0  0  0  0  0  0  0  0  0
   -0.7507   -0.1941   -1.6627 H   0  0  0  0  0  0  0  0  0  0  0  0
   -0.8095    3.2014    1.0074 H   0  0  0  0  0  0  0  0  0  0  0  0
    1.5686   -0.5278   -1.2245 H   0  0  0  0  0  0  0  0  0  0  0  0
    1.5727    2.8755    1.4693 H   0  0  0  0  0  0  0  0  0  0  0  0
   -5.0716   -1.5522    2.3279 H   0  0  0  0  0  0  0  0  0  0  0  0
   -5.0557   -0.9006   -1.9348 H   0  0  0  0  0  0  0  0  0  0  0  0
   -7.3955   -2.3730    2.1861 H   0  0  0  0  0  0  0  0  0  0  0  0
   -7.3790   -1.7257   -2.0619 H   0  0  0  0  0  0  0  0  0  0  0  0
    3.5347    1.6366    1.0843 H   0  0  0  0  0  0  0  0  0  0  0  0
   -8.5546   -2.4632   -0.0055 H   0  0  0  0  0  0  0  0  0  0  0  0
    5.4281    0.9291    1.1001 H   0  0  0  0  0  0  0  0  0  0  0  0
    9.7706   -1.5642    0.4493 H   0  0  0  0  0  0  0  0  0  0  0  0
    8.1450   -2.9598   -1.1492 H   0  0  0  0  0  0  0  0  0  0  0  0
  1  3  2  0  0  0  0
  1  4  2  0  0  0  0
  1  6  1  0  0  0  0
  1 11  1  0  0  0  0
  2 25  1  0  0  0  0
  2 26  1  0  0  0  0
  5 24  2  0  0  0  0
  6 10  1  0  0  0  0
  6 13  1  0  0  0  0
  7 16  1  0  0  0  0
  7 24  1  0  0  0  0
  7 41  1  0  0  0  0
  8 24  1  0  0  0  0
  8 25  1  0  0  0  0
  8 43  1  0  0  0  0
  9 25  2  0  0  0  0
  9 27  1  0  0  0  0
 10 12  1  0  0  0  0
 10 28  1  0  0  0  0
 10 29  1  0  0  0  0
 11 14  2  0  0  0  0
 11 15  1  0  0  0  0
 12 19  2  0  0  0  0
 12 20  1  0  0  0  0
 13 30  1  0  0  0  0
 13 31  1  0  0  0  0
 13 32  1  0  0  0  0
 14 17  1  0  0  0  0
 14 33  1  0  0  0  0
 15 18  2  0  0  0  0
 15 34  1  0  0  0  0
 16 17  2  0  0  0  0
 16 18  1  0  0  0  0
 17 35  1  0  0  0  0
 18 36  1  0  0  0  0
 19 21  1  0  0  0  0
 19 37  1  0  0  0  0
 20 22  2  0  0  0  0
 20 38  1  0  0  0  0
 21 23  2  0  0  0  0
 21 39  1  0  0  0  0
 22 23  1  0  0  0  0
 22 40  1  0  0  0  0
 23 42  1  0  0  0  0
 26 27  2  0  0  0  0
 26 44  1  0  0  0  0
 27 45  1  0  0  0  0
M  END
> <PUBCHEM_COMPOUND_CID>
134611890

> <PUBCHEM_CONFORMER_RMSD>
1

> <PUBCHEM_CONFORMER_DIVERSEORDER>
1
46
55
82
6
92
52
58
30
78
26
96
60
95
70
86
67
49
99
34
23
64
43
102
87
45
73
89
32
90
98
62
76
59
79
47
84
36
85
61
94
44
104
83
38
91
105
88
63
97
20
100
33
54
56
101
39
69
19
18
28
72
12
57
16
80
65
51
14
13
53
68
103
29
22
40
35
17
81
42
15
77
66
25
48
75
93
21
5
41
71
10
37
24
9
74
7
11
8
31
2
50
3
4
27

> <PUBCHEM_MMFF94_PARTIAL_CHARGES>
40
1 1.45
10 0.5
11 -0.01
12 -0.14
13 0.36
14 -0.15
15 -0.15
16 0.12
17 -0.15
18 -0.15
19 -0.15
2 -0.08
20 -0.15
21 -0.15
22 -0.15
23 -0.15
24 0.69
25 0.44
26 -0.11
27 0.08
3 -0.65
33 0.15
34 0.15
35 0.15
36 0.15
37 0.15
38 0.15
39 0.15
4 -0.65
40 0.15
41 0.37
42 0.15
43 0.37
44 0.15
45 0.15
5 -0.57
6 -0.85
7 -0.55
8 -0.49
9 -0.57

> <PUBCHEM_EFFECTIVE_ROTOR_COUNT>
8

> <PUBCHEM_PHARMACOPHORE_FEATURES>
8
1 3 acceptor
1 4 acceptor
1 5 acceptor
1 7 donor
1 8 donor
5 2 9 25 26 27 rings
6 11 14 15 16 17 18 rings
6 12 19 20 21 22 23 rings

> <PUBCHEM_HEAVY_ATOM_COUNT>
27

> <PUBCHEM_ATOM_DEF_STEREO_COUNT>
0

> <PUBCHEM_ATOM_UDEF_STEREO_COUNT>
0

> <PUBCHEM_BOND_DEF_STEREO_COUNT>
0

> <PUBCHEM_BOND_UDEF_STEREO_COUNT>
0

> <PUBCHEM_ISOTOPIC_ATOM_COUNT>
0

> <PUBCHEM_COMPONENT_COUNT>
1

> <PUBCHEM_CACTVS_TAUTO_COUNT>
11

> <PUBCHEM_CONFORMER_ID>
080603B200000001

> <PUBCHEM_MMFF94_ENERGY>
57.5782

> <PUBCHEM_FEATURE_SELFOVERLAP>
40.664

> <PUBCHEM_SHAPE_FINGERPRINT>
10 15 12391519689131379367
10369192 42 9799699190622934875
10391435 84 17968658354027144722
10763959 59 8574417730834522926
11211813 128 18201722839258986902
11393246 34 18335423456409762803
11408170 108 18130791162039129087
12760667 363 18410011061732763675
13530399 1 12103264051096000242
13631057 29 18261110747017444576
13668630 136 18040714787838502066
13673619 4 18409729581770469932
13782708 43 18333449829286204536
14202775 3 18269838611524908958
14251764 18 17846500361380990450
14556957 393 15502664754161245870
14849402 71 16773223132889530064
14931854 50 17530960276331577699
15183329 4 14129051525983982867
15198563 99 17168129140832923653
15350500 55 12247415457992272219
15510800 12 18261685834385563906
16992779 147 15983675944933316816
1768 4 8862947204108142599
17780758 139 17703511004228945265
18335252 98 18342175579887790202
18603816 31 17845927542083840903
18643901 69 18113337501188918309
190975 80 18202562891558437970
20105231 36 17632585921192070302
2026 5 18335980891842363410
20771845 65 18263369243392740677
21033650 10 16370996383523692685
21095123 293 12823293529389214762
21267235 1 18411700993618792164
21304304 249 18412265077322819215
21307412 95 17968093192503649915
21585483 132 17314776418368115490
21623969 137 17917431995725509926
21756936 100 12535626077262416213
22288116 15 15791735200203863275
23389318 12 18040443222284727966
23559900 14 17823698766801860381
23576562 1 12396882050015838162
3004659 81 17241040015770163369
335507 130 18342734148995805284
3383291 50 18409730689888448226
4339292 15 18259978271853470098
4461854 278 17917715729644808262
44880568 143 17603299337257727828
504579 68 15647053759571497750
504843 32 11242261748478810545
5104073 3 16844745105254646070
54039377 194 18413393125309058190
5718773 13 18411419535426604155
58083652 198 16486956406726239656
59682541 35 18201714081624998106
636775 8 18411427190023845966
6376802 90 17975975362980823596
9689198 14 11240003364722034286
999808 66 18413668010877508847

> <PUBCHEM_SHAPE_MULTIPOLES>
525.81
25.47
2.77
1.33
31.84
0.87
0.09
-25.91
2.66
-2.34
0
-1.59
0.05
1.27

> <PUBCHEM_SHAPE_SELFOVERLAP>
1091.867

> <PUBCHEM_SHAPE_VOLUME>
298.9

> <PUBCHEM_COORDINATE_TYPE>
2
5
10

$$$$
