134692643
  -OEChem-03292013293D

 36 38  0     1  0  0  0  0  0999 V2000
   -0.8132    1.9233    0.6730 S   0  0  0  0  0  0  0  0  0  0  0  0
    1.7187    0.5974    1.6725 S   0  0  0  0  0  0  0  0  0  0  0  0
    4.7642    0.1055   -1.3960 S   0  0  1  0  0  0  0  0  0  0  0  0
   -5.5599   -0.0928   -0.3835 O   0  0  0  0  0  0  0  0  0  0  0  0
   -3.1009   -1.9646    0.4050 O   0  0  0  0  0  0  0  0  0  0  0  0
    5.8014   -0.8899   -0.9647 O   0  0  0  0  0  0  0  0  0  0  0  0
   -0.1181   -2.5994   -0.8247 O   0  0  0  0  0  0  0  0  0  0  0  0
    0.9231   -2.3707    1.1986 O   0  0  0  0  0  0  0  0  0  0  0  0
   -1.5241   -0.3827   -0.3665 N   0  0  0  0  0  0  0  0  0  0  0  0
   -3.3067    0.5761    0.1301 C   0  0  2  0  0  0  0  0  0  0  0  0
   -1.9452    1.0246   -0.4532 C   0  0  1  0  0  0  0  0  0  0  0  0
   -2.7236   -0.8626    0.0759 C   0  0  0  0  0  0  0  0  0  0  0  0
   -4.5223    0.8136   -0.7461 C   0  0  2  0  0  0  0  0  0  0  0  0
   -0.3143   -0.5755    0.2516 C   0  0  0  0  0  0  0  0  0  0  0  0
    0.2278    0.5181    0.8143 C   0  0  0  0  0  0  0  0  0  0  0  0
    2.8501    0.9710    0.3043 C   0  0  1  0  0  0  0  0  0  0  0  0
    4.1661    1.5509    0.8038 C   0  0  0  0  0  0  0  0  0  0  0  0
    3.2267   -0.2857   -0.4671 C   0  0  0  0  0  0  0  0  0  0  0  0
    5.0463    1.6348   -0.4313 C   0  0  0  0  0  0  0  0  0  0  0  0
   -5.0372    2.2382   -0.5864 C   0  0  0  0  0  0  0  0  0  0  0  0
    0.2412   -1.9295    0.2906 C   0  0  0  0  0  0  0  0  0  0  0  0
   -3.4880    0.8794    1.1712 H   0  0  0  0  0  0  0  0  0  0  0  0
   -1.9519    1.3888   -1.4859 H   0  0  0  0  0  0  0  0  0  0  0  0
   -4.2827    0.6241   -1.7989 H   0  0  0  0  0  0  0  0  0  0  0  0
    2.3786    1.6995   -0.3683 H   0  0  0  0  0  0  0  0  0  0  0  0
    4.6335    0.8934    1.5486 H   0  0  0  0  0  0  0  0  0  0  0  0
    4.0401    2.5391    1.2589 H   0  0  0  0  0  0  0  0  0  0  0  0
    3.4581   -1.1329    0.1875 H   0  0  0  0  0  0  0  0  0  0  0  0
    2.4641   -0.5830   -1.1917 H   0  0  0  0  0  0  0  0  0  0  0  0
    4.7504    2.4750   -1.0674 H   0  0  0  0  0  0  0  0  0  0  0  0
    6.1072    1.7287   -0.1858 H   0  0  0  0  0  0  0  0  0  0  0  0
   -5.3473    2.4286    0.4472 H   0  0  0  0  0  0  0  0  0  0  0  0
   -5.9171    2.4035   -1.2170 H   0  0  0  0  0  0  0  0  0  0  0  0
   -4.2702    2.9710   -0.8552 H   0  0  0  0  0  0  0  0  0  0  0  0
   -6.3175    0.0779   -0.9688 H   0  0  0  0  0  0  0  0  0  0  0  0
    0.2370   -3.5138   -0.8360 H   0  0  0  0  0  0  0  0  0  0  0  0
  1 11  1  0  0  0  0
  1 15  1  0  0  0  0
  2 15  1  0  0  0  0
  2 16  1  0  0  0  0
  3  6  2  0  0  0  0
  3 18  1  0  0  0  0
  3 19  1  0  0  0  0
  4 13  1  0  0  0  0
  4 35  1  0  0  0  0
  5 12  2  0  0  0  0
  7 21  1  0  0  0  0
  7 36  1  0  0  0  0
  8 21  2  0  0  0  0
  9 11  1  0  0  0  0
  9 12  1  0  0  0  0
  9 14  1  0  0  0  0
 10 11  1  0  0  0  0
 10 12  1  0  0  0  0
 10 13  1  0  0  0  0
 10 22  1  0  0  0  0
 11 23  1  0  0  0  0
 13 20  1  0  0  0  0
 13 24  1  0  0  0  0
 14 15  2  0  0  0  0
 14 21  1  0  0  0  0
 16 17  1  0  0  0  0
 16 18  1  0  0  0  0
 16 25  1  0  0  0  0
 17 19  1  0  0  0  0
 17 26  1  0  0  0  0
 17 27  1  0  0  0  0
 18 28  1  0  0  0  0
 18 29  1  0  0  0  0
 19 30  1  0  0  0  0
 19 31  1  0  0  0  0
 20 32  1  0  0  0  0
 20 33  1  0  0  0  0
 20 34  1  0  0  0  0
M  END
> <PUBCHEM_COMPOUND_CID>
134692643

> <PUBCHEM_CONFORMER_RMSD>
0.8

> <PUBCHEM_CONFORMER_DIVERSEORDER>
1
44
30
69
55
59
62
24
8
70
54
6
68
49
65
21
42
9
13
43
64
14
39
53
25
41
61
17
48
20
22
19
46
27
45
58
31
38
2
11
12
37
28
23
3
7
52
15
50
36
35
67
4
51
63
60
66
33
57
32
5
34
56
26
16
40
18
10
47
29

> <PUBCHEM_MMFF94_PARTIAL_CHARGES>
21
1 -0.32
10 0.05
11 0.44
12 0.58
13 0.28
14 0.12
15 0.2
16 0.23
18 0.19
19 0.19
2 -0.33
21 0.71
3 0.11
35 0.4
36 0.5
4 -0.68
5 -0.57
6 -0.5
7 -0.65
8 -0.57
9 -0.39

> <PUBCHEM_EFFECTIVE_ROTOR_COUNT>
5.2

> <PUBCHEM_PHARMACOPHORE_FEATURES>
9
1 4 acceptor
1 4 donor
1 5 acceptor
1 6 acceptor
1 7 acceptor
1 8 acceptor
3 7 8 21 anion
5 3 16 17 18 19 rings
7 1 9 10 11 12 14 15 rings

> <PUBCHEM_HEAVY_ATOM_COUNT>
21

> <PUBCHEM_ATOM_DEF_STEREO_COUNT>
3

> <PUBCHEM_ATOM_UDEF_STEREO_COUNT>
2

> <PUBCHEM_BOND_DEF_STEREO_COUNT>
0

> <PUBCHEM_BOND_UDEF_STEREO_COUNT>
0

> <PUBCHEM_ISOTOPIC_ATOM_COUNT>
0

> <PUBCHEM_COMPONENT_COUNT>
1

> <PUBCHEM_CACTVS_TAUTO_COUNT>
1

> <PUBCHEM_CONFORMER_ID>
08073F2300000001

> <PUBCHEM_MMFF94_ENERGY>
60.423

> <PUBCHEM_FEATURE_SELFOVERLAP>
45.727

> <PUBCHEM_SHAPE_FINGERPRINT>
10498660 4 18408600370512407400
107951 10 18186808010576799426
11578080 2 17170102639297139071
12011746 2 18411975876168928085
12236239 1 17530960302491667072
12251169 10 10881407547459697648
12592029 89 18114178605866679130
12633257 1 13984663693853870452
12670543 26 18273214162188983581
12954195 1 17773604823075969088
12969540 114 18341037584398422765
13544592 145 18202001053648449704
14341114 328 15936411147594357476
14528608 73 18411411800580842357
14790565 3 18196939860066300233
14931854 50 18198361584862591686
15196674 1 18411982494312578470
1601671 61 18260542308022452981
17349148 13 12607406628186803929
18186145 218 18342460348313386104
19784866 140 17489586740795209441
19784866 170 18113621158051453481
200 152 16415483735789084704
20645476 183 17822572814922555946
20645477 70 17346884442435906164
20832881 197 17489590047582573576
20871999 31 18266455597620358940
21521239 73 17703211997649049485
21637258 2 14548731764416396284
22713019 99 17918276450255935574
23253445 4 11458427942269886788
23366157 5 17826506669815974171
23402539 116 18339353171561316908
23493267 7 18113617906391867923
23559900 14 18272934960157216808
25147074 1 17912646804735318745
2871803 45 18272089375111180648
3004659 81 18411421692417772716
3472631 163 17968661643961927116
350125 39 18191017907338808256
3759504 43 18113616832544743451
474 4 17312829264082187500
4990 188 17917706907237739893
5104073 3 18115024092139140689
56616090 163 18336549330878948533
59755656 215 18339364054934416926
6138700 20 18340209571081959286
633830 44 18340195371281560924
9709674 26 18199752625642229704

> <PUBCHEM_SHAPE_MULTIPOLES>
409.39
11.46
2.36
1.19
1.86
0.86
-0.14
-4.33
4.81
-0.65
-0.17
0.95
-0.04
0.83

> <PUBCHEM_SHAPE_SELFOVERLAP>
825.787

> <PUBCHEM_SHAPE_VOLUME>
242.6

> <PUBCHEM_COORDINATE_TYPE>
2
5
10

$$$$
