134694842
  -OEChem-03292013293D

 35 37  0     1  0  0  0  0  0999 V2000
   -4.4446    1.6716    1.2799 S   0  0  0  0  0  0  0  0  0  0  0  0
   -1.8113    0.2285    0.6569 O   0  0  0  0  0  0  0  0  0  0  0  0
   -1.4795   -2.8244   -0.3260 O   0  0  0  0  0  0  0  0  0  0  0  0
   -2.1002    0.0989   -2.3370 O   0  0  0  0  0  0  0  0  0  0  0  0
    0.5565    0.1229    0.0552 N   0  0  0  0  0  0  0  0  0  0  0  0
    1.8758    1.7762   -0.6486 N   0  0  0  0  0  0  0  0  0  0  0  0
    2.2333   -1.4168    0.9025 N   0  0  0  0  0  0  0  0  0  0  0  0
    4.4847   -0.5175    0.6212 N   0  0  0  0  0  0  0  0  0  0  0  0
    4.8999    1.6194   -0.3726 N   0  0  0  0  0  0  0  0  0  0  0  0
   -1.1637   -1.5297   -0.8343 C   0  0  1  0  0  0  0  0  0  0  0  0
   -2.4271   -0.8586   -1.3377 C   0  0  1  0  0  0  0  0  0  0  0  0
   -0.7133   -0.6507    0.3412 C   0  0  2  0  0  0  0  0  0  0  0  0
   -2.9685   -0.1997   -0.0773 C   0  0  2  0  0  0  0  0  0  0  0  0
   -3.8886    0.9856   -0.3039 C   0  0  0  0  0  0  0  0  0  0  0  0
    1.8351   -0.2716    0.3284 C   0  0  0  0  0  0  0  0  0  0  0  0
    0.6326    1.3584   -0.5310 C   0  0  0  0  0  0  0  0  0  0  0  0
    2.6379    0.7671   -0.1155 C   0  0  0  0  0  0  0  0  0  0  0  0
    4.0110    0.6151    0.0482 C   0  0  0  0  0  0  0  0  0  0  0  0
   -5.7497    0.4747    1.6432 C   0  0  0  0  0  0  0  0  0  0  0  0
    3.5797   -1.4493    1.0071 C   0  0  0  0  0  0  0  0  0  0  0  0
   -0.3964   -1.6466   -1.6065 H   0  0  0  0  0  0  0  0  0  0  0  0
   -3.1570   -1.5570   -1.7598 H   0  0  0  0  0  0  0  0  0  0  0  0
   -0.4891   -1.2322    1.2435 H   0  0  0  0  0  0  0  0  0  0  0  0
   -3.4624   -0.9688    0.5300 H   0  0  0  0  0  0  0  0  0  0  0  0
   -4.7484    0.7184   -0.9260 H   0  0  0  0  0  0  0  0  0  0  0  0
   -3.3480    1.7941   -0.8074 H   0  0  0  0  0  0  0  0  0  0  0  0
   -0.6548   -3.2118    0.0142 H   0  0  0  0  0  0  0  0  0  0  0  0
   -1.7151   -0.3836   -3.0883 H   0  0  0  0  0  0  0  0  0  0  0  0
   -0.2437    1.9048   -0.8519 H   0  0  0  0  0  0  0  0  0  0  0  0
   -6.2662    0.7800    2.5574 H   0  0  0  0  0  0  0  0  0  0  0  0
   -6.4809    0.4437    0.8312 H   0  0  0  0  0  0  0  0  0  0  0  0
   -5.3341   -0.5225    1.8053 H   0  0  0  0  0  0  0  0  0  0  0  0
    3.9940   -2.3428    1.4619 H   0  0  0  0  0  0  0  0  0  0  0  0
    4.5490    2.4656   -0.8003 H   0  0  0  0  0  0  0  0  0  0  0  0
    5.8934    1.4854   -0.2425 H   0  0  0  0  0  0  0  0  0  0  0  0
  1 14  1  0  0  0  0
  1 19  1  0  0  0  0
  2 12  1  0  0  0  0
  2 13  1  0  0  0  0
  3 10  1  0  0  0  0
  3 27  1  0  0  0  0
  4 11  1  0  0  0  0
  4 28  1  0  0  0  0
  5 12  1  0  0  0  0
  5 15  1  0  0  0  0
  5 16  1  0  0  0  0
  6 16  2  0  0  0  0
  6 17  1  0  0  0  0
  7 15  2  0  0  0  0
  7 20  1  0  0  0  0
  8 18  1  0  0  0  0
  8 20  2  0  0  0  0
  9 18  1  0  0  0  0
  9 34  1  0  0  0  0
  9 35  1  0  0  0  0
 10 11  1  0  0  0  0
 10 12  1  0  0  0  0
 10 21  1  0  0  0  0
 11 13  1  0  0  0  0
 11 22  1  0  0  0  0
 12 23  1  0  0  0  0
 13 14  1  0  0  0  0
 13 24  1  0  0  0  0
 14 25  1  0  0  0  0
 14 26  1  0  0  0  0
 15 17  1  0  0  0  0
 16 29  1  0  0  0  0
 17 18  2  0  0  0  0
 19 30  1  0  0  0  0
 19 31  1  0  0  0  0
 19 32  1  0  0  0  0
 20 33  1  0  0  0  0
M  END
> <PUBCHEM_COMPOUND_CID>
134694842

> <PUBCHEM_CONFORMER_RMSD>
0.6

> <PUBCHEM_CONFORMER_DIVERSEORDER>
1
113
267
153
151
105
67
68
230
207
164
37
103
84
214
116
306
114
124
171
177
125
272
64
13
315
228
70
112
72
102
233
111
279
231
129
23
38
57
216
202
54
65
173
209
281
166
128
307
55
90
44
27
308
62
260
292
169
189
4
283
98
188
237
252
31
40
242
25
299
19
291
81
181
157
49
294
52
86
304
184
14
60
127
58
217
310
303
284
11
146
282
95
154
180
78
206
288
241
87
56
273
311
83
88
201
149
155
196
106
221
159
309
176
30
248
73
41
263
205
200
190
50
28
59
29
185
82
197
226
118
244
99
6
250
253
239
246
108
183
74
212
121
193
142
8
69
97
35
100
17
213
9
305
277
314
143
215
295
24
32
107
175
227
20
10
63
158
225
101
161
131
249
96
192
144
12
18
53
251
152
266
240
218
43
47
204
137
85
21
92
298
34
274
91
109
130
191
45
42
198
262
134
93
141
187
178
264
194
208
139
5
75
290
275
235
117
22
51
132
135
199
243
48
94
258
39
256
61
255
123
148
76
162
147
15
104
261
79
3
211
115
156
46
167
313
36
280
122
203
26
2
257
269
195
126
296
165
302
210
223
80
219
278
150
271
270
7
119
133
66
120
297
179
234
182
312
170
316
232
110
168
301
238
172
300
229
16
33
247
220
160
77
254
145
186
224
287
138
268
222
289
245
265
163
174
89
71
140
236
136
285
293
286
276
259

> <PUBCHEM_MMFF94_PARTIAL_CHARGES>
26
1 -0.46
10 0.28
11 0.28
12 0.54
13 0.28
14 0.23
15 0.11
16 0.04
17 0.23
18 0.41
19 0.23
2 -0.56
20 0.47
27 0.4
28 0.4
29 0.15
3 -0.68
33 0.15
34 0.4
35 0.4
4 -0.68
5 0.05
6 -0.57
7 -0.57
8 -0.62
9 -0.9

> <PUBCHEM_EFFECTIVE_ROTOR_COUNT>
4

> <PUBCHEM_PHARMACOPHORE_FEATURES>
14
1 19 hydrophobe
1 2 acceptor
1 3 acceptor
1 3 donor
1 4 acceptor
1 4 donor
1 9 cation
1 9 donor
3 5 6 16 cation
3 5 7 15 cation
3 7 8 20 cation
5 2 10 11 12 13 rings
5 5 6 15 16 17 rings
6 7 8 15 17 18 20 rings

> <PUBCHEM_HEAVY_ATOM_COUNT>
20

> <PUBCHEM_ATOM_DEF_STEREO_COUNT>
1

> <PUBCHEM_ATOM_UDEF_STEREO_COUNT>
3

> <PUBCHEM_BOND_DEF_STEREO_COUNT>
0

> <PUBCHEM_BOND_UDEF_STEREO_COUNT>
0

> <PUBCHEM_ISOTOPIC_ATOM_COUNT>
0

> <PUBCHEM_COMPONENT_COUNT>
1

> <PUBCHEM_CACTVS_TAUTO_COUNT>
4

> <PUBCHEM_CONFORMER_ID>
080747BA00000001

> <PUBCHEM_MMFF94_ENERGY>
48.2756

> <PUBCHEM_FEATURE_SELFOVERLAP>
71.652

> <PUBCHEM_SHAPE_FINGERPRINT>
10354089 29 18334304162278828561
11796584 16 16558757806518407430
12236239 1 18343021094589764969
12500047 106 16487248880844636924
12507560 40 17821449032650867749
12553582 1 18117544138394003786
12596602 18 18334584525196672241
12892183 10 17894920577230634849
13583140 156 17676483918108038067
13675066 3 17676204649937649349
14004511 7 18343297055060608389
14178342 30 18193819656282316090
14341114 176 18041010514059955225
15375358 24 14549015477060349457
17844478 74 16805317777976367125
18186145 218 17967243196552126066
18785283 64 16589167089275068404
20645477 56 16917071057845312273
20645477 70 18260819381121726910
21267235 1 18188496770453110058
212916 134 17203318966992084979
21524375 3 18131633349179594061
23184049 59 18334858277442011853
23402539 116 16056592128281868529
23557571 272 15697994176315167173
23559900 14 16271930402713564948
34934 24 18410854395540989160
4325135 7 13984958358637996606
5104073 3 18336258046292023170
5283173 99 12463299055546744443
633830 44 18338521962456642652
7495541 125 14345801569304302692
74978 22 18339069518592822278
84936 182 17981322606039147336

> <PUBCHEM_SHAPE_MULTIPOLES>
372.93
10.23
1.96
1.37
2.02
0.6
-0.3
-4.06
3.92
0.08
-0.09
1.21
0.08
-1.73

> <PUBCHEM_SHAPE_SELFOVERLAP>
785.652

> <PUBCHEM_SHAPE_VOLUME>
212.8

> <PUBCHEM_COORDINATE_TYPE>
2
5
10

$$$$
