134716624
  -OEChem-03292013293D

 42 42  0     1  0  0  0  0  0999 V2000
   -1.9675   -1.8362   -1.8661 O   0  5  0  0  0  0  0  0  0  0  0  0
   -2.7630    0.2485   -2.3397 O   0  0  0  0  0  0  0  0  0  0  0  0
    2.2133    3.2528    1.0579 O   0  5  0  0  0  0  0  0  0  0  0  0
    2.1620    3.2742   -1.2277 O   0  0  0  0  0  0  0  0  0  0  0  0
   -5.1398    0.9724    1.6755 O   0  5  0  0  0  0  0  0  0  0  0  0
   -5.4564    0.9921   -0.5847 O   0  0  0  0  0  0  0  0  0  0  0  0
    1.4896    0.4422    0.5231 N   0  3  0  0  0  0  0  0  0  0  0  0
   -3.1635   -1.0868    0.7844 N   0  3  0  0  0  0  0  0  0  0  0  0
    4.6128   -1.4419    1.2689 N   0  0  0  0  0  0  0  0  0  0  0  0
    5.2202   -2.3497   -0.6647 N   0  0  0  0  0  0  0  0  0  0  0  0
   -2.2361   -0.2957   -0.0847 C   0  0  1  0  0  0  0  0  0  0  0  0
   -0.8278   -0.3512    0.5217 C   0  0  0  0  0  0  0  0  0  0  0  0
    0.1873    0.5445   -0.1824 C   0  0  0  0  0  0  0  0  0  0  0  0
    2.5881    1.2285   -0.1004 C   0  0  2  0  0  0  0  0  0  0  0  0
   -4.5917   -0.9679    0.4035 C   0  0  1  0  0  0  0  0  0  0  0  0
    3.8791    0.8969    0.6571 C   0  0  0  0  0  0  0  0  0  0  0  0
   -2.3233   -0.6577   -1.5777 C   0  0  0  0  0  0  0  0  0  0  0  0
   -5.3671   -1.9898    1.2217 C   0  0  0  0  0  0  0  0  0  0  0  0
    2.2883    2.7349   -0.0925 C   0  0  0  0  0  0  0  0  0  0  0  0
    4.4129   -0.4762    0.3231 C   0  0  0  0  0  0  0  0  0  0  0  0
   -5.1101    0.4740    0.5165 C   0  0  0  0  0  0  0  0  0  0  0  0
    4.7947   -1.0598   -0.8620 C   0  0  0  0  0  0  0  0  0  0  0  0
    5.0980   -2.5483    0.6290 C   0  0  0  0  0  0  0  0  0  0  0  0
   -2.5655    0.7467    0.0181 H   0  0  0  0  0  0  0  0  0  0  0  0
   -0.8800   -0.0635    1.5805 H   0  0  0  0  0  0  0  0  0  0  0  0
   -0.4658   -1.3878    0.5006 H   0  0  0  0  0  0  0  0  0  0  0  0
    0.3482    0.2306   -1.2184 H   0  0  0  0  0  0  0  0  0  0  0  0
   -0.1348    1.5899   -0.1541 H   0  0  0  0  0  0  0  0  0  0  0  0
    1.3710    0.7381    1.5024 H   0  0  0  0  0  0  0  0  0  0  0  0
    1.7600   -0.5503    0.5633 H   0  0  0  0  0  0  0  0  0  0  0  0
   -3.0507   -0.7948    1.7656 H   0  0  0  0  0  0  0  0  0  0  0  0
   -2.8767   -2.0754    0.7527 H   0  0  0  0  0  0  0  0  0  0  0  0
    2.6595    0.8864   -1.1408 H   0  0  0  0  0  0  0  0  0  0  0  0
   -4.6653   -1.2872   -0.6433 H   0  0  0  0  0  0  0  0  0  0  0  0
    3.7320    0.9899    1.7412 H   0  0  0  0  0  0  0  0  0  0  0  0
    4.6567    1.6251    0.3911 H   0  0  0  0  0  0  0  0  0  0  0  0
   -5.2686   -1.8012    2.2965 H   0  0  0  0  0  0  0  0  0  0  0  0
   -6.4341   -1.9436    0.9783 H   0  0  0  0  0  0  0  0  0  0  0  0
   -5.0195   -3.0090    1.0212 H   0  0  0  0  0  0  0  0  0  0  0  0
    4.4343   -1.3573    2.2608 H   0  0  0  0  0  0  0  0  0  0  0  0
    4.7867   -0.6187   -1.8483 H   0  0  0  0  0  0  0  0  0  0  0  0
    5.3398   -3.4584    1.1592 H   0  0  0  0  0  0  0  0  0  0  0  0
  1 17  1  0  0  0  0
  2 17  2  0  0  0  0
  3 19  1  0  0  0  0
  4 19  2  0  0  0  0
  5 21  1  0  0  0  0
  6 21  2  0  0  0  0
  7 13  1  0  0  0  0
  7 14  1  0  0  0  0
  7 29  1  0  0  0  0
  7 30  1  0  0  0  0
  8 11  1  0  0  0  0
  8 15  1  0  0  0  0
  8 31  1  0  0  0  0
  8 32  1  0  0  0  0
  9 20  1  0  0  0  0
  9 23  1  0  0  0  0
  9 40  1  0  0  0  0
 10 22  1  0  0  0  0
 10 23  2  0  0  0  0
 11 12  1  0  0  0  0
 11 17  1  0  0  0  0
 11 24  1  0  0  0  0
 12 13  1  0  0  0  0
 12 25  1  0  0  0  0
 12 26  1  0  0  0  0
 13 27  1  0  0  0  0
 13 28  1  0  0  0  0
 14 16  1  0  0  0  0
 14 19  1  0  0  0  0
 14 33  1  0  0  0  0
 15 18  1  0  0  0  0
 15 21  1  0  0  0  0
 15 34  1  0  0  0  0
 16 20  1  0  0  0  0
 16 35  1  0  0  0  0
 16 36  1  0  0  0  0
 18 37  1  0  0  0  0
 18 38  1  0  0  0  0
 18 39  1  0  0  0  0
 20 22  2  0  0  0  0
 22 41  1  0  0  0  0
 23 42  1  0  0  0  0
M  CHG  5   1  -1   3  -1   5  -1   7   1   8   1
M  END
> <PUBCHEM_COMPOUND_CID>
134716624

> <PUBCHEM_CONFORMER_RMSD>
1.4

> <PUBCHEM_CONFORMER_DIVERSEORDER>
1
42
29
22
79
26
58
32
28
48
84
71
30
37
33
81
47
51
54
5
45
31
64
60
6
68
12
83
19
70
88
91
43
8
75
3
55
23
14
40
17
35
80
49
57
27
25
7
72
10
87
13
46
86
78
9
24
50
52
63
16
62
20
21
73
76
69
90
89
53
74
38
39
77
44
67
59
18
92
66
34
11
56
2
41
61
65
82
85
4
15
36

> <PUBCHEM_MMFF94_PARTIAL_CHARGES>
28
1 -0.9
10 -0.57
11 0.4
13 0.5
14 0.4
15 0.4
16 0.18
17 0.91
19 0.91
2 -0.9
20 -0.33
21 0.91
22 0.08
23 0.04
29 0.45
3 -0.9
30 0.45
31 0.45
32 0.45
4 -0.9
40 0.27
41 0.15
42 0.15
5 -0.9
6 -0.9
7 -0.91
8 -0.91
9 0.03

> <PUBCHEM_EFFECTIVE_ROTOR_COUNT>
11

> <PUBCHEM_PHARMACOPHORE_FEATURES>
16
1 1 acceptor
1 2 acceptor
1 3 acceptor
1 4 acceptor
1 5 acceptor
1 6 acceptor
1 7 cation
1 7 donor
1 8 cation
1 8 donor
1 9 donor
3 1 2 17 anion
3 3 4 19 anion
3 5 6 21 anion
3 9 10 23 cation
5 9 10 20 22 23 rings

> <PUBCHEM_HEAVY_ATOM_COUNT>
23

> <PUBCHEM_ATOM_DEF_STEREO_COUNT>
2

> <PUBCHEM_ATOM_UDEF_STEREO_COUNT>
1

> <PUBCHEM_BOND_DEF_STEREO_COUNT>
0

> <PUBCHEM_BOND_UDEF_STEREO_COUNT>
0

> <PUBCHEM_ISOTOPIC_ATOM_COUNT>
0

> <PUBCHEM_COMPONENT_COUNT>
1

> <PUBCHEM_CACTVS_TAUTO_COUNT>
6

> <PUBCHEM_CONFORMER_ID>
08079CD000000001

> <PUBCHEM_MMFF94_ENERGY>
35.0096

> <PUBCHEM_FEATURE_SELFOVERLAP>
81.363

> <PUBCHEM_SHAPE_FINGERPRINT>
10090160 65 9943518596732310008
11405975 8 18411421751893239339
12107183 9 18340496547595090097
12422481 6 17775008925257142325
12553582 1 18341609292391826366
12616971 3 17988930006942939883
13533116 47 18265902530492408531
13631057 29 7780926555514228321
14251758 9 18060420192255352927
14251764 30 17968377849454722358
14528608 73 8790882982339324530
15375358 24 13038909949184765957
15806764 133 17676476267990997997
17818456 19 17918000446798931360
17844677 252 18334583472829204001
1813 80 18340776949051255998
20645477 70 18334858355284225370
20832881 197 18334576802665865754
23559900 14 18335136518287516417
238078 22 12829501363243558657
2838139 119 18201716220709362313
3421961 26 18410291428618630624
46194498 28 17385729149047561886
5104073 3 18342185509282545137
5281201 14 17894906364930618972
5312625 73 10737295653080529739
8509985 295 16558747923381940466

> <PUBCHEM_SHAPE_MULTIPOLES>
418.19
14.54
3.01
1.52
5.02
1.66
0.62
-7.05
-3.19
-4.1
-0.13
1.24
-0.16
0.16

> <PUBCHEM_SHAPE_SELFOVERLAP>
840.986

> <PUBCHEM_SHAPE_VOLUME>
244.2

> <PUBCHEM_COORDINATE_TYPE>
2
5
10

$$$$
