13470393
  -OEChem-03292013303D

 58 59  0     1  0  0  0  0  0999 V2000
   -6.4048   -2.0613   -1.4747 Cl  0  0  0  0  0  0  0  0  0  0  0  0
    1.9612   -4.0168    0.8800 O   0  0  0  0  0  0  0  0  0  0  0  0
   -1.0482   -2.9579   -0.7316 O   0  0  0  0  0  0  0  0  0  0  0  0
   -0.3846    2.7577    1.9391 O   0  0  0  0  0  0  0  0  0  0  0  0
   -3.0076    1.5358   -0.2858 O   0  0  0  0  0  0  0  0  0  0  0  0
    3.7808    3.9714   -1.3040 O   0  0  0  0  0  0  0  0  0  0  0  0
    3.0761    1.8417   -1.6453 O   0  0  0  0  0  0  0  0  0  0  0  0
    2.1596   -1.6696    0.1779 C   0  0  2  0  0  0  0  0  0  0  0  0
    0.6381   -1.4520    0.1571 C   0  0  2  0  0  0  0  0  0  0  0  0
    2.2833   -3.1489   -0.2001 C   0  0  2  0  0  0  0  0  0  0  0  0
    0.1631   -2.2831   -1.0481 C   0  0  1  0  0  0  0  0  0  0  0  0
    1.2686   -3.3130   -1.3312 C   0  0  0  0  0  0  0  0  0  0  0  0
    2.8031   -1.3272    1.5150 C   0  0  0  0  0  0  0  0  0  0  0  0
    0.2409   -0.0133    0.0414 C   0  0  0  0  0  0  0  0  0  0  0  0
    4.2826   -1.5670    1.6374 C   0  0  0  0  0  0  0  0  0  0  0  0
   -0.5294    0.6229    0.9360 C   0  0  0  0  0  0  0  0  0  0  0  0
   -0.9280    2.0673    0.8170 C   0  0  1  0  0  0  0  0  0  0  0  0
    5.2711   -0.7208    1.3100 C   0  0  0  0  0  0  0  0  0  0  0  0
    5.0385    0.6517    0.7484 C   0  0  0  0  0  0  0  0  0  0  0  0
   -2.4454    2.2335    0.8159 C   0  0  0  0  0  0  0  0  0  0  0  0
    5.6510    0.8601   -0.6435 C   0  0  0  0  0  0  0  0  0  0  0  0
    5.4350    2.2652   -1.2137 C   0  0  0  0  0  0  0  0  0  0  0  0
   -4.2703    1.0282   -0.1183 C   0  0  0  0  0  0  0  0  0  0  0  0
    3.9783    2.6305   -1.3997 C   0  0  0  0  0  0  0  0  0  0  0  0
   -4.6449   -0.1223   -0.8022 C   0  0  0  0  0  0  0  0  0  0  0  0
   -5.1617    1.6704    0.7330 C   0  0  0  0  0  0  0  0  0  0  0  0
   -5.9296   -0.6381   -0.6324 C   0  0  0  0  0  0  0  0  0  0  0  0
   -6.4464    1.1545    0.9026 C   0  0  0  0  0  0  0  0  0  0  0  0
   -6.8305    0.0003    0.2200 C   0  0  0  0  0  0  0  0  0  0  0  0
    2.6264   -1.0654   -0.6138 H   0  0  0  0  0  0  0  0  0  0  0  0
    0.1961   -1.8681    1.0738 H   0  0  0  0  0  0  0  0  0  0  0  0
    3.2935   -3.4028   -0.5359 H   0  0  0  0  0  0  0  0  0  0  0  0
   -0.0171   -1.6783   -1.9446 H   0  0  0  0  0  0  0  0  0  0  0  0
    1.7519   -3.0539   -2.2810 H   0  0  0  0  0  0  0  0  0  0  0  0
    0.8829   -4.3352   -1.4012 H   0  0  0  0  0  0  0  0  0  0  0  0
    2.3186   -1.8988    2.3186 H   0  0  0  0  0  0  0  0  0  0  0  0
    2.5796   -0.2848    1.7718 H   0  0  0  0  0  0  0  0  0  0  0  0
    0.6025    0.5323   -0.8270 H   0  0  0  0  0  0  0  0  0  0  0  0
    1.0194   -3.9136    1.0945 H   0  0  0  0  0  0  0  0  0  0  0  0
   -1.7135   -2.2795   -0.5241 H   0  0  0  0  0  0  0  0  0  0  0  0
    4.5698   -2.5433    2.0234 H   0  0  0  0  0  0  0  0  0  0  0  0
   -0.8899    0.0825    1.8084 H   0  0  0  0  0  0  0  0  0  0  0  0
   -0.5132    2.5129   -0.0951 H   0  0  0  0  0  0  0  0  0  0  0  0
    6.3012   -1.0357    1.4541 H   0  0  0  0  0  0  0  0  0  0  0  0
    5.4917    1.3722    1.4413 H   0  0  0  0  0  0  0  0  0  0  0  0
    3.9757    0.9027    0.7135 H   0  0  0  0  0  0  0  0  0  0  0  0
   -2.8253    1.8699    1.7815 H   0  0  0  0  0  0  0  0  0  0  0  0
   -2.6966    3.2988    0.7405 H   0  0  0  0  0  0  0  0  0  0  0  0
    5.2246    0.1223   -1.3355 H   0  0  0  0  0  0  0  0  0  0  0  0
    6.7296    0.6635   -0.5999 H   0  0  0  0  0  0  0  0  0  0  0  0
    0.5843    2.6855    1.8904 H   0  0  0  0  0  0  0  0  0  0  0  0
    5.9265    2.3518   -2.1887 H   0  0  0  0  0  0  0  0  0  0  0  0
    5.8944    2.9938   -0.5355 H   0  0  0  0  0  0  0  0  0  0  0  0
   -3.9345   -0.6126   -1.4634 H   0  0  0  0  0  0  0  0  0  0  0  0
   -4.9137    2.5876    1.2581 H   0  0  0  0  0  0  0  0  0  0  0  0
    2.8400    4.2126   -1.4419 H   0  0  0  0  0  0  0  0  0  0  0  0
   -7.1506    1.6554    1.5606 H   0  0  0  0  0  0  0  0  0  0  0  0
   -7.8355   -0.3891    0.3607 H   0  0  0  0  0  0  0  0  0  0  0  0
  1 27  1  0  0  0  0
  2 10  1  0  0  0  0
  2 39  1  0  0  0  0
  3 11  1  0  0  0  0
  3 40  1  0  0  0  0
  4 17  1  0  0  0  0
  4 51  1  0  0  0  0
  5 20  1  0  0  0  0
  5 23  1  0  0  0  0
  6 24  1  0  0  0  0
  6 56  1  0  0  0  0
  7 24  2  0  0  0  0
  8  9  1  0  0  0  0
  8 10  1  0  0  0  0
  8 13  1  0  0  0  0
  8 30  1  0  0  0  0
  9 11  1  0  0  0  0
  9 14  1  0  0  0  0
  9 31  1  0  0  0  0
 10 12  1  0  0  0  0
 10 32  1  0  0  0  0
 11 12  1  0  0  0  0
 11 33  1  0  0  0  0
 12 34  1  0  0  0  0
 12 35  1  0  0  0  0
 13 15  1  0  0  0  0
 13 36  1  0  0  0  0
 13 37  1  0  0  0  0
 14 16  2  0  0  0  0
 14 38  1  0  0  0  0
 15 18  2  0  0  0  0
 15 41  1  0  0  0  0
 16 17  1  0  0  0  0
 16 42  1  0  0  0  0
 17 20  1  0  0  0  0
 17 43  1  0  0  0  0
 18 19  1  0  0  0  0
 18 44  1  0  0  0  0
 19 21  1  0  0  0  0
 19 45  1  0  0  0  0
 19 46  1  0  0  0  0
 20 47  1  0  0  0  0
 20 48  1  0  0  0  0
 21 22  1  0  0  0  0
 21 49  1  0  0  0  0
 21 50  1  0  0  0  0
 22 24  1  0  0  0  0
 22 52  1  0  0  0  0
 22 53  1  0  0  0  0
 23 25  2  0  0  0  0
 23 26  1  0  0  0  0
 25 27  1  0  0  0  0
 25 54  1  0  0  0  0
 26 28  2  0  0  0  0
 26 55  1  0  0  0  0
 27 29  2  0  0  0  0
 28 29  1  0  0  0  0
 28 57  1  0  0  0  0
 29 58  1  0  0  0  0
M  END
> <PUBCHEM_COMPOUND_CID>
13470393

> <PUBCHEM_CONFORMER_RMSD>
1.2

> <PUBCHEM_CONFORMER_DIVERSEORDER>
1
175
309
326
237
159
140
35
103
347
313
31
227
300
139
375
235
243
288
75
215
299
316
112
241
62
214
321
5
205
315
72
263
256
135
52
248
230
366
365
312
101
113
249
174
224
18
233
324
295
157
22
150
335
178
339
122
232
329
193
149
78
50
53
141
271
117
319
10
199
341
184
258
88
153
322
353
61
370
226
129
320
276
190
343
208
222
364
156
30
266
204
254
231
36
123
41
195
287
317
352
131
211
83
281
37
66
182
314
13
146
345
76
120
152
330
239
336
111
14
169
154
163
251
34
142
221
125
307
245
308
148
272
252
306
371
170
292
188
187
255
262
246
377
344
203
158
118
92
19
191
225
68
362
260
87
274
342
11
297
270
331
108
107
55
183
192
96
269
197
24
220
79
318
127
279
51
89
60
247
134
186
346
3
166
291
69
168
95
56
26
86
99
217
332
38
74
20
23
236
77
81
323
358
151
242
311
340
285
376
132
240
138
162
97
351
21
67
337
181
130
164
173
54
302
253
91
16
213
12
196
116
194
238
48
223
354
379
280
177
80
374
228
59
250
338
378
207
273
73
114
264
144
334
6
282
179
137
289
119
293
257
325
40
49
136
349
180
126
218
85
189
115
106
84
17
145
348
202
357
65
373
64
70
210
172
234
105
165
244
294
278
284
133
121
209
47
160
2
176
198
155
110
167
298
102
363
45
333
310
277
93
275
124
185
46
33
94
368
304
104
212
259
355
200
305
301
369
206
100
265
216
58
267
43
27
161
356
296
42
128
143
303
71
290
229
360
286
201
350
268
109
4
57
261
82
283
147
32
25
15
359
39
28
44
63
29
90
9
98
372
8
7
328
171
327
367
361
219

> <PUBCHEM_MMFF94_PARTIAL_CHARGES>
38
1 -0.18
10 0.28
11 0.28
13 0.14
14 -0.29
15 -0.29
16 -0.29
17 0.42
18 -0.29
19 0.14
2 -0.68
20 0.28
22 0.06
23 0.08
24 0.66
25 -0.15
26 -0.15
27 0.18
28 -0.15
29 -0.15
3 -0.68
38 0.15
39 0.4
4 -0.68
40 0.4
41 0.15
42 0.15
44 0.15
5 -0.36
51 0.4
54 0.15
55 0.15
56 0.5
57 0.15
58 0.15
6 -0.65
7 -0.57
9 0.14

> <PUBCHEM_EFFECTIVE_ROTOR_COUNT>
12

> <PUBCHEM_PHARMACOPHORE_FEATURES>
13
1 2 acceptor
1 2 donor
1 3 acceptor
1 3 donor
1 4 acceptor
1 4 donor
1 5 acceptor
1 6 acceptor
1 7 acceptor
3 6 7 24 anion
4 18 19 21 22 hydrophobe
5 8 9 10 11 12 rings
6 23 25 26 27 28 29 rings

> <PUBCHEM_HEAVY_ATOM_COUNT>
29

> <PUBCHEM_ATOM_DEF_STEREO_COUNT>
5

> <PUBCHEM_ATOM_UDEF_STEREO_COUNT>
0

> <PUBCHEM_BOND_DEF_STEREO_COUNT>
2

> <PUBCHEM_BOND_UDEF_STEREO_COUNT>
0

> <PUBCHEM_ISOTOPIC_ATOM_COUNT>
0

> <PUBCHEM_COMPONENT_COUNT>
1

> <PUBCHEM_CACTVS_TAUTO_COUNT>
1

> <PUBCHEM_CONFORMER_ID>
00CD8AB900000001

> <PUBCHEM_MMFF94_ENERGY>
62.3461

> <PUBCHEM_FEATURE_SELFOVERLAP>
66.032

> <PUBCHEM_SHAPE_FINGERPRINT>
10090160 65 18336541633949576554
10906281 52 18341061752501352107
11828042 200 17615976942275125903
12166972 35 18337107857259090240
1361 2 18335706044194778032
14705955 166 14490456587799043228
14787075 74 18411130312613663515
14790565 3 18341330105798792679
15001296 14 18335701701829763732
15297060 5 18060134358588502634
15685185 35 17971761231839574260
15927050 60 17554028219419362032
15968369 153 17699557345394513563
16110190 28 18059571327188925363
19377110 9 18341621373813109425
21716022 299 15911381728167795326
22149856 69 18059585633624632459
23559900 14 17697870372018038595
3044373 193 16298680459428461589
6287921 2 17911808968422005872

> <PUBCHEM_SHAPE_MULTIPOLES>
563.46
16.57
4.52
1.62
17.62
1.16
0
-4.84
-1.55
-4.04
-1.12
-1.29
-0.31
-4.32

> <PUBCHEM_SHAPE_SELFOVERLAP>
1141.209

> <PUBCHEM_SHAPE_VOLUME>
327.6

> <PUBCHEM_COORDINATE_TYPE>
2
5
10

$$$$
