134782
  -OEChem-03292013323D

 48 48  0     1  0  0  0  0  0999 V2000
   -2.2083   -1.6346    0.9564 O   0  0  0  0  0  0  0  0  0  0  0  0
    1.4552   -1.9118    0.8977 O   0  0  0  0  0  0  0  0  0  0  0  0
   -0.1758    2.1240    1.8750 O   0  0  0  0  0  0  0  0  0  0  0  0
    0.5887   -0.3768    2.3743 O   0  0  0  0  0  0  0  0  0  0  0  0
    3.5383    2.5215   -1.4867 O   0  0  0  0  0  0  0  0  0  0  0  0
   -0.9307    0.6646    0.2135 N   0  0  0  0  0  0  0  0  0  0  0  0
   -2.8480   -2.0456   -1.1975 N   0  0  0  0  0  0  0  0  0  0  0  0
    4.9091    0.7051   -1.8156 N   0  0  0  0  0  0  0  0  0  0  0  0
   -2.0246    0.2013   -0.6001 C   0  0  1  0  0  0  0  0  0  0  0  0
   -1.7211    0.3967   -2.0792 C   0  0  0  0  0  0  0  0  0  0  0  0
    0.3337    0.0058    0.0013 C   0  0  1  0  0  0  0  0  0  0  0  0
   -2.8097   -0.2581   -2.9138 C   0  0  0  0  0  0  0  0  0  0  0  0
   -2.3254   -1.2406   -0.2058 C   0  0  0  0  0  0  0  0  0  0  0  0
   -2.8348   -1.7456   -2.6173 C   0  0  0  0  0  0  0  0  0  0  0  0
    1.4089    0.9876   -0.4793 C   0  0  0  0  0  0  0  0  0  0  0  0
   -1.0867    1.6989    1.1595 C   0  0  0  0  0  0  0  0  0  0  0  0
    0.7967   -0.7661    1.2297 C   0  0  0  0  0  0  0  0  0  0  0  0
    2.7139    0.3124   -0.9126 C   0  0  0  0  0  0  0  0  0  0  0  0
   -2.4863    2.2885    1.2619 C   0  0  0  0  0  0  0  0  0  0  0  0
   -2.5854    3.3858    2.3096 C   0  0  0  0  0  0  0  0  0  0  0  0
    3.7340    1.3112   -1.4253 C   0  0  0  0  0  0  0  0  0  0  0  0
    1.9276   -2.6982    1.9964 C   0  0  0  0  0  0  0  0  0  0  0  0
    2.6305   -3.9260    1.4578 C   0  0  0  0  0  0  0  0  0  0  0  0
   -2.9591    0.7287   -0.4012 H   0  0  0  0  0  0  0  0  0  0  0  0
   -1.6782    1.4690   -2.3068 H   0  0  0  0  0  0  0  0  0  0  0  0
   -0.7589   -0.0199   -2.3935 H   0  0  0  0  0  0  0  0  0  0  0  0
    0.2124   -0.7640   -0.7699 H   0  0  0  0  0  0  0  0  0  0  0  0
   -2.6293   -0.0900   -3.9810 H   0  0  0  0  0  0  0  0  0  0  0  0
   -3.7820    0.1895   -2.6742 H   0  0  0  0  0  0  0  0  0  0  0  0
   -1.9453   -2.2326   -3.0323 H   0  0  0  0  0  0  0  0  0  0  0  0
   -3.7148   -2.2170   -3.0659 H   0  0  0  0  0  0  0  0  0  0  0  0
    1.6519    1.7114    0.3076 H   0  0  0  0  0  0  0  0  0  0  0  0
    1.0153    1.5756   -1.3190 H   0  0  0  0  0  0  0  0  0  0  0  0
   -3.1060   -2.9911   -0.9319 H   0  0  0  0  0  0  0  0  0  0  0  0
    2.5143   -0.4159   -1.7071 H   0  0  0  0  0  0  0  0  0  0  0  0
    3.1729   -0.2158   -0.0697 H   0  0  0  0  0  0  0  0  0  0  0  0
   -2.7663    2.7160    0.2931 H   0  0  0  0  0  0  0  0  0  0  0  0
   -3.1897    1.4957    1.5381 H   0  0  0  0  0  0  0  0  0  0  0  0
   -2.3233    3.0064    3.3028 H   0  0  0  0  0  0  0  0  0  0  0  0
   -3.6052    3.7804    2.3527 H   0  0  0  0  0  0  0  0  0  0  0  0
   -1.9081    4.2142    2.0769 H   0  0  0  0  0  0  0  0  0  0  0  0
    1.0791   -3.0009    2.6200 H   0  0  0  0  0  0  0  0  0  0  0  0
    2.6268   -2.1045    2.5957 H   0  0  0  0  0  0  0  0  0  0  0  0
    5.6821    1.2518   -2.1801 H   0  0  0  0  0  0  0  0  0  0  0  0
    5.0481   -0.2986   -1.7557 H   0  0  0  0  0  0  0  0  0  0  0  0
    3.0059   -4.5511    2.2728 H   0  0  0  0  0  0  0  0  0  0  0  0
    3.4703   -3.6385    0.8165 H   0  0  0  0  0  0  0  0  0  0  0  0
    1.9486   -4.5206    0.8409 H   0  0  0  0  0  0  0  0  0  0  0  0
  1 13  2  0  0  0  0
  2 17  1  0  0  0  0
  2 22  1  0  0  0  0
  3 16  2  0  0  0  0
  4 17  2  0  0  0  0
  5 21  2  0  0  0  0
  6  9  1  0  0  0  0
  6 11  1  0  0  0  0
  6 16  1  0  0  0  0
  7 13  1  0  0  0  0
  7 14  1  0  0  0  0
  7 34  1  0  0  0  0
  8 21  1  0  0  0  0
  8 44  1  0  0  0  0
  8 45  1  0  0  0  0
  9 10  1  0  0  0  0
  9 13  1  0  0  0  0
  9 24  1  0  0  0  0
 10 12  1  0  0  0  0
 10 25  1  0  0  0  0
 10 26  1  0  0  0  0
 11 15  1  0  0  0  0
 11 17  1  0  0  0  0
 11 27  1  0  0  0  0
 12 14  1  0  0  0  0
 12 28  1  0  0  0  0
 12 29  1  0  0  0  0
 14 30  1  0  0  0  0
 14 31  1  0  0  0  0
 15 18  1  0  0  0  0
 15 32  1  0  0  0  0
 15 33  1  0  0  0  0
 16 19  1  0  0  0  0
 18 21  1  0  0  0  0
 18 35  1  0  0  0  0
 18 36  1  0  0  0  0
 19 20  1  0  0  0  0
 19 37  1  0  0  0  0
 19 38  1  0  0  0  0
 20 39  1  0  0  0  0
 20 40  1  0  0  0  0
 20 41  1  0  0  0  0
 22 23  1  0  0  0  0
 22 42  1  0  0  0  0
 22 43  1  0  0  0  0
 23 46  1  0  0  0  0
 23 47  1  0  0  0  0
 23 48  1  0  0  0  0
M  END
> <PUBCHEM_COMPOUND_CID>
134782

> <PUBCHEM_CONFORMER_RMSD>
1

> <PUBCHEM_CONFORMER_DIVERSEORDER>
1
24
13
28
31
16
22
19
6
5
4
35
14
17
20
8
12
33
23
34
18
25
29
30
11
15
7
21
9
3
27
32
26
2
10

> <PUBCHEM_MMFF94_PARTIAL_CHARGES>
21
1 -0.57
11 0.36
13 0.57
14 0.3
16 0.57
17 0.66
18 0.06
19 0.06
2 -0.43
21 0.57
22 0.28
3 -0.57
34 0.37
4 -0.57
44 0.37
45 0.37
5 -0.57
6 -0.66
7 -0.73
8 -0.8
9 0.36

> <PUBCHEM_EFFECTIVE_ROTOR_COUNT>
11

> <PUBCHEM_PHARMACOPHORE_FEATURES>
8
1 1 acceptor
1 20 hydrophobe
1 3 acceptor
1 4 acceptor
1 5 acceptor
1 7 donor
1 8 donor
6 7 9 10 12 13 14 rings

> <PUBCHEM_HEAVY_ATOM_COUNT>
23

> <PUBCHEM_ATOM_DEF_STEREO_COUNT>
2

> <PUBCHEM_ATOM_UDEF_STEREO_COUNT>
0

> <PUBCHEM_BOND_DEF_STEREO_COUNT>
0

> <PUBCHEM_BOND_UDEF_STEREO_COUNT>
0

> <PUBCHEM_ISOTOPIC_ATOM_COUNT>
0

> <PUBCHEM_COMPONENT_COUNT>
1

> <PUBCHEM_CACTVS_TAUTO_COUNT>
4

> <PUBCHEM_CONFORMER_ID>
00020E7E00000001

> <PUBCHEM_MMFF94_ENERGY>
49.4035

> <PUBCHEM_FEATURE_SELFOVERLAP>
40.605

> <PUBCHEM_SHAPE_FINGERPRINT>
10756046 70 17977667506822059288
11578080 2 17762009373755599712
12714826 92 16414932914622906188
12716301 132 17131264632686485699
12788726 201 18202562861324861757
13149001 5 17402327569268465968
133893 2 17749945558166212042
14022347 108 17774424097236083477
15842332 3 18339920394627214202
16945 1 17970613298243281815
17980427 23 15872443820280188117
1813 80 17202196528675837325
18915476 22 17531248305443796323
18981168 100 13985227601141802823
20602899 9 17969505003586668838
20645476 183 18197513821909498233
229495 10 18041566815203944629
23114952 82 17604968386822689614
23419403 2 17042336501488367507
23557571 272 16844996945236661112
23598288 3 18200326415618534531
266924 1 18411139099768402643
266924 78 17895761681686810099
298252 57 17771653181378315632
376196 1 15938064864701203996
5845 1 12623920039079699465
633830 44 18263668220154759380
81228 2 17273673435115396345

> <PUBCHEM_SHAPE_MULTIPOLES>
429.04
6.19
3.77
3.07
4.71
0.46
0.62
-0.47
3.4
0.33
-2.14
-0.29
0.05
-5.41

> <PUBCHEM_SHAPE_SELFOVERLAP>
857.922

> <PUBCHEM_SHAPE_VOLUME>
249.6

> <PUBCHEM_COORDINATE_TYPE>
2
5
10

$$$$
