134714983
  -OEChem-03292013293D

 59 60  0     1  0  0  0  0  0999 V2000
   -0.4949    3.4863    1.6510 O   0  0  0  0  0  0  0  0  0  0  0  0
    0.6469   -0.9315   -0.1103 O   0  0  0  0  0  0  0  0  0  0  0  0
    1.1427    2.1492   -0.1221 O   0  0  0  0  0  0  0  0  0  0  0  0
   -0.2069    3.2753   -1.6084 O   0  0  0  0  0  0  0  0  0  0  0  0
    2.6704   -0.6623   -2.4148 O   0  0  0  0  0  0  0  0  0  0  0  0
   -0.0911   -3.0179    0.5208 O   0  0  0  0  0  0  0  0  0  0  0  0
   -4.6918   -1.5748   -0.5711 O   0  0  0  0  0  0  0  0  0  0  0  0
   -6.6607   -0.7075    0.2702 O   0  0  0  0  0  0  0  0  0  0  0  0
    4.9985   -1.3890    0.1038 N   0  0  1  0  0  0  0  0  0  0  0  0
   -1.2658    1.2288    1.1139 C   0  0  2  0  0  0  0  0  0  0  0  0
   -1.0555    2.6870    0.6051 C   0  0  1  0  0  0  0  0  0  0  0  0
   -1.7880    0.2871   -0.0002 C   0  0  0  0  0  0  0  0  0  0  0  0
    2.0104   -1.3807   -0.2189 C   0  0  2  0  0  0  0  0  0  0  0  0
   -2.1796    1.1704    2.3501 C   0  0  0  0  0  0  0  0  0  0  0  0
    2.6823   -1.3892    1.1558 C   0  0  0  0  0  0  0  0  0  0  0  0
   -2.3495    3.3779    0.1692 C   0  0  0  0  0  0  0  0  0  0  0  0
   -1.6319   -1.1815    0.3191 C   0  0  0  0  0  0  0  0  0  0  0  0
    4.1031   -1.9662    1.1232 C   0  0  0  0  0  0  0  0  0  0  0  0
   -0.0164    2.7524   -0.5175 C   0  0  0  0  0  0  0  0  0  0  0  0
    3.0899    0.9244   -0.7298 C   0  0  0  0  0  0  0  0  0  0  0  0
    2.6267   -0.4067   -1.2111 C   0  0  0  0  0  0  0  0  0  0  0  0
    5.2891    0.0326    0.3332 C   0  0  0  0  0  0  0  0  0  0  0  0
    2.2133    2.0916   -1.0802 C   0  0  0  0  0  0  0  0  0  0  0  0
   -0.2938   -1.8394    0.2650 C   0  0  0  0  0  0  0  0  0  0  0  0
    4.2607    1.0564   -0.0837 C   0  0  0  0  0  0  0  0  0  0  0  0
   -2.6817   -1.9635    0.6137 C   0  0  0  0  0  0  0  0  0  0  0  0
    6.2479   -2.1577    0.0669 C   0  0  0  0  0  0  0  0  0  0  0  0
   -4.0842   -1.4683    0.7086 C   0  0  0  0  0  0  0  0  0  0  0  0
   -5.9918   -1.1565   -0.6507 C   0  0  0  0  0  0  0  0  0  0  0  0
   -6.4985   -1.3268   -2.0508 C   0  0  0  0  0  0  0  0  0  0  0  0
   -0.2916    0.8632    1.4651 H   0  0  0  0  0  0  0  0  0  0  0  0
   -1.2423    0.4734   -0.9342 H   0  0  0  0  0  0  0  0  0  0  0  0
   -2.8213    0.5485   -0.2494 H   0  0  0  0  0  0  0  0  0  0  0  0
    2.0458   -2.3812   -0.6688 H   0  0  0  0  0  0  0  0  0  0  0  0
   -3.2082    1.4544    2.1095 H   0  0  0  0  0  0  0  0  0  0  0  0
   -1.8203    1.8420    3.1366 H   0  0  0  0  0  0  0  0  0  0  0  0
   -2.1996    0.1628    2.7778 H   0  0  0  0  0  0  0  0  0  0  0  0
    2.0837   -1.9992    1.8446 H   0  0  0  0  0  0  0  0  0  0  0  0
    2.6748   -0.3906    1.6078 H   0  0  0  0  0  0  0  0  0  0  0  0
   -3.0540    3.4737    1.0017 H   0  0  0  0  0  0  0  0  0  0  0  0
   -2.8425    2.8489   -0.6521 H   0  0  0  0  0  0  0  0  0  0  0  0
   -2.1532    4.4014   -0.1736 H   0  0  0  0  0  0  0  0  0  0  0  0
    4.5458   -1.8770    2.1240 H   0  0  0  0  0  0  0  0  0  0  0  0
    3.9998   -3.0419    0.9260 H   0  0  0  0  0  0  0  0  0  0  0  0
    6.1916    0.3068   -0.2309 H   0  0  0  0  0  0  0  0  0  0  0  0
    5.5367    0.1994    1.3901 H   0  0  0  0  0  0  0  0  0  0  0  0
    2.7654    3.0366   -1.0273 H   0  0  0  0  0  0  0  0  0  0  0  0
    1.8269    1.9791   -2.1001 H   0  0  0  0  0  0  0  0  0  0  0  0
    4.5438    2.0698    0.2045 H   0  0  0  0  0  0  0  0  0  0  0  0
   -0.4418    4.4066    1.3409 H   0  0  0  0  0  0  0  0  0  0  0  0
   -2.5480   -3.0259    0.8020 H   0  0  0  0  0  0  0  0  0  0  0  0
    6.0475   -3.2134   -0.1484 H   0  0  0  0  0  0  0  0  0  0  0  0
    6.7983   -2.0949    1.0127 H   0  0  0  0  0  0  0  0  0  0  0  0
    6.8991   -1.7992   -0.7383 H   0  0  0  0  0  0  0  0  0  0  0  0
   -4.1571   -0.4443    1.0838 H   0  0  0  0  0  0  0  0  0  0  0  0
   -4.6261   -2.1063    1.4180 H   0  0  0  0  0  0  0  0  0  0  0  0
   -6.4613   -2.3821   -2.3323 H   0  0  0  0  0  0  0  0  0  0  0  0
   -7.5370   -0.9877   -2.1046 H   0  0  0  0  0  0  0  0  0  0  0  0
   -5.8991   -0.7234   -2.7372 H   0  0  0  0  0  0  0  0  0  0  0  0
  1 11  1  0  0  0  0
  1 50  1  0  0  0  0
  2 13  1  0  0  0  0
  2 24  1  0  0  0  0
  3 19  1  0  0  0  0
  3 23  1  0  0  0  0
  4 19  2  0  0  0  0
  5 21  2  0  0  0  0
  6 24  2  0  0  0  0
  7 28  1  0  0  0  0
  7 29  1  0  0  0  0
  8 29  2  0  0  0  0
  9 18  1  0  0  0  0
  9 22  1  0  0  0  0
  9 27  1  0  0  0  0
 10 11  1  0  0  0  0
 10 12  1  0  0  0  0
 10 14  1  0  0  0  0
 10 31  1  0  0  0  0
 11 16  1  0  0  0  0
 11 19  1  0  0  0  0
 12 17  1  0  0  0  0
 12 32  1  0  0  0  0
 12 33  1  0  0  0  0
 13 15  1  0  0  0  0
 13 21  1  0  0  0  0
 13 34  1  0  0  0  0
 14 35  1  0  0  0  0
 14 36  1  0  0  0  0
 14 37  1  0  0  0  0
 15 18  1  0  0  0  0
 15 38  1  0  0  0  0
 15 39  1  0  0  0  0
 16 40  1  0  0  0  0
 16 41  1  0  0  0  0
 16 42  1  0  0  0  0
 17 24  1  0  0  0  0
 17 26  2  0  0  0  0
 18 43  1  0  0  0  0
 18 44  1  0  0  0  0
 20 21  1  0  0  0  0
 20 23  1  0  0  0  0
 20 25  2  0  0  0  0
 22 25  1  0  0  0  0
 22 45  1  0  0  0  0
 22 46  1  0  0  0  0
 23 47  1  0  0  0  0
 23 48  1  0  0  0  0
 25 49  1  0  0  0  0
 26 28  1  0  0  0  0
 26 51  1  0  0  0  0
 27 52  1  0  0  0  0
 27 53  1  0  0  0  0
 27 54  1  0  0  0  0
 28 55  1  0  0  0  0
 28 56  1  0  0  0  0
 29 30  1  0  0  0  0
 30 57  1  0  0  0  0
 30 58  1  0  0  0  0
 30 59  1  0  0  0  0
M  END
> <PUBCHEM_COMPOUND_CID>
134714983

> <PUBCHEM_CONFORMER_RMSD>
0.8

> <PUBCHEM_CONFORMER_DIVERSEORDER>
1
18
13
27
20
21
29
26
5
12
6
4
8
14
16
3
19
11
7
10
24
15
30
22
25
31
2
9
23
28
17

> <PUBCHEM_MMFF94_PARTIAL_CHARGES>
29
1 -0.68
11 0.34
12 0.14
13 0.34
17 -0.12
18 0.27
19 0.66
2 -0.43
20 -0.12
21 0.49
22 0.41
23 0.42
24 0.71
25 -0.29
26 -0.29
27 0.27
28 0.42
29 0.66
3 -0.43
30 0.06
4 -0.57
49 0.15
5 -0.57
50 0.4
51 0.15
6 -0.57
7 -0.43
8 -0.57
9 -0.81

> <PUBCHEM_EFFECTIVE_ROTOR_COUNT>
5

> <PUBCHEM_PHARMACOPHORE_FEATURES>
7
1 1 acceptor
1 1 donor
1 4 acceptor
1 5 acceptor
1 6 acceptor
1 8 acceptor
1 9 cation

> <PUBCHEM_HEAVY_ATOM_COUNT>
30

> <PUBCHEM_ATOM_DEF_STEREO_COUNT>
3

> <PUBCHEM_ATOM_UDEF_STEREO_COUNT>
0

> <PUBCHEM_BOND_DEF_STEREO_COUNT>
2

> <PUBCHEM_BOND_UDEF_STEREO_COUNT>
0

> <PUBCHEM_ISOTOPIC_ATOM_COUNT>
0

> <PUBCHEM_COMPONENT_COUNT>
1

> <PUBCHEM_CACTVS_TAUTO_COUNT>
2

> <PUBCHEM_CONFORMER_ID>
0807966700000001

> <PUBCHEM_MMFF94_ENERGY>
72.5025

> <PUBCHEM_FEATURE_SELFOVERLAP>
35.524

> <PUBCHEM_SHAPE_FINGERPRINT>
10006869 2 18270391832754314648
10674148 151 13118268253946186870
10675989 125 18189055468194411525
12156800 1 16954459894402024913
12166972 35 18040435498947287574
12633257 1 18128830659612596624
12788726 201 18341346551239436904
13004483 165 18410847776489717518
13140716 1 18338250287941017888
13782708 43 16845025523933491270
14068700 675 18342171167774839117
14117953 113 18342176635754179935
14251757 17 18041265648039312349
14464042 87 18341897402533417907
15131766 46 15552447493030629450
20028762 73 18272089374958668062
23557571 272 18131070398640961266
23559900 14 18262234537974415419
23622692 118 18409450254683465852
24893992 56 18187363256239495811
3004659 81 18113051645003174442
3380486 77 18261683643993972982
3680242 22 18336275591112230939
38695281 34 17687181985874646237
463206 1 18198343060204185895
7164475 11 18268994198044049535
7471813 234 18411695517150640910

> <PUBCHEM_SHAPE_MULTIPOLES>
565.45
12.54
3.96
1.59
7.15
3.15
0.18
-10.14
2.92
0.75
-0.37
0.78
0.35
-1.61

> <PUBCHEM_SHAPE_SELFOVERLAP>
1160.516

> <PUBCHEM_SHAPE_VOLUME>
320.9

> <PUBCHEM_COORDINATE_TYPE>
2
5
10

$$$$
