134715155
  -OEChem-03292013293D

 69 72  0     1  0  0  0  0  0999 V2000
    1.2949   -2.7250    0.9201 O   0  0  0  0  0  0  0  0  0  0  0  0
   -1.2751    3.0651   -0.3773 O   0  0  0  0  0  0  0  0  0  0  0  0
   -1.2449   -2.7833    0.4937 O   0  0  0  0  0  0  0  0  0  0  0  0
   -6.4644   -0.1210   -1.7056 O   0  0  0  0  0  0  0  0  0  0  0  0
    7.5292   -1.0095   -1.9134 O   0  0  0  0  0  0  0  0  0  0  0  0
    7.7491   -0.7500    0.3319 O   0  0  0  0  0  0  0  0  0  0  0  0
    1.3653    0.7002    0.3505 C   0  0  1  0  0  0  0  0  0  0  0  0
    0.5851   -0.5849   -0.0909 C   0  0  2  0  0  0  0  0  0  0  0  0
    2.8332    0.3621   -0.0187 C   0  0  2  0  0  0  0  0  0  0  0  0
   -3.0215    0.9494    0.6074 C   0  0  1  0  0  0  0  0  0  0  0  0
   -0.8622   -0.4359    0.3218 C   0  0  0  0  0  0  0  0  0  0  0  0
   -3.7962   -0.4121    0.8028 C   0  0  1  0  0  0  0  0  0  0  0  0
   -1.5246    0.7484    0.2545 C   0  0  0  0  0  0  0  0  0  0  0  0
    0.7797    1.8926   -0.3910 C   0  0  0  0  0  0  0  0  0  0  0  0
    2.9984   -1.0801    0.4916 C   0  0  0  0  0  0  0  0  0  0  0  0
    1.5692   -1.6061    0.5093 C   0  0  0  0  0  0  0  0  0  0  0  0
   -4.5361   -0.9524   -0.4791 C   0  0  0  0  0  0  0  0  0  0  0  0
    3.9076    1.2953    0.5284 C   0  0  1  0  0  0  0  0  0  0  0  0
    1.2649    0.9864    1.8894 C   0  0  0  0  0  0  0  0  0  0  0  0
   -2.9021   -1.4302    1.5106 C   0  0  0  0  0  0  0  0  0  0  0  0
   -0.7263    1.9800   -0.1812 C   0  0  0  0  0  0  0  0  0  0  0  0
   -3.7703    1.8173   -0.4503 C   0  0  0  0  0  0  0  0  0  0  0  0
    0.5745   -0.8915   -1.6125 C   0  0  0  0  0  0  0  0  0  0  0  0
   -1.6293   -1.6441    0.7467 C   0  0  0  0  0  0  0  0  0  0  0  0
   -3.0546    1.7118    1.9628 C   0  0  0  0  0  0  0  0  0  0  0  0
   -5.2650    1.5476   -0.5090 C   0  0  0  0  0  0  0  0  0  0  0  0
   -5.5086    0.1334   -0.9705 C   0  0  0  0  0  0  0  0  0  0  0  0
    5.2993    0.6344    0.5723 C   0  0  0  0  0  0  0  0  0  0  0  0
   -5.3899   -2.1924   -0.1286 C   0  0  0  0  0  0  0  0  0  0  0  0
   -3.6285   -1.3207   -1.6629 C   0  0  0  0  0  0  0  0  0  0  0  0
    3.9698    2.5716   -0.3173 C   0  0  0  0  0  0  0  0  0  0  0  0
    5.7724    0.1241   -0.7903 C   0  0  0  0  0  0  0  0  0  0  0  0
    7.1069   -0.5804   -0.6952 C   0  0  0  0  0  0  0  0  0  0  0  0
    2.9260    0.3419   -1.1124 H   0  0  0  0  0  0  0  0  0  0  0  0
   -4.6080   -0.2109    1.5206 H   0  0  0  0  0  0  0  0  0  0  0  0
    0.9783    1.8574   -1.4670 H   0  0  0  0  0  0  0  0  0  0  0  0
    1.1873    2.8301   -0.0044 H   0  0  0  0  0  0  0  0  0  0  0  0
    3.3768   -1.1364    1.5163 H   0  0  0  0  0  0  0  0  0  0  0  0
    3.5937   -1.7054   -0.1762 H   0  0  0  0  0  0  0  0  0  0  0  0
    3.7024    1.5883    1.5622 H   0  0  0  0  0  0  0  0  0  0  0  0
   -3.4058   -2.3909    1.6473 H   0  0  0  0  0  0  0  0  0  0  0  0
   -2.6316   -1.0923    2.5178 H   0  0  0  0  0  0  0  0  0  0  0  0
    1.6933    1.9636    2.1386 H   0  0  0  0  0  0  0  0  0  0  0  0
    0.2344    1.0154    2.2545 H   0  0  0  0  0  0  0  0  0  0  0  0
    1.7815    0.2348    2.4942 H   0  0  0  0  0  0  0  0  0  0  0  0
   -3.3454    1.6520   -1.4487 H   0  0  0  0  0  0  0  0  0  0  0  0
   -3.6444    2.8852   -0.2354 H   0  0  0  0  0  0  0  0  0  0  0  0
    1.5753   -1.0316   -2.0331 H   0  0  0  0  0  0  0  0  0  0  0  0
    0.0761   -0.1101   -2.1959 H   0  0  0  0  0  0  0  0  0  0  0  0
    0.0378   -1.8286   -1.8098 H   0  0  0  0  0  0  0  0  0  0  0  0
   -2.5902    2.7016    1.8873 H   0  0  0  0  0  0  0  0  0  0  0  0
   -2.5219    1.1684    2.7508 H   0  0  0  0  0  0  0  0  0  0  0  0
   -4.0832    1.8688    2.3065 H   0  0  0  0  0  0  0  0  0  0  0  0
   -5.7302    2.2309   -1.2280 H   0  0  0  0  0  0  0  0  0  0  0  0
   -5.7468    1.6956    0.4622 H   0  0  0  0  0  0  0  0  0  0  0  0
    5.3181   -0.1802    1.3053 H   0  0  0  0  0  0  0  0  0  0  0  0
    6.0297    1.3630    0.9505 H   0  0  0  0  0  0  0  0  0  0  0  0
   -3.0280   -2.2105   -1.4549 H   0  0  0  0  0  0  0  0  0  0  0  0
   -4.7703   -3.0586    0.1230 H   0  0  0  0  0  0  0  0  0  0  0  0
   -6.0236   -2.4973   -0.9699 H   0  0  0  0  0  0  0  0  0  0  0  0
   -6.0559   -1.9871    0.7172 H   0  0  0  0  0  0  0  0  0  0  0  0
   -2.9527   -0.5099   -1.9447 H   0  0  0  0  0  0  0  0  0  0  0  0
   -4.2249   -1.5476   -2.5555 H   0  0  0  0  0  0  0  0  0  0  0  0
    3.9163    2.3677   -1.3916 H   0  0  0  0  0  0  0  0  0  0  0  0
    4.9026    3.1167   -0.1316 H   0  0  0  0  0  0  0  0  0  0  0  0
    3.1691    3.2654   -0.0582 H   0  0  0  0  0  0  0  0  0  0  0  0
    5.0707   -0.5804   -1.2397 H   0  0  0  0  0  0  0  0  0  0  0  0
    5.9024    0.9679   -1.4769 H   0  0  0  0  0  0  0  0  0  0  0  0
    8.3965   -1.4648   -1.8599 H   0  0  0  0  0  0  0  0  0  0  0  0
  1 16  2  0  0  0  0
  2 21  2  0  0  0  0
  3 24  2  0  0  0  0
  4 27  2  0  0  0  0
  5 33  1  0  0  0  0
  5 69  1  0  0  0  0
  6 33  2  0  0  0  0
  7  8  1  0  0  0  0
  7  9  1  0  0  0  0
  7 14  1  0  0  0  0
  7 19  1  0  0  0  0
  8 11  1  0  0  0  0
  8 16  1  0  0  0  0
  8 23  1  0  0  0  0
  9 15  1  0  0  0  0
  9 18  1  0  0  0  0
  9 34  1  0  0  0  0
 10 12  1  0  0  0  0
 10 13  1  0  0  0  0
 10 22  1  0  0  0  0
 10 25  1  0  0  0  0
 11 13  2  0  0  0  0
 11 24  1  0  0  0  0
 12 17  1  0  0  0  0
 12 20  1  0  0  0  0
 12 35  1  0  0  0  0
 13 21  1  0  0  0  0
 14 21  1  0  0  0  0
 14 36  1  0  0  0  0
 14 37  1  0  0  0  0
 15 16  1  0  0  0  0
 15 38  1  0  0  0  0
 15 39  1  0  0  0  0
 17 27  1  0  0  0  0
 17 29  1  0  0  0  0
 17 30  1  0  0  0  0
 18 28  1  0  0  0  0
 18 31  1  0  0  0  0
 18 40  1  0  0  0  0
 19 43  1  0  0  0  0
 19 44  1  0  0  0  0
 19 45  1  0  0  0  0
 20 24  1  0  0  0  0
 20 41  1  0  0  0  0
 20 42  1  0  0  0  0
 22 26  1  0  0  0  0
 22 46  1  0  0  0  0
 22 47  1  0  0  0  0
 23 48  1  0  0  0  0
 23 49  1  0  0  0  0
 23 50  1  0  0  0  0
 25 51  1  0  0  0  0
 25 52  1  0  0  0  0
 25 53  1  0  0  0  0
 26 27  1  0  0  0  0
 26 54  1  0  0  0  0
 26 55  1  0  0  0  0
 28 32  1  0  0  0  0
 28 56  1  0  0  0  0
 28 57  1  0  0  0  0
 29 59  1  0  0  0  0
 29 60  1  0  0  0  0
 29 61  1  0  0  0  0
 30 58  1  0  0  0  0
 30 62  1  0  0  0  0
 30 63  1  0  0  0  0
 31 64  1  0  0  0  0
 31 65  1  0  0  0  0
 31 66  1  0  0  0  0
 32 33  1  0  0  0  0
 32 67  1  0  0  0  0
 32 68  1  0  0  0  0
M  END
> <PUBCHEM_COMPOUND_CID>
134715155

> <PUBCHEM_CONFORMER_RMSD>
0.8

> <PUBCHEM_CONFORMER_DIVERSEORDER>
1
25
28
19
10
18
29
6
13
14
15
22
16
23
26
8
2
20
5
24
9
4
30
7
11
17
27
3
12
21

> <PUBCHEM_MMFF94_PARTIAL_CHARGES>
22
1 -0.57
10 0.14
11 -0.12
13 -0.12
14 0.06
15 0.06
16 0.45
17 0.06
2 -0.57
20 0.06
21 0.49
24 0.49
26 0.06
27 0.45
3 -0.57
32 0.06
33 0.66
4 -0.57
5 -0.65
6 -0.57
69 0.5
8 0.2

> <PUBCHEM_EFFECTIVE_ROTOR_COUNT>
5.4

> <PUBCHEM_PHARMACOPHORE_FEATURES>
13
1 1 acceptor
1 2 acceptor
1 3 acceptor
1 31 hydrophobe
1 4 acceptor
1 5 acceptor
1 6 acceptor
3 17 29 30 hydrophobe
3 5 6 33 anion
5 7 8 9 15 16 rings
6 10 11 12 13 20 24 rings
6 10 12 17 22 26 27 rings
6 7 8 11 13 14 21 rings

> <PUBCHEM_HEAVY_ATOM_COUNT>
33

> <PUBCHEM_ATOM_DEF_STEREO_COUNT>
5

> <PUBCHEM_ATOM_UDEF_STEREO_COUNT>
1

> <PUBCHEM_BOND_DEF_STEREO_COUNT>
0

> <PUBCHEM_BOND_UDEF_STEREO_COUNT>
0

> <PUBCHEM_ISOTOPIC_ATOM_COUNT>
0

> <PUBCHEM_COMPONENT_COUNT>
1

> <PUBCHEM_CACTVS_TAUTO_COUNT>
40

> <PUBCHEM_CONFORMER_ID>
0807971300000001

> <PUBCHEM_MMFF94_ENERGY>
117.8455

> <PUBCHEM_FEATURE_SELFOVERLAP>
66.155

> <PUBCHEM_SHAPE_FINGERPRINT>
10906281 52 18336840740220854145
11007060 377 18336274526398399480
11135926 11 18409163282264576511
11315181 36 18273498978718822440
11488393 25 17559127484161712662
11578080 2 17024859360495997620
12011746 2 18409726274581900233
12107698 1 16415480471244766528
12166972 35 17895195574990390533
12236239 1 18131069371958933604
12788726 201 18263349327296982409
13224815 77 18272652355239837665
13782708 43 17846782927421845342
13811026 1 18337103561679532787
14117953 113 18334854996256388181
14790565 3 18335139838239622869
14856354 85 14490197136665604770
14931854 50 18338500998815891823
15183329 4 18333456431051871534
17349148 13 18261385685090983777
17980427 23 16878517730014640653
18681886 176 18060409231693856048
200 152 18131345337294443841
20028762 73 18343018904847878430
21236236 1 18342178860156354864
21267235 1 18337397127232047819
21279426 13 18336264634676856884
21682296 61 17845948329566725942
21709351 56 18409448094056544204
21857420 4 12343303544484653621
22393880 68 18341607122821106621
23402539 116 18411414033821281301
23522609 53 18123223206383494304
23559900 14 18408881849709888272
23569917 315 18410859884082834994
23569943 247 17485662455506620262
3004659 81 18113894987886260872
335352 9 18335420175729878092
350125 39 18333731291494200696
437815 12 18131075926907572792
59755656 215 18408886209782377014
6328613 192 17749679571031572348

> <PUBCHEM_SHAPE_MULTIPOLES>
643.91
15.51
2.65
1.45
19.43
0.27
0
-2.77
-6.03
-1.01
0.2
-0.51
-0.14
0.27

> <PUBCHEM_SHAPE_SELFOVERLAP>
1386.794

> <PUBCHEM_SHAPE_VOLUME>
350.2

> <PUBCHEM_COORDINATE_TYPE>
2
5
10

$$$$
