134715003
  -OEChem-03292013293D

 53 55  0     1  0  0  0  0  0999 V2000
    0.8909   -0.9692   -0.3094 O   0  0  0  0  0  0  0  0  0  0  0  0
   -0.1773    1.6064   -0.8721 O   0  0  0  0  0  0  0  0  0  0  0  0
   -0.7110   -0.2364    1.9395 O   0  0  0  0  0  0  0  0  0  0  0  0
   -2.9110    1.6585    1.3881 O   0  0  0  0  0  0  0  0  0  0  0  0
   -0.3695   -1.3674   -2.1996 O   0  0  0  0  0  0  0  0  0  0  0  0
   -4.0312    0.0367   -0.6798 O   0  0  0  0  0  0  0  0  0  0  0  0
   -0.6380    2.8315    1.0189 O   0  0  0  0  0  0  0  0  0  0  0  0
    3.9172    0.0830    0.2065 N   0  0  2  0  0  0  0  0  0  0  0  0
    2.8779    0.4130   -0.8162 C   0  0  1  0  0  0  0  0  0  0  0  0
    2.1096   -0.8896   -1.0753 C   0  0  1  0  0  0  0  0  0  0  0  0
    3.0507   -1.9589   -0.5333 C   0  0  0  0  0  0  0  0  0  0  0  0
    3.6477   -1.2760    0.6862 C   0  0  0  0  0  0  0  0  0  0  0  0
    2.1547    1.6161   -0.3012 C   0  0  0  0  0  0  0  0  0  0  0  0
    3.8129    1.1076    1.2634 C   0  0  0  0  0  0  0  0  0  0  0  0
   -1.4087   -1.5271   -0.0331 C   0  0  2  0  0  0  0  0  0  0  0  0
    2.6968    2.0099    0.8554 C   0  0  0  0  0  0  0  0  0  0  0  0
   -1.7434   -0.3945    0.9620 C   0  0  2  0  0  0  0  0  0  0  0  0
   -2.1084    0.9991    0.3885 C   0  0  1  0  0  0  0  0  0  0  0  0
    1.0667    2.3040   -1.0535 C   0  0  0  0  0  0  0  0  0  0  0  0
   -1.1496   -2.8653    0.6677 C   0  0  0  0  0  0  0  0  0  0  0  0
   -0.2556   -1.2644   -0.9833 C   0  0  0  0  0  0  0  0  0  0  0  0
   -2.9717    0.9671   -0.8686 C   0  0  2  0  0  0  0  0  0  0  0  0
   -0.9112    1.9338    0.2293 C   0  0  0  0  0  0  0  0  0  0  0  0
   -2.2631   -3.1665    1.6651 C   0  0  0  0  0  0  0  0  0  0  0  0
   -1.0234   -3.9860   -0.3585 C   0  0  0  0  0  0  0  0  0  0  0  0
   -3.5521    2.3344   -1.1865 C   0  0  0  0  0  0  0  0  0  0  0  0
    3.4224    0.6871   -1.7295 H   0  0  0  0  0  0  0  0  0  0  0  0
    1.9340   -1.0384   -2.1461 H   0  0  0  0  0  0  0  0  0  0  0  0
    3.8352   -2.1877   -1.2647 H   0  0  0  0  0  0  0  0  0  0  0  0
    2.5344   -2.8848   -0.2615 H   0  0  0  0  0  0  0  0  0  0  0  0
    2.9194   -1.2944    1.5071 H   0  0  0  0  0  0  0  0  0  0  0  0
    4.5639   -1.7700    1.0226 H   0  0  0  0  0  0  0  0  0  0  0  0
    4.7491    1.6737    1.3099 H   0  0  0  0  0  0  0  0  0  0  0  0
    3.6216    0.6873    2.2568 H   0  0  0  0  0  0  0  0  0  0  0  0
   -2.2855   -1.6673   -0.6779 H   0  0  0  0  0  0  0  0  0  0  0  0
    2.3862    2.8756    1.4224 H   0  0  0  0  0  0  0  0  0  0  0  0
   -2.6284   -0.7079    1.5285 H   0  0  0  0  0  0  0  0  0  0  0  0
    0.9658    3.3558   -0.7600 H   0  0  0  0  0  0  0  0  0  0  0  0
    1.2930    2.3022   -2.1250 H   0  0  0  0  0  0  0  0  0  0  0  0
   -0.2047   -2.8257    1.2256 H   0  0  0  0  0  0  0  0  0  0  0  0
   -2.3898    0.6231   -1.7305 H   0  0  0  0  0  0  0  0  0  0  0  0
   -3.2548   -3.0571    1.2129 H   0  0  0  0  0  0  0  0  0  0  0  0
   -2.2048   -2.5308    2.5539 H   0  0  0  0  0  0  0  0  0  0  0  0
   -2.1825   -4.1978    2.0281 H   0  0  0  0  0  0  0  0  0  0  0  0
   -1.9104   -4.0466   -0.9986 H   0  0  0  0  0  0  0  0  0  0  0  0
   -0.9109   -4.9545    0.1417 H   0  0  0  0  0  0  0  0  0  0  0  0
   -0.1450   -3.8617   -0.9994 H   0  0  0  0  0  0  0  0  0  0  0  0
   -1.0543    0.3233    2.6554 H   0  0  0  0  0  0  0  0  0  0  0  0
   -2.4078    1.6894    2.2188 H   0  0  0  0  0  0  0  0  0  0  0  0
   -4.2639    2.6688   -0.4241 H   0  0  0  0  0  0  0  0  0  0  0  0
   -4.1245    2.2838   -2.1203 H   0  0  0  0  0  0  0  0  0  0  0  0
   -2.7796    3.0981   -1.3143 H   0  0  0  0  0  0  0  0  0  0  0  0
   -4.5594    0.0218   -1.4960 H   0  0  0  0  0  0  0  0  0  0  0  0
  1 10  1  0  0  0  0
  1 21  1  0  0  0  0
  2 19  1  0  0  0  0
  2 23  1  0  0  0  0
  3 17  1  0  0  0  0
  3 48  1  0  0  0  0
  4 18  1  0  0  0  0
  4 49  1  0  0  0  0
  5 21  2  0  0  0  0
  6 22  1  0  0  0  0
  6 53  1  0  0  0  0
  7 23  2  0  0  0  0
  8  9  1  0  0  0  0
  8 12  1  0  0  0  0
  8 14  1  0  0  0  0
  9 10  1  0  0  0  0
  9 13  1  0  0  0  0
  9 27  1  0  0  0  0
 10 11  1  0  0  0  0
 10 28  1  0  0  0  0
 11 12  1  0  0  0  0
 11 29  1  0  0  0  0
 11 30  1  0  0  0  0
 12 31  1  0  0  0  0
 12 32  1  0  0  0  0
 13 16  2  0  0  0  0
 13 19  1  0  0  0  0
 14 16  1  0  0  0  0
 14 33  1  0  0  0  0
 14 34  1  0  0  0  0
 15 17  1  0  0  0  0
 15 20  1  0  0  0  0
 15 21  1  0  0  0  0
 15 35  1  0  0  0  0
 16 36  1  0  0  0  0
 17 18  1  0  0  0  0
 17 37  1  0  0  0  0
 18 22  1  0  0  0  0
 18 23  1  0  0  0  0
 19 38  1  0  0  0  0
 19 39  1  0  0  0  0
 20 24  1  0  0  0  0
 20 25  1  0  0  0  0
 20 40  1  0  0  0  0
 22 26  1  0  0  0  0
 22 41  1  0  0  0  0
 24 42  1  0  0  0  0
 24 43  1  0  0  0  0
 24 44  1  0  0  0  0
 25 45  1  0  0  0  0
 25 46  1  0  0  0  0
 25 47  1  0  0  0  0
 26 50  1  0  0  0  0
 26 51  1  0  0  0  0
 26 52  1  0  0  0  0
M  END
> <PUBCHEM_COMPOUND_CID>
134715003

> <PUBCHEM_CONFORMER_RMSD>
0.8

> <PUBCHEM_CONFORMER_DIVERSEORDER>
1
2
7
3
4
5
6

> <PUBCHEM_MMFF94_PARTIAL_CHARGES>
25
1 -0.43
10 0.28
12 0.27
13 -0.28
14 0.41
15 0.06
16 -0.29
17 0.28
18 0.34
19 0.42
2 -0.43
21 0.66
22 0.28
23 0.66
3 -0.68
36 0.15
4 -0.68
48 0.4
49 0.4
5 -0.57
53 0.4
6 -0.68
7 -0.57
8 -0.81
9 0.41

> <PUBCHEM_EFFECTIVE_ROTOR_COUNT>
3.8

> <PUBCHEM_PHARMACOPHORE_FEATURES>
12
1 3 acceptor
1 3 donor
1 4 acceptor
1 4 donor
1 5 acceptor
1 6 acceptor
1 6 donor
1 7 acceptor
1 8 cation
3 20 24 25 hydrophobe
5 8 9 10 11 12 rings
5 8 9 13 14 16 rings

> <PUBCHEM_HEAVY_ATOM_COUNT>
26

> <PUBCHEM_ATOM_DEF_STEREO_COUNT>
6

> <PUBCHEM_ATOM_UDEF_STEREO_COUNT>
0

> <PUBCHEM_BOND_DEF_STEREO_COUNT>
0

> <PUBCHEM_BOND_UDEF_STEREO_COUNT>
0

> <PUBCHEM_ISOTOPIC_ATOM_COUNT>
0

> <PUBCHEM_COMPONENT_COUNT>
1

> <PUBCHEM_CACTVS_TAUTO_COUNT>
1

> <PUBCHEM_CONFORMER_ID>
0807967B00000001

> <PUBCHEM_MMFF94_ENERGY>
67.0195

> <PUBCHEM_FEATURE_SELFOVERLAP>
61.242

> <PUBCHEM_SHAPE_FINGERPRINT>
10366900 7 18060696191671371080
10863032 1 18201710743538902341
11370993 70 18342444929138239104
11578080 2 17056385949815723563
11680986 33 18412548729894836958
12011746 2 18340486643542917068
12077114 3 18334856125705614092
12156800 1 16831709428376196311
12422481 6 18046379489726611987
12553582 1 17689165929319095666
12592029 89 18263641754439829729
12633257 1 18341610357305930072
13140716 1 18411710884533128466
14178342 30 18190168165476657722
14223421 5 18266182927390122894
14787075 74 18271792562953559671
16728300 4 17027388181463934290
16945 1 18338813246642661364
17349148 13 18340195358312197965
18981168 100 16772417147541916030
192875 21 18057595469695530180
19930381 70 18120650228039259683
20600515 1 17979104624981794566
20691752 17 18263649459120561477
20905425 154 17978524344260378974
21421861 104 17755601668911856211
2334 1 18267593583438805894
23419403 2 15118980533746991177
23558518 356 18127702525737470169
23559900 14 18270956843895957402
2748010 2 18270415986811214902
2818148 4 17691175695109502214
3380486 145 18122634017962119993
35225 105 17460344159259672962
4340502 62 18127436504954632033
70251023 43 17115508442762688559
81228 2 18190195661562231923
9709674 26 18341048601047435452
9981440 41 17843372293776034458

> <PUBCHEM_SHAPE_MULTIPOLES>
489
6.18
3.97
1.55
2.42
2.2
-0.09
-1.31
-0.53
-2.24
-0.27
-0.35
0.12
1

> <PUBCHEM_SHAPE_SELFOVERLAP>
1034.275

> <PUBCHEM_SHAPE_VOLUME>
273.6

> <PUBCHEM_COORDINATE_TYPE>
2
5
10

$$$$
