13479156
  -OEChem-03292013303D

 50 51  0     1  0  0  0  0  0999 V2000
   -1.2734    3.0981    0.0443 S   0  0  0  0  0  0  0  0  0  0  0  0
   -0.2974    1.2914    0.0149 S   0  0  0  0  0  0  0  0  0  0  0  0
   -4.0847    2.2576   -2.3137 O   0  0  0  0  0  0  0  0  0  0  0  0
    1.0268   -2.0890    0.9893 O   0  0  0  0  0  0  0  0  0  0  0  0
   -4.7844    3.9569   -0.9858 O   0  0  0  0  0  0  0  0  0  0  0  0
   -0.2193   -1.3091    2.7154 O   0  0  0  0  0  0  0  0  0  0  0  0
   -4.2382   -0.4954    1.4685 O   0  0  0  0  0  0  0  0  0  0  0  0
    4.1431    1.2574    1.9885 O   0  0  0  0  0  0  0  0  0  0  0  0
   -3.4281    0.6684   -0.3666 N   0  0  0  0  0  0  0  0  0  0  0  0
    2.5793   -0.0117    0.8386 N   0  0  0  0  0  0  0  0  0  0  0  0
   -3.8545    1.9775    0.0612 C   0  0  1  0  0  0  0  0  0  0  0  0
    1.5141    0.1190    1.8014 C   0  0  1  0  0  0  0  0  0  0  0  0
   -2.8035    2.6644    0.9367 C   0  0  0  0  0  0  0  0  0  0  0  0
    0.6619    1.3648    1.5470 C   0  0  0  0  0  0  0  0  0  0  0  0
   -4.2877    2.8440   -1.1097 C   0  0  0  0  0  0  0  0  0  0  0  0
    0.6763   -1.1454    1.8956 C   0  0  0  0  0  0  0  0  0  0  0  0
   -3.6598   -0.4747    0.3852 C   0  0  0  0  0  0  0  0  0  0  0  0
    3.8228    0.5778    1.0168 C   0  0  0  0  0  0  0  0  0  0  0  0
   -3.1343   -1.7436   -0.1813 C   0  0  0  0  0  0  0  0  0  0  0  0
    4.8041    0.3709   -0.0793 C   0  0  0  0  0  0  0  0  0  0  0  0
   -2.7996   -2.7999    0.6661 C   0  0  0  0  0  0  0  0  0  0  0  0
    5.8113    1.3103   -0.3003 C   0  0  0  0  0  0  0  0  0  0  0  0
   -2.9761   -1.8791   -1.5606 C   0  0  0  0  0  0  0  0  0  0  0  0
    4.7185   -0.7630   -0.8872 C   0  0  0  0  0  0  0  0  0  0  0  0
   -2.3064   -3.9913    0.1344 C   0  0  0  0  0  0  0  0  0  0  0  0
    6.7327    1.1160   -1.3293 C   0  0  0  0  0  0  0  0  0  0  0  0
   -2.4830   -3.0707   -2.0922 C   0  0  0  0  0  0  0  0  0  0  0  0
    5.6401   -0.9573   -1.9161 C   0  0  0  0  0  0  0  0  0  0  0  0
   -2.1481   -4.1267   -1.2447 C   0  0  0  0  0  0  0  0  0  0  0  0
    6.6473   -0.0177   -2.1370 C   0  0  0  0  0  0  0  0  0  0  0  0
   -4.7600    1.8341    0.6652 H   0  0  0  0  0  0  0  0  0  0  0  0
    1.9893    0.2258    2.7854 H   0  0  0  0  0  0  0  0  0  0  0  0
   -2.5589    2.0593    1.8169 H   0  0  0  0  0  0  0  0  0  0  0  0
   -3.2145    3.6088    1.3116 H   0  0  0  0  0  0  0  0  0  0  0  0
    1.3074    2.2499    1.5139 H   0  0  0  0  0  0  0  0  0  0  0  0
   -0.0402    1.4893    2.3791 H   0  0  0  0  0  0  0  0  0  0  0  0
   -2.8735    0.6233   -1.2149 H   0  0  0  0  0  0  0  0  0  0  0  0
    2.3572   -0.4944   -0.0256 H   0  0  0  0  0  0  0  0  0  0  0  0
   -2.9106   -2.7120    1.7437 H   0  0  0  0  0  0  0  0  0  0  0  0
    5.8921    2.2022    0.3154 H   0  0  0  0  0  0  0  0  0  0  0  0
   -3.2532   -1.0938   -2.2574 H   0  0  0  0  0  0  0  0  0  0  0  0
    3.9701   -1.5339   -0.7298 H   0  0  0  0  0  0  0  0  0  0  0  0
   -2.0438   -4.8130    0.7943 H   0  0  0  0  0  0  0  0  0  0  0  0
    7.5165    1.8477   -1.5019 H   0  0  0  0  0  0  0  0  0  0  0  0
   -2.3660   -3.1792   -3.1665 H   0  0  0  0  0  0  0  0  0  0  0  0
    5.5785   -1.8435   -2.5410 H   0  0  0  0  0  0  0  0  0  0  0  0
   -1.7651   -5.0548   -1.6587 H   0  0  0  0  0  0  0  0  0  0  0  0
    7.3658   -0.1699   -2.9371 H   0  0  0  0  0  0  0  0  0  0  0  0
   -4.3769    2.8303   -3.0546 H   0  0  0  0  0  0  0  0  0  0  0  0
    0.4790   -2.8984    1.0717 H   0  0  0  0  0  0  0  0  0  0  0  0
  1  2  1  0  0  0  0
  1 13  1  0  0  0  0
  2 14  1  0  0  0  0
  3 15  1  0  0  0  0
  3 49  1  0  0  0  0
  4 16  1  0  0  0  0
  4 50  1  0  0  0  0
  5 15  2  0  0  0  0
  6 16  2  0  0  0  0
  7 17  2  0  0  0  0
  8 18  2  0  0  0  0
  9 11  1  0  0  0  0
  9 17  1  0  0  0  0
  9 37  1  0  0  0  0
 10 12  1  0  0  0  0
 10 18  1  0  0  0  0
 10 38  1  0  0  0  0
 11 13  1  0  0  0  0
 11 15  1  0  0  0  0
 11 31  1  0  0  0  0
 12 14  1  0  0  0  0
 12 16  1  0  0  0  0
 12 32  1  0  0  0  0
 13 33  1  0  0  0  0
 13 34  1  0  0  0  0
 14 35  1  0  0  0  0
 14 36  1  0  0  0  0
 17 19  1  0  0  0  0
 18 20  1  0  0  0  0
 19 21  2  0  0  0  0
 19 23  1  0  0  0  0
 20 22  2  0  0  0  0
 20 24  1  0  0  0  0
 21 25  1  0  0  0  0
 21 39  1  0  0  0  0
 22 26  1  0  0  0  0
 22 40  1  0  0  0  0
 23 27  2  0  0  0  0
 23 41  1  0  0  0  0
 24 28  2  0  0  0  0
 24 42  1  0  0  0  0
 25 29  2  0  0  0  0
 25 43  1  0  0  0  0
 26 30  2  0  0  0  0
 26 44  1  0  0  0  0
 27 29  1  0  0  0  0
 27 45  1  0  0  0  0
 28 30  1  0  0  0  0
 28 46  1  0  0  0  0
 29 47  1  0  0  0  0
 30 48  1  0  0  0  0
M  END
> <PUBCHEM_COMPOUND_CID>
13479156

> <PUBCHEM_CONFORMER_RMSD>
1.2

> <PUBCHEM_CONFORMER_DIVERSEORDER>
1
47
9
65
86
32
92
95
11
93
82
63
44
8
69
4
70
66
43
5
94
6
2
85
58
24
28
23
46
71
18
76
45
33
79
62
91
38
39
99
68
26
27
14
29
49
74
75
16
50
59
52
81
3
64
53
61
35
89
10
7
90
97
84
30
40
25
72
78
51
31
88
55
36
80
22
20
42
57
12
60
56
87
13
54
19
37
77
21
98
67
73
83
17
41
96
48
15
34

> <PUBCHEM_MMFF94_PARTIAL_CHARGES>
44
1 -0.23
10 -0.73
11 0.36
12 0.36
13 0.23
14 0.23
15 0.66
16 0.66
17 0.54
18 0.54
19 0.09
2 -0.23
20 0.09
21 -0.15
22 -0.15
23 -0.15
24 -0.15
25 -0.15
26 -0.15
27 -0.15
28 -0.15
29 -0.15
3 -0.65
30 -0.15
37 0.37
38 0.37
39 0.15
4 -0.65
40 0.15
41 0.15
42 0.15
43 0.15
44 0.15
45 0.15
46 0.15
47 0.15
48 0.15
49 0.5
5 -0.57
50 0.5
6 -0.57
7 -0.57
8 -0.57
9 -0.73

> <PUBCHEM_EFFECTIVE_ROTOR_COUNT>
13

> <PUBCHEM_PHARMACOPHORE_FEATURES>
13
1 10 donor
1 3 acceptor
1 4 acceptor
1 5 acceptor
1 6 acceptor
1 7 acceptor
1 8 acceptor
1 9 donor
3 3 5 15 anion
3 4 6 16 anion
4 1 2 13 14 hydrophobe
6 19 21 23 25 27 29 rings
6 20 22 24 26 28 30 rings

> <PUBCHEM_HEAVY_ATOM_COUNT>
30

> <PUBCHEM_ATOM_DEF_STEREO_COUNT>
2

> <PUBCHEM_ATOM_UDEF_STEREO_COUNT>
0

> <PUBCHEM_BOND_DEF_STEREO_COUNT>
0

> <PUBCHEM_BOND_UDEF_STEREO_COUNT>
0

> <PUBCHEM_ISOTOPIC_ATOM_COUNT>
0

> <PUBCHEM_COMPONENT_COUNT>
1

> <PUBCHEM_CACTVS_TAUTO_COUNT>
3

> <PUBCHEM_CONFORMER_ID>
00CDACF400000001

> <PUBCHEM_MMFF94_ENERGY>
62.3383

> <PUBCHEM_FEATURE_SELFOVERLAP>
66.091

> <PUBCHEM_SHAPE_FINGERPRINT>
11014199 57 17907291410051151491
13383661 66 16553931117412232423
1361 87 17846504725252730548
13690498 29 18270684301966250902
13944108 23 17185871693208234565
14114206 34 17970609999867043895
14114211 80 18128261086914114833
14251757 5 18413110575693659263
14840074 17 17604435085208068501
14856354 85 17677350405895085491
14910302 57 17846212310587959738
14930077 153 18117298023877454924
15131766 46 16008753536660875604
15484559 13 14429331179782532660
15575132 122 18333730191861032733
17909252 39 17911520118891808176
19958102 18 18128541475037324308
21033650 10 18260270793528180122
22393880 68 18273214227246573826
22849339 104 18341322358115699437
2838139 119 17167869673379789412
3610482 184 18113345227824820054
4015057 19 16845281756970366297
4058900 60 17980765931159448345
437795 70 17986367062650463007
44249763 50 18261663831737780276
484985 159 16486983924750548639
508706 21 18200589314677574254
5265222 85 18410856530203604181
5283173 99 18338240466015274426
6898599 12 18334577940516246725
7288768 16 17095247990694164499

> <PUBCHEM_SHAPE_MULTIPOLES>
579.91
14.28
4.8
2.28
25.15
1.59
-0.16
-4.19
8.49
-9.53
1.78
0.73
0.33
1.45

> <PUBCHEM_SHAPE_SELFOVERLAP>
1186.113

> <PUBCHEM_SHAPE_VOLUME>
334.7

> <PUBCHEM_COORDINATE_TYPE>
2
5
10

$$$$
