134715584
  -OEChem-03292013293D

 58 59  0     1  0  0  0  0  0999 V2000
   -3.6277    1.7961    0.8834 Cl  0  0  0  0  0  0  0  0  0  0  0  0
    1.6626   -3.8677   -1.5791 O   0  0  0  0  0  0  0  0  0  0  0  0
    4.8019   -2.3194    1.1630 O   0  0  0  0  0  0  0  0  0  0  0  0
    4.7288    3.0939   -0.3608 O   0  0  0  0  0  0  0  0  0  0  0  0
    1.3003    3.0974    0.8164 O   0  0  0  0  0  0  0  0  0  0  0  0
   -5.7242   -1.4047   -2.0082 O   0  0  0  0  0  0  0  0  0  0  0  0
   -6.4449   -1.2180    0.1350 O   0  0  0  0  0  0  0  0  0  0  0  0
    2.0520   -2.1687    0.1619 C   0  0  2  0  0  0  0  0  0  0  0  0
    3.2180   -1.3372   -0.4049 C   0  0  2  0  0  0  0  0  0  0  0  0
    2.3480   -3.5881   -0.3636 C   0  0  2  0  0  0  0  0  0  0  0  0
    4.4121   -2.2808   -0.2081 C   0  0  2  0  0  0  0  0  0  0  0  0
    3.8658   -3.6529   -0.6088 C   0  0  0  0  0  0  0  0  0  0  0  0
    0.6729   -1.6332   -0.2065 C   0  0  0  0  0  0  0  0  0  0  0  0
    3.4012    0.0023    0.2322 C   0  0  0  0  0  0  0  0  0  0  0  0
   -0.5129   -2.4140    0.2889 C   0  0  0  0  0  0  0  0  0  0  0  0
    3.3724    1.1605   -0.4433 C   0  0  0  0  0  0  0  0  0  0  0  0
    3.5571    2.5066    0.1992 C   0  0  2  0  0  0  0  0  0  0  0  0
   -1.4641   -1.9934    1.1365 C   0  0  0  0  0  0  0  0  0  0  0  0
   -2.6243   -2.8408    1.5712 C   0  0  0  0  0  0  0  0  0  0  0  0
    2.3654    3.4236   -0.0641 C   0  0  0  0  0  0  0  0  0  0  0  0
   -3.9919   -2.2492    1.2029 C   0  0  0  0  0  0  0  0  0  0  0  0
   -4.2048   -2.0664   -0.3029 C   0  0  0  0  0  0  0  0  0  0  0  0
    0.0279    3.3354    0.3642 C   0  0  0  0  0  0  0  0  0  0  0  0
   -5.5649   -1.5095   -0.6631 C   0  0  0  0  0  0  0  0  0  0  0  0
   -1.0290    2.5379    0.8032 C   0  0  0  0  0  0  0  0  0  0  0  0
   -0.2096    4.3749   -0.5353 C   0  0  0  0  0  0  0  0  0  0  0  0
   -2.3234    2.7799    0.3430 C   0  0  0  0  0  0  0  0  0  0  0  0
   -1.5039    4.6166   -0.9957 C   0  0  0  0  0  0  0  0  0  0  0  0
   -2.5609    3.8193   -0.5564 C   0  0  0  0  0  0  0  0  0  0  0  0
    2.1353   -2.1896    1.2588 H   0  0  0  0  0  0  0  0  0  0  0  0
    3.0608   -1.2131   -1.4866 H   0  0  0  0  0  0  0  0  0  0  0  0
    2.0346   -4.3376    0.3716 H   0  0  0  0  0  0  0  0  0  0  0  0
    5.2810   -1.9870   -0.8058 H   0  0  0  0  0  0  0  0  0  0  0  0
    4.0773   -3.8471   -1.6667 H   0  0  0  0  0  0  0  0  0  0  0  0
    4.3164   -4.4569   -0.0171 H   0  0  0  0  0  0  0  0  0  0  0  0
    0.5834   -1.5492   -1.2974 H   0  0  0  0  0  0  0  0  0  0  0  0
    0.5890   -0.6039    0.1668 H   0  0  0  0  0  0  0  0  0  0  0  0
    3.5507    0.0278    1.3091 H   0  0  0  0  0  0  0  0  0  0  0  0
    1.9039   -4.7703   -1.8489 H   0  0  0  0  0  0  0  0  0  0  0  0
    5.5402   -2.9479    1.2380 H   0  0  0  0  0  0  0  0  0  0  0  0
   -0.6018   -3.4231   -0.1090 H   0  0  0  0  0  0  0  0  0  0  0  0
    3.2221    1.1435   -1.5205 H   0  0  0  0  0  0  0  0  0  0  0  0
    3.7149    2.4093    1.2799 H   0  0  0  0  0  0  0  0  0  0  0  0
   -1.4041   -0.9891    1.5474 H   0  0  0  0  0  0  0  0  0  0  0  0
   -2.5737   -2.9551    2.6607 H   0  0  0  0  0  0  0  0  0  0  0  0
   -2.5480   -3.8509    1.1500 H   0  0  0  0  0  0  0  0  0  0  0  0
    2.0817    3.3398   -1.1226 H   0  0  0  0  0  0  0  0  0  0  0  0
    2.6610    4.4647    0.1180 H   0  0  0  0  0  0  0  0  0  0  0  0
   -4.7751   -2.9072    1.6003 H   0  0  0  0  0  0  0  0  0  0  0  0
   -4.1211   -1.2844    1.7092 H   0  0  0  0  0  0  0  0  0  0  0  0
    5.4832    2.5223   -0.1361 H   0  0  0  0  0  0  0  0  0  0  0  0
   -4.0963   -3.0354   -0.8033 H   0  0  0  0  0  0  0  0  0  0  0  0
   -3.4568   -1.3757   -0.7069 H   0  0  0  0  0  0  0  0  0  0  0  0
   -0.8345    1.7290    1.5036 H   0  0  0  0  0  0  0  0  0  0  0  0
    0.5789    5.0377   -0.8791 H   0  0  0  0  0  0  0  0  0  0  0  0
   -6.6121   -1.0616   -2.2455 H   0  0  0  0  0  0  0  0  0  0  0  0
   -1.6904    5.4300   -1.6909 H   0  0  0  0  0  0  0  0  0  0  0  0
   -3.5644    4.0204   -0.9226 H   0  0  0  0  0  0  0  0  0  0  0  0
  1 27  1  0  0  0  0
  2 10  1  0  0  0  0
  2 39  1  0  0  0  0
  3 11  1  0  0  0  0
  3 40  1  0  0  0  0
  4 17  1  0  0  0  0
  4 51  1  0  0  0  0
  5 20  1  0  0  0  0
  5 23  1  0  0  0  0
  6 24  1  0  0  0  0
  6 56  1  0  0  0  0
  7 24  2  0  0  0  0
  8  9  1  0  0  0  0
  8 10  1  0  0  0  0
  8 13  1  0  0  0  0
  8 30  1  0  0  0  0
  9 11  1  0  0  0  0
  9 14  1  0  0  0  0
  9 31  1  0  0  0  0
 10 12  1  0  0  0  0
 10 32  1  0  0  0  0
 11 12  1  0  0  0  0
 11 33  1  0  0  0  0
 12 34  1  0  0  0  0
 12 35  1  0  0  0  0
 13 15  1  0  0  0  0
 13 36  1  0  0  0  0
 13 37  1  0  0  0  0
 14 16  2  0  0  0  0
 14 38  1  0  0  0  0
 15 18  2  0  0  0  0
 15 41  1  0  0  0  0
 16 17  1  0  0  0  0
 16 42  1  0  0  0  0
 17 20  1  0  0  0  0
 17 43  1  0  0  0  0
 18 19  1  0  0  0  0
 18 44  1  0  0  0  0
 19 21  1  0  0  0  0
 19 45  1  0  0  0  0
 19 46  1  0  0  0  0
 20 47  1  0  0  0  0
 20 48  1  0  0  0  0
 21 22  1  0  0  0  0
 21 49  1  0  0  0  0
 21 50  1  0  0  0  0
 22 24  1  0  0  0  0
 22 52  1  0  0  0  0
 22 53  1  0  0  0  0
 23 25  2  0  0  0  0
 23 26  1  0  0  0  0
 25 27  1  0  0  0  0
 25 54  1  0  0  0  0
 26 28  2  0  0  0  0
 26 55  1  0  0  0  0
 27 29  2  0  0  0  0
 28 29  1  0  0  0  0
 28 57  1  0  0  0  0
 29 58  1  0  0  0  0
M  END
> <PUBCHEM_COMPOUND_CID>
134715584

> <PUBCHEM_CONFORMER_RMSD>
1.4

> <PUBCHEM_CONFORMER_DIVERSEORDER>
1
142
118
130
6
53
35
117
86
129
157
69
131
115
134
137
41
96
133
111
82
32
63
23
112
8
158
139
92
72
47
166
145
58
97
31
39
73
113
151
3
109
21
88
46
147
98
140
2
5
11
66
27
19
107
94
70
15
42
165
28
162
74
4
76
148
83
126
155
102
62
136
116
43
18
103
120
33
132
156
54
44
17
22
71
101
99
150
67
105
48
52
51
34
159
36
114
95
13
14
164
91
108
45
90
84
110
124
161
77
121
127
55
16
163
64
59
61
104
135
160
65
10
122
123
12
37
153
68
9
38
29
85
56
24
146
152
154
40
106
100
80
128
7
119
75
89
81
87
149
141
125
30
57
25
50
60
26
78
138
144
20
143
79
93
49

> <PUBCHEM_MMFF94_PARTIAL_CHARGES>
38
1 -0.18
10 0.28
11 0.28
13 0.14
14 -0.29
15 -0.29
16 -0.29
17 0.42
18 -0.29
19 0.14
2 -0.68
20 0.28
22 0.06
23 0.08
24 0.66
25 -0.15
26 -0.15
27 0.18
28 -0.15
29 -0.15
3 -0.68
38 0.15
39 0.4
4 -0.68
40 0.4
41 0.15
42 0.15
44 0.15
5 -0.36
51 0.4
54 0.15
55 0.15
56 0.5
57 0.15
58 0.15
6 -0.65
7 -0.57
9 0.14

> <PUBCHEM_EFFECTIVE_ROTOR_COUNT>
12

> <PUBCHEM_PHARMACOPHORE_FEATURES>
13
1 2 acceptor
1 2 donor
1 3 acceptor
1 3 donor
1 4 acceptor
1 4 donor
1 5 acceptor
1 6 acceptor
1 7 acceptor
3 6 7 24 anion
4 18 19 21 22 hydrophobe
5 8 9 10 11 12 rings
6 23 25 26 27 28 29 rings

> <PUBCHEM_HEAVY_ATOM_COUNT>
29

> <PUBCHEM_ATOM_DEF_STEREO_COUNT>
4

> <PUBCHEM_ATOM_UDEF_STEREO_COUNT>
1

> <PUBCHEM_BOND_DEF_STEREO_COUNT>
2

> <PUBCHEM_BOND_UDEF_STEREO_COUNT>
0

> <PUBCHEM_ISOTOPIC_ATOM_COUNT>
0

> <PUBCHEM_COMPONENT_COUNT>
1

> <PUBCHEM_CACTVS_TAUTO_COUNT>
1

> <PUBCHEM_CONFORMER_ID>
080798C000000001

> <PUBCHEM_MMFF94_ENERGY>
61.8857

> <PUBCHEM_FEATURE_SELFOVERLAP>
66.032

> <PUBCHEM_SHAPE_FINGERPRINT>
10074138 170 17758363346675740338
1100329 8 18193843630388900409
11513181 2 18130519577727860439
12788726 201 18189893128519417003
1361 2 17908695482241841791
15320467 1 18266462190316322817
15475509 84 18334571326825461554
15483637 11 18265615386006184813
161222 619 16897113547644376241
19311894 1 17618500982853816327
20764821 26 18337404754872393585
20775438 99 17907537460248323221
21133410 38 18201174221162617721
21344244 246 18124020489857697431
325973 47 18410577279623852543
373842 8 18337383933271693920
45266715 3 17052156180619453857
463206 1 18124026828232563005
550186 83 17390763902580162713

> <PUBCHEM_SHAPE_MULTIPOLES>
563.46
11.15
8.04
1.2
6.99
5.88
0.11
-8.46
1.76
-0.47
1.02
0.99
-0.67
0.64

> <PUBCHEM_SHAPE_SELFOVERLAP>
1139.614

> <PUBCHEM_SHAPE_VOLUME>
327.4

> <PUBCHEM_COORDINATE_TYPE>
2
5
10

$$$$
