134715239
  -OEChem-03292013293D

 51 56  0     1  0  0  0  0  0999 V2000
   -0.2887   -0.0686    1.6346 O   0  0  0  0  0  0  0  0  0  0  0  0
   -0.3283   -2.7573   -0.4852 O   0  0  0  0  0  0  0  0  0  0  0  0
    1.5767    1.5975    1.6059 O   0  0  0  0  0  0  0  0  0  0  0  0
   -1.0250    0.2726   -2.9953 O   0  0  0  0  0  0  0  0  0  0  0  0
   -3.6769    0.7022   -1.2543 O   0  0  0  0  0  0  0  0  0  0  0  0
    0.9583    2.4904   -1.4050 O   0  0  0  0  0  0  0  0  0  0  0  0
   -1.2984   -2.9106    1.5819 O   0  0  0  0  0  0  0  0  0  0  0  0
    3.1397    3.0099    0.6528 O   0  0  0  0  0  0  0  0  0  0  0  0
   -5.2636    1.3986    0.2631 O   0  0  0  0  0  0  0  0  0  0  0  0
   -0.1908   -0.3771   -0.7691 C   0  0  2  0  0  0  0  0  0  0  0  0
    1.0636    0.3205   -0.2353 C   0  0  2  0  0  0  0  0  0  0  0  0
   -0.9335   -0.7442    0.5512 C   0  0  2  0  0  0  0  0  0  0  0  0
    2.0367   -0.8882    0.0367 C   0  0  1  0  0  0  0  0  0  0  0  0
    0.2408   -1.7364   -1.3260 C   0  0  1  0  0  0  0  0  0  0  0  0
   -1.2197    0.4271   -1.6016 C   0  0  2  0  0  0  0  0  0  0  0  0
    0.4688    0.9621    1.0010 C   0  0  1  0  0  0  0  0  0  0  0  0
    1.7588   -1.7799   -1.1801 C   0  0  0  0  0  0  0  0  0  0  0  0
    1.7874    1.5413   -0.7759 C   0  0  2  0  0  0  0  0  0  0  0  0
   -2.3288   -0.3091    0.2718 C   0  0  0  0  0  0  0  0  0  0  0  0
   -2.5570   -0.1643   -1.1777 C   0  0  1  0  0  0  0  0  0  0  0  0
    3.5354   -0.6496    0.2002 C   0  0  0  0  0  0  0  0  0  0  0  0
   -0.8839   -2.2416    0.6477 C   0  0  0  0  0  0  0  0  0  0  0  0
    2.2731    2.1568    0.5410 C   0  0  0  0  0  0  0  0  0  0  0  0
   -3.3073    0.2230    0.9945 C   0  0  0  0  0  0  0  0  0  0  0  0
    3.7942    0.1912    1.4621 C   0  0  0  0  0  0  0  0  0  0  0  0
    4.2659   -1.9971    0.3328 C   0  0  0  0  0  0  0  0  0  0  0  0
    4.0802    0.1012   -1.0271 C   0  0  0  0  0  0  0  0  0  0  0  0
   -4.2186    0.8262    0.0019 C   0  0  0  0  0  0  0  0  0  0  0  0
   -3.4591    0.4035    2.4535 C   0  0  0  0  0  0  0  0  0  0  0  0
    1.7026   -1.4290    0.9336 H   0  0  0  0  0  0  0  0  0  0  0  0
   -0.0686   -1.9355   -2.3554 H   0  0  0  0  0  0  0  0  0  0  0  0
   -1.2137    1.4991   -1.3811 H   0  0  0  0  0  0  0  0  0  0  0  0
   -0.2558    1.7610    0.7796 H   0  0  0  0  0  0  0  0  0  0  0  0
    2.1895   -1.4091   -2.1111 H   0  0  0  0  0  0  0  0  0  0  0  0
    2.0966   -2.8093   -1.0252 H   0  0  0  0  0  0  0  0  0  0  0  0
    2.4927    1.3627   -1.5574 H   0  0  0  0  0  0  0  0  0  0  0  0
   -2.7865   -1.1083   -1.6842 H   0  0  0  0  0  0  0  0  0  0  0  0
   -0.1288    0.5904   -3.1989 H   0  0  0  0  0  0  0  0  0  0  0  0
    4.2515    1.1724   -0.8878 H   0  0  0  0  0  0  0  0  0  0  0  0
    3.6392   -0.1296   -1.9972 H   0  0  0  0  0  0  0  0  0  0  0  0
    3.0219    0.1049    2.2284 H   0  0  0  0  0  0  0  0  0  0  0  0
    4.2043    1.1854    1.3166 H   0  0  0  0  0  0  0  0  0  0  0  0
    4.6468   -0.2680    1.9900 H   0  0  0  0  0  0  0  0  0  0  0  0
    5.1203   -0.2356   -1.1712 H   0  0  0  0  0  0  0  0  0  0  0  0
    3.8321   -2.6079    1.1326 H   0  0  0  0  0  0  0  0  0  0  0  0
    4.2400   -2.5789   -0.5944 H   0  0  0  0  0  0  0  0  0  0  0  0
    5.3269   -1.8526    0.5709 H   0  0  0  0  0  0  0  0  0  0  0  0
    1.5112    3.2481   -1.6623 H   0  0  0  0  0  0  0  0  0  0  0  0
   -3.4885    1.4671    2.7094 H   0  0  0  0  0  0  0  0  0  0  0  0
   -2.6351   -0.0554    3.0078 H   0  0  0  0  0  0  0  0  0  0  0  0
   -4.3889   -0.0600    2.7980 H   0  0  0  0  0  0  0  0  0  0  0  0
  1 12  1  0  0  0  0
  1 16  1  0  0  0  0
  2 14  1  0  0  0  0
  2 22  1  0  0  0  0
  3 16  1  0  0  0  0
  3 23  1  0  0  0  0
  4 15  1  0  0  0  0
  4 38  1  0  0  0  0
  5 20  1  0  0  0  0
  5 28  1  0  0  0  0
  6 18  1  0  0  0  0
  6 48  1  0  0  0  0
  7 22  2  0  0  0  0
  8 23  2  0  0  0  0
  9 28  2  0  0  0  0
 10 11  1  0  0  0  0
 10 12  1  0  0  0  0
 10 14  1  0  0  0  0
 10 15  1  0  0  0  0
 11 13  1  0  0  0  0
 11 16  1  0  0  0  0
 11 18  1  0  0  0  0
 12 19  1  0  0  0  0
 12 22  1  0  0  0  0
 13 17  1  0  0  0  0
 13 21  1  0  0  0  0
 13 30  1  0  0  0  0
 14 17  1  0  0  0  0
 14 31  1  0  0  0  0
 15 20  1  0  0  0  0
 15 32  1  0  0  0  0
 16 33  1  0  0  0  0
 17 34  1  0  0  0  0
 17 35  1  0  0  0  0
 18 23  1  0  0  0  0
 18 36  1  0  0  0  0
 19 20  1  0  0  0  0
 19 24  2  0  0  0  0
 20 37  1  0  0  0  0
 21 25  1  0  0  0  0
 21 26  1  0  0  0  0
 21 27  1  0  0  0  0
 24 28  1  0  0  0  0
 24 29  1  0  0  0  0
 25 41  1  0  0  0  0
 25 42  1  0  0  0  0
 25 43  1  0  0  0  0
 26 45  1  0  0  0  0
 26 46  1  0  0  0  0
 26 47  1  0  0  0  0
 27 39  1  0  0  0  0
 27 40  1  0  0  0  0
 27 44  1  0  0  0  0
 29 49  1  0  0  0  0
 29 50  1  0  0  0  0
 29 51  1  0  0  0  0
M  END
> <PUBCHEM_COMPOUND_CID>
134715239

> <PUBCHEM_CONFORMER_RMSD>
0.8

> <PUBCHEM_CONFORMER_DIVERSEORDER>
1

> <PUBCHEM_MMFF94_PARTIAL_CHARGES>
23
1 -0.56
12 0.48
14 0.28
15 0.28
16 0.56
18 0.34
19 -0.28
2 -0.43
20 0.42
22 0.66
23 0.66
24 -0.12
28 0.71
29 0.14
3 -0.43
38 0.4
4 -0.68
48 0.4
5 -0.43
6 -0.68
7 -0.57
8 -0.57
9 -0.57

> <PUBCHEM_EFFECTIVE_ROTOR_COUNT>
2.6

> <PUBCHEM_PHARMACOPHORE_FEATURES>
15
1 1 acceptor
1 4 acceptor
1 4 donor
1 6 acceptor
1 6 donor
1 7 acceptor
1 8 acceptor
1 9 acceptor
4 21 25 26 27 hydrophobe
5 1 10 11 12 16 rings
5 10 11 13 14 17 rings
5 10 12 15 19 20 rings
5 2 10 12 14 22 rings
5 3 11 16 18 23 rings
5 5 19 20 24 28 rings

> <PUBCHEM_HEAVY_ATOM_COUNT>
29

> <PUBCHEM_ATOM_DEF_STEREO_COUNT>
8

> <PUBCHEM_ATOM_UDEF_STEREO_COUNT>
1

> <PUBCHEM_BOND_DEF_STEREO_COUNT>
0

> <PUBCHEM_BOND_UDEF_STEREO_COUNT>
0

> <PUBCHEM_ISOTOPIC_ATOM_COUNT>
0

> <PUBCHEM_COMPONENT_COUNT>
1

> <PUBCHEM_CACTVS_TAUTO_COUNT>
2

> <PUBCHEM_CONFORMER_ID>
0807976700000001

> <PUBCHEM_MMFF94_ENERGY>
164.6726

> <PUBCHEM_FEATURE_SELFOVERLAP>
79.35

> <PUBCHEM_SHAPE_FINGERPRINT>
10165383 225 18114754754101626599
10863032 1 18269271429450296238
10906281 52 18200890495538588864
10948715 1 18342453798313991303
11578080 2 18191038987101996812
11640471 11 17346597503748981224
12011746 2 18130233662203280094
12035758 1 18334007277006634008
12236239 1 17346591937814218111
12422481 6 17127331576736833722
12633257 1 18260824908301207330
13134695 92 18410853222825130268
13140716 1 18337386162401976850
13583140 156 17915177038340670433
13782708 43 18187938270170658635
14142880 1 17760350485444469117
14178342 30 17975403926398300072
14223421 5 17903642122136227490
14466204 15 18122900936899577648
1601671 61 18341618066608890524
16945 1 18059298660393443431
17349148 13 17989491805228097187
1813 80 18057895649771604806
18981168 100 18195528327168639836
20600515 1 18191047628755278398
20691752 17 18188750817109175190
21033648 29 18040428889351672061
21304253 335 17417532401931145889
23175994 123 18338802187165190806
23184049 59 18412542098359843152
23558518 356 18192145117227020015
23559900 14 16660645107836362694
350125 39 18267876170817548191
404807 14 13537168839454374708
4340502 62 18412832365852306595
474 4 18273497857995705977
5895379 119 15913066278037763008
9981440 41 16910274052528527464

> <PUBCHEM_SHAPE_MULTIPOLES>
543.98
7.23
2.57
1.94
2.38
0.15
-0.26
-1.8
1.41
-1.59
0.31
0.91
-0.12
0.3

> <PUBCHEM_SHAPE_SELFOVERLAP>
1258.125

> <PUBCHEM_SHAPE_VOLUME>
280

> <PUBCHEM_COORDINATE_TYPE>
2
5
10

$$$$
