134822
  -OEChem-03292013323D

 42 43  0     1  0  0  0  0  0999 V2000
    1.6736   -0.7930    0.0881 O   0  0  0  0  0  0  0  0  0  0  0  0
   -0.5484   -0.1216    0.3222 O   0  0  0  0  0  0  0  0  0  0  0  0
    3.0406    3.0151    0.7969 O   0  0  0  0  0  0  0  0  0  0  0  0
    0.2471    2.5679   -0.0217 O   0  0  0  0  0  0  0  0  0  0  0  0
    4.7700    1.0659   -0.4907 O   0  0  0  0  0  0  0  0  0  0  0  0
    5.0288   -1.6186   -0.5349 O   0  0  0  0  0  0  0  0  0  0  0  0
    3.3538   -2.6387    0.6269 O   0  0  0  0  0  0  0  0  0  0  0  0
    2.5751    1.9333   -0.0114 C   0  0  2  0  0  0  0  0  0  0  0  0
    1.1550    1.5549    0.4106 C   0  0  2  0  0  0  0  0  0  0  0  0
    3.5407    0.7611    0.1658 C   0  0  1  0  0  0  0  0  0  0  0  0
    0.7264    0.2278   -0.2160 C   0  0  1  0  0  0  0  0  0  0  0  0
    2.9635   -0.5108   -0.4428 C   0  0  1  0  0  0  0  0  0  0  0  0
   -1.0162   -1.3493   -0.2142 C   0  0  0  0  0  0  0  0  0  0  0  0
   -2.3867   -1.6854    0.3893 C   0  0  1  0  0  0  0  0  0  0  0  0
    3.7675   -1.7066   -0.0464 C   0  0  0  0  0  0  0  0  0  0  0  0
   -3.4114   -0.5938    0.1236 C   0  0  0  0  0  0  0  0  0  0  0  0
   -2.8785   -3.0412   -0.1249 C   0  0  0  0  0  0  0  0  0  0  0  0
   -3.3496    0.1060   -1.0648 C   0  0  0  0  0  0  0  0  0  0  0  0
   -4.3745   -0.3344    1.0782 C   0  0  0  0  0  0  0  0  0  0  0  0
   -4.2897    1.1073   -1.3088 C   0  0  0  0  0  0  0  0  0  0  0  0
   -5.3147    0.6668    0.8342 C   0  0  0  0  0  0  0  0  0  0  0  0
   -5.2722    1.3875   -0.3593 C   0  0  0  0  0  0  0  0  0  0  0  0
    2.5922    2.2929   -1.0477 H   0  0  0  0  0  0  0  0  0  0  0  0
    1.0822    1.5086    1.5037 H   0  0  0  0  0  0  0  0  0  0  0  0
    3.7671    0.6226    1.2302 H   0  0  0  0  0  0  0  0  0  0  0  0
    0.6225    0.3309   -1.3049 H   0  0  0  0  0  0  0  0  0  0  0  0
    2.9134   -0.4809   -1.5384 H   0  0  0  0  0  0  0  0  0  0  0  0
   -1.0289   -1.3191   -1.3096 H   0  0  0  0  0  0  0  0  0  0  0  0
   -0.3240   -2.1523    0.0700 H   0  0  0  0  0  0  0  0  0  0  0  0
   -2.2491   -1.7530    1.4777 H   0  0  0  0  0  0  0  0  0  0  0  0
    2.4055    3.7449    0.6979 H   0  0  0  0  0  0  0  0  0  0  0  0
    0.2966    2.6234   -0.9913 H   0  0  0  0  0  0  0  0  0  0  0  0
    4.5847    1.1858   -1.4378 H   0  0  0  0  0  0  0  0  0  0  0  0
   -2.1572   -3.8311    0.1099 H   0  0  0  0  0  0  0  0  0  0  0  0
   -3.8345   -3.3135    0.3358 H   0  0  0  0  0  0  0  0  0  0  0  0
   -3.0256   -3.0285   -1.2109 H   0  0  0  0  0  0  0  0  0  0  0  0
   -2.6216   -0.0957   -1.8413 H   0  0  0  0  0  0  0  0  0  0  0  0
   -4.4166   -0.8921    2.0090 H   0  0  0  0  0  0  0  0  0  0  0  0
    5.5741   -2.3945   -0.2838 H   0  0  0  0  0  0  0  0  0  0  0  0
   -4.2608    1.6647   -2.2405 H   0  0  0  0  0  0  0  0  0  0  0  0
   -6.0806    0.8845    1.5729 H   0  0  0  0  0  0  0  0  0  0  0  0
   -6.0052    2.1659   -0.5499 H   0  0  0  0  0  0  0  0  0  0  0  0
  1 11  1  0  0  0  0
  1 12  1  0  0  0  0
  2 11  1  0  0  0  0
  2 13  1  0  0  0  0
  3  8  1  0  0  0  0
  3 31  1  0  0  0  0
  4  9  1  0  0  0  0
  4 32  1  0  0  0  0
  5 10  1  0  0  0  0
  5 33  1  0  0  0  0
  6 15  1  0  0  0  0
  6 39  1  0  0  0  0
  7 15  2  0  0  0  0
  8  9  1  0  0  0  0
  8 10  1  0  0  0  0
  8 23  1  0  0  0  0
  9 11  1  0  0  0  0
  9 24  1  0  0  0  0
 10 12  1  0  0  0  0
 10 25  1  0  0  0  0
 11 26  1  0  0  0  0
 12 15  1  0  0  0  0
 12 27  1  0  0  0  0
 13 14  1  0  0  0  0
 13 28  1  0  0  0  0
 13 29  1  0  0  0  0
 14 16  1  0  0  0  0
 14 17  1  0  0  0  0
 14 30  1  0  0  0  0
 16 18  2  0  0  0  0
 16 19  1  0  0  0  0
 17 34  1  0  0  0  0
 17 35  1  0  0  0  0
 17 36  1  0  0  0  0
 18 20  1  0  0  0  0
 18 37  1  0  0  0  0
 19 21  2  0  0  0  0
 19 38  1  0  0  0  0
 20 22  2  0  0  0  0
 20 40  1  0  0  0  0
 21 22  1  0  0  0  0
 21 41  1  0  0  0  0
 22 42  1  0  0  0  0
M  END
> <PUBCHEM_COMPOUND_CID>
134822

> <PUBCHEM_CONFORMER_RMSD>
0.8

> <PUBCHEM_CONFORMER_DIVERSEORDER>
1
19
18
15
31
45
22
23
39
17
11
5
34
21
37
14
12
46
16
27
32
40
36
26
38
30
20
2
24
7
35
8
9
44
28
3
42
33
4
29
25
6
41
43
10
13

> <PUBCHEM_MMFF94_PARTIAL_CHARGES>
30
1 -0.56
10 0.28
11 0.56
12 0.34
13 0.28
14 0.14
15 0.66
16 -0.14
18 -0.15
19 -0.15
2 -0.56
20 -0.15
21 -0.15
22 -0.15
3 -0.68
31 0.4
32 0.4
33 0.4
37 0.15
38 0.15
39 0.5
4 -0.68
40 0.15
41 0.15
42 0.15
5 -0.68
6 -0.65
7 -0.57
8 0.28
9 0.28

> <PUBCHEM_EFFECTIVE_ROTOR_COUNT>
6.2

> <PUBCHEM_PHARMACOPHORE_FEATURES>
14
1 1 acceptor
1 17 hydrophobe
1 2 acceptor
1 3 acceptor
1 3 donor
1 4 acceptor
1 4 donor
1 5 acceptor
1 5 donor
1 6 acceptor
1 7 acceptor
3 6 7 15 anion
6 1 8 9 10 11 12 rings
6 16 18 19 20 21 22 rings

> <PUBCHEM_HEAVY_ATOM_COUNT>
22

> <PUBCHEM_ATOM_DEF_STEREO_COUNT>
5

> <PUBCHEM_ATOM_UDEF_STEREO_COUNT>
1

> <PUBCHEM_BOND_DEF_STEREO_COUNT>
0

> <PUBCHEM_BOND_UDEF_STEREO_COUNT>
0

> <PUBCHEM_ISOTOPIC_ATOM_COUNT>
0

> <PUBCHEM_COMPONENT_COUNT>
1

> <PUBCHEM_CACTVS_TAUTO_COUNT>
1

> <PUBCHEM_CONFORMER_ID>
00020EA600000001

> <PUBCHEM_MMFF94_ENERGY>
57.3804

> <PUBCHEM_FEATURE_SELFOVERLAP>
71.18

> <PUBCHEM_SHAPE_FINGERPRINT>
11089746 13 17346594205694289064
11370993 144 18408605851291304989
11405975 8 18410291432270149571
11552529 35 18057041530958230879
11595378 159 16153695514499575269
116883 192 18198910219035607652
12553582 1 18339074879018579794
12633257 1 18413107230178230823
12760667 363 18126845993695431366
12788726 201 17845946121168065624
128620 24 8574713498855193883
13583140 156 17986105429842208829
13675066 3 18040721380898001643
13944108 23 17108733273440263061
14178342 30 17909251830687877098
14251757 17 18334287639550326545
15042514 8 17834674890765782026
15099037 51 18411418367501552223
15196674 1 18410575102270274495
1601671 61 18409730703247453764
17349148 13 17704358744979051651
17492 89 18268148849765007867
18186145 218 18040991856199716563
192875 21 17632296748684015745
19433438 15 17346878949256987429
19489759 90 14620508991848129463
20286276 3 18266746959401444431
20645477 56 18261108599876525415
20645477 70 18271813419067283798
20832881 197 18261392174865852106
21033648 144 18341602759182125437
21033648 29 18040984130081442493
21065198 57 18410294752443204539
21065199 12 18264210382097293579
21279426 13 18192429671557774957
21315759 148 17023481814403089985
21421861 104 17968927605511061306
21709351 56 18269272542279498796
221357 26 18409441458743522125
22393880 68 18198912585599543710
23559900 14 18342736321579337402
2838139 119 18197491836911270565
3004659 81 18187649059910153606
335352 9 18411420566229311495
34934 24 18341327877238423206
3545911 37 18339365261630355145
4214541 1 18410857693959827971
5104073 3 18409728508097095131
543358 83 18411420605221458010
57724786 102 18411427215203026545
633830 44 17313103094011836435
7399639 24 17549256390620437531
9709674 26 18191870234703355467
9971528 1 17988918938580077154
9996256 80 18412263961258906991

> <PUBCHEM_SHAPE_MULTIPOLES>
411.66
11.86
2.95
0.92
2.43
0.35
-0.06
-0.81
-0.29
-1.65
0.28
0.79
-0.13
0.66

> <PUBCHEM_SHAPE_SELFOVERLAP>
860.035

> <PUBCHEM_SHAPE_VOLUME>
229.9

> <PUBCHEM_COORDINATE_TYPE>
2
5
10

$$$$
