134872
  -OEChem-03292013323D

 43 45  0     1  0  0  0  0  0999 V2000
   -5.2517   -2.1681   -0.6246 S   0  0  0  0  0  0  0  0  0  0  0  0
    0.1527    1.6410    0.8569 O   0  0  0  0  0  0  0  0  0  0  0  0
    0.3378    4.5928   -0.0282 O   0  0  0  0  0  0  0  0  0  0  0  0
   -3.3893    1.5830    0.8503 O   0  0  0  0  0  0  0  0  0  0  0  0
    2.2685    0.6998    0.3422 N   0  0  0  0  0  0  0  0  0  0  0  0
   -2.4707    0.6805    0.1759 N   0  0  2  0  0  0  0  0  0  0  0  0
    4.0425   -0.6508    0.4630 N   0  0  0  0  0  0  0  0  0  0  0  0
    0.5587   -0.9188   -0.2581 N   0  0  0  0  0  0  0  0  0  0  0  0
    1.4894   -3.1668   -0.4490 N   0  0  0  0  0  0  0  0  0  0  0  0
    3.8062   -3.6343   -0.0739 N   0  0  0  0  0  0  0  0  0  0  0  0
   -0.7806    2.4617    0.1229 C   0  0  1  0  0  0  0  0  0  0  0  0
    0.0484    3.3977   -0.7502 C   0  0  2  0  0  0  0  0  0  0  0  0
    1.4835    1.9277    0.3933 C   0  0  1  0  0  0  0  0  0  0  0  0
    1.3381    2.6342   -0.9468 C   0  0  0  0  0  0  0  0  0  0  0  0
   -1.6787    1.5410   -0.6918 C   0  0  0  0  0  0  0  0  0  0  0  0
    1.8140   -0.5561    0.0461 C   0  0  0  0  0  0  0  0  0  0  0  0
    3.6144    0.5884    0.5845 C   0  0  0  0  0  0  0  0  0  0  0  0
   -3.3326   -0.2030   -0.6035 C   0  0  0  0  0  0  0  0  0  0  0  0
    2.9275   -1.3768    0.1268 C   0  0  0  0  0  0  0  0  0  0  0  0
   -4.1738   -1.0625    0.3320 C   0  0  0  0  0  0  0  0  0  0  0  0
    2.7325   -2.7293   -0.1345 C   0  0  0  0  0  0  0  0  0  0  0  0
    0.4944   -2.2480   -0.4906 C   0  0  0  0  0  0  0  0  0  0  0  0
   -6.0314   -3.0333    0.7573 C   0  0  0  0  0  0  0  0  0  0  0  0
   -1.3601    3.0367    0.8543 H   0  0  0  0  0  0  0  0  0  0  0  0
   -0.4368    3.6851   -1.6866 H   0  0  0  0  0  0  0  0  0  0  0  0
    1.9564    2.5773    1.1397 H   0  0  0  0  0  0  0  0  0  0  0  0
    1.2244    1.9087   -1.7611 H   0  0  0  0  0  0  0  0  0  0  0  0
    2.2032    3.2681   -1.1645 H   0  0  0  0  0  0  0  0  0  0  0  0
   -1.0620    0.9150   -1.3470 H   0  0  0  0  0  0  0  0  0  0  0  0
   -2.3275    2.1438   -1.3414 H   0  0  0  0  0  0  0  0  0  0  0  0
    0.6433    4.3574    0.8636 H   0  0  0  0  0  0  0  0  0  0  0  0
    4.2263    1.4421    0.8424 H   0  0  0  0  0  0  0  0  0  0  0  0
   -2.7070   -0.8543   -1.2273 H   0  0  0  0  0  0  0  0  0  0  0  0
   -3.9807    0.3752   -1.2765 H   0  0  0  0  0  0  0  0  0  0  0  0
   -4.8136   -0.4476    0.9733 H   0  0  0  0  0  0  0  0  0  0  0  0
   -3.5246   -1.6703    0.9722 H   0  0  0  0  0  0  0  0  0  0  0  0
   -3.1450    1.4011    1.7738 H   0  0  0  0  0  0  0  0  0  0  0  0
   -0.4876   -2.6328   -0.7445 H   0  0  0  0  0  0  0  0  0  0  0  0
    4.7349   -3.3103    0.1603 H   0  0  0  0  0  0  0  0  0  0  0  0
    3.6392   -4.6121   -0.2682 H   0  0  0  0  0  0  0  0  0  0  0  0
   -6.5748   -2.3280    1.3915 H   0  0  0  0  0  0  0  0  0  0  0  0
   -5.2795   -3.5593    1.3512 H   0  0  0  0  0  0  0  0  0  0  0  0
   -6.7415   -3.7676    0.3678 H   0  0  0  0  0  0  0  0  0  0  0  0
  1 20  1  0  0  0  0
  1 23  1  0  0  0  0
  2 11  1  0  0  0  0
  2 13  1  0  0  0  0
  3 12  1  0  0  0  0
  3 31  1  0  0  0  0
  4  6  1  0  0  0  0
  4 37  1  0  0  0  0
  5 13  1  0  0  0  0
  5 16  1  0  0  0  0
  5 17  1  0  0  0  0
  6 15  1  0  0  0  0
  6 18  1  0  0  0  0
  7 17  2  0  0  0  0
  7 19  1  0  0  0  0
  8 16  2  0  0  0  0
  8 22  1  0  0  0  0
  9 21  1  0  0  0  0
  9 22  2  0  0  0  0
 10 21  1  0  0  0  0
 10 39  1  0  0  0  0
 10 40  1  0  0  0  0
 11 12  1  0  0  0  0
 11 15  1  0  0  0  0
 11 24  1  0  0  0  0
 12 14  1  0  0  0  0
 12 25  1  0  0  0  0
 13 14  1  0  0  0  0
 13 26  1  0  0  0  0
 14 27  1  0  0  0  0
 14 28  1  0  0  0  0
 15 29  1  0  0  0  0
 15 30  1  0  0  0  0
 16 19  1  0  0  0  0
 17 32  1  0  0  0  0
 18 20  1  0  0  0  0
 18 33  1  0  0  0  0
 18 34  1  0  0  0  0
 19 21  2  0  0  0  0
 20 35  1  0  0  0  0
 20 36  1  0  0  0  0
 22 38  1  0  0  0  0
 23 41  1  0  0  0  0
 23 42  1  0  0  0  0
 23 43  1  0  0  0  0
M  END
> <PUBCHEM_COMPOUND_CID>
134872

> <PUBCHEM_CONFORMER_RMSD>
0.8

> <PUBCHEM_CONFORMER_DIVERSEORDER>
1
158
42
59
163
83
105
123
90
97
179
177
86
52
170
75
19
151
159
166
58
148
138
147
6
122
38
49
81
85
141
165
132
103
96
84
188
3
183
124
181
184
185
119
9
187
102
26
17
32
114
4
48
174
67
182
127
152
24
34
36
155
190
88
80
106
146
14
35
154
63
62
142
33
61
139
173
176
16
77
110
2
192
133
78
107
180
8
137
10
68
46
82
50
12
112
172
171
156
76
162
43
15
40
27
191
111
94
104
153
22
161
98
87
71
167
55
20
164
25
5
129
157
128
120
21
91
54
41
169
95
160
92
168
101
115
109
145
51
65
189
149
60
130
57
39
113
89
186
175
134
150
118
70
23
37
140
11
99
28
69
116
29
7
126
30
125
178
72
135
18
100
45
136
53
13
47
56
93
64
31
73
79
66
144
121
117
108
131
74
143
44

> <PUBCHEM_MMFF94_PARTIAL_CHARGES>
28
1 -0.46
10 -0.9
11 0.28
12 0.28
13 0.54
15 0.27
16 0.11
17 0.04
18 0.27
19 0.23
2 -0.56
20 0.23
21 0.41
22 0.47
23 0.23
3 -0.68
31 0.4
32 0.15
37 0.4
38 0.15
39 0.4
4 -0.3
40 0.4
5 0.05
6 -0.64
7 -0.57
8 -0.57
9 -0.62

> <PUBCHEM_EFFECTIVE_ROTOR_COUNT>
7

> <PUBCHEM_PHARMACOPHORE_FEATURES>
13
1 10 cation
1 10 donor
1 2 acceptor
1 23 hydrophobe
1 3 acceptor
1 3 donor
1 4 anion
3 5 7 17 cation
3 5 8 16 cation
3 8 9 22 cation
5 2 11 12 13 14 rings
5 5 7 16 17 19 rings
6 8 9 16 19 21 22 rings

> <PUBCHEM_HEAVY_ATOM_COUNT>
23

> <PUBCHEM_ATOM_DEF_STEREO_COUNT>
3

> <PUBCHEM_ATOM_UDEF_STEREO_COUNT>
0

> <PUBCHEM_BOND_DEF_STEREO_COUNT>
0

> <PUBCHEM_BOND_UDEF_STEREO_COUNT>
0

> <PUBCHEM_ISOTOPIC_ATOM_COUNT>
0

> <PUBCHEM_COMPONENT_COUNT>
1

> <PUBCHEM_CACTVS_TAUTO_COUNT>
3

> <PUBCHEM_CONFORMER_ID>
00020ED800000001

> <PUBCHEM_MMFF94_ENERGY>
44.9047

> <PUBCHEM_FEATURE_SELFOVERLAP>
66.574

> <PUBCHEM_SHAPE_FINGERPRINT>
10764073 3 11639846107334537028
1100329 8 17763741388052856648
11014199 57 18339931407145043627
12107183 9 18341065017293604353
12403259 226 18268706113355354506
12553582 1 18337682909945054669
12596599 1 17773329941158562851
13140716 1 17836638995756752531
13533116 47 18124599941122546475
138480 1 18410572920226564597
14223421 5 18124586488646489740
14251705 54 18410572860033608479
14251757 5 16901047595289212839
14429380 30 18336544915352914426
14790565 3 16823063118734507045
14863182 85 18192712477916695060
15352361 1 18410570665622110551
15927050 60 17476080601741695708
17492 54 17969233406834668932
17859628 70 18193279813437342219
19141452 34 18196656181660557977
19591789 44 18339079410467384084
20028762 73 17986107645972241231
20645477 70 18044367469214985073
20775530 9 18411696561170890295
21197605 99 17542793457384552715
21421861 104 18198084632354242873
221490 88 18125156035886228334
23466295 7 17908151979430961703
23559900 14 17979059493608229720
3421961 26 18338515360943877473
46194498 28 17677322939811381741
5283384 97 18125990805962267455
5309563 4 18410572903247272367
5312544 6 17906450283834874343
59682541 52 18053351532019318263
6443956 14 18409164416136157053
8809292 202 17617940227854990784
9709674 26 17621309139982793108

> <PUBCHEM_SHAPE_MULTIPOLES>
429.68
9.22
5.32
0.86
16.46
1.18
0.03
-9.58
-1.45
-2.75
0.64
0.3
0.16
0.2

> <PUBCHEM_SHAPE_SELFOVERLAP>
892.786

> <PUBCHEM_SHAPE_VOLUME>
248.6

> <PUBCHEM_COORDINATE_TYPE>
2
5
10

$$$$
