134825
  -OEChem-03292013323D

 27 27  0     0  0  0  0  0  0999 V2000
   -3.2186   -0.2793   -0.1541 P   0  0  0  0  0  0  0  0  0  0  0  0
   -3.5166   -0.9544    1.2988 O   0  0  0  0  0  0  0  0  0  0  0  0
   -3.1172   -1.6191   -1.0750 O   0  0  0  0  0  0  0  0  0  0  0  0
   -4.3811    0.5860   -0.5860 O   0  0  0  0  0  0  0  0  0  0  0  0
    4.7944   -0.7867   -1.2108 O   0  0  0  0  0  0  0  0  0  0  0  0
    4.6176   -0.0829    0.9408 O   0  0  0  0  0  0  0  0  0  0  0  0
    0.4589    0.6709    0.2805 N   0  0  0  0  0  0  0  0  0  0  0  0
   -1.7106    0.3525   -0.0732 N   0  0  0  0  0  0  0  0  0  0  0  0
   -0.4316   -1.5468    0.6048 N   0  0  0  0  0  0  0  0  0  0  0  0
   -0.0431    2.0108    0.0145 C   0  0  0  0  0  0  0  0  0  0  0  0
   -1.5121    1.7694   -0.3504 C   0  0  0  0  0  0  0  0  0  0  0  0
   -0.5399   -0.2921    0.2998 C   0  0  0  0  0  0  0  0  0  0  0  0
    1.8348    0.4784    0.6714 C   0  0  0  0  0  0  0  0  0  0  0  0
    2.6586   -0.0236   -0.5088 C   0  0  0  0  0  0  0  0  0  0  0  0
    4.1066   -0.2833   -0.1523 C   0  0  0  0  0  0  0  0  0  0  0  0
    0.4987    2.4922   -0.8058 H   0  0  0  0  0  0  0  0  0  0  0  0
    0.0351    2.6375    0.9095 H   0  0  0  0  0  0  0  0  0  0  0  0
   -2.1775    2.3954    0.2526 H   0  0  0  0  0  0  0  0  0  0  0  0
   -1.6924    1.9772   -1.4101 H   0  0  0  0  0  0  0  0  0  0  0  0
    2.2592    1.4221    1.0374 H   0  0  0  0  0  0  0  0  0  0  0  0
    1.9020   -0.2203    1.5140 H   0  0  0  0  0  0  0  0  0  0  0  0
    2.6359    0.7150   -1.3185 H   0  0  0  0  0  0  0  0  0  0  0  0
    2.2335   -0.9610   -0.8864 H   0  0  0  0  0  0  0  0  0  0  0  0
    0.5406   -1.7663    0.8391 H   0  0  0  0  0  0  0  0  0  0  0  0
   -2.7577   -1.2397    1.8508 H   0  0  0  0  0  0  0  0  0  0  0  0
   -3.9414   -2.1094   -1.2814 H   0  0  0  0  0  0  0  0  0  0  0  0
    5.7334   -0.9612   -0.9865 H   0  0  0  0  0  0  0  0  0  0  0  0
  1  2  1  0  0  0  0
  1  3  1  0  0  0  0
  1  4  2  0  0  0  0
  1  8  1  0  0  0  0
  2 25  1  0  0  0  0
  3 26  1  0  0  0  0
  5 15  1  0  0  0  0
  5 27  1  0  0  0  0
  6 15  2  0  0  0  0
  7 10  1  0  0  0  0
  7 12  1  0  0  0  0
  7 13  1  0  0  0  0
  8 11  1  0  0  0  0
  8 12  1  0  0  0  0
  9 12  2  0  0  0  0
  9 24  1  0  0  0  0
 10 11  1  0  0  0  0
 10 16  1  0  0  0  0
 10 17  1  0  0  0  0
 11 18  1  0  0  0  0
 11 19  1  0  0  0  0
 13 14  1  0  0  0  0
 13 20  1  0  0  0  0
 13 21  1  0  0  0  0
 14 15  1  0  0  0  0
 14 22  1  0  0  0  0
 14 23  1  0  0  0  0
M  END
> <PUBCHEM_COMPOUND_CID>
134825

> <PUBCHEM_CONFORMER_RMSD>
0.6

> <PUBCHEM_CONFORMER_DIVERSEORDER>
1
7
16
14
9
8
17
10
18
13
6
2
11
15
4
5
12
3

> <PUBCHEM_MMFF94_PARTIAL_CHARGES>
19
1 1.52
10 0.37
11 0.37
12 0.55
13 0.37
14 0.06
15 0.66
2 -0.77
24 0.4
25 0.5
26 0.5
27 0.5
3 -0.77
4 -0.7
5 -0.65
6 -0.57
7 -0.79
8 -0.7
9 -0.85

> <PUBCHEM_EFFECTIVE_ROTOR_COUNT>
4.8

> <PUBCHEM_PHARMACOPHORE_FEATURES>
10
1 2 acceptor
1 3 acceptor
1 4 acceptor
1 5 acceptor
1 6 acceptor
1 9 donor
3 5 6 15 anion
4 1 2 3 4 anion
4 7 8 9 12 cation
5 7 8 10 11 12 rings

> <PUBCHEM_HEAVY_ATOM_COUNT>
15

> <PUBCHEM_ATOM_DEF_STEREO_COUNT>
0

> <PUBCHEM_ATOM_UDEF_STEREO_COUNT>
0

> <PUBCHEM_BOND_DEF_STEREO_COUNT>
0

> <PUBCHEM_BOND_UDEF_STEREO_COUNT>
0

> <PUBCHEM_ISOTOPIC_ATOM_COUNT>
0

> <PUBCHEM_COMPONENT_COUNT>
1

> <PUBCHEM_CACTVS_TAUTO_COUNT>
1

> <PUBCHEM_CONFORMER_ID>
00020EA900000001

> <PUBCHEM_MMFF94_ENERGY>
-4.0108

> <PUBCHEM_FEATURE_SELFOVERLAP>
50.849

> <PUBCHEM_SHAPE_FINGERPRINT>
11132069 177 18272647961008330278
11401426 45 18411129242902919321
11543360 7 15213303066332705410
12032990 46 18336833077603306025
12251169 10 10303805488842960220
13760787 19 16732979825827253451
14911166 2 18334006199238991165
14993402 34 17531249452416420364
18186145 218 16950276355742476461
19141452 34 17917711322902028903
20281407 28 18272652346328091088
20281475 54 18060425741621955804
20374829 77 18341608209563903158
20645476 183 17022624203659783819
20871999 31 18335711503177241796
22485316 2 18131066034980315318
23402539 116 18336255795576107102
23557571 272 18268999691518270172
23559900 14 18410009958031832496
2748010 2 18117265072788106469

> <PUBCHEM_SHAPE_MULTIPOLES>
268.25
8.69
1.57
0.98
5.95
0.42
0
-2.62
-1.25
-1
-0.1
0.1
-0.25
0.39

> <PUBCHEM_SHAPE_SELFOVERLAP>
521.714

> <PUBCHEM_SHAPE_VOLUME>
163.6

> <PUBCHEM_COORDINATE_TYPE>
2
5
10

$$$$
