134817175
  -OEChem-03292013293D

 73 76  0     1  0  0  0  0  0999 V2000
    2.5678    3.5889    0.1162 O   0  0  0  0  0  0  0  0  0  0  0  0
   -7.6874   -2.4304   -1.8007 O   0  0  0  0  0  0  0  0  0  0  0  0
    0.9205    5.0549   -0.5305 O   0  0  0  0  0  0  0  0  0  0  0  0
    1.8413    1.0773   -2.2195 O   0  0  0  0  0  0  0  0  0  0  0  0
    7.1901   -4.6151    0.7197 O   0  0  0  0  0  0  0  0  0  0  0  0
   -1.7089    1.7592    0.6048 N   0  0  2  0  0  0  0  0  0  0  0  0
    1.1041    1.4926   -0.0503 N   0  0  0  0  0  0  0  0  0  0  0  0
    2.4844   -1.4244   -1.5518 N   0  0  0  0  0  0  0  0  0  0  0  0
   -4.4002    0.4443    0.4975 C   0  0  2  0  0  0  0  0  0  0  0  0
   -3.4482    0.5836   -0.7480 C   0  0  1  0  0  0  0  0  0  0  0  0
   -3.5192    0.5304    1.7803 C   0  0  0  0  0  0  0  0  0  0  0  0
   -2.5195    1.8135   -0.6173 C   0  0  0  0  0  0  0  0  0  0  0  0
   -2.5557    1.7241    1.8006 C   0  0  0  0  0  0  0  0  0  0  0  0
   -5.2545   -0.8429    0.4231 C   0  0  0  0  0  0  0  0  0  0  0  0
   -5.4122    1.6244    0.5288 C   0  0  0  0  0  0  0  0  0  0  0  0
   -2.5912   -0.6729   -1.0068 C   0  0  0  0  0  0  0  0  0  0  0  0
   -0.7855    2.8918    0.6622 C   0  0  0  0  0  0  0  0  0  0  0  0
    0.3772    2.7100   -0.3169 C   0  0  1  0  0  0  0  0  0  0  0  0
   -6.0954   -1.0595   -0.6687 C   0  0  0  0  0  0  0  0  0  0  0  0
   -5.1850   -1.7867    1.4480 C   0  0  0  0  0  0  0  0  0  0  0  0
   -6.8664   -2.2200   -0.7357 C   0  0  0  0  0  0  0  0  0  0  0  0
   -5.9563   -2.9470    1.3810 C   0  0  0  0  0  0  0  0  0  0  0  0
    1.3005    3.9202   -0.2589 C   0  0  0  0  0  0  0  0  0  0  0  0
   -6.7969   -3.1638    0.2891 C   0  0  0  0  0  0  0  0  0  0  0  0
    2.4662   -0.4292   -0.4802 C   0  0  2  0  0  0  0  0  0  0  0  0
    1.7761    0.7790   -1.0299 C   0  0  0  0  0  0  0  0  0  0  0  0
    3.8937   -0.0696   -0.0564 C   0  0  0  0  0  0  0  0  0  0  0  0
    4.7538   -1.2874    0.1688 C   0  0  0  0  0  0  0  0  0  0  0  0
    3.0460   -2.6904   -1.0652 C   0  0  0  0  0  0  0  0  0  0  0  0
    4.3671   -2.5341   -0.3535 C   0  0  0  0  0  0  0  0  0  0  0  0
    5.9719   -1.1689    0.8505 C   0  0  0  0  0  0  0  0  0  0  0  0
    5.1894   -3.6511   -0.1536 C   0  0  0  0  0  0  0  0  0  0  0  0
    3.5000    4.6732    0.1881 C   0  0  0  0  0  0  0  0  0  0  0  0
    6.7876   -2.2851    1.0343 C   0  0  0  0  0  0  0  0  0  0  0  0
    6.3958   -3.5251    0.5348 C   0  0  0  0  0  0  0  0  0  0  0  0
    4.8492    4.1361    0.6158 C   0  0  0  0  0  0  0  0  0  0  0  0
   -4.0575    0.7379   -1.6488 H   0  0  0  0  0  0  0  0  0  0  0  0
   -2.9051   -0.3741    1.8824 H   0  0  0  0  0  0  0  0  0  0  0  0
   -4.1515    0.5840    2.6765 H   0  0  0  0  0  0  0  0  0  0  0  0
   -3.1134    2.7356   -0.6508 H   0  0  0  0  0  0  0  0  0  0  0  0
   -1.8846    1.8329   -1.5095 H   0  0  0  0  0  0  0  0  0  0  0  0
   -3.1120    2.6619    1.9183 H   0  0  0  0  0  0  0  0  0  0  0  0
   -1.9248    1.6221    2.6928 H   0  0  0  0  0  0  0  0  0  0  0  0
   -4.9290    2.5958    0.6631 H   0  0  0  0  0  0  0  0  0  0  0  0
   -6.1262    1.5064    1.3535 H   0  0  0  0  0  0  0  0  0  0  0  0
   -5.9922    1.6949   -0.3982 H   0  0  0  0  0  0  0  0  0  0  0  0
   -1.9622   -0.9331   -0.1503 H   0  0  0  0  0  0  0  0  0  0  0  0
   -1.9292   -0.5132   -1.8655 H   0  0  0  0  0  0  0  0  0  0  0  0
   -3.2123   -1.5412   -1.2453 H   0  0  0  0  0  0  0  0  0  0  0  0
   -0.3573    2.9685    1.6719 H   0  0  0  0  0  0  0  0  0  0  0  0
   -1.3064    3.8419    0.4828 H   0  0  0  0  0  0  0  0  0  0  0  0
    0.0332    2.6716   -1.3564 H   0  0  0  0  0  0  0  0  0  0  0  0
   -6.1601   -0.3400   -1.4801 H   0  0  0  0  0  0  0  0  0  0  0  0
   -4.5584   -1.6686    2.3242 H   0  0  0  0  0  0  0  0  0  0  0  0
    1.1852    1.1947    0.9178 H   0  0  0  0  0  0  0  0  0  0  0  0
   -5.9044   -3.6813    2.1797 H   0  0  0  0  0  0  0  0  0  0  0  0
    1.8950   -0.8243    0.3704 H   0  0  0  0  0  0  0  0  0  0  0  0
   -7.3929   -4.0716    0.2492 H   0  0  0  0  0  0  0  0  0  0  0  0
    3.8527    0.5251    0.8652 H   0  0  0  0  0  0  0  0  0  0  0  0
    4.3781    0.5540   -0.8200 H   0  0  0  0  0  0  0  0  0  0  0  0
    3.0588   -1.0836   -2.3237 H   0  0  0  0  0  0  0  0  0  0  0  0
    3.1694   -3.3567   -1.9269 H   0  0  0  0  0  0  0  0  0  0  0  0
    2.3304   -3.1681   -0.3849 H   0  0  0  0  0  0  0  0  0  0  0  0
   -8.1446   -3.2807   -1.6828 H   0  0  0  0  0  0  0  0  0  0  0  0
    6.2904   -0.2058    1.2412 H   0  0  0  0  0  0  0  0  0  0  0  0
    4.8809   -4.6205   -0.5386 H   0  0  0  0  0  0  0  0  0  0  0  0
    3.5853    5.1466   -0.7963 H   0  0  0  0  0  0  0  0  0  0  0  0
    3.1467    5.4103    0.9178 H   0  0  0  0  0  0  0  0  0  0  0  0
    7.7282   -2.1807    1.5683 H   0  0  0  0  0  0  0  0  0  0  0  0
    5.2063    3.3828   -0.0943 H   0  0  0  0  0  0  0  0  0  0  0  0
    5.5880    4.9396    0.6807 H   0  0  0  0  0  0  0  0  0  0  0  0
    4.7758    3.6426    1.5906 H   0  0  0  0  0  0  0  0  0  0  0  0
    6.7655   -5.3882    0.3097 H   0  0  0  0  0  0  0  0  0  0  0  0
  1 23  1  0  0  0  0
  1 33  1  0  0  0  0
  2 21  1  0  0  0  0
  2 64  1  0  0  0  0
  3 23  2  0  0  0  0
  4 26  2  0  0  0  0
  5 35  1  0  0  0  0
  5 73  1  0  0  0  0
  6 12  1  0  0  0  0
  6 13  1  0  0  0  0
  6 17  1  0  0  0  0
  7 18  1  0  0  0  0
  7 26  1  0  0  0  0
  7 55  1  0  0  0  0
  8 25  1  0  0  0  0
  8 29  1  0  0  0  0
  8 61  1  0  0  0  0
  9 10  1  0  0  0  0
  9 11  1  0  0  0  0
  9 14  1  0  0  0  0
  9 15  1  0  0  0  0
 10 12  1  0  0  0  0
 10 16  1  0  0  0  0
 10 37  1  0  0  0  0
 11 13  1  0  0  0  0
 11 38  1  0  0  0  0
 11 39  1  0  0  0  0
 12 40  1  0  0  0  0
 12 41  1  0  0  0  0
 13 42  1  0  0  0  0
 13 43  1  0  0  0  0
 14 19  2  0  0  0  0
 14 20  1  0  0  0  0
 15 44  1  0  0  0  0
 15 45  1  0  0  0  0
 15 46  1  0  0  0  0
 16 47  1  0  0  0  0
 16 48  1  0  0  0  0
 16 49  1  0  0  0  0
 17 18  1  0  0  0  0
 17 50  1  0  0  0  0
 17 51  1  0  0  0  0
 18 23  1  0  0  0  0
 18 52  1  0  0  0  0
 19 21  1  0  0  0  0
 19 53  1  0  0  0  0
 20 22  2  0  0  0  0
 20 54  1  0  0  0  0
 21 24  2  0  0  0  0
 22 24  1  0  0  0  0
 22 56  1  0  0  0  0
 24 58  1  0  0  0  0
 25 26  1  0  0  0  0
 25 27  1  0  0  0  0
 25 57  1  0  0  0  0
 27 28  1  0  0  0  0
 27 59  1  0  0  0  0
 27 60  1  0  0  0  0
 28 30  2  0  0  0  0
 28 31  1  0  0  0  0
 29 30  1  0  0  0  0
 29 62  1  0  0  0  0
 29 63  1  0  0  0  0
 30 32  1  0  0  0  0
 31 34  2  0  0  0  0
 31 65  1  0  0  0  0
 32 35  2  0  0  0  0
 32 66  1  0  0  0  0
 33 36  1  0  0  0  0
 33 67  1  0  0  0  0
 33 68  1  0  0  0  0
 34 35  1  0  0  0  0
 34 69  1  0  0  0  0
 36 70  1  0  0  0  0
 36 71  1  0  0  0  0
 36 72  1  0  0  0  0
M  END
> <PUBCHEM_COMPOUND_CID>
134817175

> <PUBCHEM_CONFORMER_RMSD>
1.2

> <PUBCHEM_CONFORMER_DIVERSEORDER>
1
261
201
313
334
148
193
350
70
123
341
354
120
216
221
112
86
172
300
230
204
229
287
265
24
7
348
314
274
176
73
39
115
349
270
245
186
257
340
329
147
335
95
325
298
236
32
308
164
293
62
60
345
258
57
268
220
250
211
169
44
232
96
307
149
97
247
343
109
244
277
355
76
346
288
180
242
128
43
26
139
8
3
319
312
342
102
215
37
187
295
217
305
61
202
285
249
352
154
31
332
36
321
13
328
4
235
114
159
282
214
225
11
209
330
181
137
278
68
327
131
145
173
190
224
119
302
281
38
239
323
55
252
331
19
153
248
156
192
266
168
309
133
107
263
226
339
105
304
291
228
121
94
337
206
14
310
103
207
23
353
289
234
158
188
151
87
213
297
143
233
184
198
260
33
138
72
275
338
136
210
12
200
256
326
222
113
157
253
160
219
83
264
301
42
218
17
140
101
320
333
240
64
286
273
20
179
10
58
27
82
35
208
75
81
189
272
227
34
262
315
299
194
99
29
276
30
195
246
80
79
185
56
65
241
129
347
108
318
223
203
178
336
40
89
126
324
351
92
88
174
106
77
267
259
22
283
125
25
175
118
182
162
280
127
344
21
71
167
98
146
134
84
303
47
269
53
183
254
317
63
238
306
170
237
199
251
110
135
51
294
15
124
205
141
163
74
66
171
255
46
296
85
122
150
311
100
322
28
90
231
197
116
161
5
165
144
93
284
104
41
290
155
177
18
50
212
196
54
117
6
132
279
52
67
16
91
78
243
49
152
130
9
316
48
111
45
69
191
292
142
166
59
271
2

> <PUBCHEM_MMFF94_PARTIAL_CHARGES>
42
1 -0.43
12 0.27
13 0.27
14 -0.14
17 0.27
18 0.36
19 -0.15
2 -0.53
20 -0.15
21 0.08
22 -0.15
23 0.66
24 -0.15
25 0.33
26 0.57
27 0.14
28 -0.14
29 0.41
3 -0.57
30 -0.14
31 -0.15
32 -0.15
33 0.28
34 -0.15
35 0.08
4 -0.57
5 -0.53
53 0.15
54 0.15
55 0.37
56 0.15
58 0.15
6 -0.81
61 0.36
64 0.45
65 0.15
66 0.15
69 0.15
7 -0.73
73 0.45
8 -0.9
9 0.14

> <PUBCHEM_EFFECTIVE_ROTOR_COUNT>
11

> <PUBCHEM_PHARMACOPHORE_FEATURES>
12
1 2 donor
1 3 acceptor
1 4 acceptor
1 5 donor
1 6 cation
1 7 donor
1 8 cation
1 8 donor
6 14 19 20 21 22 24 rings
6 28 30 31 32 34 35 rings
6 6 9 10 11 12 13 rings
6 8 25 27 28 29 30 rings

> <PUBCHEM_HEAVY_ATOM_COUNT>
36

> <PUBCHEM_ATOM_DEF_STEREO_COUNT>
3

> <PUBCHEM_ATOM_UDEF_STEREO_COUNT>
1

> <PUBCHEM_BOND_DEF_STEREO_COUNT>
0

> <PUBCHEM_BOND_UDEF_STEREO_COUNT>
0

> <PUBCHEM_ISOTOPIC_ATOM_COUNT>
0

> <PUBCHEM_COMPONENT_COUNT>
1

> <PUBCHEM_CACTVS_TAUTO_COUNT>
42

> <PUBCHEM_CONFORMER_ID>
0809259700000001

> <PUBCHEM_MMFF94_ENERGY>
90.9978

> <PUBCHEM_FEATURE_SELFOVERLAP>
60.919

> <PUBCHEM_SHAPE_FINGERPRINT>
10100884 174 18187645739996413090
10169797 241 18268732638867620262
10369192 42 10375576123600283627
11062273 23 17691140236050040384
11136131 41 18049718813386490722
11409948 35 18266463304069490619
11719270 70 18051130590343302433
11963148 33 17909825775863454527
12107183 9 18270415880271060769
12166972 35 17967540055774624294
12522641 126 18187376458752770972
12841400 136 18408039606718796259
12977781 61 18262217967906652877
13553639 21 18265630938426584315
13782708 43 17894912940567863687
14344974 204 18195810661651701470
14394314 77 18193839245295713729
15183329 4 11891918051432588626
15513586 35 13899041403146699602
17492 89 18411138043460292249
19246450 95 17908161884433071761
19304152 47 10447631523089303893
19315092 285 17988649613791950408
19319366 153 17839465831952629709
19611394 137 18194960735131064040
19841028 212 18199468943353827999
20691028 202 9727050067656090106
20771845 35 18340754980204665656
208703 8 18408597046165769283
22956985 138 18409448081826042644
32027 91 18334860554323513035
3383291 50 17833840374109638929
3504750 166 17613435550565732930
50009960 94 18334846208874444250
5104073 3 18201172030808989657
5718773 13 18409163299006926963
6058803 2 18197245648684783401
7970288 3 18336830796860179523
9555976 147 17560531607580891297

> <PUBCHEM_SHAPE_MULTIPOLES>
696.57
20.41
6.82
1.43
8.44
4.24
0.06
-27.6
-2.94
-10.24
-0.6
1.13
-0.33
-1.18

> <PUBCHEM_SHAPE_SELFOVERLAP>
1475.021

> <PUBCHEM_SHAPE_VOLUME>
386.1

> <PUBCHEM_COORDINATE_TYPE>
2
5
10

$$$$
