134875
  -OEChem-03292013323D

 55 59  0     1  0  0  0  0  0999 V2000
   -0.6059    0.2144   -1.4784 O   0  0  0  0  0  0  0  0  0  0  0  0
   -4.2519   -0.0041    1.4048 O   0  0  0  0  0  0  0  0  0  0  0  0
    1.7897   -0.9215   -2.5067 O   0  0  0  0  0  0  0  0  0  0  0  0
    2.1966    2.5952   -1.7126 O   0  0  0  0  0  0  0  0  0  0  0  0
   -6.0890   -0.3234   -0.6910 O   0  0  0  0  0  0  0  0  0  0  0  0
    1.0818    3.3101    0.6213 O   0  0  0  0  0  0  0  0  0  0  0  0
    4.6265   -0.2494    2.1798 O   0  0  0  0  0  0  0  0  0  0  0  0
    4.8358   -2.5860    0.6916 O   0  0  0  0  0  0  0  0  0  0  0  0
    1.4052    1.6012   -1.0596 C   0  0  2  0  0  0  0  0  0  0  0  0
    0.3927    1.0582   -2.0700 C   0  0  1  0  0  0  0  0  0  0  0  0
   -4.2070   -1.1670    0.5376 C   0  0  2  0  0  0  0  0  0  0  0  0
   -3.2163   -0.8931   -0.6032 C   0  0  0  0  0  0  0  0  0  0  0  0
   -2.3991    0.1632    0.0387 C   0  0  0  0  0  0  0  0  0  0  0  0
   -1.1971    0.7217   -0.3617 C   0  0  0  0  0  0  0  0  0  0  0  0
   -5.6103   -1.4606    0.0332 C   0  0  0  0  0  0  0  0  0  0  0  0
   -0.6594    1.7479    0.4176 C   0  0  0  0  0  0  0  0  0  0  0  0
    0.6499    2.3169    0.0452 C   0  0  0  0  0  0  0  0  0  0  0  0
    2.3195    0.4954   -0.5780 C   0  0  0  0  0  0  0  0  0  0  0  0
    1.1314    0.2043   -3.0988 C   0  0  0  0  0  0  0  0  0  0  0  0
   -3.0648    0.6375    1.1592 C   0  0  0  0  0  0  0  0  0  0  0  0
    2.4590   -0.6791   -1.3350 C   0  0  0  0  0  0  0  0  0  0  0  0
   -1.3422    2.2305    1.5505 C   0  0  0  0  0  0  0  0  0  0  0  0
   -2.5664    1.6737    1.9244 C   0  0  0  0  0  0  0  0  0  0  0  0
   -6.5707   -1.7286    1.1948 C   0  0  0  0  0  0  0  0  0  0  0  0
   -5.6048   -2.6453   -0.9348 C   0  0  0  0  0  0  0  0  0  0  0  0
    3.0728    0.6238    0.6002 C   0  0  0  0  0  0  0  0  0  0  0  0
    3.2954   -1.7117   -0.8978 C   0  0  0  0  0  0  0  0  0  0  0  0
    3.9144   -0.4044    1.0286 C   0  0  0  0  0  0  0  0  0  0  0  0
    4.0218   -1.5737    0.2824 C   0  0  0  0  0  0  0  0  0  0  0  0
    4.0074   -0.6857    3.3883 C   0  0  0  0  0  0  0  0  0  0  0  0
    6.1850   -2.5605    0.2295 C   0  0  0  0  0  0  0  0  0  0  0  0
   -0.1160    1.8767   -2.5981 H   0  0  0  0  0  0  0  0  0  0  0  0
   -3.8414   -2.0052    1.1490 H   0  0  0  0  0  0  0  0  0  0  0  0
   -3.6851   -0.4865   -1.5050 H   0  0  0  0  0  0  0  0  0  0  0  0
   -2.6390   -1.7870   -0.8568 H   0  0  0  0  0  0  0  0  0  0  0  0
    0.4158   -0.2041   -3.8212 H   0  0  0  0  0  0  0  0  0  0  0  0
    1.8695    0.7885   -3.6611 H   0  0  0  0  0  0  0  0  0  0  0  0
   -0.9276    3.0341    2.1536 H   0  0  0  0  0  0  0  0  0  0  0  0
   -3.0990    2.0400    2.7949 H   0  0  0  0  0  0  0  0  0  0  0  0
   -7.5828   -1.9249    0.8222 H   0  0  0  0  0  0  0  0  0  0  0  0
   -6.2503   -2.5886    1.7918 H   0  0  0  0  0  0  0  0  0  0  0  0
   -6.6562   -0.8584    1.8550 H   0  0  0  0  0  0  0  0  0  0  0  0
   -5.0359   -2.4305   -1.8456 H   0  0  0  0  0  0  0  0  0  0  0  0
   -6.6240   -2.8721   -1.2699 H   0  0  0  0  0  0  0  0  0  0  0  0
   -5.1921   -3.5453   -0.4671 H   0  0  0  0  0  0  0  0  0  0  0  0
    2.9425    2.8271   -1.1333 H   0  0  0  0  0  0  0  0  0  0  0  0
    3.0119    1.5318    1.1951 H   0  0  0  0  0  0  0  0  0  0  0  0
    3.3833   -2.6242   -1.4831 H   0  0  0  0  0  0  0  0  0  0  0  0
   -6.0721    0.4406   -0.0893 H   0  0  0  0  0  0  0  0  0  0  0  0
    4.6994   -0.4999    4.2142 H   0  0  0  0  0  0  0  0  0  0  0  0
    3.7927   -1.7582    3.3461 H   0  0  0  0  0  0  0  0  0  0  0  0
    3.0854   -0.1245    3.5709 H   0  0  0  0  0  0  0  0  0  0  0  0
    6.2174   -2.6254   -0.8627 H   0  0  0  0  0  0  0  0  0  0  0  0
    6.7065   -3.4261    0.6470 H   0  0  0  0  0  0  0  0  0  0  0  0
    6.6911   -1.6506    0.5673 H   0  0  0  0  0  0  0  0  0  0  0  0
  1 10  1  0  0  0  0
  1 14  1  0  0  0  0
  2 11  1  0  0  0  0
  2 20  1  0  0  0  0
  3 19  1  0  0  0  0
  3 21  1  0  0  0  0
  4  9  1  0  0  0  0
  4 46  1  0  0  0  0
  5 15  1  0  0  0  0
  5 49  1  0  0  0  0
  6 17  2  0  0  0  0
  7 28  1  0  0  0  0
  7 30  1  0  0  0  0
  8 29  1  0  0  0  0
  8 31  1  0  0  0  0
  9 10  1  0  0  0  0
  9 17  1  0  0  0  0
  9 18  1  0  0  0  0
 10 19  1  0  0  0  0
 10 32  1  0  0  0  0
 11 12  1  0  0  0  0
 11 15  1  0  0  0  0
 11 33  1  0  0  0  0
 12 13  1  0  0  0  0
 12 34  1  0  0  0  0
 12 35  1  0  0  0  0
 13 14  1  0  0  0  0
 13 20  2  0  0  0  0
 14 16  2  0  0  0  0
 15 24  1  0  0  0  0
 15 25  1  0  0  0  0
 16 17  1  0  0  0  0
 16 22  1  0  0  0  0
 18 21  1  0  0  0  0
 18 26  2  0  0  0  0
 19 36  1  0  0  0  0
 19 37  1  0  0  0  0
 20 23  1  0  0  0  0
 21 27  2  0  0  0  0
 22 23  2  0  0  0  0
 22 38  1  0  0  0  0
 23 39  1  0  0  0  0
 24 40  1  0  0  0  0
 24 41  1  0  0  0  0
 24 42  1  0  0  0  0
 25 43  1  0  0  0  0
 25 44  1  0  0  0  0
 25 45  1  0  0  0  0
 26 28  1  0  0  0  0
 26 47  1  0  0  0  0
 27 29  1  0  0  0  0
 27 48  1  0  0  0  0
 28 29  2  0  0  0  0
 30 50  1  0  0  0  0
 30 51  1  0  0  0  0
 30 52  1  0  0  0  0
 31 53  1  0  0  0  0
 31 54  1  0  0  0  0
 31 55  1  0  0  0  0
M  END
> <PUBCHEM_COMPOUND_CID>
134875

> <PUBCHEM_CONFORMER_RMSD>
0.8

> <PUBCHEM_CONFORMER_DIVERSEORDER>
1
6
4
5
2
3

> <PUBCHEM_MMFF94_PARTIAL_CHARGES>
35
1 -0.36
10 0.28
11 0.28
12 0.14
13 -0.14
14 0.08
15 0.28
16 0.09
17 0.42
18 -0.14
19 0.28
2 -0.36
20 0.08
21 0.08
22 -0.15
23 -0.15
26 -0.15
27 -0.15
28 0.08
29 0.08
3 -0.36
30 0.28
31 0.28
38 0.15
39 0.15
4 -0.68
46 0.4
47 0.15
48 0.15
49 0.4
5 -0.68
6 -0.57
7 -0.36
8 -0.36
9 0.48

> <PUBCHEM_EFFECTIVE_ROTOR_COUNT>
4.2

> <PUBCHEM_PHARMACOPHORE_FEATURES>
16
1 1 acceptor
1 2 acceptor
1 3 acceptor
1 4 acceptor
1 4 donor
1 5 acceptor
1 5 donor
1 6 acceptor
1 7 acceptor
1 8 acceptor
3 15 24 25 hydrophobe
5 2 11 12 13 20 rings
6 1 9 10 14 16 17 rings
6 13 14 16 20 22 23 rings
6 18 21 26 27 28 29 rings
6 3 9 10 18 19 21 rings

> <PUBCHEM_HEAVY_ATOM_COUNT>
31

> <PUBCHEM_ATOM_DEF_STEREO_COUNT>
3

> <PUBCHEM_ATOM_UDEF_STEREO_COUNT>
0

> <PUBCHEM_BOND_DEF_STEREO_COUNT>
0

> <PUBCHEM_BOND_UDEF_STEREO_COUNT>
0

> <PUBCHEM_ISOTOPIC_ATOM_COUNT>
0

> <PUBCHEM_COMPONENT_COUNT>
1

> <PUBCHEM_CACTVS_TAUTO_COUNT>
1

> <PUBCHEM_CONFORMER_ID>
00020EDB00000001

> <PUBCHEM_MMFF94_ENERGY>
125.9629

> <PUBCHEM_FEATURE_SELFOVERLAP>
81.49

> <PUBCHEM_SHAPE_FINGERPRINT>
10319926 262 17345484686476215054
11115154 58 16588306055874941813
11135609 201 11023524892463611071
11578080 2 18040997323767860756
11720765 8 14418119717749507230
11796584 16 18114463448509544035
1200032 147 10303815406028370750
12166972 35 18113903766525185487
12422481 6 17131835361210750207
12892183 10 17774997956221878576
12895836 83 7925620103453152811
13083527 12 18201999975469525833
131258 38 18043804501602595330
13533116 47 18263087768114589515
13583140 156 17273968039427023960
13782708 43 18190186883620003691
13828863 39 14763768862503032898
13911987 19 14567094760263603206
14068700 675 18114461159196704658
14178342 30 17986125023530498973
14251751 18 18408037434039805247
14341114 328 14979947103478090226
14537116 161 14418124146135596295
14705955 166 17203333243363488923
14848178 5 18334857229723582739
14950920 106 17845924122825487146
15163728 17 12247391358566510336
15183329 4 15357694167772200479
15188451 53 18343298150467432783
15475509 8 15647602368850638351
16708801 149 10444603343566417499
17349148 13 18336560377735644703
1813 80 18113336392902986324
18222031 100 18113616759883571242
18681886 176 17415862419952553164
19438510 23 12534476039645073850
19784866 240 18186806863730204191
1979834 28 16916521327822476919
20567600 234 14548737327021426211
20567600 9 11386629816049887719
20626108 58 18186242822507066701
20775438 99 16083342331215356571
20775530 9 16881032206197457818
21033648 29 15841281332908162761
21304303 282 17839176308819317529
21304304 249 18272932708687421638
21421861 104 18130238163044228001
21458453 9 16342555410083637475
21792934 111 17488759895978558267
22393880 68 12829786166160241586
23559900 14 14779558918872037615
25222932 49 17765446726508750655
2838139 119 10735873954813613786
3004659 81 18339654437826163357
3680242 22 18270975638857889915
3886686 26 17409946729762268747
392239 28 15984809437440464995
394222 165 17699012008717228416
4017518 198 14648884917571319498
4098825 35 11386381317763159856
427121 178 15267349543374525340
437795 70 16443335430757566175
439807 62 18193277623611579287
46194498 28 13408521786662806738
463206 1 16877938330357373546
484985 159 17683796614861752158
50009960 94 18051952995414191715
6823239 73 17058680467010521180
7970288 3 18335140839183566690
960060 61 16225770730719675047

> <PUBCHEM_SHAPE_MULTIPOLES>
591.01
13.1
2.93
2.53
10.69
0.49
-0.02
-13.49
-5.75
-0.68
-0.2
-2.41
0.18
-1.31

> <PUBCHEM_SHAPE_SELFOVERLAP>
1321.141

> <PUBCHEM_SHAPE_VOLUME>
312.6

> <PUBCHEM_COORDINATE_TYPE>
2
5
10

$$$$
