134845
  -OEChem-03292013323D

 53 56  0     1  0  0  0  0  0999 V2000
    2.4489   -1.3138   -1.1191 O   0  0  0  0  0  0  0  0  0  0  0  0
   -0.2560   -1.0414    0.3595 O   0  0  0  0  0  0  0  0  0  0  0  0
    4.3041   -0.8231    0.2948 O   0  0  0  0  0  0  0  0  0  0  0  0
    3.0033    0.0332    3.1019 O   0  0  0  0  0  0  0  0  0  0  0  0
    3.6740    2.5018   -1.0398 O   0  0  0  0  0  0  0  0  0  0  0  0
   -1.8572    0.6555    0.3731 O   0  0  0  0  0  0  0  0  0  0  0  0
   -2.2426   -2.8791   -0.4679 O   0  0  0  0  0  0  0  0  0  0  0  0
   -4.9311   -2.0676    0.4231 O   0  0  0  0  0  0  0  0  0  0  0  0
   -5.4550    0.6785   -0.3118 O   0  0  0  0  0  0  0  0  0  0  0  0
   -2.1959    3.3587    0.0065 O   0  0  0  0  0  0  0  0  0  0  0  0
    0.7811   -0.0991    0.0395 C   0  0  1  0  0  0  0  0  0  0  0  0
    2.0404   -0.1551    0.9237 C   0  0  2  0  0  0  0  0  0  0  0  0
    2.1530    1.3891    0.6041 C   0  0  2  0  0  0  0  0  0  0  0  0
    1.4170   -0.3394   -1.3406 C   0  0  1  0  0  0  0  0  0  0  0  0
    0.5932    1.3504    0.5697 C   0  0  0  0  0  0  0  0  0  0  0  0
    2.9271   -1.1698    0.2256 C   0  0  1  0  0  0  0  0  0  0  0  0
    2.0709    0.9366   -1.9207 C   0  0  0  0  0  0  0  0  0  0  0  0
    2.7682    1.7032   -0.8050 C   0  0  0  0  0  0  0  0  0  0  0  0
    1.8740   -0.4609    2.3992 C   0  0  0  0  0  0  0  0  0  0  0  0
    0.4287   -0.9103   -2.3523 C   0  0  0  0  0  0  0  0  0  0  0  0
   -1.5118   -0.6167   -0.1694 C   0  0  2  0  0  0  0  0  0  0  0  0
   -2.5599   -1.6631    0.2089 C   0  0  1  0  0  0  0  0  0  0  0  0
    5.1176   -1.7843   -0.3638 C   0  0  0  0  0  0  0  0  0  0  0  0
   -3.9652   -1.2122   -0.1900 C   0  0  2  0  0  0  0  0  0  0  0  0
   -3.0965    1.1506   -0.1369 C   0  0  1  0  0  0  0  0  0  0  0  0
   -4.2394    0.2188    0.2730 C   0  0  1  0  0  0  0  0  0  0  0  0
   -3.2911    2.5594    0.4147 C   0  0  0  0  0  0  0  0  0  0  0  0
    2.5705    2.0200    1.3945 H   0  0  0  0  0  0  0  0  0  0  0  0
    0.1159    1.4835    1.5455 H   0  0  0  0  0  0  0  0  0  0  0  0
    0.1614    2.0637   -0.1374 H   0  0  0  0  0  0  0  0  0  0  0  0
    2.8032   -2.1588    0.6848 H   0  0  0  0  0  0  0  0  0  0  0  0
    1.3172    1.6083   -2.3461 H   0  0  0  0  0  0  0  0  0  0  0  0
    2.8133    0.6819   -2.6845 H   0  0  0  0  0  0  0  0  0  0  0  0
    1.7851   -1.5366    2.5862 H   0  0  0  0  0  0  0  0  0  0  0  0
    0.9880    0.0096    2.8352 H   0  0  0  0  0  0  0  0  0  0  0  0
   -0.0351   -1.8440   -2.0207 H   0  0  0  0  0  0  0  0  0  0  0  0
   -0.3085   -0.1755   -2.6869 H   0  0  0  0  0  0  0  0  0  0  0  0
    0.9817   -1.2001   -3.2569 H   0  0  0  0  0  0  0  0  0  0  0  0
   -1.5199   -0.5338   -1.2483 H   0  0  0  0  0  0  0  0  0  0  0  0
    2.8744   -0.1841    4.0409 H   0  0  0  0  0  0  0  0  0  0  0  0
   -2.5221   -1.8752    1.2846 H   0  0  0  0  0  0  0  0  0  0  0  0
    6.1639   -1.5036   -0.2143 H   0  0  0  0  0  0  0  0  0  0  0  0
    4.9176   -1.7932   -1.4393 H   0  0  0  0  0  0  0  0  0  0  0  0
    4.9638   -2.7814    0.0601 H   0  0  0  0  0  0  0  0  0  0  0  0
   -4.1121   -1.3111   -1.2719 H   0  0  0  0  0  0  0  0  0  0  0  0
   -3.0199    1.2245   -1.2304 H   0  0  0  0  0  0  0  0  0  0  0  0
   -4.3735    0.2347    1.3615 H   0  0  0  0  0  0  0  0  0  0  0  0
   -1.3420   -3.1331   -0.2027 H   0  0  0  0  0  0  0  0  0  0  0  0
   -3.3302    2.5653    1.5095 H   0  0  0  0  0  0  0  0  0  0  0  0
   -4.2081    3.0147    0.0294 H   0  0  0  0  0  0  0  0  0  0  0  0
   -4.8129   -2.0158    1.3869 H   0  0  0  0  0  0  0  0  0  0  0  0
   -5.3417    0.6805   -1.2776 H   0  0  0  0  0  0  0  0  0  0  0  0
   -1.4699    3.1923    0.6302 H   0  0  0  0  0  0  0  0  0  0  0  0
  1 14  1  0  0  0  0
  1 16  1  0  0  0  0
  2 11  1  0  0  0  0
  2 21  1  0  0  0  0
  3 16  1  0  0  0  0
  3 23  1  0  0  0  0
  4 19  1  0  0  0  0
  4 40  1  0  0  0  0
  5 18  2  0  0  0  0
  6 21  1  0  0  0  0
  6 25  1  0  0  0  0
  7 22  1  0  0  0  0
  7 48  1  0  0  0  0
  8 24  1  0  0  0  0
  8 51  1  0  0  0  0
  9 26  1  0  0  0  0
  9 52  1  0  0  0  0
 10 27  1  0  0  0  0
 10 53  1  0  0  0  0
 11 12  1  0  0  0  0
 11 14  1  0  0  0  0
 11 15  1  0  0  0  0
 12 13  1  0  0  0  0
 12 16  1  0  0  0  0
 12 19  1  0  0  0  0
 13 15  1  0  0  0  0
 13 18  1  0  0  0  0
 13 28  1  0  0  0  0
 14 17  1  0  0  0  0
 14 20  1  0  0  0  0
 15 29  1  0  0  0  0
 15 30  1  0  0  0  0
 16 31  1  0  0  0  0
 17 18  1  0  0  0  0
 17 32  1  0  0  0  0
 17 33  1  0  0  0  0
 19 34  1  0  0  0  0
 19 35  1  0  0  0  0
 20 36  1  0  0  0  0
 20 37  1  0  0  0  0
 20 38  1  0  0  0  0
 21 22  1  0  0  0  0
 21 39  1  0  0  0  0
 22 24  1  0  0  0  0
 22 41  1  0  0  0  0
 23 42  1  0  0  0  0
 23 43  1  0  0  0  0
 23 44  1  0  0  0  0
 24 26  1  0  0  0  0
 24 45  1  0  0  0  0
 25 26  1  0  0  0  0
 25 27  1  0  0  0  0
 25 46  1  0  0  0  0
 26 47  1  0  0  0  0
 27 49  1  0  0  0  0
 27 50  1  0  0  0  0
M  END
> <PUBCHEM_COMPOUND_CID>
134845

> <PUBCHEM_CONFORMER_RMSD>
0.8

> <PUBCHEM_CONFORMER_DIVERSEORDER>
1
10
16
20
17
9
5
19
11
14
8
15
4
21
6
7
18
2
12
3
13

> <PUBCHEM_MMFF94_PARTIAL_CHARGES>
29
1 -0.56
10 -0.68
11 0.26
13 0.05
14 0.28
16 0.56
17 0.06
18 0.46
19 0.28
2 -0.54
21 0.56
22 0.28
23 0.28
24 0.28
25 0.28
26 0.28
27 0.28
3 -0.56
4 -0.68
40 0.4
48 0.4
5 -0.57
51 0.4
52 0.4
53 0.4
6 -0.56
7 -0.68
8 -0.68
9 -0.68

> <PUBCHEM_EFFECTIVE_ROTOR_COUNT>
7

> <PUBCHEM_PHARMACOPHORE_FEATURES>
17
1 1 acceptor
1 10 acceptor
1 10 donor
1 2 acceptor
1 3 acceptor
1 4 acceptor
1 4 donor
1 5 acceptor
1 6 acceptor
1 7 acceptor
1 7 donor
1 8 acceptor
1 8 donor
1 9 acceptor
1 9 donor
6 6 21 22 24 25 26 rings
9 1 11 12 13 14 15 16 17 18 rings

> <PUBCHEM_HEAVY_ATOM_COUNT>
27

> <PUBCHEM_ATOM_DEF_STEREO_COUNT>
5

> <PUBCHEM_ATOM_UDEF_STEREO_COUNT>
5

> <PUBCHEM_BOND_DEF_STEREO_COUNT>
0

> <PUBCHEM_BOND_UDEF_STEREO_COUNT>
0

> <PUBCHEM_ISOTOPIC_ATOM_COUNT>
0

> <PUBCHEM_COMPONENT_COUNT>
1

> <PUBCHEM_CACTVS_TAUTO_COUNT>
1

> <PUBCHEM_CONFORMER_ID>
00020EBD00000001

> <PUBCHEM_MMFF94_ENERGY>
93.1575

> <PUBCHEM_FEATURE_SELFOVERLAP>
86.38

> <PUBCHEM_SHAPE_FINGERPRINT>
10366900 7 17274830177002757617
10498660 4 18409736192352756245
10759866 29 18338525256284926588
10764073 3 17120268266905916282
10863032 1 18337961189824494548
11640471 11 17822020847274357053
12236239 1 17676210134943169683
12403260 363 18340765945181513349
12467345 10 18407762547389815860
12553582 1 18125717040198203231
12633257 1 18271537403157341681
12788726 201 18336266855502055449
13134695 92 16772948078593175850
13224815 77 17775004626416800383
13583140 156 17632563955584579534
13965767 371 17823142211796423325
14178342 30 18263905683868709266
14787075 74 17102570987159008603
15196674 1 18409451418772232973
15238133 3 16629425591355987915
16752209 62 18338229376298907441
16945 1 18116694241469067428
17349148 13 17988920033432617259
17492 89 18335425702799633987
1813 80 17169820077752133842
18186145 218 17385437752316854915
19078846 21 17823125731763795456
20691752 17 16950286213024801676
20715895 44 17898269629978676533
21033648 29 17488159544495076402
23402539 116 18271799104257427223
23557571 272 18129659695374200297
23559900 14 18342737377788137007
3004659 81 18186234039868482959
312423 11 18187659019490621249
350125 39 18337397050017419549
474 4 17024316433775399804
495365 180 16988836173057743011
5104073 3 18411708716033372555
5895379 119 18270409273888588064
7097593 13 17970893476124181947
9981440 41 17467086562720930156

> <PUBCHEM_SHAPE_MULTIPOLES>
496.95
9.15
2.67
1.77
5.35
0.99
-0.57
-1.58
-0.36
1.38
0.35
-2.12
-0.08
-0.38

> <PUBCHEM_SHAPE_SELFOVERLAP>
1069.249

> <PUBCHEM_SHAPE_VOLUME>
273.9

> <PUBCHEM_COORDINATE_TYPE>
2
5
10

$$$$
