134890
  -OEChem-03292013323D

 47 50  0     1  0  0  0  0  0999 V2000
    4.7466    0.7760    1.0243 O   0  0  0  0  0  0  0  0  0  0  0  0
    5.9148   -1.3394   -1.0861 O   0  0  0  0  0  0  0  0  0  0  0  0
    6.5216    1.1256   -2.0800 O   0  0  0  0  0  0  0  0  0  0  0  0
    6.1633    3.0750    1.8510 O   0  0  0  0  0  0  0  0  0  0  0  0
    2.7492   -0.2538    0.2597 N   0  0  0  0  0  0  0  0  0  0  0  0
    0.7239    0.6769    0.1607 N   0  0  0  0  0  0  0  0  0  0  0  0
    2.1231   -2.5993    0.3550 N   0  0  0  0  0  0  0  0  0  0  0  0
   -1.8025   -1.0150    0.1704 N   0  0  0  0  0  0  0  0  0  0  0  0
   -0.3013   -2.8740    0.3021 N   0  0  0  0  0  0  0  0  0  0  0  0
   -7.7306    1.2363   -0.2383 N   0  0  0  0  0  0  0  0  0  0  0  0
   -7.5084    2.4646   -0.3130 N   0  3  0  0  0  0  0  0  0  0  0  0
   -7.3124    3.5868   -0.3814 N   0  5  0  0  0  0  0  0  0  0  0  0
    4.8641   -0.3745   -1.0786 C   0  0  1  0  0  0  0  0  0  0  0  0
    4.2090   -0.3535    0.3036 C   0  0  1  0  0  0  0  0  0  0  0  0
    5.4110    1.0341   -1.2137 C   0  0  1  0  0  0  0  0  0  0  0  0
    5.7743    1.3781    0.2204 C   0  0  1  0  0  0  0  0  0  0  0  0
    5.8286    2.8713    0.4895 C   0  0  0  0  0  0  0  0  0  0  0  0
    1.8543   -1.2868    0.2848 C   0  0  0  0  0  0  0  0  0  0  0  0
    2.0204    0.9051    0.1853 C   0  0  0  0  0  0  0  0  0  0  0  0
    0.6057   -0.6889    0.2222 C   0  0  0  0  0  0  0  0  0  0  0  0
   -0.4982   -1.5354    0.2323 C   0  0  0  0  0  0  0  0  0  0  0  0
    0.9783   -3.3163    0.3583 C   0  0  0  0  0  0  0  0  0  0  0  0
   -2.9742   -1.8397    0.1776 C   0  0  0  0  0  0  0  0  0  0  0  0
   -4.2348   -1.0240    0.0666 C   0  0  0  0  0  0  0  0  0  0  0  0
   -4.7560   -0.7374   -1.1873 C   0  0  0  0  0  0  0  0  0  0  0  0
   -4.8584   -0.5713    1.2208 C   0  0  0  0  0  0  0  0  0  0  0  0
   -5.9245    0.0177   -1.2891 C   0  0  0  0  0  0  0  0  0  0  0  0
   -6.0269    0.1836    1.1190 C   0  0  0  0  0  0  0  0  0  0  0  0
   -6.5599    0.4782   -0.1359 C   0  0  0  0  0  0  0  0  0  0  0  0
    4.1837   -0.6334   -1.8963 H   0  0  0  0  0  0  0  0  0  0  0  0
    4.4455   -1.2493    0.8893 H   0  0  0  0  0  0  0  0  0  0  0  0
    4.6157    1.6950   -1.5800 H   0  0  0  0  0  0  0  0  0  0  0  0
    6.7289    0.9215    0.5125 H   0  0  0  0  0  0  0  0  0  0  0  0
    4.8598    3.3487    0.3097 H   0  0  0  0  0  0  0  0  0  0  0  0
    6.5850    3.3629   -0.1287 H   0  0  0  0  0  0  0  0  0  0  0  0
    5.5072   -2.2129   -0.9563 H   0  0  0  0  0  0  0  0  0  0  0  0
    6.8283    2.0479   -2.0718 H   0  0  0  0  0  0  0  0  0  0  0  0
    2.4808    1.8829    0.1474 H   0  0  0  0  0  0  0  0  0  0  0  0
    5.4853    2.6322    2.3895 H   0  0  0  0  0  0  0  0  0  0  0  0
   -1.8954   -0.0060    0.1224 H   0  0  0  0  0  0  0  0  0  0  0  0
    1.0985   -4.3930    0.4133 H   0  0  0  0  0  0  0  0  0  0  0  0
   -3.0113   -2.4386    1.0968 H   0  0  0  0  0  0  0  0  0  0  0  0
   -2.9389   -2.5589   -0.6512 H   0  0  0  0  0  0  0  0  0  0  0  0
   -4.2679   -1.0899   -2.0915 H   0  0  0  0  0  0  0  0  0  0  0  0
   -4.4505   -0.7936    2.2028 H   0  0  0  0  0  0  0  0  0  0  0  0
   -6.3318    0.2415   -2.2716 H   0  0  0  0  0  0  0  0  0  0  0  0
   -6.5146    0.5375    2.0237 H   0  0  0  0  0  0  0  0  0  0  0  0
  1 14  1  0  0  0  0
  1 16  1  0  0  0  0
  2 13  1  0  0  0  0
  2 36  1  0  0  0  0
  3 15  1  0  0  0  0
  3 37  1  0  0  0  0
  4 17  1  0  0  0  0
  4 39  1  0  0  0  0
  5 14  1  0  0  0  0
  5 18  1  0  0  0  0
  5 19  1  0  0  0  0
  6 19  2  0  0  0  0
  6 20  1  0  0  0  0
  7 18  2  0  0  0  0
  7 22  1  0  0  0  0
  8 21  1  0  0  0  0
  8 23  1  0  0  0  0
  8 40  1  0  0  0  0
  9 21  1  0  0  0  0
  9 22  2  0  0  0  0
 10 11  2  0  0  0  0
 10 29  1  0  0  0  0
 11 12  2  0  0  0  0
 13 14  1  0  0  0  0
 13 15  1  0  0  0  0
 13 30  1  0  0  0  0
 14 31  1  0  0  0  0
 15 16  1  0  0  0  0
 15 32  1  0  0  0  0
 16 17  1  0  0  0  0
 16 33  1  0  0  0  0
 17 34  1  0  0  0  0
 17 35  1  0  0  0  0
 18 20  1  0  0  0  0
 19 38  1  0  0  0  0
 20 21  2  0  0  0  0
 22 41  1  0  0  0  0
 23 24  1  0  0  0  0
 23 42  1  0  0  0  0
 23 43  1  0  0  0  0
 24 25  2  0  0  0  0
 24 26  1  0  0  0  0
 25 27  1  0  0  0  0
 25 44  1  0  0  0  0
 26 28  2  0  0  0  0
 26 45  1  0  0  0  0
 27 29  2  0  0  0  0
 27 46  1  0  0  0  0
 28 29  1  0  0  0  0
 28 47  1  0  0  0  0
M  CHG  2  11   1  12  -1
M  END
> <PUBCHEM_COMPOUND_CID>
134890

> <PUBCHEM_CONFORMER_RMSD>
0.8

> <PUBCHEM_CONFORMER_DIVERSEORDER>
1
477
139
459
15
467
73
315
243
446
36
447
42
98
346
110
38
234
426
169
408
356
165
343
18
219
416
95
378
482
10
357
137
395
129
366
22
417
16
438
300
33
117
412
119
369
31
265
128
323
79
195
149
101
151
450
332
4
210
299
336
253
310
156
429
406
312
23
11
419
407
449
172
262
196
484
391
250
93
483
124
50
212
303
187
201
463
455
286
175
115
249
118
390
371
99
376
55
448
380
41
387
428
25
471
383
367
266
314
409
35
233
103
475
30
313
166
51
180
39
247
208
398
466
44
349
405
100
345
76
344
452
155
88
123
223
368
154
232
281
486
228
114
150
125
130
45
306
457
66
161
399
26
363
382
138
453
294
335
207
145
134
422
311
48
456
203
94
244
58
28
69
164
116
381
468
85
37
176
342
308
362
153
59
184
218
246
177
24
189
432
290
163
185
122
481
168
348
181
54
374
104
339
261
252
280
418
216
259
404
159
427
373
229
251
238
107
109
283
205
74
458
287
403
143
307
47
439
393
473
258
2
288
34
255
14
301
377
354
350
414
431
248
6
413
333
245
425
279
209
476
57
353
171
421
86
365
222
40
197
304
182
75
327
472
328
396
337
32
113
72
276
241
352
338
221
65
318
270
12
193
451
434
206
60
423
52
5
461
127
204
179
480
56
198
120
436
21
454
392
237
83
297
351
375
29
220
174
465
257
402
440
141
136
267
148
17
160
442
46
330
80
140
296
478
479
199
27
87
324
289
71
112
385
435
70
410
372
90
256
81
19
278
121
183
102
77
302
43
53
146
320
389
7
415
142
277
215
274
386
191
111
242
462
254
272
147
411
388
370
78
430
264
167
96
92
384
443
97
186
188
178
319
13
269
309
364
217
202
291
359
230
135
474
132
91
305
275
360
133
106
317
316
214
397
170
329
84
379
293
63
131
157
62
355
325
239
190
225
49
61
231
236
68
295
211
444
469
445
152
20
173
273
441
433
282
82
108
394
105
9
126
470
235
8
285
260
213
424
420
437
361
331
485
340
224
322
158
460
341
192
326
200
464
3
358
268
67
400
144
321
347
284
89
292
334
64
298
240
401
194
226
162
227
271
263

> <PUBCHEM_MMFF94_PARTIAL_CHARGES>
39
1 -0.56
10 -0.5
11 0.69
12 -0.37
13 0.28
14 0.54
15 0.28
16 0.28
17 0.28
18 0.11
19 0.04
2 -0.68
20 0.23
21 0.41
22 0.47
23 0.51
24 -0.14
25 -0.15
26 -0.15
27 -0.15
28 -0.15
29 0.18
3 -0.68
36 0.4
37 0.4
38 0.15
39 0.4
4 -0.68
40 0.4
41 0.15
44 0.15
45 0.15
46 0.15
47 0.15
5 0.05
6 -0.57
7 -0.57
8 -0.87
9 -0.62

> <PUBCHEM_EFFECTIVE_ROTOR_COUNT>
7

> <PUBCHEM_PHARMACOPHORE_FEATURES>
16
1 1 acceptor
1 2 acceptor
1 2 donor
1 3 acceptor
1 3 donor
1 4 acceptor
1 4 donor
1 8 cation
1 8 donor
3 5 6 19 cation
3 5 7 18 cation
3 7 9 22 cation
5 1 13 14 15 16 rings
5 5 6 18 19 20 rings
6 24 25 26 27 28 29 rings
6 7 9 18 20 21 22 rings

> <PUBCHEM_HEAVY_ATOM_COUNT>
29

> <PUBCHEM_ATOM_DEF_STEREO_COUNT>
4

> <PUBCHEM_ATOM_UDEF_STEREO_COUNT>
0

> <PUBCHEM_BOND_DEF_STEREO_COUNT>
0

> <PUBCHEM_BOND_UDEF_STEREO_COUNT>
0

> <PUBCHEM_ISOTOPIC_ATOM_COUNT>
0

> <PUBCHEM_COMPONENT_COUNT>
1

> <PUBCHEM_CACTVS_TAUTO_COUNT>
3

> <PUBCHEM_CONFORMER_ID>
00020EEA00000001

> <PUBCHEM_MMFF94_ENERGY>
73.1413

> <PUBCHEM_FEATURE_SELFOVERLAP>
81.818

> <PUBCHEM_SHAPE_FINGERPRINT>
10 15 17458349654405544283
10411042 1 17760927347309451218
10906281 52 17894358782174984079
11475781 23 18202002179219700198
12166972 35 12247676089118083859
13668630 136 10447927270242339037
13685833 64 9583518715938139947
13782708 43 12031782565999048143
13944108 23 18337955562921867261
14931854 50 17917430896129453713
15064981 113 16629396931819982277
15183329 4 16988570095206706591
18222031 100 12535362220294411602
190975 80 8934992659792895454
2026 5 12247685941973690221
20691028 202 18334858329234944181
20715895 44 18338514265933172768
21033648 29 18187645859568629074
21298829 104 18410012105515811829
21424621 283 18408603686210972179
21781055 127 17967250919652625256
24771293 8 18265606779319284060
2748736 6 18410003368845027953
3663271 9 14201393906365704821
3918712 181 18343292682510465920
4073 2 18040440980291480155
4340502 62 15863784006923521938
5104073 3 11603078596993783182
5718773 13 10159690288457364885
59682541 52 17275111613282785974
6328613 192 18273216421658149593

> <PUBCHEM_SHAPE_MULTIPOLES>
533.48
22.71
3.3
1.23
18.5
0.88
0.19
21.08
3.47
0.01
-0.6
-1.09
0.41
1.57

> <PUBCHEM_SHAPE_SELFOVERLAP>
1161.794

> <PUBCHEM_SHAPE_VOLUME>
285.4

> <PUBCHEM_COORDINATE_TYPE>
2
5
10

$$$$
