134817250
  -OEChem-03292013293D

 58 61  0     1  0  0  0  0  0999 V2000
    3.2257   -0.8576   -0.4185 S   0  0  0  0  0  0  0  0  0  0  0  0
    4.6377    0.8066    1.6218 F   0  0  0  0  0  0  0  0  0  0  0  0
   -5.0805    1.5737    2.0815 O   0  0  0  0  0  0  0  0  0  0  0  0
    0.3678   -2.9199   -1.3022 O   0  0  0  0  0  0  0  0  0  0  0  0
    2.5293   -1.2176   -1.6390 O   0  0  0  0  0  0  0  0  0  0  0  0
    4.5785   -1.3257   -0.1854 O   0  0  0  0  0  0  0  0  0  0  0  0
   -0.4031   -1.0985   -0.1035 N   0  0  0  0  0  0  0  0  0  0  0  0
   -3.1699    0.6727    2.9934 N   0  0  0  0  0  0  0  0  0  0  0  0
    2.2731   -1.2688    0.9214 N   0  0  0  0  0  0  0  0  0  0  0  0
   -3.4763    0.5897    0.6038 C   0  0  0  0  0  0  0  0  0  0  0  0
   -2.7548   -1.3576   -0.8372 C   0  0  1  0  0  0  0  0  0  0  0  0
   -1.5807    0.8671   -1.0450 C   0  0  2  0  0  0  0  0  0  0  0  0
   -3.9533    0.6101   -1.8724 C   0  0  0  0  0  0  0  0  0  0  0  0
   -1.3924   -0.6658   -1.0621 C   0  0  0  0  0  0  0  0  0  0  0  0
   -2.1215    1.2782    0.3382 C   0  0  0  0  0  0  0  0  0  0  0  0
   -3.2926   -0.9409    0.5454 C   0  0  0  0  0  0  0  0  0  0  0  0
   -4.4792    1.0172   -0.4850 C   0  0  0  0  0  0  0  0  0  0  0  0
   -3.7658   -0.9157   -1.9140 C   0  0  0  0  0  0  0  0  0  0  0  0
   -2.5990    1.2952   -2.1204 C   0  0  0  0  0  0  0  0  0  0  0  0
   -4.0053    0.9942    1.9498 C   0  0  0  0  0  0  0  0  0  0  0  0
    0.4108   -2.2062   -0.3002 C   0  0  0  0  0  0  0  0  0  0  0  0
    1.3846   -2.4625    0.8559 C   0  0  0  0  0  0  0  0  0  0  0  0
    0.6449   -2.5716    2.1891 C   0  0  0  0  0  0  0  0  0  0  0  0
    2.2586   -3.6894    0.5959 C   0  0  0  0  0  0  0  0  0  0  0  0
    3.2648    0.9066   -0.3137 C   0  0  0  0  0  0  0  0  0  0  0  0
    3.9766    1.5325    0.7093 C   0  0  0  0  0  0  0  0  0  0  0  0
    2.5820    1.6728   -1.2584 C   0  0  0  0  0  0  0  0  0  0  0  0
    4.0058    2.9249    0.7879 C   0  0  0  0  0  0  0  0  0  0  0  0
    2.6112    3.0653   -1.1799 C   0  0  0  0  0  0  0  0  0  0  0  0
    3.3231    3.6912   -0.1568 C   0  0  0  0  0  0  0  0  0  0  0  0
   -0.6231    1.3690   -1.2246 H   0  0  0  0  0  0  0  0  0  0  0  0
   -2.6389   -2.4475   -0.8682 H   0  0  0  0  0  0  0  0  0  0  0  0
   -4.6692    0.9158   -2.6435 H   0  0  0  0  0  0  0  0  0  0  0  0
   -1.0253   -0.9514   -2.0569 H   0  0  0  0  0  0  0  0  0  0  0  0
   -1.3862    1.0672    1.1207 H   0  0  0  0  0  0  0  0  0  0  0  0
   -2.6171   -1.3024    1.3296 H   0  0  0  0  0  0  0  0  0  0  0  0
   -4.2531   -1.4406    0.7319 H   0  0  0  0  0  0  0  0  0  0  0  0
   -2.2529    2.3692    0.3633 H   0  0  0  0  0  0  0  0  0  0  0  0
   -4.6415    2.1031   -0.4601 H   0  0  0  0  0  0  0  0  0  0  0  0
   -5.4595    0.5521   -0.3152 H   0  0  0  0  0  0  0  0  0  0  0  0
   -2.2217    1.0281   -3.1151 H   0  0  0  0  0  0  0  0  0  0  0  0
   -2.7216    2.3851   -2.1079 H   0  0  0  0  0  0  0  0  0  0  0  0
   -4.7281   -1.4168   -1.7527 H   0  0  0  0  0  0  0  0  0  0  0  0
   -3.4090   -1.2216   -2.9051 H   0  0  0  0  0  0  0  0  0  0  0  0
   -0.2889   -0.5640    0.7494 H   0  0  0  0  0  0  0  0  0  0  0  0
   -2.2840    0.1930    2.8760 H   0  0  0  0  0  0  0  0  0  0  0  0
   -3.4258    0.9060    3.9472 H   0  0  0  0  0  0  0  0  0  0  0  0
    3.0504   -3.7800    1.3484 H   0  0  0  0  0  0  0  0  0  0  0  0
    1.6561   -4.6045    0.6332 H   0  0  0  0  0  0  0  0  0  0  0  0
    2.7396   -3.6716   -0.3878 H   0  0  0  0  0  0  0  0  0  0  0  0
    1.3416   -2.8050    3.0029 H   0  0  0  0  0  0  0  0  0  0  0  0
   -0.1073   -3.3678    2.1522 H   0  0  0  0  0  0  0  0  0  0  0  0
    0.1304   -1.6479    2.4746 H   0  0  0  0  0  0  0  0  0  0  0  0
    1.8937   -0.4954    1.4839 H   0  0  0  0  0  0  0  0  0  0  0  0
    2.0172    1.2114   -2.0630 H   0  0  0  0  0  0  0  0  0  0  0  0
    4.5603    3.4121    1.5845 H   0  0  0  0  0  0  0  0  0  0  0  0
    2.0783    3.6620   -1.9145 H   0  0  0  0  0  0  0  0  0  0  0  0
    3.3456    4.7753   -0.0954 H   0  0  0  0  0  0  0  0  0  0  0  0
  1  5  2  0  0  0  0
  1  6  2  0  0  0  0
  1  9  1  0  0  0  0
  1 25  1  0  0  0  0
  2 26  1  0  0  0  0
  3 20  2  0  0  0  0
  4 21  2  0  0  0  0
  7 14  1  0  0  0  0
  7 21  1  0  0  0  0
  7 45  1  0  0  0  0
  8 20  1  0  0  0  0
  8 46  1  0  0  0  0
  8 47  1  0  0  0  0
  9 22  1  0  0  0  0
  9 54  1  0  0  0  0
 10 15  1  0  0  0  0
 10 16  1  0  0  0  0
 10 17  1  0  0  0  0
 10 20  1  0  0  0  0
 11 14  1  0  0  0  0
 11 16  1  0  0  0  0
 11 18  1  0  0  0  0
 11 32  1  0  0  0  0
 12 14  1  0  0  0  0
 12 15  1  0  0  0  0
 12 19  1  0  0  0  0
 12 31  1  0  0  0  0
 13 17  1  0  0  0  0
 13 18  1  0  0  0  0
 13 19  1  0  0  0  0
 13 33  1  0  0  0  0
 14 34  1  0  0  0  0
 15 35  1  0  0  0  0
 15 38  1  0  0  0  0
 16 36  1  0  0  0  0
 16 37  1  0  0  0  0
 17 39  1  0  0  0  0
 17 40  1  0  0  0  0
 18 43  1  0  0  0  0
 18 44  1  0  0  0  0
 19 41  1  0  0  0  0
 19 42  1  0  0  0  0
 21 22  1  0  0  0  0
 22 23  1  0  0  0  0
 22 24  1  0  0  0  0
 23 51  1  0  0  0  0
 23 52  1  0  0  0  0
 23 53  1  0  0  0  0
 24 48  1  0  0  0  0
 24 49  1  0  0  0  0
 24 50  1  0  0  0  0
 25 26  1  0  0  0  0
 25 27  2  0  0  0  0
 26 28  2  0  0  0  0
 27 29  1  0  0  0  0
 27 55  1  0  0  0  0
 28 30  1  0  0  0  0
 28 56  1  0  0  0  0
 29 30  2  0  0  0  0
 29 57  1  0  0  0  0
 30 58  1  0  0  0  0
M  END
> <PUBCHEM_COMPOUND_CID>
134817250

> <PUBCHEM_CONFORMER_RMSD>
1

> <PUBCHEM_CONFORMER_DIVERSEORDER>
1
143
84
12
110
101
169
133
24
119
127
67
5
61
27
66
99
150
92
41
72
138
93
104
77
8
136
74
21
55
171
106
123
116
159
164
83
124
45
20
4
69
81
121
187
68
28
108
114
166
33
181
2
97
117
180
39
113
141
177
175
185
78
137
186
125
158
111
173
3
139
118
65
144
40
162
109
140
135
85
70
50
76
112
62
86
178
34
179
11
103
161
174
167
49
145
146
58
60
82
53
182
94
157
10
52
90
129
156
46
176
48
30
59
89
64
154
57
91
98
105
183
131
38
128
43
120
32
75
9
132
100
96
165
80
13
19
184
168
18
29
147
107
88
23
42
134
153
148
15
126
172
73
16
95
36
160
188
130
71
155
115
31
149
17
47
14
51
87
26
25
163
79
35
151
22
122
63
102
142
54
152
170
7
37
6
44
56

> <PUBCHEM_MMFF94_PARTIAL_CHARGES>
28
1 1.45
10 0.06
14 0.3
2 -0.19
20 0.57
21 0.57
22 0.42
25 -0.01
26 0.19
27 -0.15
28 -0.15
29 -0.15
3 -0.57
30 -0.15
4 -0.57
45 0.37
46 0.37
47 0.37
5 -0.65
54 0.42
55 0.15
56 0.15
57 0.15
58 0.15
6 -0.65
7 -0.73
8 -0.8
9 -0.91

> <PUBCHEM_EFFECTIVE_ROTOR_COUNT>
8.2

> <PUBCHEM_PHARMACOPHORE_FEATURES>
13
1 3 acceptor
1 4 acceptor
1 5 acceptor
1 6 acceptor
1 7 donor
1 8 donor
1 9 donor
3 22 23 24 hydrophobe
6 10 11 12 14 15 16 rings
6 10 11 13 16 17 18 rings
6 10 12 13 15 17 19 rings
6 11 12 13 14 18 19 rings
6 25 26 27 28 29 30 rings

> <PUBCHEM_HEAVY_ATOM_COUNT>
30

> <PUBCHEM_ATOM_DEF_STEREO_COUNT>
2

> <PUBCHEM_ATOM_UDEF_STEREO_COUNT>
0

> <PUBCHEM_BOND_DEF_STEREO_COUNT>
0

> <PUBCHEM_BOND_UDEF_STEREO_COUNT>
0

> <PUBCHEM_ISOTOPIC_ATOM_COUNT>
0

> <PUBCHEM_COMPONENT_COUNT>
1

> <PUBCHEM_CACTVS_TAUTO_COUNT>
4

> <PUBCHEM_CONFORMER_ID>
080925E200000001

> <PUBCHEM_MMFF94_ENERGY>
74.9389

> <PUBCHEM_FEATURE_SELFOVERLAP>
78.496

> <PUBCHEM_SHAPE_FINGERPRINT>
10366900 7 17531245007030401511
11049842 53 16557915489805736239
11135609 187 18050838112245714821
11370993 70 18190162671997370884
12160290 23 17685228556895065374
12633257 1 18189323723482908876
12788726 201 17546443844303805734
12925494 130 18263356985387415613
13224815 77 18411131437763206319
13583140 156 17896037655237676151
13590594 115 18050851010037519466
14251764 3 17822012016684361864
14468879 13 17749372776996103749
14787075 74 17978784941675831711
14955137 171 18123770663835490950
151778 21 18115603654673089308
21033648 29 17531241712821978223
21033650 10 16056338205488518352
21623110 236 18339077198432333821
21864079 5 18130228129900196593
22122407 14 18195542389541044233
22749437 52 18337946921732413588
23559900 14 18192694666866751279
25222932 49 13483125931551859937
2838139 119 16629103568437295088
3459 110 17968670431126975939
392239 28 18114465672954515467
44880168 125 12254664567792157040
469060 322 17678744664133275275
474 4 18410006667506433718
49207404 50 17749116603228238505
5081480 168 17413890742331937742
5252454 2 18118420646471094884
5895379 119 16486702363810838024
6034566 193 17900272097406772045
6287921 2 18201444653287916582
633830 44 18201730556149010605
6523845 18 18190485893976752548
9981440 41 17907002230287714290

> <PUBCHEM_SHAPE_MULTIPOLES>
575.54
9.99
3.94
2.2
0.88
0.74
0.88
-5.81
1.94
-5.11
0.32
2.48
-0.23
-0.58

> <PUBCHEM_SHAPE_SELFOVERLAP>
1233.796

> <PUBCHEM_SHAPE_VOLUME>
321.2

> <PUBCHEM_COORDINATE_TYPE>
2
5
10

$$$$
