134821691
  -OEChem-03292013293D

 53 56  0     0  0  0  0  0  0999 V2000
    2.2361   -2.9711   -0.4720 O   0  0  0  0  0  0  0  0  0  0  0  0
   -2.3999    1.3054   -0.9152 O   0  0  0  0  0  0  0  0  0  0  0  0
    0.7619    3.7643    0.2704 O   0  0  0  0  0  0  0  0  0  0  0  0
    4.0951   -1.5270   -0.4963 N   0  0  0  0  0  0  0  0  0  0  0  0
    4.3438    0.8203   -0.3070 N   0  0  0  0  0  0  0  0  0  0  0  0
    0.2120    1.2413    0.0709 N   0  0  0  0  0  0  0  0  0  0  0  0
    3.7996    2.0571   -0.1517 N   0  0  0  0  0  0  0  0  0  0  0  0
    2.9375    4.5561    0.1421 N   0  0  0  0  0  0  0  0  0  0  0  0
   -6.4589   -1.0965   -0.4016 N   0  0  0  0  0  0  0  0  0  0  0  0
   -5.2712   -1.4263    0.1284 N   0  0  0  0  0  0  0  0  0  0  0  0
   -5.0233    0.6844   -0.3805 N   0  0  0  0  0  0  0  0  0  0  0  0
    4.3580   -3.9234   -0.7326 C   0  0  0  0  0  0  0  0  0  0  0  0
    4.2921   -5.0359    0.2571 C   0  0  0  0  0  0  0  0  0  0  0  0
    5.4690   -4.1070    0.2437 C   0  0  0  0  0  0  0  0  0  0  0  0
    3.4378   -2.7565   -0.5519 C   0  0  0  0  0  0  0  0  0  0  0  0
    3.5311   -0.2572   -0.3362 C   0  0  0  0  0  0  0  0  0  0  0  0
    2.1590   -0.1656   -0.2151 C   0  0  0  0  0  0  0  0  0  0  0  0
    1.6054    1.0928   -0.0570 C   0  0  0  0  0  0  0  0  0  0  0  0
    2.4605    2.1762   -0.0306 C   0  0  0  0  0  0  0  0  0  0  0  0
   -0.7933    0.4044    0.6028 C   0  0  0  0  0  0  0  0  0  0  0  0
   -2.0943    0.4462    0.1017 C   0  0  0  0  0  0  0  0  0  0  0  0
   -3.0757   -0.3870    0.6387 C   0  0  0  0  0  0  0  0  0  0  0  0
   -0.4737   -0.4705    1.6411 C   0  0  0  0  0  0  0  0  0  0  0  0
    1.9767    3.5387    0.1303 C   0  0  0  0  0  0  0  0  0  0  0  0
   -2.7562   -1.2619    1.6770 C   0  0  0  0  0  0  0  0  0  0  0  0
   -1.4551   -1.3037    2.1783 C   0  0  0  0  0  0  0  0  0  0  0  0
   -4.4237   -0.3626    0.1371 C   0  0  0  0  0  0  0  0  0  0  0  0
   -6.2574    0.1903   -0.6930 C   0  0  0  0  0  0  0  0  0  0  0  0
   -2.2460    0.8128   -2.2431 C   0  0  0  0  0  0  0  0  0  0  0  0
   -7.5645   -1.9930   -0.5523 C   0  0  0  0  0  0  0  0  0  0  0  0
    2.6177    5.9548    0.3164 C   0  0  0  0  0  0  0  0  0  0  0  0
    4.5443   -4.2002   -1.7648 H   0  0  0  0  0  0  0  0  0  0  0  0
    4.4432   -6.0455   -0.1052 H   0  0  0  0  0  0  0  0  0  0  0  0
    5.5690   -3.4212    1.0762 H   0  0  0  0  0  0  0  0  0  0  0  0
    6.4106   -4.4916   -0.1294 H   0  0  0  0  0  0  0  0  0  0  0  0
    3.6033   -4.9601    1.0896 H   0  0  0  0  0  0  0  0  0  0  0  0
    5.1081   -1.5275   -0.5861 H   0  0  0  0  0  0  0  0  0  0  0  0
    1.4842   -1.0032   -0.2692 H   0  0  0  0  0  0  0  0  0  0  0  0
   -0.1537    2.0926   -0.3455 H   0  0  0  0  0  0  0  0  0  0  0  0
    0.5241   -0.5088    2.0693 H   0  0  0  0  0  0  0  0  0  0  0  0
   -3.5023   -1.9175    2.1197 H   0  0  0  0  0  0  0  0  0  0  0  0
   -1.2077   -1.9800    2.9913 H   0  0  0  0  0  0  0  0  0  0  0  0
    3.9134    4.3098    0.0034 H   0  0  0  0  0  0  0  0  0  0  0  0
   -7.0217    0.8069   -1.1488 H   0  0  0  0  0  0  0  0  0  0  0  0
   -2.5879    1.5865   -2.9361 H   0  0  0  0  0  0  0  0  0  0  0  0
   -2.8479   -0.0874   -2.4027 H   0  0  0  0  0  0  0  0  0  0  0  0
   -1.1937    0.5981   -2.4538 H   0  0  0  0  0  0  0  0  0  0  0  0
   -7.2551   -2.8225   -1.1924 H   0  0  0  0  0  0  0  0  0  0  0  0
   -8.3999   -1.4586   -1.0105 H   0  0  0  0  0  0  0  0  0  0  0  0
   -7.8521   -2.3601    0.4356 H   0  0  0  0  0  0  0  0  0  0  0  0
    2.5209    6.4095   -0.6725 H   1  0  0  0  0  0  0  0  0  0  0  0
    3.4360    6.4312    0.8611 H   1  0  0  0  0  0  0  0  0  0  0  0
    1.6820    6.0719    0.8685 H   1  0  0  0  0  0  0  0  0  0  0  0
  1 15  2  0  0  0  0
  2 21  1  0  0  0  0
  2 29  1  0  0  0  0
  3 24  2  0  0  0  0
  4 15  1  0  0  0  0
  4 16  1  0  0  0  0
  4 37  1  0  0  0  0
  5  7  1  0  0  0  0
  5 16  2  0  0  0  0
  6 18  1  0  0  0  0
  6 20  1  0  0  0  0
  6 39  1  0  0  0  0
  7 19  2  0  0  0  0
  8 24  1  0  0  0  0
  8 31  1  0  0  0  0
  8 43  1  0  0  0  0
  9 10  1  0  0  0  0
  9 28  1  0  0  0  0
  9 30  1  0  0  0  0
 10 27  2  0  0  0  0
 11 27  1  0  0  0  0
 11 28  2  0  0  0  0
 12 13  1  0  0  0  0
 12 14  1  0  0  0  0
 12 15  1  0  0  0  0
 12 32  1  0  0  0  0
 13 14  1  0  0  0  0
 13 33  1  0  0  0  0
 13 36  1  0  0  0  0
 14 34  1  0  0  0  0
 14 35  1  0  0  0  0
 16 17  1  0  0  0  0
 17 18  2  0  0  0  0
 17 38  1  0  0  0  0
 18 19  1  0  0  0  0
 19 24  1  0  0  0  0
 20 21  1  0  0  0  0
 20 23  2  0  0  0  0
 21 22  2  0  0  0  0
 22 25  1  0  0  0  0
 22 27  1  0  0  0  0
 23 26  1  0  0  0  0
 23 40  1  0  0  0  0
 25 26  2  0  0  0  0
 25 41  1  0  0  0  0
 26 42  1  0  0  0  0
 28 44  1  0  0  0  0
 29 45  1  0  0  0  0
 29 46  1  0  0  0  0
 29 47  1  0  0  0  0
 30 48  1  0  0  0  0
 30 49  1  0  0  0  0
 30 50  1  0  0  0  0
 31 51  1  0  0  0  0
 31 52  1  0  0  0  0
 31 53  1  0  0  0  0
M  ISO  3  51   2  52   2  53   2
M  END
> <PUBCHEM_COMPOUND_CID>
134821691

> <PUBCHEM_CONFORMER_RMSD>
1

> <PUBCHEM_CONFORMER_DIVERSEORDER>
1
33
21
18
45
26
46
11
27
32
39
47
40
22
44
43
30
23
36
20
34
3
16
14
2
35
15
31
19
28
24
13
25
29
38
17
10
12
9
37
42
6
41
4
7
5
8
48

> <PUBCHEM_MMFF94_PARTIAL_CHARGES>
44
1 -0.57
10 -0.71
11 -0.57
12 -0.1
13 -0.2
14 -0.2
15 0.63
16 0.43
17 -0.15
18 0.1
19 0.4
2 -0.36
20 0.1
21 0.08
22 0.05
23 -0.15
24 0.54
25 -0.15
26 -0.15
27 0.46
28 0.04
29 0.28
3 -0.57
30 0.26
31 0.3
32 0.1
33 0.1
34 0.1
35 0.1
36 0.1
37 0.37
38 0.15
39 0.4
4 -0.55
40 0.15
41 0.15
42 0.15
43 0.37
44 0.15
5 -0.31
6 -0.6
7 -0.31
8 -0.73
9 0.31

> <PUBCHEM_EFFECTIVE_ROTOR_COUNT>
9.6

> <PUBCHEM_PHARMACOPHORE_FEATURES>
13
1 1 acceptor
1 2 acceptor
1 3 acceptor
1 4 donor
1 6 cation
1 6 donor
1 7 acceptor
1 8 donor
3 10 11 27 cation
3 9 11 28 cation
5 9 10 11 27 28 rings
6 20 21 22 23 25 26 rings
6 5 7 16 17 18 19 rings

> <PUBCHEM_HEAVY_ATOM_COUNT>
31

> <PUBCHEM_ATOM_DEF_STEREO_COUNT>
0

> <PUBCHEM_ATOM_UDEF_STEREO_COUNT>
0

> <PUBCHEM_BOND_DEF_STEREO_COUNT>
0

> <PUBCHEM_BOND_UDEF_STEREO_COUNT>
0

> <PUBCHEM_ISOTOPIC_ATOM_COUNT>
3

> <PUBCHEM_COMPONENT_COUNT>
1

> <PUBCHEM_CACTVS_TAUTO_COUNT>
998

> <PUBCHEM_CONFORMER_ID>
0809373B00000001

> <PUBCHEM_MMFF94_ENERGY>
119.8611

> <PUBCHEM_FEATURE_SELFOVERLAP>
68.721

> <PUBCHEM_SHAPE_FINGERPRINT>
10411042 1 18267304227629896518
10693767 8 18411688903666532503
11135609 149 18267841939843387868
11719270 70 18338515352681133480
11720765 8 18339917130468439256
12107183 9 18055365643430631449
12202916 173 18260822714269732562
12440610 7 17751925967439100571
12788726 201 17542224558636610520
13533116 47 18411985780094402739
1361 2 18195242450161615845
13773456 30 18050565437224054728
13782708 43 17968096374441400195
13911987 19 18119556416808908764
13955234 65 18269838769003056952
14866123 147 17617383879066058216
15324884 4 17539999559482532408
19311894 1 18050847711081110497
19315092 285 17703504398938684962
19319366 153 17985544691665595860
20775438 99 18192978534267261851
21133410 32 16302093296846462538
21133410 58 18338789040629968599
21792938 169 18196633280804972550
23536364 44 17899972725242491519
23559900 14 18409449210589486897
23569914 152 17760896599980574935
23569943 247 18190182279040704923
23845131 108 17692528236230353632
4015057 19 18336273366282449923
404807 14 18194690263544320987
4403749 210 17689715690018970512
46194498 28 17821732745110147326
463206 1 18335710394527748227
495365 180 18197775720335850008
513532 50 18335690638194573906
5309563 4 18268150847209403462
59682541 52 18410285931055243103
6004065 56 18410291424170935922
6695519 79 17620777392724003177
6697151 62 18195500654968470477
7970288 3 18195807366852311006

> <PUBCHEM_SHAPE_MULTIPOLES>
580.51
14.26
6.63
1.27
20.9
4.87
-0.21
-14.23
3.55
-15.35
-0.31
1.08
-0.36
0.9

> <PUBCHEM_SHAPE_SELFOVERLAP>
1253.653

> <PUBCHEM_SHAPE_VOLUME>
319.9

> <PUBCHEM_COORDINATE_TYPE>
2
5
10

$$$$
