134895
  -OEChem-03292013323D

 28 29  0     1  0  0  0  0  0999 V2000
   -2.1567   -1.7096    1.4889 S   0  0  0  0  0  0  0  0  0  0  0  0
   -0.3194   -3.1745   -0.3832 S   0  0  0  0  0  0  0  0  0  0  0  0
   -0.8253    1.8084    0.5836 O   0  0  0  0  0  0  0  0  0  0  0  0
   -2.6861    0.1662   -1.6405 O   0  0  0  0  0  0  0  0  0  0  0  0
   -3.5611    1.7147   -0.2042 O   0  0  0  0  0  0  0  0  0  0  0  0
   -0.6953   -0.4369   -0.2294 N   0  0  0  0  0  0  0  0  0  0  0  0
   -1.5292    0.5918    0.3943 C   0  0  1  0  0  0  0  0  0  0  0  0
   -1.9831    0.0725    1.7485 C   0  0  0  0  0  0  0  0  0  0  0  0
    0.2736   -0.0621   -1.2608 C   0  0  0  0  0  0  0  0  0  0  0  0
   -0.9670   -1.7422    0.1816 C   0  0  0  0  0  0  0  0  0  0  0  0
    1.6163    0.1325   -0.6218 C   0  0  0  0  0  0  0  0  0  0  0  0
   -2.7038    0.8957   -0.4993 C   0  0  0  0  0  0  0  0  0  0  0  0
    1.9769    1.3881   -0.1444 C   0  0  0  0  0  0  0  0  0  0  0  0
    2.4897   -0.9443   -0.5112 C   0  0  0  0  0  0  0  0  0  0  0  0
    3.2256    1.5691    0.4502 C   0  0  0  0  0  0  0  0  0  0  0  0
    3.7384   -0.7631    0.0835 C   0  0  0  0  0  0  0  0  0  0  0  0
    4.1063    0.4937    0.5642 C   0  0  0  0  0  0  0  0  0  0  0  0
   -1.2220    0.2452    2.5175 H   0  0  0  0  0  0  0  0  0  0  0  0
   -2.9222    0.5123    2.0970 H   0  0  0  0  0  0  0  0  0  0  0  0
   -0.0556    0.8419   -1.7852 H   0  0  0  0  0  0  0  0  0  0  0  0
    0.3297   -0.8475   -2.0226 H   0  0  0  0  0  0  0  0  0  0  0  0
   -0.7545    2.2561   -0.2761 H   0  0  0  0  0  0  0  0  0  0  0  0
    1.3461    2.2588   -0.2737 H   0  0  0  0  0  0  0  0  0  0  0  0
    2.2508   -1.9199   -0.9167 H   0  0  0  0  0  0  0  0  0  0  0  0
    3.5187    2.5509    0.8106 H   0  0  0  0  0  0  0  0  0  0  0  0
    4.4291   -1.5977    0.1621 H   0  0  0  0  0  0  0  0  0  0  0  0
   -3.4524    0.3698   -2.2179 H   0  0  0  0  0  0  0  0  0  0  0  0
    5.0809    0.6360    1.0218 H   0  0  0  0  0  0  0  0  0  0  0  0
  1  8  1  0  0  0  0
  1 10  1  0  0  0  0
  2 10  2  0  0  0  0
  3  7  1  0  0  0  0
  3 22  1  0  0  0  0
  4 12  1  0  0  0  0
  4 27  1  0  0  0  0
  5 12  2  0  0  0  0
  6  7  1  0  0  0  0
  6  9  1  0  0  0  0
  6 10  1  0  0  0  0
  7  8  1  0  0  0  0
  7 12  1  0  0  0  0
  8 18  1  0  0  0  0
  8 19  1  0  0  0  0
  9 11  1  0  0  0  0
  9 20  1  0  0  0  0
  9 21  1  0  0  0  0
 11 13  2  0  0  0  0
 11 14  1  0  0  0  0
 13 15  1  0  0  0  0
 13 23  1  0  0  0  0
 14 16  2  0  0  0  0
 14 24  1  0  0  0  0
 15 17  2  0  0  0  0
 15 25  1  0  0  0  0
 16 17  1  0  0  0  0
 16 26  1  0  0  0  0
 17 28  1  0  0  0  0
M  END
> <PUBCHEM_COMPOUND_CID>
134895

> <PUBCHEM_CONFORMER_RMSD>
0.6

> <PUBCHEM_CONFORMER_DIVERSEORDER>
1
16
9
27
25
8
17
29
13
6
19
23
5
24
20
26
2
12
28
10
3
14
18
21
22
15
7
4
11

> <PUBCHEM_MMFF94_PARTIAL_CHARGES>
24
1 -0.37
10 0.58
11 -0.14
12 0.66
13 -0.15
14 -0.15
15 -0.15
16 -0.15
17 -0.15
2 -0.38
22 0.4
23 0.15
24 0.15
25 0.15
26 0.15
27 0.5
28 0.15
3 -0.68
4 -0.65
5 -0.57
6 -0.66
7 0.64
8 0.23
9 0.44

> <PUBCHEM_EFFECTIVE_ROTOR_COUNT>
3.8

> <PUBCHEM_PHARMACOPHORE_FEATURES>
8
1 2 acceptor
1 3 acceptor
1 3 donor
1 4 acceptor
1 5 acceptor
3 4 5 12 anion
5 1 6 7 8 10 rings
6 11 13 14 15 16 17 rings

> <PUBCHEM_HEAVY_ATOM_COUNT>
17

> <PUBCHEM_ATOM_DEF_STEREO_COUNT>
0

> <PUBCHEM_ATOM_UDEF_STEREO_COUNT>
1

> <PUBCHEM_BOND_DEF_STEREO_COUNT>
0

> <PUBCHEM_BOND_UDEF_STEREO_COUNT>
0

> <PUBCHEM_ISOTOPIC_ATOM_COUNT>
0

> <PUBCHEM_COMPONENT_COUNT>
1

> <PUBCHEM_CACTVS_TAUTO_COUNT>
1

> <PUBCHEM_CONFORMER_ID>
00020EEF00000001

> <PUBCHEM_MMFF94_ENERGY>
45.0207

> <PUBCHEM_FEATURE_SELFOVERLAP>
40.654

> <PUBCHEM_SHAPE_FINGERPRINT>
12077114 3 18408602574004268328
12251169 10 18268719470829907818
12346177 29 17385718127602420947
12382932 28 18411703218475135602
12500047 106 18409162234181591396
12507560 14 18122892149913175042
12507560 40 18336270128003351480
12592029 89 18337669698836674883
13296908 3 18114186362757086792
13693222 15 18265058118415451754
14223421 5 18051416459418787466
15309172 13 18341902865615968546
15653759 3 18186810196561522600
15775835 57 17489586744884506736
15852999 172 18041847199158371519
16945 1 18342751701751592804
18186145 218 18339072692558037933
18219364 16 18339655463827650202
19422 9 11819281014059999708
200 152 17418084425477080125
20361792 2 15285638858487887110
21524375 3 18260827038789595687
23402539 116 18271232859605413709
23419403 2 16627131104279351515
23559900 14 18271802394387115314
25 1 18192147097233025053
257057 1 17548411965464036454
2748010 2 18338817657305133622
4340502 62 18190192196277751265
474 4 18271248196960053305
5706482 22 18335698330206446827
69090 78 18335696165527020815
7364860 26 17908703925862566215
74978 22 18410293648868646756
81228 2 17972602357627660691
84936 182 17832700171723738809
9709674 26 18343020004037512406

> <PUBCHEM_SHAPE_MULTIPOLES>
334.96
6.09
2.45
1.3
4.27
1.51
-0.13
-1.87
-0.84
-1.03
0.04
-0.88
0.1
0.71

> <PUBCHEM_SHAPE_SELFOVERLAP>
688.963

> <PUBCHEM_SHAPE_VOLUME>
194.3

> <PUBCHEM_COORDINATE_TYPE>
2
5
10

$$$$
