134817264
  -OEChem-03292013293D

 60 63  0     1  0  0  0  0  0999 V2000
   -4.9575   -2.8545    1.1306 F   0  0  0  0  0  0  0  0  0  0  0  0
    8.7167    0.2827   -1.5994 O   0  0  0  0  0  0  0  0  0  0  0  0
    2.6252    1.5542   -0.3233 O   0  0  0  0  0  0  0  0  0  0  0  0
    0.9928   -0.4438    1.8373 O   0  0  0  0  0  0  0  0  0  0  0  0
   -8.6730    2.4177   -1.3108 O   0  0  0  0  0  0  0  0  0  0  0  0
   -6.8140   -2.2189   -0.6063 O   0  0  0  0  0  0  0  0  0  0  0  0
   -0.2468    0.8893    0.5325 N   0  0  0  0  0  0  0  0  0  0  0  0
   -7.1373    0.0724   -0.7539 N   0  0  0  0  0  0  0  0  0  0  0  0
   -0.2667   -1.0497    1.7464 N   0  0  0  0  0  0  0  0  0  0  0  0
    8.1503   -1.8459   -0.7808 C   0  0  0  0  0  0  0  0  0  0  0  0
    8.5285   -2.1564    0.6220 C   0  0  0  0  0  0  0  0  0  0  0  0
    9.5645   -2.1705   -0.4619 C   0  0  0  0  0  0  0  0  0  0  0  0
    7.8113   -0.4176   -1.1221 C   0  0  0  0  0  0  0  0  0  0  0  0
    6.4660    0.0941   -0.9142 C   0  0  0  0  0  0  0  0  0  0  0  0
    6.1660    1.4179   -1.2352 C   0  0  0  0  0  0  0  0  0  0  0  0
    5.4753   -0.7392   -0.3945 C   0  0  0  0  0  0  0  0  0  0  0  0
    4.8754    1.9087   -1.0367 C   0  0  0  0  0  0  0  0  0  0  0  0
    4.1849   -0.2484   -0.1958 C   0  0  0  0  0  0  0  0  0  0  0  0
    3.8848    1.0755   -0.5169 C   0  0  0  0  0  0  0  0  0  0  0  0
    2.1346    1.5138    1.0324 C   0  0  1  0  0  0  0  0  0  0  0  0
    1.9678    2.9872    1.4924 C   0  0  0  0  0  0  0  0  0  0  0  0
    0.9187    0.6917    1.0948 C   0  0  0  0  0  0  0  0  0  0  0  0
    1.6365    3.1061    2.9727 C   0  0  0  0  0  0  0  0  0  0  0  0
   -8.5362    0.0215   -1.1145 C   0  0  2  0  0  0  0  0  0  0  0  0
   -0.9409   -0.2046    0.9609 C   0  0  0  0  0  0  0  0  0  0  0  0
   -2.3100   -0.4233    0.5864 C   0  0  0  0  0  0  0  0  0  0  0  0
   -4.9701   -0.8477   -0.1397 C   0  0  0  0  0  0  0  0  0  0  0  0
   -8.9053    1.2010   -2.0115 C   0  0  0  0  0  0  0  0  0  0  0  0
   -9.3948   -0.0011    0.1435 C   0  0  0  0  0  0  0  0  0  0  0  0
   -6.3866   -1.0701   -0.5278 C   0  0  0  0  0  0  0  0  0  0  0  0
   -2.9864   -1.5537    1.0451 C   0  0  0  0  0  0  0  0  0  0  0  0
   -2.9635    0.4948   -0.2355 C   0  0  0  0  0  0  0  0  0  0  0  0
   -4.3165   -1.7658    0.6822 C   0  0  0  0  0  0  0  0  0  0  0  0
   -4.2936    0.2826   -0.5985 C   0  0  0  0  0  0  0  0  0  0  0  0
    7.6033   -2.5979   -1.3406 H   0  0  0  0  0  0  0  0  0  0  0  0
   10.3117   -1.3869   -0.4432 H   0  0  0  0  0  0  0  0  0  0  0  0
    9.9465   -3.1338   -0.7787 H   0  0  0  0  0  0  0  0  0  0  0  0
    8.2139   -3.1083    1.0321 H   0  0  0  0  0  0  0  0  0  0  0  0
    8.5690   -1.3512    1.3455 H   0  0  0  0  0  0  0  0  0  0  0  0
    6.9211    2.0860   -1.6410 H   0  0  0  0  0  0  0  0  0  0  0  0
    5.6663   -1.7759   -0.1348 H   0  0  0  0  0  0  0  0  0  0  0  0
    4.6473    2.9409   -1.2879 H   0  0  0  0  0  0  0  0  0  0  0  0
    3.4221   -0.9144    0.1978 H   0  0  0  0  0  0  0  0  0  0  0  0
    2.8915    1.0713    1.6964 H   0  0  0  0  0  0  0  0  0  0  0  0
    2.8940    3.5375    1.2852 H   0  0  0  0  0  0  0  0  0  0  0  0
    1.1854    3.4760    0.8983 H   0  0  0  0  0  0  0  0  0  0  0  0
    0.6788    2.6314    3.2070 H   0  0  0  0  0  0  0  0  0  0  0  0
    1.5670    4.1603    3.2590 H   0  0  0  0  0  0  0  0  0  0  0  0
    2.4129    2.6391    3.5868 H   0  0  0  0  0  0  0  0  0  0  0  0
   -8.7155   -0.9053   -1.6727 H   0  0  0  0  0  0  0  0  0  0  0  0
   -6.7419    0.9887   -0.5688 H   0  0  0  0  0  0  0  0  0  0  0  0
   -8.2899    1.2057   -2.9174 H   0  0  0  0  0  0  0  0  0  0  0  0
   -9.9603    1.1592   -2.3012 H   0  0  0  0  0  0  0  0  0  0  0  0
   -9.2140    0.8751    0.7759 H   0  0  0  0  0  0  0  0  0  0  0  0
   -9.1732   -0.8870    0.7492 H   0  0  0  0  0  0  0  0  0  0  0  0
  -10.4599   -0.0275   -0.1092 H   0  0  0  0  0  0  0  0  0  0  0  0
   -2.5104   -2.2906    1.6870 H   0  0  0  0  0  0  0  0  0  0  0  0
   -2.4615    1.3819   -0.6137 H   0  0  0  0  0  0  0  0  0  0  0  0
   -4.7604    1.0049   -1.2621 H   0  0  0  0  0  0  0  0  0  0  0  0
   -8.9166    3.1428   -1.9110 H   0  0  0  0  0  0  0  0  0  0  0  0
  1 33  1  0  0  0  0
  2 13  2  0  0  0  0
  3 19  1  0  0  0  0
  3 20  1  0  0  0  0
  4  9  1  0  0  0  0
  4 22  1  0  0  0  0
  5 28  1  0  0  0  0
  5 60  1  0  0  0  0
  6 30  2  0  0  0  0
  7 22  2  0  0  0  0
  7 25  1  0  0  0  0
  8 24  1  0  0  0  0
  8 30  1  0  0  0  0
  8 51  1  0  0  0  0
  9 25  2  0  0  0  0
 10 11  1  0  0  0  0
 10 12  1  0  0  0  0
 10 13  1  0  0  0  0
 10 35  1  0  0  0  0
 11 12  1  0  0  0  0
 11 38  1  0  0  0  0
 11 39  1  0  0  0  0
 12 36  1  0  0  0  0
 12 37  1  0  0  0  0
 13 14  1  0  0  0  0
 14 15  2  0  0  0  0
 14 16  1  0  0  0  0
 15 17  1  0  0  0  0
 15 40  1  0  0  0  0
 16 18  2  0  0  0  0
 16 41  1  0  0  0  0
 17 19  2  0  0  0  0
 17 42  1  0  0  0  0
 18 19  1  0  0  0  0
 18 43  1  0  0  0  0
 20 21  1  0  0  0  0
 20 22  1  0  0  0  0
 20 44  1  0  0  0  0
 21 23  1  0  0  0  0
 21 45  1  0  0  0  0
 21 46  1  0  0  0  0
 23 47  1  0  0  0  0
 23 48  1  0  0  0  0
 23 49  1  0  0  0  0
 24 28  1  0  0  0  0
 24 29  1  0  0  0  0
 24 50  1  0  0  0  0
 25 26  1  0  0  0  0
 26 31  2  0  0  0  0
 26 32  1  0  0  0  0
 27 30  1  0  0  0  0
 27 33  2  0  0  0  0
 27 34  1  0  0  0  0
 28 52  1  0  0  0  0
 28 53  1  0  0  0  0
 29 54  1  0  0  0  0
 29 55  1  0  0  0  0
 29 56  1  0  0  0  0
 31 33  1  0  0  0  0
 31 57  1  0  0  0  0
 32 34  2  0  0  0  0
 32 58  1  0  0  0  0
 34 59  1  0  0  0  0
M  END
> <PUBCHEM_COMPOUND_CID>
134817264

> <PUBCHEM_CONFORMER_RMSD>
1.2

> <PUBCHEM_CONFORMER_DIVERSEORDER>
12
63
66
57
28
44
55
47
53
78
65
68
45
56
64
70
72
67
40
27
32
62
76
37
21
49
46
29
74
58
10
41
59
50
34
42
30
25
54
11
6
36
48
33
35
73
75
22
14
69
4
31
23
43
52
13
51
71
77
39
38
26
20
19
15
5
24
1
17
9
60
8
7
16
61
18
2
3

> <PUBCHEM_MMFF94_PARTIAL_CHARGES>
45
1 -0.19
10 -0.1
11 -0.2
12 -0.2
13 0.48
14 0.09
15 -0.15
16 -0.15
17 -0.15
18 -0.15
19 0.08
2 -0.57
20 0.46
22 0.3
24 0.3
25 0.46
26 0.05
27 0.09
28 0.28
3 -0.36
30 0.54
31 -0.15
32 -0.15
33 0.19
34 -0.15
35 0.1
36 0.1
37 0.1
38 0.1
39 0.1
4 -0.02
40 0.15
41 0.15
42 0.15
43 0.15
5 -0.68
51 0.37
57 0.15
58 0.15
59 0.15
6 -0.57
60 0.4
7 -0.57
8 -0.73
9 -0.41

> <PUBCHEM_EFFECTIVE_ROTOR_COUNT>
11.6

> <PUBCHEM_PHARMACOPHORE_FEATURES>
11
1 2 acceptor
1 23 hydrophobe
1 3 acceptor
1 5 acceptor
1 5 donor
1 6 acceptor
1 8 donor
3 7 9 25 cation
5 4 7 9 22 25 rings
6 14 15 16 17 18 19 rings
6 26 27 31 32 33 34 rings

> <PUBCHEM_HEAVY_ATOM_COUNT>
34

> <PUBCHEM_ATOM_DEF_STEREO_COUNT>
2

> <PUBCHEM_ATOM_UDEF_STEREO_COUNT>
0

> <PUBCHEM_BOND_DEF_STEREO_COUNT>
0

> <PUBCHEM_BOND_UDEF_STEREO_COUNT>
0

> <PUBCHEM_ISOTOPIC_ATOM_COUNT>
0

> <PUBCHEM_COMPONENT_COUNT>
1

> <PUBCHEM_CACTVS_TAUTO_COUNT>
40

> <PUBCHEM_CONFORMER_ID>
080925F00000000C

> <PUBCHEM_MMFF94_ENERGY>
82.3402

> <PUBCHEM_FEATURE_SELFOVERLAP>
55.824

> <PUBCHEM_SHAPE_FINGERPRINT>
10 15 9079115557382208284
10055352 69 12396591753587199831
106641 1 11239996754598443854
10670039 82 17675920980496674357
10674148 151 17603301570545443924
10917259 69 18058735672698784609
11115154 58 17167866361817502228
11411753 3 18194398034169390427
11720765 8 18270684293973039088
11828042 206 18333447647559740372
1200032 147 16008744706292582673
12013929 112 17895191074070659191
13008946 282 15840981303936478976
13383668 362 11671192264160454223
14400156 413 18270959180317196624
14664723 55 16588031203252244653
15064981 194 16661792005568932863
15183329 4 17967814946888028482
15188451 53 15913334593471626064
15230672 131 18334290985330474003
15320295 40 16988843873517451150
15350500 16 17418374684120684344
15392192 104 8718826496741003916
15706992 2 13984668018896155871
15728490 51 10879984762249668125
1577012 14 15936682761230984011
15773216 30 16950836986925807810
16664035 7 14117799111580938491
19304671 126 16153997949897996084
20105231 36 18041288755248493947
2026 5 18272091586977894134
20505436 4 14923939080702529577
20609170 45 18044083554117173622
21095123 145 14345801565652757769
21344244 78 14907909288692911304
21585481 104 17313108553548383652
21792961 116 18411984637659534491
23559900 14 18265897049792547865
23729398 52 15359079470744753872
24771293 8 8574715706785272083
3004659 81 18260270763879899754
3383291 50 14405188408776603389
3418910 222 7997694233258479175
3633792 109 18041001739620922290
3711267 37 15213020440563483319
4149490 64 15266482067650334015
439807 62 18410577284356299692
474113 269 18201722808951499534
58083652 198 17989212577141775128
59682541 35 10447923975300939823
6081469 158 17894914010378484118
6126387 218 14333132953854213315
6201320 82 16879612806328467125
6438161 24 16774077379755368991
9663363 56 17989485226182029840
9962374 69 16343411903533851981

> <PUBCHEM_SHAPE_MULTIPOLES>
648.14
33.54
2.74
1.8
9.79
1.03
-0.48
-13.59
19.68
-1.96
-1.3
0.3
1.01
1.91

> <PUBCHEM_SHAPE_SELFOVERLAP>
1390.089

> <PUBCHEM_SHAPE_VOLUME>
359.6

> <PUBCHEM_COORDINATE_TYPE>
2
5
10

$$$$
