134823883
  -OEChem-03292013293D

 54 54  0     1  0  0  0  0  0999 V2000
   -1.5023   -2.2992   -1.5970 O   0  0  0  0  0  0  0  0  0  0  0  0
   -3.2502   -1.4703    2.2056 O   0  0  0  0  0  0  0  0  0  0  0  0
   -2.9506    3.0183   -0.1438 O   0  0  0  0  0  0  0  0  0  0  0  0
   -2.4062    1.0496    1.8020 O   0  0  0  0  0  0  0  0  0  0  0  0
    0.9835    0.7943    1.7976 O   0  0  0  0  0  0  0  0  0  0  0  0
    5.1771    0.0988   -1.6625 O   0  0  0  0  0  0  0  0  0  0  0  0
    6.3490    0.1047    0.2785 O   0  0  0  0  0  0  0  0  0  0  0  0
    0.5971    1.8996   -0.2082 N   0  0  0  0  0  0  0  0  0  0  0  0
    5.0456   -2.2061    1.0263 N   0  0  0  0  0  0  0  0  0  0  0  0
   -2.6454   -1.4508   -1.4930 C   0  0  1  0  0  0  0  0  0  0  0  0
   -2.1327    0.8359   -0.5533 C   0  0  0  0  0  0  0  0  0  0  0  0
   -3.3570   -1.7601   -0.1809 C   0  0  0  0  0  0  0  0  0  0  0  0
   -2.5720   -1.2010    0.9916 C   0  0  1  0  0  0  0  0  0  0  0  0
   -2.2145    0.0003   -1.6128 C   0  0  0  0  0  0  0  0  0  0  0  0
   -1.8100    2.3034   -0.6027 C   0  0  2  0  0  0  0  0  0  0  0  0
   -0.5612    2.6530    0.2210 C   0  0  2  0  0  0  0  0  0  0  0  0
   -2.3887    0.2954    0.8293 C   0  0  0  0  0  0  0  0  0  0  0  0
   -1.9166    0.4188   -3.0328 C   0  0  0  0  0  0  0  0  0  0  0  0
   -0.2435    4.1456    0.1702 C   0  0  0  0  0  0  0  0  0  0  0  0
    1.2754    1.0263    0.6276 C   0  0  0  0  0  0  0  0  0  0  0  0
    2.4540    0.3805   -0.0809 C   0  0  0  0  0  0  0  0  0  0  0  0
   -1.8723   -3.6240   -1.9466 C   0  0  0  0  0  0  0  0  0  0  0  0
    3.2187   -0.5885    0.8231 C   0  0  0  0  0  0  0  0  0  0  0  0
   -3.0524   -2.8131    2.6329 C   0  0  0  0  0  0  0  0  0  0  0  0
    4.3656   -1.3003    0.0971 C   0  0  1  0  0  0  0  0  0  0  0  0
    5.4096   -0.3110   -0.3883 C   0  0  0  0  0  0  0  0  0  0  0  0
   -3.3418   -1.6606   -2.3168 H   0  0  0  0  0  0  0  0  0  0  0  0
   -4.3523   -1.2929   -0.1932 H   0  0  0  0  0  0  0  0  0  0  0  0
   -3.5473   -2.8277   -0.0575 H   0  0  0  0  0  0  0  0  0  0  0  0
   -1.5597   -1.6258    1.0328 H   0  0  0  0  0  0  0  0  0  0  0  0
   -1.6520    2.6445   -1.6282 H   0  0  0  0  0  0  0  0  0  0  0  0
   -0.7249    2.4569    1.2838 H   0  0  0  0  0  0  0  0  0  0  0  0
   -1.3732   -0.3763   -3.5558 H   0  0  0  0  0  0  0  0  0  0  0  0
   -1.2853    1.3063   -3.1067 H   0  0  0  0  0  0  0  0  0  0  0  0
   -2.8501    0.6046   -3.5731 H   0  0  0  0  0  0  0  0  0  0  0  0
   -0.0420    4.4717   -0.8563 H   0  0  0  0  0  0  0  0  0  0  0  0
   -1.0716    4.7445    0.5626 H   0  0  0  0  0  0  0  0  0  0  0  0
    0.6470    4.3745    0.7666 H   0  0  0  0  0  0  0  0  0  0  0  0
    0.9177    2.0233   -1.1645 H   0  0  0  0  0  0  0  0  0  0  0  0
   -2.9903    2.9448    0.8250 H   0  0  0  0  0  0  0  0  0  0  0  0
    2.0749   -0.1497   -0.9626 H   0  0  0  0  0  0  0  0  0  0  0  0
    3.1107    1.1883   -0.4226 H   0  0  0  0  0  0  0  0  0  0  0  0
    3.6066   -0.0324    1.6877 H   0  0  0  0  0  0  0  0  0  0  0  0
    2.5199   -1.3358    1.2221 H   0  0  0  0  0  0  0  0  0  0  0  0
   -0.9571   -4.1665   -2.2027 H   0  0  0  0  0  0  0  0  0  0  0  0
   -2.3352   -4.1510   -1.1092 H   0  0  0  0  0  0  0  0  0  0  0  0
   -2.5271   -3.6428   -2.8235 H   0  0  0  0  0  0  0  0  0  0  0  0
   -3.5043   -2.9187    3.6234 H   0  0  0  0  0  0  0  0  0  0  0  0
   -1.9864   -3.0457    2.7202 H   0  0  0  0  0  0  0  0  0  0  0  0
   -3.5447   -3.5245    1.9656 H   0  0  0  0  0  0  0  0  0  0  0  0
    3.9930   -1.8837   -0.7522 H   0  0  0  0  0  0  0  0  0  0  0  0
    5.7546   -2.7403    0.5249 H   0  0  0  0  0  0  0  0  0  0  0  0
    4.3795   -2.8887    1.3862 H   0  0  0  0  0  0  0  0  0  0  0  0
    5.8471    0.7480   -1.9656 H   0  0  0  0  0  0  0  0  0  0  0  0
  1 10  1  0  0  0  0
  1 22  1  0  0  0  0
  2 13  1  0  0  0  0
  2 24  1  0  0  0  0
  3 15  1  0  0  0  0
  3 40  1  0  0  0  0
  4 17  2  0  0  0  0
  5 20  2  0  0  0  0
  6 26  1  0  0  0  0
  6 54  1  0  0  0  0
  7 26  2  0  0  0  0
  8 16  1  0  0  0  0
  8 20  1  0  0  0  0
  8 39  1  0  0  0  0
  9 25  1  0  0  0  0
  9 52  1  0  0  0  0
  9 53  1  0  0  0  0
 10 12  1  0  0  0  0
 10 14  1  0  0  0  0
 10 27  1  0  0  0  0
 11 14  2  0  0  0  0
 11 15  1  0  0  0  0
 11 17  1  0  0  0  0
 12 13  1  0  0  0  0
 12 28  1  0  0  0  0
 12 29  1  0  0  0  0
 13 17  1  0  0  0  0
 13 30  1  0  0  0  0
 14 18  1  0  0  0  0
 15 16  1  0  0  0  0
 15 31  1  0  0  0  0
 16 19  1  0  0  0  0
 16 32  1  0  0  0  0
 18 33  1  0  0  0  0
 18 34  1  0  0  0  0
 18 35  1  0  0  0  0
 19 36  1  0  0  0  0
 19 37  1  0  0  0  0
 19 38  1  0  0  0  0
 20 21  1  0  0  0  0
 21 23  1  0  0  0  0
 21 41  1  0  0  0  0
 21 42  1  0  0  0  0
 22 45  1  0  0  0  0
 22 46  1  0  0  0  0
 22 47  1  0  0  0  0
 23 25  1  0  0  0  0
 23 43  1  0  0  0  0
 23 44  1  0  0  0  0
 24 48  1  0  0  0  0
 24 49  1  0  0  0  0
 24 50  1  0  0  0  0
 25 26  1  0  0  0  0
 25 51  1  0  0  0  0
M  END
> <PUBCHEM_COMPOUND_CID>
134823883

> <PUBCHEM_CONFORMER_RMSD>
1

> <PUBCHEM_CONFORMER_DIVERSEORDER>
1
112
63
73
95
93
124
108
60
115
98
111
49
53
46
35
85
77
118
59
51
30
9
76
82
104
94
68
26
58
62
64
87
66
22
19
99
38
119
10
24
70
15
126
52
83
48
23
45
27
101
78
67
80
29
116
106
103
12
17
105
123
90
6
57
89
91
47
43
2
102
113
120
75
100
61
33
18
55
32
14
50
84
56
114
110
96
109
41
122
28
86
37
36
3
79
31
125
117
21
121
7
42
88
34
39
16
40
54
20
74
25
107
8
44
97
72
65
92
69
71
11
5
13
81
4

> <PUBCHEM_MMFF94_PARTIAL_CHARGES>
28
1 -0.56
10 0.42
11 -0.12
13 0.34
14 -0.28
15 0.42
16 0.3
17 0.49
18 0.14
2 -0.56
20 0.57
21 0.06
22 0.28
24 0.28
25 0.33
26 0.66
3 -0.68
39 0.37
4 -0.57
40 0.4
5 -0.57
52 0.36
53 0.36
54 0.5
6 -0.65
7 -0.57
8 -0.73
9 -0.99

> <PUBCHEM_EFFECTIVE_ROTOR_COUNT>
10.6

> <PUBCHEM_PHARMACOPHORE_FEATURES>
13
1 1 acceptor
1 2 acceptor
1 3 acceptor
1 3 donor
1 4 acceptor
1 5 acceptor
1 6 acceptor
1 7 acceptor
1 8 donor
1 9 cation
1 9 donor
3 6 7 26 anion
6 10 11 12 13 14 17 rings

> <PUBCHEM_HEAVY_ATOM_COUNT>
26

> <PUBCHEM_ATOM_DEF_STEREO_COUNT>
5

> <PUBCHEM_ATOM_UDEF_STEREO_COUNT>
0

> <PUBCHEM_BOND_DEF_STEREO_COUNT>
0

> <PUBCHEM_BOND_UDEF_STEREO_COUNT>
0

> <PUBCHEM_ISOTOPIC_ATOM_COUNT>
0

> <PUBCHEM_COMPONENT_COUNT>
1

> <PUBCHEM_CACTVS_TAUTO_COUNT>
10

> <PUBCHEM_CONFORMER_ID>
08093FCB00000001

> <PUBCHEM_MMFF94_ENERGY>
47.9224

> <PUBCHEM_FEATURE_SELFOVERLAP>
66.045

> <PUBCHEM_SHAPE_FINGERPRINT>
10764073 3 18261408724081296379
107951 10 17899700063934304307
10928967 22 18343024410948738862
11014199 57 17912076458822281502
121448 382 16588025710453368128
12553582 1 18341607144438419950
12633257 1 17274556428308410731
12788726 201 18192416498866957633
13135754 10 18124628359950291041
13383661 66 15817078221939256822
14844126 61 18268976635991127306
14863182 85 16384547090740401507
17349148 13 17675927595474167168
18927931 339 18340207402133705990
20101258 96 18341895199405917528
20775530 9 17769638030062943406
23598288 3 18337689549801328053
23728640 28 18198612251236845677
3027735 51 17773857741215698543
329604 57 18041005089531986874
3411729 13 17189537469581814049
437815 12 18261396706378070179
469060 322 18201440315160470703
484985 159 18341039753404808831
4921388 177 18040436547040431768
497634 4 17530977873107702310
70251023 43 18121202436622202687

> <PUBCHEM_SHAPE_MULTIPOLES>
484.02
9.69
4.03
2.33
21.58
1.53
-0.26
-5.79
0.37
-3.24
0.06
-2.57
-1.58
0.16

> <PUBCHEM_SHAPE_SELFOVERLAP>
973.496

> <PUBCHEM_SHAPE_VOLUME>
283.3

> <PUBCHEM_COORDINATE_TYPE>
2
5
10

$$$$
