134824564
  -OEChem-03292013293D

 24 25  0     0  0  0  0  0  0999 V2000
   -1.8863   -1.4669   -0.1082 S   0  0  0  0  0  0  0  0  0  0  0  0
   -0.8048   -1.9402   -0.9632 O   0  0  0  0  0  0  0  0  0  0  0  0
   -2.0450   -2.0258    1.2281 O   0  0  0  0  0  0  0  0  0  0  0  0
    4.6172   -0.7067   -0.0406 O   0  0  0  0  0  0  0  0  0  0  0  0
   -0.6416    1.0099    0.1052 N   0  0  0  0  0  0  0  0  0  0  0  0
   -2.8093    1.0735    0.1097 N   0  0  0  0  0  0  0  0  0  0  0  0
   -0.9559    2.3080    0.2172 N   0  0  0  0  0  0  0  0  0  0  0  0
   -2.2830    2.3409    0.2191 N   0  0  0  0  0  0  0  0  0  0  0  0
   -1.7764    0.2657    0.0406 C   0  0  0  0  0  0  0  0  0  0  0  0
    0.6724    0.5799    0.0680 C   0  0  0  0  0  0  0  0  0  0  0  0
   -3.4033   -1.7426   -0.9968 C   0  0  0  0  0  0  0  0  0  0  0  0
    1.1465   -0.2991    1.0420 C   0  0  0  0  0  0  0  0  0  0  0  0
    1.5240    1.0261   -0.9425 C   0  0  0  0  0  0  0  0  0  0  0  0
    2.4721   -0.7315    1.0055 C   0  0  0  0  0  0  0  0  0  0  0  0
    2.8497    0.5938   -0.9791 C   0  0  0  0  0  0  0  0  0  0  0  0
    3.3237   -0.2850   -0.0051 C   0  0  0  0  0  0  0  0  0  0  0  0
   -3.5209   -2.8191   -1.1389 H   0  0  0  0  0  0  0  0  0  0  0  0
   -4.2368   -1.3531   -0.4095 H   0  0  0  0  0  0  0  0  0  0  0  0
   -3.3417   -1.2437   -1.9659 H   0  0  0  0  0  0  0  0  0  0  0  0
    0.5032   -0.6487    1.8456 H   0  0  0  0  0  0  0  0  0  0  0  0
    1.1703    1.7082   -1.7119 H   0  0  0  0  0  0  0  0  0  0  0  0
    2.8364   -1.4140    1.7685 H   0  0  0  0  0  0  0  0  0  0  0  0
    3.5028    0.9482   -1.7721 H   0  0  0  0  0  0  0  0  0  0  0  0
    5.0604   -0.2996   -0.8047 H   0  0  0  0  0  0  0  0  0  0  0  0
  1  2  2  0  0  0  0
  1  3  2  0  0  0  0
  1  9  1  0  0  0  0
  1 11  1  0  0  0  0
  4 16  1  0  0  0  0
  4 24  1  0  0  0  0
  5  7  1  0  0  0  0
  5  9  1  0  0  0  0
  5 10  1  0  0  0  0
  6  8  1  0  0  0  0
  6  9  2  0  0  0  0
  7  8  2  0  0  0  0
 10 12  2  0  0  0  0
 10 13  1  0  0  0  0
 11 17  1  0  0  0  0
 11 18  1  0  0  0  0
 11 19  1  0  0  0  0
 12 14  1  0  0  0  0
 12 20  1  0  0  0  0
 13 15  2  0  0  0  0
 13 21  1  0  0  0  0
 14 16  2  0  0  0  0
 14 22  1  0  0  0  0
 15 16  1  0  0  0  0
 15 23  1  0  0  0  0
M  END
> <PUBCHEM_COMPOUND_CID>
134824564

> <PUBCHEM_CONFORMER_RMSD>
0.6

> <PUBCHEM_CONFORMER_DIVERSEORDER>
1
5
4
8
7
3
2
6

> <PUBCHEM_MMFF94_PARTIAL_CHARGES>
20
1 1.26
10 -0.02
11 0.11
12 -0.15
13 -0.15
14 -0.15
15 -0.15
16 0.08
2 -0.65
20 0.15
21 0.15
22 0.15
23 0.15
24 0.45
3 -0.65
4 -0.53
5 0.59
6 -0.34
7 -0.42
9 0.12

> <PUBCHEM_EFFECTIVE_ROTOR_COUNT>
2

> <PUBCHEM_PHARMACOPHORE_FEATURES>
6
1 2 acceptor
1 3 acceptor
1 4 donor
3 5 6 9 cation
5 5 6 7 8 9 rings
6 10 12 13 14 15 16 rings

> <PUBCHEM_HEAVY_ATOM_COUNT>
16

> <PUBCHEM_ATOM_DEF_STEREO_COUNT>
0

> <PUBCHEM_ATOM_UDEF_STEREO_COUNT>
0

> <PUBCHEM_BOND_DEF_STEREO_COUNT>
0

> <PUBCHEM_BOND_UDEF_STEREO_COUNT>
0

> <PUBCHEM_ISOTOPIC_ATOM_COUNT>
0

> <PUBCHEM_COMPONENT_COUNT>
1

> <PUBCHEM_CACTVS_TAUTO_COUNT>
2

> <PUBCHEM_CONFORMER_ID>
0809427400000001

> <PUBCHEM_MMFF94_ENERGY>
44.5401

> <PUBCHEM_FEATURE_SELFOVERLAP>
30.464

> <PUBCHEM_SHAPE_FINGERPRINT>
12202030 40 17059514983582573732
12500047 106 18198335165848703696
12553582 1 18196096774654183599
13538477 17 18333728000837037032
14115302 16 17823132492089928439
15279307 12 18187929409077795418
15669948 3 18410575071952393300
15848700 24 17986658463064433591
15906896 17 18336834091616488577
16752209 62 18339066155981861943
16945 1 18261673679622314952
19422 9 18260554432967856518
20361792 2 18127689555125692071
20645476 183 17968375646051739723
20871998 184 18343587339015184831
21524375 3 18120939408588174049
21634736 98 18189905386418603732
232386 152 18410014346929136076
23402539 116 18271235028748670461
23557571 272 18130790100886222848
23559900 14 17987513720329288610
23598291 2 18186812369883669932
2748010 2 18196922486627831289
3286 77 16271643515598390075
465052 167 18122639511574347155
6992083 37 18189063001334680356
77492 1 18113618963048787132
81228 2 18411131468007468721
90525 40 18336549304718904039
9709674 26 18341899563060723614

> <PUBCHEM_SHAPE_MULTIPOLES>
295.59
6.02
2.24
1.05
3.39
0.56
0
-2.04
-0.76
-2.19
0.05
0.09
-0.31
-0.69

> <PUBCHEM_SHAPE_SELFOVERLAP>
619.231

> <PUBCHEM_SHAPE_VOLUME>
168.3

> <PUBCHEM_COORDINATE_TYPE>
2
5
10

$$$$
