134859
  -OEChem-03292013323D

 63 64  0     1  0  0  0  0  0999 V2000
    0.9728    0.1567    1.5938 O   0  0  0  0  0  0  0  0  0  0  0  0
   -1.5054    0.9089   -1.3669 O   0  0  0  0  0  0  0  0  0  0  0  0
   -3.6420   -0.9295   -1.5640 O   0  0  0  0  0  0  0  0  0  0  0  0
    4.8565   -1.4736    0.5754 O   0  0  0  0  0  0  0  0  0  0  0  0
    4.9325    0.1193   -1.0774 O   0  0  0  0  0  0  0  0  0  0  0  0
    0.1564    1.9849    0.4331 N   0  0  0  0  0  0  0  0  0  0  0  0
   -6.1128   -0.9489   -0.1489 N   0  0  1  0  0  0  0  0  0  0  0  0
   -2.9634    0.2498    0.3363 N   0  0  0  0  0  0  0  0  0  0  0  0
    3.1229   -0.0581    0.3643 N   0  0  0  0  0  0  0  0  0  0  0  0
   -1.2445    1.8533    0.8117 C   0  0  1  0  0  0  0  0  0  0  0  0
   -1.7961    3.2731    0.7548 C   0  0  0  0  0  0  0  0  0  0  0  0
   -0.9336    3.9466   -0.3097 C   0  0  0  0  0  0  0  0  0  0  0  0
    0.4347    3.3155   -0.1017 C   0  0  0  0  0  0  0  0  0  0  0  0
   -4.8236   -1.2501    0.4827 C   0  0  1  0  0  0  0  0  0  0  0  0
   -4.7208   -2.7753    0.5028 C   0  0  0  0  0  0  0  0  0  0  0  0
   -6.0032   -3.2606   -0.1571 C   0  0  0  0  0  0  0  0  0  0  0  0
   -6.9683   -2.1145    0.0744 C   0  0  0  0  0  0  0  0  0  0  0  0
    1.0977    1.0059    0.7098 C   0  0  0  0  0  0  0  0  0  0  0  0
    2.3268    1.0210   -0.1636 C   0  0  0  0  0  0  0  0  0  0  0  0
   -1.8948    0.9623   -0.2035 C   0  0  0  0  0  0  0  0  0  0  0  0
   -3.7612   -0.6435   -0.3758 C   0  0  0  0  0  0  0  0  0  0  0  0
   -6.7185    0.2808    0.3442 C   0  0  0  0  0  0  0  0  0  0  0  0
    1.9361    0.7554   -1.6117 C   0  0  0  0  0  0  0  0  0  0  0  0
    3.0480    2.3549   -0.0190 C   0  0  0  0  0  0  0  0  0  0  0  0
    4.3584   -0.4186   -0.1362 C   0  0  0  0  0  0  0  0  0  0  0  0
    6.1404   -1.9549    0.1625 C   0  0  0  0  0  0  0  0  0  0  0  0
    6.5135   -3.1165    1.0810 C   0  0  0  0  0  0  0  0  0  0  0  0
    7.1519   -0.8175    0.2960 C   0  0  0  0  0  0  0  0  0  0  0  0
    6.0396   -2.4271   -1.2872 C   0  0  0  0  0  0  0  0  0  0  0  0
   -1.3195    1.4184    1.8141 H   0  0  0  0  0  0  0  0  0  0  0  0
   -2.8627    3.3233    0.5155 H   0  0  0  0  0  0  0  0  0  0  0  0
   -1.6360    3.7723    1.7184 H   0  0  0  0  0  0  0  0  0  0  0  0
   -0.9132    5.0358   -0.2128 H   0  0  0  0  0  0  0  0  0  0  0  0
   -1.3175    3.7038   -1.3078 H   0  0  0  0  0  0  0  0  0  0  0  0
    0.9387    3.2998   -1.0642 H   0  0  0  0  0  0  0  0  0  0  0  0
    0.9996    3.8872    0.6401 H   0  0  0  0  0  0  0  0  0  0  0  0
   -4.7802   -0.8850    1.5164 H   0  0  0  0  0  0  0  0  0  0  0  0
   -3.8375   -3.1757   -0.0057 H   0  0  0  0  0  0  0  0  0  0  0  0
   -4.6955   -3.1274    1.5415 H   0  0  0  0  0  0  0  0  0  0  0  0
   -5.8378   -3.4127   -1.2309 H   0  0  0  0  0  0  0  0  0  0  0  0
   -6.3588   -4.2024    0.2708 H   0  0  0  0  0  0  0  0  0  0  0  0
   -7.8096   -2.1472   -0.6246 H   0  0  0  0  0  0  0  0  0  0  0  0
   -7.3556   -2.1477    1.1007 H   0  0  0  0  0  0  0  0  0  0  0  0
   -3.1782    0.4026    1.3184 H   0  0  0  0  0  0  0  0  0  0  0  0
   -7.6675    0.4703   -0.1693 H   0  0  0  0  0  0  0  0  0  0  0  0
   -6.0704    1.1400    0.1399 H   0  0  0  0  0  0  0  0  0  0  0  0
   -6.9132    0.2462    1.4222 H   0  0  0  0  0  0  0  0  0  0  0  0
    2.8057    0.7715   -2.2773 H   0  0  0  0  0  0  0  0  0  0  0  0
    1.4754   -0.2357   -1.7123 H   0  0  0  0  0  0  0  0  0  0  0  0
    1.2178    1.4699   -2.0194 H   0  0  0  0  0  0  0  0  0  0  0  0
    2.8545    3.0682   -0.8228 H   0  0  0  0  0  0  0  0  0  0  0  0
    4.1367    2.2273   -0.0588 H   0  0  0  0  0  0  0  0  0  0  0  0
    2.8723    2.8261    0.9547 H   0  0  0  0  0  0  0  0  0  0  0  0
    2.7764   -0.6001    1.1514 H   0  0  0  0  0  0  0  0  0  0  0  0
    5.7630   -3.9132    1.0238 H   0  0  0  0  0  0  0  0  0  0  0  0
    6.5400   -2.7909    2.1274 H   0  0  0  0  0  0  0  0  0  0  0  0
    7.4897   -3.5414    0.8258 H   0  0  0  0  0  0  0  0  0  0  0  0
    7.1035   -0.0694   -0.4993 H   0  0  0  0  0  0  0  0  0  0  0  0
    8.1751   -1.2109    0.2669 H   0  0  0  0  0  0  0  0  0  0  0  0
    7.0238   -0.2874    1.2470 H   0  0  0  0  0  0  0  0  0  0  0  0
    5.1408   -3.0362   -1.4391 H   0  0  0  0  0  0  0  0  0  0  0  0
    6.9093   -3.0409   -1.5508 H   0  0  0  0  0  0  0  0  0  0  0  0
    6.0112   -1.6233   -2.0270 H   0  0  0  0  0  0  0  0  0  0  0  0
  1 18  2  0  0  0  0
  2 20  2  0  0  0  0
  3 21  2  0  0  0  0
  4 25  1  0  0  0  0
  4 26  1  0  0  0  0
  5 25  2  0  0  0  0
  6 10  1  0  0  0  0
  6 13  1  0  0  0  0
  6 18  1  0  0  0  0
  7 14  1  0  0  0  0
  7 17  1  0  0  0  0
  7 22  1  0  0  0  0
  8 20  1  0  0  0  0
  8 21  1  0  0  0  0
  8 44  1  0  0  0  0
  9 19  1  0  0  0  0
  9 25  1  0  0  0  0
  9 54  1  0  0  0  0
 10 11  1  0  0  0  0
 10 20  1  0  0  0  0
 10 30  1  0  0  0  0
 11 12  1  0  0  0  0
 11 31  1  0  0  0  0
 11 32  1  0  0  0  0
 12 13  1  0  0  0  0
 12 33  1  0  0  0  0
 12 34  1  0  0  0  0
 13 35  1  0  0  0  0
 13 36  1  0  0  0  0
 14 15  1  0  0  0  0
 14 21  1  0  0  0  0
 14 37  1  0  0  0  0
 15 16  1  0  0  0  0
 15 38  1  0  0  0  0
 15 39  1  0  0  0  0
 16 17  1  0  0  0  0
 16 40  1  0  0  0  0
 16 41  1  0  0  0  0
 17 42  1  0  0  0  0
 17 43  1  0  0  0  0
 18 19  1  0  0  0  0
 19 23  1  0  0  0  0
 19 24  1  0  0  0  0
 22 45  1  0  0  0  0
 22 46  1  0  0  0  0
 22 47  1  0  0  0  0
 23 48  1  0  0  0  0
 23 49  1  0  0  0  0
 23 50  1  0  0  0  0
 24 51  1  0  0  0  0
 24 52  1  0  0  0  0
 24 53  1  0  0  0  0
 26 27  1  0  0  0  0
 26 28  1  0  0  0  0
 26 29  1  0  0  0  0
 27 55  1  0  0  0  0
 27 56  1  0  0  0  0
 27 57  1  0  0  0  0
 28 58  1  0  0  0  0
 28 59  1  0  0  0  0
 28 60  1  0  0  0  0
 29 61  1  0  0  0  0
 29 62  1  0  0  0  0
 29 63  1  0  0  0  0
M  END
> <PUBCHEM_COMPOUND_CID>
134859

> <PUBCHEM_CONFORMER_RMSD>
1

> <PUBCHEM_CONFORMER_DIVERSEORDER>
13
55
36
192
191
100
40
64
74
144
205
123
163
173
125
187
146
217
186
70
129
175
9
130
154
213
216
107
62
99
152
19
229
139
72
128
132
77
196
153
172
220
193
26
180
181
27
88
83
110
148
115
166
155
141
170
61
147
214
227
127
204
179
185
178
159
51
137
207
42
171
176
101
160
218
182
20
82
211
22
73
46
113
140
94
60
209
103
203
98
38
168
206
135
49
87
195
111
169
121
96
215
112
89
228
183
194
188
164
190
86
134
109
14
158
131
5
57
104
165
208
50
52
210
189
116
136
223
143
35
43
212
59
6
92
161
63
79
138
157
2
80
122
37
120
150
202
90
58
201
8
66
33
11
224
28
222
126
75
149
31
225
15
71
84
53
162
76
25
156
105
93
219
184
231
39
102
133
114
197
221
198
10
29
12
23
18
118
67
151
174
177
230
200
81
21
65
199
108
56
7
68
16
48
95
117
4
44
30
41
91
24
47
54
167
1
17
85
124
34
142
97
45
69
145
3
32
226
119
78
106

> <PUBCHEM_MMFF94_PARTIAL_CHARGES>
22
1 -0.57
10 0.36
13 0.3
14 0.33
17 0.27
18 0.57
19 0.36
2 -0.57
20 0.57
21 0.57
22 0.27
25 0.78
26 0.28
3 -0.57
4 -0.43
44 0.37
5 -0.57
54 0.37
6 -0.66
7 -0.81
8 -0.49
9 -0.73

> <PUBCHEM_EFFECTIVE_ROTOR_COUNT>
12

> <PUBCHEM_PHARMACOPHORE_FEATURES>
11
1 1 acceptor
1 2 acceptor
1 3 acceptor
1 5 acceptor
1 7 cation
1 8 donor
1 9 donor
3 19 23 24 hydrophobe
4 26 27 28 29 hydrophobe
5 6 10 11 12 13 rings
5 7 14 15 16 17 rings

> <PUBCHEM_HEAVY_ATOM_COUNT>
29

> <PUBCHEM_ATOM_DEF_STEREO_COUNT>
2

> <PUBCHEM_ATOM_UDEF_STEREO_COUNT>
0

> <PUBCHEM_BOND_DEF_STEREO_COUNT>
0

> <PUBCHEM_BOND_UDEF_STEREO_COUNT>
0

> <PUBCHEM_ISOTOPIC_ATOM_COUNT>
0

> <PUBCHEM_COMPONENT_COUNT>
1

> <PUBCHEM_CACTVS_TAUTO_COUNT>
6

> <PUBCHEM_CONFORMER_ID>
00020ECB0000000D

> <PUBCHEM_MMFF94_ENERGY>
94.0712

> <PUBCHEM_FEATURE_SELFOVERLAP>
55.824

> <PUBCHEM_SHAPE_FINGERPRINT>
10 15 11023827292916288775
10050765 1 18411419501268215856
10411042 1 18410855468744989969
10622 236 17752187415031036882
10939801 23 18271522104995568630
11135609 12 18272934890814923262
11135926 11 18053087704277495908
117089 54 18338524148247583427
11809386 21 18264765463659819210
11963148 33 18195239151801214910
12107183 9 18341905082758181633
12166972 35 17967817171106146751
12422481 6 17275389793560450014
12592606 108 18411697717165867935
12633257 1 15697714908514173453
12760667 363 18413386527869766143
12895836 83 8934995958538509047
13248334 5 18050287269278138545
13540713 4 18267845285608217177
13540713 5 18338818744418000448
13631057 29 18409448047270424226
13690498 29 18040710360291423893
13782708 43 18040711502399698987
13911852 28 18340203098402363055
13955234 65 17766281251597456753
14068700 675 18334294249636662464
14251764 30 18409727400185390591
14347332 77 18335984177612715532
14420673 8 18409450306692792667
14866123 147 18339930303771186601
15042514 8 18341334379687690185
16120349 189 10303815371647462243
16120349 21 18271253703414146993
16992752 21 18340217340635638956
17492 89 18410571773908425696
18393751 57 11095889267958079789
1979834 28 17059792095004647079
20028762 73 18412827971674144190
20775438 99 17832412477502716451
21033648 29 15051470292753899553
21033650 10 16877933898431600045
21585481 104 16588301640358683935
21703447 108 18410282636768296192
22950370 63 18338801216708355509
23522609 53 18121252902256426277
23559900 14 18195240256177080681
23622692 118 18409451362806315568
270888 7 9367347033003655090
2748736 6 9079119925243291575
2838139 119 8070025536855422050
3004659 81 18113896087065339171
32027 91 18340762754173935979
3421961 26 18269555116747088801
3627633 1 18339643334793566233
4107672 100 17677045742827767677
437815 12 18408884066456409659
439807 62 18333732420474760479
46194498 28 17314785424544710733
463206 1 18335139846845524843
465052 167 18272656791408226743
484985 159 18337952277946930509
54039377 194 18411985762941472846
56633871 153 18131347548765317175
5718773 13 18410854365012228346
59682541 52 14707195605341987282
6327066 14 9295288339538359275
636775 8 18341058424482388286
6712543 237 16200432455435815951
70251023 43 18407760352387714952
77188 2 18339360867932539673
7970288 3 18410854382218685691

> <PUBCHEM_SHAPE_MULTIPOLES>
547.54
19.14
4.4
1.13
2.05
1.42
-0.22
-24.65
0.54
-0.95
0.39
0.64
-0.12
-0.64

> <PUBCHEM_SHAPE_SELFOVERLAP>
1129.232

> <PUBCHEM_SHAPE_VOLUME>
317.2

> <PUBCHEM_COORDINATE_TYPE>
2
5
10

$$$$
