134993
  -OEChem-03292013323D

 43 44  0     1  0  0  0  0  0999 V2000
    2.3035   -2.1357    1.0942 S   0  0  0  0  0  0  0  0  0  0  0  0
    1.4370    2.2958   -0.0122 O   0  0  0  0  0  0  0  0  0  0  0  0
    6.7574   -1.6840   -0.3274 O   0  0  0  0  0  0  0  0  0  0  0  0
   -1.4231    1.6550    1.1362 O   0  0  0  0  0  0  0  0  0  0  0  0
    4.5371    2.3078   -0.6924 O   0  0  0  0  0  0  0  0  0  0  0  0
    4.1033    1.0599   -2.5592 O   0  0  0  0  0  0  0  0  0  0  0  0
   -6.6862    0.9117    0.7165 O   0  0  0  0  0  0  0  0  0  0  0  0
   -6.8878   -1.2180   -2.1652 O   0  0  0  0  0  0  0  0  0  0  0  0
   -8.3511   -0.8035   -0.4804 O   0  0  0  0  0  0  0  0  0  0  0  0
    2.7598    0.3974    0.4429 N   0  0  0  0  0  0  0  0  0  0  0  0
   -0.1287   -0.2675    1.2726 N   0  0  0  0  0  0  0  0  0  0  0  0
    2.4413   -0.4084    1.6075 C   0  0  1  0  0  0  0  0  0  0  0  0
    1.1230    0.3928    1.6818 C   0  0  1  0  0  0  0  0  0  0  0  0
    1.7482    1.2834    0.5704 C   0  0  0  0  0  0  0  0  0  0  0  0
    3.8074    0.1478   -0.3841 C   0  0  0  0  0  0  0  0  0  0  0  0
    4.4624   -1.0374   -0.3577 C   0  0  0  0  0  0  0  0  0  0  0  0
    4.0312   -2.2164    0.5118 C   0  0  0  0  0  0  0  0  0  0  0  0
   -1.2993    0.4362    1.0353 C   0  0  0  0  0  0  0  0  0  0  0  0
    5.6834   -1.3605   -1.1851 C   0  0  0  0  0  0  0  0  0  0  0  0
   -2.4585   -0.4537    0.6356 C   0  0  0  0  0  0  0  0  0  0  0  0
    4.1568    1.1968   -1.3536 C   0  0  0  0  0  0  0  0  0  0  0  0
   -3.7421    0.3338    0.3771 C   0  0  0  0  0  0  0  0  0  0  0  0
   -4.9310   -0.5137   -0.0975 C   0  0  0  0  0  0  0  0  0  0  0  0
   -6.1803    0.2930   -0.4579 C   0  0  1  0  0  0  0  0  0  0  0  0
   -7.2638   -0.6125   -1.0092 C   0  0  0  0  0  0  0  0  0  0  0  0
    3.1192   -0.2272    2.4500 H   0  0  0  0  0  0  0  0  0  0  0  0
    0.9958    0.9236    2.6328 H   0  0  0  0  0  0  0  0  0  0  0  0
   -0.1485   -1.2784    1.1606 H   0  0  0  0  0  0  0  0  0  0  0  0
    4.1178   -3.1486   -0.0565 H   0  0  0  0  0  0  0  0  0  0  0  0
    4.6914   -2.2919    1.3827 H   0  0  0  0  0  0  0  0  0  0  0  0
   -2.6253   -1.1855    1.4345 H   0  0  0  0  0  0  0  0  0  0  0  0
   -2.1701   -1.0026   -0.2687 H   0  0  0  0  0  0  0  0  0  0  0  0
    6.0052   -0.5287   -1.8162 H   0  0  0  0  0  0  0  0  0  0  0  0
    5.4783   -2.2153   -1.8387 H   0  0  0  0  0  0  0  0  0  0  0  0
   -4.0250    0.8703    1.2917 H   0  0  0  0  0  0  0  0  0  0  0  0
   -3.5411    1.1039   -0.3790 H   0  0  0  0  0  0  0  0  0  0  0  0
   -4.6090   -1.1031   -0.9649 H   0  0  0  0  0  0  0  0  0  0  0  0
   -5.1774   -1.2325    0.6952 H   0  0  0  0  0  0  0  0  0  0  0  0
   -5.9578    1.0736   -1.1930 H   0  0  0  0  0  0  0  0  0  0  0  0
    7.5160   -1.9166   -0.8894 H   0  0  0  0  0  0  0  0  0  0  0  0
    4.7799    3.0360   -1.3033 H   0  0  0  0  0  0  0  0  0  0  0  0
   -7.4170    1.4948    0.4484 H   0  0  0  0  0  0  0  0  0  0  0  0
   -7.5886   -1.8101   -2.5126 H   0  0  0  0  0  0  0  0  0  0  0  0
  1 12  1  0  0  0  0
  1 17  1  0  0  0  0
  2 14  2  0  0  0  0
  3 19  1  0  0  0  0
  3 40  1  0  0  0  0
  4 18  2  0  0  0  0
  5 21  1  0  0  0  0
  5 41  1  0  0  0  0
  6 21  2  0  0  0  0
  7 24  1  0  0  0  0
  7 42  1  0  0  0  0
  8 25  1  0  0  0  0
  8 43  1  0  0  0  0
  9 25  2  0  0  0  0
 10 12  1  0  0  0  0
 10 14  1  0  0  0  0
 10 15  1  0  0  0  0
 11 13  1  0  0  0  0
 11 18  1  0  0  0  0
 11 28  1  0  0  0  0
 12 13  1  0  0  0  0
 12 26  1  0  0  0  0
 13 14  1  0  0  0  0
 13 27  1  0  0  0  0
 15 16  2  0  0  0  0
 15 21  1  0  0  0  0
 16 17  1  0  0  0  0
 16 19  1  0  0  0  0
 17 29  1  0  0  0  0
 17 30  1  0  0  0  0
 18 20  1  0  0  0  0
 19 33  1  0  0  0  0
 19 34  1  0  0  0  0
 20 22  1  0  0  0  0
 20 31  1  0  0  0  0
 20 32  1  0  0  0  0
 22 23  1  0  0  0  0
 22 35  1  0  0  0  0
 22 36  1  0  0  0  0
 23 24  1  0  0  0  0
 23 37  1  0  0  0  0
 23 38  1  0  0  0  0
 24 25  1  0  0  0  0
 24 39  1  0  0  0  0
M  END
> <PUBCHEM_COMPOUND_CID>
134993

> <PUBCHEM_CONFORMER_RMSD>
1

> <PUBCHEM_CONFORMER_DIVERSEORDER>
12
5
27
44
14
28
43
2
17
32
19
40
20
18
10
15
26
16
37
29
39
25
7
9
38
30
8
1
34
22
13
23
31
42
33
6
41
21
24
11
4
3
36
35

> <PUBCHEM_MMFF94_PARTIAL_CHARGES>
28
1 -0.45
10 -0.39
11 -0.65
12 0.44
13 0.28
14 0.58
15 0.12
16 -0.28
17 0.37
18 0.57
19 0.42
2 -0.57
20 0.06
21 0.71
24 0.34
25 0.66
28 0.37
3 -0.68
4 -0.57
40 0.4
41 0.5
42 0.4
43 0.5
5 -0.65
6 -0.57
7 -0.68
8 -0.65
9 -0.57

> <PUBCHEM_EFFECTIVE_ROTOR_COUNT>
9.6

> <PUBCHEM_PHARMACOPHORE_FEATURES>
15
1 11 donor
1 2 acceptor
1 3 acceptor
1 3 donor
1 4 acceptor
1 5 acceptor
1 6 acceptor
1 7 acceptor
1 7 donor
1 8 acceptor
1 9 acceptor
3 5 6 21 anion
3 8 9 25 anion
4 10 12 13 14 rings
6 1 10 12 15 16 17 rings

> <PUBCHEM_HEAVY_ATOM_COUNT>
25

> <PUBCHEM_ATOM_DEF_STEREO_COUNT>
2

> <PUBCHEM_ATOM_UDEF_STEREO_COUNT>
1

> <PUBCHEM_BOND_DEF_STEREO_COUNT>
0

> <PUBCHEM_BOND_UDEF_STEREO_COUNT>
0

> <PUBCHEM_ISOTOPIC_ATOM_COUNT>
0

> <PUBCHEM_COMPONENT_COUNT>
1

> <PUBCHEM_CACTVS_TAUTO_COUNT>
2

> <PUBCHEM_CONFORMER_ID>
00020F510000000C

> <PUBCHEM_MMFF94_ENERGY>
52.5285

> <PUBCHEM_FEATURE_SELFOVERLAP>
76.509

> <PUBCHEM_SHAPE_FINGERPRINT>
10316853 100 15913330212394092415
106641 1 15841543068938068954
10670039 82 16950559931237815805
10693767 8 18266742373025602226
11796584 16 17275102838701425511
125118 31 12757416234449981647
12661589 4 17274249695030238631
12730499 353 17095530586388119113
13668630 136 17846780680842830095
13685833 64 16415479346073999971
13782708 43 16271922723533618213
15183329 4 18260547801696490139
15348495 7 12895058661902488799
15475509 35 15984822580668645294
15510800 12 16415212173496803878
18222031 100 17561081432335359785
18335252 114 17167580484203699038
20397935 70 13039190316081110701
21033648 29 14490770008694780892
21521239 73 18410580561527473482
21781051 124 17916871339406509183
21792934 111 11959740365678174291
221357 26 18040715844379449020
22956985 138 16842499846613279382
23081809 10 18411700968308015625
23522609 53 18057914431632825505
23559900 14 18337670931534435257
29717793 49 18341900671008856672
3004659 81 18411416193973729106
312425 54 12463569599994872765
3472631 163 15936415588585071871
34797466 226 17240199933442455215
3663271 9 9007053574515717909
44249763 50 16153984768368686955
46194498 28 17749112158232746542
465052 167 17060336344707111149
5104073 3 11815631748042431379
59682541 35 14692564408696568274
59682541 52 18186798059005185863
960060 61 18409729577675514649

> <PUBCHEM_SHAPE_MULTIPOLES>
461.42
20.1
2.03
1.69
40.6
0.14
0.52
-5.54
11.66
-3.4
0.11
-0.18
0.1
-1.64

> <PUBCHEM_SHAPE_SELFOVERLAP>
942.106

> <PUBCHEM_SHAPE_VOLUME>
266.2

> <PUBCHEM_COORDINATE_TYPE>
2
5
10

$$$$
