134952
  -OEChem-03292013323D

 44 45  0     0  0  0  0  0  0999 V2000
   -2.4691    0.7193   -1.7250 S   0  0  0  0  0  0  0  0  0  0  0  0
   -2.7702   -1.0343   -0.6955 S   0  0  0  0  0  0  0  0  0  0  0  0
    5.2803    0.1985   -0.8700 O   0  0  0  0  0  0  0  0  0  0  0  0
    6.1929   -2.4829   -0.3974 O   0  0  0  0  0  0  0  0  0  0  0  0
    7.3442    1.9543    0.0820 O   0  0  0  0  0  0  0  0  0  0  0  0
    4.3100    0.1498    1.2256 O   0  0  0  0  0  0  0  0  0  0  0  0
    6.4746   -0.1814   -0.2192 N   0  0  0  0  0  0  0  0  0  0  0  0
   -8.5222   -0.5874    0.8404 N   0  0  0  0  0  0  0  0  0  0  0  0
   -9.0521    0.4724    0.4404 N   0  3  0  0  0  0  0  0  0  0  0  0
   -9.5415    1.4377    0.0783 N   0  5  0  0  0  0  0  0  0  0  0  0
    0.5361    1.2529   -0.6046 C   0  0  0  0  0  0  0  0  0  0  0  0
    1.7947    0.8798    0.1818 C   0  0  0  0  0  0  0  0  0  0  0  0
   -0.6800    1.3699    0.3203 C   0  0  0  0  0  0  0  0  0  0  0  0
    3.0044    0.7355   -0.7404 C   0  0  0  0  0  0  0  0  0  0  0  0
    8.1084   -1.5003    0.7090 C   0  0  0  0  0  0  0  0  0  0  0  0
    8.4906   -0.0273    0.8683 C   0  0  0  0  0  0  0  0  0  0  0  0
   -1.9492    1.8384   -0.3914 C   0  0  0  0  0  0  0  0  0  0  0  0
    6.8052   -1.4874   -0.0433 C   0  0  0  0  0  0  0  0  0  0  0  0
    7.3829    0.7392    0.1973 C   0  0  0  0  0  0  0  0  0  0  0  0
    4.2486    0.3289    0.0167 C   0  0  0  0  0  0  0  0  0  0  0  0
   -4.4888   -0.9014   -0.2371 C   0  0  0  0  0  0  0  0  0  0  0  0
   -4.8419   -0.3001    0.9701 C   0  0  0  0  0  0  0  0  0  0  0  0
   -5.4766   -1.3974   -1.0865 C   0  0  0  0  0  0  0  0  0  0  0  0
   -6.1859   -0.1946    1.3287 C   0  0  0  0  0  0  0  0  0  0  0  0
   -6.8205   -1.2918   -0.7281 C   0  0  0  0  0  0  0  0  0  0  0  0
   -7.1751   -0.6905    0.4795 C   0  0  0  0  0  0  0  0  0  0  0  0
    0.6976    2.2059   -1.1228 H   0  0  0  0  0  0  0  0  0  0  0  0
    0.3661    0.4898   -1.3717 H   0  0  0  0  0  0  0  0  0  0  0  0
    1.6270   -0.0621    0.7193 H   0  0  0  0  0  0  0  0  0  0  0  0
    1.9986    1.6447    0.9415 H   0  0  0  0  0  0  0  0  0  0  0  0
   -0.8436    0.4255    0.8505 H   0  0  0  0  0  0  0  0  0  0  0  0
   -0.4512    2.1073    1.1011 H   0  0  0  0  0  0  0  0  0  0  0  0
    3.2041    1.6895   -1.2409 H   0  0  0  0  0  0  0  0  0  0  0  0
    2.8022   -0.0305   -1.4975 H   0  0  0  0  0  0  0  0  0  0  0  0
    8.8626   -2.0462    0.1348 H   0  0  0  0  0  0  0  0  0  0  0  0
    7.9701   -1.9824    1.6812 H   0  0  0  0  0  0  0  0  0  0  0  0
    8.5509    0.2559    1.9232 H   0  0  0  0  0  0  0  0  0  0  0  0
    9.4431    0.1910    0.3767 H   0  0  0  0  0  0  0  0  0  0  0  0
   -1.7773    2.8241   -0.8373 H   0  0  0  0  0  0  0  0  0  0  0  0
   -2.7679    1.9557    0.3258 H   0  0  0  0  0  0  0  0  0  0  0  0
   -4.0853    0.0898    1.6465 H   0  0  0  0  0  0  0  0  0  0  0  0
   -5.2195   -1.8696   -2.0315 H   0  0  0  0  0  0  0  0  0  0  0  0
   -6.4518    0.2739    2.2727 H   0  0  0  0  0  0  0  0  0  0  0  0
   -7.5838   -1.6827   -1.3960 H   0  0  0  0  0  0  0  0  0  0  0  0
  1  2  1  0  0  0  0
  1 17  1  0  0  0  0
  2 21  1  0  0  0  0
  3  7  1  0  0  0  0
  3 20  1  0  0  0  0
  4 18  2  0  0  0  0
  5 19  2  0  0  0  0
  6 20  2  0  0  0  0
  7 18  1  0  0  0  0
  7 19  1  0  0  0  0
  8  9  2  0  0  0  0
  8 26  1  0  0  0  0
  9 10  2  0  0  0  0
 11 12  1  0  0  0  0
 11 13  1  0  0  0  0
 11 27  1  0  0  0  0
 11 28  1  0  0  0  0
 12 14  1  0  0  0  0
 12 29  1  0  0  0  0
 12 30  1  0  0  0  0
 13 17  1  0  0  0  0
 13 31  1  0  0  0  0
 13 32  1  0  0  0  0
 14 20  1  0  0  0  0
 14 33  1  0  0  0  0
 14 34  1  0  0  0  0
 15 16  1  0  0  0  0
 15 18  1  0  0  0  0
 15 35  1  0  0  0  0
 15 36  1  0  0  0  0
 16 19  1  0  0  0  0
 16 37  1  0  0  0  0
 16 38  1  0  0  0  0
 17 39  1  0  0  0  0
 17 40  1  0  0  0  0
 21 22  2  0  0  0  0
 21 23  1  0  0  0  0
 22 24  1  0  0  0  0
 22 41  1  0  0  0  0
 23 25  2  0  0  0  0
 23 42  1  0  0  0  0
 24 26  2  0  0  0  0
 24 43  1  0  0  0  0
 25 26  1  0  0  0  0
 25 44  1  0  0  0  0
M  CHG  2   9   1  10  -1
M  END
> <PUBCHEM_COMPOUND_CID>
134952

> <PUBCHEM_CONFORMER_RMSD>
1.2

> <PUBCHEM_CONFORMER_DIVERSEORDER>
1
140
23
212
112
66
14
187
41
12
203
154
43
172
97
61
151
170
153
78
48
189
92
123
11
144
49
98
89
205
165
173
117
57
197
146
18
147
39
159
101
47
113
25
141
9
75
91
164
155
87
180
90
54
191
188
190
79
7
192
51
142
157
53
52
158
122
95
196
214
116
70
110
217
59
181
149
221
8
194
99
80
150
55
145
106
10
161
121
42
20
67
76
109
72
17
127
182
28
19
120
84
77
3
204
118
139
37
50
94
209
88
40
64
93
35
186
195
5
178
171
177
213
56
24
86
193
44
69
73
216
104
15
16
133
208
34
200
176
162
169
124
126
174
202
21
74
4
108
68
128
168
152
218
22
58
130
219
220
143
163
60
46
45
185
107
63
102
36
96
114
32
29
27
100
167
156
148
138
183
201
134
85
30
6
81
65
62
131
2
206
115
119
136
179
211
71
13
166
111
184
215
207
31
125
160
199
38
135
175
33
105
103
137
210
132
222
26
129
83
198
82

> <PUBCHEM_MMFF94_PARTIAL_CHARGES>
27
1 -0.23
10 -0.37
14 0.06
15 0.06
16 0.06
17 0.23
18 0.57
19 0.57
2 -0.1
20 0.66
21 0.1
22 -0.15
23 -0.15
24 -0.15
25 -0.15
26 0.18
3 -0.19
4 -0.57
41 0.15
42 0.15
43 0.15
44 0.15
5 -0.57
6 -0.57
7 -0.08
8 -0.5
9 0.69

> <PUBCHEM_EFFECTIVE_ROTOR_COUNT>
11.6

> <PUBCHEM_PHARMACOPHORE_FEATURES>
5
1 4 acceptor
1 5 acceptor
1 6 acceptor
5 7 15 16 18 19 rings
6 21 22 23 24 25 26 rings

> <PUBCHEM_HEAVY_ATOM_COUNT>
26

> <PUBCHEM_ATOM_DEF_STEREO_COUNT>
0

> <PUBCHEM_ATOM_UDEF_STEREO_COUNT>
0

> <PUBCHEM_BOND_DEF_STEREO_COUNT>
0

> <PUBCHEM_BOND_UDEF_STEREO_COUNT>
0

> <PUBCHEM_ISOTOPIC_ATOM_COUNT>
0

> <PUBCHEM_COMPONENT_COUNT>
1

> <PUBCHEM_CACTVS_TAUTO_COUNT>
3

> <PUBCHEM_CONFORMER_ID>
00020F2800000001

> <PUBCHEM_MMFF94_ENERGY>
35.5364

> <PUBCHEM_FEATURE_SELFOVERLAP>
25.373

> <PUBCHEM_SHAPE_FINGERPRINT>
10 15 14980240639007681140
10162869 55 14548728513495574009
10299344 5 18201720673803737018
10429389 143 13182748014109324747
10674148 151 17894910733371619801
12592606 108 18409728504572351303
12643181 29 17968376840127092683
13668630 136 17385723595475525334
13673619 4 17967810556888692132
13885169 127 18334575712082282549
14123256 10 17095240328071418680
14251764 18 17775003513804110046
14251764 46 18410575093258294762
14344974 52 11458435647958329982
15183329 4 15502371219021589012
15716309 27 18342457053894089404
18335252 98 11602819091276107009
18643901 69 17458063747006565293
20105231 36 15068628197728615353
2026 5 17969494910905108594
21033648 29 11095584673631448510
21150785 3 12757149082434581697
21403212 168 17632860811455959839
22224240 67 13470690343172089917
246663 6 17240483615546851467
28498 318 18407760326923222877
4325135 7 12757146892275567515
439807 62 18412824681934027608
5283156 175 18113618984645020972
5470011 282 16732986431740435182
6126387 218 18413670197838950833
636775 8 11891341968065431673
6691757 9 16487261006724853999
999808 66 18187365436932674415

> <PUBCHEM_SHAPE_MULTIPOLES>
499.37
34.25
1.81
1.16
0.85
0.16
0.1
7.08
-8.35
1.32
0.25
-1.03
0.04
-0.37

> <PUBCHEM_SHAPE_SELFOVERLAP>
1002.094

> <PUBCHEM_SHAPE_VOLUME>
294

> <PUBCHEM_COORDINATE_TYPE>
2
5
10

$$$$
