13506406
  -OEChem-03292013303D

 46 49  0     1  0  0  0  0  0999 V2000
    4.1894    0.6351    0.9558 O   0  0  0  0  0  0  0  0  0  0  0  0
    5.0214   -1.9175   -0.8009 O   0  0  0  0  0  0  0  0  0  0  0  0
    5.9722    0.2580   -2.1408 O   0  0  0  0  0  0  0  0  0  0  0  0
    5.9317    2.8017    1.4521 O   0  0  0  0  0  0  0  0  0  0  0  0
   -4.9442   -0.4677   -2.1941 O   0  0  0  0  0  0  0  0  0  0  0  0
    2.0577   -0.1966    0.3244 N   0  0  0  0  0  0  0  0  0  0  0  0
    0.1885    0.9924    0.0601 N   0  0  0  0  0  0  0  0  0  0  0  0
    1.0982   -2.3862    0.7577 N   0  0  0  0  0  0  0  0  0  0  0  0
   -2.5568   -0.2952    0.2852 N   0  0  0  0  0  0  0  0  0  0  0  0
   -1.3408   -2.3116    0.7122 N   0  0  0  0  0  0  0  0  0  0  0  0
    4.1222   -0.8203   -0.9514 C   0  0  1  0  0  0  0  0  0  0  0  0
    3.4878   -0.4991    0.4031 C   0  0  1  0  0  0  0  0  0  0  0  0
    4.8669    0.4583   -1.2862 C   0  0  1  0  0  0  0  0  0  0  0  0
    5.2874    0.9556    0.0859 C   0  0  1  0  0  0  0  0  0  0  0  0
    5.5603    2.4484    0.1313 C   0  0  0  0  0  0  0  0  0  0  0  0
    1.0224   -1.0738    0.4899 C   0  0  0  0  0  0  0  0  0  0  0  0
    1.5046    1.0314    0.0688 C   0  0  0  0  0  0  0  0  0  0  0  0
   -0.1264   -0.3173    0.3218 C   0  0  0  0  0  0  0  0  0  0  0  0
   -1.3416   -0.9840    0.4420 C   0  0  0  0  0  0  0  0  0  0  0  0
   -0.1386   -2.9212    0.8513 C   0  0  0  0  0  0  0  0  0  0  0  0
   -3.8359   -0.9310    0.3982 C   0  0  0  0  0  0  0  0  0  0  0  0
   -4.9654    0.0330    0.1499 C   0  0  0  0  0  0  0  0  0  0  0  0
   -5.4615    0.2147   -1.1343 C   0  0  0  0  0  0  0  0  0  0  0  0
   -5.4974    0.7323    1.2254 C   0  0  0  0  0  0  0  0  0  0  0  0
   -6.5083    1.1118   -1.3469 C   0  0  0  0  0  0  0  0  0  0  0  0
   -6.5442    1.6295    1.0126 C   0  0  0  0  0  0  0  0  0  0  0  0
   -7.0496    1.8192   -0.2733 C   0  0  0  0  0  0  0  0  0  0  0  0
    3.4050   -1.0965   -1.7311 H   0  0  0  0  0  0  0  0  0  0  0  0
    3.5961   -1.3226    1.1185 H   0  0  0  0  0  0  0  0  0  0  0  0
    4.1733    1.1656   -1.7576 H   0  0  0  0  0  0  0  0  0  0  0  0
    6.1678    0.4140    0.4559 H   0  0  0  0  0  0  0  0  0  0  0  0
    4.6698    3.0289   -0.1309 H   0  0  0  0  0  0  0  0  0  0  0  0
    6.3753    2.7278   -0.5422 H   0  0  0  0  0  0  0  0  0  0  0  0
    4.4922   -2.6935   -0.5487 H   0  0  0  0  0  0  0  0  0  0  0  0
    6.4098    1.1171   -2.2652 H   0  0  0  0  0  0  0  0  0  0  0  0
    2.1019    1.9156   -0.1073 H   0  0  0  0  0  0  0  0  0  0  0  0
    5.2007    2.5469    2.0408 H   0  0  0  0  0  0  0  0  0  0  0  0
   -2.5024    0.6982    0.0867 H   0  0  0  0  0  0  0  0  0  0  0  0
   -0.1758   -3.9836    1.0670 H   0  0  0  0  0  0  0  0  0  0  0  0
   -3.9503   -1.3659    1.4001 H   0  0  0  0  0  0  0  0  0  0  0  0
   -3.9091   -1.7758   -0.2985 H   0  0  0  0  0  0  0  0  0  0  0  0
   -5.1106    0.5948    2.2313 H   0  0  0  0  0  0  0  0  0  0  0  0
   -6.9119    1.2697   -2.3434 H   0  0  0  0  0  0  0  0  0  0  0  0
   -6.9653    2.1808    1.8482 H   0  0  0  0  0  0  0  0  0  0  0  0
   -7.8645    2.5178   -0.4388 H   0  0  0  0  0  0  0  0  0  0  0  0
   -5.4190   -0.2069   -3.0019 H   0  0  0  0  0  0  0  0  0  0  0  0
  1 12  1  0  0  0  0
  1 14  1  0  0  0  0
  2 11  1  0  0  0  0
  2 34  1  0  0  0  0
  3 13  1  0  0  0  0
  3 35  1  0  0  0  0
  4 15  1  0  0  0  0
  4 37  1  0  0  0  0
  5 23  1  0  0  0  0
  5 46  1  0  0  0  0
  6 12  1  0  0  0  0
  6 16  1  0  0  0  0
  6 17  1  0  0  0  0
  7 17  2  0  0  0  0
  7 18  1  0  0  0  0
  8 16  2  0  0  0  0
  8 20  1  0  0  0  0
  9 19  1  0  0  0  0
  9 21  1  0  0  0  0
  9 38  1  0  0  0  0
 10 19  1  0  0  0  0
 10 20  2  0  0  0  0
 11 12  1  0  0  0  0
 11 13  1  0  0  0  0
 11 28  1  0  0  0  0
 12 29  1  0  0  0  0
 13 14  1  0  0  0  0
 13 30  1  0  0  0  0
 14 15  1  0  0  0  0
 14 31  1  0  0  0  0
 15 32  1  0  0  0  0
 15 33  1  0  0  0  0
 16 18  1  0  0  0  0
 17 36  1  0  0  0  0
 18 19  2  0  0  0  0
 20 39  1  0  0  0  0
 21 22  1  0  0  0  0
 21 40  1  0  0  0  0
 21 41  1  0  0  0  0
 22 23  1  0  0  0  0
 22 24  2  0  0  0  0
 23 25  2  0  0  0  0
 24 26  1  0  0  0  0
 24 42  1  0  0  0  0
 25 27  1  0  0  0  0
 25 43  1  0  0  0  0
 26 27  2  0  0  0  0
 26 44  1  0  0  0  0
 27 45  1  0  0  0  0
M  END
> <PUBCHEM_COMPOUND_CID>
13506406

> <PUBCHEM_CONFORMER_RMSD>
1

> <PUBCHEM_CONFORMER_DIVERSEORDER>
1
334
195
423
340
72
377
99
441
74
361
150
402
424
277
422
383
76
88
237
432
426
30
276
143
353
440
32
77
299
267
2
367
162
329
107
183
139
218
156
176
327
140
163
400
336
221
439
203
417
68
442
122
64
215
171
56
31
213
398
197
134
322
236
305
138
131
421
26
71
368
250
425
375
366
81
437
112
199
57
326
381
63
130
121
211
257
14
101
313
360
95
345
210
339
323
217
46
97
206
94
374
433
369
160
224
12
413
11
190
384
406
66
80
141
408
40
180
242
117
202
420
289
392
5
226
33
105
204
43
241
379
42
193
414
304
10
133
58
230
164
78
359
288
261
390
272
59
21
436
401
255
332
177
273
342
3
91
53
405
125
27
115
349
120
254
155
303
311
38
22
386
344
391
271
347
169
60
188
300
385
111
132
350
364
25
284
338
207
388
411
222
103
181
194
23
343
430
248
295
52
145
357
302
198
275
39
431
47
201
416
24
113
191
173
296
205
355
244
286
378
16
301
409
418
116
87
427
35
354
185
321
297
61
279
407
348
260
51
18
314
49
328
200
335
298
294
232
4
253
175
315
239
54
182
89
223
186
93
114
376
331
382
170
136
395
389
258
96
50
129
15
44
319
238
69
36
438
281
83
147
346
434
45
85
8
358
84
229
325
29
240
362
148
219
168
100
246
73
98
373
435
363
144
285
124
403
119
104
274
9
37
365
429
149
372
397
225
380
28
126
187
108
341
151
228
370
167
161
410
34
19
142
137
166
307
415
106
243
282
6
65
308
192
208
256
231
118
123
235
109
179
280
209
428
70
174
48
352
55
62
135
292
158
41
399
356
227
317
154
259
330
290
153
86
157
316
20
92
184
212
247
262
252
291
17
146
251
394
7
351
234
419
152
333
13
82
67
189
127
102
306
270
178
269
264
263
266
396
412
75
318
90
404
220
312
128
196
320
371
79
324
337
387
159
110
278
268
283
265
165
216
393
245
310
249
172
309
214
233
287
293

> <PUBCHEM_MMFF94_PARTIAL_CHARGES>
38
1 -0.56
10 -0.62
11 0.28
12 0.54
13 0.28
14 0.28
15 0.28
16 0.11
17 0.04
18 0.23
19 0.41
2 -0.68
20 0.47
21 0.51
22 -0.14
23 0.08
24 -0.15
25 -0.15
26 -0.15
27 -0.15
3 -0.68
34 0.4
35 0.4
36 0.15
37 0.4
38 0.4
39 0.15
4 -0.68
42 0.15
43 0.15
44 0.15
45 0.15
46 0.45
5 -0.53
6 0.05
7 -0.57
8 -0.57
9 -0.87

> <PUBCHEM_EFFECTIVE_ROTOR_COUNT>
6

> <PUBCHEM_PHARMACOPHORE_FEATURES>
17
1 1 acceptor
1 2 acceptor
1 2 donor
1 3 acceptor
1 3 donor
1 4 acceptor
1 4 donor
1 5 donor
1 9 cation
1 9 donor
3 6 7 17 cation
3 6 8 16 cation
3 8 10 20 cation
5 1 11 12 13 14 rings
5 6 7 16 17 18 rings
6 22 23 24 25 26 27 rings
6 8 10 16 18 19 20 rings

> <PUBCHEM_HEAVY_ATOM_COUNT>
27

> <PUBCHEM_ATOM_DEF_STEREO_COUNT>
0

> <PUBCHEM_ATOM_UDEF_STEREO_COUNT>
4

> <PUBCHEM_BOND_DEF_STEREO_COUNT>
0

> <PUBCHEM_BOND_UDEF_STEREO_COUNT>
0

> <PUBCHEM_ISOTOPIC_ATOM_COUNT>
0

> <PUBCHEM_COMPONENT_COUNT>
1

> <PUBCHEM_CACTVS_TAUTO_COUNT>
9

> <PUBCHEM_CONFORMER_ID>
00CE176600000001

> <PUBCHEM_MMFF94_ENERGY>
69.7151

> <PUBCHEM_FEATURE_SELFOVERLAP>
86.894

> <PUBCHEM_SHAPE_FINGERPRINT>
10 15 16153715323326321117
10554248 39 18115010927526989863
10835480 77 18342455997553979576
11796584 16 15697994115938115111
12166972 35 13254797962060883266
12236239 1 18059853944473735043
12422481 6 16588018009229132727
13782708 43 8502390922605032584
14123256 34 11167941385722911717
14790565 3 18336551533981153561
15081414 286 18187933824551900589
15183329 4 17489872605217765367
15510800 12 11959439155147618101
15716309 27 11241973677159390665
1601671 61 18040434382429740071
17492 89 10735064697339627580
18222031 100 13110968634524267002
20281389 69 18113616777211133481
20715895 44 18336545014711584016
21033648 29 18114184176238808240
21150785 3 17489583510890099653
21279426 13 18410864247705661210
23081809 10 16343710919388724875
23198884 109 17704069582712520549
23559900 14 18338248158634251406
24771293 8 18337385067191390132
2748736 6 18335693979235978769
2838139 119 18409724032867512515
293599 30 18260552233633546483
29717793 49 17561087973332979518
312425 54 11963386332554223573
3663271 9 13262399959981122789
4340502 62 15357697478901589168
465052 167 10231753400932091352
50009960 94 12461916917881318036
5104073 3 18040149643109502627
59682541 52 17489592225262705438
6328613 192 18202565085896907809
8863177 126 12750368442088023525

> <PUBCHEM_SHAPE_MULTIPOLES>
501.4
19.44
2.49
1.41
11.2
0.5
-0.59
-13.86
-3.95
-1.9
0.86
0.12
-0.23
0.97

> <PUBCHEM_SHAPE_SELFOVERLAP>
1095.046

> <PUBCHEM_SHAPE_VOLUME>
267.5

> <PUBCHEM_COORDINATE_TYPE>
2
5
10

$$$$
