135086
  -OEChem-03292013323D

 36 37  0     1  0  0  0  0  0999 V2000
    5.4737   -0.4002    0.2979 Cl  0  0  0  0  0  0  0  0  0  0  0  0
    3.3277    1.9581   -0.2454 S   0  0  0  0  0  0  0  0  0  0  0  0
    2.2138    2.8195    0.1174 O   0  0  0  0  0  0  0  0  0  0  0  0
    4.6331    2.1604    0.3625 O   0  0  0  0  0  0  0  0  0  0  0  0
   -0.8136   -2.5940    0.8459 O   0  0  0  0  0  0  0  0  0  0  0  0
   -2.5414   -1.0388   -0.6303 N   0  0  1  0  0  0  0  0  0  0  0  0
   -1.1850   -0.7877   -0.5595 N   0  0  0  0  0  0  0  0  0  0  0  0
    3.5026    1.9617   -1.9438 N   0  0  0  0  0  0  0  0  0  0  0  0
    2.8446    0.2962    0.0304 C   0  0  0  0  0  0  0  0  0  0  0  0
    1.0508   -1.3103    0.2276 C   0  0  0  0  0  0  0  0  0  0  0  0
    1.4820   -0.0012    0.0125 C   0  0  0  0  0  0  0  0  0  0  0  0
   -0.3699   -1.6209    0.2104 C   0  0  0  0  0  0  0  0  0  0  0  0
   -3.4185   -0.0396   -0.1854 C   0  0  0  0  0  0  0  0  0  0  0  0
    3.7762   -0.7157    0.2636 C   0  0  0  0  0  0  0  0  0  0  0  0
    1.9822   -2.3219    0.4607 C   0  0  0  0  0  0  0  0  0  0  0  0
    3.3449   -2.0247    0.4788 C   0  0  0  0  0  0  0  0  0  0  0  0
   -2.9497   -2.1400   -1.4829 C   0  0  0  0  0  0  0  0  0  0  0  0
   -4.7667   -0.0662   -0.5587 C   0  0  0  0  0  0  0  0  0  0  0  0
   -2.9532    0.9934    0.6355 C   0  0  0  0  0  0  0  0  0  0  0  0
   -5.6391    0.9284   -0.1166 C   0  0  0  0  0  0  0  0  0  0  0  0
   -3.8258    1.9879    1.0777 C   0  0  0  0  0  0  0  0  0  0  0  0
   -5.1687    1.9553    0.7017 C   0  0  0  0  0  0  0  0  0  0  0  0
    0.7651    0.7977   -0.1508 H   0  0  0  0  0  0  0  0  0  0  0  0
    1.6670   -3.3488    0.6263 H   0  0  0  0  0  0  0  0  0  0  0  0
   -0.8564   -0.0367   -1.1571 H   0  0  0  0  0  0  0  0  0  0  0  0
    4.0575   -2.8252    0.6613 H   0  0  0  0  0  0  0  0  0  0  0  0
   -2.1260   -2.8402   -1.6647 H   0  0  0  0  0  0  0  0  0  0  0  0
   -3.2846   -1.7730   -2.4593 H   0  0  0  0  0  0  0  0  0  0  0  0
   -3.7572   -2.7167   -1.0187 H   0  0  0  0  0  0  0  0  0  0  0  0
   -5.1729   -0.8462   -1.1961 H   0  0  0  0  0  0  0  0  0  0  0  0
   -1.9177    1.0505    0.9602 H   0  0  0  0  0  0  0  0  0  0  0  0
   -6.6846    0.9039   -0.4094 H   0  0  0  0  0  0  0  0  0  0  0  0
   -3.4606    2.7865    1.7168 H   0  0  0  0  0  0  0  0  0  0  0  0
    2.8018    2.4723   -2.4947 H   0  0  0  0  0  0  0  0  0  0  0  0
    4.4546    2.0204   -2.3255 H   0  0  0  0  0  0  0  0  0  0  0  0
   -5.8480    2.7294    1.0464 H   0  0  0  0  0  0  0  0  0  0  0  0
  1 14  1  0  0  0  0
  2  3  2  0  0  0  0
  2  4  2  0  0  0  0
  2  8  1  0  0  0  0
  2  9  1  0  0  0  0
  5 12  2  0  0  0  0
  6  7  1  0  0  0  0
  6 13  1  0  0  0  0
  6 17  1  0  0  0  0
  7 12  1  0  0  0  0
  7 25  1  0  0  0  0
  8 34  1  0  0  0  0
  8 35  1  0  0  0  0
  9 11  1  0  0  0  0
  9 14  2  0  0  0  0
 10 11  2  0  0  0  0
 10 12  1  0  0  0  0
 10 15  1  0  0  0  0
 11 23  1  0  0  0  0
 13 18  2  0  0  0  0
 13 19  1  0  0  0  0
 14 16  1  0  0  0  0
 15 16  2  0  0  0  0
 15 24  1  0  0  0  0
 16 26  1  0  0  0  0
 17 27  1  0  0  0  0
 17 28  1  0  0  0  0
 17 29  1  0  0  0  0
 18 20  1  0  0  0  0
 18 30  1  0  0  0  0
 19 21  2  0  0  0  0
 19 31  1  0  0  0  0
 20 22  2  0  0  0  0
 20 32  1  0  0  0  0
 21 22  1  0  0  0  0
 21 33  1  0  0  0  0
 22 36  1  0  0  0  0
M  END
> <PUBCHEM_COMPOUND_CID>
135086

> <PUBCHEM_CONFORMER_RMSD>
0.8

> <PUBCHEM_CONFORMER_DIVERSEORDER>
1
13
19
36
7
35
27
38
33
39
24
10
31
40
2
3
12
37
23
21
28
8
34
15
26
4
25
9
6
30
29
5
16
32
18
11
20
17
22
14

> <PUBCHEM_MMFF94_PARTIAL_CHARGES>
33
1 -0.18
10 0.09
11 -0.15
12 0.54
13 0.1
14 0.18
15 -0.15
16 -0.15
17 0.37
18 -0.15
19 -0.15
2 1.45
20 -0.15
21 -0.15
22 -0.15
23 0.15
24 0.15
25 0.37
26 0.15
3 -0.65
30 0.15
31 0.15
32 0.15
33 0.15
34 0.42
35 0.42
36 0.15
4 -0.65
5 -0.57
6 -0.49
7 -0.41
8 -0.98
9 -0.01

> <PUBCHEM_EFFECTIVE_ROTOR_COUNT>
5

> <PUBCHEM_PHARMACOPHORE_FEATURES>
7
1 3 acceptor
1 4 acceptor
1 5 acceptor
1 7 donor
1 8 donor
6 13 18 19 20 21 22 rings
6 9 10 11 14 15 16 rings

> <PUBCHEM_HEAVY_ATOM_COUNT>
22

> <PUBCHEM_ATOM_DEF_STEREO_COUNT>
0

> <PUBCHEM_ATOM_UDEF_STEREO_COUNT>
0

> <PUBCHEM_BOND_DEF_STEREO_COUNT>
0

> <PUBCHEM_BOND_UDEF_STEREO_COUNT>
0

> <PUBCHEM_ISOTOPIC_ATOM_COUNT>
0

> <PUBCHEM_COMPONENT_COUNT>
1

> <PUBCHEM_CACTVS_TAUTO_COUNT>
2

> <PUBCHEM_CONFORMER_ID>
00020FAE00000001

> <PUBCHEM_MMFF94_ENERGY>
58.029

> <PUBCHEM_FEATURE_SELFOVERLAP>
35.538

> <PUBCHEM_SHAPE_FINGERPRINT>
10411042 1 17616248088050908810
10763959 59 18046064861475193757
10906281 52 18334021614483303882
12107183 9 17909548350787527707
12236239 1 18271519802165195147
12633257 1 18041265626395599034
13177829 73 18342736308583704704
13583140 156 18187374199035321259
13878862 14 18043790036415779005
14739800 52 17987779913216443912
14848178 96 18335418023355559996
15196674 1 18411698811517079321
15342168 16 18041285451806076725
15475509 8 18197511640772909278
1601671 61 18410291377084336486
20715895 44 17765714621073502777
20739085 24 18040722450218401140
21033648 144 18260818336911690790
21033648 29 16950269690179872503
21033650 10 15482405157381926227
21304253 335 18341607136307271824
21503847 285 18336548226956490946
21864079 5 18411702118525885291
23227448 37 18413106173895454559
23402655 69 18343016679495649542
23558518 356 17970350536286729498
23559900 14 17488186997847378927
23598288 3 18058443369671443503
245318 6 17970081117119643373
335352 9 18408886222888883462
338550 245 18334580101143415132
3472631 163 18272652325159385509
350125 39 18334857160951442940
38570 142 18189922918464764716
4409770 3 15242312134850141271
474 4 18335419049921179139
5048184 11 18410579521649567541
5104073 3 18187358861348541314
543358 83 18410573972889327330
54446538 1 18413105039918612673
57724786 102 17604157016398639692
5895379 119 17631462176345894968
6034566 193 17389402698315122676
6328613 192 18335429002099122668
633830 44 18409444791052834694
9971528 1 18270396088787141738
9981440 41 17906721854295280064

> <PUBCHEM_SHAPE_MULTIPOLES>
425.92
12.51
3.07
1.05
5.81
0.43
0.34
5.94
-0.37
-1.29
-0.04
0.15
0.09
-2.08

> <PUBCHEM_SHAPE_SELFOVERLAP>
886.199

> <PUBCHEM_SHAPE_VOLUME>
243.8

> <PUBCHEM_COORDINATE_TYPE>
2
5
10

$$$$
