135084
  -OEChem-03292013323D

 53 54  0     1  0  0  0  0  0999 V2000
    0.2492   -1.4207    2.6603 O   0  0  0  0  0  0  0  0  0  0  0  0
    0.4466    3.1027   -0.0834 O   0  0  0  0  0  0  0  0  0  0  0  0
   -6.7442   -0.8274   -1.2460 O   0  0  0  0  0  0  0  0  0  0  0  0
    1.5020    1.2388    0.7593 N   0  0  0  0  0  0  0  0  0  0  0  0
   -0.8318    0.2930    1.5681 N   0  0  0  0  0  0  0  0  0  0  0  0
    6.5543   -0.2306   -0.6144 N   0  0  0  0  0  0  0  0  0  0  0  0
    7.8321    0.9392   -2.1542 N   0  0  0  0  0  0  0  0  0  0  0  0
    8.2750   -1.2841   -1.9180 N   0  0  0  0  0  0  0  0  0  0  0  0
    1.4620   -0.2042    0.9459 C   0  0  1  0  0  0  0  0  0  0  0  0
   -0.8942    1.1341    0.3819 C   0  0  1  0  0  0  0  0  0  0  0  0
    2.7640   -0.7203    1.5370 C   0  0  0  0  0  0  0  0  0  0  0  0
    3.8551   -0.8378    0.4722 C   0  0  0  0  0  0  0  0  0  0  0  0
    0.2712   -0.4992    1.8480 C   0  0  0  0  0  0  0  0  0  0  0  0
   -2.1346    2.0129    0.3936 C   0  0  0  0  0  0  0  0  0  0  0  0
    0.3864    1.9572    0.3571 C   0  0  0  0  0  0  0  0  0  0  0  0
    5.1727   -1.3288    1.0794 C   0  0  0  0  0  0  0  0  0  0  0  0
   -3.3622    1.2568   -0.0435 C   0  0  0  0  0  0  0  0  0  0  0  0
    6.2651   -1.5117    0.0318 C   0  0  0  0  0  0  0  0  0  0  0  0
   -4.1434    0.5908    0.9009 C   0  0  0  0  0  0  0  0  0  0  0  0
   -3.7176    1.2226   -1.3919 C   0  0  0  0  0  0  0  0  0  0  0  0
   -5.2800   -0.1095    0.4968 C   0  0  0  0  0  0  0  0  0  0  0  0
   -4.8542    0.5223   -1.7959 C   0  0  0  0  0  0  0  0  0  0  0  0
   -5.6354   -0.1437   -0.8515 C   0  0  0  0  0  0  0  0  0  0  0  0
    7.4997   -0.2247   -1.5019 C   0  0  0  0  0  0  0  0  0  0  0  0
   -7.1164   -1.9648   -0.4691 C   0  0  0  0  0  0  0  0  0  0  0  0
   -7.8215   -2.9630   -1.3626 C   0  0  0  0  0  0  0  0  0  0  0  0
    1.2587   -0.6692   -0.0267 H   0  0  0  0  0  0  0  0  0  0  0  0
   -0.8757    0.4776   -0.4977 H   0  0  0  0  0  0  0  0  0  0  0  0
    2.6161   -1.7151    1.9754 H   0  0  0  0  0  0  0  0  0  0  0  0
    3.1011   -0.0671    2.3521 H   0  0  0  0  0  0  0  0  0  0  0  0
    4.0080    0.1357   -0.0074 H   0  0  0  0  0  0  0  0  0  0  0  0
    3.5314   -1.5356   -0.3098 H   0  0  0  0  0  0  0  0  0  0  0  0
    2.4033    1.7043    0.7093 H   0  0  0  0  0  0  0  0  0  0  0  0
   -2.2998    2.4500    1.3877 H   0  0  0  0  0  0  0  0  0  0  0  0
   -2.0144    2.8716   -0.2799 H   0  0  0  0  0  0  0  0  0  0  0  0
   -1.6805    0.1100    2.0936 H   0  0  0  0  0  0  0  0  0  0  0  0
    5.5107   -0.6126    1.8385 H   0  0  0  0  0  0  0  0  0  0  0  0
    5.0082   -2.2858    1.5890 H   0  0  0  0  0  0  0  0  0  0  0  0
    7.1612   -1.8969    0.5332 H   0  0  0  0  0  0  0  0  0  0  0  0
    5.9360   -2.2499   -0.7096 H   0  0  0  0  0  0  0  0  0  0  0  0
   -3.8887    0.6211    1.9566 H   0  0  0  0  0  0  0  0  0  0  0  0
   -3.1158    1.7353   -2.1375 H   0  0  0  0  0  0  0  0  0  0  0  0
   -5.8767   -0.5893    1.2669 H   0  0  0  0  0  0  0  0  0  0  0  0
   -5.1257    0.4983   -2.8478 H   0  0  0  0  0  0  0  0  0  0  0  0
   -7.7894   -1.6470    0.3348 H   0  0  0  0  0  0  0  0  0  0  0  0
   -6.2421   -2.4692   -0.0388 H   0  0  0  0  0  0  0  0  0  0  0  0
    8.5688    0.9652   -2.8506 H   0  0  0  0  0  0  0  0  0  0  0  0
    7.3481    1.8079   -1.9546 H   0  0  0  0  0  0  0  0  0  0  0  0
    8.9917   -1.1609   -2.6251 H   0  0  0  0  0  0  0  0  0  0  0  0
    8.1616   -2.2184   -1.5415 H   0  0  0  0  0  0  0  0  0  0  0  0
   -8.7063   -2.5107   -1.8227 H   0  0  0  0  0  0  0  0  0  0  0  0
   -7.1652   -3.2801   -2.1800 H   0  0  0  0  0  0  0  0  0  0  0  0
   -8.1312   -3.8456   -0.7959 H   0  0  0  0  0  0  0  0  0  0  0  0
  1 13  2  0  0  0  0
  2 15  2  0  0  0  0
  3 23  1  0  0  0  0
  3 25  1  0  0  0  0
  4  9  1  0  0  0  0
  4 15  1  0  0  0  0
  4 33  1  0  0  0  0
  5 10  1  0  0  0  0
  5 13  1  0  0  0  0
  5 36  1  0  0  0  0
  6 18  1  0  0  0  0
  6 24  2  0  0  0  0
  7 24  1  0  0  0  0
  7 47  1  0  0  0  0
  7 48  1  0  0  0  0
  8 24  1  0  0  0  0
  8 49  1  0  0  0  0
  8 50  1  0  0  0  0
  9 11  1  0  0  0  0
  9 13  1  0  0  0  0
  9 27  1  0  0  0  0
 10 14  1  0  0  0  0
 10 15  1  0  0  0  0
 10 28  1  0  0  0  0
 11 12  1  0  0  0  0
 11 29  1  0  0  0  0
 11 30  1  0  0  0  0
 12 16  1  0  0  0  0
 12 31  1  0  0  0  0
 12 32  1  0  0  0  0
 14 17  1  0  0  0  0
 14 34  1  0  0  0  0
 14 35  1  0  0  0  0
 16 18  1  0  0  0  0
 16 37  1  0  0  0  0
 16 38  1  0  0  0  0
 17 19  2  0  0  0  0
 17 20  1  0  0  0  0
 18 39  1  0  0  0  0
 18 40  1  0  0  0  0
 19 21  1  0  0  0  0
 19 41  1  0  0  0  0
 20 22  2  0  0  0  0
 20 42  1  0  0  0  0
 21 23  2  0  0  0  0
 21 43  1  0  0  0  0
 22 23  1  0  0  0  0
 22 44  1  0  0  0  0
 25 26  1  0  0  0  0
 25 45  1  0  0  0  0
 25 46  1  0  0  0  0
 26 51  1  0  0  0  0
 26 52  1  0  0  0  0
 26 53  1  0  0  0  0
M  END
> <PUBCHEM_COMPOUND_CID>
135084

> <PUBCHEM_CONFORMER_RMSD>
1

> <PUBCHEM_CONFORMER_DIVERSEORDER>
1
27
128
30
89
22
113
92
67
7
60
147
111
97
53
167
148
143
80
37
45
51
158
164
150
36
64
49
154
134
68
43
10
98
24
153
161
117
118
12
106
69
66
11
86
71
83
9
23
110
16
133
77
75
99
81
90
63
47
72
13
85
26
155
94
96
28
84
40
17
140
108
32
141
65
29
58
120
56
35
102
142
82
129
33
14
21
76
132
123
19
122
8
112
145
151
157
54
20
88
6
137
46
87
74
109
39
156
3
125
121
130
131
95
160
127
162
166
38
41
104
50
34
93
70
114
44
91
116
119
139
144
149
57
165
163
152
115
25
4
61
18
73
101
42
48
146
31
138
5
124
79
168
136
135
52
15
62
78
159
107
126
105
59
100
55
103
2

> <PUBCHEM_MMFF94_PARTIAL_CHARGES>
32
1 -0.57
10 0.36
13 0.57
14 0.14
15 0.57
17 -0.14
18 0.25
19 -0.15
2 -0.57
20 -0.15
21 -0.15
22 -0.15
23 0.08
24 0.55
25 0.28
3 -0.36
33 0.37
36 0.37
4 -0.73
41 0.15
42 0.15
43 0.15
44 0.15
47 0.4
48 0.4
49 0.4
5 -0.73
50 0.4
6 -0.7
7 -0.85
8 -0.85
9 0.36

> <PUBCHEM_EFFECTIVE_ROTOR_COUNT>
9.8

> <PUBCHEM_PHARMACOPHORE_FEATURES>
10
1 1 acceptor
1 2 acceptor
1 3 acceptor
1 4 donor
1 5 donor
1 7 donor
1 8 donor
4 6 7 8 24 cation
6 17 19 20 21 22 23 rings
6 4 5 9 10 13 15 rings

> <PUBCHEM_HEAVY_ATOM_COUNT>
26

> <PUBCHEM_ATOM_DEF_STEREO_COUNT>
2

> <PUBCHEM_ATOM_UDEF_STEREO_COUNT>
0

> <PUBCHEM_BOND_DEF_STEREO_COUNT>
0

> <PUBCHEM_BOND_UDEF_STEREO_COUNT>
0

> <PUBCHEM_ISOTOPIC_ATOM_COUNT>
0

> <PUBCHEM_COMPONENT_COUNT>
1

> <PUBCHEM_CACTVS_TAUTO_COUNT>
8

> <PUBCHEM_CONFORMER_ID>
00020FAC00000001

> <PUBCHEM_MMFF94_ENERGY>
79.8212

> <PUBCHEM_FEATURE_SELFOVERLAP>
50.812

> <PUBCHEM_SHAPE_FINGERPRINT>
10280341 67 8357999761986620351
10740516 88 17560531658878159038
11387372 6 16343408583966997957
11961588 58 16660364770978474272
12633257 1 14332830661139168913
13668630 136 18131066039064337967
13673619 4 17203321204432702289
13690498 29 18260536819813417253
13782708 43 17560225926368576154
13911987 19 17822014172705145200
14123256 34 17703787024449158675
14767858 380 18114183012703604000
14931854 50 17822558444489783579
15352257 5 16558750084024868734
16991971 28 18343584070360462981
16994733 274 14273457002625873930
195137 95 11025787708784300391
21033648 29 9007062409126152673
21150785 3 18186239524288538406
21344244 246 18262798608861832676
21403212 168 10087640377351265864
21521239 73 18335419101539914296
21591340 7 9295285024335419905
2303208 19 16630235914862824728
23522609 53 18123493613034142616
2838139 119 14345804841747596574
393628 179 12468629547995601519
4093350 32 12035718804847697144
5104073 3 12606534732819725411
5283384 27 14562530682653006574
5385378 56 10303824206405914401
54039377 194 18202004356652406495
54076057 127 17131261493767123600
5470011 282 17676483926276590111
57634706 306 15864359094781328340
6058803 2 17464240643705776745
636775 8 18273498978771648182
9980921 7 16081665486342358190
999808 66 17203323434048437767

> <PUBCHEM_SHAPE_MULTIPOLES>
492.55
23.78
2.39
2.04
20.13
0.02
0
-17.37
-18.56
-3.02
-0.42
2.04
-0.48
-1.39

> <PUBCHEM_SHAPE_SELFOVERLAP>
1009.752

> <PUBCHEM_SHAPE_VOLUME>
280.6

> <PUBCHEM_COORDINATE_TYPE>
2
5
10

$$$$
