135083
  -OEChem-03292013323D

 38 39  0     1  0  0  0  0  0999 V2000
   -1.8069    0.6591    0.2840 O   0  0  0  0  0  0  0  0  0  0  0  0
   -0.7864   -1.3604    0.8575 O   0  0  0  0  0  0  0  0  0  0  0  0
   -5.4464   -1.2408   -0.2373 O   0  0  0  0  0  0  0  0  0  0  0  0
   -4.5318    1.0494    1.0465 O   0  0  0  0  0  0  0  0  0  0  0  0
   -2.9880   -2.7645   -0.2608 O   0  0  0  0  0  0  0  0  0  0  0  0
   -1.4914    3.3693   -0.8486 O   0  0  0  0  0  0  0  0  0  0  0  0
    3.1538    0.4458   -2.4572 O   0  5  0  0  0  0  0  0  0  0  0  0
    3.9103   -1.5432   -1.9177 O   0  0  0  0  0  0  0  0  0  0  0  0
    5.3872   -0.2000    0.9619 O   0  5  0  0  0  0  0  0  0  0  0  0
    4.6307    1.7889    0.4223 O   0  0  0  0  0  0  0  0  0  0  0  0
    3.2313   -0.5211   -1.6640 N   0  3  0  0  0  0  0  0  0  0  0  0
    4.4437    0.5813    0.6992 N   0  3  0  0  0  0  0  0  0  0  0  0
   -4.1785   -0.6947   -0.5905 C   0  0  1  0  0  0  0  0  0  0  0  0
   -4.1564    0.8085   -0.3112 C   0  0  2  0  0  0  0  0  0  0  0  0
   -3.0840   -1.4154    0.1962 C   0  0  2  0  0  0  0  0  0  0  0  0
   -2.7449    1.3583   -0.5439 C   0  0  1  0  0  0  0  0  0  0  0  0
   -1.7294   -0.7345   -0.0121 C   0  0  1  0  0  0  0  0  0  0  0  0
   -2.6361    2.8400   -0.2037 C   0  0  0  0  0  0  0  0  0  0  0  0
    0.4963   -0.8878    0.8109 C   0  0  0  0  0  0  0  0  0  0  0  0
    1.2158   -0.9394   -0.3829 C   0  0  0  0  0  0  0  0  0  0  0  0
    1.0843   -0.3527    1.9571 C   0  0  0  0  0  0  0  0  0  0  0  0
    2.5233   -0.4558   -0.4306 C   0  0  0  0  0  0  0  0  0  0  0  0
    2.3920    0.1306    1.9095 C   0  0  0  0  0  0  0  0  0  0  0  0
    3.1114    0.0791    0.7156 C   0  0  0  0  0  0  0  0  0  0  0  0
   -4.0411   -0.8767   -1.6637 H   0  0  0  0  0  0  0  0  0  0  0  0
   -4.8930    1.3142   -0.9460 H   0  0  0  0  0  0  0  0  0  0  0  0
   -3.3396   -1.4605    1.2613 H   0  0  0  0  0  0  0  0  0  0  0  0
   -2.4528    1.2066   -1.5917 H   0  0  0  0  0  0  0  0  0  0  0  0
   -1.4090   -0.8718   -1.0532 H   0  0  0  0  0  0  0  0  0  0  0  0
   -2.5263    3.0029    0.8734 H   0  0  0  0  0  0  0  0  0  0  0  0
   -3.5060    3.3928   -0.5723 H   0  0  0  0  0  0  0  0  0  0  0  0
   -6.1231   -0.7595   -0.7431 H   0  0  0  0  0  0  0  0  0  0  0  0
   -4.6840    2.0040    1.1480 H   0  0  0  0  0  0  0  0  0  0  0  0
   -2.7613   -2.7478   -1.2063 H   0  0  0  0  0  0  0  0  0  0  0  0
   -1.4444    4.3135   -0.6213 H   0  0  0  0  0  0  0  0  0  0  0  0
    0.7678   -1.3721   -1.2744 H   0  0  0  0  0  0  0  0  0  0  0  0
    0.5280   -0.3090    2.8894 H   0  0  0  0  0  0  0  0  0  0  0  0
    2.8363    0.5451    2.8113 H   0  0  0  0  0  0  0  0  0  0  0  0
  1 16  1  0  0  0  0
  1 17  1  0  0  0  0
  2 17  1  0  0  0  0
  2 19  1  0  0  0  0
  3 13  1  0  0  0  0
  3 32  1  0  0  0  0
  4 14  1  0  0  0  0
  4 33  1  0  0  0  0
  5 15  1  0  0  0  0
  5 34  1  0  0  0  0
  6 18  1  0  0  0  0
  6 35  1  0  0  0  0
  7 11  1  0  0  0  0
  8 11  2  0  0  0  0
  9 12  1  0  0  0  0
 10 12  2  0  0  0  0
 11 22  1  0  0  0  0
 12 24  1  0  0  0  0
 13 14  1  0  0  0  0
 13 15  1  0  0  0  0
 13 25  1  0  0  0  0
 14 16  1  0  0  0  0
 14 26  1  0  0  0  0
 15 17  1  0  0  0  0
 15 27  1  0  0  0  0
 16 18  1  0  0  0  0
 16 28  1  0  0  0  0
 17 29  1  0  0  0  0
 18 30  1  0  0  0  0
 18 31  1  0  0  0  0
 19 20  2  0  0  0  0
 19 21  1  0  0  0  0
 20 22  1  0  0  0  0
 20 36  1  0  0  0  0
 21 23  2  0  0  0  0
 21 37  1  0  0  0  0
 22 24  2  0  0  0  0
 23 24  1  0  0  0  0
 23 38  1  0  0  0  0
M  CHG  4   7  -1   9  -1  11   1  12   1
M  END
> <PUBCHEM_COMPOUND_CID>
135083

> <PUBCHEM_CONFORMER_RMSD>
0.8

> <PUBCHEM_CONFORMER_DIVERSEORDER>
2
50
11
42
28
30
58
60
47
31
14
70
67
46
74
33
9
40
61
73
27
23
39
6
25
53
32
48
56
45
55
13
10
62
5
57
17
20
41
69
65
35
15
54
3
49
63
59
52
21
19
71
72
38
44
26
43
66
4
16
8
34
51
7
36
37
29
64
24
22
68
18
12
1

> <PUBCHEM_MMFF94_PARTIAL_CHARGES>
31
1 -0.56
10 -0.52
11 0.91
12 0.91
13 0.28
14 0.28
15 0.28
16 0.28
17 0.56
18 0.28
19 0.08
2 -0.36
20 -0.15
21 -0.15
22 0.13
23 -0.15
24 0.13
3 -0.68
32 0.4
33 0.4
34 0.4
35 0.4
36 0.15
37 0.15
38 0.15
4 -0.68
5 -0.68
6 -0.68
7 -0.52
8 -0.52
9 -0.52

> <PUBCHEM_EFFECTIVE_ROTOR_COUNT>
6.2

> <PUBCHEM_PHARMACOPHORE_FEATURES>
18
1 1 acceptor
1 10 acceptor
1 2 acceptor
1 3 acceptor
1 3 donor
1 4 acceptor
1 4 donor
1 5 acceptor
1 5 donor
1 6 acceptor
1 6 donor
1 7 acceptor
1 7 anion
1 8 acceptor
1 9 acceptor
1 9 anion
6 1 13 14 15 16 17 rings
6 19 20 21 22 23 24 rings

> <PUBCHEM_HEAVY_ATOM_COUNT>
24

> <PUBCHEM_ATOM_DEF_STEREO_COUNT>
5

> <PUBCHEM_ATOM_UDEF_STEREO_COUNT>
0

> <PUBCHEM_BOND_DEF_STEREO_COUNT>
0

> <PUBCHEM_BOND_UDEF_STEREO_COUNT>
0

> <PUBCHEM_ISOTOPIC_ATOM_COUNT>
0

> <PUBCHEM_COMPONENT_COUNT>
1

> <PUBCHEM_CACTVS_TAUTO_COUNT>
1

> <PUBCHEM_CONFORMER_ID>
00020FAB00000002

> <PUBCHEM_MMFF94_ENERGY>
86.6754

> <PUBCHEM_FEATURE_SELFOVERLAP>
91.585

> <PUBCHEM_SHAPE_FINGERPRINT>
10369192 42 17344051134173636504
10498660 4 18335695006133900749
10646746 165 18409725136874554800
10670039 82 18114752529419395820
11595378 159 17894906283199672041
11640471 11 17531809039373518921
12107183 9 17468173571360616290
12166972 35 17168135763123886108
12173636 292 18265609884579827173
12236239 1 17530955895617812171
12507557 5 15502373439187170224
12670546 177 18201997776340372712
12916748 109 18335422369783160499
13911987 19 16915943070800811064
13965767 371 17173202106330379252
14251757 17 17988082180029275712
14739800 52 18045197561940127648
14790565 3 17907576931388747417
14910302 57 18202563956019718407
15961568 22 18263922314531133948
17349148 13 17312816078711872082
18186145 218 18059296452664286763
192875 21 17022901254967885604
20645477 70 16630252437233039870
21033650 10 18263941959647397816
21864079 5 17604165747713555612
23402539 116 18337096973163193250
235170 7 17988928863938262268
23557571 272 18342735234488407385
23559900 14 18130790019366447934
474 4 16660362584549853066
5161694 15 17632011931927310165
5281201 14 17917714595186943264
5895379 119 18261965055036947372
6287921 2 17916014857880405529

> <PUBCHEM_SHAPE_MULTIPOLES>
425.25
10.73
2.37
1.62
1.47
1.52
-0.35
0.38
-0.74
-2.63
-0.5
2.23
-0.13
0.46

> <PUBCHEM_SHAPE_SELFOVERLAP>
897.687

> <PUBCHEM_SHAPE_VOLUME>
236.4

> <PUBCHEM_COORDINATE_TYPE>
2
5
10

$$$$
