135095
  -OEChem-03292013323D

 53 52  0     0  0  0  0  0  0999 V2000
    0.1207    4.1254    0.4903 P   0  0  0  0  0  0  0  0  0  0  0  0
    0.0849    2.6571   -0.1868 O   0  0  0  0  0  0  0  0  0  0  0  0
   -2.4496    0.2766   -0.3042 O   0  0  0  0  0  0  0  0  0  0  0  0
   -0.0698   -2.2240    0.2271 O   0  0  0  0  0  0  0  0  0  0  0  0
    2.4646    0.1386   -0.2564 O   0  0  0  0  0  0  0  0  0  0  0  0
    1.3442    4.0336    1.5438 O   0  0  0  0  0  0  0  0  0  0  0  0
   -1.1888    4.1138    1.4391 O   0  0  0  0  0  0  0  0  0  0  0  0
    0.1920    5.2699   -0.4778 O   0  0  0  0  0  0  0  0  0  0  0  0
   -3.7059    0.1288   -2.2274 O   0  0  0  0  0  0  0  0  0  0  0  0
   -0.1122   -3.3007    2.2612 O   0  0  0  0  0  0  0  0  0  0  0  0
    3.7139   -0.1375   -2.1699 O   0  0  0  0  0  0  0  0  0  0  0  0
   -0.0092    0.1991   -0.1413 C   0  0  0  0  0  0  0  0  0  0  0  0
    0.0174    1.5222    0.6655 C   0  0  0  0  0  0  0  0  0  0  0  0
   -1.2531    0.1530   -1.0637 C   0  0  0  0  0  0  0  0  0  0  0  0
   -0.0453   -0.9626    0.8831 C   0  0  0  0  0  0  0  0  0  0  0  0
    1.2648    0.0602   -1.0151 C   0  0  0  0  0  0  0  0  0  0  0  0
   -3.6152    0.2491   -1.0138 C   0  0  0  0  0  0  0  0  0  0  0  0
   -0.1026   -3.3213    1.0385 C   0  0  0  0  0  0  0  0  0  0  0  0
    3.6285    0.0240   -0.9608 C   0  0  0  0  0  0  0  0  0  0  0  0
   -4.7750    0.3894   -0.0897 C   0  0  0  0  0  0  0  0  0  0  0  0
   -0.1240   -4.5617    0.2142 C   0  0  0  0  0  0  0  0  0  0  0  0
    4.7930    0.1235   -0.0374 C   0  0  0  0  0  0  0  0  0  0  0  0
   -4.6370    1.1645    1.1847 C   0  0  0  0  0  0  0  0  0  0  0  0
    0.5334   -4.5868   -1.1316 C   0  0  0  0  0  0  0  0  0  0  0  0
    4.6739   -0.3388    1.3824 C   0  0  0  0  0  0  0  0  0  0  0  0
   -5.9238   -0.2013   -0.4500 C   0  0  0  0  0  0  0  0  0  0  0  0
   -0.7484   -5.6315    0.7283 C   0  0  0  0  0  0  0  0  0  0  0  0
    5.9287    0.6371   -0.5324 C   0  0  0  0  0  0  0  0  0  0  0  0
   -0.8784    1.6008    1.2915 H   0  0  0  0  0  0  0  0  0  0  0  0
    0.8846    1.5349    1.3353 H   0  0  0  0  0  0  0  0  0  0  0  0
   -1.2769   -0.7930   -1.6192 H   0  0  0  0  0  0  0  0  0  0  0  0
   -1.2086    0.9713   -1.7934 H   0  0  0  0  0  0  0  0  0  0  0  0
    0.8363   -0.9188    1.5357 H   0  0  0  0  0  0  0  0  0  0  0  0
   -0.9360   -0.8760    1.5185 H   0  0  0  0  0  0  0  0  0  0  0  0
    1.2466   -0.8953   -1.5549 H   0  0  0  0  0  0  0  0  0  0  0  0
    1.2774    0.8602   -1.7669 H   0  0  0  0  0  0  0  0  0  0  0  0
    1.6053    4.8389    2.0391 H   0  0  0  0  0  0  0  0  0  0  0  0
   -1.4480    4.9397    1.9005 H   0  0  0  0  0  0  0  0  0  0  0  0
   -3.9546    0.6554    1.8732 H   0  0  0  0  0  0  0  0  0  0  0  0
   -4.2416    2.1650    0.9798 H   0  0  0  0  0  0  0  0  0  0  0  0
   -5.5974    1.2871    1.6966 H   0  0  0  0  0  0  0  0  0  0  0  0
    0.0054   -3.9300   -1.8305 H   0  0  0  0  0  0  0  0  0  0  0  0
    1.5719   -4.2484   -1.0532 H   0  0  0  0  0  0  0  0  0  0  0  0
    0.5455   -5.5930   -1.5637 H   0  0  0  0  0  0  0  0  0  0  0  0
    3.9819    0.3014    1.9392 H   0  0  0  0  0  0  0  0  0  0  0  0
    4.3001   -1.3675    1.4167 H   0  0  0  0  0  0  0  0  0  0  0  0
    5.6376   -0.3199    1.9024 H   0  0  0  0  0  0  0  0  0  0  0  0
   -6.8061   -0.1376    0.1789 H   0  0  0  0  0  0  0  0  0  0  0  0
   -6.0196   -0.7662   -1.3716 H   0  0  0  0  0  0  0  0  0  0  0  0
   -0.8001   -6.5660    0.1786 H   0  0  0  0  0  0  0  0  0  0  0  0
   -1.2279   -5.6092    1.7015 H   0  0  0  0  0  0  0  0  0  0  0  0
    6.8136    0.7373    0.0880 H   0  0  0  0  0  0  0  0  0  0  0  0
    6.0108    0.9756   -1.5601 H   0  0  0  0  0  0  0  0  0  0  0  0
  1  2  1  0  0  0  0
  1  6  1  0  0  0  0
  1  7  1  0  0  0  0
  1  8  2  0  0  0  0
  2 13  1  0  0  0  0
  3 14  1  0  0  0  0
  3 17  1  0  0  0  0
  4 15  1  0  0  0  0
  4 18  1  0  0  0  0
  5 16  1  0  0  0  0
  5 19  1  0  0  0  0
  6 37  1  0  0  0  0
  7 38  1  0  0  0  0
  9 17  2  0  0  0  0
 10 18  2  0  0  0  0
 11 19  2  0  0  0  0
 12 13  1  0  0  0  0
 12 14  1  0  0  0  0
 12 15  1  0  0  0  0
 12 16  1  0  0  0  0
 13 29  1  0  0  0  0
 13 30  1  0  0  0  0
 14 31  1  0  0  0  0
 14 32  1  0  0  0  0
 15 33  1  0  0  0  0
 15 34  1  0  0  0  0
 16 35  1  0  0  0  0
 16 36  1  0  0  0  0
 17 20  1  0  0  0  0
 18 21  1  0  0  0  0
 19 22  1  0  0  0  0
 20 23  1  0  0  0  0
 20 26  2  0  0  0  0
 21 24  1  0  0  0  0
 21 27  2  0  0  0  0
 22 25  1  0  0  0  0
 22 28  2  0  0  0  0
 23 39  1  0  0  0  0
 23 40  1  0  0  0  0
 23 41  1  0  0  0  0
 24 42  1  0  0  0  0
 24 43  1  0  0  0  0
 24 44  1  0  0  0  0
 25 45  1  0  0  0  0
 25 46  1  0  0  0  0
 25 47  1  0  0  0  0
 26 48  1  0  0  0  0
 26 49  1  0  0  0  0
 27 50  1  0  0  0  0
 27 51  1  0  0  0  0
 28 52  1  0  0  0  0
 28 53  1  0  0  0  0
M  END
> <PUBCHEM_COMPOUND_CID>
135095

> <PUBCHEM_CONFORMER_RMSD>
1.2

> <PUBCHEM_CONFORMER_DIVERSEORDER>
1
4
9
7
8
6
3
5
2

> <PUBCHEM_MMFF94_PARTIAL_CHARGES>
35
1 1.51
10 -0.57
11 -0.57
13 0.28
14 0.28
15 0.28
16 0.28
17 0.71
18 0.71
19 0.71
2 -0.55
20 -0.12
21 -0.12
22 -0.12
23 0.14
24 0.14
25 0.14
26 -0.3
27 -0.3
28 -0.3
3 -0.43
37 0.5
38 0.5
4 -0.43
48 0.15
49 0.15
5 -0.43
50 0.15
51 0.15
52 0.15
53 0.15
6 -0.77
7 -0.77
8 -0.7
9 -0.57

> <PUBCHEM_EFFECTIVE_ROTOR_COUNT>
15

> <PUBCHEM_PHARMACOPHORE_FEATURES>
7
1 10 acceptor
1 11 acceptor
1 6 acceptor
1 7 acceptor
1 8 acceptor
1 9 acceptor
4 1 6 7 8 anion

> <PUBCHEM_HEAVY_ATOM_COUNT>
28

> <PUBCHEM_ATOM_DEF_STEREO_COUNT>
0

> <PUBCHEM_ATOM_UDEF_STEREO_COUNT>
0

> <PUBCHEM_BOND_DEF_STEREO_COUNT>
0

> <PUBCHEM_BOND_UDEF_STEREO_COUNT>
0

> <PUBCHEM_ISOTOPIC_ATOM_COUNT>
0

> <PUBCHEM_COMPONENT_COUNT>
1

> <PUBCHEM_CACTVS_TAUTO_COUNT>
1

> <PUBCHEM_CONFORMER_ID>
00020FB700000001

> <PUBCHEM_MMFF94_ENERGY>
27.5238

> <PUBCHEM_FEATURE_SELFOVERLAP>
35.561

> <PUBCHEM_SHAPE_FINGERPRINT>
10006869 2 17695352473918074153
10190108 129 17979105724245742809
102385 1 17761492895015336061
10906281 52 18199766863369730100
1100329 8 18338233893971675337
11421498 54 18339359639692179801
11578080 2 17900552481704252492
12058002 1 17629517238733182176
12788726 201 18340487777530613256
13149001 5 18266457805027957324
133893 2 17100043910143687478
13911987 19 18261969499721183909
14943834 7 17689433780564234149
15439362 3 18195801002053792877
15775530 1 17761213619093477597
20028762 73 18199470034027744463
20771845 140 18129363956911826419
21421861 104 17977953375824704995
23558518 356 17830457172234265602
266924 87 18193839236858733852
283562 15 18340209566344075008
3178227 256 18336839675448467995
3250762 1 17762055840673679652
3380486 77 18334866004368233180
3383291 50 18265329513690566122
469060 322 18265628601515501737
5171179 24 17692255553219846818

> <PUBCHEM_SHAPE_MULTIPOLES>
521.38
9.28
7.3
1.63
0.24
3.64
0.06
-2.97
2.14
-0.5
-2.82
0.08
0.25
-0.04

> <PUBCHEM_SHAPE_SELFOVERLAP>
1018.786

> <PUBCHEM_SHAPE_VOLUME>
315.5

> <PUBCHEM_COORDINATE_TYPE>
2
5
10

$$$$
