13505996
  -OEChem-03292013303D

 31 32  0     1  0  0  0  0  0999 V2000
    1.3328    0.0091   -1.1771 O   0  0  0  0  0  0  0  0  0  0  0  0
    3.3478    1.9711    0.0322 O   0  0  0  0  0  0  0  0  0  0  0  0
    3.8230   -1.9406    0.6209 O   0  0  0  0  0  0  0  0  0  0  0  0
   -0.0453   -1.8096   -0.2439 O   0  0  0  0  0  0  0  0  0  0  0  0
   -0.7470    0.3894   -0.1748 N   0  0  0  0  0  0  0  0  0  0  0  0
   -3.0618    0.7641    0.1168 N   0  0  0  0  0  0  0  0  0  0  0  0
   -2.2639   -1.4448    0.0393 N   0  0  0  0  0  0  0  0  0  0  0  0
   -4.5335   -1.0604    0.3268 N   0  0  0  0  0  0  0  0  0  0  0  0
    2.7603    0.7802    0.5517 C   0  0  1  0  0  0  0  0  0  0  0  0
    0.5787    0.9064   -0.3499 C   0  0  1  0  0  0  0  0  0  0  0  0
    1.3319    1.0542    0.9621 C   0  0  0  0  0  0  0  0  0  0  0  0
    2.6083   -0.2496   -0.5591 C   0  0  1  0  0  0  0  0  0  0  0  0
    2.5959   -1.6821   -0.0416 C   0  0  0  0  0  0  0  0  0  0  0  0
   -1.8592    1.2116   -0.0422 C   0  0  0  0  0  0  0  0  0  0  0  0
   -0.9694   -1.0033   -0.1320 C   0  0  0  0  0  0  0  0  0  0  0  0
   -1.6477    2.7033   -0.0857 C   0  0  0  0  0  0  0  0  0  0  0  0
   -3.2509   -0.5991    0.1566 C   0  0  0  0  0  0  0  0  0  0  0  0
    3.3868    0.4476    1.3839 H   0  0  0  0  0  0  0  0  0  0  0  0
    0.5618    1.8621   -0.8818 H   0  0  0  0  0  0  0  0  0  0  0  0
    1.0045    0.3006    1.6885 H   0  0  0  0  0  0  0  0  0  0  0  0
    1.1804    2.0408    1.4101 H   0  0  0  0  0  0  0  0  0  0  0  0
    3.3897   -0.1307   -1.3181 H   0  0  0  0  0  0  0  0  0  0  0  0
    2.4434   -2.4129   -0.8415 H   0  0  0  0  0  0  0  0  0  0  0  0
    1.8466   -1.8366    0.7333 H   0  0  0  0  0  0  0  0  0  0  0  0
    3.3685    2.6239    0.7527 H   0  0  0  0  0  0  0  0  0  0  0  0
   -0.8871    3.0096    0.6359 H   0  0  0  0  0  0  0  0  0  0  0  0
   -2.5798    3.2229    0.1572 H   0  0  0  0  0  0  0  0  0  0  0  0
   -1.3410    3.0040   -1.0914 H   0  0  0  0  0  0  0  0  0  0  0  0
    4.5360   -1.8386   -0.0323 H   0  0  0  0  0  0  0  0  0  0  0  0
   -5.3144   -0.4202    0.4206 H   0  0  0  0  0  0  0  0  0  0  0  0
   -4.7344   -2.0537    0.3645 H   0  0  0  0  0  0  0  0  0  0  0  0
  1 10  1  0  0  0  0
  1 12  1  0  0  0  0
  2  9  1  0  0  0  0
  2 25  1  0  0  0  0
  3 13  1  0  0  0  0
  3 29  1  0  0  0  0
  4 15  2  0  0  0  0
  5 10  1  0  0  0  0
  5 14  1  0  0  0  0
  5 15  1  0  0  0  0
  6 14  2  0  0  0  0
  6 17  1  0  0  0  0
  7 15  1  0  0  0  0
  7 17  2  0  0  0  0
  8 17  1  0  0  0  0
  8 30  1  0  0  0  0
  8 31  1  0  0  0  0
  9 11  1  0  0  0  0
  9 12  1  0  0  0  0
  9 18  1  0  0  0  0
 10 11  1  0  0  0  0
 10 19  1  0  0  0  0
 11 20  1  0  0  0  0
 11 21  1  0  0  0  0
 12 13  1  0  0  0  0
 12 22  1  0  0  0  0
 13 23  1  0  0  0  0
 13 24  1  0  0  0  0
 14 16  1  0  0  0  0
 16 26  1  0  0  0  0
 16 27  1  0  0  0  0
 16 28  1  0  0  0  0
M  END
> <PUBCHEM_COMPOUND_CID>
13505996

> <PUBCHEM_CONFORMER_RMSD>
0.6

> <PUBCHEM_CONFORMER_DIVERSEORDER>
1
6
4
5
3
7
2

> <PUBCHEM_MMFF94_PARTIAL_CHARGES>
20
1 -0.56
10 0.58
12 0.28
13 0.28
14 0.45
15 0.84
16 0.06
17 0.71
2 -0.68
25 0.4
29 0.4
3 -0.68
30 0.4
31 0.4
4 -0.57
5 -0.42
6 -0.66
7 -0.66
8 -0.85
9 0.28

> <PUBCHEM_EFFECTIVE_ROTOR_COUNT>
3

> <PUBCHEM_PHARMACOPHORE_FEATURES>
10
1 1 acceptor
1 2 acceptor
1 2 donor
1 3 acceptor
1 3 donor
1 4 acceptor
1 7 donor
1 8 donor
5 1 9 10 11 12 rings
6 5 6 7 14 15 17 rings

> <PUBCHEM_HEAVY_ATOM_COUNT>
17

> <PUBCHEM_ATOM_DEF_STEREO_COUNT>
3

> <PUBCHEM_ATOM_UDEF_STEREO_COUNT>
0

> <PUBCHEM_BOND_DEF_STEREO_COUNT>
0

> <PUBCHEM_BOND_UDEF_STEREO_COUNT>
0

> <PUBCHEM_ISOTOPIC_ATOM_COUNT>
0

> <PUBCHEM_COMPONENT_COUNT>
1

> <PUBCHEM_CACTVS_TAUTO_COUNT>
3

> <PUBCHEM_CONFORMER_ID>
00CE15CC00000001

> <PUBCHEM_MMFF94_ENERGY>
58.6903

> <PUBCHEM_FEATURE_SELFOVERLAP>
50.818

> <PUBCHEM_SHAPE_FINGERPRINT>
10608611 8 18412823568778297140
10618630 7 18335703866461326855
10967382 1 18339361997238867349
11769659 78 18335419036804012578
12032990 46 18336270123856200627
12251169 10 18412819192728498202
12932764 1 17632288012414748972
13140716 1 18269836415260816872
13581323 91 18408602560955875092
14144814 61 18411420609115401241
14325111 11 18411700980433437173
15196674 1 18410856560151473035
15219456 202 18343017791754782300
15375462 6 18410012169233270612
15442244 35 18338234847781339256
15536298 74 18413670214591383226
15775835 57 18201724010634740307
16945 1 18198047269705961904
17802600 8 18340482279423588227
17804303 29 18339084770132694006
18186145 218 18200883880650961276
19049666 15 18200030616788786968
19422 9 18041849406734417450
20510252 161 18341897394096905929
20559304 39 18334581286453687780
20645477 70 18341891887764196711
21267235 1 18410583880888463646
21501502 16 18413390916909877504
2334 1 18412824685554008308
23402539 116 18271798086176020205
23463225 33 18409168796432755294
23559900 14 18410849941427827148
2748010 2 18340483378771737909
31174 14 18130784611422185457
3286 77 18334854979060356318
350125 39 18338240362171440989
474 4 16880207864624280372
5104073 3 18411703175430504859
69090 78 18060135487848455175
7364860 26 18412828006106845668
81228 2 18260835895112926017
9709674 26 18411142424226622758

> <PUBCHEM_SHAPE_MULTIPOLES>
306.45
6.46
2.34
0.78
1.43
0.53
0.01
-1.79
-0.92
-0.25
-0.1
-0.32
0.05
0.12

> <PUBCHEM_SHAPE_SELFOVERLAP>
646.642

> <PUBCHEM_SHAPE_VOLUME>
171.7

> <PUBCHEM_COORDINATE_TYPE>
2
5
10

$$$$
