135028811
  -OEChem-03292013293D

 38 39  0     1  0  0  0  0  0999 V2000
   -4.5089   -0.6357   -1.1548 S   0  0  0  0  0  0  0  0  0  0  0  0
    1.7403    1.3506   -0.3079 O   0  0  0  0  0  0  0  0  0  0  0  0
    3.5982    0.1205    1.3953 O   0  0  0  0  0  0  0  0  0  0  0  0
    5.7218   -1.3709    0.2519 O   0  0  0  0  0  0  0  0  0  0  0  0
   -1.3351   -2.1572    0.0932 O   0  0  0  0  0  0  0  0  0  0  0  0
   -4.0066   -0.5882    1.4246 O   0  0  0  0  0  0  0  0  0  0  0  0
    2.3653    0.0880   -0.6601 C   0  0  1  0  0  0  0  0  0  0  0  0
    3.7462    0.0287   -0.0272 C   0  0  2  0  0  0  0  0  0  0  0  0
    1.4557   -1.0610   -0.1982 C   0  0  0  0  0  0  0  0  0  0  0  0
    0.1717   -0.3293   -0.1225 C   0  0  0  0  0  0  0  0  0  0  0  0
    0.4134    1.0352   -0.1659 C   0  0  0  0  0  0  0  0  0  0  0  0
    4.4377   -1.3037   -0.3582 C   0  0  0  0  0  0  0  0  0  0  0  0
    4.5941    1.2277   -0.4654 C   0  0  0  0  0  0  0  0  0  0  0  0
   -1.1124   -0.8177    0.0353 C   0  0  0  0  0  0  0  0  0  0  0  0
   -0.6043    1.9624   -0.0522 C   0  0  0  0  0  0  0  0  0  0  0  0
   -2.1597    0.1015    0.1395 C   0  0  0  0  0  0  0  0  0  0  0  0
   -1.9068    1.4828    0.0973 C   0  0  0  0  0  0  0  0  0  0  0  0
   -3.0230    2.4707    0.2153 C   0  0  0  0  0  0  0  0  0  0  0  0
   -3.5261   -0.3841    0.3019 C   0  0  0  0  0  0  0  0  0  0  0  0
   -6.0616   -1.2203   -0.4418 C   0  0  0  0  0  0  0  0  0  0  0  0
    2.4512    0.0729   -1.7566 H   0  0  0  0  0  0  0  0  0  0  0  0
    1.7091   -1.4527    0.7919 H   0  0  0  0  0  0  0  0  0  0  0  0
    1.4469   -1.8753   -0.9286 H   0  0  0  0  0  0  0  0  0  0  0  0
    3.8691   -2.1555    0.0274 H   0  0  0  0  0  0  0  0  0  0  0  0
    4.5631   -1.4219   -1.4399 H   0  0  0  0  0  0  0  0  0  0  0  0
    4.1320    2.1788   -0.1782 H   0  0  0  0  0  0  0  0  0  0  0  0
    4.7508    1.2317   -1.5490 H   0  0  0  0  0  0  0  0  0  0  0  0
    5.5745    1.2167    0.0244 H   0  0  0  0  0  0  0  0  0  0  0  0
   -0.3875    3.0249   -0.0838 H   0  0  0  0  0  0  0  0  0  0  0  0
    3.1202    0.9440    1.5935 H   0  0  0  0  0  0  0  0  0  0  0  0
   -3.6556    2.4439   -0.6773 H   0  0  0  0  0  0  0  0  0  0  0  0
   -3.6328    2.2691    1.1020 H   0  0  0  0  0  0  0  0  0  0  0  0
   -2.6460    3.4944    0.3187 H   0  0  0  0  0  0  0  0  0  0  0  0
    6.1117   -2.2263    0.0033 H   0  0  0  0  0  0  0  0  0  0  0  0
   -0.4908   -2.6329    0.0227 H   0  0  0  0  0  0  0  0  0  0  0  0
   -6.7746   -1.4236   -1.2452 H   0  0  0  0  0  0  0  0  0  0  0  0
   -6.4889   -0.4608    0.2184 H   0  0  0  0  0  0  0  0  0  0  0  0
   -5.9000   -2.1431    0.1218 H   0  0  0  0  0  0  0  0  0  0  0  0
  1 19  1  0  0  0  0
  1 20  1  0  0  0  0
  2  7  1  0  0  0  0
  2 11  1  0  0  0  0
  3  8  1  0  0  0  0
  3 30  1  0  0  0  0
  4 12  1  0  0  0  0
  4 34  1  0  0  0  0
  5 14  1  0  0  0  0
  5 35  1  0  0  0  0
  6 19  2  0  0  0  0
  7  8  1  0  0  0  0
  7  9  1  0  0  0  0
  7 21  1  0  0  0  0
  8 12  1  0  0  0  0
  8 13  1  0  0  0  0
  9 10  1  0  0  0  0
  9 22  1  0  0  0  0
  9 23  1  0  0  0  0
 10 11  2  0  0  0  0
 10 14  1  0  0  0  0
 11 15  1  0  0  0  0
 12 24  1  0  0  0  0
 12 25  1  0  0  0  0
 13 26  1  0  0  0  0
 13 27  1  0  0  0  0
 13 28  1  0  0  0  0
 14 16  2  0  0  0  0
 15 17  2  0  0  0  0
 15 29  1  0  0  0  0
 16 17  1  0  0  0  0
 16 19  1  0  0  0  0
 17 18  1  0  0  0  0
 18 31  1  0  0  0  0
 18 32  1  0  0  0  0
 18 33  1  0  0  0  0
 20 36  1  0  0  0  0
 20 37  1  0  0  0  0
 20 38  1  0  0  0  0
M  END
> <PUBCHEM_COMPOUND_CID>
135028811

> <PUBCHEM_CONFORMER_RMSD>
0.6

> <PUBCHEM_CONFORMER_DIVERSEORDER>
1
99
98
115
100
113
91
125
33
108
96
129
27
64
109
92
31
20
104
116
36
130
123
57
66
85
95
82
126
105
19
93
119
107
29
74
97
124
103
8
75
79
110
45
52
72
122
117
39
34
118
67
121
15
69
10
77
55
76
26
127
102
61
2
11
30
22
40
60
80
112
59
68
120
3
94
56
13
87
62
23
6
88
41
51
78
4
17
54
111
65
73
24
90
18
48
35
14
83
128
101
9
25
70
21
42
131
81
71
5
16
84
106
86
47
37
89
7
63
114
28
12
46
44
38
32
58
50
53
49
43

> <PUBCHEM_MMFF94_PARTIAL_CHARGES>
23
1 -0.37
10 -0.14
11 0.08
12 0.28
14 0.08
15 -0.15
16 0.09
17 -0.14
18 0.14
19 0.62
2 -0.36
20 0.23
29 0.15
3 -0.68
30 0.4
34 0.4
35 0.45
4 -0.68
5 -0.53
6 -0.57
7 0.28
8 0.28
9 0.14

> <PUBCHEM_EFFECTIVE_ROTOR_COUNT>
4.6

> <PUBCHEM_PHARMACOPHORE_FEATURES>
9
1 2 acceptor
1 20 hydrophobe
1 3 acceptor
1 3 donor
1 4 acceptor
1 4 donor
1 5 donor
5 2 7 9 10 11 rings
6 10 11 14 15 16 17 rings

> <PUBCHEM_HEAVY_ATOM_COUNT>
20

> <PUBCHEM_ATOM_DEF_STEREO_COUNT>
1

> <PUBCHEM_ATOM_UDEF_STEREO_COUNT>
1

> <PUBCHEM_BOND_DEF_STEREO_COUNT>
0

> <PUBCHEM_BOND_UDEF_STEREO_COUNT>
0

> <PUBCHEM_ISOTOPIC_ATOM_COUNT>
0

> <PUBCHEM_COMPONENT_COUNT>
1

> <PUBCHEM_CACTVS_TAUTO_COUNT>
13

> <PUBCHEM_CONFORMER_ID>
080C604B00000001

> <PUBCHEM_MMFF94_ENERGY>
65.7519

> <PUBCHEM_FEATURE_SELFOVERLAP>
45.782

> <PUBCHEM_SHAPE_FINGERPRINT>
10366900 7 18059859505960556874
11315181 36 17894636946348815088
11796584 16 17095519634385356355
12236239 1 17894631448395076372
12403259 226 18341324526805801408
12403259 415 17917986166417618464
12403260 363 18412261727015933660
12507560 40 18343577435348322392
12670546 56 18334853905376379152
13140716 1 18122914384752982411
13288520 33 18412827953944746060
13533116 47 18410852170642447842
13583140 156 16343124832319885780
13690532 89 18409166623379692199
13760787 5 18334021613628690141
13862211 1 18411980286826404719
14115302 16 17895481430759948407
15042514 8 18338240482958552739
15196674 1 18410577258233366684
15209294 21 17774739562499786713
16752209 62 18335412448577277777
16945 1 18410863195717806789
17349148 13 18409730655448581398
17804303 29 18340209596724954412
18222031 100 18333726931617020732
18927931 339 18411990139238645935
200 152 18341609335124844717
20028762 73 18130784594359010911
20510252 161 18271531913667151537
20645477 70 18335417963405398454
21029758 11 18342174501134119737
21236236 1 18412263900833946261
21267235 1 18410018719258863622
22079108 93 14979951497224398447
23402539 116 18341890784205099157
23557571 272 18060707164906266589
23559900 14 18337672018398381444
25147074 1 18338533987980371501
2748010 2 18195257615569708333
2871803 45 18259982673656631410
3009799 131 18261662753868975413
3286 77 17275099578689327425
4214541 1 18337956692967550044
465052 167 18339648931119388183
474 4 17096663187220007524
5104073 3 18410014299901092592
559249 180 18189612744490266266
59755656 215 18338516344312560207
69090 78 18202281420101643911
7495541 125 17274815891725286018
9709674 26 18341059518944525014

> <PUBCHEM_SHAPE_MULTIPOLES>
386.09
11.38
2.02
0.9
1.67
0.71
0.09
-4.39
-0.58
-0.73
-0.01
-0.33
-0.08
-0.39

> <PUBCHEM_SHAPE_SELFOVERLAP>
808.37

> <PUBCHEM_SHAPE_VOLUME>
223.5

> <PUBCHEM_COORDINATE_TYPE>
2
5
10

$$$$
