135068
  -OEChem-03292013323D

 68 69  0     1  0  0  0  0  0999 V2000
    2.4577    2.6167   -1.6493 S   0  0  0  0  0  0  0  0  0  0  0  0
    3.0550    3.8804   -1.2619 O   0  0  0  0  0  0  0  0  0  0  0  0
    2.6445    2.1026   -2.9926 O   0  0  0  0  0  0  0  0  0  0  0  0
   -5.4919    0.3974    0.5306 O   0  0  0  0  0  0  0  0  0  0  0  0
   -3.8064    1.9553    2.1301 O   0  0  0  0  0  0  0  0  0  0  0  0
   -0.8952    2.1004    1.9877 N   0  0  0  0  0  0  0  0  0  0  0  0
    0.7949    2.6475   -1.2982 N   0  0  0  0  0  0  0  0  0  0  0  0
   -3.3264   -0.1333    1.2113 N   0  0  0  0  0  0  0  0  0  0  0  0
   -5.5857   -2.4989    0.3773 N   0  0  0  0  0  0  0  0  0  0  0  0
    3.4250   -3.2577    1.0004 N   0  0  0  0  0  0  0  0  0  0  0  0
   -3.7881   -0.5586   -2.4338 C   0  0  0  0  0  0  0  0  0  0  0  0
   -4.7881   -1.4948   -1.7216 C   0  0  0  0  0  0  0  0  0  0  0  0
   -4.5215   -1.6880   -0.2201 C   0  0  1  0  0  0  0  0  0  0  0  0
    3.0413    1.3738   -0.5360 C   0  0  0  0  0  0  0  0  0  0  0  0
    2.7392    0.0109   -0.6906 C   0  0  0  0  0  0  0  0  0  0  0  0
   -1.6339    0.9716    2.5488 C   0  0  2  0  0  0  0  0  0  0  0  0
   -2.3711   -1.1246   -2.3053 C   0  0  0  0  0  0  0  0  0  0  0  0
   -4.1281   -0.3528   -3.9106 C   0  0  0  0  0  0  0  0  0  0  0  0
   -0.4289    1.7954    0.6436 C   0  0  0  0  0  0  0  0  0  0  0  0
    0.3349    2.9794    0.0684 C   0  0  0  0  0  0  0  0  0  0  0  0
    3.2464   -0.9209    0.2461 C   0  0  0  0  0  0  0  0  0  0  0  0
   -4.5304   -0.3689    0.5448 C   0  0  0  0  0  0  0  0  0  0  0  0
    2.9440   -2.2837    0.0918 C   0  0  0  0  0  0  0  0  0  0  0  0
   -3.0392    1.0104    1.9605 C   0  0  0  0  0  0  0  0  0  0  0  0
    3.8319    1.8115    0.5268 C   0  0  0  0  0  0  0  0  0  0  0  0
    1.9447   -0.4475   -1.7541 C   0  0  0  0  0  0  0  0  0  0  0  0
    4.0405   -0.4626    1.3098 C   0  0  0  0  0  0  0  0  0  0  0  0
   -1.6540    1.0772    4.0687 C   0  0  0  0  0  0  0  0  0  0  0  0
    4.3305    0.8951    1.4479 C   0  0  0  0  0  0  0  0  0  0  0  0
    2.1531   -2.7214   -0.9709 C   0  0  0  0  0  0  0  0  0  0  0  0
    1.6545   -1.8051   -1.8921 C   0  0  0  0  0  0  0  0  0  0  0  0
    4.6962   -3.9068    0.7665 C   0  0  0  0  0  0  0  0  0  0  0  0
    2.6547   -3.5999    2.1760 C   0  0  0  0  0  0  0  0  0  0  0  0
   -3.8097    0.4276   -1.9544 H   0  0  0  0  0  0  0  0  0  0  0  0
   -4.7893   -2.4737   -2.2198 H   0  0  0  0  0  0  0  0  0  0  0  0
   -5.7956   -1.0785   -1.8611 H   0  0  0  0  0  0  0  0  0  0  0  0
   -3.5778   -2.2230   -0.0756 H   0  0  0  0  0  0  0  0  0  0  0  0
   -1.1320    0.0263    2.3073 H   0  0  0  0  0  0  0  0  0  0  0  0
   -2.3140   -2.1504   -2.6851 H   0  0  0  0  0  0  0  0  0  0  0  0
   -1.6610   -0.5170   -2.8776 H   0  0  0  0  0  0  0  0  0  0  0  0
   -2.0209   -1.1214   -1.2694 H   0  0  0  0  0  0  0  0  0  0  0  0
   -4.1010   -1.3004   -4.4591 H   0  0  0  0  0  0  0  0  0  0  0  0
   -5.1313    0.0724   -4.0191 H   0  0  0  0  0  0  0  0  0  0  0  0
   -3.4193    0.3350   -4.3836 H   0  0  0  0  0  0  0  0  0  0  0  0
   -1.2707    1.5656   -0.0208 H   0  0  0  0  0  0  0  0  0  0  0  0
    0.2205    0.9128    0.6599 H   0  0  0  0  0  0  0  0  0  0  0  0
    1.1748    3.2618    0.7112 H   0  0  0  0  0  0  0  0  0  0  0  0
   -0.3210    3.8545   -0.0071 H   0  0  0  0  0  0  0  0  0  0  0  0
   -0.0880    2.3110    2.5749 H   0  0  0  0  0  0  0  0  0  0  0  0
    0.1088    2.2469   -1.9487 H   0  0  0  0  0  0  0  0  0  0  0  0
   -2.6042   -0.8451    1.1430 H   0  0  0  0  0  0  0  0  0  0  0  0
    4.0775    2.8589    0.6733 H   0  0  0  0  0  0  0  0  0  0  0  0
   -5.3496   -2.7125    1.3459 H   0  0  0  0  0  0  0  0  0  0  0  0
   -5.6428   -3.3954   -0.1044 H   0  0  0  0  0  0  0  0  0  0  0  0
    1.4825    0.1999   -2.4879 H   0  0  0  0  0  0  0  0  0  0  0  0
    4.4495   -1.1411    2.0543 H   0  0  0  0  0  0  0  0  0  0  0  0
   -2.2380    0.2570    4.5008 H   0  0  0  0  0  0  0  0  0  0  0  0
   -0.6419    1.0271    4.4849 H   0  0  0  0  0  0  0  0  0  0  0  0
   -2.1151    2.0137    4.4031 H   0  0  0  0  0  0  0  0  0  0  0  0
    4.9446    1.2365    2.2762 H   0  0  0  0  0  0  0  0  0  0  0  0
    1.9162   -3.7759   -1.0895 H   0  0  0  0  0  0  0  0  0  0  0  0
    1.0298   -2.1462   -2.7127 H   0  0  0  0  0  0  0  0  0  0  0  0
    4.8424   -4.7652    1.4308 H   0  0  0  0  0  0  0  0  0  0  0  0
    5.5234   -3.2093    0.9330 H   0  0  0  0  0  0  0  0  0  0  0  0
    4.7608   -4.2786   -0.2620 H   0  0  0  0  0  0  0  0  0  0  0  0
    3.2612   -4.1287    2.9189 H   0  0  0  0  0  0  0  0  0  0  0  0
    1.8147   -4.2471    1.9028 H   0  0  0  0  0  0  0  0  0  0  0  0
    2.2539   -2.7041    2.6629 H   0  0  0  0  0  0  0  0  0  0  0  0
  1  2  2  0  0  0  0
  1  3  2  0  0  0  0
  1  7  1  0  0  0  0
  1 14  1  0  0  0  0
  4 22  2  0  0  0  0
  5 24  2  0  0  0  0
  6 16  1  0  0  0  0
  6 19  1  0  0  0  0
  6 49  1  0  0  0  0
  7 20  1  0  0  0  0
  7 50  1  0  0  0  0
  8 22  1  0  0  0  0
  8 24  1  0  0  0  0
  8 51  1  0  0  0  0
  9 13  1  0  0  0  0
  9 53  1  0  0  0  0
  9 54  1  0  0  0  0
 10 23  1  0  0  0  0
 10 32  1  0  0  0  0
 10 33  1  0  0  0  0
 11 12  1  0  0  0  0
 11 17  1  0  0  0  0
 11 18  1  0  0  0  0
 11 34  1  0  0  0  0
 12 13  1  0  0  0  0
 12 35  1  0  0  0  0
 12 36  1  0  0  0  0
 13 22  1  0  0  0  0
 13 37  1  0  0  0  0
 14 15  1  0  0  0  0
 14 25  2  0  0  0  0
 15 21  2  0  0  0  0
 15 26  1  0  0  0  0
 16 24  1  0  0  0  0
 16 28  1  0  0  0  0
 16 38  1  0  0  0  0
 17 39  1  0  0  0  0
 17 40  1  0  0  0  0
 17 41  1  0  0  0  0
 18 42  1  0  0  0  0
 18 43  1  0  0  0  0
 18 44  1  0  0  0  0
 19 20  1  0  0  0  0
 19 45  1  0  0  0  0
 19 46  1  0  0  0  0
 20 47  1  0  0  0  0
 20 48  1  0  0  0  0
 21 23  1  0  0  0  0
 21 27  1  0  0  0  0
 23 30  2  0  0  0  0
 25 29  1  0  0  0  0
 25 52  1  0  0  0  0
 26 31  2  0  0  0  0
 26 55  1  0  0  0  0
 27 29  2  0  0  0  0
 27 56  1  0  0  0  0
 28 57  1  0  0  0  0
 28 58  1  0  0  0  0
 28 59  1  0  0  0  0
 29 60  1  0  0  0  0
 30 31  1  0  0  0  0
 30 61  1  0  0  0  0
 31 62  1  0  0  0  0
 32 63  1  0  0  0  0
 32 64  1  0  0  0  0
 32 65  1  0  0  0  0
 33 66  1  0  0  0  0
 33 67  1  0  0  0  0
 33 68  1  0  0  0  0
M  END
> <PUBCHEM_COMPOUND_CID>
135068

> <PUBCHEM_CONFORMER_RMSD>
1.4

> <PUBCHEM_CONFORMER_DIVERSEORDER>
1
145
3
167
95
70
130
151
82
124
97
164
102
2
104
23
99
132
7
141
156
42
148
81
75
20
138
72
175
38
73
74
34
83
18
172
13
113
115
35
96
112
110
93
106
94
101
87
109
29
111
39
46
43
159
26
173
80
149
174
120
146
98
66
161
133
143
25
127
36
67
48
136
44
135
47
37
163
116
41
139
12
51
137
56
68
8
19
86
15
5
166
125
22
64
154
32
153
126
129
59
58
176
63
117
114
131
152
84
142
50
69
150
79
177
52
33
147
144
78
53
27
169
168
89
103
61
107
45
24
105
91
71
14
140
21
88
119
54
65
4
158
10
62
121
30
31
60
160
16
134
77
92
100
162
85
17
57
128
40
171
170
55
49
6
118
11
108
157
165
28
76
123
90
155
9
122

> <PUBCHEM_MMFF94_PARTIAL_CHARGES>
37
1 1.45
10 -0.84
13 0.33
14 -0.01
16 0.33
19 0.27
2 -0.65
20 0.36
22 0.57
23 0.1
24 0.57
25 -0.15
26 -0.15
27 -0.15
29 -0.15
3 -0.65
30 -0.15
31 -0.15
32 0.37
33 0.37
4 -0.57
49 0.36
5 -0.57
50 0.42
51 0.37
52 0.15
53 0.36
54 0.36
55 0.15
56 0.15
6 -0.9
60 0.15
61 0.15
62 0.15
7 -0.91
8 -0.49
9 -0.99

> <PUBCHEM_EFFECTIVE_ROTOR_COUNT>
13

> <PUBCHEM_PHARMACOPHORE_FEATURES>
14
1 10 cation
1 2 acceptor
1 3 acceptor
1 4 acceptor
1 5 acceptor
1 6 cation
1 6 donor
1 7 donor
1 8 donor
1 9 cation
1 9 donor
3 11 17 18 hydrophobe
6 14 15 21 25 27 29 rings
6 15 21 23 26 30 31 rings

> <PUBCHEM_HEAVY_ATOM_COUNT>
33

> <PUBCHEM_ATOM_DEF_STEREO_COUNT>
2

> <PUBCHEM_ATOM_UDEF_STEREO_COUNT>
0

> <PUBCHEM_BOND_DEF_STEREO_COUNT>
0

> <PUBCHEM_BOND_UDEF_STEREO_COUNT>
0

> <PUBCHEM_ISOTOPIC_ATOM_COUNT>
0

> <PUBCHEM_COMPONENT_COUNT>
1

> <PUBCHEM_CACTVS_TAUTO_COUNT>
3

> <PUBCHEM_CONFORMER_ID>
00020F9C00000001

> <PUBCHEM_MMFF94_ENERGY>
81.4568

> <PUBCHEM_FEATURE_SELFOVERLAP>
71.094

> <PUBCHEM_SHAPE_FINGERPRINT>
11285246 1 17096638808315397445
11578080 2 15285647594936852964
11595378 159 17489869353880159975
11991303 11 16740903117503610852
12156800 1 16458199586070390029
12788726 201 17488758877406481945
13617811 41 13915737629338971649
14114206 34 16663194780743089304
14251757 17 17677033682084761775
14508693 111 16986573498360731631
14950920 106 18411981343420501823
15297060 5 16270550485329205231
17138139 8 17556863838332014573
17974551 9 15261443791464783450
20511986 3 18273214184038503161
21315759 227 18265336290810770811
21315764 371 17703239502298249392
21458453 9 14547867651361337371
24941158 1 17821734952733866926
392239 28 17059476565195082488
463206 1 17344344712436310147
474144 1 18272093837486918287
508706 21 15285916897675656635
6823239 73 16128113194794352240

> <PUBCHEM_SHAPE_MULTIPOLES>
634.59
11.44
4.48
3.68
10.91
0.91
-0.07
6.18
0.25
-4.99
0.46
2.9
-0.99
-4.49

> <PUBCHEM_SHAPE_SELFOVERLAP>
1292.032

> <PUBCHEM_SHAPE_VOLUME>
371

> <PUBCHEM_COORDINATE_TYPE>
2
5
10

$$$$
