135176
  -OEChem-03292013323D

 66 69  0     1  0  0  0  0  0999 V2000
    2.7633   -0.6148   -0.1403 O   0  0  0  0  0  0  0  0  0  0  0  0
   -1.2957    0.5853   -2.7649 O   0  0  0  0  0  0  0  0  0  0  0  0
    4.3712    2.0767    0.7471 O   0  0  0  0  0  0  0  0  0  0  0  0
    4.9974    1.9638   -1.9354 O   0  0  0  0  0  0  0  0  0  0  0  0
   -6.3349   -2.2758   -1.1973 O   0  0  0  0  0  0  0  0  0  0  0  0
    4.8144   -0.6807    0.9164 O   0  0  0  0  0  0  0  0  0  0  0  0
    5.3732   -3.0480   -0.2205 O   0  0  0  0  0  0  0  0  0  0  0  0
    1.0535    1.1287    0.1164 C   0  0  1  0  0  0  0  0  0  0  0  0
    0.2426    0.2354    1.0803 C   0  0  2  0  0  0  0  0  0  0  0  0
   -1.2588    0.5444    1.0607 C   0  0  1  0  0  0  0  0  0  0  0  0
   -1.8287    0.3176   -0.3838 C   0  0  2  0  0  0  0  0  0  0  0  0
    2.4870    0.6477    0.4597 C   0  0  1  0  0  0  0  0  0  0  0  0
    0.5552    0.8262   -1.2997 C   0  0  0  0  0  0  0  0  0  0  0  0
   -0.9628    1.0555   -1.4580 C   0  0  1  0  0  0  0  0  0  0  0  0
    0.9956    0.3673    2.4030 C   0  0  0  0  0  0  0  0  0  0  0  0
   -3.3889    0.6107   -0.4306 C   0  0  1  0  0  0  0  0  0  0  0  0
    2.4768    0.4938    1.9952 C   0  0  0  0  0  0  0  0  0  0  0  0
   -2.0115   -0.3078    2.0946 C   0  0  0  0  0  0  0  0  0  0  0  0
   -3.5201   -0.0268    2.0825 C   0  0  1  0  0  0  0  0  0  0  0  0
    0.9094    2.6475    0.4072 C   0  0  0  0  0  0  0  0  0  0  0  0
   -4.0547   -0.2474    0.6697 C   0  0  0  0  0  0  0  0  0  0  0  0
    3.5843    1.5422   -0.0326 C   0  0  0  0  0  0  0  0  0  0  0  0
   -3.7098    2.1054   -0.1882 C   0  0  0  0  0  0  0  0  0  0  0  0
   -3.9802    0.3031   -1.7999 C   0  0  0  0  0  0  0  0  0  0  0  0
   -4.1897   -0.8348    3.2037 C   0  0  0  0  0  0  0  0  0  0  0  0
   -5.0014   -1.1635    0.3978 C   0  0  0  0  0  0  0  0  0  0  0  0
    3.6625    1.7451   -1.5309 C   0  0  0  0  0  0  0  0  0  0  0  0
   -4.9197   -0.6092   -2.0609 C   0  0  0  0  0  0  0  0  0  0  0  0
   -5.4852   -1.4202   -0.9737 C   0  0  0  0  0  0  0  0  0  0  0  0
    3.9726   -1.1711    0.1763 C   0  0  0  0  0  0  0  0  0  0  0  0
    4.1113   -2.4923   -0.5329 C   0  0  0  0  0  0  0  0  0  0  0  0
    5.5715   -4.3042   -0.8611 C   0  0  0  0  0  0  0  0  0  0  0  0
    0.3507   -0.8159    0.7667 H   0  0  0  0  0  0  0  0  0  0  0  0
   -1.4019    1.5908    1.3485 H   0  0  0  0  0  0  0  0  0  0  0  0
   -1.7208   -0.7581   -0.6022 H   0  0  0  0  0  0  0  0  0  0  0  0
    0.7830   -0.2106   -1.5803 H   0  0  0  0  0  0  0  0  0  0  0  0
    1.0644    1.4438   -2.0468 H   0  0  0  0  0  0  0  0  0  0  0  0
   -1.1730    2.1286   -1.4415 H   0  0  0  0  0  0  0  0  0  0  0  0
    0.8358   -0.5026    3.0487 H   0  0  0  0  0  0  0  0  0  0  0  0
    0.6756    1.2549    2.9605 H   0  0  0  0  0  0  0  0  0  0  0  0
    2.8993    1.3601    2.5167 H   0  0  0  0  0  0  0  0  0  0  0  0
    2.9960   -0.3915    2.3722 H   0  0  0  0  0  0  0  0  0  0  0  0
   -1.6194   -0.0963    3.0971 H   0  0  0  0  0  0  0  0  0  0  0  0
   -1.8262   -1.3735    1.9025 H   0  0  0  0  0  0  0  0  0  0  0  0
   -3.6825    1.0265    2.3432 H   0  0  0  0  0  0  0  0  0  0  0  0
    1.4604    3.2461   -0.3248 H   0  0  0  0  0  0  0  0  0  0  0  0
   -0.1271    2.9913    0.3604 H   0  0  0  0  0  0  0  0  0  0  0  0
    1.2887    2.9217    1.3967 H   0  0  0  0  0  0  0  0  0  0  0  0
   -3.3393    2.7381   -1.0033 H   0  0  0  0  0  0  0  0  0  0  0  0
   -4.7932    2.2704   -0.1229 H   0  0  0  0  0  0  0  0  0  0  0  0
   -3.2743    2.4959    0.7353 H   0  0  0  0  0  0  0  0  0  0  0  0
   -3.6493    0.9083   -2.6403 H   0  0  0  0  0  0  0  0  0  0  0  0
   -1.1499   -0.3759   -2.7856 H   0  0  0  0  0  0  0  0  0  0  0  0
   -3.7650   -0.5638    4.1769 H   0  0  0  0  0  0  0  0  0  0  0  0
   -5.2646   -0.6294    3.2511 H   0  0  0  0  0  0  0  0  0  0  0  0
   -4.0455   -1.9127    3.0705 H   0  0  0  0  0  0  0  0  0  0  0  0
   -5.4539   -1.7804    1.1655 H   0  0  0  0  0  0  0  0  0  0  0  0
    3.0741    2.6211   -1.8106 H   0  0  0  0  0  0  0  0  0  0  0  0
    3.2983    0.8721   -2.0764 H   0  0  0  0  0  0  0  0  0  0  0  0
   -5.3006   -0.7575   -3.0645 H   0  0  0  0  0  0  0  0  0  0  0  0
    4.0382   -2.3204   -1.6119 H   0  0  0  0  0  0  0  0  0  0  0  0
    3.3143   -3.1600   -0.1891 H   0  0  0  0  0  0  0  0  0  0  0  0
    5.4946    1.1470   -1.7580 H   0  0  0  0  0  0  0  0  0  0  0  0
    5.5350   -4.1883   -1.9485 H   0  0  0  0  0  0  0  0  0  0  0  0
    4.8161   -5.0242   -0.5322 H   0  0  0  0  0  0  0  0  0  0  0  0
    6.5592   -4.6802   -0.5816 H   0  0  0  0  0  0  0  0  0  0  0  0
  1 12  1  0  0  0  0
  1 30  1  0  0  0  0
  2 14  1  0  0  0  0
  2 53  1  0  0  0  0
  3 22  2  0  0  0  0
  4 27  1  0  0  0  0
  4 63  1  0  0  0  0
  5 29  2  0  0  0  0
  6 30  2  0  0  0  0
  7 31  1  0  0  0  0
  7 32  1  0  0  0  0
  8  9  1  0  0  0  0
  8 12  1  0  0  0  0
  8 13  1  0  0  0  0
  8 20  1  0  0  0  0
  9 10  1  0  0  0  0
  9 15  1  0  0  0  0
  9 33  1  0  0  0  0
 10 11  1  0  0  0  0
 10 18  1  0  0  0  0
 10 34  1  0  0  0  0
 11 14  1  0  0  0  0
 11 16  1  0  0  0  0
 11 35  1  0  0  0  0
 12 17  1  0  0  0  0
 12 22  1  0  0  0  0
 13 14  1  0  0  0  0
 13 36  1  0  0  0  0
 13 37  1  0  0  0  0
 14 38  1  0  0  0  0
 15 17  1  0  0  0  0
 15 39  1  0  0  0  0
 15 40  1  0  0  0  0
 16 21  1  0  0  0  0
 16 23  1  0  0  0  0
 16 24  1  0  0  0  0
 17 41  1  0  0  0  0
 17 42  1  0  0  0  0
 18 19  1  0  0  0  0
 18 43  1  0  0  0  0
 18 44  1  0  0  0  0
 19 21  1  0  0  0  0
 19 25  1  0  0  0  0
 19 45  1  0  0  0  0
 20 46  1  0  0  0  0
 20 47  1  0  0  0  0
 20 48  1  0  0  0  0
 21 26  2  0  0  0  0
 22 27  1  0  0  0  0
 23 49  1  0  0  0  0
 23 50  1  0  0  0  0
 23 51  1  0  0  0  0
 24 28  2  0  0  0  0
 24 52  1  0  0  0  0
 25 54  1  0  0  0  0
 25 55  1  0  0  0  0
 25 56  1  0  0  0  0
 26 29  1  0  0  0  0
 26 57  1  0  0  0  0
 27 58  1  0  0  0  0
 27 59  1  0  0  0  0
 28 29  1  0  0  0  0
 28 60  1  0  0  0  0
 30 31  1  0  0  0  0
 31 61  1  0  0  0  0
 31 62  1  0  0  0  0
 32 64  1  0  0  0  0
 32 65  1  0  0  0  0
 32 66  1  0  0  0  0
M  END
> <PUBCHEM_COMPOUND_CID>
135176

> <PUBCHEM_CONFORMER_RMSD>
1

> <PUBCHEM_CONFORMER_DIVERSEORDER>
1
4
3
2

> <PUBCHEM_MMFF94_PARTIAL_CHARGES>
26
1 -0.43
12 0.34
14 0.28
16 0.28
19 0.14
2 -0.68
21 -0.28
22 0.45
24 -0.29
26 -0.14
27 0.34
28 -0.14
29 0.54
3 -0.57
30 0.66
31 0.34
32 0.28
4 -0.68
5 -0.57
52 0.15
53 0.4
57 0.15
6 -0.57
60 0.15
63 0.4
7 -0.56

> <PUBCHEM_EFFECTIVE_ROTOR_COUNT>
7.4

> <PUBCHEM_PHARMACOPHORE_FEATURES>
12
1 2 acceptor
1 2 donor
1 3 acceptor
1 4 acceptor
1 4 donor
1 5 acceptor
1 6 acceptor
1 7 acceptor
5 8 9 12 15 17 rings
6 10 11 16 18 19 21 rings
6 16 21 24 26 28 29 rings
6 8 9 10 11 13 14 rings

> <PUBCHEM_HEAVY_ATOM_COUNT>
32

> <PUBCHEM_ATOM_DEF_STEREO_COUNT>
6

> <PUBCHEM_ATOM_UDEF_STEREO_COUNT>
2

> <PUBCHEM_BOND_DEF_STEREO_COUNT>
0

> <PUBCHEM_BOND_UDEF_STEREO_COUNT>
0

> <PUBCHEM_ISOTOPIC_ATOM_COUNT>
0

> <PUBCHEM_COMPONENT_COUNT>
1

> <PUBCHEM_CACTVS_TAUTO_COUNT>
9

> <PUBCHEM_CONFORMER_ID>
0002100800000001

> <PUBCHEM_MMFF94_ENERGY>
105.7393

> <PUBCHEM_FEATURE_SELFOVERLAP>
61.013

> <PUBCHEM_SHAPE_FINGERPRINT>
10319926 262 14979687545846111070
10369192 42 17825122651798474836
10498660 4 16081364176573729593
11135926 11 18265914595493178060
11595378 159 16559031579785273553
12236239 1 17417539119407891153
12422481 6 15840997633180695038
12553582 1 15339116874959249385
12596602 18 17275100652178080418
12633257 1 14548440475386354811
13140716 1 14692308252256273089
13224815 77 16805601499263567665
13383661 66 18117004480085574739
13533116 47 18201712989965177019
13583140 156 17631996599231933545
13782708 43 18334293137019041594
14341114 176 15051463763981778425
15361156 5 18188219680147457060
15475509 35 17846204600889937986
15799311 1 18342751740016408735
16728300 4 17488736775473830567
17349148 13 17489593402257726469
1813 80 17704074014354405344
19319366 153 17630311172571426296
19377110 9 17131828806821663938
20645477 70 18335135393290804258
21033650 10 17459463347619771021
21792934 111 15051465946690457931
22182313 1 16878518945669635553
22393880 68 16588025727232252043
23559900 14 17168141235197141976
23569914 152 17612281101721312535
23569914 2 9198473562112760179
34797466 226 17530966925257105333
350125 39 15266795428506565337
3886686 26 15907729072492549951
392239 28 15051432930332647047
460360 51 17203050660184851901
46194498 28 17170140228661112802
469060 322 15194740059509954323
474113 269 16987981818606523615
5104073 3 16415477160136367011

> <PUBCHEM_SHAPE_MULTIPOLES>
617.46
13.45
2.91
2.54
0.34
2.63
-0.74
9.85
3.43
5.55
1.06
-2.39
-0.1
0.03

> <PUBCHEM_SHAPE_SELFOVERLAP>
1321.798

> <PUBCHEM_SHAPE_VOLUME>
338.6

> <PUBCHEM_COORDINATE_TYPE>
2
5
10

$$$$
