135109
  -OEChem-03292013323D

 34 36  0     0  0  0  0  0  0999 V2000
    3.0778   -2.7233    0.3028 O   0  0  0  0  0  0  0  0  0  0  0  0
    5.3907    1.3371   -0.1551 O   0  0  0  0  0  0  0  0  0  0  0  0
   -6.3394   -1.1566   -0.4873 O   0  0  0  0  0  0  0  0  0  0  0  0
   -6.5568    0.9146    0.4235 O   0  0  0  0  0  0  0  0  0  0  0  0
    3.0642    1.3901   -0.1557 N   0  0  0  0  0  0  0  0  0  0  0  0
    0.5945   -1.0781    0.1246 N   0  0  0  0  0  0  0  0  0  0  0  0
    4.2622   -0.7022    0.0750 N   0  0  0  0  0  0  0  0  0  0  0  0
    0.6164    1.1375   -0.1225 N   0  0  0  0  0  0  0  0  0  0  0  0
    1.9090   -0.7115    0.0803 C   0  0  0  0  0  0  0  0  0  0  0  0
    1.8940    0.6482   -0.0711 C   0  0  0  0  0  0  0  0  0  0  0  0
   -0.1449    0.0696   -0.0015 C   0  0  0  0  0  0  0  0  0  0  0  0
    3.0929   -1.5034    0.1665 C   0  0  0  0  0  0  0  0  0  0  0  0
    4.3164    0.7295   -0.0852 C   0  0  0  0  0  0  0  0  0  0  0  0
   -1.5880    0.0520    0.0045 C   0  0  0  0  0  0  0  0  0  0  0  0
    3.0058    2.8377   -0.3161 C   0  0  0  0  0  0  0  0  0  0  0  0
    5.5410   -1.4006    0.1510 C   0  0  0  0  0  0  0  0  0  0  0  0
   -2.2964    1.1497    0.4918 C   0  0  0  0  0  0  0  0  0  0  0  0
   -2.2728   -1.0628   -0.4784 C   0  0  0  0  0  0  0  0  0  0  0  0
   -3.6911    1.1329    0.4963 C   0  0  0  0  0  0  0  0  0  0  0  0
   -3.6676   -1.0797   -0.4740 C   0  0  0  0  0  0  0  0  0  0  0  0
   -4.3769    0.0182    0.0132 C   0  0  0  0  0  0  0  0  0  0  0  0
   -5.8309    0.0011    0.0174 C   0  0  0  0  0  0  0  0  0  0  0  0
    0.2440   -2.0197    0.2432 H   0  0  0  0  0  0  0  0  0  0  0  0
    4.0043    3.2790   -0.3663 H   0  0  0  0  0  0  0  0  0  0  0  0
    2.4722    3.2679    0.5371 H   0  0  0  0  0  0  0  0  0  0  0  0
    2.4698    3.0709   -1.2413 H   0  0  0  0  0  0  0  0  0  0  0  0
    5.4274   -2.4801    0.2727 H   0  0  0  0  0  0  0  0  0  0  0  0
    6.1084   -0.9993    0.9968 H   0  0  0  0  0  0  0  0  0  0  0  0
    6.1046   -1.1976   -0.7652 H   0  0  0  0  0  0  0  0  0  0  0  0
   -1.7814    2.0274    0.8752 H   0  0  0  0  0  0  0  0  0  0  0  0
   -1.7506   -1.9288   -0.8773 H   0  0  0  0  0  0  0  0  0  0  0  0
   -4.2252    1.9980    0.8807 H   0  0  0  0  0  0  0  0  0  0  0  0
   -4.1614   -1.9663   -0.8618 H   0  0  0  0  0  0  0  0  0  0  0  0
   -7.3204   -1.1577   -0.4805 H   0  0  0  0  0  0  0  0  0  0  0  0
  1 12  2  0  0  0  0
  2 13  2  0  0  0  0
  3 22  1  0  0  0  0
  3 34  1  0  0  0  0
  4 22  2  0  0  0  0
  5 10  1  0  0  0  0
  5 13  1  0  0  0  0
  5 15  1  0  0  0  0
  6  9  1  0  0  0  0
  6 11  1  0  0  0  0
  6 23  1  0  0  0  0
  7 12  1  0  0  0  0
  7 13  1  0  0  0  0
  7 16  1  0  0  0  0
  8 10  1  0  0  0  0
  8 11  2  0  0  0  0
  9 10  2  0  0  0  0
  9 12  1  0  0  0  0
 11 14  1  0  0  0  0
 14 17  2  0  0  0  0
 14 18  1  0  0  0  0
 15 24  1  0  0  0  0
 15 25  1  0  0  0  0
 15 26  1  0  0  0  0
 16 27  1  0  0  0  0
 16 28  1  0  0  0  0
 16 29  1  0  0  0  0
 17 19  1  0  0  0  0
 17 30  1  0  0  0  0
 18 20  2  0  0  0  0
 18 31  1  0  0  0  0
 19 21  2  0  0  0  0
 19 32  1  0  0  0  0
 20 21  1  0  0  0  0
 20 33  1  0  0  0  0
 21 22  1  0  0  0  0
M  END
> <PUBCHEM_COMPOUND_CID>
135109

> <PUBCHEM_CONFORMER_RMSD>
0.6

> <PUBCHEM_CONFORMER_DIVERSEORDER>
1
2

> <PUBCHEM_MMFF94_PARTIAL_CHARGES>
28
1 -0.57
10 0.29
11 0.13
12 0.71
13 0.69
14 0.05
15 0.3
16 0.3
17 -0.15
18 -0.15
19 -0.15
2 -0.57
20 -0.15
21 0.09
22 0.63
23 0.27
3 -0.65
30 0.15
31 0.15
32 0.15
33 0.15
34 0.5
4 -0.57
5 -0.42
6 0.03
7 -0.42
8 -0.57
9 -0.24

> <PUBCHEM_EFFECTIVE_ROTOR_COUNT>
2

> <PUBCHEM_PHARMACOPHORE_FEATURES>
10
1 1 acceptor
1 2 acceptor
1 3 acceptor
1 4 acceptor
1 6 donor
3 3 4 22 anion
3 6 8 11 cation
5 6 8 9 10 11 rings
6 14 17 18 19 20 21 rings
6 5 7 9 10 12 13 rings

> <PUBCHEM_HEAVY_ATOM_COUNT>
22

> <PUBCHEM_ATOM_DEF_STEREO_COUNT>
0

> <PUBCHEM_ATOM_UDEF_STEREO_COUNT>
0

> <PUBCHEM_BOND_DEF_STEREO_COUNT>
0

> <PUBCHEM_BOND_UDEF_STEREO_COUNT>
0

> <PUBCHEM_ISOTOPIC_ATOM_COUNT>
0

> <PUBCHEM_COMPONENT_COUNT>
1

> <PUBCHEM_CACTVS_TAUTO_COUNT>
4

> <PUBCHEM_CONFORMER_ID>
00020FC500000001

> <PUBCHEM_MMFF94_ENERGY>
50.2093

> <PUBCHEM_FEATURE_SELFOVERLAP>
50.919

> <PUBCHEM_SHAPE_FINGERPRINT>
10366900 7 17385729062520663024
10411042 1 17976819788586499922
10595046 47 18413107281954883673
10616163 171 18270963565003408991
11471102 20 18408041819153675108
12107183 9 17692536615579036729
12236239 1 18272652350775993677
12788726 201 17561093479686957297
13167372 99 18342179921451503785
13167823 11 18342174470847523311
13533116 47 18412543193344655138
13785724 45 17694226569078136079
13862211 1 18335419011846865098
14170010 4 18335420184145979452
14251764 18 18409164420530883304
14341114 176 18410579482946960379
15196674 1 18411419496718864993
15250474 111 18200016443713994935
17492 89 18198343957362344311
17834072 33 18412824702960522967
17844677 252 18409736136317773093
1813 80 17240769453899229156
18681886 176 18202278113504203754
19427546 62 18189900988435350314
200 152 18272086106767337673
20028762 73 18343016658200700542
20511986 3 18272636957565758045
20612939 158 18334018302367251476
20645477 70 18410855425932434614
21033648 29 17313088770570516781
21065198 48 18343024350386082401
21267235 1 18412270505902712870
23402539 116 18060695088091148573
23522609 53 17914922996164637465
23536379 177 18411700980839372393
23557571 272 14189585113044813907
23559900 14 18337950194302255841
239999 70 18272094872848875910
29717793 49 17989210321893222764
300161 21 18272927237162115501
3004659 81 18411136918004261074
335352 9 18409168818836234246
3411729 13 16199003185040511776
34797466 226 16773802540925532872
350125 39 18412262822317191497
3545911 37 18409730681323964413
4073 2 17968664920420548259
4214541 1 18411418376217989737
42630746 31 18410856568878622662
4340502 62 17095241419183373682
474 4 18260831561406229320
5104073 3 18412829109887100299
542803 24 18409446994861005017
59755656 215 18334579036064696614
602551 16 15697705021467466094
67856867 119 18342452694302096753
7495541 125 17632291315560890209
8272917 22 18410858759138039406
9709674 26 18410581690423676042
9981440 41 17401201669383671480

> <PUBCHEM_SHAPE_MULTIPOLES>
409.35
14.5
2.11
0.66
11.35
0.27
0
-0.82
-0.06
-2.64
0.04
0.19
0.01
-0.99

> <PUBCHEM_SHAPE_SELFOVERLAP>
904.776

> <PUBCHEM_SHAPE_VOLUME>
220

> <PUBCHEM_COORDINATE_TYPE>
2
5
10

$$$$
