135173
  -OEChem-03292013323D

 28 29  0     0  0  0  0  0  0999 V2000
    3.8071   -2.2313   -0.0112 O   0  0  0  0  0  0  0  0  0  0  0  0
    2.9984    1.3338   -0.0733 N   0  0  0  0  0  0  0  0  0  0  0  0
   -0.3923    0.0076    0.5573 N   0  0  0  0  0  0  0  0  0  0  0  0
   -1.0049   -0.0694   -0.5335 N   0  0  0  0  0  0  0  0  0  0  0  0
    0.9275    2.4548    0.2076 N   0  0  0  0  0  0  0  0  0  0  0  0
    5.0733    0.2146   -0.3561 N   0  0  0  0  0  0  0  0  0  0  0  0
    0.9935    0.0539    0.3278 C   0  0  0  0  0  0  0  0  0  0  0  0
    1.6680    1.2474    0.1511 C   0  0  0  0  0  0  0  0  0  0  0  0
    1.7191   -1.1273    0.2729 C   0  0  0  0  0  0  0  0  0  0  0  0
    3.0898   -1.0793    0.0441 C   0  0  0  0  0  0  0  0  0  0  0  0
    3.6764    0.1652   -0.1210 C   0  0  0  0  0  0  0  0  0  0  0  0
   -2.3839   -0.1158   -0.3056 C   0  0  0  0  0  0  0  0  0  0  0  0
   -3.1213    1.0669   -0.2491 C   0  0  0  0  0  0  0  0  0  0  0  0
   -3.0220   -1.3444   -0.1343 C   0  0  0  0  0  0  0  0  0  0  0  0
   -4.4966    1.0211   -0.0209 C   0  0  0  0  0  0  0  0  0  0  0  0
   -4.3974   -1.3901    0.0938 C   0  0  0  0  0  0  0  0  0  0  0  0
   -5.1346   -0.2073    0.1504 C   0  0  0  0  0  0  0  0  0  0  0  0
    1.2240   -2.0857    0.4075 H   0  0  0  0  0  0  0  0  0  0  0  0
   -2.6337    2.0291   -0.3822 H   0  0  0  0  0  0  0  0  0  0  0  0
   -2.4563   -2.2716   -0.1773 H   0  0  0  0  0  0  0  0  0  0  0  0
   -5.0708    1.9419    0.0231 H   0  0  0  0  0  0  0  0  0  0  0  0
   -4.8943   -2.3466    0.2271 H   0  0  0  0  0  0  0  0  0  0  0  0
   -6.2055   -0.2430    0.3279 H   0  0  0  0  0  0  0  0  0  0  0  0
    1.4396    3.3166    0.0666 H   0  0  0  0  0  0  0  0  0  0  0  0
   -0.0522    2.4286   -0.0473 H   0  0  0  0  0  0  0  0  0  0  0  0
    5.6626   -0.4529    0.1263 H   0  0  0  0  0  0  0  0  0  0  0  0
    5.4626    1.1394   -0.4987 H   0  0  0  0  0  0  0  0  0  0  0  0
    4.7089   -2.0333   -0.3120 H   0  0  0  0  0  0  0  0  0  0  0  0
  1 10  1  0  0  0  0
  1 28  1  0  0  0  0
  2  8  2  0  0  0  0
  2 11  1  0  0  0  0
  3  4  2  0  0  0  0
  3  7  1  0  0  0  0
  4 12  1  0  0  0  0
  5  8  1  0  0  0  0
  5 24  1  0  0  0  0
  5 25  1  0  0  0  0
  6 11  1  0  0  0  0
  6 26  1  0  0  0  0
  6 27  1  0  0  0  0
  7  8  1  0  0  0  0
  7  9  2  0  0  0  0
  9 10  1  0  0  0  0
  9 18  1  0  0  0  0
 10 11  2  0  0  0  0
 12 13  2  0  0  0  0
 12 14  1  0  0  0  0
 13 15  1  0  0  0  0
 13 19  1  0  0  0  0
 14 16  2  0  0  0  0
 14 20  1  0  0  0  0
 15 17  2  0  0  0  0
 15 21  1  0  0  0  0
 16 17  1  0  0  0  0
 16 22  1  0  0  0  0
 17 23  1  0  0  0  0
M  END
> <PUBCHEM_COMPOUND_CID>
135173

> <PUBCHEM_CONFORMER_RMSD>
0.6

> <PUBCHEM_CONFORMER_DIVERSEORDER>
1
3
2

> <PUBCHEM_MMFF94_PARTIAL_CHARGES>
28
1 -0.53
10 0.08
11 0.41
12 0.18
13 -0.15
14 -0.15
15 -0.15
16 -0.15
17 -0.15
18 0.15
19 0.15
2 -0.62
20 0.15
21 0.15
22 0.15
23 0.15
24 0.4
25 0.4
26 0.4
27 0.4
28 0.45
3 -0.18
4 -0.18
5 -0.9
6 -0.9
7 0.18
8 0.41
9 -0.15

> <PUBCHEM_EFFECTIVE_ROTOR_COUNT>
2

> <PUBCHEM_PHARMACOPHORE_FEATURES>
7
1 1 donor
1 5 donor
1 6 cation
1 6 donor
3 2 5 8 cation
6 12 13 14 15 16 17 rings
6 2 7 8 9 10 11 rings

> <PUBCHEM_HEAVY_ATOM_COUNT>
17

> <PUBCHEM_ATOM_DEF_STEREO_COUNT>
0

> <PUBCHEM_ATOM_UDEF_STEREO_COUNT>
0

> <PUBCHEM_BOND_DEF_STEREO_COUNT>
0

> <PUBCHEM_BOND_UDEF_STEREO_COUNT>
0

> <PUBCHEM_ISOTOPIC_ATOM_COUNT>
0

> <PUBCHEM_COMPONENT_COUNT>
1

> <PUBCHEM_CACTVS_TAUTO_COUNT>
25

> <PUBCHEM_CONFORMER_ID>
0002100500000001

> <PUBCHEM_MMFF94_ENERGY>
60.5068

> <PUBCHEM_FEATURE_SELFOVERLAP>
35.525

> <PUBCHEM_SHAPE_FINGERPRINT>
10616163 171 18269556199031641031
11471102 20 18409445882184868012
11615757 297 18130513015186435433
116883 192 18055076458660206172
12107183 9 17835242238385458619
12236239 1 17775006794990221496
12616999 72 18333736827596184662
128620 24 14707206617406089887
13167823 11 18410854369618334527
13675066 3 17917422125273335451
14252887 29 17918281939435253518
14341114 176 18410863157268706057
14576447 43 18341328976565551670
15196674 1 18410292488874120239
15242433 33 18411419501040498479
15442244 35 18340487759812485521
17834072 33 18410575114812259181
17834074 16 18335702766981613971
18186145 218 17894905218105655331
200 152 18202282515750567675
20645477 70 18339924818533713158
21065198 57 18410855482177998257
21267235 1 18411990160438980599
221357 26 18409443679172866781
221490 88 18264213680378930323
22485316 2 18411417310691508503
23402539 116 17095235917287750780
23402655 69 18410292501584812412
23559900 14 18338508738109724769
2838139 119 16009602420547516822
3004659 81 18188493467650126662
3545911 37 18410575097980666377
42 15 18409449185146632999
4214541 1 18410573972836358893
4921388 177 16660936568601422795
4990 188 18186801365860848546
5104073 3 18410854356711931811
522135 26 18410855451738752246
5281201 14 18113337496414007309
58051976 100 18342173423097146919
77779 3 18409730668750181935
9709674 26 18335986479747380531

> <PUBCHEM_SHAPE_MULTIPOLES>
319.08
10.77
1.84
0.65
3.12
0.14
0
-1.73
0.51
-0.71
-0.06
0.06
0
0.04

> <PUBCHEM_SHAPE_SELFOVERLAP>
689.627

> <PUBCHEM_SHAPE_VOLUME>
174.8

> <PUBCHEM_COORDINATE_TYPE>
2
5
10

$$$$
