135398742
  -OEChem-03292013293D

 43 44  0     1  0  0  0  0  0999 V2000
    3.0257   -1.0134    0.5984 O   0  0  0  0  0  0  0  0  0  0  0  0
    0.5032   -2.1734    0.3666 O   0  0  0  0  0  0  0  0  0  0  0  0
    4.2751   -0.8857   -1.3338 O   0  0  0  0  0  0  0  0  0  0  0  0
   -4.6819    1.3437   -1.4230 O   0  0  0  0  0  0  0  0  0  0  0  0
   -1.8297   -1.7860    0.1537 N   0  0  0  0  0  0  0  0  0  0  0  0
    4.7031    1.7761   -0.9820 N   0  0  0  0  0  0  0  0  0  0  0  0
   -3.4943   -1.3754   -1.2825 N   0  0  0  0  0  0  0  0  0  0  0  0
   -1.5832    0.3916    1.1816 N   0  0  0  0  0  0  0  0  0  0  0  0
   -3.1576    1.9354    0.2443 N   0  0  0  0  0  0  0  0  0  0  0  0
   -1.6564    2.6196    1.9240 N   0  0  0  0  0  0  0  0  0  0  0  0
    2.4111    1.7587    0.0429 C   0  0  0  0  0  0  0  0  0  0  0  0
    3.8183    1.1201   -0.0181 C   0  0  1  0  0  0  0  0  0  0  0  0
    1.6192    1.6269   -1.2632 C   0  0  0  0  0  0  0  0  0  0  0  0
    2.4882    3.2331    0.4538 C   0  0  0  0  0  0  0  0  0  0  0  0
    3.7531   -0.3615   -0.3582 C   0  0  0  0  0  0  0  0  0  0  0  0
   -0.7667   -2.5540    0.8872 C   0  0  0  0  0  0  0  0  0  0  0  0
   -2.1597   -0.4728    0.3176 C   0  0  0  0  0  0  0  0  0  0  0  0
    2.8836   -2.4251    0.4109 C   0  0  0  0  0  0  0  0  0  0  0  0
    1.5632   -2.8730    1.0074 C   0  0  0  0  0  0  0  0  0  0  0  0
   -3.1809   -0.2528   -0.5750 C   0  0  0  0  0  0  0  0  0  0  0  0
   -2.6603   -2.2858   -0.8195 C   0  0  0  0  0  0  0  0  0  0  0  0
   -3.7695    1.0552   -0.6592 C   0  0  0  0  0  0  0  0  0  0  0  0
   -2.1033    1.5986    1.1260 C   0  0  0  0  0  0  0  0  0  0  0  0
    1.8345    1.2403    0.8209 H   0  0  0  0  0  0  0  0  0  0  0  0
    4.2958    1.1969    0.9672 H   0  0  0  0  0  0  0  0  0  0  0  0
    2.9390    3.8554   -0.3260 H   0  0  0  0  0  0  0  0  0  0  0  0
    3.0715    3.3532    1.3727 H   0  0  0  0  0  0  0  0  0  0  0  0
    2.1227    2.1325   -2.0936 H   0  0  0  0  0  0  0  0  0  0  0  0
    1.4840    3.6270    0.6464 H   0  0  0  0  0  0  0  0  0  0  0  0
    0.6239    2.0723   -1.1551 H   0  0  0  0  0  0  0  0  0  0  0  0
    1.4772    0.5769   -1.5380 H   0  0  0  0  0  0  0  0  0  0  0  0
    5.6275    1.3475   -0.9429 H   0  0  0  0  0  0  0  0  0  0  0  0
    4.8388    2.7515   -0.7213 H   0  0  0  0  0  0  0  0  0  0  0  0
   -0.8686   -2.2907    1.9451 H   0  0  0  0  0  0  0  0  0  0  0  0
   -0.9690   -3.6165    0.7172 H   0  0  0  0  0  0  0  0  0  0  0  0
    2.8897   -2.6802   -0.6551 H   0  0  0  0  0  0  0  0  0  0  0  0
    3.7173   -2.9299    0.9089 H   0  0  0  0  0  0  0  0  0  0  0  0
    1.5418   -2.6370    2.0777 H   0  0  0  0  0  0  0  0  0  0  0  0
    1.4355   -3.9525    0.8719 H   0  0  0  0  0  0  0  0  0  0  0  0
   -2.6092   -3.3152   -1.1473 H   0  0  0  0  0  0  0  0  0  0  0  0
   -3.4991    2.8920    0.2674 H   0  0  0  0  0  0  0  0  0  0  0  0
   -0.9014    2.4764    2.5859 H   0  0  0  0  0  0  0  0  0  0  0  0
   -2.0627    3.5473    1.8734 H   0  0  0  0  0  0  0  0  0  0  0  0
  1 15  1  0  0  0  0
  1 18  1  0  0  0  0
  2 16  1  0  0  0  0
  2 19  1  0  0  0  0
  3 15  2  0  0  0  0
  4 22  2  0  0  0  0
  5 16  1  0  0  0  0
  5 17  1  0  0  0  0
  5 21  1  0  0  0  0
  6 12  1  0  0  0  0
  6 32  1  0  0  0  0
  6 33  1  0  0  0  0
  7 20  1  0  0  0  0
  7 21  2  0  0  0  0
  8 17  1  0  0  0  0
  8 23  2  0  0  0  0
  9 22  1  0  0  0  0
  9 23  1  0  0  0  0
  9 41  1  0  0  0  0
 10 23  1  0  0  0  0
 10 42  1  0  0  0  0
 10 43  1  0  0  0  0
 11 12  1  0  0  0  0
 11 13  1  0  0  0  0
 11 14  1  0  0  0  0
 11 24  1  0  0  0  0
 12 15  1  0  0  0  0
 12 25  1  0  0  0  0
 13 28  1  0  0  0  0
 13 30  1  0  0  0  0
 13 31  1  0  0  0  0
 14 26  1  0  0  0  0
 14 27  1  0  0  0  0
 14 29  1  0  0  0  0
 16 34  1  0  0  0  0
 16 35  1  0  0  0  0
 17 20  2  0  0  0  0
 18 19  1  0  0  0  0
 18 36  1  0  0  0  0
 18 37  1  0  0  0  0
 19 38  1  0  0  0  0
 19 39  1  0  0  0  0
 20 22  1  0  0  0  0
 21 40  1  0  0  0  0
M  END
> <PUBCHEM_COMPOUND_CID>
135398742

> <PUBCHEM_CONFORMER_RMSD>
1

> <PUBCHEM_CONFORMER_DIVERSEORDER>
1
39
33
76
29
27
118
40
131
116
59
46
155
88
28
74
115
54
144
60
7
107
75
2
135
71
103
85
153
67
134
53
12
127
23
56
78
149
48
90
70
42
30
146
129
79
157
156
64
18
89
31
91
83
151
98
43
124
49
94
136
84
5
147
106
114
9
41
141
86
140
148
8
4
87
10
63
26
105
101
121
145
96
6
132
119
158
34
109
68
81
38
65
13
20
133
47
37
21
45
154
99
110
32
35
52
93
126
24
122
16
44
72
50
128
14
95
69
15
120
11
17
130
66
61
97
138
57
73
92
55
104
150
143
22
3
137
82
111
108
123
51
80
62
19
113
100
102
58
36
142
139
117
25
77
125
112
152

> <PUBCHEM_MMFF94_PARTIAL_CHARGES>
26
1 -0.43
10 -0.85
12 0.33
15 0.66
16 0.54
17 -0.03
18 0.28
19 0.28
2 -0.56
20 0.14
21 0.04
22 0.72
23 0.56
3 -0.57
32 0.36
33 0.36
4 -0.57
40 0.15
41 0.37
42 0.4
43 0.4
5 0.05
6 -0.99
7 -0.57
8 -0.58
9 -0.49

> <PUBCHEM_EFFECTIVE_ROTOR_COUNT>
8

> <PUBCHEM_PHARMACOPHORE_FEATURES>
11
1 10 donor
1 2 acceptor
1 3 acceptor
1 4 acceptor
1 6 cation
1 6 donor
1 9 donor
3 11 13 14 hydrophobe
3 5 7 21 cation
5 5 7 17 20 21 rings
6 8 9 17 20 22 23 rings

> <PUBCHEM_HEAVY_ATOM_COUNT>
23

> <PUBCHEM_ATOM_DEF_STEREO_COUNT>
1

> <PUBCHEM_ATOM_UDEF_STEREO_COUNT>
0

> <PUBCHEM_BOND_DEF_STEREO_COUNT>
0

> <PUBCHEM_BOND_UDEF_STEREO_COUNT>
0

> <PUBCHEM_ISOTOPIC_ATOM_COUNT>
0

> <PUBCHEM_COMPONENT_COUNT>
1

> <PUBCHEM_CACTVS_TAUTO_COUNT>
-1

> <PUBCHEM_CONFORMER_ID>
0812055600000001

> <PUBCHEM_MMFF94_ENERGY>
38.3723

> <PUBCHEM_FEATURE_SELFOVERLAP>
55.999

> <PUBCHEM_SHAPE_FINGERPRINT>
10074138 170 14005175719036637947
10498660 4 18413105082630941466
10708813 3 18408042892315361116
11370993 70 18192702565300669112
12596599 1 18201730513647866790
12788726 201 17704076145027462649
13583140 156 17678745523184900251
14117953 113 17259334471468950669
14123250 116 18341341023621646211
14790565 3 18057887936264087969
14931854 50 18411981398848154748
192875 21 18200301130956113368
21864079 5 18335422369968010610
22393880 68 18411136969949894924
22749437 52 18263362641404689176
23227448 37 18408316671201586599
23559900 14 18129091385170082280
474 4 18260825943214706995
5048184 11 18408046216709835620
5895379 119 18129943352405144682
9709674 26 18268996560481381502
9981440 41 18262509429061823442

> <PUBCHEM_SHAPE_MULTIPOLES>
419.97
8.94
3.89
1.34
2.14
0.42
-0.06
-2.72
3.5
1.14
-1.08
-0.51
-0.37
-0.9

> <PUBCHEM_SHAPE_SELFOVERLAP>
870.205

> <PUBCHEM_SHAPE_VOLUME>
237.6

> <PUBCHEM_COORDINATE_TYPE>
2
5
10

$$$$
