135398702
  -OEChem-03292013293D

 30 31  0     1  0  0  0  0  0999 V2000
   -2.6340    1.5166    0.6928 O   0  0  0  0  0  0  0  0  0  0  0  0
   -4.9864    0.2773    0.6686 O   0  0  0  0  0  0  0  0  0  0  0  0
    1.7742    2.5953   -0.2694 O   0  0  0  0  0  0  0  0  0  0  0  0
   -0.3087    0.7495   -0.1700 N   0  0  0  0  0  0  0  0  0  0  0  0
    0.3399   -1.8734    0.1584 N   0  0  0  0  0  0  0  0  0  0  0  0
    2.7011   -1.3410    0.1145 N   0  0  0  0  0  0  0  0  0  0  0  0
    3.3382    0.9124   -0.0826 N   0  0  0  0  0  0  0  0  0  0  0  0
    4.9673   -0.7475    0.0912 N   0  0  0  0  0  0  0  0  0  0  0  0
   -1.3857   -0.2101   -0.3496 C   0  0  1  0  0  0  0  0  0  0  0  0
   -1.0506   -1.5120    0.3863 C   0  0  0  0  0  0  0  0  0  0  0  0
    1.0094    0.3535   -0.0768 C   0  0  0  0  0  0  0  0  0  0  0  0
   -2.6418    0.3955    0.1836 C   0  0  0  0  0  0  0  0  0  0  0  0
    1.3776   -0.9440    0.0637 C   0  0  0  0  0  0  0  0  0  0  0  0
   -3.9137   -0.4343    0.0734 C   0  0  2  0  0  0  0  0  0  0  0  0
    2.0531    1.4063   -0.1528 C   0  0  0  0  0  0  0  0  0  0  0  0
   -4.2741   -0.7093   -1.3756 C   0  0  0  0  0  0  0  0  0  0  0  0
    3.6342   -0.4346    0.0444 C   0  0  0  0  0  0  0  0  0  0  0  0
   -1.4933   -0.3907   -1.4244 H   0  0  0  0  0  0  0  0  0  0  0  0
   -1.2122   -1.4041    1.4662 H   0  0  0  0  0  0  0  0  0  0  0  0
   -1.6955   -2.3282    0.0434 H   0  0  0  0  0  0  0  0  0  0  0  0
   -0.4857    1.7335   -0.3452 H   0  0  0  0  0  0  0  0  0  0  0  0
    0.6205   -2.8402    0.2855 H   0  0  0  0  0  0  0  0  0  0  0  0
   -3.7850   -1.3637    0.6358 H   0  0  0  0  0  0  0  0  0  0  0  0
   -4.3363    0.2235   -1.9475 H   0  0  0  0  0  0  0  0  0  0  0  0
   -5.2552   -1.1914   -1.4461 H   0  0  0  0  0  0  0  0  0  0  0  0
   -3.5399   -1.3583   -1.8618 H   0  0  0  0  0  0  0  0  0  0  0  0
    4.1084    1.5727   -0.1301 H   0  0  0  0  0  0  0  0  0  0  0  0
   -5.7457   -0.3278    0.7246 H   0  0  0  0  0  0  0  0  0  0  0  0
    5.2781   -1.7085    0.1832 H   0  0  0  0  0  0  0  0  0  0  0  0
    5.6815   -0.0298    0.0354 H   0  0  0  0  0  0  0  0  0  0  0  0
  1 12  2  0  0  0  0
  2 14  1  0  0  0  0
  2 28  1  0  0  0  0
  3 15  2  0  0  0  0
  4  9  1  0  0  0  0
  4 11  1  0  0  0  0
  4 21  1  0  0  0  0
  5 10  1  0  0  0  0
  5 13  1  0  0  0  0
  5 22  1  0  0  0  0
  6 13  1  0  0  0  0
  6 17  2  0  0  0  0
  7 15  1  0  0  0  0
  7 17  1  0  0  0  0
  7 27  1  0  0  0  0
  8 17  1  0  0  0  0
  8 29  1  0  0  0  0
  8 30  1  0  0  0  0
  9 10  1  0  0  0  0
  9 12  1  0  0  0  0
  9 18  1  0  0  0  0
 10 19  1  0  0  0  0
 10 20  1  0  0  0  0
 11 13  2  0  0  0  0
 11 15  1  0  0  0  0
 12 14  1  0  0  0  0
 14 16  1  0  0  0  0
 14 23  1  0  0  0  0
 16 24  1  0  0  0  0
 16 25  1  0  0  0  0
 16 26  1  0  0  0  0
M  END
> <PUBCHEM_COMPOUND_CID>
135398702

> <PUBCHEM_CONFORMER_RMSD>
0.6

> <PUBCHEM_CONFORMER_DIVERSEORDER>
12
40
36
19
45
25
47
24
33
17
10
9
35
42
50
26
32
41
28
30
15
21
14
18
29
3
31
37
38
22
4
7
43
6
34
5
1
20
2
8
49
11
13
44
23
27
48
16
39
51
46

> <PUBCHEM_MMFF94_PARTIAL_CHARGES>
22
1 -0.57
10 0.37
11 0.11
12 0.45
13 0.27
14 0.34
15 0.62
17 0.56
2 -0.68
21 0.4
22 0.4
27 0.37
28 0.4
29 0.4
3 -0.57
30 0.4
4 -0.87
5 -0.87
6 -0.62
7 -0.49
8 -0.85
9 0.43

> <PUBCHEM_EFFECTIVE_ROTOR_COUNT>
2.8

> <PUBCHEM_PHARMACOPHORE_FEATURES>
12
1 1 acceptor
1 2 acceptor
1 2 donor
1 3 acceptor
1 4 cation
1 4 donor
1 5 cation
1 5 donor
1 7 donor
1 8 donor
6 4 5 9 10 11 13 rings
6 6 7 11 13 15 17 rings

> <PUBCHEM_HEAVY_ATOM_COUNT>
17

> <PUBCHEM_ATOM_DEF_STEREO_COUNT>
0

> <PUBCHEM_ATOM_UDEF_STEREO_COUNT>
2

> <PUBCHEM_BOND_DEF_STEREO_COUNT>
0

> <PUBCHEM_BOND_UDEF_STEREO_COUNT>
0

> <PUBCHEM_ISOTOPIC_ATOM_COUNT>
0

> <PUBCHEM_COMPONENT_COUNT>
1

> <PUBCHEM_CACTVS_TAUTO_COUNT>
-1

> <PUBCHEM_CONFORMER_ID>
0812052E0000000C

> <PUBCHEM_MMFF94_ENERGY>
44.0794

> <PUBCHEM_FEATURE_SELFOVERLAP>
60.989

> <PUBCHEM_SHAPE_FINGERPRINT>
10062212 137 18131347531811716143
10967382 1 18409168809607761978
11471102 20 18408037437949403718
12236239 1 18131912672288025215
12251169 10 18409731763597700754
12403259 415 18040710381481696541
13140716 1 18263927803034393562
13380535 76 18410013251470265554
13690532 89 18409446973154137930
13760787 5 18411136965718347877
13862211 1 18336820910436203698
14115302 16 17822585974871240326
14144814 61 18409450271398851552
14251717 144 18409444791031248287
14911166 2 18335139795632412622
14993402 34 18408322177053981326
15196674 1 18337392746175417235
15442244 35 18339925887869234866
15536298 74 18343018925916168872
16945 1 18408889529164258202
17802600 8 18408599258068190629
17862501 102 18342734109201739851
18186145 218 18408317809124859047
18522853 276 18342738507200797840
19050596 39 18272373083554937057
200 152 18271799134274640879
20645477 70 18408603677510579406
20671657 1 18263933300766917524
21267235 1 18411429392413510586
21501502 16 18193557989594488926
221490 88 18190748715631311362
22854114 111 18409730694219441761
23402539 116 18130782352464202717
23402655 69 18341046333452552245
23557571 272 16702306715545347321
23559900 14 18341610486107644672
265663 24 18060416936786128783
26918003 58 18260552225665799035
2748010 2 18118973730620593774
5104073 3 18337954596590785963
602551 16 15554154999727582327
69090 78 18342172293188509871
7364860 26 18341893060606792304
9709674 26 18412833498890586607
9981440 41 17404006519424980856

> <PUBCHEM_SHAPE_MULTIPOLES>
307.34
8.72
1.8
0.77
2.6
0.54
0.13
-0.63
0.26
-0.96
-0.05
0.73
-0.04
-0.56

> <PUBCHEM_SHAPE_SELFOVERLAP>
650.48

> <PUBCHEM_SHAPE_VOLUME>
169.4

> <PUBCHEM_COORDINATE_TYPE>
2
5
10

$$$$
