135398592
  -OEChem-03292013293D

 32 34  0     1  0  0  0  0  0999 V2000
   -2.3318   -0.1686    0.9246 O   0  0  0  0  0  0  0  0  0  0  0  0
   -3.3977    2.5335   -0.0634 O   0  0  0  0  0  0  0  0  0  0  0  0
   -4.3477   -2.0828    0.6241 O   0  0  0  0  0  0  0  0  0  0  0  0
    4.1604   -1.9382   -0.3132 O   0  0  0  0  0  0  0  0  0  0  0  0
   -0.0387   -0.3199    0.0906 N   0  0  0  0  0  0  0  0  0  0  0  0
    1.1997   -2.1570   -0.2146 N   0  0  0  0  0  0  0  0  0  0  0  0
    1.6942    1.3630    0.2461 N   0  0  0  0  0  0  0  0  0  0  0  0
    3.8548    0.3538    0.0142 N   0  0  0  0  0  0  0  0  0  0  0  0
    3.6405    2.6755    0.3412 N   0  0  0  0  0  0  0  0  0  0  0  0
   -1.2671    0.5380    0.2609 C   0  0  1  0  0  0  0  0  0  0  0  0
   -3.2900    1.2678   -0.7105 C   0  0  1  0  0  0  0  0  0  0  0  0
   -1.8399    1.0318   -1.0631 C   0  0  0  0  0  0  0  0  0  0  0  0
   -3.5845    0.1558    0.2881 C   0  0  1  0  0  0  0  0  0  0  0  0
   -4.1147   -1.1073   -0.3766 C   0  0  0  0  0  0  0  0  0  0  0  0
    1.2613    0.0923    0.0908 C   0  0  0  0  0  0  0  0  0  0  0  0
   -0.0243   -1.6806   -0.0964 C   0  0  0  0  0  0  0  0  0  0  0  0
    1.9938   -1.0548   -0.0980 C   0  0  0  0  0  0  0  0  0  0  0  0
    3.4272   -0.9714   -0.1487 C   0  0  0  0  0  0  0  0  0  0  0  0
    3.0047    1.4690    0.2038 C   0  0  0  0  0  0  0  0  0  0  0  0
   -0.9668    1.3678    0.9116 H   0  0  0  0  0  0  0  0  0  0  0  0
   -3.9510    1.2763   -1.5819 H   0  0  0  0  0  0  0  0  0  0  0  0
   -1.7613    0.2558   -1.8336 H   0  0  0  0  0  0  0  0  0  0  0  0
   -1.3169    1.9255   -1.4176 H   0  0  0  0  0  0  0  0  0  0  0  0
   -4.2690    0.4771    1.0811 H   0  0  0  0  0  0  0  0  0  0  0  0
   -3.3893   -1.5231   -1.0831 H   0  0  0  0  0  0  0  0  0  0  0  0
   -5.0555   -0.9086   -0.8992 H   0  0  0  0  0  0  0  0  0  0  0  0
   -0.9310   -2.2683   -0.1409 H   0  0  0  0  0  0  0  0  0  0  0  0
   -4.3270    2.6462    0.2002 H   0  0  0  0  0  0  0  0  0  0  0  0
   -4.6867   -2.8770    0.1770 H   0  0  0  0  0  0  0  0  0  0  0  0
    4.8557    0.5266   -0.0056 H   0  0  0  0  0  0  0  0  0  0  0  0
    3.1162    3.5323    0.4811 H   0  0  0  0  0  0  0  0  0  0  0  0
    4.6515    2.7475    0.3071 H   0  0  0  0  0  0  0  0  0  0  0  0
  1 10  1  0  0  0  0
  1 13  1  0  0  0  0
  2 11  1  0  0  0  0
  2 28  1  0  0  0  0
  3 14  1  0  0  0  0
  3 29  1  0  0  0  0
  4 18  2  0  0  0  0
  5 10  1  0  0  0  0
  5 15  1  0  0  0  0
  5 16  1  0  0  0  0
  6 16  2  0  0  0  0
  6 17  1  0  0  0  0
  7 15  1  0  0  0  0
  7 19  2  0  0  0  0
  8 18  1  0  0  0  0
  8 19  1  0  0  0  0
  8 30  1  0  0  0  0
  9 19  1  0  0  0  0
  9 31  1  0  0  0  0
  9 32  1  0  0  0  0
 10 12  1  0  0  0  0
 10 20  1  0  0  0  0
 11 12  1  0  0  0  0
 11 13  1  0  0  0  0
 11 21  1  0  0  0  0
 12 22  1  0  0  0  0
 12 23  1  0  0  0  0
 13 14  1  0  0  0  0
 13 24  1  0  0  0  0
 14 25  1  0  0  0  0
 14 26  1  0  0  0  0
 15 17  2  0  0  0  0
 16 27  1  0  0  0  0
 17 18  1  0  0  0  0
M  END
> <PUBCHEM_COMPOUND_CID>
135398592

> <PUBCHEM_CONFORMER_RMSD>
0.6

> <PUBCHEM_CONFORMER_DIVERSEORDER>
1
8
14
9
6
15
10
12
11
3
2
7
13
5
4

> <PUBCHEM_MMFF94_PARTIAL_CHARGES>
24
1 -0.56
10 0.54
11 0.28
13 0.28
14 0.28
15 -0.03
16 0.04
17 0.14
18 0.72
19 0.56
2 -0.68
27 0.15
28 0.4
29 0.4
3 -0.68
30 0.37
31 0.4
32 0.4
4 -0.57
5 0.05
6 -0.57
7 -0.58
8 -0.49
9 -0.85

> <PUBCHEM_EFFECTIVE_ROTOR_COUNT>
3

> <PUBCHEM_PHARMACOPHORE_FEATURES>
12
1 1 acceptor
1 2 acceptor
1 2 donor
1 3 acceptor
1 3 donor
1 4 acceptor
1 8 donor
1 9 donor
3 5 6 16 cation
5 1 10 11 12 13 rings
5 5 6 15 16 17 rings
6 7 8 15 17 18 19 rings

> <PUBCHEM_HEAVY_ATOM_COUNT>
19

> <PUBCHEM_ATOM_DEF_STEREO_COUNT>
3

> <PUBCHEM_ATOM_UDEF_STEREO_COUNT>
0

> <PUBCHEM_BOND_DEF_STEREO_COUNT>
0

> <PUBCHEM_BOND_UDEF_STEREO_COUNT>
0

> <PUBCHEM_ISOTOPIC_ATOM_COUNT>
0

> <PUBCHEM_COMPONENT_COUNT>
1

> <PUBCHEM_CACTVS_TAUTO_COUNT>
-1

> <PUBCHEM_CONFORMER_ID>
081204C000000001

> <PUBCHEM_MMFF94_ENERGY>
42.3812

> <PUBCHEM_FEATURE_SELFOVERLAP>
61.08

> <PUBCHEM_SHAPE_FINGERPRINT>
10608611 8 18408601431363937829
11405975 8 18338234860581994841
11471102 20 18340201887058087700
11615757 297 18202568366866403811
12403259 226 18408600340552865060
12403259 415 18407760343491506620
12403260 363 18408875244113496826
12500047 106 18116993278641067189
12507557 5 18340763745952607464
12916754 54 18413110558835615003
13583140 156 17387104590358664914
13675066 3 17988915639929090826
14289901 80 18413103970313435633
15196674 1 18411136930820474180
15219456 202 18408322168274123145
16945 1 18270684152069370782
18175812 5 18334575711533071829
18186145 218 18202291281594215280
19930381 70 18195523920717531665
200 152 18131343103732023991
20449540 30 18272091582835147401
20645477 56 18116153269169644861
20645477 70 18272083855687685694
20681677 76 18335696152589436373
21065198 57 18337953389879126093
21524375 3 18268991054364995498
21709351 56 18341044125580795582
221490 88 18410860957850214266
22854114 111 18411981364651803076
23402539 116 16950847998651630798
23402655 69 18343017748915911820
23557571 272 17676487220753389701
23559900 14 18339354141907505730
2748010 2 18339651147855002822
2838139 119 15194703754203636584
2871803 45 18334850641491780759
3286 77 18408322172737752918
350125 39 18411142475929279870
4214541 1 18338517439491874725
5104073 3 18410572872797185377
5283173 99 18041824148717715101
6333272 397 18337106890463933512
77779 3 18411700976228082213
9709674 26 18335424594660687219

> <PUBCHEM_SHAPE_MULTIPOLES>
342.63
8.65
2.5
0.76
1.37
0.43
0.05
-0.08
-0.08
-0.54
-0.02
0.39
0.05
0.87

> <PUBCHEM_SHAPE_SELFOVERLAP>
743.758

> <PUBCHEM_SHAPE_VOLUME>
185.9

> <PUBCHEM_COORDINATE_TYPE>
2
5
10

$$$$
