135398639
  -OEChem-03292013293D

 34 36  0     1  0  0  0  0  0999 V2000
    4.4791    1.6555   -0.0409 P   0  0  0  0  0  0  0  0  0  0  0  0
    1.0612   -0.7938    1.0601 O   0  0  0  0  0  0  0  0  0  0  0  0
   -0.7499   -2.9036   -1.2309 O   0  0  0  0  0  0  0  0  0  0  0  0
    1.3064   -3.7396    0.3957 O   0  0  0  0  0  0  0  0  0  0  0  0
    3.5225    0.4477    0.5583 O   0  0  0  0  0  0  0  0  0  0  0  0
   -4.6229    2.7217   -0.3966 O   0  0  0  0  0  0  0  0  0  0  0  0
    4.8413    2.4738    1.1949 O   0  5  0  0  0  0  0  0  0  0  0  0
    3.5894    2.3954   -1.0355 O   0  5  0  0  0  0  0  0  0  0  0  0
    5.6638    0.9316   -0.6740 O   0  0  0  0  0  0  0  0  0  0  0  0
   -1.0963   -0.0473    0.1968 N   0  0  0  0  0  0  0  0  0  0  0  0
   -1.7319    2.0445   -0.2785 N   0  0  0  0  0  0  0  0  0  0  0  0
   -3.2557   -1.1126    0.4759 N   0  0  0  0  0  0  0  0  0  0  0  0
   -5.0225    0.4829    0.1314 N   0  0  0  0  0  0  0  0  0  0  0  0
    0.2166   -1.9575   -0.8198 C   0  0  2  0  0  0  0  0  0  0  0  0
    1.5341   -2.5916   -0.4206 C   0  0  1  0  0  0  0  0  0  0  0  0
   -0.1776   -1.2180    0.4546 C   0  0  1  0  0  0  0  0  0  0  0  0
    2.1590   -1.5108    0.4524 C   0  0  1  0  0  0  0  0  0  0  0  0
    2.9984   -0.5163   -0.3379 C   0  0  0  0  0  0  0  0  0  0  0  0
   -2.4598   -0.0494    0.2173 C   0  0  0  0  0  0  0  0  0  0  0  0
   -0.7057    1.2345   -0.1056 C   0  0  0  0  0  0  0  0  0  0  0  0
   -2.8190    1.2460   -0.0778 C   0  0  0  0  0  0  0  0  0  0  0  0
   -4.2150    1.5962   -0.1386 C   0  0  0  0  0  0  0  0  0  0  0  0
   -4.5155   -0.7896    0.4192 C   0  0  0  0  0  0  0  0  0  0  0  0
    0.3740   -1.2481   -1.6415 H   0  0  0  0  0  0  0  0  0  0  0  0
    2.1434   -2.9018   -1.2743 H   0  0  0  0  0  0  0  0  0  0  0  0
   -0.7109   -1.8569    1.1686 H   0  0  0  0  0  0  0  0  0  0  0  0
    2.7538   -1.9272    1.2734 H   0  0  0  0  0  0  0  0  0  0  0  0
    2.3924    0.0046   -1.0856 H   0  0  0  0  0  0  0  0  0  0  0  0
    3.8240   -1.0286   -0.8416 H   0  0  0  0  0  0  0  0  0  0  0  0
   -0.3727   -3.3999   -1.9771 H   0  0  0  0  0  0  0  0  0  0  0  0
    2.1761   -4.0889    0.6552 H   0  0  0  0  0  0  0  0  0  0  0  0
    0.3346    1.5179   -0.1895 H   0  0  0  0  0  0  0  0  0  0  0  0
   -5.3083   -1.5312    0.6028 H   0  0  0  0  0  0  0  0  0  0  0  0
   -6.0304    0.6096    0.1162 H   0  0  0  0  0  0  0  0  0  0  0  0
  1  5  1  0  0  0  0
  1  7  1  0  0  0  0
  1  8  1  0  0  0  0
  1  9  2  0  0  0  0
  2 16  1  0  0  0  0
  2 17  1  0  0  0  0
  3 14  1  0  0  0  0
  3 30  1  0  0  0  0
  4 15  1  0  0  0  0
  4 31  1  0  0  0  0
  5 18  1  0  0  0  0
  6 22  2  0  0  0  0
 10 16  1  0  0  0  0
 10 19  1  0  0  0  0
 10 20  1  0  0  0  0
 11 20  2  0  0  0  0
 11 21  1  0  0  0  0
 12 19  1  0  0  0  0
 12 23  2  0  0  0  0
 13 22  1  0  0  0  0
 13 23  1  0  0  0  0
 13 34  1  0  0  0  0
 14 15  1  0  0  0  0
 14 16  1  0  0  0  0
 14 24  1  0  0  0  0
 15 17  1  0  0  0  0
 15 25  1  0  0  0  0
 16 26  1  0  0  0  0
 17 18  1  0  0  0  0
 17 27  1  0  0  0  0
 18 28  1  0  0  0  0
 18 29  1  0  0  0  0
 19 21  2  0  0  0  0
 20 32  1  0  0  0  0
 21 22  1  0  0  0  0
 23 33  1  0  0  0  0
M  CHG  2   7  -1   8  -1
M  END
> <PUBCHEM_COMPOUND_CID>
135398639

> <PUBCHEM_CONFORMER_RMSD>
0.8

> <PUBCHEM_CONFORMER_DIVERSEORDER>
1
58
60
18
42
29
12
28
22
24
26
31
43
57
19
5
56
21
53
45
48
25
16
36
33
34
3
20
52
44
9
51
39
10
35
27
13
50
46
55
2
32
59
37
40
4
38
23
54
7
14
41
49
47
30
6
15
8
17
11

> <PUBCHEM_MMFF94_PARTIAL_CHARGES>
28
1 1.37
10 0.05
11 -0.57
12 -0.58
13 -0.49
14 0.28
15 0.28
16 0.54
17 0.28
18 0.28
19 -0.03
2 -0.56
20 0.04
21 0.14
22 0.72
23 0.45
3 -0.68
30 0.4
31 0.4
32 0.15
33 0.06
34 0.37
4 -0.68
5 -0.55
6 -0.57
7 -1.03
8 -1.03
9 -1.03

> <PUBCHEM_EFFECTIVE_ROTOR_COUNT>
5

> <PUBCHEM_PHARMACOPHORE_FEATURES>
15
1 13 donor
1 2 acceptor
1 3 acceptor
1 3 donor
1 4 acceptor
1 4 donor
1 6 acceptor
1 7 acceptor
1 8 acceptor
1 9 acceptor
3 10 11 20 cation
4 1 7 8 9 anion
5 10 11 19 20 21 rings
5 2 14 15 16 17 rings
6 12 13 19 21 22 23 rings

> <PUBCHEM_HEAVY_ATOM_COUNT>
23

> <PUBCHEM_ATOM_DEF_STEREO_COUNT>
4

> <PUBCHEM_ATOM_UDEF_STEREO_COUNT>
0

> <PUBCHEM_BOND_DEF_STEREO_COUNT>
0

> <PUBCHEM_BOND_UDEF_STEREO_COUNT>
0

> <PUBCHEM_ISOTOPIC_ATOM_COUNT>
0

> <PUBCHEM_COMPONENT_COUNT>
1

> <PUBCHEM_CACTVS_TAUTO_COUNT>
-1

> <PUBCHEM_CONFORMER_ID>
081204EF00000001

> <PUBCHEM_MMFF94_ENERGY>
57.6862

> <PUBCHEM_FEATURE_SELFOVERLAP>
76.319

> <PUBCHEM_SHAPE_FINGERPRINT>
10090160 65 18261107504227679431
10498660 4 18411984641538120928
10871710 139 18124310764272637007
11578080 2 16516790469350311063
11796584 16 10735886044798164800
12173636 292 18268142244436960238
12403259 118 18335687326362863818
12788726 201 17103144928303284714
13583140 156 17242708940939940410
14123255 52 18412542137146404654
14341114 328 17313100882399409744
14528608 73 18413666902992224117
1454969 45 18340487897916330615
14787075 74 18271805782604667371
14790565 3 18339929310953525145
15196674 1 18408604738367241568
1813 80 13398629429256207162
19591789 44 18123471841374764073
21524375 3 18412548730137871658
22113638 7 18263362667249223460
22620623 9 16915653902894309582
23227448 37 18127127696157176476
23559900 14 18050564049960433643
2838139 119 18412538838764846556
3298306 158 18413386548965275140
350125 39 18336827499052841446
43658 37 18341891896570096960
474 4 18186243939499217876
5104073 3 18188778228191968881
67856867 119 18263637386004584754
7808743 9 18122060068956734032
9709674 26 18052540963746790735
9981440 41 18333733545698164034

> <PUBCHEM_SHAPE_MULTIPOLES>
410.3
10.52
3.55
0.89
1.82
1.36
0.02
-8.88
-0.24
1.64
0.46
0.48
0.07
0.4

> <PUBCHEM_SHAPE_SELFOVERLAP>
870.169

> <PUBCHEM_SHAPE_VOLUME>
231.2

> <PUBCHEM_COORDINATE_TYPE>
2
5
10

$$$$
