135399257
  -OEChem-03292013293D

 31 32  0     1  0  0  0  0  0999 V2000
    1.8522    0.4550   -0.2099 O   0  0  0  0  0  0  0  0  0  0  0  0
    4.9766   -1.1260    0.6751 O   0  0  0  0  0  0  0  0  0  0  0  0
   -4.2251   -1.3857    0.9337 O   0  0  0  0  0  0  0  0  0  0  0  0
    1.3513    1.4810   -2.6175 O   0  0  0  0  0  0  0  0  0  0  0  0
    2.0559    1.5135    2.2550 O   0  0  0  0  0  0  0  0  0  0  0  0
   -0.0172   -0.9287   -0.6475 N   0  0  0  0  0  0  0  0  0  0  0  0
   -1.5887   -2.3837   -0.0034 N   0  0  0  0  0  0  0  0  0  0  0  0
   -1.1822    1.1648   -0.3024 N   0  0  0  0  0  0  0  0  0  0  0  0
   -3.3902    0.7583    0.5342 N   0  0  0  0  0  0  0  0  0  0  0  0
   -2.6310    2.9555    0.1610 N   0  0  0  0  0  0  0  0  0  0  0  0
    1.2504   -0.4435   -1.1377 C   0  0  1  0  0  0  0  0  0  0  0  0
   -1.0979   -0.1837   -0.2774 C   0  0  0  0  0  0  0  0  0  0  0  0
   -2.0421   -1.1028    0.1114 C   0  0  0  0  0  0  0  0  0  0  0  0
    2.7604   -0.1889    0.6751 C   0  0  1  0  0  0  0  0  0  0  0  0
   -0.3612   -2.2459   -0.4648 C   0  0  0  0  0  0  0  0  0  0  0  0
   -3.3240   -0.6416    0.5680 C   0  0  0  0  0  0  0  0  0  0  0  0
    1.0645    0.3005   -2.4448 C   0  0  0  0  0  0  0  0  0  0  0  0
    4.1545   -0.1384    0.0699 C   0  0  0  0  0  0  0  0  0  0  0  0
   -2.3468    1.6154    0.1111 C   0  0  0  0  0  0  0  0  0  0  0  0
    2.7405    0.5249    2.0108 C   0  0  0  0  0  0  0  0  0  0  0  0
    1.9028   -1.2986   -1.3542 H   0  0  0  0  0  0  0  0  0  0  0  0
    2.4474   -1.2198    0.8853 H   0  0  0  0  0  0  0  0  0  0  0  0
    0.3208   -3.0565   -0.6834 H   0  0  0  0  0  0  0  0  0  0  0  0
    0.6546   -0.3009   -3.2755 H   0  0  0  0  0  0  0  0  0  0  0  0
    4.6182    0.8432    0.2186 H   0  0  0  0  0  0  0  0  0  0  0  0
    4.1284   -0.3328   -1.0073 H   0  0  0  0  0  0  0  0  0  0  0  0
   -4.2574    1.1917    0.8382 H   0  0  0  0  0  0  0  0  0  0  0  0
    3.3876    0.0865    2.7905 H   0  0  0  0  0  0  0  0  0  0  0  0
   -1.9464    3.6482   -0.1219 H   0  0  0  0  0  0  0  0  0  0  0  0
   -3.5319    3.2936    0.4814 H   0  0  0  0  0  0  0  0  0  0  0  0
    5.8545   -1.0590    0.2625 H   0  0  0  0  0  0  0  0  0  0  0  0
  1 11  1  0  0  0  0
  1 14  1  0  0  0  0
  2 18  1  0  0  0  0
  2 31  1  0  0  0  0
  3 16  2  0  0  0  0
  4 17  2  0  0  0  0
  5 20  2  0  0  0  0
  6 11  1  0  0  0  0
  6 12  1  0  0  0  0
  6 15  1  0  0  0  0
  7 13  1  0  0  0  0
  7 15  2  0  0  0  0
  8 12  1  0  0  0  0
  8 19  2  0  0  0  0
  9 16  1  0  0  0  0
  9 19  1  0  0  0  0
  9 27  1  0  0  0  0
 10 19  1  0  0  0  0
 10 29  1  0  0  0  0
 10 30  1  0  0  0  0
 11 17  1  0  0  0  0
 11 21  1  0  0  0  0
 12 13  2  0  0  0  0
 13 16  1  0  0  0  0
 14 18  1  0  0  0  0
 14 20  1  0  0  0  0
 14 22  1  0  0  0  0
 15 23  1  0  0  0  0
 17 24  1  0  0  0  0
 18 25  1  0  0  0  0
 18 26  1  0  0  0  0
 20 28  1  0  0  0  0
M  END
> <PUBCHEM_COMPOUND_CID>
135399257

> <PUBCHEM_CONFORMER_RMSD>
0.8

> <PUBCHEM_CONFORMER_DIVERSEORDER>
1
55
9
24
54
11
43
36
26
34
42
12
18
45
56
25
53
28
17
40
39
4
57
19
50
6
20
44
30
13
5
48
35
7
52
15
27
8
32
16
22
14
10
47
51
2
49
29
31
37
23
46
21
33
38
3
41

> <PUBCHEM_MMFF94_PARTIAL_CHARGES>
27
1 -0.56
10 -0.85
11 0.6
12 -0.03
13 0.14
14 0.34
15 0.04
16 0.72
17 0.45
18 0.28
19 0.56
2 -0.68
20 0.45
23 0.15
24 0.06
27 0.37
28 0.06
29 0.4
3 -0.57
30 0.4
31 0.4
4 -0.57
5 -0.57
6 0.05
7 -0.57
8 -0.58
9 -0.49

> <PUBCHEM_EFFECTIVE_ROTOR_COUNT>
6

> <PUBCHEM_PHARMACOPHORE_FEATURES>
11
1 1 acceptor
1 10 donor
1 2 acceptor
1 2 donor
1 3 acceptor
1 4 acceptor
1 5 acceptor
1 9 donor
3 6 7 15 cation
5 6 7 12 13 15 rings
6 8 9 12 13 16 19 rings

> <PUBCHEM_HEAVY_ATOM_COUNT>
20

> <PUBCHEM_ATOM_DEF_STEREO_COUNT>
0

> <PUBCHEM_ATOM_UDEF_STEREO_COUNT>
2

> <PUBCHEM_BOND_DEF_STEREO_COUNT>
0

> <PUBCHEM_BOND_UDEF_STEREO_COUNT>
0

> <PUBCHEM_ISOTOPIC_ATOM_COUNT>
0

> <PUBCHEM_COMPONENT_COUNT>
1

> <PUBCHEM_CACTVS_TAUTO_COUNT>
-1

> <PUBCHEM_CONFORMER_ID>
0812075900000001

> <PUBCHEM_MMFF94_ENERGY>
34.7794

> <PUBCHEM_FEATURE_SELFOVERLAP>
56.016

> <PUBCHEM_SHAPE_FINGERPRINT>
1100329 8 14523654571604018714
12077114 3 18342450396547003056
12596599 1 16805329911438385114
12633257 1 17775010127806092674
12892183 10 18408879633965861866
13004483 165 16982901185311750462
13083527 12 16832045011794507391
13464514 151 17342378480133612528
13538477 17 17970642997747227975
14178342 30 18118135684075598989
14420673 8 17975413512998407322
16945 1 18338785810122562183
17349148 13 18260822726816861375
17804303 29 18412827980110409402
1813 80 17023472950060433622
19786989 88 16200434667285287751
200 152 14707198908039903690
20361792 2 16733528507894211206
21421861 104 16968300899424258475
21486144 27 16701760314190724567
22112679 90 17822302279174684068
23402539 116 18272362110061624407
23419403 2 15668100911661544342
23503958 8 18186520990575302706
23557571 272 18343024402347741399
23559900 14 18199211562536227182
23598291 2 17386300834389729492
2748010 2 18122081818538901543
474 4 14692574342486152746
598444 67 18201147823613140650
6992083 37 18040436572857773646
84936 182 17333362407861865033

> <PUBCHEM_SHAPE_MULTIPOLES>
357.34
6.98
2.22
1.86
2.84
0.38
-0.83
-0.39
3.34
-1.88
0.15
1.7
0.77
0.48

> <PUBCHEM_SHAPE_SELFOVERLAP>
759.644

> <PUBCHEM_SHAPE_VOLUME>
196.2

> <PUBCHEM_COORDINATE_TYPE>
2
5
10

$$$$
