135398740
  -OEChem-03292013293D

 31 32  0     0  0  0  0  0  0999 V2000
    1.9590    0.4268    0.3695 O   0  0  0  0  0  0  0  0  0  0  0  0
    2.5528   -2.1800    1.0887 O   0  0  0  0  0  0  0  0  0  0  0  0
    5.4694    0.3469   -0.6055 O   0  0  0  0  0  0  0  0  0  0  0  0
   -4.4889    0.6772    0.6554 O   0  0  0  0  0  0  0  0  0  0  0  0
   -0.1131    1.2201   -0.3308 N   0  0  0  0  0  0  0  0  0  0  0  0
   -1.9859    2.2447    0.3361 N   0  0  0  0  0  0  0  0  0  0  0  0
   -0.9124   -1.0517   -0.5738 N   0  0  0  0  0  0  0  0  0  0  0  0
   -3.2394   -1.1774   -0.0175 N   0  0  0  0  0  0  0  0  0  0  0  0
   -2.0574   -3.1002   -0.6873 N   0  0  0  0  0  0  0  0  0  0  0  0
    3.1756   -0.1686   -0.0607 C   0  0  0  0  0  0  0  0  0  0  0  0
    1.2691    1.0517   -0.7091 C   0  0  0  0  0  0  0  0  0  0  0  0
   -1.0768    0.2566   -0.2780 C   0  0  0  0  0  0  0  0  0  0  0  0
   -2.2103    0.9151    0.1332 C   0  0  0  0  0  0  0  0  0  0  0  0
    3.5845   -1.2051    0.9778 C   0  0  0  0  0  0  0  0  0  0  0  0
    4.2305    0.9225   -0.2044 C   0  0  0  0  0  0  0  0  0  0  0  0
   -0.7085    2.3988    0.0472 C   0  0  0  0  0  0  0  0  0  0  0  0
   -3.4319    0.1760    0.2941 C   0  0  0  0  0  0  0  0  0  0  0  0
   -2.0163   -1.7535   -0.4350 C   0  0  0  0  0  0  0  0  0  0  0  0
    3.0284   -0.6977   -1.0114 H   0  0  0  0  0  0  0  0  0  0  0  0
    1.2842    0.4438   -1.6210 H   0  0  0  0  0  0  0  0  0  0  0  0
    1.6949    2.0386   -0.9150 H   0  0  0  0  0  0  0  0  0  0  0  0
    4.3751    1.4563    0.7416 H   0  0  0  0  0  0  0  0  0  0  0  0
    3.7079   -0.7438    1.9634 H   0  0  0  0  0  0  0  0  0  0  0  0
    4.5118   -1.7144    0.6985 H   0  0  0  0  0  0  0  0  0  0  0  0
    3.9409    1.6612   -0.9579 H   0  0  0  0  0  0  0  0  0  0  0  0
   -0.1636    3.3320    0.0940 H   0  0  0  0  0  0  0  0  0  0  0  0
   -4.0432   -1.7934    0.0631 H   0  0  0  0  0  0  0  0  0  0  0  0
    2.8391   -2.8225    1.7601 H   0  0  0  0  0  0  0  0  0  0  0  0
    6.1105    1.0742   -0.6792 H   0  0  0  0  0  0  0  0  0  0  0  0
   -1.2307   -3.6028   -0.9915 H   0  0  0  0  0  0  0  0  0  0  0  0
   -2.9132   -3.6331   -0.5776 H   0  0  0  0  0  0  0  0  0  0  0  0
  1 10  1  0  0  0  0
  1 11  1  0  0  0  0
  2 14  1  0  0  0  0
  2 28  1  0  0  0  0
  3 15  1  0  0  0  0
  3 29  1  0  0  0  0
  4 17  2  0  0  0  0
  5 11  1  0  0  0  0
  5 12  1  0  0  0  0
  5 16  1  0  0  0  0
  6 13  1  0  0  0  0
  6 16  2  0  0  0  0
  7 12  1  0  0  0  0
  7 18  2  0  0  0  0
  8 17  1  0  0  0  0
  8 18  1  0  0  0  0
  8 27  1  0  0  0  0
  9 18  1  0  0  0  0
  9 30  1  0  0  0  0
  9 31  1  0  0  0  0
 10 14  1  0  0  0  0
 10 15  1  0  0  0  0
 10 19  1  0  0  0  0
 11 20  1  0  0  0  0
 11 21  1  0  0  0  0
 12 13  2  0  0  0  0
 13 17  1  0  0  0  0
 14 23  1  0  0  0  0
 14 24  1  0  0  0  0
 15 22  1  0  0  0  0
 15 25  1  0  0  0  0
 16 26  1  0  0  0  0
M  END
> <PUBCHEM_COMPOUND_CID>
135398740

> <PUBCHEM_CONFORMER_RMSD>
0.6

> <PUBCHEM_CONFORMER_DIVERSEORDER>
2
113
106
56
76
115
93
40
37
82
90
103
91
99
32
51
49
101
118
116
108
89
13
15
109
79
38
95
46
47
84
39
54
16
97
31
71
26
10
24
6
105
58
88
44
33
14
8
41
66
92
36
50
111
22
11
80
19
35
63
30
55
12
45
62
74
104
27
81
86
18
9
34
83
85
28
23
48
65
21
42
53
75
20
1
73
98
5
7
102
25
77
4
69
29
17
87
107
59
60
61
3
112
110
100
94
72
78
68
43
64
57
70
117
96
67
52
114

> <PUBCHEM_MMFF94_PARTIAL_CHARGES>
24
1 -0.56
10 0.28
11 0.54
12 -0.03
13 0.14
14 0.28
15 0.28
16 0.04
17 0.72
18 0.56
2 -0.68
26 0.15
27 0.37
28 0.4
29 0.4
3 -0.68
30 0.4
31 0.4
4 -0.57
5 0.05
6 -0.57
7 -0.58
8 -0.49
9 -0.85

> <PUBCHEM_EFFECTIVE_ROTOR_COUNT>
5

> <PUBCHEM_PHARMACOPHORE_FEATURES>
11
1 1 acceptor
1 2 acceptor
1 2 donor
1 3 acceptor
1 3 donor
1 4 acceptor
1 8 donor
1 9 donor
3 5 6 16 cation
5 5 6 12 13 16 rings
6 7 8 12 13 17 18 rings

> <PUBCHEM_HEAVY_ATOM_COUNT>
18

> <PUBCHEM_ATOM_DEF_STEREO_COUNT>
0

> <PUBCHEM_ATOM_UDEF_STEREO_COUNT>
0

> <PUBCHEM_BOND_DEF_STEREO_COUNT>
0

> <PUBCHEM_BOND_UDEF_STEREO_COUNT>
0

> <PUBCHEM_ISOTOPIC_ATOM_COUNT>
0

> <PUBCHEM_COMPONENT_COUNT>
1

> <PUBCHEM_CACTVS_TAUTO_COUNT>
-1

> <PUBCHEM_CONFORMER_ID>
0812055400000002

> <PUBCHEM_MMFF94_ENERGY>
37.0713

> <PUBCHEM_FEATURE_SELFOVERLAP>
56.005

> <PUBCHEM_SHAPE_FINGERPRINT>
10366900 7 17632569448810516016
10616163 171 18411702114547734398
11578080 2 17970320789211641972
12251169 10 18412826888972535892
12553582 1 18337944679606244154
13140716 1 18198069281703484937
15242433 33 18407761430402783236
15375462 189 18334294292491292624
15415430 112 18410856602869199878
15669948 3 18341607122831688750
17804303 29 18273217529532890865
19050596 39 18408316705603120096
19422 9 18188772726180600000
20291156 8 18336824302964170518
20442098 301 18410848842011086514
20510252 161 18058736784155966281
21267235 1 18338527450807603127
22445834 79 18334574624996139888
2297311 6 18129959935210681436
23402539 116 18202560683824299037
23463225 33 18408323272048946381
23559900 14 18201155538023692128
2748010 2 17980216192582880493
2838139 119 13973136285183359195
34934 24 18408318899698470405
58807428 26 18126015866826770993
7097593 13 18046332038585157098

> <PUBCHEM_SHAPE_MULTIPOLES>
322.05
8.42
2.56
0.83
7.39
1
-0.06
0.54
-0.67
-1.37
0.06
0.28
0.21
-1.24

> <PUBCHEM_SHAPE_SELFOVERLAP>
679.992

> <PUBCHEM_SHAPE_VOLUME>
180

> <PUBCHEM_COORDINATE_TYPE>
2
5
10

$$$$
