135398640
  -OEChem-03292013293D

 36 38  0     1  0  0  0  0  0999 V2000
    4.4531    1.6449    0.0536 P   0  0  0  0  0  0  0  0  0  0  0  0
    1.0509   -0.7974    1.0863 O   0  0  0  0  0  0  0  0  0  0  0  0
   -0.7304   -2.8850   -1.2479 O   0  0  0  0  0  0  0  0  0  0  0  0
    1.3109   -3.7346    0.3905 O   0  0  0  0  0  0  0  0  0  0  0  0
    3.5140    0.4561    0.6250 O   0  0  0  0  0  0  0  0  0  0  0  0
    5.6082    0.8416   -0.7436 O   0  0  0  0  0  0  0  0  0  0  0  0
    3.5677    2.2971   -1.1320 O   0  0  0  0  0  0  0  0  0  0  0  0
   -4.6268    2.7204   -0.3897 O   0  0  0  0  0  0  0  0  0  0  0  0
    4.9518    2.6113    1.0880 O   0  0  0  0  0  0  0  0  0  0  0  0
   -1.0994   -0.0463    0.2090 N   0  0  0  0  0  0  0  0  0  0  0  0
   -1.7355    2.0492   -0.2489 N   0  0  0  0  0  0  0  0  0  0  0  0
   -3.2587   -1.1202    0.4528 N   0  0  0  0  0  0  0  0  0  0  0  0
   -5.0260    0.4747    0.1081 N   0  0  0  0  0  0  0  0  0  0  0  0
    0.2293   -1.9413   -0.8157 C   0  0  2  0  0  0  0  0  0  0  0  0
    1.5442   -2.5766   -0.4099 C   0  0  1  0  0  0  0  0  0  0  0  0
   -0.1803   -1.2176    0.4629 C   0  0  1  0  0  0  0  0  0  0  0  0
    2.1570   -1.5044    0.4820 C   0  0  1  0  0  0  0  0  0  0  0  0
    3.0020   -0.4988   -0.2878 C   0  0  0  0  0  0  0  0  0  0  0  0
   -2.4630   -0.0521    0.2150 C   0  0  0  0  0  0  0  0  0  0  0  0
   -0.7089    1.2399   -0.0745 C   0  0  0  0  0  0  0  0  0  0  0  0
   -2.8225    1.2457   -0.0689 C   0  0  0  0  0  0  0  0  0  0  0  0
   -4.2187    1.5931   -0.1404 C   0  0  0  0  0  0  0  0  0  0  0  0
   -4.5187   -0.7998    0.3865 C   0  0  0  0  0  0  0  0  0  0  0  0
    0.3933   -1.2221   -1.6275 H   0  0  0  0  0  0  0  0  0  0  0  0
    2.1632   -2.8754   -1.2607 H   0  0  0  0  0  0  0  0  0  0  0  0
   -0.7194   -1.8662    1.1637 H   0  0  0  0  0  0  0  0  0  0  0  0
    2.7441   -1.9289    1.3044 H   0  0  0  0  0  0  0  0  0  0  0  0
    2.3987    0.0243   -1.0361 H   0  0  0  0  0  0  0  0  0  0  0  0
    3.8306   -1.0087   -0.7887 H   0  0  0  0  0  0  0  0  0  0  0  0
   -0.3440   -3.3717   -1.9957 H   0  0  0  0  0  0  0  0  0  0  0  0
    2.1787   -4.0847    0.6551 H   0  0  0  0  0  0  0  0  0  0  0  0
    0.3314    1.5269   -0.1442 H   0  0  0  0  0  0  0  0  0  0  0  0
   -5.3114   -1.5455    0.5531 H   0  0  0  0  0  0  0  0  0  0  0  0
   -6.0341    0.5990    0.0837 H   0  0  0  0  0  0  0  0  0  0  0  0
    3.9045    3.0954   -1.5918 H   0  0  0  0  0  0  0  0  0  0  0  0
    6.3660    1.3428   -1.1133 H   0  0  0  0  0  0  0  0  0  0  0  0
  1  5  1  0  0  0  0
  1  6  1  0  0  0  0
  1  7  1  0  0  0  0
  1  9  2  0  0  0  0
  2 16  1  0  0  0  0
  2 17  1  0  0  0  0
  3 14  1  0  0  0  0
  3 30  1  0  0  0  0
  4 15  1  0  0  0  0
  4 31  1  0  0  0  0
  5 18  1  0  0  0  0
  6 36  1  0  0  0  0
  7 35  1  0  0  0  0
  8 22  2  0  0  0  0
 10 16  1  0  0  0  0
 10 19  1  0  0  0  0
 10 20  1  0  0  0  0
 11 20  2  0  0  0  0
 11 21  1  0  0  0  0
 12 19  1  0  0  0  0
 12 23  2  0  0  0  0
 13 22  1  0  0  0  0
 13 23  1  0  0  0  0
 13 34  1  0  0  0  0
 14 15  1  0  0  0  0
 14 16  1  0  0  0  0
 14 24  1  0  0  0  0
 15 17  1  0  0  0  0
 15 25  1  0  0  0  0
 16 26  1  0  0  0  0
 17 18  1  0  0  0  0
 17 27  1  0  0  0  0
 18 28  1  0  0  0  0
 18 29  1  0  0  0  0
 19 21  2  0  0  0  0
 20 32  1  0  0  0  0
 21 22  1  0  0  0  0
 23 33  1  0  0  0  0
M  END
> <PUBCHEM_COMPOUND_CID>
135398640

> <PUBCHEM_CONFORMER_RMSD>
0.8

> <PUBCHEM_CONFORMER_DIVERSEORDER>
1
61
20
60
13
21
16
62
54
49
24
52
46
5
4
59
47
56
9
15
22
38
28
34
53
37
50
23
45
39
2
32
48
41
31
40
25
44
35
12
33
42
63
18
58
55
26
14
30
7
19
27
43
51
29
10
57
3
36
8
17
11
6

> <PUBCHEM_MMFF94_PARTIAL_CHARGES>
30
1 1.51
10 0.05
11 -0.57
12 -0.58
13 -0.49
14 0.28
15 0.28
16 0.54
17 0.28
18 0.28
19 -0.03
2 -0.56
20 0.04
21 0.14
22 0.72
23 0.45
3 -0.68
30 0.4
31 0.4
32 0.15
33 0.06
34 0.37
35 0.5
36 0.5
4 -0.68
5 -0.55
6 -0.77
7 -0.77
8 -0.57
9 -0.7

> <PUBCHEM_EFFECTIVE_ROTOR_COUNT>
5

> <PUBCHEM_PHARMACOPHORE_FEATURES>
15
1 13 donor
1 2 acceptor
1 3 acceptor
1 3 donor
1 4 acceptor
1 4 donor
1 6 acceptor
1 7 acceptor
1 8 acceptor
1 9 acceptor
3 10 11 20 cation
4 1 6 7 9 anion
5 10 11 19 20 21 rings
5 2 14 15 16 17 rings
6 12 13 19 21 22 23 rings

> <PUBCHEM_HEAVY_ATOM_COUNT>
23

> <PUBCHEM_ATOM_DEF_STEREO_COUNT>
4

> <PUBCHEM_ATOM_UDEF_STEREO_COUNT>
0

> <PUBCHEM_BOND_DEF_STEREO_COUNT>
0

> <PUBCHEM_BOND_UDEF_STEREO_COUNT>
0

> <PUBCHEM_ISOTOPIC_ATOM_COUNT>
0

> <PUBCHEM_COMPONENT_COUNT>
1

> <PUBCHEM_CACTVS_TAUTO_COUNT>
-1

> <PUBCHEM_CONFORMER_ID>
081204F000000001

> <PUBCHEM_MMFF94_ENERGY>
18.4813

> <PUBCHEM_FEATURE_SELFOVERLAP>
76.312

> <PUBCHEM_SHAPE_FINGERPRINT>
10090160 65 18261106404721339383
10498660 4 18412266116525387608
10871710 139 18124872610435300495
11578080 2 16589129538386048679
11796584 16 10807943634562191952
12173636 292 18267861868987714606
12403259 118 18335687326357582570
12788726 201 17248939074977129802
13583140 156 17242708932334201050
14123255 52 18412542141457209172
14341114 328 17240480342713577248
14528608 73 18413385427999689189
1454969 45 18340486794109729055
14787075 74 18272086158064469011
14790565 3 18340210785935523593
15196674 1 18408604738356692080
15961568 22 18041000609264523453
19591789 44 18123470741878941073
21524375 3 18412548730127328666
22113638 7 18263081192267238052
22620623 9 16915653902904852574
23227448 37 18127408071632828316
23559900 14 18122902023747842779
2838139 119 18412537734947695468
350125 39 18336827494736794626
43658 37 18413668015641863744
474 4 18041003951001760420
5104073 3 18189058603657032281
67856867 119 18263918861007643210
7808743 9 18194679504814814008
9709674 26 18052259493059772599
9981440 41 18333733545682326786

> <PUBCHEM_SHAPE_MULTIPOLES>
410.3
10.52
3.54
0.89
1.76
1.28
0.04
-8.87
-0.16
1.67
0.43
0.51
0.08
0.38

> <PUBCHEM_SHAPE_SELFOVERLAP>
867.857

> <PUBCHEM_SHAPE_VOLUME>
232

> <PUBCHEM_COORDINATE_TYPE>
2
5
10

$$$$
