135398630
  -OEChem-03292013293D

 36 38  0     1  0  0  0  0  0999 V2000
    4.7911    1.4889    0.0193 P   0  0  0  0  0  0  0  0  0  0  0  0
    1.2375   -0.7971    1.0385 O   0  0  0  0  0  0  0  0  0  0  0  0
   -0.6469   -2.7786   -1.3071 O   0  0  0  0  0  0  0  0  0  0  0  0
    1.3411   -3.7419    0.3339 O   0  0  0  0  0  0  0  0  0  0  0  0
    3.7658    0.3235    0.5878 O   0  0  0  0  0  0  0  0  0  0  0  0
   -4.2395    3.0183   -0.4376 O   0  0  0  0  0  0  0  0  0  0  0  0
    5.1774    2.2700    1.2717 O   0  5  0  0  0  0  0  0  0  0  0  0
    3.9544    2.2875   -0.9759 O   0  5  0  0  0  0  0  0  0  0  0  0
    5.9460    0.7142   -0.6087 O   0  0  0  0  0  0  0  0  0  0  0  0
   -0.8668    0.0712    0.1580 N   0  0  0  0  0  0  0  0  0  0  0  0
   -1.3879    2.1985   -0.2946 N   0  0  0  0  0  0  0  0  0  0  0  0
   -3.0772   -0.8874    0.3912 N   0  0  0  0  0  0  0  0  0  0  0  0
   -4.7512    0.7923    0.0489 N   0  0  0  0  0  0  0  0  0  0  0  0
   -5.3588   -1.4298    0.5352 N   0  0  0  0  0  0  0  0  0  0  0  0
    0.3609   -1.8893   -0.8694 C   0  0  2  0  0  0  0  0  0  0  0  0
    1.6385   -2.5957   -0.4622 C   0  0  1  0  0  0  0  0  0  0  0  0
   -0.0128   -1.1486    0.4105 C   0  0  1  0  0  0  0  0  0  0  0  0
    2.3056   -1.5608    0.4349 C   0  0  1  0  0  0  0  0  0  0  0  0
    3.2057   -0.5997   -0.3294 C   0  0  0  0  0  0  0  0  0  0  0  0
   -2.2289    0.1388    0.1597 C   0  0  0  0  0  0  0  0  0  0  0  0
   -0.4066    1.3352   -0.1202 C   0  0  0  0  0  0  0  0  0  0  0  0
   -2.5161    1.4528   -0.1203 C   0  0  0  0  0  0  0  0  0  0  0  0
   -3.8889    1.8706   -0.1940 C   0  0  0  0  0  0  0  0  0  0  0  0
   -4.3426   -0.5330    0.3299 C   0  0  0  0  0  0  0  0  0  0  0  0
    0.5657   -1.1774   -1.6783 H   0  0  0  0  0  0  0  0  0  0  0  0
   -0.5879   -1.7694    1.1079 H   0  0  0  0  0  0  0  0  0  0  0  0
    2.2430   -2.9247   -1.3123 H   0  0  0  0  0  0  0  0  0  0  0  0
    2.8668   -2.0187    1.2574 H   0  0  0  0  0  0  0  0  0  0  0  0
    2.6376   -0.0379   -1.0773 H   0  0  0  0  0  0  0  0  0  0  0  0
    4.0110   -1.1465   -0.8297 H   0  0  0  0  0  0  0  0  0  0  0  0
   -0.2852   -3.2831   -2.0556 H   0  0  0  0  0  0  0  0  0  0  0  0
    2.1881   -4.1390    0.5996 H   0  0  0  0  0  0  0  0  0  0  0  0
    0.6479    1.5662   -0.1859 H   0  0  0  0  0  0  0  0  0  0  0  0
   -5.7496    0.9779    0.0207 H   0  0  0  0  0  0  0  0  0  0  0  0
   -6.3315   -1.1474    0.4858 H   0  0  0  0  0  0  0  0  0  0  0  0
   -5.1657   -2.4035    0.7428 H   0  0  0  0  0  0  0  0  0  0  0  0
  1  5  1  0  0  0  0
  1  7  1  0  0  0  0
  1  8  1  0  0  0  0
  1  9  2  0  0  0  0
  2 17  1  0  0  0  0
  2 18  1  0  0  0  0
  3 15  1  0  0  0  0
  3 31  1  0  0  0  0
  4 16  1  0  0  0  0
  4 32  1  0  0  0  0
  5 19  1  0  0  0  0
  6 23  2  0  0  0  0
 10 17  1  0  0  0  0
 10 20  1  0  0  0  0
 10 21  1  0  0  0  0
 11 21  2  0  0  0  0
 11 22  1  0  0  0  0
 12 20  1  0  0  0  0
 12 24  2  0  0  0  0
 13 23  1  0  0  0  0
 13 24  1  0  0  0  0
 13 34  1  0  0  0  0
 14 24  1  0  0  0  0
 14 35  1  0  0  0  0
 14 36  1  0  0  0  0
 15 16  1  0  0  0  0
 15 17  1  0  0  0  0
 15 25  1  0  0  0  0
 16 18  1  0  0  0  0
 16 27  1  0  0  0  0
 17 26  1  0  0  0  0
 18 19  1  0  0  0  0
 18 28  1  0  0  0  0
 19 29  1  0  0  0  0
 19 30  1  0  0  0  0
 20 22  2  0  0  0  0
 21 33  1  0  0  0  0
 22 23  1  0  0  0  0
M  CHG  2   7  -1   8  -1
M  END
> <PUBCHEM_COMPOUND_CID>
135398630

> <PUBCHEM_CONFORMER_RMSD>
0.8

> <PUBCHEM_CONFORMER_DIVERSEORDER>
1
59
39
27
4
52
36
11
55
44
35
60
23
49
2
25
7
43
58
5
33
57
10
18
22
50
53
20
31
30
21
3
38
40
54
17
28
24
45
37
42
48
51
41
32
13
26
8
29
16
47
56
15
12
9
14
19
46
6
34

> <PUBCHEM_MMFF94_PARTIAL_CHARGES>
30
1 1.37
10 0.05
11 -0.57
12 -0.58
13 -0.49
14 -0.85
15 0.28
16 0.28
17 0.54
18 0.28
19 0.28
2 -0.56
20 -0.03
21 0.04
22 0.14
23 0.72
24 0.56
3 -0.68
31 0.4
32 0.4
33 0.15
34 0.37
35 0.4
36 0.4
4 -0.68
5 -0.55
6 -0.57
7 -1.03
8 -1.03
9 -1.03

> <PUBCHEM_EFFECTIVE_ROTOR_COUNT>
5

> <PUBCHEM_PHARMACOPHORE_FEATURES>
16
1 13 donor
1 14 donor
1 2 acceptor
1 3 acceptor
1 3 donor
1 4 acceptor
1 4 donor
1 6 acceptor
1 7 acceptor
1 8 acceptor
1 9 acceptor
3 10 11 21 cation
4 1 7 8 9 anion
5 10 11 20 21 22 rings
5 2 15 16 17 18 rings
6 12 13 20 22 23 24 rings

> <PUBCHEM_HEAVY_ATOM_COUNT>
24

> <PUBCHEM_ATOM_DEF_STEREO_COUNT>
4

> <PUBCHEM_ATOM_UDEF_STEREO_COUNT>
0

> <PUBCHEM_BOND_DEF_STEREO_COUNT>
0

> <PUBCHEM_BOND_UDEF_STEREO_COUNT>
0

> <PUBCHEM_ISOTOPIC_ATOM_COUNT>
0

> <PUBCHEM_COMPONENT_COUNT>
1

> <PUBCHEM_CACTVS_TAUTO_COUNT>
-1

> <PUBCHEM_CONFORMER_ID>
081204E600000001

> <PUBCHEM_MMFF94_ENERGY>
60.8789

> <PUBCHEM_FEATURE_SELFOVERLAP>
81.432

> <PUBCHEM_SHAPE_FINGERPRINT>
10090160 65 18260545662259853879
10498660 4 18411984624495414744
10906281 52 18262535757564067025
11578080 2 16589409913840523583
12403259 118 18335688413095071728
12788726 201 17175203609036536298
12925494 130 18339920394934273985
13583140 156 17315329467856947938
14341114 328 17385721417906312952
14528608 73 18413385423525406308
1454969 45 18340767160900416423
14787075 74 18341894138369108123
14790565 3 18339929306516100521
15196674 1 18408886200559270608
15961568 22 18114184116131047636
17980427 23 17822301188363903717
19591789 44 18195809797919110881
21065198 57 18121499047089882275
22620623 9 16844158155140338470
23227448 37 18199465652886055212
23559900 14 18050844416708987835
474 4 18113623387060352380
474229 33 18337392737532897555
5104073 3 18262239902651897033
6442390 28 18411699915608835826
67856867 119 18263075522825595394
7808743 9 18194679496314524168
9709674 26 17909549455042664887
9981440 41 18333733532892376914

> <PUBCHEM_SHAPE_MULTIPOLES>
425.9
11.22
3.53
0.89
3.23
1.06
0.02
-7.37
-0.82
0.84
0.49
0.49
0.09
0.63

> <PUBCHEM_SHAPE_SELFOVERLAP>
903.306

> <PUBCHEM_SHAPE_VOLUME>
240.3

> <PUBCHEM_COORDINATE_TYPE>
2
5
10

$$$$
