135398593
  -OEChem-03292013293D

 30 32  0     1  0  0  0  0  0999 V2000
   -2.1280   -0.2502    0.9161 O   0  0  0  0  0  0  0  0  0  0  0  0
   -3.4314    2.3786    0.0192 O   0  0  0  0  0  0  0  0  0  0  0  0
   -3.9550   -2.3292    0.5176 O   0  0  0  0  0  0  0  0  0  0  0  0
    4.5134   -1.3697   -0.3114 O   0  0  0  0  0  0  0  0  0  0  0  0
    0.1764   -0.1562    0.1052 N   0  0  0  0  0  0  0  0  0  0  0  0
    1.5829   -1.8585   -0.2549 N   0  0  0  0  0  0  0  0  0  0  0  0
    1.7488    1.6724    0.3480 N   0  0  0  0  0  0  0  0  0  0  0  0
    4.0032    0.8705    0.1029 N   0  0  0  0  0  0  0  0  0  0  0  0
   -1.1278    0.5772    0.2930 C   0  0  1  0  0  0  0  0  0  0  0  0
   -3.2011    1.1546   -0.6745 C   0  0  1  0  0  0  0  0  0  0  0  0
   -1.7323    1.0676   -1.0180 C   0  0  0  0  0  0  0  0  0  0  0  0
   -3.3998   -0.0181    0.2770 C   0  0  1  0  0  0  0  0  0  0  0  0
   -3.8048   -1.2978   -0.4420 C   0  0  0  0  0  0  0  0  0  0  0  0
    1.4323    0.3738    0.1380 C   0  0  0  0  0  0  0  0  0  0  0  0
    0.3191   -1.5015   -0.1336 C   0  0  0  0  0  0  0  0  0  0  0  0
    2.2715   -0.6937   -0.0861 C   0  0  0  0  0  0  0  0  0  0  0  0
    3.6958   -0.4792   -0.1161 C   0  0  0  0  0  0  0  0  0  0  0  0
    3.0367    1.8595    0.3195 C   0  0  0  0  0  0  0  0  0  0  0  0
   -0.9113    1.4050    0.9787 H   0  0  0  0  0  0  0  0  0  0  0  0
   -3.8524    1.1362   -1.5530 H   0  0  0  0  0  0  0  0  0  0  0  0
   -1.5753    0.3330   -1.8166 H   0  0  0  0  0  0  0  0  0  0  0  0
   -1.2914    2.0190   -1.3315 H   0  0  0  0  0  0  0  0  0  0  0  0
   -4.1181    0.2072    1.0733 H   0  0  0  0  0  0  0  0  0  0  0  0
   -3.0378   -1.6167   -1.1549 H   0  0  0  0  0  0  0  0  0  0  0  0
   -4.7553   -1.1665   -0.9681 H   0  0  0  0  0  0  0  0  0  0  0  0
   -0.5288   -2.1681   -0.2119 H   0  0  0  0  0  0  0  0  0  0  0  0
   -4.3693    2.3945    0.2756 H   0  0  0  0  0  0  0  0  0  0  0  0
   -4.2149   -3.1331    0.0363 H   0  0  0  0  0  0  0  0  0  0  0  0
    3.4766    2.8574    0.4714 H   0  0  0  0  0  0  0  0  0  0  0  0
    4.9820    1.1429    0.1033 H   0  0  0  0  0  0  0  0  0  0  0  0
  1  9  1  0  0  0  0
  1 12  1  0  0  0  0
  2 10  1  0  0  0  0
  2 27  1  0  0  0  0
  3 13  1  0  0  0  0
  3 28  1  0  0  0  0
  4 17  2  0  0  0  0
  5  9  1  0  0  0  0
  5 14  1  0  0  0  0
  5 15  1  0  0  0  0
  6 15  2  0  0  0  0
  6 16  1  0  0  0  0
  7 14  1  0  0  0  0
  7 18  2  0  0  0  0
  8 17  1  0  0  0  0
  8 18  1  0  0  0  0
  8 30  1  0  0  0  0
  9 11  1  0  0  0  0
  9 19  1  0  0  0  0
 10 11  1  0  0  0  0
 10 12  1  0  0  0  0
 10 20  1  0  0  0  0
 11 21  1  0  0  0  0
 11 22  1  0  0  0  0
 12 13  1  0  0  0  0
 12 23  1  0  0  0  0
 13 24  1  0  0  0  0
 13 25  1  0  0  0  0
 14 16  2  0  0  0  0
 15 26  1  0  0  0  0
 16 17  1  0  0  0  0
 18 29  1  0  0  0  0
M  END
> <PUBCHEM_COMPOUND_CID>
135398593

> <PUBCHEM_CONFORMER_RMSD>
0.6

> <PUBCHEM_CONFORMER_DIVERSEORDER>
1
8
14
9
12
11
6
7
10
2
4
5
3
13

> <PUBCHEM_MMFF94_PARTIAL_CHARGES>
22
1 -0.56
10 0.28
12 0.28
13 0.28
14 -0.03
15 0.04
16 0.14
17 0.72
18 0.45
2 -0.68
26 0.15
27 0.4
28 0.4
29 0.06
3 -0.68
30 0.37
4 -0.57
5 0.05
6 -0.57
7 -0.58
8 -0.49
9 0.54

> <PUBCHEM_EFFECTIVE_ROTOR_COUNT>
3

> <PUBCHEM_PHARMACOPHORE_FEATURES>
11
1 1 acceptor
1 2 acceptor
1 2 donor
1 3 acceptor
1 3 donor
1 4 acceptor
1 8 donor
3 5 6 15 cation
5 1 9 10 11 12 rings
5 5 6 14 15 16 rings
6 7 8 14 16 17 18 rings

> <PUBCHEM_HEAVY_ATOM_COUNT>
18

> <PUBCHEM_ATOM_DEF_STEREO_COUNT>
3

> <PUBCHEM_ATOM_UDEF_STEREO_COUNT>
0

> <PUBCHEM_BOND_DEF_STEREO_COUNT>
0

> <PUBCHEM_BOND_UDEF_STEREO_COUNT>
0

> <PUBCHEM_ISOTOPIC_ATOM_COUNT>
0

> <PUBCHEM_COMPONENT_COUNT>
1

> <PUBCHEM_CACTVS_TAUTO_COUNT>
-1

> <PUBCHEM_CONFORMER_ID>
081204C100000001

> <PUBCHEM_MMFF94_ENERGY>
39.1827

> <PUBCHEM_FEATURE_SELFOVERLAP>
55.967

> <PUBCHEM_SHAPE_FINGERPRINT>
10608611 8 18409444769635740829
11405975 8 18410854317735615145
11471102 20 18341046333494854028
11578080 2 13624382393700995231
11615757 297 18131917065374917864
12032990 46 18341335509395308206
12403259 226 18410569621533562056
12403259 415 18341893025988532784
12500047 106 18190174599263872613
12916754 54 18341334469770512579
13675066 3 17917422116947034544
15196674 1 18411418410498470420
15219456 202 18409165502198204897
18175812 5 18335420153516569869
18186145 218 18131078129734918768
1986462 14 18334576823934908589
200 152 18060131055520969519
20645477 56 18189618250896880653
20645477 70 18201715102957010454
21267235 1 18412553106203170071
21501502 16 18334851676209179315
221490 88 18411423929389215866
23402539 116 17095241389033881390
23402655 69 18343300336389463340
23557571 272 18408326579601123365
23559900 14 18409721855092246768
25 1 18264767666767227164
2748010 2 18269280221907669042
2871803 45 18335411413791261983
3286 77 18409727382952631132
4214541 1 18411138000589285617
4990 188 18202009798344055638
5104073 3 18412542102612639344
633830 44 17530970167920457716
77779 3 18411419509593412309
8809292 202 18334018289250319019
9709674 26 18410298012155057831

> <PUBCHEM_SHAPE_MULTIPOLES>
327.03
8.41
2.19
0.76
0.58
0.02
-0.05
-0.86
-0.17
-0.77
0.03
-0.34
0.05
0.7

> <PUBCHEM_SHAPE_SELFOVERLAP>
710.648

> <PUBCHEM_SHAPE_VOLUME>
176.1

> <PUBCHEM_COORDINATE_TYPE>
2
5
10

$$$$
