135398034
  -OEChem-03292013293D

 73 77  0     1  0  0  0  0  0999 V2000
    2.6546   -1.6831   -0.1143 O   0  0  0  0  0  0  0  0  0  0  0  0
    2.9132    0.4858   -0.9343 O   0  0  0  0  0  0  0  0  0  0  0  0
   -3.0800    2.9052   -0.6224 O   0  5  0  0  0  0  0  0  0  0  0  0
   -4.2123    2.8455    1.3648 O   0  0  0  0  0  0  0  0  0  0  0  0
    4.1119   -0.9581    2.2006 O   0  0  0  0  0  0  0  0  0  0  0  0
    5.9993    1.2408    1.6683 O   0  0  0  0  0  0  0  0  0  0  0  0
    4.6504    3.4383    0.3615 O   0  0  0  0  0  0  0  0  0  0  0  0
    1.7140    2.3985   -2.5025 O   0  0  0  0  0  0  0  0  0  0  0  0
   -0.8654   -1.6210   -1.1097 C   0  0  2  0  0  0  0  0  0  0  0  0
   -1.6466   -1.8199    0.2442 C   0  0  2  0  0  0  0  0  0  0  0  0
   -2.5073   -0.5745    0.7372 C   0  0  1  0  0  0  0  0  0  0  0  0
   -3.3553   -0.0479   -0.4785 C   0  0  2  0  0  0  0  0  0  0  0  0
    0.4865   -0.9212   -0.8986 C   0  0  0  0  0  0  0  0  0  0  0  0
    1.2732   -1.9884   -0.1422 C   0  0  2  0  0  0  0  0  0  0  0  0
   -1.7221   -0.9299   -2.1754 C   0  0  0  0  0  0  0  0  0  0  0  0
   -0.7542   -2.4680    1.3420 C   0  0  0  0  0  0  0  0  0  0  0  0
   -0.3708   -2.9994   -1.6574 C   0  0  0  0  0  0  0  0  0  0  0  0
   -2.4545    0.3088   -1.6732 C   0  0  0  0  0  0  0  0  0  0  0  0
   -4.4142    1.0261   -0.1152 C   0  0  2  0  0  0  0  0  0  0  0  0
    0.7331   -2.0972    1.2859 C   0  0  0  0  0  0  0  0  0  0  0  0
   -3.5139   -1.0527    1.8316 C   0  0  0  0  0  0  0  0  0  0  0  0
    0.9436   -3.2219   -0.9499 C   0  0  0  0  0  0  0  0  0  0  0  0
   -1.6172    0.5223    1.3651 C   0  0  0  0  0  0  0  0  0  0  0  0
   -5.3200    0.5347    1.0245 C   0  0  0  0  0  0  0  0  0  0  0  0
   -4.5556   -0.0058    2.2260 C   0  0  0  0  0  0  0  0  0  0  0  0
   -5.3049    1.4073   -1.3119 C   0  0  0  0  0  0  0  0  0  0  0  0
   -3.8443    2.3958    0.2434 C   0  0  0  0  0  0  0  0  0  0  0  0
    1.6922   -4.3238   -1.0710 C   0  0  0  0  0  0  0  0  0  0  0  0
    2.8894   -0.3208    0.2409 C   0  0  2  0  0  0  0  0  0  0  0  0
    4.2322   -0.2487    0.9679 C   0  0  1  0  0  0  0  0  0  0  0  0
    4.6333    1.1988    1.2525 C   0  0  2  0  0  0  0  0  0  0  0  0
    3.1201    1.8695   -0.6450 C   0  0  1  0  0  0  0  0  0  0  0  0
    4.4925    2.0680    0.0028 C   0  0  1  0  0  0  0  0  0  0  0  0
    2.9990    2.6370   -1.9578 C   0  0  0  0  0  0  0  0  0  0  0  0
   -2.4069   -2.5854    0.0179 H   0  0  0  0  0  0  0  0  0  0  0  0
   -3.9524   -0.9113   -0.8177 H   0  0  0  0  0  0  0  0  0  0  0  0
    0.3891    0.0267   -0.3739 H   0  0  0  0  0  0  0  0  0  0  0  0
    0.9535   -0.6955   -1.8682 H   0  0  0  0  0  0  0  0  0  0  0  0
   -2.4680   -1.6423   -2.5537 H   0  0  0  0  0  0  0  0  0  0  0  0
   -1.1072   -0.6528   -3.0412 H   0  0  0  0  0  0  0  0  0  0  0  0
   -0.8256   -3.5581    1.2195 H   0  0  0  0  0  0  0  0  0  0  0  0
   -1.1311   -2.2832    2.3514 H   0  0  0  0  0  0  0  0  0  0  0  0
   -0.1918   -2.9482   -2.7386 H   0  0  0  0  0  0  0  0  0  0  0  0
   -1.0878   -3.8024   -1.4581 H   0  0  0  0  0  0  0  0  0  0  0  0
   -3.0428    0.6931   -2.5114 H   0  0  0  0  0  0  0  0  0  0  0  0
   -1.7169    1.0761   -1.4255 H   0  0  0  0  0  0  0  0  0  0  0  0
    0.8744   -1.1714    1.8500 H   0  0  0  0  0  0  0  0  0  0  0  0
    1.3102   -2.8463    1.8450 H   0  0  0  0  0  0  0  0  0  0  0  0
   -2.9866   -1.3561    2.7424 H   0  0  0  0  0  0  0  0  0  0  0  0
   -4.0458   -1.9440    1.4730 H   0  0  0  0  0  0  0  0  0  0  0  0
   -1.0188    1.0614    0.6316 H   0  0  0  0  0  0  0  0  0  0  0  0
   -0.9383    0.1076    2.1144 H   0  0  0  0  0  0  0  0  0  0  0  0
   -2.1897    1.2816    1.8988 H   0  0  0  0  0  0  0  0  0  0  0  0
   -5.9460   -0.2832    0.6391 H   0  0  0  0  0  0  0  0  0  0  0  0
   -6.0331    1.3001    1.3574 H   0  0  0  0  0  0  0  0  0  0  0  0
   -4.0893    0.8018    2.7974 H   0  0  0  0  0  0  0  0  0  0  0  0
   -5.2718   -0.4702    2.9156 H   0  0  0  0  0  0  0  0  0  0  0  0
   -5.7906    0.5155   -1.7256 H   0  0  0  0  0  0  0  0  0  0  0  0
   -4.7702    1.8927   -2.1348 H   0  0  0  0  0  0  0  0  0  0  0  0
   -6.1051    2.0962   -1.0112 H   0  0  0  0  0  0  0  0  0  0  0  0
    2.6371   -4.4216   -0.5479 H   0  0  0  0  0  0  0  0  0  0  0  0
    1.3701   -5.1510   -1.6941 H   0  0  0  0  0  0  0  0  0  0  0  0
    2.1271    0.0677    0.9241 H   0  0  0  0  0  0  0  0  0  0  0  0
    5.0109   -0.7556    0.3858 H   0  0  0  0  0  0  0  0  0  0  0  0
    4.0488    1.6113    2.0833 H   0  0  0  0  0  0  0  0  0  0  0  0
    2.3158    2.2110    0.0210 H   0  0  0  0  0  0  0  0  0  0  0  0
    5.2903    1.8222   -0.7088 H   0  0  0  0  0  0  0  0  0  0  0  0
    3.4217   -0.5259    2.7320 H   0  0  0  0  0  0  0  0  0  0  0  0
    3.7392    2.2859   -2.6845 H   0  0  0  0  0  0  0  0  0  0  0  0
    3.1223    3.7136   -1.8068 H   0  0  0  0  0  0  0  0  0  0  0  0
    6.5439    0.8637    0.9565 H   0  0  0  0  0  0  0  0  0  0  0  0
    3.9387    3.6702    0.9823 H   0  0  0  0  0  0  0  0  0  0  0  0
    1.6603    2.8916   -3.3388 H   0  0  0  0  0  0  0  0  0  0  0  0
  1 14  1  0  0  0  0
  1 29  1  0  0  0  0
  2 29  1  0  0  0  0
  2 32  1  0  0  0  0
  3 27  1  0  0  0  0
  4 27  2  0  0  0  0
  5 30  1  0  0  0  0
  5 68  1  0  0  0  0
  6 31  1  0  0  0  0
  6 71  1  0  0  0  0
  7 33  1  0  0  0  0
  7 72  1  0  0  0  0
  8 34  1  0  0  0  0
  8 73  1  0  0  0  0
  9 10  1  0  0  0  0
  9 13  1  0  0  0  0
  9 15  1  0  0  0  0
  9 17  1  0  0  0  0
 10 11  1  0  0  0  0
 10 16  1  0  0  0  0
 10 35  1  0  0  0  0
 11 12  1  0  0  0  0
 11 21  1  0  0  0  0
 11 23  1  0  0  0  0
 12 18  1  0  0  0  0
 12 19  1  0  0  0  0
 12 36  1  0  0  0  0
 13 14  1  0  0  0  0
 13 37  1  0  0  0  0
 13 38  1  0  0  0  0
 14 20  1  0  0  0  0
 14 22  1  0  0  0  0
 15 18  1  0  0  0  0
 15 39  1  0  0  0  0
 15 40  1  0  0  0  0
 16 20  1  0  0  0  0
 16 41  1  0  0  0  0
 16 42  1  0  0  0  0
 17 22  1  0  0  0  0
 17 43  1  0  0  0  0
 17 44  1  0  0  0  0
 18 45  1  0  0  0  0
 18 46  1  0  0  0  0
 19 24  1  0  0  0  0
 19 26  1  0  0  0  0
 19 27  1  0  0  0  0
 20 47  1  0  0  0  0
 20 48  1  0  0  0  0
 21 25  1  0  0  0  0
 21 49  1  0  0  0  0
 21 50  1  0  0  0  0
 22 28  2  0  0  0  0
 23 51  1  0  0  0  0
 23 52  1  0  0  0  0
 23 53  1  0  0  0  0
 24 25  1  0  0  0  0
 24 54  1  0  0  0  0
 24 55  1  0  0  0  0
 25 56  1  0  0  0  0
 25 57  1  0  0  0  0
 26 58  1  0  0  0  0
 26 59  1  0  0  0  0
 26 60  1  0  0  0  0
 28 61  1  0  0  0  0
 28 62  1  0  0  0  0
 29 30  1  0  0  0  0
 29 63  1  0  0  0  0
 30 31  1  0  0  0  0
 30 64  1  0  0  0  0
 31 33  1  0  0  0  0
 31 65  1  0  0  0  0
 32 33  1  0  0  0  0
 32 34  1  0  0  0  0
 32 66  1  0  0  0  0
 33 67  1  0  0  0  0
 34 69  1  0  0  0  0
 34 70  1  0  0  0  0
M  CHG  1   3  -1
M  END
> <PUBCHEM_COMPOUND_CID>
135398034

> <PUBCHEM_CONFORMER_RMSD>
1

> <PUBCHEM_CONFORMER_DIVERSEORDER>
1
6
5
4
2
11
10
9
8
7
3

> <PUBCHEM_MMFF94_PARTIAL_CHARGES>
26
1 -0.56
14 0.42
17 0.14
19 -0.11
2 -0.56
22 -0.28
27 0.91
28 -0.3
29 0.56
3 -0.9
30 0.28
31 0.28
32 0.28
33 0.28
34 0.28
4 -0.9
5 -0.68
6 -0.68
61 0.15
62 0.15
68 0.4
7 -0.68
71 0.4
72 0.4
73 0.4
8 -0.68

> <PUBCHEM_EFFECTIVE_ROTOR_COUNT>
7.2

> <PUBCHEM_PHARMACOPHORE_FEATURES>
17
1 1 acceptor
1 2 acceptor
1 3 acceptor
1 4 acceptor
1 5 acceptor
1 5 donor
1 6 acceptor
1 6 donor
1 7 acceptor
1 7 donor
1 8 acceptor
1 8 donor
3 3 4 27 anion
6 11 12 19 21 24 25 rings
6 2 29 30 31 32 33 rings
6 9 10 11 12 15 18 rings
8 9 10 13 14 16 17 20 22 rings

> <PUBCHEM_HEAVY_ATOM_COUNT>
34

> <PUBCHEM_ATOM_DEF_STEREO_COUNT>
11

> <PUBCHEM_ATOM_UDEF_STEREO_COUNT>
0

> <PUBCHEM_BOND_DEF_STEREO_COUNT>
0

> <PUBCHEM_BOND_UDEF_STEREO_COUNT>
0

> <PUBCHEM_ISOTOPIC_ATOM_COUNT>
0

> <PUBCHEM_COMPONENT_COUNT>
1

> <PUBCHEM_CACTVS_TAUTO_COUNT>
1

> <PUBCHEM_CONFORMER_ID>
0812029200000001

> <PUBCHEM_MMFF94_ENERGY>
140.8216

> <PUBCHEM_FEATURE_SELFOVERLAP>
86.422

> <PUBCHEM_SHAPE_FINGERPRINT>
10258939 38 12477335794454525442
10319926 262 17385444293261870827
10673678 19 17844245117499815349
11640471 11 17989201529847774151
12107183 9 18339623596151619490
12403259 327 17167861928756922906
12422481 6 18190446187231142640
12633257 1 17385444319084311308
12788726 201 17765989880689178454
12978246 48 18261682583089948189
13583140 156 17241028981577537618
13590594 115 17550395033743193842
13965767 371 18336536145550999964
14251764 38 18266462010086211977
14705955 166 15792275017368951349
14950920 106 17241041136503550760
15131766 46 17846781793798685657
15163728 17 18201726184199610710
15274700 34 17386866048940525777
1813 80 16982946990911336430
20715895 44 18189046504613280937
20739085 24 18261392192367123740
20764821 26 18126554841656470440
21033648 29 18041570135323992571
21475661 188 18189897517801211821
21756936 100 18267591397801488828
21860390 5 18193844738511646535
22149856 69 18199491938750812139
23227448 37 18409732897849017947
23559900 14 18045239158307816631
25222932 49 12832356794745396283
2838139 119 18060132120446096832
3298306 158 18413392025117162529
3459 110 17458622362757651363
3459 39 18130776915320709488
3493558 16 17625821565483211592
392239 28 18113911463670576043
469060 322 18127133198300868067
474 4 18411696556480128319
484985 159 8357170737927249650
5081480 168 17770526156384980382
6034566 193 18269555107782113980
6086070 43 17685202886281647279
6287921 2 18339648823940047191
6523845 18 17984453890336634110
7970288 3 11314307226487414032
9981440 41 18413105091121071731

> <PUBCHEM_SHAPE_MULTIPOLES>
652.75
11.17
4.23
2.19
1.63
1.08
0.1
-10.39
-4.55
2.55
1.46
-0.21
-0.07
-0.04

> <PUBCHEM_SHAPE_SELFOVERLAP>
1404.912

> <PUBCHEM_SHAPE_VOLUME>
355.2

> <PUBCHEM_COORDINATE_TYPE>
2
5
10

$$$$
