135398687
  -OEChem-03292013293D

 30 31  0     1  0  0  0  0  0999 V2000
   -2.9564   -0.2193   -1.7774 O   0  0  0  0  0  0  0  0  0  0  0  0
   -3.0973    0.0001    1.8640 O   0  0  0  0  0  0  0  0  0  0  0  0
    1.1752   -2.5799   -0.2252 O   0  0  0  0  0  0  0  0  0  0  0  0
    0.5776    2.0832   -0.0309 N   0  0  0  0  0  0  0  0  0  0  0  0
   -0.5391   -0.4359   -0.2977 N   0  0  0  0  0  0  0  0  0  0  0  0
    2.7726    1.1250    0.1601 N   0  0  0  0  0  0  0  0  0  0  0  0
    3.0008   -1.2067    0.0550 N   0  0  0  0  0  0  0  0  0  0  0  0
    4.8871    0.1329    0.3404 N   0  0  0  0  0  0  0  0  0  0  0  0
   -2.7980    0.3812   -0.5043 C   0  0  2  0  0  0  0  0  0  0  0  0
   -1.3177    0.6024   -0.3265 C   0  0  0  0  0  0  0  0  0  0  0  0
   -0.8504    2.0338   -0.1926 C   0  0  0  0  0  0  0  0  0  0  0  0
   -3.3768   -0.5327    0.5700 C   0  0  2  0  0  0  0  0  0  0  0  0
    1.4069    0.9755   -0.0007 C   0  0  0  0  0  0  0  0  0  0  0  0
    0.8102   -0.2321   -0.1352 C   0  0  0  0  0  0  0  0  0  0  0  0
   -4.8794   -0.7357    0.4250 C   0  0  0  0  0  0  0  0  0  0  0  0
    1.6569   -1.4568   -0.1090 C   0  0  0  0  0  0  0  0  0  0  0  0
    3.5277    0.0650    0.1850 C   0  0  0  0  0  0  0  0  0  0  0  0
   -3.3128    1.3488   -0.4982 H   0  0  0  0  0  0  0  0  0  0  0  0
   -1.1456    2.5862   -1.0901 H   0  0  0  0  0  0  0  0  0  0  0  0
   -1.3417    2.4854    0.6748 H   0  0  0  0  0  0  0  0  0  0  0  0
   -2.8992   -1.5189    0.5141 H   0  0  0  0  0  0  0  0  0  0  0  0
    1.0302    2.9855    0.0704 H   0  0  0  0  0  0  0  0  0  0  0  0
   -5.4112    0.2173    0.5211 H   0  0  0  0  0  0  0  0  0  0  0  0
   -5.2574   -1.3869    1.2206 H   0  0  0  0  0  0  0  0  0  0  0  0
   -5.1356   -1.1848   -0.5391 H   0  0  0  0  0  0  0  0  0  0  0  0
   -2.6987    0.4371   -2.4473 H   0  0  0  0  0  0  0  0  0  0  0  0
    3.6367   -1.9982    0.0817 H   0  0  0  0  0  0  0  0  0  0  0  0
   -3.4531   -0.6219    2.5213 H   0  0  0  0  0  0  0  0  0  0  0  0
    5.3601    1.0241    0.4431 H   0  0  0  0  0  0  0  0  0  0  0  0
    5.4601   -0.7037    0.3574 H   0  0  0  0  0  0  0  0  0  0  0  0
  1  9  1  0  0  0  0
  1 26  1  0  0  0  0
  2 12  1  0  0  0  0
  2 28  1  0  0  0  0
  3 16  2  0  0  0  0
  4 11  1  0  0  0  0
  4 13  1  0  0  0  0
  4 22  1  0  0  0  0
  5 10  2  0  0  0  0
  5 14  1  0  0  0  0
  6 13  1  0  0  0  0
  6 17  2  0  0  0  0
  7 16  1  0  0  0  0
  7 17  1  0  0  0  0
  7 27  1  0  0  0  0
  8 17  1  0  0  0  0
  8 29  1  0  0  0  0
  8 30  1  0  0  0  0
  9 10  1  0  0  0  0
  9 12  1  0  0  0  0
  9 18  1  0  0  0  0
 10 11  1  0  0  0  0
 11 19  1  0  0  0  0
 11 20  1  0  0  0  0
 12 15  1  0  0  0  0
 12 21  1  0  0  0  0
 13 14  2  0  0  0  0
 14 16  1  0  0  0  0
 15 23  1  0  0  0  0
 15 24  1  0  0  0  0
 15 25  1  0  0  0  0
M  END
> <PUBCHEM_COMPOUND_CID>
135398687

> <PUBCHEM_CONFORMER_RMSD>
0.6

> <PUBCHEM_CONFORMER_DIVERSEORDER>
2
13
7
11
12
14
6
9
16
1
5
4
8
3
10
15

> <PUBCHEM_MMFF94_PARTIAL_CHARGES>
22
1 -0.68
10 0.33
11 0.43
12 0.28
13 0.27
14 0.19
16 0.62
17 0.56
2 -0.68
22 0.4
26 0.4
27 0.37
28 0.4
29 0.4
3 -0.57
30 0.4
4 -0.87
5 -0.62
6 -0.62
7 -0.49
8 -0.85
9 0.34

> <PUBCHEM_EFFECTIVE_ROTOR_COUNT>
2.4

> <PUBCHEM_PHARMACOPHORE_FEATURES>
12
1 1 acceptor
1 1 donor
1 2 acceptor
1 2 donor
1 3 acceptor
1 4 cation
1 4 donor
1 5 acceptor
1 7 donor
1 8 donor
6 4 5 10 11 13 14 rings
6 6 7 13 14 16 17 rings

> <PUBCHEM_HEAVY_ATOM_COUNT>
17

> <PUBCHEM_ATOM_DEF_STEREO_COUNT>
2

> <PUBCHEM_ATOM_UDEF_STEREO_COUNT>
0

> <PUBCHEM_BOND_DEF_STEREO_COUNT>
0

> <PUBCHEM_BOND_UDEF_STEREO_COUNT>
0

> <PUBCHEM_ISOTOPIC_ATOM_COUNT>
0

> <PUBCHEM_COMPONENT_COUNT>
1

> <PUBCHEM_CACTVS_TAUTO_COUNT>
-1

> <PUBCHEM_CONFORMER_ID>
0812051F00000002

> <PUBCHEM_MMFF94_ENERGY>
44.5494

> <PUBCHEM_FEATURE_SELFOVERLAP>
60.983

> <PUBCHEM_SHAPE_FINGERPRINT>
11132069 177 18341601642611609498
11471102 20 18410290328584678797
11471102 22 18409175406403124833
12032990 46 18408888412641397460
12236239 1 17632578266610353295
12251169 10 18202286922386980695
13140716 1 18195523920716602794
13296908 3 18261673679780362559
13583140 156 16735200899572003392
13862211 1 18410847759906317598
14251717 144 18411420639407233451
14252887 29 18130517361398141134
14386348 63 18040719173263693163
15219456 202 18333730187281176973
15309172 13 18273213097084385095
15375358 24 18260263019436725375
15375462 189 18131627889590436665
16945 1 18411416219817255796
17844478 74 18260268525268515245
200 152 18272362088596862943
20201158 50 18259988171483893275
20279233 1 18041000635429426211
20645477 70 18198048206040605071
20871998 22 18269565956890654839
21061003 4 18410012165117787797
21267235 1 18411426111042587830
21501502 16 18122899829145758668
221490 88 18194967336158506254
23402539 116 18113891658895917590
23493267 7 17531232925234864377
23557571 272 16950276287212767941
23559900 14 17969212340204568122
25610 137 18408887317261375620
26918003 58 18187363233740889761
2748010 2 18124026832795860748
474229 33 18408885165925904402
5104073 3 18267576915140151336
77492 1 17632576071771295357
8809292 202 18041002898666305427

> <PUBCHEM_SHAPE_MULTIPOLES>
307.34
7.84
1.84
0.97
1.13
0.06
0.03
1.7
1.49
-0.75
-0.12
1.08
0.05
0.3

> <PUBCHEM_SHAPE_SELFOVERLAP>
651.228

> <PUBCHEM_SHAPE_VOLUME>
169.6

> <PUBCHEM_COORDINATE_TYPE>
2
5
10

$$$$
