135398653
  -OEChem-03292013293D

 30 31  0     1  0  0  0  0  0999 V2000
   -3.1056   -1.5163   -0.3009 O   0  0  0  0  0  0  0  0  0  0  0  0
   -3.4257    0.7314   -2.0382 O   0  0  0  0  0  0  0  0  0  0  0  0
    1.5673    2.5685    0.9502 O   0  0  0  0  0  0  0  0  0  0  0  0
   -0.4487    0.7091    0.9536 N   0  0  0  0  0  0  0  0  0  0  0  0
    0.3888   -2.0091    0.5640 N   0  0  0  0  0  0  0  0  0  0  0  0
    2.2463   -1.2397   -0.5369 N   0  0  0  0  0  0  0  0  0  0  0  0
    2.8850    1.0331   -0.2208 N   0  0  0  0  0  0  0  0  0  0  0  0
    4.2525   -0.4304   -1.4234 N   0  0  0  0  0  0  0  0  0  0  0  0
   -1.4282   -0.3811    0.9858 C   0  0  1  0  0  0  0  0  0  0  0  0
   -2.1378   -0.4703   -0.3630 C   0  0  2  0  0  0  0  0  0  0  0  0
   -2.8293    0.8453   -0.7477 C   0  0  2  0  0  0  0  0  0  0  0  0
   -0.7650   -1.6882    1.4044 C   0  0  0  0  0  0  0  0  0  0  0  0
    0.7394    0.3892    0.5776 C   0  0  0  0  0  0  0  0  0  0  0  0
   -3.9084    1.2568    0.2470 C   0  0  0  0  0  0  0  0  0  0  0  0
    1.1123   -1.0084    0.1990 C   0  0  0  0  0  0  0  0  0  0  0  0
    1.7689    1.4672    0.4695 C   0  0  0  0  0  0  0  0  0  0  0  0
    3.0883   -0.2572   -0.7203 C   0  0  0  0  0  0  0  0  0  0  0  0
   -2.1599   -0.1637    1.7724 H   0  0  0  0  0  0  0  0  0  0  0  0
   -1.4362   -0.7423   -1.1606 H   0  0  0  0  0  0  0  0  0  0  0  0
   -2.0862    1.6471   -0.8223 H   0  0  0  0  0  0  0  0  0  0  0  0
   -0.4263   -1.6225    2.4464 H   0  0  0  0  0  0  0  0  0  0  0  0
   -1.4763   -2.5198    1.3624 H   0  0  0  0  0  0  0  0  0  0  0  0
   -4.6734    0.4803    0.3531 H   0  0  0  0  0  0  0  0  0  0  0  0
   -3.4991    1.4890    1.2334 H   0  0  0  0  0  0  0  0  0  0  0  0
   -4.4304    2.1517   -0.1112 H   0  0  0  0  0  0  0  0  0  0  0  0
   -3.5600   -1.5443   -1.1603 H   0  0  0  0  0  0  0  0  0  0  0  0
   -3.8099    1.5958   -2.2638 H   0  0  0  0  0  0  0  0  0  0  0  0
    3.6213    1.7142   -0.3828 H   0  0  0  0  0  0  0  0  0  0  0  0
    4.4941   -1.3297   -1.8250 H   0  0  0  0  0  0  0  0  0  0  0  0
    4.9052    0.3331   -1.5631 H   0  0  0  0  0  0  0  0  0  0  0  0
  1 10  1  0  0  0  0
  1 26  1  0  0  0  0
  2 11  1  0  0  0  0
  2 27  1  0  0  0  0
  3 16  2  0  0  0  0
  4  9  1  0  0  0  0
  4 13  2  0  0  0  0
  5 12  1  0  0  0  0
  5 15  2  0  0  0  0
  6 15  1  0  0  0  0
  6 17  2  0  0  0  0
  7 16  1  0  0  0  0
  7 17  1  0  0  0  0
  7 28  1  0  0  0  0
  8 17  1  0  0  0  0
  8 29  1  0  0  0  0
  8 30  1  0  0  0  0
  9 10  1  0  0  0  0
  9 12  1  0  0  0  0
  9 18  1  0  0  0  0
 10 11  1  0  0  0  0
 10 19  1  0  0  0  0
 11 14  1  0  0  0  0
 11 20  1  0  0  0  0
 12 21  1  0  0  0  0
 12 22  1  0  0  0  0
 13 15  1  0  0  0  0
 13 16  1  0  0  0  0
 14 23  1  0  0  0  0
 14 24  1  0  0  0  0
 14 25  1  0  0  0  0
M  END
> <PUBCHEM_COMPOUND_CID>
135398653

> <PUBCHEM_CONFORMER_RMSD>
0.6

> <PUBCHEM_CONFORMER_DIVERSEORDER>
1
8
16
11
15
4
7
2
5
3
13
6
14
17
10
9
12

> <PUBCHEM_MMFF94_PARTIAL_CHARGES>
21
1 -0.68
10 0.28
11 0.28
12 0.25
13 0.45
15 0.66
16 0.63
17 0.56
2 -0.68
26 0.4
27 0.4
28 0.37
29 0.4
3 -0.57
30 0.4
4 -0.7
5 -0.7
6 -0.66
7 -0.49
8 -0.85
9 0.25

> <PUBCHEM_EFFECTIVE_ROTOR_COUNT>
2.4

> <PUBCHEM_PHARMACOPHORE_FEATURES>
11
1 1 acceptor
1 1 donor
1 2 acceptor
1 2 donor
1 3 acceptor
1 4 acceptor
1 7 donor
1 8 donor
3 5 6 15 cation
6 4 5 9 12 13 15 rings
6 6 7 13 15 16 17 rings

> <PUBCHEM_HEAVY_ATOM_COUNT>
17

> <PUBCHEM_ATOM_DEF_STEREO_COUNT>
3

> <PUBCHEM_ATOM_UDEF_STEREO_COUNT>
0

> <PUBCHEM_BOND_DEF_STEREO_COUNT>
0

> <PUBCHEM_BOND_UDEF_STEREO_COUNT>
0

> <PUBCHEM_ISOTOPIC_ATOM_COUNT>
0

> <PUBCHEM_COMPONENT_COUNT>
1

> <PUBCHEM_CACTVS_TAUTO_COUNT>
-1

> <PUBCHEM_CONFORMER_ID>
081204FD00000001

> <PUBCHEM_MMFF94_ENERGY>
40.2523

> <PUBCHEM_FEATURE_SELFOVERLAP>
55.922

> <PUBCHEM_SHAPE_FINGERPRINT>
10498660 4 17749095691486292029
10610426 29 16056594288608025334
11031198 65 18114466647864358611
11769659 78 15482673446703412734
12251169 10 8862649192668214532
12363563 72 13038896759672503141
12382932 28 9367356915623046551
12491281 212 16515691060738536942
12696612 119 9223225264963893050
13083527 12 9510588101262283945
13214271 11 9511185101210103722
13294875 104 18189312663651686050
13464514 151 18264492788717741457
13764800 53 17095532785812424161
14251745 187 18335135384484936196
14911166 2 18339934735755039654
15309172 13 7997682044303738042
15775835 57 18260552186520651615
16945 1 18340195285556145347
17834072 14 18059849572001842656
18186145 218 18410007741137630809
19862831 5 18130788932238198337
200 152 17489592242653440846
20361792 2 15123505943360741843
21524375 3 18040708156630699291
21947302 44 18339066211415458272
22112679 90 17768245713202042554
22802520 49 18412263973463125633
23114952 82 18194975260130334068
232386 152 14189569758468236437
23402539 116 17987809510168291894
23493267 7 17023193733729644152
23557571 272 17610061531062329243
23559900 14 18410582782426063462
25 1 18262241014779400579
2748010 2 16683726424729055520
3323516 105 18412263973557973579
5262128 65 17918003784035869332
549884 4 18340196410790220857
6049 1 18191036796277928689
6442390 28 17895205398192617387
81228 2 17536320580553994275
9882013 296 9007049154324262308

> <PUBCHEM_SHAPE_MULTIPOLES>
307.34
6.33
1.99
1.32
0.48
0.13
0.3
1.44
3.24
-0.13
-0.63
0.3
0.09
0.76

> <PUBCHEM_SHAPE_SELFOVERLAP>
647.946

> <PUBCHEM_SHAPE_VOLUME>
170.5

> <PUBCHEM_COORDINATE_TYPE>
2
5
10

$$$$
