135398614
  -OEChem-03292013293D

 35 37  0     1  0  0  0  0  0999 V2000
   -4.4420   -1.5435    0.1253 P   0  0  0  0  0  0  0  0  0  0  0  0
   -1.0281    0.9462    0.9620 O   0  0  0  0  0  0  0  0  0  0  0  0
   -1.2924    3.8607    0.0404 O   0  0  0  0  0  0  0  0  0  0  0  0
   -3.4945   -0.3237    0.6115 O   0  0  0  0  0  0  0  0  0  0  0  0
   -5.6046   -0.7885   -0.7072 O   0  0  0  0  0  0  0  0  0  0  0  0
   -3.5709   -2.2698   -1.0275 O   0  0  0  0  0  0  0  0  0  0  0  0
    4.7249   -2.5380   -0.3148 O   0  0  0  0  0  0  0  0  0  0  0  0
   -4.9304   -2.4427    1.2231 O   0  0  0  0  0  0  0  0  0  0  0  0
    1.1389    0.1825    0.1272 N   0  0  0  0  0  0  0  0  0  0  0  0
    1.8199   -1.9199   -0.2223 N   0  0  0  0  0  0  0  0  0  0  0  0
    3.2746    1.3110    0.3281 N   0  0  0  0  0  0  0  0  0  0  0  0
    5.0757   -0.2626    0.0723 N   0  0  0  0  0  0  0  0  0  0  0  0
   -1.5358    2.6307   -0.6379 C   0  0  2  0  0  0  0  0  0  0  0  0
    0.1963    1.3441    0.3173 C   0  0  1  0  0  0  0  0  0  0  0  0
   -2.1360    1.6214    0.3323 C   0  0  1  0  0  0  0  0  0  0  0  0
   -0.2057    2.0089   -0.9946 C   0  0  0  0  0  0  0  0  0  0  0  0
   -2.9913    0.5717   -0.3643 C   0  0  0  0  0  0  0  0  0  0  0  0
    2.5020    0.2164    0.1399 C   0  0  0  0  0  0  0  0  0  0  0  0
    0.7762   -1.1240   -0.0937 C   0  0  0  0  0  0  0  0  0  0  0  0
    2.8893   -1.0863   -0.0771 C   0  0  0  0  0  0  0  0  0  0  0  0
    4.2927   -1.4082   -0.1242 C   0  0  0  0  0  0  0  0  0  0  0  0
    4.5412    1.0136    0.2843 C   0  0  0  0  0  0  0  0  0  0  0  0
   -2.1611    2.8435   -1.5097 H   0  0  0  0  0  0  0  0  0  0  0  0
    0.7105    2.0418    0.9888 H   0  0  0  0  0  0  0  0  0  0  0  0
   -2.7108    2.1017    1.1321 H   0  0  0  0  0  0  0  0  0  0  0  0
   -0.3397    1.2601   -1.7843 H   0  0  0  0  0  0  0  0  0  0  0  0
    0.5480    2.7299   -1.3260 H   0  0  0  0  0  0  0  0  0  0  0  0
   -2.3956    0.0030   -1.0851 H   0  0  0  0  0  0  0  0  0  0  0  0
   -3.8250    1.0508   -0.8869 H   0  0  0  0  0  0  0  0  0  0  0  0
   -2.1557    4.2212    0.3058 H   0  0  0  0  0  0  0  0  0  0  0  0
   -0.2580   -1.4347   -0.1541 H   0  0  0  0  0  0  0  0  0  0  0  0
    5.3177    1.7827    0.4174 H   0  0  0  0  0  0  0  0  0  0  0  0
    6.0861   -0.3673    0.0592 H   0  0  0  0  0  0  0  0  0  0  0  0
   -3.9142   -3.0941   -1.4332 H   0  0  0  0  0  0  0  0  0  0  0  0
   -6.3672   -1.3098   -1.0368 H   0  0  0  0  0  0  0  0  0  0  0  0
  1  4  1  0  0  0  0
  1  5  1  0  0  0  0
  1  6  1  0  0  0  0
  1  8  2  0  0  0  0
  2 14  1  0  0  0  0
  2 15  1  0  0  0  0
  3 13  1  0  0  0  0
  3 30  1  0  0  0  0
  4 17  1  0  0  0  0
  5 35  1  0  0  0  0
  6 34  1  0  0  0  0
  7 21  2  0  0  0  0
  9 14  1  0  0  0  0
  9 18  1  0  0  0  0
  9 19  1  0  0  0  0
 10 19  2  0  0  0  0
 10 20  1  0  0  0  0
 11 18  1  0  0  0  0
 11 22  2  0  0  0  0
 12 21  1  0  0  0  0
 12 22  1  0  0  0  0
 12 33  1  0  0  0  0
 13 15  1  0  0  0  0
 13 16  1  0  0  0  0
 13 23  1  0  0  0  0
 14 16  1  0  0  0  0
 14 24  1  0  0  0  0
 15 17  1  0  0  0  0
 15 25  1  0  0  0  0
 16 26  1  0  0  0  0
 16 27  1  0  0  0  0
 17 28  1  0  0  0  0
 17 29  1  0  0  0  0
 18 20  2  0  0  0  0
 19 31  1  0  0  0  0
 20 21  1  0  0  0  0
 22 32  1  0  0  0  0
M  END
> <PUBCHEM_COMPOUND_CID>
135398614

> <PUBCHEM_CONFORMER_RMSD>
0.8

> <PUBCHEM_CONFORMER_DIVERSEORDER>
1
21
41
17
12
11
37
33
5
24
16
19
23
13
45
10
40
44
25
14
31
32
9
15
28
7
18
2
30
20
6
39
8
3
43
47
36
38
22
27
46
26
34
4
29
35
42

> <PUBCHEM_MMFF94_PARTIAL_CHARGES>
27
1 1.51
10 -0.57
11 -0.58
12 -0.49
13 0.28
14 0.54
15 0.28
17 0.28
18 -0.03
19 0.04
2 -0.56
20 0.14
21 0.72
22 0.45
3 -0.68
30 0.4
31 0.15
32 0.06
33 0.37
34 0.5
35 0.5
4 -0.55
5 -0.77
6 -0.77
7 -0.57
8 -0.7
9 0.05

> <PUBCHEM_EFFECTIVE_ROTOR_COUNT>
5

> <PUBCHEM_PHARMACOPHORE_FEATURES>
13
1 12 donor
1 2 acceptor
1 3 acceptor
1 3 donor
1 5 acceptor
1 6 acceptor
1 7 acceptor
1 8 acceptor
3 9 10 19 cation
4 1 5 6 8 anion
5 2 13 14 15 16 rings
5 9 10 18 19 20 rings
6 11 12 18 20 21 22 rings

> <PUBCHEM_HEAVY_ATOM_COUNT>
22

> <PUBCHEM_ATOM_DEF_STEREO_COUNT>
3

> <PUBCHEM_ATOM_UDEF_STEREO_COUNT>
0

> <PUBCHEM_BOND_DEF_STEREO_COUNT>
0

> <PUBCHEM_BOND_UDEF_STEREO_COUNT>
0

> <PUBCHEM_ISOTOPIC_ATOM_COUNT>
0

> <PUBCHEM_COMPONENT_COUNT>
1

> <PUBCHEM_CACTVS_TAUTO_COUNT>
-1

> <PUBCHEM_CONFORMER_ID>
081204D600000001

> <PUBCHEM_MMFF94_ENERGY>
12.6097

> <PUBCHEM_FEATURE_SELFOVERLAP>
66.15

> <PUBCHEM_SHAPE_FINGERPRINT>
10616163 171 18339642213901157511
11045515 52 18040996245936440125
11552529 35 18060698373239853059
11806522 49 18408604777122284388
12403259 226 18338794520954788840
12403260 363 18260828155845134992
12623949 98 17988660587481007294
12916754 54 18341051813804564992
13004483 165 18338505370770825607
13103583 49 17131283466703985683
13544653 18 18411140264137180009
14787075 74 18189054351338896880
14790565 3 17329147386665320900
15196674 1 18411982442377364523
15352361 1 18409449219664841203
17349148 13 17603590716233070248
17357779 13 18335126627299320685
17492 89 18339078173364068762
19141452 34 18339649932479803385
200 152 18130497535750156741
20261772 1 18059852900011108191
21673915 165 18413670227154499186
221490 88 18340488859761813630
22393880 68 18116145563512843622
23402539 116 18113334206474365441
23557571 272 18408884001678654477
23559900 14 18338226064515716400
2871803 45 18334571330656055547
314194 84 18269275840824879219
3421961 26 18267025153597790369
350125 39 18341610447790522992
46194498 28 17460023201391973527
474229 33 18411135874686001658
5104073 3 18271239409815266274
5283173 99 18042109991270347517
9709674 26 18126002650632230334

> <PUBCHEM_SHAPE_MULTIPOLES>
395.59
10.99
3.31
0.84
1.15
1.28
0.01
-8.19
-0.23
1.92
0.26
0.61
-0.05
0.65

> <PUBCHEM_SHAPE_SELFOVERLAP>
835.202

> <PUBCHEM_SHAPE_VOLUME>
224

> <PUBCHEM_COORDINATE_TYPE>
2
5
10

$$$$
