135398596
  -OEChem-03292013293D

 35 37  0     1  0  0  0  0  0999 V2000
   -4.7894   -1.3898    0.0804 P   0  0  0  0  0  0  0  0  0  0  0  0
   -1.2186    0.9321    0.9148 O   0  0  0  0  0  0  0  0  0  0  0  0
   -1.3174    3.8547   -0.0137 O   0  0  0  0  0  0  0  0  0  0  0  0
   -3.7527   -0.1973    0.5658 O   0  0  0  0  0  0  0  0  0  0  0  0
    4.3297   -2.8670   -0.3482 O   0  0  0  0  0  0  0  0  0  0  0  0
   -5.1645   -2.0921    1.3819 O   0  5  0  0  0  0  0  0  0  0  0  0
   -3.9677   -2.2511   -0.8742 O   0  5  0  0  0  0  0  0  0  0  0  0
   -5.9482   -0.6489   -0.5803 O   0  0  0  0  0  0  0  0  0  0  0  0
    0.9022    0.0452    0.0828 N   0  0  0  0  0  0  0  0  0  0  0  0
    1.4634   -2.0921   -0.2615 N   0  0  0  0  0  0  0  0  0  0  0  0
    3.0939    1.0534    0.2807 N   0  0  0  0  0  0  0  0  0  0  0  0
    4.7991   -0.6110    0.0308 N   0  0  0  0  0  0  0  0  0  0  0  0
    5.3645    1.6428    0.4103 N   0  0  0  0  0  0  0  0  0  0  0  0
    0.0266    1.2586    0.2698 C   0  0  1  0  0  0  0  0  0  0  0  0
   -1.6297    2.6388   -0.6893 C   0  0  1  0  0  0  0  0  0  0  0  0
   -0.3367    1.9421   -1.0439 C   0  0  0  0  0  0  0  0  0  0  0  0
   -2.2863    1.6673    0.2829 C   0  0  1  0  0  0  0  0  0  0  0  0
   -3.1993    0.6660   -0.4117 C   0  0  0  0  0  0  0  0  0  0  0  0
    2.2652    0.0021    0.0954 C   0  0  0  0  0  0  0  0  0  0  0  0
    0.4659   -1.2389   -0.1353 C   0  0  0  0  0  0  0  0  0  0  0  0
    2.5772   -1.3189   -0.1179 C   0  0  0  0  0  0  0  0  0  0  0  0
    3.9574   -1.7152   -0.1634 C   0  0  0  0  0  0  0  0  0  0  0  0
    4.3656    0.7190    0.2439 C   0  0  0  0  0  0  0  0  0  0  0  0
    0.5790    1.9278    0.9400 H   0  0  0  0  0  0  0  0  0  0  0  0
   -2.2417    2.8845   -1.5618 H   0  0  0  0  0  0  0  0  0  0  0  0
   -0.5126    1.2002   -1.8318 H   0  0  0  0  0  0  0  0  0  0  0  0
    0.4567    2.6186   -1.3765 H   0  0  0  0  0  0  0  0  0  0  0  0
   -2.8334    2.1811    1.0813 H   0  0  0  0  0  0  0  0  0  0  0  0
   -2.6404    0.0583   -1.1304 H   0  0  0  0  0  0  0  0  0  0  0  0
   -4.0082    1.1849   -0.9354 H   0  0  0  0  0  0  0  0  0  0  0  0
   -2.1591    4.2641    0.2504 H   0  0  0  0  0  0  0  0  0  0  0  0
   -0.5841   -1.4910   -0.1953 H   0  0  0  0  0  0  0  0  0  0  0  0
    5.8008   -0.7800    0.0172 H   0  0  0  0  0  0  0  0  0  0  0  0
    5.1531    2.6219    0.5685 H   0  0  0  0  0  0  0  0  0  0  0  0
    6.3424    1.3756    0.3802 H   0  0  0  0  0  0  0  0  0  0  0  0
  1  4  1  0  0  0  0
  1  6  1  0  0  0  0
  1  7  1  0  0  0  0
  1  8  2  0  0  0  0
  2 14  1  0  0  0  0
  2 17  1  0  0  0  0
  3 15  1  0  0  0  0
  3 31  1  0  0  0  0
  4 18  1  0  0  0  0
  5 22  2  0  0  0  0
  9 14  1  0  0  0  0
  9 19  1  0  0  0  0
  9 20  1  0  0  0  0
 10 20  2  0  0  0  0
 10 21  1  0  0  0  0
 11 19  1  0  0  0  0
 11 23  2  0  0  0  0
 12 22  1  0  0  0  0
 12 23  1  0  0  0  0
 12 33  1  0  0  0  0
 13 23  1  0  0  0  0
 13 34  1  0  0  0  0
 13 35  1  0  0  0  0
 14 16  1  0  0  0  0
 14 24  1  0  0  0  0
 15 16  1  0  0  0  0
 15 17  1  0  0  0  0
 15 25  1  0  0  0  0
 16 26  1  0  0  0  0
 16 27  1  0  0  0  0
 17 18  1  0  0  0  0
 17 28  1  0  0  0  0
 18 29  1  0  0  0  0
 18 30  1  0  0  0  0
 19 21  2  0  0  0  0
 20 32  1  0  0  0  0
 21 22  1  0  0  0  0
M  CHG  2   6  -1   7  -1
M  END
> <PUBCHEM_COMPOUND_CID>
135398596

> <PUBCHEM_CONFORMER_RMSD>
0.8

> <PUBCHEM_CONFORMER_DIVERSEORDER>
1
49
35
25
30
44
8
6
40
39
51
43
18
12
33
52
37
41
21
27
47
32
20
48
38
2
28
42
24
26
15
22
50
3
45
5
17
29
31
4
9
23
34
14
11
16
7
19
13
46
10
36

> <PUBCHEM_MMFF94_PARTIAL_CHARGES>
27
1 1.37
10 -0.57
11 -0.58
12 -0.49
13 -0.85
14 0.54
15 0.28
17 0.28
18 0.28
19 -0.03
2 -0.56
20 0.04
21 0.14
22 0.72
23 0.56
3 -0.68
31 0.4
32 0.15
33 0.37
34 0.4
35 0.4
4 -0.55
5 -0.57
6 -1.03
7 -1.03
8 -1.03
9 0.05

> <PUBCHEM_EFFECTIVE_ROTOR_COUNT>
5

> <PUBCHEM_PHARMACOPHORE_FEATURES>
14
1 12 donor
1 13 donor
1 2 acceptor
1 3 acceptor
1 3 donor
1 5 acceptor
1 6 acceptor
1 7 acceptor
1 8 acceptor
3 9 10 20 cation
4 1 6 7 8 anion
5 2 14 15 16 17 rings
5 9 10 19 20 21 rings
6 11 12 19 21 22 23 rings

> <PUBCHEM_HEAVY_ATOM_COUNT>
23

> <PUBCHEM_ATOM_DEF_STEREO_COUNT>
3

> <PUBCHEM_ATOM_UDEF_STEREO_COUNT>
0

> <PUBCHEM_BOND_DEF_STEREO_COUNT>
0

> <PUBCHEM_BOND_UDEF_STEREO_COUNT>
0

> <PUBCHEM_ISOTOPIC_ATOM_COUNT>
0

> <PUBCHEM_COMPONENT_COUNT>
1

> <PUBCHEM_CACTVS_TAUTO_COUNT>
-1

> <PUBCHEM_CONFORMER_ID>
081204C400000001

> <PUBCHEM_MMFF94_ENERGY>
55.0194

> <PUBCHEM_FEATURE_SELFOVERLAP>
71.269

> <PUBCHEM_SHAPE_FINGERPRINT>
11806522 49 18408886247767098005
12403259 226 18338514128267547720
12403260 363 18260828138607139592
12623949 98 18059872644081510294
12916754 54 18268994198212536368
13004483 165 18338224986795013879
13544653 18 18409733980264984177
14787075 74 18262236732802715816
14790565 3 17400644221262237349
15196674 1 18411981330059949611
15352361 1 18409449206901278103
15927050 60 17331686154861112060
17349148 13 17458351818583472304
17492 89 18339359639692705614
19141452 34 18339649923974251785
20261772 1 18131629006398446159
21065198 57 18122626050787560580
21673915 165 18412825797850057775
221490 88 18340207367536727022
22393880 68 18042963164626517006
23402539 116 18040432191996503577
23557571 272 18260824878331680333
23559900 14 18266169535703303512
2871803 45 18334290942474927787
314194 84 18268994353031805959
350125 39 18413387636251007194
4325135 7 18413388761020814012
46194498 28 17532081882130499895
474229 33 18411135874548786650
5104073 3 18269834233738729672
5283173 99 17969209063266159325
59554788 248 17559948831946992452
9709674 26 18334864883244274602

> <PUBCHEM_SHAPE_MULTIPOLES>
411.19
11.7
3.33
0.84
2.88
1.12
-0.02
-6.59
-0.83
0.92
0.35
0.61
-0.03
0.86

> <PUBCHEM_SHAPE_SELFOVERLAP>
870.701

> <PUBCHEM_SHAPE_VOLUME>
232.3

> <PUBCHEM_COORDINATE_TYPE>
2
5
10

$$$$
