13531824
  -OEChem-03292013303D

 44 46  0     1  0  0  0  0  0999 V2000
   -3.4770   -1.0055    0.8844 O   0  0  0  0  0  0  0  0  0  0  0  0
   -1.0172   -2.1659    0.4038 O   0  0  0  0  0  0  0  0  0  0  0  0
    1.3055   -2.0851   -0.0893 O   0  0  0  0  0  0  0  0  0  0  0  0
   -2.7239   -0.9636   -1.3550 O   0  0  0  0  0  0  0  0  0  0  0  0
   -0.3637   -0.5104   -1.8835 O   0  0  0  0  0  0  0  0  0  0  0  0
    5.1397   -0.7393    1.2794 O   0  0  0  0  0  0  0  0  0  0  0  0
    2.8131    3.1131    0.2996 O   0  0  0  0  0  0  0  0  0  0  0  0
    3.9571    1.1699    0.7689 N   0  0  0  0  0  0  0  0  0  0  0  0
   -1.1409   -0.7389    0.3875 C   0  0  2  0  0  0  0  0  0  0  0  0
   -2.5612   -0.4002   -0.0472 C   0  0  2  0  0  0  0  0  0  0  0  0
   -0.0721   -0.1358   -0.5371 C   0  0  1  0  0  0  0  0  0  0  0  0
    1.3179   -0.6534   -0.1347 C   0  0  2  0  0  0  0  0  0  0  0  0
    2.4230   -0.2301   -1.0936 C   0  0  0  0  0  0  0  0  0  0  0  0
   -2.9108    1.0982   -0.0507 C   0  0  1  0  0  0  0  0  0  0  0  0
   -4.3985    1.0079    0.1349 C   0  0  0  0  0  0  0  0  0  0  0  0
    3.7807   -0.7969   -0.6913 C   0  0  0  0  0  0  0  0  0  0  0  0
    2.5227    1.2866   -1.2214 C   0  0  0  0  0  0  0  0  0  0  0  0
   -4.7258   -0.3005    0.7734 C   0  0  0  0  0  0  0  0  0  0  0  0
    0.2950   -2.5605    0.7973 C   0  0  0  0  0  0  0  0  0  0  0  0
   -2.2959    1.9057    1.0924 C   0  0  0  0  0  0  0  0  0  0  0  0
    4.3462   -0.1459    0.5491 C   0  0  0  0  0  0  0  0  0  0  0  0
    3.0831    1.9459    0.0170 C   0  0  0  0  0  0  0  0  0  0  0  0
   -5.2973    1.9049   -0.2841 C   0  0  0  0  0  0  0  0  0  0  0  0
   -0.9792   -0.4021    1.4196 H   0  0  0  0  0  0  0  0  0  0  0  0
   -0.1069    0.9528   -0.4940 H   0  0  0  0  0  0  0  0  0  0  0  0
    1.5425   -0.2952    0.8787 H   0  0  0  0  0  0  0  0  0  0  0  0
    2.1978   -0.6458   -2.0850 H   0  0  0  0  0  0  0  0  0  0  0  0
   -2.6576    1.5644   -1.0101 H   0  0  0  0  0  0  0  0  0  0  0  0
    4.5059   -0.6254   -1.4970 H   0  0  0  0  0  0  0  0  0  0  0  0
    3.7338   -1.8790   -0.5291 H   0  0  0  0  0  0  0  0  0  0  0  0
    1.5692    1.7536   -1.4797 H   0  0  0  0  0  0  0  0  0  0  0  0
    3.2135    1.5324   -2.0390 H   0  0  0  0  0  0  0  0  0  0  0  0
   -5.1385   -0.1792    1.7785 H   0  0  0  0  0  0  0  0  0  0  0  0
   -5.4060   -0.8974    0.1582 H   0  0  0  0  0  0  0  0  0  0  0  0
    0.3295   -3.6536    0.7802 H   0  0  0  0  0  0  0  0  0  0  0  0
    0.5025   -2.2391    1.8255 H   0  0  0  0  0  0  0  0  0  0  0  0
   -2.4929    1.4477    2.0686 H   0  0  0  0  0  0  0  0  0  0  0  0
   -1.2147    2.0192    0.9874 H   0  0  0  0  0  0  0  0  0  0  0  0
   -2.7164    2.9180    1.1173 H   0  0  0  0  0  0  0  0  0  0  0  0
   -3.4087   -0.4638   -1.8291 H   0  0  0  0  0  0  0  0  0  0  0  0
   -0.3331   -1.4812   -1.9329 H   0  0  0  0  0  0  0  0  0  0  0  0
    4.3504    1.6170    1.5926 H   0  0  0  0  0  0  0  0  0  0  0  0
   -4.9864    2.8201   -0.7761 H   0  0  0  0  0  0  0  0  0  0  0  0
   -6.3597    1.7401   -0.1410 H   0  0  0  0  0  0  0  0  0  0  0  0
  1 10  1  0  0  0  0
  1 18  1  0  0  0  0
  2  9  1  0  0  0  0
  2 19  1  0  0  0  0
  3 12  1  0  0  0  0
  3 19  1  0  0  0  0
  4 10  1  0  0  0  0
  4 40  1  0  0  0  0
  5 11  1  0  0  0  0
  5 41  1  0  0  0  0
  6 21  2  0  0  0  0
  7 22  2  0  0  0  0
  8 21  1  0  0  0  0
  8 22  1  0  0  0  0
  8 42  1  0  0  0  0
  9 10  1  0  0  0  0
  9 11  1  0  0  0  0
  9 24  1  0  0  0  0
 10 14  1  0  0  0  0
 11 12  1  0  0  0  0
 11 25  1  0  0  0  0
 12 13  1  0  0  0  0
 12 26  1  0  0  0  0
 13 16  1  0  0  0  0
 13 17  1  0  0  0  0
 13 27  1  0  0  0  0
 14 15  1  0  0  0  0
 14 20  1  0  0  0  0
 14 28  1  0  0  0  0
 15 18  1  0  0  0  0
 15 23  2  0  0  0  0
 16 21  1  0  0  0  0
 16 29  1  0  0  0  0
 16 30  1  0  0  0  0
 17 22  1  0  0  0  0
 17 31  1  0  0  0  0
 17 32  1  0  0  0  0
 18 33  1  0  0  0  0
 18 34  1  0  0  0  0
 19 35  1  0  0  0  0
 19 36  1  0  0  0  0
 20 37  1  0  0  0  0
 20 38  1  0  0  0  0
 20 39  1  0  0  0  0
 23 43  1  0  0  0  0
 23 44  1  0  0  0  0
M  END
> <PUBCHEM_COMPOUND_CID>
13531824

> <PUBCHEM_CONFORMER_RMSD>
0.8

> <PUBCHEM_CONFORMER_DIVERSEORDER>
1
7
4
6
2
5
3

> <PUBCHEM_MMFF94_PARTIAL_CHARGES>
26
1 -0.56
10 0.56
11 0.28
12 0.28
14 0.14
15 -0.28
16 0.06
17 0.06
18 0.42
19 0.56
2 -0.56
21 0.57
22 0.57
23 -0.3
3 -0.56
4 -0.68
40 0.4
41 0.4
42 0.37
43 0.15
44 0.15
5 -0.68
6 -0.57
7 -0.57
8 -0.49
9 0.28

> <PUBCHEM_EFFECTIVE_ROTOR_COUNT>
4.8

> <PUBCHEM_PHARMACOPHORE_FEATURES>
13
1 1 acceptor
1 2 acceptor
1 3 acceptor
1 4 acceptor
1 4 donor
1 5 acceptor
1 5 donor
1 6 acceptor
1 7 acceptor
1 8 donor
5 1 10 14 15 18 rings
6 2 3 9 11 12 19 rings
6 8 13 16 17 21 22 rings

> <PUBCHEM_HEAVY_ATOM_COUNT>
23

> <PUBCHEM_ATOM_DEF_STEREO_COUNT>
5

> <PUBCHEM_ATOM_UDEF_STEREO_COUNT>
0

> <PUBCHEM_BOND_DEF_STEREO_COUNT>
0

> <PUBCHEM_BOND_UDEF_STEREO_COUNT>
0

> <PUBCHEM_ISOTOPIC_ATOM_COUNT>
0

> <PUBCHEM_COMPONENT_COUNT>
1

> <PUBCHEM_CACTVS_TAUTO_COUNT>
2

> <PUBCHEM_CONFORMER_ID>
00CE7AB000000001

> <PUBCHEM_MMFF94_ENERGY>
63.6607

> <PUBCHEM_FEATURE_SELFOVERLAP>
66.111

> <PUBCHEM_SHAPE_FINGERPRINT>
10646746 165 18410580590943105652
11089746 13 18337382765056511093
11370993 70 18335140890711754139
11796584 16 12757152368353510953
12173636 292 18264774431430649263
12403259 415 18336275607959783917
12403260 363 18338227275469322198
12507557 5 18411981351471833544
12596602 18 17749111114534627168
12633257 1 18334285488193321192
12670546 177 12535340207937880802
12788726 201 17029116996095159362
128620 24 11815897851309687800
13140716 1 18260830461926204738
13224815 77 18272377494069813481
13544653 18 11169912809876127511
13583140 156 18335706014219236027
13675066 3 18411706477880845415
14178342 30 17676779720937853987
14466204 15 18263921047367594840
14787075 74 18269559515093896979
15196674 1 18410295838980512993
15209294 21 18407759226995077983
15238133 3 18408045122157995468
15295992 7 18336831986802964856
17349148 13 18260267477259630031
17492 54 11815315179415180362
18186145 218 18130805459267104654
192875 21 18202006508167400976
19784866 9 18336544928163080043
20715895 44 18264767654378873013
21475661 188 18410571773322947765
21524375 3 18408611344090480191
22950370 63 9511466640706048271
23184049 59 18113053852795335918
23227448 37 18343020038391787559
23402539 116 18341887498275666223
23557571 272 16988273282806803831
23558518 356 18044095893431412746
23559900 14 18271251529970764998
345986 75 17534601747990851784
351380 180 18342457027923942377
3680242 22 18337958878594350920
392239 28 18338250352919396123
4340502 62 18187937145025908971
474 4 18411702092766604912
5104073 3 18334303097269292993
59755656 215 18266181634589337830
6328613 192 18334867156047274532
6333272 397 18410860987919896528
633830 44 18411699898006597127
7364860 26 18194968447974819670
7808743 9 17901400201043151228
8509985 295 18334852784585204368
9971528 1 18201722808803403598
9981440 41 17910947264991475528

> <PUBCHEM_SHAPE_MULTIPOLES>
427.26
10.24
2.49
1.19
2.32
0.51
0.24
3.83
-1.92
-0.58
-0.5
-0.33
-0.07
0.03

> <PUBCHEM_SHAPE_SELFOVERLAP>
907.14

> <PUBCHEM_SHAPE_VOLUME>
234.3

> <PUBCHEM_COORDINATE_TYPE>
2
5
10

$$$$
