135398674
  -OEChem-03292013293D

 42 43  0     1  0  0  0  0  0999 V2000
   -5.3079   -0.8031   -1.1625 O   0  0  0  0  0  0  0  0  0  0  0  0
   -6.0856    0.0306    0.7979 O   0  0  0  0  0  0  0  0  0  0  0  0
   -1.1250    0.2830    0.4003 N   0  0  0  0  0  0  0  0  0  0  0  0
    0.7511   -2.6056    0.0523 N   0  0  0  0  0  0  0  0  0  0  0  0
   -1.4029   -2.1497    0.4393 N   0  0  0  0  0  0  0  0  0  0  0  0
   -4.8731    2.4166    0.4425 N   0  0  0  0  0  0  0  0  0  0  0  0
    1.1386    1.0777   -0.0387 N   0  0  0  0  0  0  0  0  0  0  0  0
    2.8740   -0.4564   -0.3233 N   0  0  0  0  0  0  0  0  0  0  0  0
   -2.5244    0.5915    0.6038 C   0  0  0  0  0  0  0  0  0  0  0  0
   -3.1412    1.0660   -0.7110 C   0  0  0  0  0  0  0  0  0  0  0  0
   -4.6312    1.4137   -0.5945 C   0  0  1  0  0  0  0  0  0  0  0  0
   -0.6823   -0.9965    0.3145 C   0  0  0  0  0  0  0  0  0  0  0  0
    0.6491   -1.2447    0.0720 C   0  0  0  0  0  0  0  0  0  0  0  0
   -0.1355    1.2377    0.1948 C   0  0  0  0  0  0  0  0  0  0  0  0
    1.6259   -0.2158   -0.1080 C   0  0  0  0  0  0  0  0  0  0  0  0
   -5.4229    0.1722   -0.2218 C   0  0  0  0  0  0  0  0  0  0  0  0
   -0.5085   -3.1042    0.2764 C   0  0  0  0  0  0  0  0  0  0  0  0
    3.7002    0.7332   -0.4785 C   0  0  0  0  0  0  0  0  0  0  0  0
    5.1168    0.3286   -0.7431 C   0  0  0  0  0  0  0  0  0  0  0  0
    6.2091    0.6335   -0.0171 C   0  0  0  0  0  0  0  0  0  0  0  0
    6.2035    1.4219    1.2617 C   0  0  0  0  0  0  0  0  0  0  0  0
    7.5723    0.1700   -0.4571 C   0  0  0  0  0  0  0  0  0  0  0  0
   -2.6004    1.3738    1.3684 H   0  0  0  0  0  0  0  0  0  0  0  0
   -3.0672   -0.2749    0.9994 H   0  0  0  0  0  0  0  0  0  0  0  0
   -2.9966    0.2960   -1.4801 H   0  0  0  0  0  0  0  0  0  0  0  0
   -2.6037    1.9531   -1.0714 H   0  0  0  0  0  0  0  0  0  0  0  0
   -5.0121    1.7896   -1.5505 H   0  0  0  0  0  0  0  0  0  0  0  0
   -0.5277    2.2667    0.2535 H   0  0  0  0  0  0  0  0  0  0  0  0
    1.5914   -3.1473   -0.1014 H   0  0  0  0  0  0  0  0  0  0  0  0
   -5.8560    2.6872    0.4341 H   0  0  0  0  0  0  0  0  0  0  0  0
   -4.3440    3.2612    0.2288 H   0  0  0  0  0  0  0  0  0  0  0  0
   -0.7019   -4.1670    0.3078 H   0  0  0  0  0  0  0  0  0  0  0  0
    3.6197    1.3792    0.3995 H   0  0  0  0  0  0  0  0  0  0  0  0
    3.3695    1.3155   -1.3489 H   0  0  0  0  0  0  0  0  0  0  0  0
    5.2551   -0.2546   -1.6531 H   0  0  0  0  0  0  0  0  0  0  0  0
   -5.8139   -1.6072   -0.9182 H   0  0  0  0  0  0  0  0  0  0  0  0
    6.7142    0.8578    2.0501 H   0  0  0  0  0  0  0  0  0  0  0  0
    6.7362    2.3680    1.1197 H   0  0  0  0  0  0  0  0  0  0  0  0
    8.2322    1.0298   -0.6126 H   0  0  0  0  0  0  0  0  0  0  0  0
    8.0176   -0.4772    0.3056 H   0  0  0  0  0  0  0  0  0  0  0  0
    7.5389   -0.3959   -1.3940 H   0  0  0  0  0  0  0  0  0  0  0  0
    5.2072    1.6556    1.6397 H   0  0  0  0  0  0  0  0  0  0  0  0
  1 16  1  0  0  0  0
  1 36  1  0  0  0  0
  2 16  2  0  0  0  0
  3  9  1  0  0  0  0
  3 12  1  0  0  0  0
  3 14  1  0  0  0  0
  4 13  1  0  0  0  0
  4 17  1  0  0  0  0
  4 29  1  0  0  0  0
  5 12  1  0  0  0  0
  5 17  2  0  0  0  0
  6 11  1  0  0  0  0
  6 30  1  0  0  0  0
  6 31  1  0  0  0  0
  7 14  2  0  0  0  0
  7 15  1  0  0  0  0
  8 15  2  0  0  0  0
  8 18  1  0  0  0  0
  9 10  1  0  0  0  0
  9 23  1  0  0  0  0
  9 24  1  0  0  0  0
 10 11  1  0  0  0  0
 10 25  1  0  0  0  0
 10 26  1  0  0  0  0
 11 16  1  0  0  0  0
 11 27  1  0  0  0  0
 12 13  2  0  0  0  0
 13 15  1  0  0  0  0
 14 28  1  0  0  0  0
 17 32  1  0  0  0  0
 18 19  1  0  0  0  0
 18 33  1  0  0  0  0
 18 34  1  0  0  0  0
 19 20  2  0  0  0  0
 19 35  1  0  0  0  0
 20 21  1  0  0  0  0
 20 22  1  0  0  0  0
 21 37  1  0  0  0  0
 21 38  1  0  0  0  0
 21 42  1  0  0  0  0
 22 39  1  0  0  0  0
 22 40  1  0  0  0  0
 22 41  1  0  0  0  0
M  END
> <PUBCHEM_COMPOUND_CID>
135398674

> <PUBCHEM_CONFORMER_RMSD>
0.8

> <PUBCHEM_CONFORMER_DIVERSEORDER>
1
62
160
133
189
278
186
28
157
250
279
159
235
248
194
183
54
156
220
182
207
129
236
247
146
258
162
153
170
191
43
262
227
166
161
100
266
202
231
172
179
275
112
241
187
123
264
282
192
181
175
110
206
165
21
38
199
126
201
203
132
198
69
232
35
269
257
281
211
139
193
234
115
252
94
238
249
155
270
103
46
251
59
144
214
104
276
271
158
77
61
130
219
265
97
273
267
118
17
83
163
226
237
246
105
141
242
48
259
78
47
239
147
143
98
107
274
148
121
74
233
151
39
42
212
217
116
71
210
18
230
244
125
204
23
255
167
136
178
168
131
208
120
243
142
53
164
221
272
96
22
137
13
256
114
8
111
197
49
117
184
171
228
58
32
101
80
67
109
102
213
254
14
268
135
134
40
223
225
60
16
196
84
29
31
240
277
90
154
88
152
45
91
245
34
260
6
70
127
5
87
124
169
76
209
188
106
44
51
41
89
25
224
205
50
26
176
82
63
68
19
261
10
2
66
195
57
85
200
75
93
86
138
15
12
119
174
36
81
180
185
33
37
190
149
27
11
263
64
65
253
140
92
280
128
52
113
55
24
145
215
218
177
73
173
3
95
150
99
4
9
222
30
108
56
20
72
79
229
216
7
122

> <PUBCHEM_MMFF94_PARTIAL_CHARGES>
28
1 -0.65
11 0.33
12 0.31
13 -0.24
14 0.44
15 0.75
16 0.66
17 0.04
18 0.38
19 -0.29
2 -0.57
20 -0.28
21 0.14
22 0.14
28 0.06
29 0.27
3 -0.5
30 0.36
31 0.36
32 0.15
35 0.15
36 0.5
4 0.03
5 -0.57
6 -0.99
7 -0.66
8 -0.7
9 0.37

> <PUBCHEM_EFFECTIVE_ROTOR_COUNT>
6

> <PUBCHEM_PHARMACOPHORE_FEATURES>
12
1 1 acceptor
1 2 acceptor
1 4 donor
1 6 cation
1 6 donor
3 1 2 16 anion
3 20 21 22 hydrophobe
3 3 7 14 cation
3 4 5 17 cation
3 7 8 15 cation
5 4 5 12 13 17 rings
6 3 7 12 13 14 15 rings

> <PUBCHEM_HEAVY_ATOM_COUNT>
22

> <PUBCHEM_ATOM_DEF_STEREO_COUNT>
0

> <PUBCHEM_ATOM_UDEF_STEREO_COUNT>
1

> <PUBCHEM_BOND_DEF_STEREO_COUNT>
0

> <PUBCHEM_BOND_UDEF_STEREO_COUNT>
0

> <PUBCHEM_ISOTOPIC_ATOM_COUNT>
0

> <PUBCHEM_COMPONENT_COUNT>
1

> <PUBCHEM_CACTVS_TAUTO_COUNT>
-1

> <PUBCHEM_CONFORMER_ID>
0812051200000001

> <PUBCHEM_MMFF94_ENERGY>
34.8434

> <PUBCHEM_FEATURE_SELFOVERLAP>
61.208

> <PUBCHEM_SHAPE_FINGERPRINT>
10411042 1 17760652868544185379
11646440 116 18343310279138858456
12293681 160 17988360373382168385
13288520 33 9871750191258315307
13533116 47 18270679767377493834
13583140 156 16950288428863994713
13631057 29 18271522087805156527
13740256 8 10447917373999548045
14123256 10 18408601474983173269
15849732 13 17676209087108157148
15927050 60 18408040715052948034
173720 79 17967525775229767970
18006028 8 9223230732483673378
20554085 129 18130207295399161018
21054139 6 18411131468123526327
21236236 1 18338799026048454151
22182313 1 18194712364918804318
22224240 67 18408605864329038313
2297311 6 8935006992747283704
23035841 295 11743841361141860092
23352939 185 13902187106145556898
23402539 116 18413668024005068796
23536379 177 16200437952951339916
23559900 14 18343026601919324356
23622692 88 17748827432250285020
25147074 1 18261656139266619754
2838139 119 17822009817476841188
2916195 48 18272085002560283784
293599 30 18408886222292569916
314173 85 8935002594009766916
335352 9 18408888460529759276
3545911 37 18409732859600169444
3759504 43 17967537899432276050
4325135 7 18411698794827652021
4340502 62 18410857642472786262
474229 33 18334296470160933391
5104073 3 18115594721425606393
5385378 56 18263369096698558282
53917941 68 18339911692886465686
559249 180 18333449863931117338
5758199 1 18413112740784548633
58779409 54 18268992157813433654
59755656 215 18410299073903160142
59755656 520 18335133211294905046

> <PUBCHEM_SHAPE_MULTIPOLES>
411.13
16.56
2.34
0.88
13.8
1.75
-0.03
-8.32
0.95
-1.6
-0.33
0.12
-0.15
0.35

> <PUBCHEM_SHAPE_SELFOVERLAP>
857.487

> <PUBCHEM_SHAPE_VOLUME>
232.4

> <PUBCHEM_COORDINATE_TYPE>
2
5
10

$$$$
