135398641
  -OEChem-03292013293D

 31 33  0     1  0  0  0  0  0999 V2000
    2.0418    0.5031    0.9790 O   0  0  0  0  0  0  0  0  0  0  0  0
    1.2061   -2.2593   -1.1775 O   0  0  0  0  0  0  0  0  0  0  0  0
    3.4486   -2.1193    0.4112 O   0  0  0  0  0  0  0  0  0  0  0  0
    3.7819    2.6090    0.3557 O   0  0  0  0  0  0  0  0  0  0  0  0
   -4.5999    1.3539   -0.4190 O   0  0  0  0  0  0  0  0  0  0  0  0
   -0.2458    0.2750    0.1590 N   0  0  0  0  0  0  0  0  0  0  0  0
   -1.6809    1.9081   -0.3692 N   0  0  0  0  0  0  0  0  0  0  0  0
   -1.7846   -1.5579    0.5440 N   0  0  0  0  0  0  0  0  0  0  0  0
   -4.0510   -0.8292    0.1999 N   0  0  0  0  0  0  0  0  0  0  0  0
    1.7128   -0.9859   -0.8309 C   0  0  1  0  0  0  0  0  0  0  0  0
    1.0719   -0.4120    0.4285 C   0  0  1  0  0  0  0  0  0  0  0  0
    3.1800   -1.0152   -0.4517 C   0  0  1  0  0  0  0  0  0  0  0  0
    3.3267    0.2641    0.3623 C   0  0  1  0  0  0  0  0  0  0  0  0
    3.6798    1.4761   -0.4888 C   0  0  0  0  0  0  0  0  0  0  0  0
   -1.4913   -0.2767    0.2230 C   0  0  0  0  0  0  0  0  0  0  0  0
   -0.4121    1.5903   -0.2007 C   0  0  0  0  0  0  0  0  0  0  0  0
   -2.3485    0.7485   -0.1060 C   0  0  0  0  0  0  0  0  0  0  0  0
   -3.7675    0.5019   -0.1347 C   0  0  0  0  0  0  0  0  0  0  0  0
   -3.0680   -1.7741    0.5161 C   0  0  0  0  0  0  0  0  0  0  0  0
    1.5574   -0.3112   -1.6817 H   0  0  0  0  0  0  0  0  0  0  0  0
    0.8536   -1.1791    1.1811 H   0  0  0  0  0  0  0  0  0  0  0  0
    3.8500   -1.0910   -1.3129 H   0  0  0  0  0  0  0  0  0  0  0  0
    4.0510    0.1606    1.1783 H   0  0  0  0  0  0  0  0  0  0  0  0
    2.9041    1.6860   -1.2318 H   0  0  0  0  0  0  0  0  0  0  0  0
    4.6373    1.3297   -0.9980 H   0  0  0  0  0  0  0  0  0  0  0  0
    1.7408   -2.5941   -1.9173 H   0  0  0  0  0  0  0  0  0  0  0  0
    4.3891   -2.0756    0.6550 H   0  0  0  0  0  0  0  0  0  0  0  0
    0.4229    2.2656   -0.3275 H   0  0  0  0  0  0  0  0  0  0  0  0
    4.0102    3.3675   -0.2082 H   0  0  0  0  0  0  0  0  0  0  0  0
   -3.4898   -2.7637    0.7508 H   0  0  0  0  0  0  0  0  0  0  0  0
   -5.0240   -1.1213    0.2123 H   0  0  0  0  0  0  0  0  0  0  0  0
  1 11  1  0  0  0  0
  1 13  1  0  0  0  0
  2 10  1  0  0  0  0
  2 26  1  0  0  0  0
  3 12  1  0  0  0  0
  3 27  1  0  0  0  0
  4 14  1  0  0  0  0
  4 29  1  0  0  0  0
  5 18  2  0  0  0  0
  6 11  1  0  0  0  0
  6 15  1  0  0  0  0
  6 16  1  0  0  0  0
  7 16  2  0  0  0  0
  7 17  1  0  0  0  0
  8 15  1  0  0  0  0
  8 19  2  0  0  0  0
  9 18  1  0  0  0  0
  9 19  1  0  0  0  0
  9 31  1  0  0  0  0
 10 11  1  0  0  0  0
 10 12  1  0  0  0  0
 10 20  1  0  0  0  0
 11 21  1  0  0  0  0
 12 13  1  0  0  0  0
 12 22  1  0  0  0  0
 13 14  1  0  0  0  0
 13 23  1  0  0  0  0
 14 24  1  0  0  0  0
 14 25  1  0  0  0  0
 15 17  2  0  0  0  0
 16 28  1  0  0  0  0
 17 18  1  0  0  0  0
 19 30  1  0  0  0  0
M  END
> <PUBCHEM_COMPOUND_CID>
135398641

> <PUBCHEM_CONFORMER_RMSD>
0.6

> <PUBCHEM_CONFORMER_DIVERSEORDER>
1
12
14
10
6
7
5
15
13
11
2
16
8
3
4
9

> <PUBCHEM_MMFF94_PARTIAL_CHARGES>
25
1 -0.56
10 0.28
11 0.54
12 0.28
13 0.28
14 0.28
15 -0.03
16 0.04
17 0.14
18 0.72
19 0.45
2 -0.68
26 0.4
27 0.4
28 0.15
29 0.4
3 -0.68
30 0.06
31 0.37
4 -0.68
5 -0.57
6 0.05
7 -0.57
8 -0.58
9 -0.49

> <PUBCHEM_EFFECTIVE_ROTOR_COUNT>
3

> <PUBCHEM_PHARMACOPHORE_FEATURES>
13
1 1 acceptor
1 2 acceptor
1 2 donor
1 3 acceptor
1 3 donor
1 4 acceptor
1 4 donor
1 5 acceptor
1 9 donor
3 6 7 16 cation
5 1 10 11 12 13 rings
5 6 7 15 16 17 rings
6 8 9 15 17 18 19 rings

> <PUBCHEM_HEAVY_ATOM_COUNT>
19

> <PUBCHEM_ATOM_DEF_STEREO_COUNT>
4

> <PUBCHEM_ATOM_UDEF_STEREO_COUNT>
0

> <PUBCHEM_BOND_DEF_STEREO_COUNT>
0

> <PUBCHEM_BOND_UDEF_STEREO_COUNT>
0

> <PUBCHEM_ISOTOPIC_ATOM_COUNT>
0

> <PUBCHEM_COMPONENT_COUNT>
1

> <PUBCHEM_CACTVS_TAUTO_COUNT>
-1

> <PUBCHEM_CONFORMER_ID>
081204F100000001

> <PUBCHEM_MMFF94_ENERGY>
45.0671

> <PUBCHEM_FEATURE_SELFOVERLAP>
66.128

> <PUBCHEM_SHAPE_FINGERPRINT>
10608611 8 18410291389257133844
10616163 171 18339645636852974847
107287 299 17989211460038560846
11132069 177 18335699463898510313
11578080 2 16662021713410625820
12633257 1 18268153054389447018
13214271 11 18338794623653741117
13296908 3 18408042918211856195
13675066 3 17748833994807364761
15196674 1 18408886239535690667
15219456 202 18412827992620609051
15375358 24 18410572890304068839
15375462 6 18408888460086484798
15536298 74 18409451396817666972
16945 1 18124608487289618758
18175812 5 18411700976038113414
18186145 218 17530679892355342975
200 152 17417802899361597351
20201158 50 18200032837292361679
20279233 1 18341615884660021935
20510252 161 18411420588237021345
20528008 55 18411417293659124525
20645477 56 18187929448149310181
20645477 70 18272932687201671679
21501502 16 18341337690906320352
221490 88 18409738352557847122
23402539 116 18334849494075902519
23557571 272 18262812863804767406
23559900 14 18338231570811216538
296302 2 18341615936204702861
474 4 17023476377117164724
495365 180 17774421833287359881
5104073 3 18407762534204195401
58051976 378 18343021090701063940
69090 78 18340762650904966271
7364860 26 18411136914336924216
81228 2 18188788132154638945
8809292 202 18336268950776455363
9709674 26 18341053999716370807

> <PUBCHEM_SHAPE_MULTIPOLES>
341.74
8.11
2.34
0.82
1.8
0.07
0.06
1.32
-0.03
-1.06
0.15
-0.29
-0.17
0.72

> <PUBCHEM_SHAPE_SELFOVERLAP>
743.268

> <PUBCHEM_SHAPE_VOLUME>
184.6

> <PUBCHEM_COORDINATE_TYPE>
2
5
10

$$$$
