135481901
  -OEChem-03292013293D

 41 42  0     0  0  0  0  0  0999 V2000
   -5.0973    1.4474   -0.8720 S   0  0  0  0  0  0  0  0  0  0  0  0
    1.1425   -1.0036   -1.0614 S   0  0  0  0  0  0  0  0  0  0  0  0
    4.1840    1.8290    1.7584 S   0  0  0  0  0  0  0  0  0  0  0  0
   -6.0744    0.9077   -1.8031 O   0  0  0  0  0  0  0  0  0  0  0  0
   -4.9037    2.8866   -0.8148 O   0  0  0  0  0  0  0  0  0  0  0  0
   -3.7460   -0.7917    0.5299 N   0  0  0  0  0  0  0  0  0  0  0  0
   -3.5910    0.7636   -1.2834 N   0  0  0  0  0  0  0  0  0  0  0  0
   -1.9004   -0.7903   -1.0662 N   0  0  0  0  0  0  0  0  0  0  0  0
   -5.4727    0.9248    0.6220 N   0  0  0  0  0  0  0  0  0  0  0  0
   -5.1695   -0.4833    2.4143 N   0  0  0  0  0  0  0  0  0  0  0  0
    4.1257   -0.3577    0.3812 N   0  0  0  0  0  0  0  0  0  0  0  0
    6.2094    0.7870    0.4289 N   0  0  0  0  0  0  0  0  0  0  0  0
    5.9319   -0.3418   -1.6849 N   0  0  0  0  0  0  0  0  0  0  0  0
    7.9897    0.4537   -1.1019 N   0  0  0  0  0  0  0  0  0  0  0  0
   -3.0178   -0.3437   -0.5895 C   0  0  0  0  0  0  0  0  0  0  0  0
   -1.3455   -1.9182   -0.3346 C   0  0  0  0  0  0  0  0  0  0  0  0
   -4.8159   -0.0849    1.1426 C   0  0  0  0  0  0  0  0  0  0  0  0
   -0.0618   -2.3599   -1.0195 C   0  0  0  0  0  0  0  0  0  0  0  0
   -3.3346   -2.0896    1.1055 C   0  0  0  0  0  0  0  0  0  0  0  0
    1.8002   -1.1832    0.6128 C   0  0  0  0  0  0  0  0  0  0  0  0
    2.8665   -0.1668    0.9156 C   0  0  0  0  0  0  0  0  0  0  0  0
    2.7053    0.9629    1.6900 C   0  0  0  0  0  0  0  0  0  0  0  0
    4.9024    0.6331    0.7593 C   0  0  0  0  0  0  0  0  0  0  0  0
    6.6731    0.3189   -0.7292 C   0  0  0  0  0  0  0  0  0  0  0  0
   -1.0526   -1.6612    0.6827 H   0  0  0  0  0  0  0  0  0  0  0  0
   -1.9124   -2.8328   -0.4834 H   0  0  0  0  0  0  0  0  0  0  0  0
   -3.1031    1.1268   -2.1115 H   0  0  0  0  0  0  0  0  0  0  0  0
    0.3730   -3.2371   -0.5287 H   0  0  0  0  0  0  0  0  0  0  0  0
   -0.2678   -2.6367   -2.0599 H   0  0  0  0  0  0  0  0  0  0  0  0
   -3.4157   -2.9114    0.3923 H   0  0  0  0  0  0  0  0  0  0  0  0
   -4.1215   -2.4568    1.7794 H   0  0  0  0  0  0  0  0  0  0  0  0
   -2.4841   -2.0450    1.7871 H   0  0  0  0  0  0  0  0  0  0  0  0
    2.2304   -2.1846    0.7241 H   0  0  0  0  0  0  0  0  0  0  0  0
    0.9925   -1.0825    1.3443 H   0  0  0  0  0  0  0  0  0  0  0  0
   -5.9443   -0.0271    2.8854 H   0  0  0  0  0  0  0  0  0  0  0  0
   -4.5515   -1.0196    3.0121 H   0  0  0  0  0  0  0  0  0  0  0  0
    1.8205    1.3132    2.2025 H   0  0  0  0  0  0  0  0  0  0  0  0
    8.6595    0.9198   -0.4996 H   0  0  0  0  0  0  0  0  0  0  0  0
    8.3300    0.0928   -1.9864 H   0  0  0  0  0  0  0  0  0  0  0  0
    4.9407   -0.5217   -1.5704 H   0  0  0  0  0  0  0  0  0  0  0  0
    6.3599   -0.6693   -2.5442 H   0  0  0  0  0  0  0  0  0  0  0  0
  1  4  2  0  0  0  0
  1  5  2  0  0  0  0
  1  7  1  0  0  0  0
  1  9  1  0  0  0  0
  2 18  1  0  0  0  0
  2 20  1  0  0  0  0
  3 22  1  0  0  0  0
  3 23  1  0  0  0  0
  6 15  1  0  0  0  0
  6 17  1  0  0  0  0
  6 19  1  0  0  0  0
  7 15  1  0  0  0  0
  7 27  1  0  0  0  0
  8 15  2  0  0  0  0
  8 16  1  0  0  0  0
  9 17  2  0  0  0  0
 10 17  1  0  0  0  0
 10 35  1  0  0  0  0
 10 36  1  0  0  0  0
 11 21  1  0  0  0  0
 11 23  2  0  0  0  0
 12 23  1  0  0  0  0
 12 24  2  0  0  0  0
 13 24  1  0  0  0  0
 13 40  1  0  0  0  0
 13 41  1  0  0  0  0
 14 24  1  0  0  0  0
 14 38  1  0  0  0  0
 14 39  1  0  0  0  0
 16 18  1  0  0  0  0
 16 25  1  0  0  0  0
 16 26  1  0  0  0  0
 18 28  1  0  0  0  0
 18 29  1  0  0  0  0
 19 30  1  0  0  0  0
 19 31  1  0  0  0  0
 19 32  1  0  0  0  0
 20 21  1  0  0  0  0
 20 33  1  0  0  0  0
 20 34  1  0  0  0  0
 21 22  2  0  0  0  0
 22 37  1  0  0  0  0
M  END
> <PUBCHEM_COMPOUND_CID>
135481901

> <PUBCHEM_CONFORMER_RMSD>
0.8

> <PUBCHEM_CONFORMER_DIVERSEORDER>
4
246
95
360
133
224
114
243
217
289
314
175
161
61
281
60
261
215
323
163
167
283
17
232
139
362
191
254
79
29
282
220
214
295
266
213
312
346
280
317
96
159
285
313
54
107
311
3
252
123
348
288
255
258
16
11
49
329
149
228
363
2
327
180
52
344
47
206
116
155
120
57
318
131
343
18
244
176
270
184
30
355
307
125
286
106
351
105
76
279
342
268
183
21
28
193
62
19
257
130
349
337
7
308
153
90
339
353
201
140
359
147
242
111
276
356
33
81
241
338
35
39
23
364
38
14
218
142
88
248
36
25
198
275
291
104
189
122
221
358
336
290
150
59
128
298
171
20
112
58
230
204
310
127
284
186
303
126
340
203
91
124
50
325
195
194
129
305
148
12
306
172
31
110
277
208
82
207
292
158
97
368
69
8
301
287
188
100
152
115
264
119
234
15
238
145
117
26
263
300
68
328
319
212
51
200
34
134
253
70
256
366
144
137
72
260
71
269
251
74
350
53
118
332
141
83
73
13
108
170
86
227
64
272
240
1
43
164
341
196
294
80
273
162
231
48
37
278
103
85
173
219
181
63
157
333
109
239
65
177
210
361
135
347
84
271
40
296
223
331
89
316
10
102
245
309
365
67
304
166
199
75
330
32
357
143
187
250
345
9
87
45
322
209
236
216
113
92
93
321
235
78
192
202
168
267
299
259
27
77
66
367
6
5
185
211
190
315
302
132
24
265
22
138
56
335
55
205
237
320
169
146
247
44
222
156
174
99
41
262
165
249
326
160
324
154
98
354
297
151
233
352
182
121
42
101
226
229
94
46
334
225
178
136
274
293
179
197

> <PUBCHEM_MMFF94_PARTIAL_CHARGES>
32
1 1.63
10 -0.85
11 -0.57
12 -0.58
13 -0.85
14 -0.85
15 0.74
16 0.25
17 0.55
18 0.23
19 0.37
2 -0.46
20 0.41
21 0.05
22 -0.11
23 0.5
24 0.55
27 0.42
3 -0.08
35 0.4
36 0.4
37 0.15
38 0.4
39 0.4
4 -0.65
40 0.4
41 0.4
5 -0.65
6 -0.47
7 -0.79
8 -0.7
9 -0.64

> <PUBCHEM_EFFECTIVE_ROTOR_COUNT>
6.4

> <PUBCHEM_PHARMACOPHORE_FEATURES>
8
1 10 donor
1 13 donor
1 14 donor
1 7 donor
1 9 donor
4 12 13 14 24 cation
5 3 11 21 22 23 rings
6 1 6 7 9 15 17 rings

> <PUBCHEM_HEAVY_ATOM_COUNT>
24

> <PUBCHEM_ATOM_DEF_STEREO_COUNT>
0

> <PUBCHEM_ATOM_UDEF_STEREO_COUNT>
0

> <PUBCHEM_BOND_DEF_STEREO_COUNT>
0

> <PUBCHEM_BOND_UDEF_STEREO_COUNT>
0

> <PUBCHEM_ISOTOPIC_ATOM_COUNT>
0

> <PUBCHEM_COMPONENT_COUNT>
1

> <PUBCHEM_CACTVS_TAUTO_COUNT>
-1

> <PUBCHEM_CONFORMER_ID>
08134A2D00000004

> <PUBCHEM_MMFF94_ENERGY>
88.1341

> <PUBCHEM_FEATURE_SELFOVERLAP>
40.712

> <PUBCHEM_SHAPE_FINGERPRINT>
10066227 112 18271524299581639888
10613725 11 15985109613132102194
10670039 82 16917351411455601593
10763959 59 18343298176290088028
12166972 35 13614231612006014418
12596602 18 16443063889539004848
12633257 1 16443062785980160719
13103583 49 15864069854166266283
14251751 18 10303803306941811481
14341114 328 16877937230998537152
14647877 103 17821731593832422276
14765038 42 14996284699737414144
14848160 23 9511464416266572742
14848178 5 9079121085063160248
14856354 85 17386009519764645914
14951699 99 17604427397168616125
15052358 14 17918278662675828566
15183329 4 17275105016365791830
17780758 139 15430038760388698489
190975 80 12035741915644041244
19377110 9 14706928432437651358
21033648 29 18341882035224842048
21279426 13 17846500370292620082
21315763 178 13984657040675059961
21365058 27 16950569904716704626
23198884 109 15769772468434624815
23559900 14 17059771247940176354
2838139 119 18271509932166558765
314194 84 12685095881990052626
3459 83 16630537219592796886
3663271 9 16298103190096111024
59682541 35 11530486658201562798
59682541 52 16271923779626107684
59755656 215 18202283572528839340
59755656 520 17704076222168107631
9689198 14 17894357692086507212
9862886 166 10159694707366867072

> <PUBCHEM_SHAPE_MULTIPOLES>
448.89
19.5
2.16
1.85
15.15
0.03
0.12
8.01
-5.37
-0.76
0
-2.01
0.37
2.59

> <PUBCHEM_SHAPE_SELFOVERLAP>
887.76

> <PUBCHEM_SHAPE_VOLUME>
267.2

> <PUBCHEM_COORDINATE_TYPE>
2
5
10

$$$$
