135493712
  -OEChem-03292013293D

 36 38  0     1  0  0  0  0  0999 V2000
    1.9381   -0.0643    1.0440 O   0  0  0  0  0  0  0  0  0  0  0  0
    2.5268    0.4993   -1.8407 O   0  0  0  0  0  0  0  0  0  0  0  0
    1.5623   -2.7741   -0.6791 O   0  0  0  0  0  0  0  0  0  0  0  0
    4.3922    1.0027    1.8537 O   0  0  0  0  0  0  0  0  0  0  0  0
   -4.3404    2.1784   -0.4236 O   0  0  0  0  0  0  0  0  0  0  0  0
   -0.3119    0.2160    0.1548 N   0  0  0  0  0  0  0  0  0  0  0  0
   -1.3726    2.1300   -0.3071 N   0  0  0  0  0  0  0  0  0  0  0  0
   -2.1945   -1.2821    0.4201 N   0  0  0  0  0  0  0  0  0  0  0  0
   -4.2509   -0.0991    0.0847 N   0  0  0  0  0  0  0  0  0  0  0  0
   -4.2549   -2.3978    0.5938 N   0  0  0  0  0  0  0  0  0  0  0  0
    3.1459   -0.3756    0.3309 C   0  0  1  0  0  0  0  0  0  0  0  0
    2.7129   -0.6962   -1.0934 C   0  0  1  0  0  0  0  0  0  0  0  0
    1.3738   -1.3749   -0.8807 C   0  0  2  0  0  0  0  0  0  0  0  0
    0.8346   -0.7389    0.4068 C   0  0  1  0  0  0  0  0  0  0  0  0
    4.1230    0.7775    0.4721 C   0  0  2  0  0  0  0  0  0  0  0  0
   -1.6445   -0.0729    0.1716 C   0  0  0  0  0  0  0  0  0  0  0  0
    5.4353    0.5057   -0.2505 C   0  0  0  0  0  0  0  0  0  0  0  0
   -0.1989    1.5534   -0.1377 C   0  0  0  0  0  0  0  0  0  0  0  0
   -2.2663    1.1184   -0.1146 C   0  0  0  0  0  0  0  0  0  0  0  0
   -3.7011    1.1640   -0.1758 C   0  0  0  0  0  0  0  0  0  0  0  0
   -3.5089   -1.2696    0.3706 C   0  0  0  0  0  0  0  0  0  0  0  0
    3.5508   -1.2744    0.8144 H   0  0  0  0  0  0  0  0  0  0  0  0
    3.4480   -1.3225   -1.6086 H   0  0  0  0  0  0  0  0  0  0  0  0
    0.6946   -1.2528   -1.7312 H   0  0  0  0  0  0  0  0  0  0  0  0
    0.4424   -1.4773    1.1156 H   0  0  0  0  0  0  0  0  0  0  0  0
    3.6739    1.7047    0.0981 H   0  0  0  0  0  0  0  0  0  0  0  0
    5.9144   -0.3996    0.1384 H   0  0  0  0  0  0  0  0  0  0  0  0
    6.1405    1.3273   -0.0832 H   0  0  0  0  0  0  0  0  0  0  0  0
    5.2952    0.3930   -1.3291 H   0  0  0  0  0  0  0  0  0  0  0  0
    2.2056    0.2448   -2.7225 H   0  0  0  0  0  0  0  0  0  0  0  0
    0.6881   -3.1620   -0.5030 H   0  0  0  0  0  0  0  0  0  0  0  0
    0.7576    2.0520   -0.2132 H   0  0  0  0  0  0  0  0  0  0  0  0
    5.0007    1.7586    1.9163 H   0  0  0  0  0  0  0  0  0  0  0  0
   -5.2635   -0.1798    0.0666 H   0  0  0  0  0  0  0  0  0  0  0  0
   -3.8132   -3.2857    0.8061 H   0  0  0  0  0  0  0  0  0  0  0  0
   -5.2680   -2.3786    0.5534 H   0  0  0  0  0  0  0  0  0  0  0  0
  1 11  1  0  0  0  0
  1 14  1  0  0  0  0
  2 12  1  0  0  0  0
  2 30  1  0  0  0  0
  3 13  1  0  0  0  0
  3 31  1  0  0  0  0
  4 15  1  0  0  0  0
  4 33  1  0  0  0  0
  5 20  2  0  0  0  0
  6 14  1  0  0  0  0
  6 16  1  0  0  0  0
  6 18  1  0  0  0  0
  7 18  2  0  0  0  0
  7 19  1  0  0  0  0
  8 16  1  0  0  0  0
  8 21  2  0  0  0  0
  9 20  1  0  0  0  0
  9 21  1  0  0  0  0
  9 34  1  0  0  0  0
 10 21  1  0  0  0  0
 10 35  1  0  0  0  0
 10 36  1  0  0  0  0
 11 12  1  0  0  0  0
 11 15  1  0  0  0  0
 11 22  1  0  0  0  0
 12 13  1  0  0  0  0
 12 23  1  0  0  0  0
 13 14  1  0  0  0  0
 13 24  1  0  0  0  0
 14 25  1  0  0  0  0
 15 17  1  0  0  0  0
 15 26  1  0  0  0  0
 16 19  2  0  0  0  0
 17 27  1  0  0  0  0
 17 28  1  0  0  0  0
 17 29  1  0  0  0  0
 18 32  1  0  0  0  0
 19 20  1  0  0  0  0
M  END
> <PUBCHEM_COMPOUND_CID>
135493712

> <PUBCHEM_CONFORMER_RMSD>
0.6

> <PUBCHEM_CONFORMER_DIVERSEORDER>
1
311
282
162
242
276
101
315
58
222
48
8
274
279
266
258
91
273
149
160
196
59
65
312
90
232
25
313
24
81
309
135
54
198
138
255
183
36
166
307
213
288
199
51
5
260
13
131
195
192
53
143
23
236
224
161
191
112
41
7
141
243
120
234
215
165
231
103
6
169
137
39
278
228
145
252
20
304
264
10
15
181
275
30
136
254
280
69
168
212
308
170
240
214
291
100
106
64
257
209
316
52
38
314
277
177
223
82
9
301
172
221
144
125
139
49
134
244
140
292
187
190
104
286
105
3
42
203
207
122
303
217
98
32
96
285
302
237
205
75
123
229
29
40
201
171
267
146
102
2
289
50
251
77
16
250
11
22
219
126
208
147
72
31
86
265
117
118
256
178
263
60
164
247
14
4
87
271
270
19
159
110
70
84
202
119
27
262
85
296
26
79
298
287
99
204
127
261
78
259
88
216
306
157
185
269
12
17
35
107
186
109
188
182
211
37
233
283
246
245
129
179
184
238
18
167
21
63
230
300
248
241
175
272
150
33
220
155
57
44
194
200
218
180
46
197
34
174
305
61
189
156
239
225
43
93
56
89
71
55
68
148
133
111
299
284
132
97
62
158
154
76
142
163
28
67
297
176
281
293
45
226
128
116
151
95
253
249
193
115
153
290
108
47
92
66
310
121
130
227
83
124
73
210
94
80
268
173
114
113
74
294
295
152
206
235

> <PUBCHEM_MMFF94_PARTIAL_CHARGES>
27
1 -0.56
10 -0.85
11 0.28
12 0.28
13 0.28
14 0.54
15 0.28
16 -0.03
18 0.04
19 0.14
2 -0.68
20 0.72
21 0.56
3 -0.68
30 0.4
31 0.4
32 0.15
33 0.4
34 0.37
35 0.4
36 0.4
4 -0.68
5 -0.57
6 0.05
7 -0.57
8 -0.58
9 -0.49

> <PUBCHEM_EFFECTIVE_ROTOR_COUNT>
3

> <PUBCHEM_PHARMACOPHORE_FEATURES>
14
1 1 acceptor
1 10 donor
1 2 acceptor
1 2 donor
1 3 acceptor
1 3 donor
1 4 acceptor
1 4 donor
1 5 acceptor
1 9 donor
3 6 7 18 cation
5 1 11 12 13 14 rings
5 6 7 16 18 19 rings
6 8 9 16 19 20 21 rings

> <PUBCHEM_HEAVY_ATOM_COUNT>
21

> <PUBCHEM_ATOM_DEF_STEREO_COUNT>
0

> <PUBCHEM_ATOM_UDEF_STEREO_COUNT>
5

> <PUBCHEM_BOND_DEF_STEREO_COUNT>
0

> <PUBCHEM_BOND_UDEF_STEREO_COUNT>
0

> <PUBCHEM_ISOTOPIC_ATOM_COUNT>
0

> <PUBCHEM_COMPONENT_COUNT>
1

> <PUBCHEM_CACTVS_TAUTO_COUNT>
-1

> <PUBCHEM_CONFORMER_ID>
0813785000000001

> <PUBCHEM_MMFF94_ENERGY>
49.5105

> <PUBCHEM_FEATURE_SELFOVERLAP>
71.233

> <PUBCHEM_SHAPE_FINGERPRINT>
10062212 137 17821731654215054333
10319926 262 18338218389872889194
10366900 7 17917417705894646857
10498660 4 18410578348843804157
10646746 165 18410292493322042348
11132069 177 18334579018700282365
12173636 292 18118964694489678773
12236239 1 17240199936840467986
12403259 415 18131068277491457152
12553582 1 18193009316503145791
13134695 92 14345792760294886174
13140716 1 17978798140273882035
13214271 11 18412257346344223829
13224815 77 18412270510118292514
14178342 30 18408889499083630489
14341114 328 17967809449171926536
14866123 147 11029396233216825996
15099037 37 18336262431184703683
15196674 1 18409730634026654578
15219456 202 18272369741521910394
15375358 24 18341044142818757977
15788980 27 15719388430170366579
16988056 13 14798368943136815677
17349148 13 17530685428736986274
17980427 23 17894916264803797908
18186145 218 16916781920826066370
192875 21 16805605888735689348
19784866 170 18412263925954533298
20279233 1 18343022164215930531
20645477 56 18335703789500432361
20645477 70 17417529094821931606
20715895 44 17679007211089256733
21079973 296 18410575106359474587
23402539 116 18259981587251542606
23557571 272 18411144649034960674
23559900 14 18338801087732710414
296302 2 18343862195378785461
34934 24 18336541630108094821
3545911 37 18410015390316122981
495365 180 17630307659066346131
5104073 3 18339924818280129546
573450 72 17894622656338675833
633830 44 16414933958410644015
7364860 26 18125721189010296494
9709674 26 18268995293403089599

> <PUBCHEM_SHAPE_MULTIPOLES>
377.92
9.77
2.17
1.08
1.96
0.57
0.02
-1.4
-1.19
-1.91
0.2
1.2
-0.04
1.22

> <PUBCHEM_SHAPE_SELFOVERLAP>
817.373

> <PUBCHEM_SHAPE_VOLUME>
206.3

> <PUBCHEM_COORDINATE_TYPE>
2
5
10

$$$$
