135401234
  -OEChem-03292013293D

 46 47  0     0  0  0  0  0  0999 V2000
    5.1485    2.6337   -0.0007 O   0  0  0  0  0  0  0  0  0  0  0  0
   -5.1511   -2.6337   -0.0006 O   0  0  0  0  0  0  0  0  0  0  0  0
    6.2023   -2.0384    0.0011 O   0  0  0  0  0  0  0  0  0  0  0  0
   -6.2027    2.0389    0.0012 O   0  0  0  0  0  0  0  0  0  0  0  0
    7.0331    0.6037   -0.0041 O   0  0  0  0  0  0  0  0  0  0  0  0
   -7.0347   -0.6028   -0.0040 O   0  0  0  0  0  0  0  0  0  0  0  0
    0.6333    0.2841    0.0014 N   0  0  0  0  0  0  0  0  0  0  0  0
   -0.6347   -0.2861    0.0014 N   0  0  0  0  0  0  0  0  0  0  0  0
    2.9816   -0.3100    0.0012 C   0  0  0  0  0  0  0  0  0  0  0  0
   -2.9828    0.3091    0.0011 C   0  0  0  0  0  0  0  0  0  0  0  0
    4.7570    1.3289   -0.0014 C   0  0  0  0  0  0  0  0  0  0  0  0
   -4.7589   -1.3289   -0.0014 C   0  0  0  0  0  0  0  0  0  0  0  0
    5.2885   -1.0279   -0.0001 C   0  0  0  0  0  0  0  0  0  0  0  0
   -5.2893    1.0281   -0.0001 C   0  0  0  0  0  0  0  0  0  0  0  0
   -5.7045   -0.3035   -0.0012 C   0  0  0  0  0  0  0  0  0  0  0  0
    5.7030    0.3039   -0.0012 C   0  0  0  0  0  0  0  0  0  0  0  0
    3.3963    1.0219   -0.0002 C   0  0  0  0  0  0  0  0  0  0  0  0
   -3.3981   -1.0226   -0.0003 C   0  0  0  0  0  0  0  0  0  0  0  0
    3.9278   -1.3349    0.0013 C   0  0  0  0  0  0  0  0  0  0  0  0
   -3.9284    1.3343    0.0012 C   0  0  0  0  0  0  0  0  0  0  0  0
    1.5628   -0.6291    0.0015 C   0  0  0  0  0  0  0  0  0  0  0  0
   -1.5461    0.6315    0.0013 C   0  0  0  0  0  0  0  0  0  0  0  0
    4.1175    3.6194   -0.0009 C   0  0  0  0  0  0  0  0  0  0  0  0
   -4.1205   -3.6198   -0.0009 C   0  0  0  0  0  0  0  0  0  0  0  0
    5.6943   -3.3712    0.0022 C   0  0  0  0  0  0  0  0  0  0  0  0
   -5.6941    3.3715    0.0023 C   0  0  0  0  0  0  0  0  0  0  0  0
    2.6283    1.7869   -0.0002 H   0  0  0  0  0  0  0  0  0  0  0  0
   -2.6302   -1.7876   -0.0003 H   0  0  0  0  0  0  0  0  0  0  0  0
    3.5485   -2.3514    0.0025 H   0  0  0  0  0  0  0  0  0  0  0  0
   -3.5480    2.3503    0.0023 H   0  0  0  0  0  0  0  0  0  0  0  0
    1.2886   -1.7007    0.0018 H   0  0  0  0  0  0  0  0  0  0  0  0
   -1.2778    1.7046    0.0015 H   0  0  0  0  0  0  0  0  0  0  0  0
    7.5355   -0.2296   -0.0040 H   0  0  0  0  0  0  0  0  0  0  0  0
   -7.1314   -1.5710   -0.0050 H   0  0  0  0  0  0  0  0  0  0  0  0
   -3.5141   -3.5711   -0.9118 H   0  0  0  0  0  0  0  0  0  0  0  0
   -3.5140   -3.5714    0.9100 H   0  0  0  0  0  0  0  0  0  0  0  0
   -4.6125   -4.5982   -0.0011 H   0  0  0  0  0  0  0  0  0  0  0  0
    3.5110    3.5704   -0.9118 H   0  0  0  0  0  0  0  0  0  0  0  0
    3.5111    3.5708    0.9100 H   0  0  0  0  0  0  0  0  0  0  0  0
    4.6090    4.5980   -0.0011 H   0  0  0  0  0  0  0  0  0  0  0  0
   -5.1243    3.5874   -0.9080 H   0  0  0  0  0  0  0  0  0  0  0  0
   -5.1248    3.5860    0.9131 H   0  0  0  0  0  0  0  0  0  0  0  0
    5.1252   -3.5860    0.9132 H   0  0  0  0  0  0  0  0  0  0  0  0
    5.1246   -3.5874   -0.9080 H   0  0  0  0  0  0  0  0  0  0  0  0
    6.5580   -4.0444    0.0024 H   0  0  0  0  0  0  0  0  0  0  0  0
   -6.5574    4.0452    0.0025 H   0  0  0  0  0  0  0  0  0  0  0  0
  1 11  1  0  0  0  0
  1 23  1  0  0  0  0
  2 12  1  0  0  0  0
  2 24  1  0  0  0  0
  3 13  1  0  0  0  0
  3 25  1  0  0  0  0
  4 14  1  0  0  0  0
  4 26  1  0  0  0  0
  5 16  1  0  0  0  0
  5 33  1  0  0  0  0
  6 15  1  0  0  0  0
  6 34  1  0  0  0  0
  7  8  1  0  0  0  0
  7 21  2  0  0  0  0
  8 22  2  0  0  0  0
  9 17  2  0  0  0  0
  9 19  1  0  0  0  0
  9 21  1  0  0  0  0
 10 18  2  0  0  0  0
 10 20  1  0  0  0  0
 10 22  1  0  0  0  0
 11 16  2  0  0  0  0
 11 17  1  0  0  0  0
 12 15  2  0  0  0  0
 12 18  1  0  0  0  0
 13 16  1  0  0  0  0
 13 19  2  0  0  0  0
 14 15  1  0  0  0  0
 14 20  2  0  0  0  0
 17 27  1  0  0  0  0
 18 28  1  0  0  0  0
 19 29  1  0  0  0  0
 20 30  1  0  0  0  0
 21 31  1  0  0  0  0
 22 32  1  0  0  0  0
 23 38  1  0  0  0  0
 23 39  1  0  0  0  0
 23 40  1  0  0  0  0
 24 35  1  0  0  0  0
 24 36  1  0  0  0  0
 24 37  1  0  0  0  0
 25 43  1  0  0  0  0
 25 44  1  0  0  0  0
 25 45  1  0  0  0  0
 26 41  1  0  0  0  0
 26 42  1  0  0  0  0
 26 46  1  0  0  0  0
M  END
> <PUBCHEM_COMPOUND_CID>
135401234

> <PUBCHEM_CONFORMER_RMSD>
0.8

> <PUBCHEM_CONFORMER_DIVERSEORDER>
1
9
15
8
5
10
3
7
12
2
6
4
14
11
13

> <PUBCHEM_MMFF94_PARTIAL_CHARGES>
34
1 -0.36
10 0.09
11 0.08
12 0.08
13 0.08
14 0.08
15 0.08
16 0.08
17 -0.15
18 -0.15
19 -0.15
2 -0.36
20 -0.15
21 0.3
22 0.3
23 0.28
24 0.28
25 0.28
26 0.28
27 0.15
28 0.15
29 0.15
3 -0.36
30 0.15
31 0.06
32 0.06
33 0.45
34 0.45
4 -0.36
5 -0.53
6 -0.53
7 -0.45
8 -0.45
9 0.09

> <PUBCHEM_EFFECTIVE_ROTOR_COUNT>
7

> <PUBCHEM_PHARMACOPHORE_FEATURES>
10
1 1 acceptor
1 2 acceptor
1 3 acceptor
1 4 acceptor
1 5 donor
1 6 donor
1 7 acceptor
1 8 acceptor
6 10 12 14 15 18 20 rings
6 9 11 13 16 17 19 rings

> <PUBCHEM_HEAVY_ATOM_COUNT>
26

> <PUBCHEM_ATOM_DEF_STEREO_COUNT>
0

> <PUBCHEM_ATOM_UDEF_STEREO_COUNT>
0

> <PUBCHEM_BOND_DEF_STEREO_COUNT>
2

> <PUBCHEM_BOND_UDEF_STEREO_COUNT>
0

> <PUBCHEM_ISOTOPIC_ATOM_COUNT>
0

> <PUBCHEM_COMPONENT_COUNT>
1

> <PUBCHEM_CACTVS_TAUTO_COUNT>
-1

> <PUBCHEM_CONFORMER_ID>
08120F1200000001

> <PUBCHEM_MMFF94_ENERGY>
105.0261

> <PUBCHEM_FEATURE_SELFOVERLAP>
52.22

> <PUBCHEM_SHAPE_FINGERPRINT>
10411042 1 18194683658670622626
10595046 47 18338516451243097908
10835480 77 18411132532837623973
11315181 36 18187366541424922221
11524674 6 17275100626941403791
11672396 167 18339914927198176583
11719270 70 17917427580093409078
12107183 9 18122626046049124921
12166972 35 18335424573270707932
12236239 1 18410573959381647368
13167372 99 18341050718429947776
13533116 47 18409731755693367026
13785724 45 17910962340527891374
14461889 52 18266453394798255826
14933364 13 18410294704940263829
15183329 4 18410575080368111955
15419008 42 17913770509697426861
17844677 252 18411425011573268417
20281389 69 18335703819428098881
21315763 28 18411135827499201773
23081809 10 17988922284254040717
23536379 177 18410856542459920601
23559900 14 18341886407570465441
23569943 247 17169822267779423050
3004659 81 18335701616141199978
34797466 226 17917160484466433381
4073 2 18114749334201474554
4144715 1 18336273404799595873
4214541 1 18410855452097428869
5104073 3 18334011700575081249
559249 180 18338233765861355543
99344 41 18410570682949763890
999808 66 18041010570353739195

> <PUBCHEM_SHAPE_MULTIPOLES>
489.89
21.84
3.86
0.59
0.04
0
0
0.01
-0.01
0
0
0
0
-0.01

> <PUBCHEM_SHAPE_SELFOVERLAP>
1038.312

> <PUBCHEM_SHAPE_VOLUME>
277.2

> <PUBCHEM_COORDINATE_TYPE>
2
5
10

$$$$
