135433622
  -OEChem-03292013293D

 32 34  0     1  0  0  0  0  0999 V2000
    2.4112    0.7107    1.4205 O   0  0  0  0  0  0  0  0  0  0  0  0
    1.1618   -2.3897   -1.3714 O   0  0  0  0  0  0  0  0  0  0  0  0
    5.2625    0.2833   -0.8591 O   0  0  0  0  0  0  0  0  0  0  0  0
   -4.0096    1.7979   -0.8505 O   0  0  0  0  0  0  0  0  0  0  0  0
    0.1516    0.5846    0.4250 N   0  0  0  0  0  0  0  0  0  0  0  0
   -1.1192    2.2574   -0.3421 N   0  0  0  0  0  0  0  0  0  0  0  0
   -1.4904   -1.1876    0.5750 N   0  0  0  0  0  0  0  0  0  0  0  0
   -3.6371   -0.3926   -0.1318 N   0  0  0  0  0  0  0  0  0  0  0  0
   -3.3536   -2.6195    0.5768 N   0  0  0  0  0  0  0  0  0  0  0  0
    2.2314   -0.5517   -0.2897 C   0  0  1  0  0  0  0  0  0  0  0  0
    1.3281   -0.1136    0.8880 C   0  0  1  0  0  0  0  0  0  0  0  0
    3.3714    0.0237    0.5724 C   0  0  1  0  0  0  0  0  0  0  0  0
    2.2901   -2.0372   -0.5835 C   0  0  0  0  0  0  0  0  0  0  0  0
    4.3070    1.0084   -0.0975 C   0  0  0  0  0  0  0  0  0  0  0  0
   -1.1074    0.0773    0.2929 C   0  0  0  0  0  0  0  0  0  0  0  0
    0.0938    1.8991    0.0307 C   0  0  0  0  0  0  0  0  0  0  0  0
   -1.8610    1.1250   -0.1782 C   0  0  0  0  0  0  0  0  0  0  0  0
   -3.2612    0.9245   -0.4305 C   0  0  0  0  0  0  0  0  0  0  0  0
   -2.7694   -1.3998    0.3529 C   0  0  0  0  0  0  0  0  0  0  0  0
    2.0825    0.0233   -1.2147 H   0  0  0  0  0  0  0  0  0  0  0  0
    1.0912   -0.9040    1.6118 H   0  0  0  0  0  0  0  0  0  0  0  0
    3.9137   -0.7218    1.1693 H   0  0  0  0  0  0  0  0  0  0  0  0
    2.2886   -2.6380    0.3315 H   0  0  0  0  0  0  0  0  0  0  0  0
    3.1908   -2.2766   -1.1579 H   0  0  0  0  0  0  0  0  0  0  0  0
    4.8485    1.5920    0.6540 H   0  0  0  0  0  0  0  0  0  0  0  0
    3.7723    1.6996   -0.7568 H   0  0  0  0  0  0  0  0  0  0  0  0
    0.9619    2.5443    0.0329 H   0  0  0  0  0  0  0  0  0  0  0  0
    1.2270   -3.3427   -1.5530 H   0  0  0  0  0  0  0  0  0  0  0  0
    5.8548    0.9360   -1.2698 H   0  0  0  0  0  0  0  0  0  0  0  0
   -4.6111   -0.6435   -0.2752 H   0  0  0  0  0  0  0  0  0  0  0  0
   -2.8134   -3.4045    0.9240 H   0  0  0  0  0  0  0  0  0  0  0  0
   -4.3407   -2.7733    0.4022 H   0  0  0  0  0  0  0  0  0  0  0  0
  1 11  1  0  0  0  0
  1 12  1  0  0  0  0
  2 13  1  0  0  0  0
  2 28  1  0  0  0  0
  3 14  1  0  0  0  0
  3 29  1  0  0  0  0
  4 18  2  0  0  0  0
  5 11  1  0  0  0  0
  5 15  1  0  0  0  0
  5 16  1  0  0  0  0
  6 16  2  0  0  0  0
  6 17  1  0  0  0  0
  7 15  1  0  0  0  0
  7 19  2  0  0  0  0
  8 18  1  0  0  0  0
  8 19  1  0  0  0  0
  8 30  1  0  0  0  0
  9 19  1  0  0  0  0
  9 31  1  0  0  0  0
  9 32  1  0  0  0  0
 10 11  1  0  0  0  0
 10 12  1  0  0  0  0
 10 13  1  0  0  0  0
 10 20  1  0  0  0  0
 11 21  1  0  0  0  0
 12 14  1  0  0  0  0
 12 22  1  0  0  0  0
 13 23  1  0  0  0  0
 13 24  1  0  0  0  0
 14 25  1  0  0  0  0
 14 26  1  0  0  0  0
 15 17  2  0  0  0  0
 16 27  1  0  0  0  0
 17 18  1  0  0  0  0
M  END
> <PUBCHEM_COMPOUND_CID>
135433622

> <PUBCHEM_CONFORMER_RMSD>
0.6

> <PUBCHEM_CONFORMER_DIVERSEORDER>
1
5
23
25
12
3
17
8
28
21
24
7
27
20
16
15
13
6
4
22
26
19
14
11
18
10
2
9

> <PUBCHEM_MMFF94_PARTIAL_CHARGES>
24
1 -0.52
11 0.34
12 0.26
13 0.28
14 0.28
15 -0.03
16 0.04
17 0.14
18 0.72
19 0.56
2 -0.68
27 0.15
28 0.4
29 0.4
3 -0.68
30 0.37
31 0.4
32 0.4
4 -0.57
5 0.22
6 -0.57
7 -0.58
8 -0.49
9 -0.85

> <PUBCHEM_EFFECTIVE_ROTOR_COUNT>
3.8

> <PUBCHEM_PHARMACOPHORE_FEATURES>
12
1 1 acceptor
1 2 acceptor
1 2 donor
1 3 acceptor
1 3 donor
1 4 acceptor
1 8 donor
1 9 donor
3 5 6 16 cation
4 1 10 11 12 rings
5 5 6 15 16 17 rings
6 7 8 15 17 18 19 rings

> <PUBCHEM_HEAVY_ATOM_COUNT>
19

> <PUBCHEM_ATOM_DEF_STEREO_COUNT>
3

> <PUBCHEM_ATOM_UDEF_STEREO_COUNT>
0

> <PUBCHEM_BOND_DEF_STEREO_COUNT>
0

> <PUBCHEM_BOND_UDEF_STEREO_COUNT>
0

> <PUBCHEM_ISOTOPIC_ATOM_COUNT>
0

> <PUBCHEM_COMPONENT_COUNT>
1

> <PUBCHEM_CACTVS_TAUTO_COUNT>
-1

> <PUBCHEM_CONFORMER_ID>
08128D9600000001

> <PUBCHEM_MMFF94_ENERGY>
35.0199

> <PUBCHEM_FEATURE_SELFOVERLAP>
61.076

> <PUBCHEM_SHAPE_FINGERPRINT>
10366900 7 18060128821642512761
10498660 4 18335421253318497284
10616163 171 18411138047580731334
107287 299 18060699472814927150
10759866 29 18260266335441972586
12236239 1 16950277407988118193
13214271 11 18411410739291176028
15219456 202 18342457002212108883
15375358 24 18412255112797783869
15415430 112 18333448763649122385
16945 1 18261663784376439089
17134986 127 17252579084802566149
200 152 17203601562680901313
20279233 1 18341890766656010115
20645477 56 18333731282772598709
20645477 70 17702941431282790943
20871999 31 18260544554426901095
21501502 16 17985549944547307256
22213442 358 18336828705379476033
22802520 49 18270121188925125075
23402539 116 18186796994143141424
23493267 7 18333728026802091458
23557571 272 18336273404609724118
23559900 14 18338514128346480606
2748010 2 18412548691230042775
3312278 4 18409729564653605689
3472631 163 17749388135503683957
474 4 16443638994761655092
495365 180 17559365034059000057
58051976 378 18341894057060005268
633830 44 17980187596696314333
67856867 119 18040708187375854936
7364860 26 18122343755340533089
81228 2 18263088734139723153
9709674 26 18341049601495591430

> <PUBCHEM_SHAPE_MULTIPOLES>
342.63
7.93
2.4
0.96
3.68
0.83
-0.01
-0.5
1.2
-1.44
0.43
0.4
0.16
1.11

> <PUBCHEM_SHAPE_SELFOVERLAP>
739.799

> <PUBCHEM_SHAPE_VOLUME>
187.7

> <PUBCHEM_COORDINATE_TYPE>
2
5
10

$$$$
