135464201
  -OEChem-03292013293D

 38 42  0     0  0  0  0  0  0999 V2000
    1.0101    3.4444   -0.1234 O   0  0  0  0  0  0  0  0  0  0  0  0
    1.2956   -2.8704   -1.0777 O   0  0  0  0  0  0  0  0  0  0  0  0
    3.4638    2.5971    0.3198 O   0  0  0  0  0  0  0  0  0  0  0  0
    5.1742    0.6284    0.5927 O   0  0  0  0  0  0  0  0  0  0  0  0
   -5.4255    0.6616   -0.0333 O   0  0  0  0  0  0  0  0  0  0  0  0
   -4.7370   -1.9339    0.3861 O   0  0  0  0  0  0  0  0  0  0  0  0
    0.4003   -0.2643   -0.0556 C   0  0  0  0  0  0  0  0  0  0  0  0
    0.1207    1.1971   -0.1586 C   0  0  0  0  0  0  0  0  0  0  0  0
    1.7937   -0.7273   -0.1316 C   0  0  0  0  0  0  0  0  0  0  0  0
   -0.7733   -0.9043    0.1474 C   0  0  0  0  0  0  0  0  0  0  0  0
   -1.8256    0.1052    0.0191 C   0  0  0  0  0  0  0  0  0  0  0  0
   -1.3283    1.3876   -0.1987 C   0  0  0  0  0  0  0  0  0  0  0  0
    2.8402    0.2912    0.1281 C   0  0  0  0  0  0  0  0  0  0  0  0
    1.1418    2.0751   -0.0906 C   0  0  0  0  0  0  0  0  0  0  0  0
    2.1849   -1.9428   -0.5759 C   0  0  0  0  0  0  0  0  0  0  0  0
   -3.1753   -0.1881    0.0858 C   0  0  0  0  0  0  0  0  0  0  0  0
    3.6305   -2.3594   -0.6474 C   0  0  0  0  0  0  0  0  0  0  0  0
    2.5195    1.6072    0.1179 C   0  0  0  0  0  0  0  0  0  0  0  0
    4.4984   -1.6442    0.3764 C   0  0  0  0  0  0  0  0  0  0  0  0
    4.2561   -0.1548    0.3621 C   0  0  0  0  0  0  0  0  0  0  0  0
   -1.1574   -2.2581    0.4513 C   0  0  0  0  0  0  0  0  0  0  0  0
   -2.2156    2.4321   -0.3728 C   0  0  0  0  0  0  0  0  0  0  0  0
   -4.0793    0.8545   -0.0827 C   0  0  0  0  0  0  0  0  0  0  0  0
   -3.5613   -1.5963    0.3361 C   0  0  0  0  0  0  0  0  0  0  0  0
   -2.4568   -2.5945    0.5396 C   0  0  0  0  0  0  0  0  0  0  0  0
   -3.5945    2.1570   -0.3140 C   0  0  0  0  0  0  0  0  0  0  0  0
    3.7232   -3.4385   -0.4750 H   0  0  0  0  0  0  0  0  0  0  0  0
    3.9998   -2.1621   -1.6615 H   0  0  0  0  0  0  0  0  0  0  0  0
    5.5538   -1.8345    0.1523 H   0  0  0  0  0  0  0  0  0  0  0  0
    4.2946   -2.0101    1.3895 H   0  0  0  0  0  0  0  0  0  0  0  0
   -0.4012   -3.0079    0.6452 H   0  0  0  0  0  0  0  0  0  0  0  0
   -1.8891    3.4485   -0.5559 H   0  0  0  0  0  0  0  0  0  0  0  0
   -2.7524   -3.6112    0.7758 H   0  0  0  0  0  0  0  0  0  0  0  0
   -4.2987    2.9755   -0.4499 H   0  0  0  0  0  0  0  0  0  0  0  0
    1.8008   -3.6320   -1.4091 H   0  0  0  0  0  0  0  0  0  0  0  0
    0.0758    3.6715   -0.2368 H   0  0  0  0  0  0  0  0  0  0  0  0
    4.3418    2.2040    0.4355 H   0  0  0  0  0  0  0  0  0  0  0  0
   -5.6187   -0.2750    0.1332 H   0  0  0  0  0  0  0  0  0  0  0  0
  1 14  1  0  0  0  0
  1 36  1  0  0  0  0
  2 15  1  0  0  0  0
  2 35  1  0  0  0  0
  3 18  1  0  0  0  0
  3 37  1  0  0  0  0
  4 20  2  0  0  0  0
  5 23  1  0  0  0  0
  5 38  1  0  0  0  0
  6 24  2  0  0  0  0
  7  8  1  0  0  0  0
  7  9  1  0  0  0  0
  7 10  2  0  0  0  0
  8 12  1  0  0  0  0
  8 14  2  0  0  0  0
  9 13  1  0  0  0  0
  9 15  2  0  0  0  0
 10 11  1  0  0  0  0
 10 21  1  0  0  0  0
 11 12  2  0  0  0  0
 11 16  1  0  0  0  0
 12 22  1  0  0  0  0
 13 18  2  0  0  0  0
 13 20  1  0  0  0  0
 14 18  1  0  0  0  0
 15 17  1  0  0  0  0
 16 23  2  0  0  0  0
 16 24  1  0  0  0  0
 17 19  1  0  0  0  0
 17 27  1  0  0  0  0
 17 28  1  0  0  0  0
 19 20  1  0  0  0  0
 19 29  1  0  0  0  0
 19 30  1  0  0  0  0
 21 25  2  0  0  0  0
 21 31  1  0  0  0  0
 22 26  2  0  0  0  0
 22 32  1  0  0  0  0
 23 26  1  0  0  0  0
 24 25  1  0  0  0  0
 25 33  1  0  0  0  0
 26 34  1  0  0  0  0
M  END
> <PUBCHEM_COMPOUND_CID>
135464201

> <PUBCHEM_CONFORMER_RMSD>
0.6

> <PUBCHEM_CONFORMER_DIVERSEORDER>
1
2

> <PUBCHEM_MMFF94_PARTIAL_CHARGES>
32
1 -0.53
10 -0.03
11 0.03
12 0.03
13 0.01
14 0.08
15 -0.06
16 0.09
17 0.14
18 0.08
19 0.06
2 -0.53
20 0.49
21 -0.15
22 -0.15
23 0.08
24 0.47
25 -0.14
26 -0.15
3 -0.53
31 0.15
32 0.15
33 0.15
34 0.15
35 0.45
36 0.45
37 0.45
38 0.45
4 -0.57
5 -0.53
6 -0.57
8 -0.03

> <PUBCHEM_EFFECTIVE_ROTOR_COUNT>
0.4

> <PUBCHEM_PHARMACOPHORE_FEATURES>
11
1 1 donor
1 2 donor
1 3 donor
1 4 acceptor
1 5 donor
1 6 acceptor
5 7 8 10 11 12 rings
6 10 11 16 21 24 25 rings
6 11 12 16 22 23 26 rings
6 7 8 9 13 14 18 rings
6 9 13 15 17 19 20 rings

> <PUBCHEM_HEAVY_ATOM_COUNT>
26

> <PUBCHEM_ATOM_DEF_STEREO_COUNT>
0

> <PUBCHEM_ATOM_UDEF_STEREO_COUNT>
0

> <PUBCHEM_BOND_DEF_STEREO_COUNT>
0

> <PUBCHEM_BOND_UDEF_STEREO_COUNT>
0

> <PUBCHEM_ISOTOPIC_ATOM_COUNT>
0

> <PUBCHEM_COMPONENT_COUNT>
1

> <PUBCHEM_CACTVS_TAUTO_COUNT>
-1

> <PUBCHEM_CONFORMER_ID>
0813050900000001

> <PUBCHEM_MMFF94_ENERGY>
103.2638

> <PUBCHEM_FEATURE_SELFOVERLAP>
56.144

> <PUBCHEM_SHAPE_FINGERPRINT>
10319926 262 18338216195350634634
10616163 171 18265900331126085814
10675989 125 16531994284275247981
10693767 8 17695038035145826119
10906281 52 18339096912005259116
10967382 1 18338235959829735253
1100329 8 16320903414586175594
11112241 14 17058339678867554600
11578080 2 17058347405397681803
11680986 33 18411705386916694189
12035758 1 18337677421113676147
12403259 226 18409444812817483381
12422481 6 18266766674102836507
12633257 1 18411424968618074161
13140716 1 18265900352827821305
13402501 40 18338234868913336366
14223421 5 18410577313772204553
14790565 3 17690852154859831457
14866123 147 16902156994052080986
15196674 1 18409448111061911145
15256400 18 18410011026792880569
15420108 30 15018285218776687851
1601671 61 18411421726482235308
16945 1 18338245958693104349
17349148 13 18341884169554750809
17492 89 18337391646680237475
1813 80 17167863083976271964
19591789 44 18048316652556317745
200 152 17918267645657387757
20691752 17 17095239232844273544
21267235 1 18409737231048844579
21279426 13 18121496851960401405
21421861 104 17823690863919416770
21859007 373 17605814946652514653
221490 88 18409454699515369402
22182313 1 18271817795575726510
23227448 37 18413103966003066471
2334 1 18337955575917207557
23366157 5 17968380164410530988
23558518 356 18187932832414455025
23559900 14 18412260631978491352
2748010 2 18338801100211170429
3004659 81 18114748132011440918
335352 9 18409166572024733685
34934 24 18410006611503398042
350125 39 18410296951229297648
3633792 109 18268140965180803733
3680242 22 18118121368527725866
4214541 1 18409166588877554953
5104073 3 18410575101901010297
59755656 215 18337670789430924269
6823239 73 18270971150685449062
9709674 26 18410296929828385631

> <PUBCHEM_SHAPE_MULTIPOLES>
499.85
9.35
3.55
0.73
0.24
0.41
0.04
-1.1
-0.9
-0.13
0.2
-0.18
-0.2
1.11

> <PUBCHEM_SHAPE_SELFOVERLAP>
1158.567

> <PUBCHEM_SHAPE_VOLUME>
254.3

> <PUBCHEM_COORDINATE_TYPE>
2
5
10

$$$$
