135455548
  -OEChem-03292013293D

 28 28  0     0  0  0  0  0  0999 V2000
    3.4061    1.3698    1.9433 S   0  0  0  0  0  0  0  0  0  0  0  0
   -0.8291    1.8157   -1.6281 O   0  0  0  0  0  0  0  0  0  0  0  0
   -0.8187   -3.4110   -0.4152 O   0  0  0  0  0  0  0  0  0  0  0  0
   -2.7220    0.3792    1.1388 N   0  0  0  0  0  0  0  0  0  0  0  0
    1.7455   -0.3950   -1.1360 N   0  0  0  0  0  0  0  0  0  0  0  0
    1.9195    0.2399    0.0479 N   0  0  0  0  0  0  0  0  0  0  0  0
    4.2254    0.2606   -0.3285 N   0  0  0  0  0  0  0  0  0  0  0  0
   -1.0325   -1.1987    0.4312 C   0  0  0  0  0  0  0  0  0  0  0  0
   -0.6005   -0.3090   -0.5462 C   0  0  0  0  0  0  0  0  0  0  0  0
   -1.2280    0.9243   -0.6821 C   0  0  0  0  0  0  0  0  0  0  0  0
   -2.2744    1.2178    0.1774 C   0  0  0  0  0  0  0  0  0  0  0  0
   -0.4008   -2.5342    0.6244 C   0  0  0  0  0  0  0  0  0  0  0  0
   -2.0877   -0.8103    1.2409 C   0  0  0  0  0  0  0  0  0  0  0  0
    0.5062   -0.6646   -1.4274 C   0  0  0  0  0  0  0  0  0  0  0  0
   -2.9829    2.5289    0.0747 C   0  0  0  0  0  0  0  0  0  0  0  0
    3.1738    0.5865    0.4850 C   0  0  0  0  0  0  0  0  0  0  0  0
    0.6920   -2.4667    0.6245 H   0  0  0  0  0  0  0  0  0  0  0  0
   -0.6954   -2.9771    1.5824 H   0  0  0  0  0  0  0  0  0  0  0  0
   -2.4735   -1.4590    2.0213 H   0  0  0  0  0  0  0  0  0  0  0  0
    0.2684   -1.1792   -2.3723 H   0  0  0  0  0  0  0  0  0  0  0  0
   -3.4496    2.6426   -0.9090 H   0  0  0  0  0  0  0  0  0  0  0  0
   -3.7795    2.5982    0.8238 H   0  0  0  0  0  0  0  0  0  0  0  0
   -2.2924    3.3590    0.2552 H   0  0  0  0  0  0  0  0  0  0  0  0
   -1.3606    2.6260   -1.5973 H   0  0  0  0  0  0  0  0  0  0  0  0
   -0.3864   -4.2675   -0.2565 H   0  0  0  0  0  0  0  0  0  0  0  0
    1.1249    0.4689    0.6312 H   0  0  0  0  0  0  0  0  0  0  0  0
    4.0826   -0.2149   -1.2131 H   0  0  0  0  0  0  0  0  0  0  0  0
    5.1812    0.4843   -0.0724 H   0  0  0  0  0  0  0  0  0  0  0  0
  1 16  2  0  0  0  0
  2 10  1  0  0  0  0
  2 24  1  0  0  0  0
  3 12  1  0  0  0  0
  3 25  1  0  0  0  0
  4 11  2  0  0  0  0
  4 13  1  0  0  0  0
  5  6  1  0  0  0  0
  5 14  2  0  0  0  0
  6 16  1  0  0  0  0
  6 26  1  0  0  0  0
  7 16  1  0  0  0  0
  7 27  1  0  0  0  0
  7 28  1  0  0  0  0
  8  9  1  0  0  0  0
  8 12  1  0  0  0  0
  8 13  2  0  0  0  0
  9 10  2  0  0  0  0
  9 14  1  0  0  0  0
 10 11  1  0  0  0  0
 11 15  1  0  0  0  0
 12 17  1  0  0  0  0
 12 18  1  0  0  0  0
 13 19  1  0  0  0  0
 14 20  1  0  0  0  0
 15 21  1  0  0  0  0
 15 22  1  0  0  0  0
 15 23  1  0  0  0  0
M  END
> <PUBCHEM_COMPOUND_CID>
135455548

> <PUBCHEM_CONFORMER_RMSD>
0.6

> <PUBCHEM_CONFORMER_DIVERSEORDER>
1
15
47
19
45
28
27
35
25
36
13
29
10
46
38
20
3
41
31
22
4
11
18
42
43
23
44
30
26
32
7
14
33
21
37
39
8
2
9
6
5
16
24
12
34
17
40

> <PUBCHEM_MMFF94_PARTIAL_CHARGES>
23
1 -0.38
10 0.08
11 0.17
12 0.42
13 0.16
14 0.3
15 0.14
16 0.5
19 0.15
2 -0.53
20 0.06
24 0.45
25 0.4
26 0.37
27 0.37
28 0.37
3 -0.68
4 -0.62
5 -0.51
6 -0.37
7 -0.8
8 -0.14
9 0.09

> <PUBCHEM_EFFECTIVE_ROTOR_COUNT>
4

> <PUBCHEM_PHARMACOPHORE_FEATURES>
9
1 1 acceptor
1 2 donor
1 3 acceptor
1 3 donor
1 4 acceptor
1 5 acceptor
1 6 donor
1 7 donor
6 4 8 9 10 11 13 rings

> <PUBCHEM_HEAVY_ATOM_COUNT>
16

> <PUBCHEM_ATOM_DEF_STEREO_COUNT>
0

> <PUBCHEM_ATOM_UDEF_STEREO_COUNT>
0

> <PUBCHEM_BOND_DEF_STEREO_COUNT>
1

> <PUBCHEM_BOND_UDEF_STEREO_COUNT>
0

> <PUBCHEM_ISOTOPIC_ATOM_COUNT>
0

> <PUBCHEM_COMPONENT_COUNT>
1

> <PUBCHEM_CACTVS_TAUTO_COUNT>
-1

> <PUBCHEM_CONFORMER_ID>
0812E33C00000001

> <PUBCHEM_MMFF94_ENERGY>
50.4825

> <PUBCHEM_FEATURE_SELFOVERLAP>
45.716

> <PUBCHEM_SHAPE_FINGERPRINT>
12500047 106 18411698781879498250
13004483 165 17839163453328092614
14817 1 18263657310210054279
15295992 7 18272647905464023176
16945 1 18267318684088563535
21524375 3 18128810859159058556
21650355 55 17976815711833835002
22112679 90 17760109679507653487
23388829 49 17187574282383229983
23402539 116 18270677701097434567
23598294 1 17968675898599322220
25 1 17774729640882726280
257057 1 17618221054017748983
27216 239 17772454940509238504
2748010 2 17464004279603641595
305870 269 18265333902207067139
4072396 5 17894917334793823867
495365 180 18049994494510588021
5706482 22 18261662701743805275
7364860 26 17762621690067811271
81228 2 18191583262226372122
84936 182 17764872394607125841
90316 7 17385721374498035540

> <PUBCHEM_SHAPE_MULTIPOLES>
301.46
5.43
2.73
1.51
5.94
1.54
-0.09
-3.53
-1.87
-1.99
-0.15
0.47
-0.28
0.98

> <PUBCHEM_SHAPE_SELFOVERLAP>
615.088

> <PUBCHEM_SHAPE_VOLUME>
178

> <PUBCHEM_COORDINATE_TYPE>
2
5
10

$$$$
