135474712
  -OEChem-03292013293D

 49 54  0     1  0  0  0  0  0999 V2000
   -2.1664   -0.6713   -0.0363 O   0  0  0  0  0  0  0  0  0  0  0  0
   -3.0839    1.4583   -1.7866 O   0  0  0  0  0  0  0  0  0  0  0  0
    1.1699    2.8182    0.0154 O   0  0  0  0  0  0  0  0  0  0  0  0
    2.3886   -1.8586    0.0117 O   0  0  0  0  0  0  0  0  0  0  0  0
    2.7651    4.5525    0.0574 O   0  0  0  0  0  0  0  0  0  0  0  0
   -7.8467   -0.0927    1.7040 O   0  0  0  0  0  0  0  0  0  0  0  0
    7.8848   -0.6049    0.1074 O   0  0  0  0  0  0  0  0  0  0  0  0
   -8.3437   -1.8298   -0.4081 O   0  0  0  0  0  0  0  0  0  0  0  0
    6.9008   -3.1830    0.0857 O   0  0  0  0  0  0  0  0  0  0  0  0
   -2.9601    1.6297   -0.3737 C   0  0  2  0  0  0  0  0  0  0  0  0
   -1.5811    2.2054   -0.0583 C   0  0  0  0  0  0  0  0  0  0  0  0
   -3.1463    0.2985    0.3633 C   0  0  1  0  0  0  0  0  0  0  0  0
   -0.5191    1.1349   -0.0288 C   0  0  0  0  0  0  0  0  0  0  0  0
   -0.8702   -0.2228   -0.0132 C   0  0  0  0  0  0  0  0  0  0  0  0
    0.8442    1.4765    0.0025 C   0  0  0  0  0  0  0  0  0  0  0  0
    1.8325    0.4831    0.0174 C   0  0  0  0  0  0  0  0  0  0  0  0
    1.4613   -0.8536    0.0041 C   0  0  0  0  0  0  0  0  0  0  0  0
   -4.5381   -0.2701    0.1601 C   0  0  0  0  0  0  0  0  0  0  0  0
    0.1153   -1.2137   -0.0141 C   0  0  0  0  0  0  0  0  0  0  0  0
    3.2495    0.8737    0.0431 C   0  0  0  0  0  0  0  0  0  0  0  0
    4.1723   -0.1218    0.0517 C   0  0  0  0  0  0  0  0  0  0  0  0
    3.7412   -1.5324    0.0366 C   0  0  0  0  0  0  0  0  0  0  0  0
    3.5214    2.3033    0.0569 C   0  0  0  0  0  0  0  0  0  0  0  0
   -5.5683    0.0788    1.0333 C   0  0  0  0  0  0  0  0  0  0  0  0
   -4.7876   -1.1410   -0.9005 C   0  0  0  0  0  0  0  0  0  0  0  0
    2.5099    3.1921    0.0437 C   0  0  0  0  0  0  0  0  0  0  0  0
    5.6146    0.1439    0.0750 C   0  0  0  0  0  0  0  0  0  0  0  0
    4.6346   -2.5315    0.0470 C   0  0  0  0  0  0  0  0  0  0  0  0
   -6.8483   -0.4431    0.8458 C   0  0  0  0  0  0  0  0  0  0  0  0
   -6.0675   -1.6631   -1.0877 C   0  0  0  0  0  0  0  0  0  0  0  0
    6.5274   -0.8405    0.0858 C   0  0  0  0  0  0  0  0  0  0  0  0
   -7.0979   -1.3141   -0.2148 C   0  0  0  0  0  0  0  0  0  0  0  0
    6.0919   -2.2611    0.0739 C   0  0  0  0  0  0  0  0  0  0  0  0
   -3.7326    2.3485   -0.0750 H   0  0  0  0  0  0  0  0  0  0  0  0
   -1.6052    2.6763    0.9321 H   0  0  0  0  0  0  0  0  0  0  0  0
   -1.3169    2.9677   -0.8006 H   0  0  0  0  0  0  0  0  0  0  0  0
   -3.0117    0.4544    1.4439 H   0  0  0  0  0  0  0  0  0  0  0  0
   -0.1670   -2.2637   -0.0208 H   0  0  0  0  0  0  0  0  0  0  0  0
   -2.9919    2.3345   -2.1980 H   0  0  0  0  0  0  0  0  0  0  0  0
    4.5415    2.6663    0.0787 H   0  0  0  0  0  0  0  0  0  0  0  0
   -5.3731    0.7600    1.8580 H   0  0  0  0  0  0  0  0  0  0  0  0
   -4.0037   -1.4200   -1.5992 H   0  0  0  0  0  0  0  0  0  0  0  0
    5.9778    1.1649    0.0838 H   0  0  0  0  0  0  0  0  0  0  0  0
    4.3226   -3.5705    0.0365 H   0  0  0  0  0  0  0  0  0  0  0  0
   -6.2487   -2.3389   -1.9193 H   0  0  0  0  0  0  0  0  0  0  0  0
    3.7285    4.6846    0.0766 H   0  0  0  0  0  0  0  0  0  0  0  0
   -7.4904    0.5164    2.3734 H   0  0  0  0  0  0  0  0  0  0  0  0
    8.3339   -1.4678    0.1114 H   0  0  0  0  0  0  0  0  0  0  0  0
   -8.3284   -2.4107   -1.1880 H   0  0  0  0  0  0  0  0  0  0  0  0
  1 12  1  0  0  0  0
  1 14  1  0  0  0  0
  2 10  1  0  0  0  0
  2 39  1  0  0  0  0
  3 15  1  0  0  0  0
  3 26  1  0  0  0  0
  4 17  1  0  0  0  0
  4 22  1  0  0  0  0
  5 26  1  0  0  0  0
  5 46  1  0  0  0  0
  6 29  1  0  0  0  0
  6 47  1  0  0  0  0
  7 31  1  0  0  0  0
  7 48  1  0  0  0  0
  8 32  1  0  0  0  0
  8 49  1  0  0  0  0
  9 33  2  0  0  0  0
 10 11  1  0  0  0  0
 10 12  1  0  0  0  0
 10 34  1  0  0  0  0
 11 13  1  0  0  0  0
 11 35  1  0  0  0  0
 11 36  1  0  0  0  0
 12 18  1  0  0  0  0
 12 37  1  0  0  0  0
 13 14  2  0  0  0  0
 13 15  1  0  0  0  0
 14 19  1  0  0  0  0
 15 16  2  0  0  0  0
 16 17  1  0  0  0  0
 16 20  1  0  0  0  0
 17 19  2  0  0  0  0
 18 24  2  0  0  0  0
 18 25  1  0  0  0  0
 19 38  1  0  0  0  0
 20 21  2  0  0  0  0
 20 23  1  0  0  0  0
 21 22  1  0  0  0  0
 21 27  1  0  0  0  0
 22 28  2  0  0  0  0
 23 26  2  0  0  0  0
 23 40  1  0  0  0  0
 24 29  1  0  0  0  0
 24 41  1  0  0  0  0
 25 30  2  0  0  0  0
 25 42  1  0  0  0  0
 27 31  2  0  0  0  0
 27 43  1  0  0  0  0
 28 33  1  0  0  0  0
 28 44  1  0  0  0  0
 29 32  2  0  0  0  0
 30 32  1  0  0  0  0
 30 45  1  0  0  0  0
 31 33  1  0  0  0  0
M  END
> <PUBCHEM_COMPOUND_CID>
135474712

> <PUBCHEM_CONFORMER_RMSD>
0.8

> <PUBCHEM_CONFORMER_DIVERSEORDER>
1
4
6
2
3
5
7

> <PUBCHEM_MMFF94_PARTIAL_CHARGES>
44
1 -0.36
10 0.28
11 0.14
12 0.42
13 -0.14
14 0.08
15 0.08
16 0.03
17 0.08
18 -0.14
19 -0.15
2 -0.68
20 -0.03
22 0.08
23 -0.15
24 -0.15
25 -0.15
26 0.15
27 -0.15
28 -0.14
29 0.08
3 -0.16
30 -0.15
31 0.09
32 0.08
33 0.54
38 0.15
39 0.4
4 -0.16
40 0.15
41 0.15
42 0.15
43 0.15
44 0.15
45 0.15
46 0.45
47 0.45
48 0.45
49 0.45
5 -0.53
6 -0.53
7 -0.53
8 -0.53
9 -0.57

> <PUBCHEM_EFFECTIVE_ROTOR_COUNT>
1.8

> <PUBCHEM_PHARMACOPHORE_FEATURES>
16
1 1 acceptor
1 2 acceptor
1 2 donor
1 3 acceptor
1 4 acceptor
1 5 donor
1 6 donor
1 7 donor
1 8 donor
1 9 acceptor
6 1 10 11 12 13 14 rings
6 13 14 15 16 17 19 rings
6 18 24 25 29 30 32 rings
6 21 22 27 28 31 33 rings
6 3 15 16 20 23 26 rings
6 4 16 17 20 21 22 rings

> <PUBCHEM_HEAVY_ATOM_COUNT>
33

> <PUBCHEM_ATOM_DEF_STEREO_COUNT>
2

> <PUBCHEM_ATOM_UDEF_STEREO_COUNT>
0

> <PUBCHEM_BOND_DEF_STEREO_COUNT>
0

> <PUBCHEM_BOND_UDEF_STEREO_COUNT>
0

> <PUBCHEM_ISOTOPIC_ATOM_COUNT>
0

> <PUBCHEM_COMPONENT_COUNT>
1

> <PUBCHEM_CACTVS_TAUTO_COUNT>
-1

> <PUBCHEM_CONFORMER_ID>
08132E1800000001

> <PUBCHEM_MMFF94_ENERGY>
105.7167

> <PUBCHEM_FEATURE_SELFOVERLAP>
81.348

> <PUBCHEM_SHAPE_FINGERPRINT>
10050765 1 18123470745894606226
10076449 9 18410016520852461852
10299344 5 18201721756299513163
10411042 1 18338797806836300568
10580692 12 18411982443401140785
11963148 33 18266733589717502118
12107183 9 18198916803711577041
12107698 1 18412545401137082721
12166972 35 18273213101622095416
12236239 1 18060424655591276881
12516196 113 18411699855721510002
12522641 24 17632290229203495496
13248334 5 18266741466887709984
13383668 251 18268976752282454480
13533116 47 18410576227161777193
13540713 4 18263342764096681493
13673619 4 18186522085570338901
13685833 64 18409167692821507954
13690498 29 18187359879387470637
13782708 43 17894906304510932627
14040222 275 18339381711313024662
14068700 675 18272654528140238752
14170010 4 18410572911995241728
14347332 77 18410573959714418165
14849402 71 18339928215974261000
15198563 99 17095512964923391829
15361156 5 18041568064812399055
15400415 2 17329427762779737421
15419008 47 17603579729807357437
15483637 11 17975978979106487586
15927050 60 17909267224320112412
18681886 176 18341604924082766018
20028762 73 18272931626334713334
20771845 140 16558754528672422479
21033650 10 16153699874593143757
21049683 271 18334300877320365996
21130935 74 18269837670092666459
21150785 3 13118004405209252203
21267235 1 18411423878218613614
21583282 1 17970359315283772804
21792934 111 18341607110580186161
221357 26 18334292063324105548
22149856 69 18271530793250029408
22311459 1 18410293614293156602
2260408 40 17131560435621569550
23522609 53 18123785068897838937
23559900 14 18336260236224125145
23569914 152 17470406714422300591
23569943 247 18336264553395050891
24771293 8 18129647721537966920
24771750 20 18190189073763142284
249057 25 17988938781619395561
255183 451 18271254811789951350
3178227 256 18409737252582034978
335352 9 18410295852223896926
3383291 50 18333447634152547226
34797466 226 16298393512526200877
350125 39 18410576179990983445
3504750 166 18060415795005147653
397830 11 14691706870635494711
4015057 19 18336827601968461809
4073 2 18116154561480151499
4093350 32 16845576448621989576
4112364 45 14189278409905032170
439807 62 18334576832778128695
4461854 278 17989210356322683302
46194498 28 17603585257593888556
5104073 3 18198898128824093280
57527295 17 17532649036102809048
9555976 147 17489040318498306043
9962374 69 18338507655187317254

> <PUBCHEM_SHAPE_MULTIPOLES>
626.3
21.07
3.39
0.87
16.93
2.5
0.02
-15.99
-2.29
-5
0.23
1.55
0.01
-0.5

> <PUBCHEM_SHAPE_SELFOVERLAP>
1431.632

> <PUBCHEM_SHAPE_VOLUME>
321

> <PUBCHEM_COORDINATE_TYPE>
2
5
10

$$$$
