135457811
  -OEChem-03292013293D

 36 38  0     0  0  0  0  0  0999 V2000
    0.9171    2.4200    0.1102 O   0  0  0  0  0  0  0  0  0  0  0  0
   -1.9841   -2.4104    0.0375 O   0  0  0  0  0  0  0  0  0  0  0  0
    0.7491   -2.3252    0.1842 O   0  0  0  0  0  0  0  0  0  0  0  0
   -1.8190    2.3362    0.0359 O   0  0  0  0  0  0  0  0  0  0  0  0
    5.2222   -0.0658   -2.1023 O   0  0  0  0  0  0  0  0  0  0  0  0
    6.5314   -0.0440    0.3486 O   0  0  0  0  0  0  0  0  0  0  0  0
    0.9095    0.0409    0.1504 C   0  0  0  0  0  0  0  0  0  0  0  0
   -1.9791   -0.0307    0.0349 C   0  0  0  0  0  0  0  0  0  0  0  0
    2.3828    0.0190    0.1983 C   0  0  0  0  0  0  0  0  0  0  0  0
    0.2492    1.2085    0.1095 C   0  0  0  0  0  0  0  0  0  0  0  0
   -1.3181   -1.1982    0.0694 C   0  0  0  0  0  0  0  0  0  0  0  0
    0.1637   -1.2463    0.1377 C   0  0  0  0  0  0  0  0  0  0  0  0
   -1.2331    1.2567    0.0573 C   0  0  0  0  0  0  0  0  0  0  0  0
   -3.4518   -0.0086   -0.0380 C   0  0  0  0  0  0  0  0  0  0  0  0
    3.1194   -0.0127   -0.9857 C   0  0  0  0  0  0  0  0  0  0  0  0
    3.0400    0.0289    1.4286 C   0  0  0  0  0  0  0  0  0  0  0  0
   -4.2079    0.0038    1.1341 C   0  0  0  0  0  0  0  0  0  0  0  0
   -4.0886    0.0000   -1.2789 C   0  0  0  0  0  0  0  0  0  0  0  0
    4.5133   -0.0344   -0.9395 C   0  0  0  0  0  0  0  0  0  0  0  0
    4.4340    0.0072    1.4749 C   0  0  0  0  0  0  0  0  0  0  0  0
    5.1705   -0.0244    0.2907 C   0  0  0  0  0  0  0  0  0  0  0  0
   -5.6010    0.0248    1.0654 C   0  0  0  0  0  0  0  0  0  0  0  0
   -5.4816    0.0211   -1.3477 C   0  0  0  0  0  0  0  0  0  0  0  0
   -6.2378    0.0334   -0.1756 C   0  0  0  0  0  0  0  0  0  0  0  0
    2.6079   -0.0213   -1.9459 H   0  0  0  0  0  0  0  0  0  0  0  0
    2.4795    0.0527    2.3601 H   0  0  0  0  0  0  0  0  0  0  0  0
   -3.7259   -0.0020    2.1088 H   0  0  0  0  0  0  0  0  0  0  0  0
   -3.5129   -0.0088   -2.2013 H   0  0  0  0  0  0  0  0  0  0  0  0
    4.9333    0.0154    2.4401 H   0  0  0  0  0  0  0  0  0  0  0  0
   -6.1898    0.0346    1.9779 H   0  0  0  0  0  0  0  0  0  0  0  0
   -5.9776    0.0279   -2.3139 H   0  0  0  0  0  0  0  0  0  0  0  0
   -7.3225    0.0498   -0.2293 H   0  0  0  0  0  0  0  0  0  0  0  0
    0.2467    3.1240    0.0750 H   0  0  0  0  0  0  0  0  0  0  0  0
   -1.3133   -3.1141    0.0694 H   0  0  0  0  0  0  0  0  0  0  0  0
    4.6023   -0.0683   -2.8518 H   0  0  0  0  0  0  0  0  0  0  0  0
    6.8089   -0.0327    1.2808 H   0  0  0  0  0  0  0  0  0  0  0  0
  1 10  1  0  0  0  0
  1 33  1  0  0  0  0
  2 11  1  0  0  0  0
  2 34  1  0  0  0  0
  3 12  2  0  0  0  0
  4 13  2  0  0  0  0
  5 19  1  0  0  0  0
  5 35  1  0  0  0  0
  6 21  1  0  0  0  0
  6 36  1  0  0  0  0
  7  9  1  0  0  0  0
  7 10  2  0  0  0  0
  7 12  1  0  0  0  0
  8 11  2  0  0  0  0
  8 13  1  0  0  0  0
  8 14  1  0  0  0  0
  9 15  2  0  0  0  0
  9 16  1  0  0  0  0
 10 13  1  0  0  0  0
 11 12  1  0  0  0  0
 14 17  2  0  0  0  0
 14 18  1  0  0  0  0
 15 19  1  0  0  0  0
 15 25  1  0  0  0  0
 16 20  2  0  0  0  0
 16 26  1  0  0  0  0
 17 22  1  0  0  0  0
 17 27  1  0  0  0  0
 18 23  2  0  0  0  0
 18 28  1  0  0  0  0
 19 21  2  0  0  0  0
 20 21  1  0  0  0  0
 20 29  1  0  0  0  0
 22 24  2  0  0  0  0
 22 30  1  0  0  0  0
 23 24  1  0  0  0  0
 23 31  1  0  0  0  0
 24 32  1  0  0  0  0
M  END
> <PUBCHEM_COMPOUND_CID>
135457811

> <PUBCHEM_CONFORMER_RMSD>
0.6

> <PUBCHEM_CONFORMER_DIVERSEORDER>
1
2
3

> <PUBCHEM_MMFF94_PARTIAL_CHARGES>
36
1 -0.53
10 0.09
11 0.09
12 0.54
13 0.54
14 0.03
15 -0.15
16 -0.15
17 -0.15
18 -0.15
19 0.08
2 -0.53
20 -0.15
21 0.08
22 -0.15
23 -0.15
24 -0.15
25 0.15
26 0.15
27 0.15
28 0.15
29 0.15
3 -0.57
30 0.15
31 0.15
32 0.15
33 0.45
34 0.45
35 0.45
36 0.45
4 -0.57
5 -0.53
6 -0.53
7 -0.01
8 -0.01
9 0.03

> <PUBCHEM_EFFECTIVE_ROTOR_COUNT>
2

> <PUBCHEM_PHARMACOPHORE_FEATURES>
9
1 1 donor
1 2 donor
1 3 acceptor
1 4 acceptor
1 5 donor
1 6 donor
6 14 17 18 22 23 24 rings
6 7 8 10 11 12 13 rings
6 9 15 16 19 20 21 rings

> <PUBCHEM_HEAVY_ATOM_COUNT>
24

> <PUBCHEM_ATOM_DEF_STEREO_COUNT>
0

> <PUBCHEM_ATOM_UDEF_STEREO_COUNT>
0

> <PUBCHEM_BOND_DEF_STEREO_COUNT>
0

> <PUBCHEM_BOND_UDEF_STEREO_COUNT>
0

> <PUBCHEM_ISOTOPIC_ATOM_COUNT>
0

> <PUBCHEM_COMPONENT_COUNT>
1

> <PUBCHEM_CACTVS_TAUTO_COUNT>
-1

> <PUBCHEM_CONFORMER_ID>
0812EC1300000001

> <PUBCHEM_MMFF94_ENERGY>
72.1837

> <PUBCHEM_FEATURE_SELFOVERLAP>
45.677

> <PUBCHEM_SHAPE_FINGERPRINT>
10595046 47 15626219143448159251
10670039 82 18261684653870405212
10906281 52 18270978919484617933
11646440 116 18202291324839210105
11796584 16 16588022399044074243
11963148 33 18260823830592652731
12011746 2 18411134727781813161
12107183 9 15048114453784379235
12236239 1 17531245054849788152
12390115 104 18057616373554951201
12553582 1 18410572890240947193
12788726 201 18187640258804947776
12916748 109 18409732842235807328
13140716 1 18266457796722729641
13533116 47 18338508643715857810
13583140 156 16515978037615937105
13862211 1 18410851066677447819
14341114 176 15647057053616306671
14790565 3 18338248106330421689
15099037 51 18410292531971388951
15475509 8 18057907786632199924
15788980 27 17168140148153457427
15848702 151 16988562407183494061
1601671 61 18407759239705867527
16752209 62 18336824208438096792
17349148 13 18411981360182905405
17844677 252 15769781268595839529
18222031 100 18342736321067952569
19141452 34 17560797766392474199
19489759 90 15698000743367681043
200 152 16081367449354497056
21236236 1 18339922606836591241
21267235 1 18409171008325030105
21641784 216 18042135283810735468
21781051 124 18115609113471410770
23402539 116 18201433684173485957
23536379 177 15719388421612255929
23559900 14 18270969054662202836
23569914 152 16833460615972161317
23569914 2 15000183739778666255
23569943 247 17701553800549533743
23576562 1 18042685190607095429
3004659 81 17603861166440409850
314173 85 18272653445908771457
335352 9 18410571811987676991
34797466 226 18202012049318875652
3759504 43 17530969111464531027
404807 14 14974939742904928855
4072396 5 18262224556343578626
4073 2 17131545149991445998
4340502 62 16153427255384790634
465052 167 17894355487876942203
5104073 3 18266456692568014409
5385378 56 18337959974433815115
59755656 215 18273216361185735671
7495541 125 17386012809856904217
8272917 22 16443057258441751138
9971528 1 17775284984280462752

> <PUBCHEM_SHAPE_MULTIPOLES>
458.69
14.14
1.59
1.28
0.5
0.01
-0.22
-0.1
-1.23
-0.45
0.08
0.59
-0.01
0.04

> <PUBCHEM_SHAPE_SELFOVERLAP>
1020.804

> <PUBCHEM_SHAPE_VOLUME>
242.6

> <PUBCHEM_COORDINATE_TYPE>
2
5
10

$$$$
