135465363
  -OEChem-03292013293D

 38 43  0     0  0  0  0  0  0999 V2000
   -0.6322   -1.0837    1.6043 O   0  0  0  0  0  0  0  0  0  0  0  0
   -2.8261    3.5569    0.1725 O   0  0  0  0  0  0  0  0  0  0  0  0
    1.8064    3.2305    0.4480 O   0  0  0  0  0  0  0  0  0  0  0  0
    5.9944   -1.5424   -0.8478 O   0  0  0  0  0  0  0  0  0  0  0  0
   -3.9911   -0.3025   -1.4795 N   0  0  0  0  0  0  0  0  0  0  0  0
   -0.4866    3.6633    0.3718 N   0  0  0  0  0  0  0  0  0  0  0  0
    1.4454   -1.8530    0.8470 N   0  0  0  0  0  0  0  0  0  0  0  0
   -1.3686    1.6052    0.1220 C   0  0  0  0  0  0  0  0  0  0  0  0
   -2.3101    0.6236   -0.3317 C   0  0  0  0  0  0  0  0  0  0  0  0
    0.1009    1.4621    0.2233 C   0  0  0  0  0  0  0  0  0  0  0  0
   -2.3597   -0.7693   -0.0435 C   0  0  0  0  0  0  0  0  0  0  0  0
    0.8860    0.3767    0.3229 C   0  0  0  0  0  0  0  0  0  0  0  0
   -3.4107   -1.3270   -0.7729 C   0  0  0  0  0  0  0  0  0  0  0  0
    2.3011    0.1622   -0.0303 C   0  0  0  0  0  0  0  0  0  0  0  0
   -1.6128   -1.6222    0.7824 C   0  0  0  0  0  0  0  0  0  0  0  0
    0.5031   -0.9495    0.8759 C   0  0  0  0  0  0  0  0  0  0  0  0
   -1.6231    2.9229    0.2460 C   0  0  0  0  0  0  0  0  0  0  0  0
   -3.3374    0.8739   -1.2232 C   0  0  0  0  0  0  0  0  0  0  0  0
    0.6520    2.8695    0.3274 C   0  0  0  0  0  0  0  0  0  0  0  0
    2.5533   -1.1905    0.2771 C   0  0  0  0  0  0  0  0  0  0  0  0
   -3.7325   -2.6892   -0.7174 C   0  0  0  0  0  0  0  0  0  0  0  0
   -1.9232   -2.9815    0.8801 C   0  0  0  0  0  0  0  0  0  0  0  0
    3.2663    0.9130   -0.6809 C   0  0  0  0  0  0  0  0  0  0  0  0
   -2.9678   -3.5060    0.1240 C   0  0  0  0  0  0  0  0  0  0  0  0
    3.7860   -1.7748    0.0221 C   0  0  0  0  0  0  0  0  0  0  0  0
    4.5127    0.3310   -0.9383 C   0  0  0  0  0  0  0  0  0  0  0  0
    4.7742   -0.9990   -0.5813 C   0  0  0  0  0  0  0  0  0  0  0  0
   -3.6561    1.7797   -1.7210 H   0  0  0  0  0  0  0  0  0  0  0  0
   -4.7801   -0.4024   -2.1032 H   0  0  0  0  0  0  0  0  0  0  0  0
   -0.4856    4.6725    0.4593 H   0  0  0  0  0  0  0  0  0  0  0  0
   -4.5529   -3.0998   -1.2967 H   0  0  0  0  0  0  0  0  0  0  0  0
   -1.3578   -3.6287    1.5444 H   0  0  0  0  0  0  0  0  0  0  0  0
    3.0826    1.9210   -1.0302 H   0  0  0  0  0  0  0  0  0  0  0  0
   -3.2030   -4.5649    0.1960 H   0  0  0  0  0  0  0  0  0  0  0  0
    3.9729   -2.8129    0.2781 H   0  0  0  0  0  0  0  0  0  0  0  0
    5.2748    0.9235   -1.4394 H   0  0  0  0  0  0  0  0  0  0  0  0
   -2.6393    4.5078    0.2556 H   0  0  0  0  0  0  0  0  0  0  0  0
    6.5544   -0.8683   -1.2697 H   0  0  0  0  0  0  0  0  0  0  0  0
  1 15  1  0  0  0  0
  1 16  1  0  0  0  0
  2 17  1  0  0  0  0
  2 37  1  0  0  0  0
  3 19  2  0  0  0  0
  4 27  1  0  0  0  0
  4 38  1  0  0  0  0
  5 13  1  0  0  0  0
  5 18  1  0  0  0  0
  5 29  1  0  0  0  0
  6 17  1  0  0  0  0
  6 19  1  0  0  0  0
  6 30  1  0  0  0  0
  7 16  2  0  0  0  0
  7 20  1  0  0  0  0
  8  9  1  0  0  0  0
  8 10  1  0  0  0  0
  8 17  2  0  0  0  0
  9 11  1  0  0  0  0
  9 18  2  0  0  0  0
 10 12  2  0  0  0  0
 10 19  1  0  0  0  0
 11 13  2  0  0  0  0
 11 15  1  0  0  0  0
 12 14  1  0  0  0  0
 12 16  1  0  0  0  0
 13 21  1  0  0  0  0
 14 20  2  0  0  0  0
 14 23  1  0  0  0  0
 15 22  2  0  0  0  0
 18 28  1  0  0  0  0
 20 25  1  0  0  0  0
 21 24  2  0  0  0  0
 21 31  1  0  0  0  0
 22 24  1  0  0  0  0
 22 32  1  0  0  0  0
 23 26  2  0  0  0  0
 23 33  1  0  0  0  0
 24 34  1  0  0  0  0
 25 27  2  0  0  0  0
 25 35  1  0  0  0  0
 26 27  1  0  0  0  0
 26 36  1  0  0  0  0
M  END
> <PUBCHEM_COMPOUND_CID>
135465363

> <PUBCHEM_CONFORMER_RMSD>
0.6

> <PUBCHEM_CONFORMER_DIVERSEORDER>
1
2

> <PUBCHEM_MMFF94_PARTIAL_CHARGES>
37
1 -0.23
10 0.01
12 -0.01
13 -0.15
14 0.03
15 0.08
16 0.59
17 0.19
18 -0.3
19 0.62
2 -0.53
20 0.18
21 -0.15
22 -0.15
23 -0.15
24 -0.15
25 -0.15
26 -0.15
27 0.08
28 0.15
29 0.27
3 -0.57
30 0.37
31 0.15
32 0.15
33 0.15
34 0.15
35 0.15
36 0.15
37 0.45
38 0.45
4 -0.53
5 0.03
6 -0.54
7 -0.63
8 0.05
9 -0.05

> <PUBCHEM_EFFECTIVE_ROTOR_COUNT>
0

> <PUBCHEM_PHARMACOPHORE_FEATURES>
11
1 2 donor
1 3 acceptor
1 4 donor
1 5 cation
1 5 donor
1 6 donor
5 5 9 11 13 18 rings
5 6 8 10 17 19 rings
5 7 12 14 16 20 rings
6 11 13 15 21 22 24 rings
6 14 20 23 25 26 27 rings

> <PUBCHEM_HEAVY_ATOM_COUNT>
27

> <PUBCHEM_ATOM_DEF_STEREO_COUNT>
0

> <PUBCHEM_ATOM_UDEF_STEREO_COUNT>
0

> <PUBCHEM_BOND_DEF_STEREO_COUNT>
0

> <PUBCHEM_BOND_UDEF_STEREO_COUNT>
0

> <PUBCHEM_ISOTOPIC_ATOM_COUNT>
0

> <PUBCHEM_COMPONENT_COUNT>
1

> <PUBCHEM_CACTVS_TAUTO_COUNT>
-1

> <PUBCHEM_CONFORMER_ID>
0813099300000001

> <PUBCHEM_MMFF94_ENERGY>
127.078

> <PUBCHEM_FEATURE_SELFOVERLAP>
56.051

> <PUBCHEM_SHAPE_FINGERPRINT>
10411042 1 18339083820723856210
10616163 171 18341333284402087926
1100329 8 18340489971905779145
11115154 58 17630863059353835757
11578080 2 17489578004541774865
12553582 1 18411131433573669315
12788726 201 18267296539173933955
13140716 1 18264481974290926897
138480 1 15816503520517008473
13911987 19 17397847046796582164
14114211 80 16388491051718487061
14251757 5 18408884010305311015
14790565 3 18051417266799812641
14866123 147 18341337687086080825
14931854 50 18262789684093248415
15420108 30 16749007115100014066
16945 1 18409440397543520225
17349148 13 18113331995267912554
17909252 39 18269560610025642786
19319366 153 17895474722432800827
19591789 44 16608008560861624227
1979834 28 15809207891848519483
19930381 70 17762336212023091299
20642791 35 18410566306309290225
20775438 99 17191745752712789519
221357 26 18263921202002397647
221490 88 18193276523023102926
22182313 1 18048869990235806801
22393880 68 18260537948751642262
23379529 103 18200881776481470982
23557571 272 18130788894005342948
23559900 14 18410848893777631816
238 59 17186685843129317863
25147074 1 17897163521249355178
266924 87 18193842767343696964
2748010 2 17903351846808437697
3178227 256 18195260927676257577
394222 165 16882144903532723721
4280585 95 18336815451558754520
469060 322 15937279770633745875
57527585 103 17460607058660869825
6669772 16 17334786769552324268
70251023 43 17909821377896409047
9709674 26 18121207947080807887

> <PUBCHEM_SHAPE_MULTIPOLES>
517.23
8.42
4.38
1.06
8.41
2.52
-0.06
-5.52
-3.9
-2.83
0.84
-0.32
-0.26
0.28

> <PUBCHEM_SHAPE_SELFOVERLAP>
1218.115

> <PUBCHEM_SHAPE_VOLUME>
259.6

> <PUBCHEM_COORDINATE_TYPE>
2
5
10

$$$$
