135430692
  -OEChem-03292013293D

 53 56  0     0  0  0  0  0  0999 V2000
   -3.6581   -1.0845   -1.5248 S   0  0  0  0  0  0  0  0  0  0  0  0
   -3.7862   -0.6730    2.6841 S   0  0  0  0  0  0  0  0  0  0  0  0
    1.2956    3.0005    0.9137 O   0  0  0  0  0  0  0  0  0  0  0  0
   -5.0418   -0.9545   -1.9193 O   0  0  0  0  0  0  0  0  0  0  0  0
   -2.8483   -2.2641   -1.7245 O   0  0  0  0  0  0  0  0  0  0  0  0
    2.8366   -1.9827    0.4547 N   0  0  0  0  0  0  0  0  0  0  0  0
   -2.7637    0.3679   -1.8345 N   0  0  0  0  0  0  0  0  0  0  0  0
   -1.7801    2.2012   -0.5677 N   0  0  0  0  0  0  0  0  0  0  0  0
    2.5436   -2.4051   -0.9221 C   0  0  0  0  0  0  0  0  0  0  0  0
    3.0829   -3.1412    1.3247 C   0  0  0  0  0  0  0  0  0  0  0  0
    1.3179   -3.3186   -0.9697 C   0  0  0  0  0  0  0  0  0  0  0  0
    1.8746   -4.0788    1.3506 C   0  0  0  0  0  0  0  0  0  0  0  0
    1.4899   -4.5260   -0.0549 C   0  0  0  0  0  0  0  0  0  0  0  0
    3.9817   -1.0729    0.4778 C   0  0  0  0  0  0  0  0  0  0  0  0
    3.6077    0.3108    0.0171 C   0  0  0  0  0  0  0  0  0  0  0  0
    2.6135    1.0239    0.6871 C   0  0  0  0  0  0  0  0  0  0  0  0
    4.2548    0.8795   -1.0801 C   0  0  0  0  0  0  0  0  0  0  0  0
    2.2665    2.3057    0.2602 C   0  0  0  0  0  0  0  0  0  0  0  0
   -3.6584   -0.8330    0.1688 C   0  0  0  0  0  0  0  0  0  0  0  0
   -2.9692    0.3676    0.4866 C   0  0  0  0  0  0  0  0  0  0  0  0
   -2.4313    1.1004   -0.6428 C   0  0  0  0  0  0  0  0  0  0  0  0
    3.9075    2.1612   -1.5073 C   0  0  0  0  0  0  0  0  0  0  0  0
   -0.8615    4.0395    0.7541 C   0  0  0  0  0  0  0  0  0  0  0  0
    2.9135    2.8744   -0.8370 C   0  0  0  0  0  0  0  0  0  0  0  0
   -1.5978    2.7077    0.7933 C   0  0  0  0  0  0  0  0  0  0  0  0
    0.5301    3.9265    0.1437 C   0  0  0  0  0  0  0  0  0  0  0  0
   -4.1638   -1.5214    1.2288 C   0  0  0  0  0  0  0  0  0  0  0  0
   -2.9564    0.5894    1.8393 C   0  0  0  0  0  0  0  0  0  0  0  0
    3.9726   -3.6941    0.9955 H   0  0  0  0  0  0  0  0  0  0  0  0
    2.3306   -1.5367   -1.5563 H   0  0  0  0  0  0  0  0  0  0  0  0
    3.4036   -2.9264   -1.3634 H   0  0  0  0  0  0  0  0  0  0  0  0
    3.2694   -2.8042    2.3517 H   0  0  0  0  0  0  0  0  0  0  0  0
    1.0229   -3.5675    1.8173 H   0  0  0  0  0  0  0  0  0  0  0  0
    2.0991   -4.9553    1.9689 H   0  0  0  0  0  0  0  0  0  0  0  0
    1.1471   -3.6561   -1.9983 H   0  0  0  0  0  0  0  0  0  0  0  0
    0.4269   -2.7539   -0.6665 H   0  0  0  0  0  0  0  0  0  0  0  0
    2.2715   -5.1820   -0.4574 H   0  0  0  0  0  0  0  0  0  0  0  0
    0.5633   -5.1095   -0.0239 H   0  0  0  0  0  0  0  0  0  0  0  0
    4.8243   -1.4750   -0.1008 H   0  0  0  0  0  0  0  0  0  0  0  0
    4.3564   -0.9566    1.5046 H   0  0  0  0  0  0  0  0  0  0  0  0
    2.1064    0.5908    1.5460 H   0  0  0  0  0  0  0  0  0  0  0  0
    5.0312    0.3359   -1.6115 H   0  0  0  0  0  0  0  0  0  0  0  0
   -2.4994    0.6670   -2.7790 H   0  0  0  0  0  0  0  0  0  0  0  0
    4.4158    2.6060   -2.3578 H   0  0  0  0  0  0  0  0  0  0  0  0
   -0.7739    4.4146    1.7811 H   0  0  0  0  0  0  0  0  0  0  0  0
   -1.4426    4.7733    0.1828 H   0  0  0  0  0  0  0  0  0  0  0  0
    2.6939    3.8797   -1.1841 H   0  0  0  0  0  0  0  0  0  0  0  0
   -0.9815    2.0299    1.3924 H   0  0  0  0  0  0  0  0  0  0  0  0
   -2.5645    2.9551    1.2453 H   0  0  0  0  0  0  0  0  0  0  0  0
    0.4300    3.6128   -0.9029 H   0  0  0  0  0  0  0  0  0  0  0  0
    1.0213    4.9058    0.1762 H   0  0  0  0  0  0  0  0  0  0  0  0
   -4.7191   -2.4483    1.2456 H   0  0  0  0  0  0  0  0  0  0  0  0
   -2.5560    1.3519    2.4840 H   0  0  0  0  0  0  0  0  0  0  0  0
  1  4  2  0  0  0  0
  1  5  2  0  0  0  0
  1  7  1  0  0  0  0
  1 19  1  0  0  0  0
  2 27  1  0  0  0  0
  2 28  1  0  0  0  0
  3 18  1  0  0  0  0
  3 26  1  0  0  0  0
  6  9  1  0  0  0  0
  6 10  1  0  0  0  0
  6 14  1  0  0  0  0
  7 21  1  0  0  0  0
  7 43  1  0  0  0  0
  8 21  2  0  0  0  0
  8 25  1  0  0  0  0
  9 11  1  0  0  0  0
  9 30  1  0  0  0  0
  9 31  1  0  0  0  0
 10 12  1  0  0  0  0
 10 29  1  0  0  0  0
 10 32  1  0  0  0  0
 11 13  1  0  0  0  0
 11 35  1  0  0  0  0
 11 36  1  0  0  0  0
 12 13  1  0  0  0  0
 12 33  1  0  0  0  0
 12 34  1  0  0  0  0
 13 37  1  0  0  0  0
 13 38  1  0  0  0  0
 14 15  1  0  0  0  0
 14 39  1  0  0  0  0
 14 40  1  0  0  0  0
 15 16  2  0  0  0  0
 15 17  1  0  0  0  0
 16 18  1  0  0  0  0
 16 41  1  0  0  0  0
 17 22  2  0  0  0  0
 17 42  1  0  0  0  0
 18 24  2  0  0  0  0
 19 20  1  0  0  0  0
 19 27  2  0  0  0  0
 20 21  1  0  0  0  0
 20 28  2  0  0  0  0
 22 24  1  0  0  0  0
 22 44  1  0  0  0  0
 23 25  1  0  0  0  0
 23 26  1  0  0  0  0
 23 45  1  0  0  0  0
 23 46  1  0  0  0  0
 24 47  1  0  0  0  0
 25 48  1  0  0  0  0
 25 49  1  0  0  0  0
 26 50  1  0  0  0  0
 26 51  1  0  0  0  0
 27 52  1  0  0  0  0
 28 53  1  0  0  0  0
M  END
> <PUBCHEM_COMPOUND_CID>
135430692

> <PUBCHEM_CONFORMER_RMSD>
1.2

> <PUBCHEM_CONFORMER_DIVERSEORDER>
1
16
47
68
111
45
101
73
102
49
78
58
88
13
59
48
11
24
105
7
62
109
15
77
22
84
42
36
23
12
76
17
92
38
4
51
99
57
27
34
37
104
85
9
86
41
116
19
40
3
106
96
30
61
90
98
72
52
114
89
31
110
87
32
8
28
70
64
100
113
53
69
55
94
95
18
118
44
79
81
65
50
56
39
107
91
20
93
6
26
46
2
119
33
10
66
97
5
103
35
63
54
115
83
14
82
25
43
112
108
74
75
60
67
80
29
21
71
117

> <PUBCHEM_MMFF94_PARTIAL_CHARGES>
31
1 1.5
10 0.27
14 0.41
15 -0.14
16 -0.15
17 -0.15
18 0.08
19 -0.06
2 -0.08
20 -0.09
21 0.77
22 -0.15
24 -0.15
25 0.25
26 0.28
27 -0.11
28 -0.11
3 -0.36
4 -0.65
41 0.15
42 0.15
43 0.42
44 0.15
47 0.15
5 -0.65
52 0.15
53 0.15
6 -0.81
7 -0.79
8 -0.7
9 0.27

> <PUBCHEM_EFFECTIVE_ROTOR_COUNT>
8.4

> <PUBCHEM_PHARMACOPHORE_FEATURES>
10
1 3 acceptor
1 4 acceptor
1 5 acceptor
1 6 cation
1 7 donor
1 8 acceptor
5 1 7 19 20 21 rings
5 2 19 20 27 28 rings
6 15 16 17 18 22 24 rings
6 6 9 10 11 12 13 rings

> <PUBCHEM_HEAVY_ATOM_COUNT>
28

> <PUBCHEM_ATOM_DEF_STEREO_COUNT>
0

> <PUBCHEM_ATOM_UDEF_STEREO_COUNT>
0

> <PUBCHEM_BOND_DEF_STEREO_COUNT>
0

> <PUBCHEM_BOND_UDEF_STEREO_COUNT>
0

> <PUBCHEM_ISOTOPIC_ATOM_COUNT>
0

> <PUBCHEM_COMPONENT_COUNT>
1

> <PUBCHEM_CACTVS_TAUTO_COUNT>
-1

> <PUBCHEM_CONFORMER_ID>
0812822400000001

> <PUBCHEM_MMFF94_ENERGY>
77.7867

> <PUBCHEM_FEATURE_SELFOVERLAP>
50.924

> <PUBCHEM_SHAPE_FINGERPRINT>
10764073 3 17686367290855681393
10928967 22 18342747342090794732
12156800 1 14520497190615003014
12539773 59 17418089932136843431
12553582 1 18340773735793785016
13122387 1 17835802989110226674
1361 2 17977667842336060387
152267 14 17908415862306296870
15328829 1 17560248046056941979
15537594 2 18198923545929269476
19026451 147 18266436794143462339
19930381 70 18409174337230782947
20764821 26 18192999433361067130
20775530 9 18191307074586050296
21315759 227 18113905905529493610
235170 7 17313382391377344588
238 59 18335135457625591074
3737641 26 18267889244871940672
445580 102 18335990795925301306
463206 1 18340203093506132363
5309563 4 18410862087542294251
9795274 37 18189903011090666442

> <PUBCHEM_SHAPE_MULTIPOLES>
551.37
9.43
6.14
1.96
3.17
1.25
0.04
2.35
-0.99
-5.11
0.86
2.28
0.78
-1.63

> <PUBCHEM_SHAPE_SELFOVERLAP>
1149.778

> <PUBCHEM_SHAPE_VOLUME>
314.9

> <PUBCHEM_COORDINATE_TYPE>
2
5
10

$$$$
