135483971
  -OEChem-03292013293D

 26 28  0     0  0  0  0  0  0999 V2000
    0.7578   -2.3741    0.0006 O   0  0  0  0  0  0  0  0  0  0  0  0
    1.5527    1.2536    0.0005 O   0  0  0  0  0  0  0  0  0  0  0  0
   -0.6443    2.5776    0.0032 O   0  0  0  0  0  0  0  0  0  0  0  0
   -3.4240    2.5546   -0.0002 O   0  0  0  0  0  0  0  0  0  0  0  0
   -1.1901   -3.5094    0.0022 O   0  0  0  0  0  0  0  0  0  0  0  0
    4.9531   -0.1329   -0.0014 O   0  0  0  0  0  0  0  0  0  0  0  0
    3.6442    2.3736    0.0008 O   0  0  0  0  0  0  0  0  0  0  0  0
   -4.6648    0.0620   -0.0026 O   0  0  0  0  0  0  0  0  0  0  0  0
   -0.5768    0.1427    0.0005 C   0  0  0  0  0  0  0  0  0  0  0  0
    0.7732    0.0920    0.0004 C   0  0  0  0  0  0  0  0  0  0  0  0
   -1.3029   -1.1255    0.0004 C   0  0  0  0  0  0  0  0  0  0  0  0
    1.4937   -1.1695   -0.0001 C   0  0  0  0  0  0  0  0  0  0  0  0
   -1.3529    1.3919    0.0007 C   0  0  0  0  0  0  0  0  0  0  0  0
   -2.6453   -1.1599   -0.0006 C   0  0  0  0  0  0  0  0  0  0  0  0
   -0.6032   -2.4326    0.0012 C   0  0  0  0  0  0  0  0  0  0  0  0
   -2.6959    1.3833   -0.0003 C   0  0  0  0  0  0  0  0  0  0  0  0
    2.8330   -1.2179   -0.0013 C   0  0  0  0  0  0  0  0  0  0  0  0
   -3.4384    0.0947   -0.0016 C   0  0  0  0  0  0  0  0  0  0  0  0
    3.5874    0.0084   -0.0017 C   0  0  0  0  0  0  0  0  0  0  0  0
    2.9435    1.1874   -0.0007 C   0  0  0  0  0  0  0  0  0  0  0  0
   -3.2160   -2.0827   -0.0008 H   0  0  0  0  0  0  0  0  0  0  0  0
    3.3530   -2.1699   -0.0016 H   0  0  0  0  0  0  0  0  0  0  0  0
   -1.2852    3.3098    0.0034 H   0  0  0  0  0  0  0  0  0  0  0  0
   -4.3661    2.3118   -0.0011 H   0  0  0  0  0  0  0  0  0  0  0  0
    5.1787   -1.0785   -0.0016 H   0  0  0  0  0  0  0  0  0  0  0  0
    2.9711    3.0764    0.0021 H   0  0  0  0  0  0  0  0  0  0  0  0
  1 12  1  0  0  0  0
  1 15  1  0  0  0  0
  2 10  1  0  0  0  0
  2 20  1  0  0  0  0
  3 13  1  0  0  0  0
  3 23  1  0  0  0  0
  4 16  1  0  0  0  0
  4 24  1  0  0  0  0
  5 15  2  0  0  0  0
  6 19  1  0  0  0  0
  6 25  1  0  0  0  0
  7 20  1  0  0  0  0
  7 26  1  0  0  0  0
  8 18  2  0  0  0  0
  9 10  2  0  0  0  0
  9 11  1  0  0  0  0
  9 13  1  0  0  0  0
 10 12  1  0  0  0  0
 11 14  2  0  0  0  0
 11 15  1  0  0  0  0
 12 17  2  0  0  0  0
 13 16  2  0  0  0  0
 14 18  1  0  0  0  0
 14 21  1  0  0  0  0
 16 18  1  0  0  0  0
 17 19  1  0  0  0  0
 17 22  1  0  0  0  0
 19 20  2  0  0  0  0
M  END
> <PUBCHEM_COMPOUND_CID>
135483971

> <PUBCHEM_CONFORMER_RMSD>
0.6

> <PUBCHEM_CONFORMER_DIVERSEORDER>
1

> <PUBCHEM_MMFF94_PARTIAL_CHARGES>
25
1 -0.23
10 0.08
11 0.01
12 0.08
13 0.08
14 -0.14
15 0.71
16 0.09
17 -0.15
18 0.54
19 0.08
2 -0.15
20 0.15
21 0.15
22 0.15
23 0.45
24 0.45
25 0.45
26 0.45
3 -0.53
4 -0.53
5 -0.57
6 -0.53
7 -0.53
8 -0.57

> <PUBCHEM_EFFECTIVE_ROTOR_COUNT>
0

> <PUBCHEM_PHARMACOPHORE_FEATURES>
10
1 2 acceptor
1 3 donor
1 4 donor
1 5 acceptor
1 6 donor
1 7 donor
1 8 acceptor
6 1 9 10 11 12 15 rings
6 2 10 12 17 19 20 rings
6 9 11 13 14 16 18 rings

> <PUBCHEM_HEAVY_ATOM_COUNT>
20

> <PUBCHEM_ATOM_DEF_STEREO_COUNT>
0

> <PUBCHEM_ATOM_UDEF_STEREO_COUNT>
0

> <PUBCHEM_BOND_DEF_STEREO_COUNT>
0

> <PUBCHEM_BOND_UDEF_STEREO_COUNT>
0

> <PUBCHEM_ISOTOPIC_ATOM_COUNT>
0

> <PUBCHEM_COMPONENT_COUNT>
1

> <PUBCHEM_CACTVS_TAUTO_COUNT>
-1

> <PUBCHEM_CONFORMER_ID>
0813524300000001

> <PUBCHEM_MMFF94_ENERGY>
60.0795

> <PUBCHEM_FEATURE_SELFOVERLAP>
50.81

> <PUBCHEM_SHAPE_FINGERPRINT>
10319926 262 18198318824326130176
10411042 1 17329711432062138926
10608611 8 18411417310739111208
10967382 1 18410573980861849542
11132069 177 18340762740872244368
11578080 2 16771534346678399626
12173636 292 18410852187516219381
12390115 104 18199767872112018704
12403260 363 18410846638275911314
13140716 1 18266178529043055234
13380535 76 18412826880298283262
13583140 156 17023175033368216585
138480 1 17546164099856237959
14787075 74 18272929457955671589
14790565 3 18412272714112482857
15042514 8 18264774440221303651
15196674 1 18338799025736730502
15309172 13 18339088103085078257
15442244 35 18337668595172413514
15536298 74 18270963431990778134
16945 1 18266740362257331046
1813 80 16807005430453963162
18186145 218 18200602379967490480
193761 8 17762337316019538407
19591789 44 18410857650735887411
20510252 161 18271808995145409041
21267235 1 18410302405795396610
21524375 3 18261394412221975050
23227448 37 18340768259905167884
2334 1 18410855460392016329
23402539 116 18342448266348888471
23463225 33 18335419041278217488
23557571 272 18054241087700443350
23559900 14 18272088233024328974
238 59 17106461733629103821
2748010 2 18409737231354786743
3091708 16 9196626953670765315
335352 9 18410573977068101054
350125 39 18410014295094434537
352729 6 18411423942147608150
43471831 8 18263924341433450451
5104073 3 18337954592258830448
54173680 148 18193559093116513682
58051976 378 18341328894628590965
69090 78 18411979178292072195
7364860 26 17979636727931774439
9709674 26 18342462568859249814

> <PUBCHEM_SHAPE_MULTIPOLES>
364.64
7.19
3.06
0.58
2.29
0.81
0
-2.67
0.01
-0.84
0
-0.01
0.02
0

> <PUBCHEM_SHAPE_SELFOVERLAP>
819.357

> <PUBCHEM_SHAPE_VOLUME>
187.5

> <PUBCHEM_COORDINATE_TYPE>
2
5
10

$$$$
