135465084
  -OEChem-03292013293D

 48 50  0     1  0  0  0  0  0999 V2000
    1.1706    0.7001    1.1791 O   0  0  0  0  0  0  0  0  0  0  0  0
   -0.0653   -2.1005   -0.7206 O   0  0  0  0  0  0  0  0  0  0  0  0
    2.1551   -2.1519    0.9043 O   0  0  0  0  0  0  0  0  0  0  0  0
    3.2255    2.4384    0.3999 O   0  0  0  0  0  0  0  0  0  0  0  0
    0.5186   -2.0343   -2.9549 O   0  0  0  0  0  0  0  0  0  0  0  0
    4.3372   -2.5790    0.2777 O   0  0  0  0  0  0  0  0  0  0  0  0
   -5.2396    2.4190   -0.4609 O   0  0  0  0  0  0  0  0  0  0  0  0
    3.9579    3.4912   -1.5215 O   0  0  0  0  0  0  0  0  0  0  0  0
   -1.1160    0.7484    0.3265 N   0  0  0  0  0  0  0  0  0  0  0  0
   -2.2716    2.5225   -0.3940 N   0  0  0  0  0  0  0  0  0  0  0  0
   -2.9222   -0.7770    0.8458 N   0  0  0  0  0  0  0  0  0  0  0  0
   -5.0362    0.2488    0.3774 N   0  0  0  0  0  0  0  0  0  0  0  0
   -4.9253   -1.9463    1.2214 N   0  0  0  0  0  0  0  0  0  0  0  0
    0.6311   -0.8928   -0.4860 C   0  0  2  0  0  0  0  0  0  0  0  0
    2.0716   -1.1111   -0.0682 C   0  0  1  0  0  0  0  0  0  0  0  0
    0.0751   -0.1040    0.6950 C   0  0  1  0  0  0  0  0  0  0  0  0
    2.4085    0.2047    0.6217 C   0  0  1  0  0  0  0  0  0  0  0  0
    2.9558    1.2565   -0.3333 C   0  0  0  0  0  0  0  0  0  0  0  0
   -2.4332    0.4053    0.4107 C   0  0  0  0  0  0  0  0  0  0  0  0
   -1.0700    2.0311   -0.1629 C   0  0  0  0  0  0  0  0  0  0  0  0
   -3.1141    1.5114   -0.0371 C   0  0  0  0  0  0  0  0  0  0  0  0
   -0.0444   -2.5688   -2.0092 C   0  0  0  0  0  0  0  0  0  0  0  0
    3.3521   -2.8047    0.9675 C   0  0  0  0  0  0  0  0  0  0  0  0
   -4.5500    1.4826   -0.0775 C   0  0  0  0  0  0  0  0  0  0  0  0
   -4.2363   -0.8314    0.8196 C   0  0  0  0  0  0  0  0  0  0  0  0
   -0.8190   -3.8481   -2.1076 C   0  0  0  0  0  0  0  0  0  0  0  0
    3.7277    3.4899   -0.3198 C   0  0  0  0  0  0  0  0  0  0  0  0
    3.2934   -3.8644    2.0257 C   0  0  0  0  0  0  0  0  0  0  0  0
    3.9632    4.6642    0.5810 C   0  0  0  0  0  0  0  0  0  0  0  0
    0.5999   -0.2475   -1.3750 H   0  0  0  0  0  0  0  0  0  0  0  0
    2.7030   -1.3377   -0.9346 H   0  0  0  0  0  0  0  0  0  0  0  0
   -0.2681   -0.7494    1.5124 H   0  0  0  0  0  0  0  0  0  0  0  0
    3.0995    0.0742    1.4623 H   0  0  0  0  0  0  0  0  0  0  0  0
    2.2232    1.4905   -1.1143 H   0  0  0  0  0  0  0  0  0  0  0  0
    3.8796    0.8943   -0.7990 H   0  0  0  0  0  0  0  0  0  0  0  0
   -0.1382    2.5530   -0.3328 H   0  0  0  0  0  0  0  0  0  0  0  0
   -0.3621   -4.6067   -1.4673 H   0  0  0  0  0  0  0  0  0  0  0  0
   -0.8004   -4.2055   -3.1411 H   0  0  0  0  0  0  0  0  0  0  0  0
   -1.8582   -3.6740   -1.8174 H   0  0  0  0  0  0  0  0  0  0  0  0
    3.0972   -3.4061    2.9982 H   0  0  0  0  0  0  0  0  0  0  0  0
    4.2547   -4.3838    2.0726 H   0  0  0  0  0  0  0  0  0  0  0  0
    2.5161   -4.5918    1.7785 H   0  0  0  0  0  0  0  0  0  0  0  0
   -6.0439    0.1207    0.3903 H   0  0  0  0  0  0  0  0  0  0  0  0
    4.6915    4.3994    1.3515 H   0  0  0  0  0  0  0  0  0  0  0  0
    4.3623    5.4970   -0.0050 H   0  0  0  0  0  0  0  0  0  0  0  0
    3.0195    4.9778    1.0343 H   0  0  0  0  0  0  0  0  0  0  0  0
   -4.4395   -2.7719    1.5544 H   0  0  0  0  0  0  0  0  0  0  0  0
   -5.9386   -1.9791    1.1975 H   0  0  0  0  0  0  0  0  0  0  0  0
  1 16  1  0  0  0  0
  1 17  1  0  0  0  0
  2 14  1  0  0  0  0
  2 22  1  0  0  0  0
  3 15  1  0  0  0  0
  3 23  1  0  0  0  0
  4 18  1  0  0  0  0
  4 27  1  0  0  0  0
  5 22  2  0  0  0  0
  6 23  2  0  0  0  0
  7 24  2  0  0  0  0
  8 27  2  0  0  0  0
  9 16  1  0  0  0  0
  9 19  1  0  0  0  0
  9 20  1  0  0  0  0
 10 20  2  0  0  0  0
 10 21  1  0  0  0  0
 11 19  1  0  0  0  0
 11 25  2  0  0  0  0
 12 24  1  0  0  0  0
 12 25  1  0  0  0  0
 12 43  1  0  0  0  0
 13 25  1  0  0  0  0
 13 47  1  0  0  0  0
 13 48  1  0  0  0  0
 14 15  1  0  0  0  0
 14 16  1  0  0  0  0
 14 30  1  0  0  0  0
 15 17  1  0  0  0  0
 15 31  1  0  0  0  0
 16 32  1  0  0  0  0
 17 18  1  0  0  0  0
 17 33  1  0  0  0  0
 18 34  1  0  0  0  0
 18 35  1  0  0  0  0
 19 21  2  0  0  0  0
 20 36  1  0  0  0  0
 21 24  1  0  0  0  0
 22 26  1  0  0  0  0
 23 28  1  0  0  0  0
 26 37  1  0  0  0  0
 26 38  1  0  0  0  0
 26 39  1  0  0  0  0
 27 29  1  0  0  0  0
 28 40  1  0  0  0  0
 28 41  1  0  0  0  0
 28 42  1  0  0  0  0
 29 44  1  0  0  0  0
 29 45  1  0  0  0  0
 29 46  1  0  0  0  0
M  END
> <PUBCHEM_COMPOUND_CID>
135465084

> <PUBCHEM_CONFORMER_RMSD>
1

> <PUBCHEM_CONFORMER_DIVERSEORDER>
1
32
15
17
18
30
25
14
19
28
41
21
31
8
26
7
12
42
5
27
3
29
34
36
37
20
39
38
10
2
33
13
24
4
11
23
22
40
16
6
35
9

> <PUBCHEM_MMFF94_PARTIAL_CHARGES>
33
1 -0.56
10 -0.57
11 -0.58
12 -0.49
13 -0.85
14 0.28
15 0.28
16 0.54
17 0.28
18 0.28
19 -0.03
2 -0.43
20 0.04
21 0.14
22 0.66
23 0.66
24 0.72
25 0.56
26 0.06
27 0.66
28 0.06
29 0.06
3 -0.43
36 0.15
4 -0.43
43 0.37
47 0.4
48 0.4
5 -0.57
6 -0.57
7 -0.57
8 -0.57
9 0.05

> <PUBCHEM_EFFECTIVE_ROTOR_COUNT>
9

> <PUBCHEM_PHARMACOPHORE_FEATURES>
11
1 1 acceptor
1 12 donor
1 13 donor
1 5 acceptor
1 6 acceptor
1 7 acceptor
1 8 acceptor
3 9 10 20 cation
5 1 14 15 16 17 rings
5 9 10 19 20 21 rings
6 11 12 19 21 24 25 rings

> <PUBCHEM_HEAVY_ATOM_COUNT>
29

> <PUBCHEM_ATOM_DEF_STEREO_COUNT>
4

> <PUBCHEM_ATOM_UDEF_STEREO_COUNT>
0

> <PUBCHEM_BOND_DEF_STEREO_COUNT>
0

> <PUBCHEM_BOND_UDEF_STEREO_COUNT>
0

> <PUBCHEM_ISOTOPIC_ATOM_COUNT>
0

> <PUBCHEM_COMPONENT_COUNT>
1

> <PUBCHEM_CACTVS_TAUTO_COUNT>
-1

> <PUBCHEM_CONFORMER_ID>
0813087C00000001

> <PUBCHEM_MMFF94_ENERGY>
58.6798

> <PUBCHEM_FEATURE_SELFOVERLAP>
56.001

> <PUBCHEM_SHAPE_FINGERPRINT>
10074138 170 17400342942792283728
10871710 139 17764025070410122932
11405975 8 18335703776478153729
12173636 292 17830456442643855844
12633257 1 18195816154765777227
13149001 5 14888472796209860870
13583140 156 18042390361902340606
13955234 65 18407762529967575008
140371 6 17982452590174805009
14790565 3 17904205072089999560
14955137 171 18268993086285894838
17980427 26 17895176819095244154
18681886 176 18271240513627440682
19319366 153 18193832871838689242
20600515 1 17467358820322465716
21033648 144 18334850576740516485
21033648 29 17485333748241019850
21065198 57 18262516992493501617
21756936 100 17902514028145064408
23227448 37 17840028781695210212
23558518 356 18123169450482432418
23559900 14 18263355911011803153
283562 15 17619051168396107278
394222 165 18341057388719374290
469060 322 17609478781288249919
5104073 3 18336834100417667377
57527293 21 18271258204925378267
6669772 16 18130241457716570620
67856867 119 18335135393058897272
9981440 41 18116433846081583360

> <PUBCHEM_SHAPE_MULTIPOLES>
524.95
9.67
5.73
1.68
7.29
1.08
0.96
5.23
-2.65
-7.77
0.8
-0.55
-2.1
-1.41

> <PUBCHEM_SHAPE_SELFOVERLAP>
1116.24

> <PUBCHEM_SHAPE_VOLUME>
291.2

> <PUBCHEM_COORDINATE_TYPE>
2
5
10

$$$$
