135407624
  -OEChem-03292013293D

 39 43  0     1  0  0  0  0  0999 V2000
    5.9116    0.4049    2.9467 Br  0  0  0  0  0  0  0  0  0  0  0  0
    2.4893    0.1309   -2.4833 S   0  0  0  0  0  0  0  0  0  0  0  0
   -1.0915   -2.6647   -0.3850 O   0  0  0  0  0  0  0  0  0  0  0  0
    6.7485   -0.9792    0.2828 O   0  0  0  0  0  0  0  0  0  0  0  0
    0.2484   -0.3948   -1.0994 N   0  0  0  0  0  0  0  0  0  0  0  0
   -3.7013    2.2538   -0.1447 N   0  0  0  0  0  0  0  0  0  0  0  0
   -3.9461   -2.3289    0.5911 N   0  0  0  0  0  0  0  0  0  0  0  0
    1.0778    0.7229   -1.4929 C   0  0  1  0  0  0  0  0  0  0  0  0
    1.6693    1.4131   -0.2519 C   0  0  0  0  0  0  0  0  0  0  0  0
   -3.6831   -0.1358    0.1780 C   0  0  0  0  0  0  0  0  0  0  0  0
    3.0037    0.7761    0.0189 C   0  0  0  0  0  0  0  0  0  0  0  0
   -4.8755   -0.1736    0.7378 C   0  0  0  0  0  0  0  0  0  0  0  0
   -1.0513   -0.2540   -0.6870 C   0  0  0  0  0  0  0  0  0  0  0  0
   -3.0717    1.1298   -0.1846 C   0  0  0  0  0  0  0  0  0  0  0  0
   -3.0561   -1.3991    0.1107 C   0  0  0  0  0  0  0  0  0  0  0  0
   -5.6641    1.0292    1.0127 C   0  0  0  0  0  0  0  0  0  0  0  0
    3.5621    0.1101   -1.0754 C   0  0  0  0  0  0  0  0  0  0  0  0
   -1.7896   -1.4804   -0.3118 C   0  0  0  0  0  0  0  0  0  0  0  0
   -1.6452    0.9654   -0.6127 C   0  0  0  0  0  0  0  0  0  0  0  0
   -5.1599    2.2160    0.1582 C   0  0  0  0  0  0  0  0  0  0  0  0
   -4.9814   -1.6144    0.9558 C   0  0  0  0  0  0  0  0  0  0  0  0
    3.7064    0.8708    1.2144 C   0  0  0  0  0  0  0  0  0  0  0  0
    4.8159   -0.4788   -0.9948 C   0  0  0  0  0  0  0  0  0  0  0  0
    4.9661    0.2758    1.3076 C   0  0  0  0  0  0  0  0  0  0  0  0
    5.5177   -0.3952    0.2088 C   0  0  0  0  0  0  0  0  0  0  0  0
    0.5269    1.4288   -2.1228 H   0  0  0  0  0  0  0  0  0  0  0  0
    1.0187    1.3375    0.6260 H   0  0  0  0  0  0  0  0  0  0  0  0
    1.8341    2.4775   -0.4615 H   0  0  0  0  0  0  0  0  0  0  0  0
    0.6547   -1.3243   -1.0878 H   0  0  0  0  0  0  0  0  0  0  0  0
   -6.7275    0.8608    0.8128 H   0  0  0  0  0  0  0  0  0  0  0  0
   -5.5685    1.2812    2.0754 H   0  0  0  0  0  0  0  0  0  0  0  0
   -1.1480    1.8948   -0.8658 H   0  0  0  0  0  0  0  0  0  0  0  0
   -5.6917    2.2196   -0.8018 H   0  0  0  0  0  0  0  0  0  0  0  0
   -5.4270    3.1513    0.6633 H   0  0  0  0  0  0  0  0  0  0  0  0
   -5.8951   -2.0340    1.4002 H   0  0  0  0  0  0  0  0  0  0  0  0
    3.2736    1.4055    2.0553 H   0  0  0  0  0  0  0  0  0  0  0  0
    5.2382   -0.9955   -1.8518 H   0  0  0  0  0  0  0  0  0  0  0  0
   -1.6883   -3.3783   -0.0993 H   0  0  0  0  0  0  0  0  0  0  0  0
    6.9590   -1.3922   -0.5722 H   0  0  0  0  0  0  0  0  0  0  0  0
  1 24  1  0  0  0  0
  2  8  1  0  0  0  0
  2 17  1  0  0  0  0
  3 18  1  0  0  0  0
  3 38  1  0  0  0  0
  4 25  1  0  0  0  0
  4 39  1  0  0  0  0
  5  8  1  0  0  0  0
  5 13  1  0  0  0  0
  5 29  1  0  0  0  0
  6 14  2  0  0  0  0
  6 20  1  0  0  0  0
  7 15  1  0  0  0  0
  7 21  2  0  0  0  0
  8  9  1  0  0  0  0
  8 26  1  0  0  0  0
  9 11  1  0  0  0  0
  9 27  1  0  0  0  0
  9 28  1  0  0  0  0
 10 12  2  0  0  0  0
 10 14  1  0  0  0  0
 10 15  1  0  0  0  0
 11 17  1  0  0  0  0
 11 22  2  0  0  0  0
 12 16  1  0  0  0  0
 12 21  1  0  0  0  0
 13 18  1  0  0  0  0
 13 19  2  0  0  0  0
 14 19  1  0  0  0  0
 15 18  2  0  0  0  0
 16 20  1  0  0  0  0
 16 30  1  0  0  0  0
 16 31  1  0  0  0  0
 17 23  2  0  0  0  0
 19 32  1  0  0  0  0
 20 33  1  0  0  0  0
 20 34  1  0  0  0  0
 21 35  1  0  0  0  0
 22 24  1  0  0  0  0
 22 36  1  0  0  0  0
 23 25  1  0  0  0  0
 23 37  1  0  0  0  0
 24 25  2  0  0  0  0
M  END
> <PUBCHEM_COMPOUND_CID>
135407624

> <PUBCHEM_CONFORMER_RMSD>
0.6

> <PUBCHEM_CONFORMER_DIVERSEORDER>
1
66
33
52
13
65
8
56
4
54
61
5
68
34
57
3
50
6
2
55
58
15
67
60
7
62
18
31
26
9
40
32
16
41
46
27
42
20
10
25
51
59
19
63
39
43
22
21
53
45
11
14
29
44
12
37
28
49
36
47
24
48
30
23
17
64
35
38

> <PUBCHEM_MMFF94_PARTIAL_CHARGES>
32
1 -0.11
10 0.01
11 -0.14
12 -0.12
13 0.1
14 0.42
15 0.17
16 0.14
17 0.1
18 0.08
19 -0.14
2 -0.33
20 0.25
21 0.38
22 -0.15
23 -0.15
24 0.11
25 0.08
29 0.4
3 -0.53
32 0.15
35 0.06
36 0.15
37 0.15
38 0.45
39 0.45
4 -0.53
5 -0.87
6 -0.7
7 -0.62
8 0.6
9 0.14

> <PUBCHEM_EFFECTIVE_ROTOR_COUNT>
3

> <PUBCHEM_PHARMACOPHORE_FEATURES>
12
1 1 hydrophobe
1 3 donor
1 4 donor
1 5 cation
1 5 donor
1 6 acceptor
1 7 acceptor
5 2 8 9 11 17 rings
5 7 10 12 15 21 rings
6 10 13 14 15 18 19 rings
6 11 17 22 23 24 25 rings
6 6 10 12 14 16 20 rings

> <PUBCHEM_HEAVY_ATOM_COUNT>
25

> <PUBCHEM_ATOM_DEF_STEREO_COUNT>
0

> <PUBCHEM_ATOM_UDEF_STEREO_COUNT>
1

> <PUBCHEM_BOND_DEF_STEREO_COUNT>
0

> <PUBCHEM_BOND_UDEF_STEREO_COUNT>
0

> <PUBCHEM_ISOTOPIC_ATOM_COUNT>
0

> <PUBCHEM_COMPONENT_COUNT>
1

> <PUBCHEM_CACTVS_TAUTO_COUNT>
-1

> <PUBCHEM_CONFORMER_ID>
0812280800000001

> <PUBCHEM_MMFF94_ENERGY>
78.2021

> <PUBCHEM_FEATURE_SELFOVERLAP>
61.187

> <PUBCHEM_SHAPE_FINGERPRINT>
10 15 18201995564827938776
10319926 262 18412547617203044490
10928967 22 16515947234342586570
11089746 13 13398627256371799314
11545043 162 18412826897461984016
12236239 1 17531256075050360117
12403259 415 17917723408449311429
12422481 6 17969494927366915650
12596602 18 18334295388008952064
12616971 3 17240492419987183109
12633257 1 18411981398879926188
12925494 130 18124598579080025433
13103583 49 17821446863238494736
13402501 40 17703505519413582312
13583140 156 18060135431575783655
13675066 3 18131636698526286380
13878862 14 16128076877141637728
14223995 32 18054512404816755369
14251764 30 14562533968165591232
14341114 176 18272370897648919424
14420673 8 18263084331903927874
14466204 15 18410297982227189961
14528608 73 11527945651694768362
14951699 99 18129657647054887976
15042514 8 18193003836299111795
15188451 53 18335414729374048271
15326921 28 17754436977109309861
15348495 7 18272929462023850984
15537594 2 17023180509794456058
15799311 1 16081381725693894810
17349148 13 17530971310255313935
17857418 61 17458059382723634770
1813 80 16805324366841405830
19377110 9 17458339784729272020
19438510 23 17129598843339617481
19489759 90 18412827984668912941
20157964 124 15913333467863315996
20554085 129 18269541755509902553
21033648 144 16128646488072356880
21033648 29 17988921175894145552
22950370 63 16732701653659333092
23522609 53 17096957714016781668
23559900 14 18127995055906630246
2748736 6 14763764452389362770
2767999 5 14189573035849984690
2838139 119 15913608350207574424
3004659 81 18113627793844381132
312425 54 18335130982496450962
314194 84 15864067663859669544
345986 75 17023171705043524804
351380 3 17095241419473120704
3737641 26 16951394426440890794
4409770 3 17532358778356465037
465052 167 16226053288391913938
474 4 14764350457347212166
5104073 3 18261965157799670689
513202 73 15792283796286845855
5265222 85 18268446788110357726
5364581 5 18056467576961280000
5385378 56 18196664999338848635
54039377 194 16081919344937890194
559249 180 17967814933950359447
573450 72 18186526526909193301
57724786 102 16343425124160380424
5924683 9 17773869981825253063
7226269 152 18131352985845539673
7970288 3 16370712730602697194
9981440 41 18337118874156257155
9995097 60 18131073714355635862

> <PUBCHEM_SHAPE_MULTIPOLES>
497.6
16
1.99
1.89
7.2
0.33
-0.32
-1.6
-8.64
-3.05
-0.24
3.33
-0.2
1.62

> <PUBCHEM_SHAPE_SELFOVERLAP>
1096.631

> <PUBCHEM_SHAPE_VOLUME>
276.2

> <PUBCHEM_COORDINATE_TYPE>
2
5
10

$$$$
