135403802
  -OEChem-03292013293D

 34 37  0     1  0  0  0  0  0999 V2000
    2.3384    1.9061   -0.0892 O   0  0  0  0  0  0  0  0  0  0  0  0
   -0.1150    2.3004   -1.5025 O   0  0  0  0  0  0  0  0  0  0  0  0
   -3.9801   -2.6127   -0.5172 O   0  0  0  0  0  0  0  0  0  0  0  0
   -5.5238   -0.4617    0.3106 O   0  0  0  0  0  0  0  0  0  0  0  0
    4.7895    0.6614   -0.0484 O   0  0  0  0  0  0  0  0  0  0  0  0
    4.8201   -2.1226    0.0684 O   0  0  0  0  0  0  0  0  0  0  0  0
   -0.0677    1.8815   -0.1358 C   0  0  1  0  0  0  0  0  0  0  0  0
   -1.3875    2.2567    0.5561 C   0  0  0  0  0  0  0  0  0  0  0  0
   -0.0056    0.3663   -0.1006 C   0  0  0  0  0  0  0  0  0  0  0  0
   -1.4057   -0.0785   -0.0514 C   0  0  0  0  0  0  0  0  0  0  0  0
   -2.2019    1.0156    0.3215 C   0  0  0  0  0  0  0  0  0  0  0  0
    1.1701    2.4608    0.5279 C   0  0  0  0  0  0  0  0  0  0  0  0
    1.1759   -0.2780    0.0195 C   0  0  0  0  0  0  0  0  0  0  0  0
    2.4181    0.5205   -0.0054 C   0  0  0  0  0  0  0  0  0  0  0  0
   -2.0038   -1.2933   -0.3543 C   0  0  0  0  0  0  0  0  0  0  0  0
   -3.5782    0.9000    0.4607 C   0  0  0  0  0  0  0  0  0  0  0  0
    1.2887   -1.7160    0.2215 C   0  0  0  0  0  0  0  0  0  0  0  0
   -3.3915   -1.4168   -0.2267 C   0  0  0  0  0  0  0  0  0  0  0  0
   -4.1728   -0.3301    0.1860 C   0  0  0  0  0  0  0  0  0  0  0  0
    3.6230   -0.0725    0.0089 C   0  0  0  0  0  0  0  0  0  0  0  0
    2.4773   -2.3307    0.2514 C   0  0  0  0  0  0  0  0  0  0  0  0
    3.7326   -1.5563    0.0992 C   0  0  0  0  0  0  0  0  0  0  0  0
   -1.8630    3.1313    0.1010 H   0  0  0  0  0  0  0  0  0  0  0  0
   -1.2667    2.4075    1.6344 H   0  0  0  0  0  0  0  0  0  0  0  0
    1.2175    3.5453    0.3811 H   0  0  0  0  0  0  0  0  0  0  0  0
    1.2048    2.2667    1.6079 H   0  0  0  0  0  0  0  0  0  0  0  0
   -1.4211   -2.1355   -0.7104 H   0  0  0  0  0  0  0  0  0  0  0  0
   -4.1715    1.7554    0.7685 H   0  0  0  0  0  0  0  0  0  0  0  0
   -0.1735    3.2711   -1.5136 H   0  0  0  0  0  0  0  0  0  0  0  0
    0.4048   -2.3185    0.3798 H   0  0  0  0  0  0  0  0  0  0  0  0
    2.5559   -3.4015    0.4011 H   0  0  0  0  0  0  0  0  0  0  0  0
   -3.2938   -3.2483   -0.7835 H   0  0  0  0  0  0  0  0  0  0  0  0
   -5.8990    0.3871    0.6018 H   0  0  0  0  0  0  0  0  0  0  0  0
    5.5310    0.0322   -0.0201 H   0  0  0  0  0  0  0  0  0  0  0  0
  1 12  1  0  0  0  0
  1 14  1  0  0  0  0
  2  7  1  0  0  0  0
  2 29  1  0  0  0  0
  3 18  1  0  0  0  0
  3 32  1  0  0  0  0
  4 19  1  0  0  0  0
  4 33  1  0  0  0  0
  5 20  1  0  0  0  0
  5 34  1  0  0  0  0
  6 22  2  0  0  0  0
  7  8  1  0  0  0  0
  7  9  1  0  0  0  0
  7 12  1  0  0  0  0
  8 11  1  0  0  0  0
  8 23  1  0  0  0  0
  8 24  1  0  0  0  0
  9 10  1  0  0  0  0
  9 13  2  0  0  0  0
 10 11  1  0  0  0  0
 10 15  2  0  0  0  0
 11 16  2  0  0  0  0
 12 25  1  0  0  0  0
 12 26  1  0  0  0  0
 13 14  1  0  0  0  0
 13 17  1  0  0  0  0
 14 20  2  0  0  0  0
 15 18  1  0  0  0  0
 15 27  1  0  0  0  0
 16 19  1  0  0  0  0
 16 28  1  0  0  0  0
 17 21  2  0  0  0  0
 17 30  1  0  0  0  0
 18 19  2  0  0  0  0
 20 22  1  0  0  0  0
 21 22  1  0  0  0  0
 21 31  1  0  0  0  0
M  END
> <PUBCHEM_COMPOUND_CID>
135403802

> <PUBCHEM_CONFORMER_RMSD>
0.6

> <PUBCHEM_CONFORMER_DIVERSEORDER>
1
2

> <PUBCHEM_MMFF94_PARTIAL_CHARGES>
29
1 -0.36
10 0.03
11 -0.14
12 0.28
14 0.08
15 -0.15
16 -0.15
17 -0.15
18 0.08
19 0.08
2 -0.68
20 0.09
21 -0.14
22 0.54
27 0.15
28 0.15
29 0.4
3 -0.53
30 0.15
31 0.15
32 0.45
33 0.45
34 0.45
4 -0.53
5 -0.53
6 -0.57
7 0.42
8 0.14
9 -0.17

> <PUBCHEM_EFFECTIVE_ROTOR_COUNT>
0.6

> <PUBCHEM_PHARMACOPHORE_FEATURES>
11
1 1 acceptor
1 2 acceptor
1 2 donor
1 3 donor
1 4 donor
1 5 donor
1 6 acceptor
5 7 8 9 10 11 rings
6 1 7 9 12 13 14 rings
6 10 11 15 16 18 19 rings
6 13 14 17 20 21 22 rings

> <PUBCHEM_HEAVY_ATOM_COUNT>
22

> <PUBCHEM_ATOM_DEF_STEREO_COUNT>
0

> <PUBCHEM_ATOM_UDEF_STEREO_COUNT>
1

> <PUBCHEM_BOND_DEF_STEREO_COUNT>
0

> <PUBCHEM_BOND_UDEF_STEREO_COUNT>
0

> <PUBCHEM_ISOTOPIC_ATOM_COUNT>
0

> <PUBCHEM_COMPONENT_COUNT>
1

> <PUBCHEM_CACTVS_TAUTO_COUNT>
-1

> <PUBCHEM_CONFORMER_ID>
0812191A00000001

> <PUBCHEM_MMFF94_ENERGY>
72.7376

> <PUBCHEM_FEATURE_SELFOVERLAP>
56.024

> <PUBCHEM_SHAPE_FINGERPRINT>
10616163 171 18342178916128521527
10967382 1 18338797922156904354
11578080 2 17702355473601509049
11806522 49 18410292544708591150
12236239 1 18202566176997559235
12553582 1 18337379448914938611
12596599 1 17987817227660299530
13140716 1 18342181076781356003
13544653 18 18408047316184280497
14178342 30 18123175823986819320
14341114 176 18341619208801204851
14787075 74 18335139830218711880
14790565 3 17977671140776718764
15042514 8 18051410665450149306
15196674 1 18410856521132868008
15209289 33 18335141972811644682
15352361 1 18411418401550028131
15375462 189 18408041788434900075
15442244 35 18412829066721181225
15536298 74 18343301495882712808
15927050 60 17622443166342396868
16945 1 18412538799609188769
17357779 13 18114727279386004901
17492 89 18267021846357473315
17804303 29 18343024354723305953
1813 80 17676209065227476460
19141452 34 18340207388948201497
19591789 44 18411699902439012822
200 152 18343578543175370069
20281475 54 18410856555476983428
20291156 8 18411135831451381659
20645477 70 18261106434949380969
21267235 1 18411146800719026707
21673915 165 18412262843865549794
221490 88 18264212572224776315
2255824 54 18191309483836337348
23402539 116 18410287008485593438
23463225 33 18411702075518027541
23557571 272 18058172713711588966
23559900 14 18341886398584969776
2748010 2 17113541411426787814
2871803 45 18261108543662389162
335352 9 18339924805986025309
34934 24 18410007706930775801
350125 39 18411702054186044632
46194498 28 17460300286891229599
5104073 3 18341332206101098450
6443956 14 18409449214932257997
7364860 26 18341893047209992697
83771 10 18408323263522360713
8863177 126 17897181297929278131
9709674 26 18263928894193755795
9981440 41 17257086498709146473

> <PUBCHEM_SHAPE_MULTIPOLES>
417.53
8.87
2.88
0.74
1.1
0.14
0.1
-4.87
-0.53
-0.48
0.1
0.13
0.21
-0.52

> <PUBCHEM_SHAPE_SELFOVERLAP>
949.627

> <PUBCHEM_SHAPE_VOLUME>
218.1

> <PUBCHEM_COORDINATE_TYPE>
2
5
10

$$$$
