135472946
  -OEChem-03292013293D

 47 49  0     0  0  0  0  0  0999 V2000
   -3.8338   -3.1270   -0.1757 S   0  0  0  0  0  0  0  0  0  0  0  0
   -3.7992    2.6601    0.9648 O   0  0  0  0  0  0  0  0  0  0  0  0
   -3.8484   -3.2425   -1.8064 O   0  0  0  0  0  0  0  0  0  0  0  0
   -2.5695   -3.6876    0.2784 O   0  0  0  0  0  0  0  0  0  0  0  0
   -5.0973   -3.6453    0.3250 O   0  0  0  0  0  0  0  0  0  0  0  0
    2.6841   -2.4637   -2.2691 O   0  0  0  0  0  0  0  0  0  0  0  0
    1.4303   -2.9370   -0.4332 O   0  0  0  0  0  0  0  0  0  0  0  0
   -1.3615    1.2945    0.6793 N   0  0  0  0  0  0  0  0  0  0  0  0
   -0.1960    0.6301    0.5528 N   0  0  0  0  0  0  0  0  0  0  0  0
    2.0807    0.6813   -0.0445 N   0  0  0  0  0  0  0  0  0  0  0  0
    2.1969   -0.2257    0.8108 N   0  0  0  0  0  0  0  0  0  0  0  0
   -3.8168   -1.4141    0.1621 C   0  0  0  0  0  0  0  0  0  0  0  0
   -2.5891    0.6291    0.5560 C   0  0  0  0  0  0  0  0  0  0  0  0
   -2.6023   -0.7393    0.2865 C   0  0  0  0  0  0  0  0  0  0  0  0
   -3.7904    1.3230    0.7009 C   0  0  0  0  0  0  0  0  0  0  0  0
   -5.0182   -0.7202    0.3070 C   0  0  0  0  0  0  0  0  0  0  0  0
   -5.0050    0.6483    0.5764 C   0  0  0  0  0  0  0  0  0  0  0  0
    0.7223    2.7063   -0.2878 C   0  0  0  0  0  0  0  0  0  0  0  0
    0.8369    1.3044    0.0808 C   0  0  0  0  0  0  0  0  0  0  0  0
   -0.1788    3.0961   -1.2785 C   0  0  0  0  0  0  0  0  0  0  0  0
    1.5128    3.6616    0.3510 C   0  0  0  0  0  0  0  0  0  0  0  0
    3.4448   -0.8542    0.6655 C   0  0  0  0  0  0  0  0  0  0  0  0
    3.5979   -1.9580   -0.1734 C   0  0  0  0  0  0  0  0  0  0  0  0
   -0.2895    4.4414   -1.6307 C   0  0  0  0  0  0  0  0  0  0  0  0
    1.4022    5.0068   -0.0010 C   0  0  0  0  0  0  0  0  0  0  0  0
    4.5398   -0.3599    1.3744 C   0  0  0  0  0  0  0  0  0  0  0  0
    4.8458   -2.5675   -0.3035 C   0  0  0  0  0  0  0  0  0  0  0  0
    0.5011    5.3966   -0.9919 C   0  0  0  0  0  0  0  0  0  0  0  0
    5.7877   -0.9693    1.2443 C   0  0  0  0  0  0  0  0  0  0  0  0
    5.9408   -2.0730    0.4054 C   0  0  0  0  0  0  0  0  0  0  0  0
    2.4720   -2.4955   -0.9257 C   0  0  0  0  0  0  0  0  0  0  0  0
   -1.6744   -1.2911    0.1624 H   0  0  0  0  0  0  0  0  0  0  0  0
   -5.9762   -1.2225    0.2065 H   0  0  0  0  0  0  0  0  0  0  0  0
   -5.9485    1.1766    0.6852 H   0  0  0  0  0  0  0  0  0  0  0  0
   -1.3828    2.2836    0.8988 H   0  0  0  0  0  0  0  0  0  0  0  0
   -0.7897    2.3650   -1.8021 H   0  0  0  0  0  0  0  0  0  0  0  0
    2.2167    3.3722    1.1272 H   0  0  0  0  0  0  0  0  0  0  0  0
   -0.9880    4.7444   -2.4051 H   0  0  0  0  0  0  0  0  0  0  0  0
    2.0172    5.7508    0.4967 H   0  0  0  0  0  0  0  0  0  0  0  0
    4.4313    0.4993    2.0314 H   0  0  0  0  0  0  0  0  0  0  0  0
    4.9803   -3.4307   -0.9505 H   0  0  0  0  0  0  0  0  0  0  0  0
    0.4156    6.4439   -1.2666 H   0  0  0  0  0  0  0  0  0  0  0  0
   -4.7203    2.9652    1.0306 H   0  0  0  0  0  0  0  0  0  0  0  0
    6.6402   -0.5846    1.7965 H   0  0  0  0  0  0  0  0  0  0  0  0
    6.9123   -2.5480    0.3049 H   0  0  0  0  0  0  0  0  0  0  0  0
   -3.8500   -4.1618   -2.1627 H   0  0  0  0  0  0  0  0  0  0  0  0
    1.9214   -2.8270   -2.7678 H   0  0  0  0  0  0  0  0  0  0  0  0
  1  3  1  0  0  0  0
  1  4  2  0  0  0  0
  1  5  2  0  0  0  0
  1 12  1  0  0  0  0
  2 15  1  0  0  0  0
  2 43  1  0  0  0  0
  3 46  1  0  0  0  0
  6 31  1  0  0  0  0
  6 47  1  0  0  0  0
  7 31  2  0  0  0  0
  8  9  1  0  0  0  0
  8 13  1  0  0  0  0
  8 35  1  0  0  0  0
  9 19  2  0  0  0  0
 10 11  2  0  0  0  0
 10 19  1  0  0  0  0
 11 22  1  0  0  0  0
 12 14  2  0  0  0  0
 12 16  1  0  0  0  0
 13 14  1  0  0  0  0
 13 15  2  0  0  0  0
 14 32  1  0  0  0  0
 15 17  1  0  0  0  0
 16 17  2  0  0  0  0
 16 33  1  0  0  0  0
 17 34  1  0  0  0  0
 18 19  1  0  0  0  0
 18 20  2  0  0  0  0
 18 21  1  0  0  0  0
 20 24  1  0  0  0  0
 20 36  1  0  0  0  0
 21 25  2  0  0  0  0
 21 37  1  0  0  0  0
 22 23  1  0  0  0  0
 22 26  2  0  0  0  0
 23 27  2  0  0  0  0
 23 31  1  0  0  0  0
 24 28  2  0  0  0  0
 24 38  1  0  0  0  0
 25 28  1  0  0  0  0
 25 39  1  0  0  0  0
 26 29  1  0  0  0  0
 26 40  1  0  0  0  0
 27 30  1  0  0  0  0
 27 41  1  0  0  0  0
 28 42  1  0  0  0  0
 29 30  2  0  0  0  0
 29 44  1  0  0  0  0
 30 45  1  0  0  0  0
M  END
> <PUBCHEM_COMPOUND_CID>
135472946

> <PUBCHEM_CONFORMER_RMSD>
1

> <PUBCHEM_CONFORMER_DIVERSEORDER>
1
50
39
51
22
38
15
21
37
33
31
7
12
11
19
53
32
36
46
23
10
42
34
30
24
44
16
13
35
43
52
29
26
18
54
25
45
17
8
14
27
5
55
47
20
49
41
48
40
4
3
28
9
6
2

> <PUBCHEM_MMFF94_PARTIAL_CHARGES>
47
1 1.49
10 -0.21
11 -0.18
12 -0.01
13 0.1
14 -0.15
15 0.08
16 -0.15
17 -0.15
18 0.09
19 0.57
2 -0.53
20 -0.15
21 -0.15
22 0.18
23 0.09
24 -0.15
25 -0.15
26 -0.15
27 -0.15
28 -0.15
29 -0.15
3 -0.68
30 -0.15
31 0.63
32 0.15
33 0.15
34 0.15
35 0.4
36 0.15
37 0.15
38 0.15
39 0.15
4 -0.65
40 0.15
41 0.15
42 0.15
43 0.45
44 0.15
45 0.15
46 0.5
47 0.5
5 -0.65
6 -0.65
7 -0.57
8 -0.46
9 -0.49

> <PUBCHEM_EFFECTIVE_ROTOR_COUNT>
7

> <PUBCHEM_PHARMACOPHORE_FEATURES>
13
1 2 donor
1 3 acceptor
1 4 acceptor
1 5 acceptor
1 6 acceptor
1 7 acceptor
1 8 donor
3 6 7 31 anion
3 9 10 19 cation
4 1 3 4 5 anion
6 12 13 14 15 16 17 rings
6 18 20 21 24 25 28 rings
6 22 23 26 27 29 30 rings

> <PUBCHEM_HEAVY_ATOM_COUNT>
31

> <PUBCHEM_ATOM_DEF_STEREO_COUNT>
0

> <PUBCHEM_ATOM_UDEF_STEREO_COUNT>
0

> <PUBCHEM_BOND_DEF_STEREO_COUNT>
1

> <PUBCHEM_BOND_UDEF_STEREO_COUNT>
0

> <PUBCHEM_ISOTOPIC_ATOM_COUNT>
0

> <PUBCHEM_COMPONENT_COUNT>
1

> <PUBCHEM_CACTVS_TAUTO_COUNT>
-1

> <PUBCHEM_CONFORMER_ID>
0813273200000001

> <PUBCHEM_MMFF94_ENERGY>
102.3563

> <PUBCHEM_FEATURE_SELFOVERLAP>
66.089

> <PUBCHEM_SHAPE_FINGERPRINT>
10319688 45 18336823083457222240
10940486 97 18412269432451097773
11014199 57 18410294743926973793
11056379 131 18048885096152744868
11069576 57 17836911666440890679
11135926 11 17689149432892582575
12107183 9 18411708660584153289
12160290 23 17393060447426317496
12788726 201 17898006833139041728
13402501 40 18271805653803517738
14117953 113 18339923706289709975
17492 89 18265334100414087387
1813 80 18335996263276432489
18681886 176 17471569305613019905
20600515 1 18200324216569184369
21796203 349 17902554559091424642
23559900 14 18341040930584401073
249057 3 18335698322344629305
25223398 141 17615145290946380582
340366 18 18335989692725549333
4280585 95 18335973207944533938
4409770 3 17899406485650895085
463206 1 18334304162104709642
6058803 2 18196946685038358953
653340 110 17977666403326642096
7399639 24 18270103614678566520
9981440 41 17398672784213233145

> <PUBCHEM_SHAPE_MULTIPOLES>
586.68
11.78
7.25
1.28
2.51
8.03
-0.5
-13.82
3.23
-1.42
-3.03
0.46
-0.04
-0.36

> <PUBCHEM_SHAPE_SELFOVERLAP>
1264.143

> <PUBCHEM_SHAPE_VOLUME>
321.1

> <PUBCHEM_COORDINATE_TYPE>
2
5
10

$$$$
