135435172
  -OEChem-03292013293D

 30 32  0     1  0  0  0  0  0999 V2000
    2.1220   -2.4700    0.0584 F   0  0  0  0  0  0  0  0  0  0  0  0
    1.9473    0.4158    1.0190 O   0  0  0  0  0  0  0  0  0  0  0  0
    3.6993   -1.1923   -1.6712 O   0  0  0  0  0  0  0  0  0  0  0  0
    4.2724    2.0046    1.3038 O   0  0  0  0  0  0  0  0  0  0  0  0
   -4.5914    1.3831   -0.7383 O   0  0  0  0  0  0  0  0  0  0  0  0
   -0.3280    0.1740    0.1657 N   0  0  0  0  0  0  0  0  0  0  0  0
   -1.6452    1.7676   -0.6890 N   0  0  0  0  0  0  0  0  0  0  0  0
   -1.9871   -1.4695    0.8149 N   0  0  0  0  0  0  0  0  0  0  0  0
   -4.1948   -0.6837    0.2726 N   0  0  0  0  0  0  0  0  0  0  0  0
    0.9387   -0.5299    0.5959 C   0  0  1  0  0  0  0  0  0  0  0  0
    2.6709   -0.4715   -1.0284 C   0  0  1  0  0  0  0  0  0  0  0  0
    1.5655   -1.3642   -0.5165 C   0  0  1  0  0  0  0  0  0  0  0  0
    3.1441    0.1769    0.2586 C   0  0  1  0  0  0  0  0  0  0  0  0
    3.8874    1.4824    0.0425 C   0  0  0  0  0  0  0  0  0  0  0  0
   -1.6066   -0.2847    0.2839 C   0  0  0  0  0  0  0  0  0  0  0  0
   -0.4030    1.4119   -0.4248 C   0  0  0  0  0  0  0  0  0  0  0  0
   -2.3901    0.7136   -0.2486 C   0  0  0  0  0  0  0  0  0  0  0  0
   -3.8208    0.5484   -0.2809 C   0  0  0  0  0  0  0  0  0  0  0  0
   -3.2806   -1.6127    0.7825 C   0  0  0  0  0  0  0  0  0  0  0  0
    0.6588   -1.1372    1.4635 H   0  0  0  0  0  0  0  0  0  0  0  0
    2.2583    0.2702   -1.7226 H   0  0  0  0  0  0  0  0  0  0  0  0
    0.8746   -1.7086   -1.2904 H   0  0  0  0  0  0  0  0  0  0  0  0
    3.7735   -0.5055    0.8445 H   0  0  0  0  0  0  0  0  0  0  0  0
    3.2433    2.2244   -0.4407 H   0  0  0  0  0  0  0  0  0  0  0  0
    4.7858    1.3326   -0.5637 H   0  0  0  0  0  0  0  0  0  0  0  0
    0.4748    2.0057   -0.6398 H   0  0  0  0  0  0  0  0  0  0  0  0
    4.3923   -0.5585   -1.9220 H   0  0  0  0  0  0  0  0  0  0  0  0
    4.7432    2.8389    1.1366 H   0  0  0  0  0  0  0  0  0  0  0  0
   -3.7689   -2.5189    1.1732 H   0  0  0  0  0  0  0  0  0  0  0  0
   -5.1842   -0.9121    0.3035 H   0  0  0  0  0  0  0  0  0  0  0  0
  1 12  1  0  0  0  0
  2 10  1  0  0  0  0
  2 13  1  0  0  0  0
  3 11  1  0  0  0  0
  3 27  1  0  0  0  0
  4 14  1  0  0  0  0
  4 28  1  0  0  0  0
  5 18  2  0  0  0  0
  6 10  1  0  0  0  0
  6 15  1  0  0  0  0
  6 16  1  0  0  0  0
  7 16  2  0  0  0  0
  7 17  1  0  0  0  0
  8 15  1  0  0  0  0
  8 19  2  0  0  0  0
  9 18  1  0  0  0  0
  9 19  1  0  0  0  0
  9 30  1  0  0  0  0
 10 12  1  0  0  0  0
 10 20  1  0  0  0  0
 11 12  1  0  0  0  0
 11 13  1  0  0  0  0
 11 21  1  0  0  0  0
 12 22  1  0  0  0  0
 13 14  1  0  0  0  0
 13 23  1  0  0  0  0
 14 24  1  0  0  0  0
 14 25  1  0  0  0  0
 15 17  2  0  0  0  0
 16 26  1  0  0  0  0
 17 18  1  0  0  0  0
 19 29  1  0  0  0  0
M  END
> <PUBCHEM_COMPOUND_CID>
135435172

> <PUBCHEM_CONFORMER_RMSD>
0.6

> <PUBCHEM_CONFORMER_DIVERSEORDER>
1
16
10
14
5
11
9
13
4
8
12
6
7
2
3
15

> <PUBCHEM_MMFF94_PARTIAL_CHARGES>
24
1 -0.34
10 0.54
11 0.28
12 0.34
13 0.28
14 0.28
15 -0.03
16 0.04
17 0.14
18 0.72
19 0.45
2 -0.56
26 0.15
27 0.4
28 0.4
29 0.06
3 -0.68
30 0.37
4 -0.68
5 -0.57
6 0.05
7 -0.57
8 -0.58
9 -0.49

> <PUBCHEM_EFFECTIVE_ROTOR_COUNT>
3

> <PUBCHEM_PHARMACOPHORE_FEATURES>
11
1 2 acceptor
1 3 acceptor
1 3 donor
1 4 acceptor
1 4 donor
1 5 acceptor
1 9 donor
3 6 7 16 cation
5 2 10 11 12 13 rings
5 6 7 15 16 17 rings
6 8 9 15 17 18 19 rings

> <PUBCHEM_HEAVY_ATOM_COUNT>
19

> <PUBCHEM_ATOM_DEF_STEREO_COUNT>
4

> <PUBCHEM_ATOM_UDEF_STEREO_COUNT>
0

> <PUBCHEM_BOND_DEF_STEREO_COUNT>
0

> <PUBCHEM_BOND_UDEF_STEREO_COUNT>
0

> <PUBCHEM_ISOTOPIC_ATOM_COUNT>
0

> <PUBCHEM_COMPONENT_COUNT>
1

> <PUBCHEM_CACTVS_TAUTO_COUNT>
-1

> <PUBCHEM_CONFORMER_ID>
081293A400000001

> <PUBCHEM_MMFF94_ENERGY>
40.4064

> <PUBCHEM_FEATURE_SELFOVERLAP>
55.966

> <PUBCHEM_SHAPE_FINGERPRINT>
10498660 4 18260269633391124789
10608611 8 18409727331149389640
107287 299 18060137656664248226
10871710 139 16175104475288738180
11132069 177 18259984898497364833
12173636 292 18041835091925042013
12236239 1 16370725937474014160
13214271 11 18336821000244985821
13296908 3 18412548708283077623
13544592 145 18339368448364265583
14289901 80 17704351069708911329
15219456 202 18412827992583620810
15375358 24 18408316705191676321
15536298 74 18411704283168309956
16945 1 18187089425222909965
17980427 23 17531525511571356988
18175812 5 18412548703792840806
18186145 218 18339088094273623393
19422 9 15625950815303115974
19784866 170 18336264630102418704
200 152 17417809500583906511
20279233 1 18410012130536152635
20510252 161 18337952299353442385
20645477 56 18186802440130336165
20645477 70 17917992741627349038
20871999 31 18041288716287514207
21079973 296 18261394493968466723
23402539 116 18113891689208712358
23557571 272 18334584584946132544
23559900 14 18334297522501962518
296302 2 18341610447157455225
34934 24 18334004004468361771
495365 180 18058995195257991315
5104073 3 18335139765519909689
633830 44 17988646229679006069
7364860 26 18265046943090239914
77492 1 15052017861680431667
81228 2 17968669215614658041
9709674 26 18408606963424239879

> <PUBCHEM_SHAPE_MULTIPOLES>
340.34
8.51
2.01
1.06
1.1
0.2
-0.09
-1.78
-0.11
-0.49
0.04
-0.8
0.04
1.76

> <PUBCHEM_SHAPE_SELFOVERLAP>
742.33

> <PUBCHEM_SHAPE_VOLUME>
185.9

> <PUBCHEM_COORDINATE_TYPE>
2
5
10

$$$$
