135474223
  -OEChem-03292013293D

 29 31  0     1  0  0  0  0  0999 V2000
    2.3437   -0.2553    1.0620 O   0  0  0  0  0  0  0  0  0  0  0  0
    5.6445    0.6353   -0.1367 O   0  0  0  0  0  0  0  0  0  0  0  0
   -3.7372    2.2060   -0.2836 O   0  0  0  0  0  0  0  0  0  0  0  0
    0.2147    0.0642    0.1754 N   0  0  0  0  0  0  0  0  0  0  0  0
   -0.7781    2.0527   -0.0740 N   0  0  0  0  0  0  0  0  0  0  0  0
   -1.7149   -1.3974    0.1834 N   0  0  0  0  0  0  0  0  0  0  0  0
   -3.7258   -0.1193   -0.0675 N   0  0  0  0  0  0  0  0  0  0  0  0
   -3.8086   -2.4628    0.1435 N   0  0  0  0  0  0  0  0  0  0  0  0
    1.2741   -0.9025    0.3343 C   0  0  1  0  0  0  0  0  0  0  0  0
    3.5750   -0.4608    0.3355 C   0  0  1  0  0  0  0  0  0  0  0  0
    1.8668   -1.2952   -0.9741 C   0  0  0  0  0  0  0  0  0  0  0  0
    3.1735   -1.0415   -0.9731 C   0  0  0  0  0  0  0  0  0  0  0  0
   -1.1248   -0.1839    0.1100 C   0  0  0  0  0  0  0  0  0  0  0  0
    4.2884    0.8738    0.2020 C   0  0  0  0  0  0  0  0  0  0  0  0
   -1.7043    1.0525   -0.0425 C   0  0  0  0  0  0  0  0  0  0  0  0
    0.3731    1.4237    0.0600 C   0  0  0  0  0  0  0  0  0  0  0  0
   -3.1341    1.1493   -0.1459 C   0  0  0  0  0  0  0  0  0  0  0  0
   -3.0258   -1.3387    0.0914 C   0  0  0  0  0  0  0  0  0  0  0  0
    0.9139   -1.7573    0.9145 H   0  0  0  0  0  0  0  0  0  0  0  0
    4.1876   -1.1797    0.8918 H   0  0  0  0  0  0  0  0  0  0  0  0
    1.3247   -1.7432   -1.7937 H   0  0  0  0  0  0  0  0  0  0  0  0
    3.8455   -1.2551   -1.7907 H   0  0  0  0  0  0  0  0  0  0  0  0
    4.2593    1.4214    1.1503 H   0  0  0  0  0  0  0  0  0  0  0  0
    3.8311    1.5104   -0.5637 H   0  0  0  0  0  0  0  0  0  0  0  0
    1.3408    1.9061    0.0732 H   0  0  0  0  0  0  0  0  0  0  0  0
   -4.7388   -0.1661   -0.1301 H   0  0  0  0  0  0  0  0  0  0  0  0
    6.0785    1.5026   -0.2074 H   0  0  0  0  0  0  0  0  0  0  0  0
   -3.3984   -3.3835    0.2555 H   0  0  0  0  0  0  0  0  0  0  0  0
   -4.8187   -2.4077    0.0717 H   0  0  0  0  0  0  0  0  0  0  0  0
  1  9  1  0  0  0  0
  1 10  1  0  0  0  0
  2 14  1  0  0  0  0
  2 27  1  0  0  0  0
  3 17  2  0  0  0  0
  4  9  1  0  0  0  0
  4 13  1  0  0  0  0
  4 16  1  0  0  0  0
  5 15  1  0  0  0  0
  5 16  2  0  0  0  0
  6 13  1  0  0  0  0
  6 18  2  0  0  0  0
  7 17  1  0  0  0  0
  7 18  1  0  0  0  0
  7 26  1  0  0  0  0
  8 18  1  0  0  0  0
  8 28  1  0  0  0  0
  8 29  1  0  0  0  0
  9 11  1  0  0  0  0
  9 19  1  0  0  0  0
 10 12  1  0  0  0  0
 10 14  1  0  0  0  0
 10 20  1  0  0  0  0
 11 12  2  0  0  0  0
 11 21  1  0  0  0  0
 12 22  1  0  0  0  0
 13 15  2  0  0  0  0
 14 23  1  0  0  0  0
 14 24  1  0  0  0  0
 15 17  1  0  0  0  0
 16 25  1  0  0  0  0
M  END
> <PUBCHEM_COMPOUND_CID>
135474223

> <PUBCHEM_CONFORMER_RMSD>
0.6

> <PUBCHEM_CONFORMER_DIVERSEORDER>
1
2
6
8
3
5
4
10
9
7

> <PUBCHEM_MMFF94_PARTIAL_CHARGES>
25
1 -0.56
10 0.42
11 -0.29
12 -0.29
13 -0.03
14 0.28
15 0.14
16 0.04
17 0.72
18 0.56
2 -0.68
21 0.15
22 0.15
25 0.15
26 0.37
27 0.4
28 0.4
29 0.4
3 -0.57
4 0.05
5 -0.57
6 -0.58
7 -0.49
8 -0.85
9 0.67

> <PUBCHEM_EFFECTIVE_ROTOR_COUNT>
2.6

> <PUBCHEM_PHARMACOPHORE_FEATURES>
10
1 1 acceptor
1 2 acceptor
1 2 donor
1 3 acceptor
1 7 donor
1 8 donor
3 4 5 16 cation
5 1 9 10 11 12 rings
5 4 5 13 15 16 rings
6 6 7 13 15 17 18 rings

> <PUBCHEM_HEAVY_ATOM_COUNT>
18

> <PUBCHEM_ATOM_DEF_STEREO_COUNT>
2

> <PUBCHEM_ATOM_UDEF_STEREO_COUNT>
0

> <PUBCHEM_BOND_DEF_STEREO_COUNT>
0

> <PUBCHEM_BOND_UDEF_STEREO_COUNT>
0

> <PUBCHEM_ISOTOPIC_ATOM_COUNT>
0

> <PUBCHEM_COMPONENT_COUNT>
1

> <PUBCHEM_CACTVS_TAUTO_COUNT>
-1

> <PUBCHEM_CONFORMER_ID>
08132C2F00000001

> <PUBCHEM_MMFF94_ENERGY>
33.6478

> <PUBCHEM_FEATURE_SELFOVERLAP>
50.925

> <PUBCHEM_SHAPE_FINGERPRINT>
10014705 185 18187643574825479573
10366900 7 17632003178799993417
10498660 4 18410013195888651596
10608611 8 18342172228827154488
11132069 177 18408886204822634820
11806522 49 18263924504383361423
12173636 292 18119246169202632389
12236239 1 17458060452086277378
13214271 11 18342171172138378468
13296908 3 18343022168305455446
13544592 145 18055925285594297559
14004511 7 8070031081483796574
14790565 3 17979924808948787113
15196674 1 18410855452039335136
15219456 202 18202003196647083398
15375358 24 18342735174290176439
16945 1 18264487287281464065
18186145 218 17822573807012463406
200 152 16845283895916612246
20279233 1 18272932678632686366
20510252 161 18199469874770608425
20645477 56 18337111168520684397
20645477 70 17274540902128249662
20871999 31 18408880746230340687
21267235 1 18336836384633386179
22213442 358 18340206387925240517
23402539 116 18335133203068486294
23557571 272 18341339954580847638
23559900 14 18269553832804938374
2748010 2 18338788018268489197
296302 2 18342458114619090668
3312278 4 18411982438272268993
34934 24 18335415721379319481
4340502 62 16226621658900421105
474 4 17241057616704716756
5104073 3 18412543185134451418
7364860 26 18125721437770279073
77492 1 17385444288951085418
9709674 26 18199752448884380990

> <PUBCHEM_SHAPE_MULTIPOLES>
327.92
8.76
2.08
0.77
5.53
0.04
-0.05
0.29
-0.22
-2.12
-0.14
0.43
-0.14
0.6

> <PUBCHEM_SHAPE_SELFOVERLAP>
720.421

> <PUBCHEM_SHAPE_VOLUME>
176.7

> <PUBCHEM_COORDINATE_TYPE>
2
5
10

$$$$
