135463029
  -OEChem-03292013293D

 31 33  0     1  0  0  0  0  0999 V2000
   -2.5166    0.3017    0.7799 O   0  0  0  0  0  0  0  0  0  0  0  0
   -5.0579   -0.7880    1.3472 O   0  0  0  0  0  0  0  0  0  0  0  0
    3.7623   -2.1772   -0.2455 O   0  0  0  0  0  0  0  0  0  0  0  0
   -0.2318   -0.0831    0.0319 N   0  0  0  0  0  0  0  0  0  0  0  0
    0.7946   -2.0484   -0.2610 N   0  0  0  0  0  0  0  0  0  0  0  0
    1.6784    1.3824    0.2827 N   0  0  0  0  0  0  0  0  0  0  0  0
    3.7138    0.1300    0.1126 N   0  0  0  0  0  0  0  0  0  0  0  0
    3.7595    2.4560    0.4743 N   0  0  0  0  0  0  0  0  0  0  0  0
   -1.3610    0.9138    0.1728 C   0  0  1  0  0  0  0  0  0  0  0  0
   -1.8159    1.4925   -1.1651 C   0  0  0  0  0  0  0  0  0  0  0  0
   -3.0696    0.7075   -1.4721 C   0  0  0  0  0  0  0  0  0  0  0  0
   -3.6463    0.5021   -0.0846 C   0  0  1  0  0  0  0  0  0  0  0  0
   -4.5880   -0.6819    0.0124 C   0  0  0  0  0  0  0  0  0  0  0  0
    1.1064    0.1736    0.0880 C   0  0  0  0  0  0  0  0  0  0  0  0
   -0.3690   -1.4333   -0.1795 C   0  0  0  0  0  0  0  0  0  0  0  0
    1.7069   -1.0487   -0.0947 C   0  0  0  0  0  0  0  0  0  0  0  0
    3.1412   -1.1334   -0.0907 C   0  0  0  0  0  0  0  0  0  0  0  0
    2.9929    1.3345    0.2911 C   0  0  0  0  0  0  0  0  0  0  0  0
   -0.9791    1.6874    0.8481 H   0  0  0  0  0  0  0  0  0  0  0  0
   -1.0649    1.4313   -1.9582 H   0  0  0  0  0  0  0  0  0  0  0  0
   -2.0771    2.5496   -1.0318 H   0  0  0  0  0  0  0  0  0  0  0  0
   -3.7541    1.2318   -2.1445 H   0  0  0  0  0  0  0  0  0  0  0  0
   -2.8002   -0.2502   -1.9329 H   0  0  0  0  0  0  0  0  0  0  0  0
   -4.1495    1.4120    0.2661 H   0  0  0  0  0  0  0  0  0  0  0  0
   -4.0705   -1.6156   -0.2310 H   0  0  0  0  0  0  0  0  0  0  0  0
   -5.4457   -0.5579   -0.6558 H   0  0  0  0  0  0  0  0  0  0  0  0
   -1.3348   -1.9114   -0.2683 H   0  0  0  0  0  0  0  0  0  0  0  0
   -5.6575   -1.5529    1.3794 H   0  0  0  0  0  0  0  0  0  0  0  0
    4.7281    0.1844    0.1332 H   0  0  0  0  0  0  0  0  0  0  0  0
    3.3337    3.3664    0.6105 H   0  0  0  0  0  0  0  0  0  0  0  0
    4.7725    2.4094    0.4792 H   0  0  0  0  0  0  0  0  0  0  0  0
  1  9  1  0  0  0  0
  1 12  1  0  0  0  0
  2 13  1  0  0  0  0
  2 28  1  0  0  0  0
  3 17  2  0  0  0  0
  4  9  1  0  0  0  0
  4 14  1  0  0  0  0
  4 15  1  0  0  0  0
  5 15  2  0  0  0  0
  5 16  1  0  0  0  0
  6 14  1  0  0  0  0
  6 18  2  0  0  0  0
  7 17  1  0  0  0  0
  7 18  1  0  0  0  0
  7 29  1  0  0  0  0
  8 18  1  0  0  0  0
  8 30  1  0  0  0  0
  8 31  1  0  0  0  0
  9 10  1  0  0  0  0
  9 19  1  0  0  0  0
 10 11  1  0  0  0  0
 10 20  1  0  0  0  0
 10 21  1  0  0  0  0
 11 12  1  0  0  0  0
 11 22  1  0  0  0  0
 11 23  1  0  0  0  0
 12 13  1  0  0  0  0
 12 24  1  0  0  0  0
 13 25  1  0  0  0  0
 13 26  1  0  0  0  0
 14 16  2  0  0  0  0
 15 27  1  0  0  0  0
 16 17  1  0  0  0  0
M  END
> <PUBCHEM_COMPOUND_CID>
135463029

> <PUBCHEM_CONFORMER_RMSD>
0.6

> <PUBCHEM_CONFORMER_DIVERSEORDER>
1
10
11
13
3
2
8
7
15
4
12
14
5
9
6

> <PUBCHEM_MMFF94_PARTIAL_CHARGES>
21
1 -0.56
12 0.28
13 0.28
14 -0.03
15 0.04
16 0.14
17 0.72
18 0.56
2 -0.68
27 0.15
28 0.4
29 0.37
3 -0.57
30 0.4
31 0.4
4 0.05
5 -0.57
6 -0.58
7 -0.49
8 -0.85
9 0.54

> <PUBCHEM_EFFECTIVE_ROTOR_COUNT>
3

> <PUBCHEM_PHARMACOPHORE_FEATURES>
10
1 1 acceptor
1 2 acceptor
1 2 donor
1 3 acceptor
1 7 donor
1 8 donor
3 4 5 15 cation
5 1 9 10 11 12 rings
5 4 5 14 15 16 rings
6 6 7 14 16 17 18 rings

> <PUBCHEM_HEAVY_ATOM_COUNT>
18

> <PUBCHEM_ATOM_DEF_STEREO_COUNT>
2

> <PUBCHEM_ATOM_UDEF_STEREO_COUNT>
0

> <PUBCHEM_BOND_DEF_STEREO_COUNT>
0

> <PUBCHEM_BOND_UDEF_STEREO_COUNT>
0

> <PUBCHEM_ISOTOPIC_ATOM_COUNT>
0

> <PUBCHEM_COMPONENT_COUNT>
1

> <PUBCHEM_CACTVS_TAUTO_COUNT>
-1

> <PUBCHEM_CONFORMER_ID>
0813007500000001

> <PUBCHEM_MMFF94_ENERGY>
36.3832

> <PUBCHEM_FEATURE_SELFOVERLAP>
50.928

> <PUBCHEM_SHAPE_FINGERPRINT>
10608611 8 18335130947614862397
11132069 177 18261391212898289091
11471102 20 18341044130002330556
11615757 297 18273214170968425939
12032990 46 18267306439237230718
12236239 1 17275386499325834041
12403259 226 18262795151633964892
12403259 415 18260828185271752141
12916754 54 18411699851057290503
13583140 156 17169523325080462705
13760787 5 18059851762313915685
14350574 20 18410864226325568998
15196674 1 18411698794685350223
15219456 202 18334853905344808589
16945 1 18269270171446969030
18175812 5 18260545589545720293
18186145 218 18201717340835288508
19422 9 17704347767121693029
200 152 18130213879541625837
204376 136 18339640173733708504
20645477 70 18271512101367611023
21041028 32 18059016068651811728
21065201 7 17168138997255222385
21079973 296 17967536804858823483
21639500 275 18271511061917264868
221490 88 18337391543605770822
22854114 111 18411978053142373116
22854114 59 18410574002537217657
23402539 116 17095520678357632431
23532345 42 17458626743893409685
23557571 272 17531529785364431733
23559900 14 17603864451346696298
25610 137 18413670214660071937
2748010 2 18339365266194393262
2871803 45 18187358814552143719
3286 77 18336548214023986452
474 4 17129557284423755944
5104073 3 18336263453487212601
6333272 397 18410290341453723936
633830 44 18060144214889561357
7495541 125 18334018267965399322
77492 1 17274815844264478101
81228 2 17618761987789261562

> <PUBCHEM_SHAPE_MULTIPOLES>
327.92
8.65
2.06
0.93
4.44
0.01
0.1
-0.38
-1.35
-2.12
0.08
0.97
0.14
1.15

> <PUBCHEM_SHAPE_SELFOVERLAP>
710.562

> <PUBCHEM_SHAPE_VOLUME>
178.7

> <PUBCHEM_COORDINATE_TYPE>
2
5
10

$$$$
