135457300
  -OEChem-03292013293D

 33 35  0     0  0  0  0  0  0999 V2000
   -5.1890   -0.9400    0.0840 O   0  0  0  0  0  0  0  0  0  0  0  0
   -1.1605   -3.3523   -0.1039 O   0  0  0  0  0  0  0  0  0  0  0  0
    0.5334    3.6909   -0.0015 O   0  0  0  0  0  0  0  0  0  0  0  0
    4.2000   -1.0837    0.8394 O   0  0  0  0  0  0  0  0  0  0  0  0
   -3.0094    2.6686    0.2352 O   0  0  0  0  0  0  0  0  0  0  0  0
    3.2927   -1.8760   -1.1376 O   0  0  0  0  0  0  0  0  0  0  0  0
    0.4276   -1.0601   -0.1139 N   0  0  0  0  0  0  0  0  0  0  0  0
   -0.8753    1.4035    0.0019 N   0  0  0  0  0  0  0  0  0  0  0  0
    1.2247    0.0583   -0.1205 C   0  0  0  0  0  0  0  0  0  0  0  0
   -0.9433   -0.9834   -0.0540 C   0  0  0  0  0  0  0  0  0  0  0  0
   -1.5736    0.2089    0.0021 C   0  0  0  0  0  0  0  0  0  0  0  0
    0.4227    1.3335   -0.0550 C   0  0  0  0  0  0  0  0  0  0  0  0
    2.5641    0.1637   -0.1750 C   0  0  0  0  0  0  0  0  0  0  0  0
   -3.0432    0.2787    0.0654 C   0  0  0  0  0  0  0  0  0  0  0  0
   -1.7141   -2.2585   -0.0530 C   0  0  0  0  0  0  0  0  0  0  0  0
    1.1636    2.6457   -0.0545 C   0  0  0  0  0  0  0  0  0  0  0  0
   -3.8053   -0.9747    0.0663 C   0  0  0  0  0  0  0  0  0  0  0  0
    3.2557    1.4341   -0.1737 C   0  0  0  0  0  0  0  0  0  0  0  0
   -3.1936   -2.1662    0.0113 C   0  0  0  0  0  0  0  0  0  0  0  0
    2.6335    2.6145   -0.1184 C   0  0  0  0  0  0  0  0  0  0  0  0
    3.3817   -1.0596   -0.2399 C   0  0  0  0  0  0  0  0  0  0  0  0
   -3.6569    1.4757    0.1755 C   0  0  0  0  0  0  0  0  0  0  0  0
    5.0645   -2.2218    0.9196 C   0  0  0  0  0  0  0  0  0  0  0  0
    0.8621   -1.9738   -0.1549 H   0  0  0  0  0  0  0  0  0  0  0  0
    4.3408    1.4196   -0.2284 H   0  0  0  0  0  0  0  0  0  0  0  0
   -3.7456   -3.1000   -0.0006 H   0  0  0  0  0  0  0  0  0  0  0  0
    3.1766    3.5514   -0.1219 H   0  0  0  0  0  0  0  0  0  0  0  0
   -4.7292    1.6046    0.2456 H   0  0  0  0  0  0  0  0  0  0  0  0
   -5.5261   -1.8522    0.0702 H   0  0  0  0  0  0  0  0  0  0  0  0
   -3.6877    3.3614    0.3183 H   0  0  0  0  0  0  0  0  0  0  0  0
    5.6682   -2.1268    1.8261 H   0  0  0  0  0  0  0  0  0  0  0  0
    5.7330   -2.2513    0.0538 H   0  0  0  0  0  0  0  0  0  0  0  0
    4.4751   -3.1414    0.9848 H   0  0  0  0  0  0  0  0  0  0  0  0
  1 17  1  0  0  0  0
  1 29  1  0  0  0  0
  2 15  2  0  0  0  0
  3 16  2  0  0  0  0
  4 21  1  0  0  0  0
  4 23  1  0  0  0  0
  5 22  1  0  0  0  0
  5 30  1  0  0  0  0
  6 21  2  0  0  0  0
  7  9  1  0  0  0  0
  7 10  1  0  0  0  0
  7 24  1  0  0  0  0
  8 11  1  0  0  0  0
  8 12  2  0  0  0  0
  9 12  1  0  0  0  0
  9 13  2  0  0  0  0
 10 11  2  0  0  0  0
 10 15  1  0  0  0  0
 11 14  1  0  0  0  0
 12 16  1  0  0  0  0
 13 18  1  0  0  0  0
 13 21  1  0  0  0  0
 14 17  1  0  0  0  0
 14 22  2  0  0  0  0
 15 19  1  0  0  0  0
 16 20  1  0  0  0  0
 17 19  2  0  0  0  0
 18 20  2  0  0  0  0
 18 25  1  0  0  0  0
 19 26  1  0  0  0  0
 20 27  1  0  0  0  0
 22 28  1  0  0  0  0
 23 31  1  0  0  0  0
 23 32  1  0  0  0  0
 23 33  1  0  0  0  0
M  END
> <PUBCHEM_COMPOUND_CID>
135457300

> <PUBCHEM_CONFORMER_RMSD>
0.6

> <PUBCHEM_CONFORMER_DIVERSEORDER>
1
3
2

> <PUBCHEM_MMFF94_PARTIAL_CHARGES>
29
1 -0.53
10 0.11
11 0.17
12 0.44
13 0.01
15 0.54
16 0.56
17 0.08
18 -0.15
19 -0.14
2 -0.57
20 -0.14
21 0.71
22 -0.07
23 0.28
24 0.4
25 0.15
26 0.15
27 0.15
28 0.15
29 0.45
3 -0.57
30 0.45
4 -0.43
5 -0.53
6 -0.57
7 -0.6
8 -0.62
9 0.11

> <PUBCHEM_EFFECTIVE_ROTOR_COUNT>
2

> <PUBCHEM_PHARMACOPHORE_FEATURES>
11
1 1 donor
1 2 acceptor
1 3 acceptor
1 5 donor
1 6 acceptor
1 7 cation
1 7 donor
1 8 acceptor
6 10 11 14 15 17 19 rings
6 7 8 9 10 11 12 rings
6 9 12 13 16 18 20 rings

> <PUBCHEM_HEAVY_ATOM_COUNT>
23

> <PUBCHEM_ATOM_DEF_STEREO_COUNT>
0

> <PUBCHEM_ATOM_UDEF_STEREO_COUNT>
0

> <PUBCHEM_BOND_DEF_STEREO_COUNT>
1

> <PUBCHEM_BOND_UDEF_STEREO_COUNT>
0

> <PUBCHEM_ISOTOPIC_ATOM_COUNT>
0

> <PUBCHEM_COMPONENT_COUNT>
1

> <PUBCHEM_CACTVS_TAUTO_COUNT>
-1

> <PUBCHEM_CONFORMER_ID>
0812EA1400000001

> <PUBCHEM_MMFF94_ENERGY>
71.235

> <PUBCHEM_FEATURE_SELFOVERLAP>
55.883

> <PUBCHEM_SHAPE_FINGERPRINT>
10616163 171 18051980521352358014
10967382 1 18267306606598432981
1100329 8 18339362946474612993
11578080 2 16843033393367868915
116883 192 18269844116648478684
12403259 226 18335978744558519341
12403260 363 18412822495568937359
12553582 1 18339371773006718694
12633257 1 18340212903221829955
13140716 1 18411417267821106472
14178342 30 18124018298843569160
14223421 5 18122911090154240021
14790565 3 17907878201257730644
14866123 147 17621044161732697754
15042514 8 18265612070438846026
15196674 1 18410576197466011349
15256400 18 18412544297267158225
15442244 35 18410574002458050824
15536298 74 18341615970306062812
16945 1 18195532716593645789
17349148 13 18202842162494440583
17492 89 18265332987395611051
1813 80 17385716981489757244
19591789 44 18337674118215233629
20028762 73 18201434792513231151
20510252 161 18343589564161893137
20600515 1 18199190577442712204
21267235 1 18410302410185601778
21421861 104 18188482596802622744
21501502 16 18339364187608891364
21859007 373 17752176471327661973
221490 88 18263934400067126306
23184049 29 18410011044252246628
2334 1 18411140268073613588
23366157 5 18114744966309417956
23402539 116 18270669858006740294
23558518 356 18262242234776985427
23559900 14 18269552900242874320
2748010 2 18411136909388180173
3004659 81 18187370887879474798
3084891 72 18195243308733016741
335352 9 18337953381405320933
34934 24 18196370544496020742
350125 39 18410298008434850153
4409770 3 17682384863301257020
5104073 3 18412550933355543753
7097593 13 18337668740926735028
7364860 26 18268713994609578700
9709674 26 18266464397850599559
9981440 41 17398668390414015048

> <PUBCHEM_SHAPE_MULTIPOLES>
428.15
8.56
3.8
0.7
0.34
1.16
0
-4.02
1.13
0.87
0.08
0.44
-0.2
-0.56

> <PUBCHEM_SHAPE_SELFOVERLAP>
950.375

> <PUBCHEM_SHAPE_VOLUME>
225.9

> <PUBCHEM_COORDINATE_TYPE>
2
5
10

$$$$
