135449469
  -OEChem-03292013293D

 35 37  0     1  0  0  0  0  0999 V2000
    2.0537    1.7111   -0.9979 O   0  0  0  0  0  0  0  0  0  0  0  0
    2.5740   -1.9028   -0.3369 O   0  0  0  0  0  0  0  0  0  0  0  0
    2.1360   -0.8357    2.3115 O   0  0  0  0  0  0  0  0  0  0  0  0
   -1.5454    2.4151    0.2593 O   0  0  0  0  0  0  0  0  0  0  0  0
   -0.0031   -2.7872   -0.3420 O   0  0  0  0  0  0  0  0  0  0  0  0
   -4.4329   -0.0195    0.8580 O   0  0  0  0  0  0  0  0  0  0  0  0
   -2.6544   -2.2806   -0.3251 N   0  0  0  0  0  0  0  0  0  0  0  0
   -4.0679    1.3098   -0.9943 N   0  0  0  0  0  0  0  0  0  0  0  0
    2.1071   -0.5881   -0.1115 C   0  0  1  0  0  0  0  0  0  0  0  0
    2.6150   -0.0252    1.2387 C   0  0  1  0  0  0  0  0  0  0  0  0
    1.2179    1.7818    0.1831 C   0  0  2  0  0  0  0  0  0  0  0  0
    2.5449    0.3713   -1.2541 C   0  0  2  0  0  0  0  0  0  0  0  0
    2.1057    1.4248    1.3967 C   0  0  0  0  0  0  0  0  0  0  0  0
    0.5907   -0.4991   -0.0969 C   0  0  0  0  0  0  0  0  0  0  0  0
    0.1110    0.7487    0.0474 C   0  0  0  0  0  0  0  0  0  0  0  0
    4.0503    0.4609   -1.4842 C   0  0  0  0  0  0  0  0  0  0  0  0
   -0.3465   -1.6218   -0.2220 C   0  0  0  0  0  0  0  0  0  0  0  0
   -1.2998    1.0692    0.0896 C   0  0  0  0  0  0  0  0  0  0  0  0
   -2.2506    0.1192   -0.0274 C   0  0  0  0  0  0  0  0  0  0  0  0
   -1.8195   -1.3012   -0.1973 C   0  0  0  0  0  0  0  0  0  0  0  0
   -3.6861    0.4492    0.0053 C   0  0  0  0  0  0  0  0  0  0  0  0
    3.7083   -0.0655    1.2936 H   0  0  0  0  0  0  0  0  0  0  0  0
    0.8547    2.8094    0.2672 H   0  0  0  0  0  0  0  0  0  0  0  0
    2.0980    0.0416   -2.2022 H   0  0  0  0  0  0  0  0  0  0  0  0
    2.9714    2.0980    1.4110 H   0  0  0  0  0  0  0  0  0  0  0  0
    1.5550    1.5598    2.3347 H   0  0  0  0  0  0  0  0  0  0  0  0
    4.5626    0.9165   -0.6311 H   0  0  0  0  0  0  0  0  0  0  0  0
    4.2596    1.1066   -2.3445 H   0  0  0  0  0  0  0  0  0  0  0  0
    4.4866   -0.5231   -1.6778 H   0  0  0  0  0  0  0  0  0  0  0  0
    2.2736   -2.1843   -1.2180 H   0  0  0  0  0  0  0  0  0  0  0  0
    2.4665   -0.4472    3.1395 H   0  0  0  0  0  0  0  0  0  0  0  0
   -2.5059    2.5570    0.2944 H   0  0  0  0  0  0  0  0  0  0  0  0
   -2.1553   -3.1705   -0.4292 H   0  0  0  0  0  0  0  0  0  0  0  0
   -3.4212    1.6677   -1.6906 H   0  0  0  0  0  0  0  0  0  0  0  0
   -5.0323    1.6143   -1.0767 H   0  0  0  0  0  0  0  0  0  0  0  0
  1 11  1  0  0  0  0
  1 12  1  0  0  0  0
  2  9  1  0  0  0  0
  2 30  1  0  0  0  0
  3 10  1  0  0  0  0
  3 31  1  0  0  0  0
  4 18  1  0  0  0  0
  4 32  1  0  0  0  0
  5 17  2  0  0  0  0
  6 21  2  0  0  0  0
  7 20  2  0  0  0  0
  7 33  1  0  0  0  0
  8 21  1  0  0  0  0
  8 34  1  0  0  0  0
  8 35  1  0  0  0  0
  9 10  1  0  0  0  0
  9 12  1  0  0  0  0
  9 14  1  0  0  0  0
 10 13  1  0  0  0  0
 10 22  1  0  0  0  0
 11 13  1  0  0  0  0
 11 15  1  0  0  0  0
 11 23  1  0  0  0  0
 12 16  1  0  0  0  0
 12 24  1  0  0  0  0
 13 25  1  0  0  0  0
 13 26  1  0  0  0  0
 14 15  2  0  0  0  0
 14 17  1  0  0  0  0
 15 18  1  0  0  0  0
 16 27  1  0  0  0  0
 16 28  1  0  0  0  0
 16 29  1  0  0  0  0
 17 20  1  0  0  0  0
 18 19  2  0  0  0  0
 19 20  1  0  0  0  0
 19 21  1  0  0  0  0
M  END
> <PUBCHEM_COMPOUND_CID>
135449469

> <PUBCHEM_CONFORMER_RMSD>
0.6

> <PUBCHEM_CONFORMER_DIVERSEORDER>
1
3
7
6
10
4
9
8
5
2

> <PUBCHEM_MMFF94_PARTIAL_CHARGES>
25
1 -0.56
10 0.28
11 0.42
12 0.28
14 -0.12
15 -0.14
17 0.56
18 0.08
19 0.03
2 -0.68
20 0.44
21 0.62
3 -0.68
30 0.4
31 0.4
32 0.45
33 0.4
34 0.37
35 0.37
4 -0.53
5 -0.57
6 -0.57
7 -0.85
8 -0.8
9 0.42

> <PUBCHEM_EFFECTIVE_ROTOR_COUNT>
1.8

> <PUBCHEM_PHARMACOPHORE_FEATURES>
13
1 1 acceptor
1 2 acceptor
1 2 donor
1 3 acceptor
1 3 donor
1 4 donor
1 5 acceptor
1 6 acceptor
1 7 acceptor
1 7 donor
1 8 donor
6 14 15 17 18 19 20 rings
8 1 9 10 11 12 13 14 15 rings

> <PUBCHEM_HEAVY_ATOM_COUNT>
21

> <PUBCHEM_ATOM_DEF_STEREO_COUNT>
0

> <PUBCHEM_ATOM_UDEF_STEREO_COUNT>
4

> <PUBCHEM_BOND_DEF_STEREO_COUNT>
0

> <PUBCHEM_BOND_UDEF_STEREO_COUNT>
0

> <PUBCHEM_ISOTOPIC_ATOM_COUNT>
0

> <PUBCHEM_COMPONENT_COUNT>
1

> <PUBCHEM_CACTVS_TAUTO_COUNT>
-1

> <PUBCHEM_CONFORMER_ID>
0812CB7D00000001

> <PUBCHEM_MMFF94_ENERGY>
72.8285

> <PUBCHEM_FEATURE_SELFOVERLAP>
66.002

> <PUBCHEM_SHAPE_FINGERPRINT>
10498660 4 18411138077740552109
10759866 29 17894915109225304036
10948715 1 17313680350812622188
10967382 1 18412546496364208287
11132069 177 18341604932609214883
12236239 1 17894912919477778772
12382932 28 18270387416778367761
12423570 1 16966070523128302800
12553582 1 18412544323337876133
13134695 92 15985109604695181232
13140716 1 18341046406430144603
13172582 1 18335972121280702675
13224815 77 18270956951159194653
13538477 17 18260827133004517502
13583140 156 17023176137639041557
14289901 80 16515694359568955817
14790565 3 18197521583005611993
15775835 57 18114186353766212748
16752209 62 18268986501768655641
16945 1 18341889667223548977
17349148 13 18196905903938469199
1813 80 17170100449296802282
18186145 218 17918274251327690473
19765921 60 17605849233423540428
20233049 118 18408887325988635788
20559304 39 18336262353795963242
20645476 183 17968100866734098639
20905425 154 17695350278434872846
21069387 34 14189306949514307558
2334 1 18196648716875021791
23419403 2 17256769358360393358
23493267 7 18040726899614492051
23526113 38 17560255625993321980
23557571 272 17488169590297337735
23559900 14 18201450216114791644
2748010 2 18270398433459120023
34934 24 18334857246729372044
474 4 16734125611528077188
495365 180 16988555805934668275
633830 44 17918276446177739721
7364860 26 18343863320976630640
74978 22 18342740757937695077
77492 1 17822282530851713882
81228 2 17836921574978050987
9981440 41 17252603768908193612

> <PUBCHEM_SHAPE_MULTIPOLES>
386.99
6.37
2.31
1.3
3.95
0.7
0.4
-0.99
-0.94
0.5
-0.12
-1.31
-0.13
-0.05

> <PUBCHEM_SHAPE_SELFOVERLAP>
857.472

> <PUBCHEM_SHAPE_VOLUME>
205.5

> <PUBCHEM_COORDINATE_TYPE>
2
5
10

$$$$
