135464246
  -OEChem-03292013293D

 40 44  0     0  0  0  0  0  0999 V2000
    2.7941    1.8861   -0.0008 O   0  0  0  0  0  0  0  0  0  0  0  0
   -3.0661    1.6929    0.0011 O   0  0  0  0  0  0  0  0  0  0  0  0
   -1.9310   -2.3465   -0.0029 O   0  0  0  0  0  0  0  0  0  0  0  0
    3.7738   -3.8906    0.0013 O   0  0  0  0  0  0  0  0  0  0  0  0
    1.7043   -2.9504    0.0029 O   0  0  0  0  0  0  0  0  0  0  0  0
   -1.2796    0.2982   -0.0001 N   0  0  0  0  0  0  0  0  0  0  0  0
    1.6115   -0.0475    0.0003 N   0  0  0  0  0  0  0  0  0  0  0  0
    0.4470    2.1485    0.0001 C   0  0  0  0  0  0  0  0  0  0  0  0
   -0.8441    1.6013    0.0004 C   0  0  0  0  0  0  0  0  0  0  0  0
   -1.9351    2.4579    0.0005 C   0  0  0  0  0  0  0  0  0  0  0  0
    1.5803    1.2670    0.0000 C   0  0  0  0  0  0  0  0  0  0  0  0
    2.9557   -0.3320    0.0003 C   0  0  0  0  0  0  0  0  0  0  0  0
    3.6827    0.8493   -0.0009 C   0  0  0  0  0  0  0  0  0  0  0  0
   -2.5891    0.4166    0.0008 C   0  0  0  0  0  0  0  0  0  0  0  0
    0.5706    3.5456   -0.0003 C   0  0  0  0  0  0  0  0  0  0  0  0
   -1.8529    3.8448    0.0005 C   0  0  0  0  0  0  0  0  0  0  0  0
   -3.5939   -0.6101    0.0011 C   0  0  0  0  0  0  0  0  0  0  0  0
    3.6461   -1.5525    0.0009 C   0  0  0  0  0  0  0  0  0  0  0  0
   -0.5581    4.3745   -0.0003 C   0  0  0  0  0  0  0  0  0  0  0  0
    5.0700    0.9253   -0.0017 C   0  0  0  0  0  0  0  0  0  0  0  0
    5.0481   -1.5166   -0.0003 C   0  0  0  0  0  0  0  0  0  0  0  0
    5.7434   -0.3010   -0.0018 C   0  0  0  0  0  0  0  0  0  0  0  0
   -3.2385   -1.9589   -0.0012 C   0  0  0  0  0  0  0  0  0  0  0  0
   -4.9396   -0.2435    0.0020 C   0  0  0  0  0  0  0  0  0  0  0  0
   -4.2289   -2.9412   -0.0026 C   0  0  0  0  0  0  0  0  0  0  0  0
    2.9345   -2.8171    0.0019 C   0  0  0  0  0  0  0  0  0  0  0  0
   -5.9302   -1.2257    0.0005 C   0  0  0  0  0  0  0  0  0  0  0  0
   -5.5748   -2.5745   -0.0018 C   0  0  0  0  0  0  0  0  0  0  0  0
    1.5489    4.0218   -0.0007 H   0  0  0  0  0  0  0  0  0  0  0  0
   -2.7320    4.4770    0.0008 H   0  0  0  0  0  0  0  0  0  0  0  0
   -0.4259    5.4539   -0.0007 H   0  0  0  0  0  0  0  0  0  0  0  0
    5.5981    1.8705   -0.0025 H   0  0  0  0  0  0  0  0  0  0  0  0
    5.6413   -2.4280   -0.0002 H   0  0  0  0  0  0  0  0  0  0  0  0
    6.8308   -0.3094   -0.0026 H   0  0  0  0  0  0  0  0  0  0  0  0
   -5.2614    0.7948    0.0035 H   0  0  0  0  0  0  0  0  0  0  0  0
   -3.9674   -3.9960   -0.0045 H   0  0  0  0  0  0  0  0  0  0  0  0
   -6.9783   -0.9409    0.0011 H   0  0  0  0  0  0  0  0  0  0  0  0
   -6.3461   -3.3392   -0.0029 H   0  0  0  0  0  0  0  0  0  0  0  0
   -1.8861   -3.3180   -0.0045 H   0  0  0  0  0  0  0  0  0  0  0  0
    3.2808   -4.7387    0.0019 H   0  0  0  0  0  0  0  0  0  0  0  0
  1 11  1  0  0  0  0
  1 13  1  0  0  0  0
  2 10  1  0  0  0  0
  2 14  1  0  0  0  0
  3 23  1  0  0  0  0
  3 39  1  0  0  0  0
  4 26  1  0  0  0  0
  4 40  1  0  0  0  0
  5 26  2  0  0  0  0
  6  9  1  0  0  0  0
  6 14  2  0  0  0  0
  7 11  2  0  0  0  0
  7 12  1  0  0  0  0
  8  9  2  0  0  0  0
  8 11  1  0  0  0  0
  8 15  1  0  0  0  0
  9 10  1  0  0  0  0
 10 16  2  0  0  0  0
 12 13  1  0  0  0  0
 12 18  2  0  0  0  0
 13 20  2  0  0  0  0
 14 17  1  0  0  0  0
 15 19  2  0  0  0  0
 15 29  1  0  0  0  0
 16 19  1  0  0  0  0
 16 30  1  0  0  0  0
 17 23  1  0  0  0  0
 17 24  2  0  0  0  0
 18 21  1  0  0  0  0
 18 26  1  0  0  0  0
 19 31  1  0  0  0  0
 20 22  1  0  0  0  0
 20 32  1  0  0  0  0
 21 22  2  0  0  0  0
 21 33  1  0  0  0  0
 22 34  1  0  0  0  0
 23 25  2  0  0  0  0
 24 27  1  0  0  0  0
 24 35  1  0  0  0  0
 25 28  1  0  0  0  0
 25 36  1  0  0  0  0
 27 28  2  0  0  0  0
 27 37  1  0  0  0  0
 28 38  1  0  0  0  0
M  END
> <PUBCHEM_COMPOUND_CID>
135464246

> <PUBCHEM_CONFORMER_RMSD>
0.8

> <PUBCHEM_CONFORMER_DIVERSEORDER>
1
16
20
21
17
4
7
10
6
19
13
5
8
18
9
11
12
15
14
3
2

> <PUBCHEM_MMFF94_PARTIAL_CHARGES>
40
1 -0.28
10 0.14
11 0.43
12 0.23
13 0.14
14 0.43
15 -0.15
16 -0.15
17 0.05
18 0.09
19 -0.15
2 -0.28
20 -0.15
21 -0.15
22 -0.15
23 0.08
24 -0.15
25 -0.15
26 0.63
27 -0.15
28 -0.15
29 0.15
3 -0.53
30 0.15
31 0.15
32 0.15
33 0.15
34 0.15
35 0.15
36 0.15
37 0.15
38 0.15
39 0.45
4 -0.65
40 0.5
5 -0.57
6 -0.57
7 -0.57
8 0.05
9 0.23

> <PUBCHEM_EFFECTIVE_ROTOR_COUNT>
3

> <PUBCHEM_PHARMACOPHORE_FEATURES>
9
1 3 donor
1 4 acceptor
1 5 acceptor
3 4 5 26 anion
5 1 7 11 12 13 rings
5 2 6 9 10 14 rings
6 12 13 18 20 21 22 rings
6 17 23 24 25 27 28 rings
6 8 9 10 15 16 19 rings

> <PUBCHEM_HEAVY_ATOM_COUNT>
28

> <PUBCHEM_ATOM_DEF_STEREO_COUNT>
0

> <PUBCHEM_ATOM_UDEF_STEREO_COUNT>
0

> <PUBCHEM_BOND_DEF_STEREO_COUNT>
0

> <PUBCHEM_BOND_UDEF_STEREO_COUNT>
0

> <PUBCHEM_ISOTOPIC_ATOM_COUNT>
0

> <PUBCHEM_COMPONENT_COUNT>
1

> <PUBCHEM_CACTVS_TAUTO_COUNT>
-1

> <PUBCHEM_CONFORMER_ID>
0813053600000001

> <PUBCHEM_MMFF94_ENERGY>
65.5365

> <PUBCHEM_FEATURE_SELFOVERLAP>
45.966

> <PUBCHEM_SHAPE_FINGERPRINT>
10050765 1 18194402191988401998
10411042 1 18410575123333615333
10616163 171 18339924805843463854
1100329 8 17979353384696933702
11963148 33 18408877465039883202
12553582 1 18339065090544836959
12788726 201 18261669285817829331
13140716 1 17981602981166126193
13402501 40 18337109063485750954
1361 2 18122904501727227235
13631057 29 18412829071343410464
13642711 20 16102468924158814181
138480 1 15024149219288238529
13989917 61 17977668933369445467
14117953 113 18343868827204300391
14394314 77 18411987957617020033
1454969 45 18337112397256020476
14681490 219 18408318891493859115
14790565 3 17184754035095986036
14866123 147 18196656194877548457
15042514 8 18339644443242768357
15250474 111 18117835504579851986
15320467 1 16897646286059403591
15352361 1 18410574019748559843
15927050 60 17764869092394473077
16087824 20 18337954481703600957
17492 89 18266739082890236042
17909252 39 18342179943052843474
19930381 70 18337669840618048779
19958102 18 17900811661611231717
20028762 73 18200312259586240438
21133410 171 17541042755289075091
21267235 1 18410863186790171078
21478907 32 18410292480569236697
22113638 7 18196930191477628086
23559900 14 18267014149991778769
24893989 43 17051627336495591663
3004659 81 18113613525430182436
3246872 21 18340481295792324774
335352 9 18410574012029258581
3421961 26 18268428130113312945
3882209 13 17542182854373446859
44880168 125 17203613644809482710
46194498 28 17459746119703018229
463206 1 18264209286654201787
5104073 3 18200024046127173856
5309563 4 18339924921623061951
56633871 153 18340498764083038217
59755656 215 18408887347611366694
6004065 56 18123180462335526051
613672 6 18266716100277135357
6443956 14 18264771128595309365
653340 110 18340199670791620722
7970288 3 18410854403856870527
9709674 26 18125159325672531996

> <PUBCHEM_SHAPE_MULTIPOLES>
536.92
12.43
5.29
0.59
1.54
2.16
0
-10.98
0
0.84
0
0.01
0.02
-0.01

> <PUBCHEM_SHAPE_SELFOVERLAP>
1236.338

> <PUBCHEM_SHAPE_VOLUME>
277

> <PUBCHEM_COORDINATE_TYPE>
2
5
10

$$$$
