135410911
  -OEChem-03292013293D

 27 29  0     0  0  0  0  0  0999 V2000
    4.0389   -2.9487   -0.0145 Cl  0  0  0  0  0  0  0  0  0  0  0  0
    1.2395    2.0896   -0.0402 S   0  0  0  0  0  0  0  0  0  0  0  0
    3.2855   -0.0727   -0.0581 S   0  0  0  0  0  0  0  0  0  0  0  0
    1.6564    2.5800   -1.3368 O   0  0  0  0  0  0  0  0  0  0  0  0
    1.7463    2.6414    1.1981 O   0  0  0  0  0  0  0  0  0  0  0  0
   -2.5155    0.8435    0.1197 N   0  0  0  0  0  0  0  0  0  0  0  0
   -0.4614    1.9696    0.0233 N   0  0  0  0  0  0  0  0  0  0  0  0
   -0.5648   -0.4860    0.0836 N   0  0  0  0  0  0  0  0  0  0  0  0
   -3.2251   -0.4409    0.1746 C   0  0  0  0  0  0  0  0  0  0  0  0
   -4.3035   -0.6512   -0.8605 C   0  0  0  0  0  0  0  0  0  0  0  0
   -2.9992   -1.3834   -0.9825 C   0  0  0  0  0  0  0  0  0  0  0  0
   -3.4211   -1.0151    1.5440 C   0  0  0  0  0  0  0  0  0  0  0  0
   -1.2212    0.7419    0.0774 C   0  0  0  0  0  0  0  0  0  0  0  0
    0.7835   -0.6444    0.0412 C   0  0  0  0  0  0  0  0  0  0  0  0
    1.6650    0.4003   -0.0141 C   0  0  0  0  0  0  0  0  0  0  0  0
    1.4627   -1.8940    0.0480 C   0  0  0  0  0  0  0  0  0  0  0  0
    2.8339   -1.7301   -0.0030 C   0  0  0  0  0  0  0  0  0  0  0  0
   -3.0074   -2.4509   -0.7938 H   0  0  0  0  0  0  0  0  0  0  0  0
   -2.3738   -1.0942   -1.8197 H   0  0  0  0  0  0  0  0  0  0  0  0
   -4.5019    0.1464   -1.5668 H   0  0  0  0  0  0  0  0  0  0  0  0
   -5.1797   -1.2269   -0.5873 H   0  0  0  0  0  0  0  0  0  0  0  0
   -4.0298   -0.3362    2.1505 H   0  0  0  0  0  0  0  0  0  0  0  0
   -2.4664   -1.1608    2.0586 H   0  0  0  0  0  0  0  0  0  0  0  0
   -3.9330   -1.9831    1.5123 H   0  0  0  0  0  0  0  0  0  0  0  0
   -0.9948    2.8484    0.0212 H   0  0  0  0  0  0  0  0  0  0  0  0
   -1.1032   -1.3342    0.2129 H   0  0  0  0  0  0  0  0  0  0  0  0
    0.9780   -2.8619    0.0878 H   0  0  0  0  0  0  0  0  0  0  0  0
  1 17  1  0  0  0  0
  2  4  2  0  0  0  0
  2  5  2  0  0  0  0
  2  7  1  0  0  0  0
  2 15  1  0  0  0  0
  3 15  1  0  0  0  0
  3 17  1  0  0  0  0
  6  9  1  0  0  0  0
  6 13  2  0  0  0  0
  7 13  1  0  0  0  0
  7 25  1  0  0  0  0
  8 13  1  0  0  0  0
  8 14  1  0  0  0  0
  8 26  1  0  0  0  0
  9 10  1  0  0  0  0
  9 11  1  0  0  0  0
  9 12  1  0  0  0  0
 10 11  1  0  0  0  0
 10 20  1  0  0  0  0
 10 21  1  0  0  0  0
 11 18  1  0  0  0  0
 11 19  1  0  0  0  0
 12 22  1  0  0  0  0
 12 23  1  0  0  0  0
 12 24  1  0  0  0  0
 14 15  2  0  0  0  0
 14 16  1  0  0  0  0
 16 17  2  0  0  0  0
 16 27  1  0  0  0  0
M  END
> <PUBCHEM_COMPOUND_CID>
135410911

> <PUBCHEM_CONFORMER_RMSD>
0.6

> <PUBCHEM_CONFORMER_DIVERSEORDER>
1
2

> <PUBCHEM_MMFF94_PARTIAL_CHARGES>
24
1 -0.12
10 -0.2
11 -0.2
12 0.09
13 0.74
14 0.08
15 -0.02
16 -0.15
17 0.16
18 0.1
19 0.1
2 1.5
20 0.1
21 0.1
25 0.42
26 0.4
27 0.15
3 -0.08
4 -0.65
5 -0.65
6 -0.66
7 -0.79
8 -0.53
9 0.12

> <PUBCHEM_EFFECTIVE_ROTOR_COUNT>
2

> <PUBCHEM_PHARMACOPHORE_FEATURES>
6
1 4 acceptor
1 5 acceptor
1 7 donor
1 8 donor
5 3 14 15 16 17 rings
6 2 7 8 13 14 15 rings

> <PUBCHEM_HEAVY_ATOM_COUNT>
17

> <PUBCHEM_ATOM_DEF_STEREO_COUNT>
0

> <PUBCHEM_ATOM_UDEF_STEREO_COUNT>
0

> <PUBCHEM_BOND_DEF_STEREO_COUNT>
0

> <PUBCHEM_BOND_UDEF_STEREO_COUNT>
0

> <PUBCHEM_ISOTOPIC_ATOM_COUNT>
0

> <PUBCHEM_COMPONENT_COUNT>
1

> <PUBCHEM_CACTVS_TAUTO_COUNT>
-1

> <PUBCHEM_CONFORMER_ID>
081234DF00000001

> <PUBCHEM_MMFF94_ENERGY>
36.7023

> <PUBCHEM_FEATURE_SELFOVERLAP>
30.538

> <PUBCHEM_SHAPE_FINGERPRINT>
10967382 1 18339078297685433614
11543360 7 15575296344729442314
11806522 49 18413101779832654718
12032990 46 18338239245875758330
12553582 1 18340211786541545158
13134695 92 18342450439581286500
13140716 1 18051414268895906546
13533116 47 18340493378405311851
14250199 8 18336827584582779455
14251717 144 18339636849339077887
14576447 43 18270954764572955215
15375462 189 18271817842730221603
15442244 35 18341895138890493433
15477762 27 18410571803398015022
15502722 9 18189905390228371613
16945 1 18337676420075039720
1813 80 18200328614557693198
19591789 44 17543930343495075114
200 152 18201147785428089063
20291156 8 18339643322034400806
20559304 39 18341613745586824036
20645477 70 18335412521850373103
20671657 53 18410011001007278655
21029758 27 18336555910727037910
21041028 32 18268728129162334001
21524375 3 17555731358735909632
21634736 98 18270394026538422742
221490 88 18335426815032393003
2255824 54 18338239396056903276
23114952 82 17968093165847233501
2334 1 17689718979488599898
23402539 116 18265609875811161302
23419403 2 18122028006725065612
23526113 38 17604446174839448506
23557571 272 17910397186965525182
23559900 14 18260261962563722651
2748010 2 18266730290917581780
3091708 16 9141137934848357544
458136 41 18047491189637934729
6049 1 17967537900048999535
6992083 37 17984997993983986761
7364860 26 18270958050449347832
7615 1 17917435354215595601
77492 1 17703236221169685171
81228 2 17762067540391323978
9709674 26 18334293214781919075

> <PUBCHEM_SHAPE_MULTIPOLES>
332.74
7.19
3.02
1
3.18
1.04
-0.1
-5.25
0.29
-3.18
0.07
0.64
0.1
-0.09

> <PUBCHEM_SHAPE_SELFOVERLAP>
677.442

> <PUBCHEM_SHAPE_VOLUME>
194.1

> <PUBCHEM_COORDINATE_TYPE>
2
5
10

$$$$
