135410906
  -OEChem-03292013293D

 41 43  0     1  0  0  0  0  0999 V2000
   -2.4865   -0.0074   -1.1058 O   0  0  0  0  0  0  0  0  0  0  0  0
   -1.8183   -2.0855    1.7393 O   0  0  0  0  0  0  0  0  0  0  0  0
   -4.1350   -2.0797    0.3003 O   0  0  0  0  0  0  0  0  0  0  0  0
   -3.8218    2.4587   -1.0535 O   0  0  0  0  0  0  0  0  0  0  0  0
   -0.8542    2.1313   -0.4482 O   0  0  0  0  0  0  0  0  0  0  0  0
    4.2520    0.3881   -0.2720 O   0  0  0  0  0  0  0  0  0  0  0  0
   -0.2885   -0.1833   -0.3296 N   0  0  0  0  0  0  0  0  0  0  0  0
    1.3887    1.3220   -0.3688 N   0  0  0  0  0  0  0  0  0  0  0  0
    1.0642   -2.2101   -0.2095 N   0  0  0  0  0  0  0  0  0  0  0  0
    3.3966   -1.7702   -0.1871 N   0  0  0  0  0  0  0  0  0  0  0  0
    2.6069   -3.9757   -0.0987 N   0  0  0  0  0  0  0  0  0  0  0  0
   -1.5819   -0.8051   -0.3247 C   0  0  1  0  0  0  0  0  0  0  0  0
   -2.1777   -0.8943    1.0698 C   0  0  1  0  0  0  0  0  0  0  0  0
   -3.6624   -0.8221    0.7823 C   0  0  1  0  0  0  0  0  0  0  0  0
   -3.7163    0.1721   -0.3697 C   0  0  1  0  0  0  0  0  0  0  0  0
   -3.7869    1.6224    0.0896 C   0  0  0  0  0  0  0  0  0  0  0  0
    0.9171   -0.8547   -0.2758 C   0  0  0  0  0  0  0  0  0  0  0  0
   -0.0377    1.2239   -0.3907 C   0  0  0  0  0  0  0  0  0  0  0  0
    1.9030    0.0520   -0.2999 C   0  0  0  0  0  0  0  0  0  0  0  0
    2.1422    2.5488   -0.4119 C   0  0  0  0  0  0  0  0  0  0  0  0
    3.3015   -0.3824   -0.2536 C   0  0  0  0  0  0  0  0  0  0  0  0
    2.2998   -2.6419   -0.1666 C   0  0  0  0  0  0  0  0  0  0  0  0
    2.6813    2.8380    0.9494 C   0  0  0  0  0  0  0  0  0  0  0  0
    2.4140    3.9551    1.6354 C   0  0  0  0  0  0  0  0  0  0  0  0
   -1.5105   -1.7890   -0.8037 H   0  0  0  0  0  0  0  0  0  0  0  0
   -1.8681   -0.0416    1.6862 H   0  0  0  0  0  0  0  0  0  0  0  0
   -4.2625   -0.5473    1.6544 H   0  0  0  0  0  0  0  0  0  0  0  0
   -4.5339   -0.0380   -1.0684 H   0  0  0  0  0  0  0  0  0  0  0  0
   -4.7045    1.7902    0.6630 H   0  0  0  0  0  0  0  0  0  0  0  0
   -2.9381    1.9099    0.7134 H   0  0  0  0  0  0  0  0  0  0  0  0
   -2.3227   -2.1171    2.5700 H   0  0  0  0  0  0  0  0  0  0  0  0
   -5.0796   -1.9754    0.0938 H   0  0  0  0  0  0  0  0  0  0  0  0
    2.9526    2.4538   -1.1417 H   0  0  0  0  0  0  0  0  0  0  0  0
    1.4823    3.3533   -0.7557 H   0  0  0  0  0  0  0  0  0  0  0  0
   -3.8815    3.3758   -0.7360 H   0  0  0  0  0  0  0  0  0  0  0  0
    4.3264   -2.1776   -0.1509 H   0  0  0  0  0  0  0  0  0  0  0  0
    3.3447    2.1137    1.4133 H   0  0  0  0  0  0  0  0  0  0  0  0
    1.8790   -4.6817   -0.0791 H   0  0  0  0  0  0  0  0  0  0  0  0
    3.5684   -4.2962   -0.0659 H   0  0  0  0  0  0  0  0  0  0  0  0
    2.8432    4.1120    2.6190 H   0  0  0  0  0  0  0  0  0  0  0  0
    1.7671    4.7269    1.2334 H   0  0  0  0  0  0  0  0  0  0  0  0
  1 12  1  0  0  0  0
  1 15  1  0  0  0  0
  2 13  1  0  0  0  0
  2 31  1  0  0  0  0
  3 14  1  0  0  0  0
  3 32  1  0  0  0  0
  4 16  1  0  0  0  0
  4 35  1  0  0  0  0
  5 18  2  0  0  0  0
  6 21  2  0  0  0  0
  7 12  1  0  0  0  0
  7 17  1  0  0  0  0
  7 18  1  0  0  0  0
  8 18  1  0  0  0  0
  8 19  1  0  0  0  0
  8 20  1  0  0  0  0
  9 17  1  0  0  0  0
  9 22  2  0  0  0  0
 10 21  1  0  0  0  0
 10 22  1  0  0  0  0
 10 36  1  0  0  0  0
 11 22  1  0  0  0  0
 11 38  1  0  0  0  0
 11 39  1  0  0  0  0
 12 13  1  0  0  0  0
 12 25  1  0  0  0  0
 13 14  1  0  0  0  0
 13 26  1  0  0  0  0
 14 15  1  0  0  0  0
 14 27  1  0  0  0  0
 15 16  1  0  0  0  0
 15 28  1  0  0  0  0
 16 29  1  0  0  0  0
 16 30  1  0  0  0  0
 17 19  2  0  0  0  0
 19 21  1  0  0  0  0
 20 23  1  0  0  0  0
 20 33  1  0  0  0  0
 20 34  1  0  0  0  0
 23 24  2  0  0  0  0
 23 37  1  0  0  0  0
 24 40  1  0  0  0  0
 24 41  1  0  0  0  0
M  END
> <PUBCHEM_COMPOUND_CID>
135410906

> <PUBCHEM_CONFORMER_RMSD>
0.8

> <PUBCHEM_CONFORMER_DIVERSEORDER>
1
19
21
9
29
24
14
27
18
8
2
23
15
5
22
28
26
7
6
20
25
17
3
13
16
12
11
10
4

> <PUBCHEM_MMFF94_PARTIAL_CHARGES>
33
1 -0.56
10 -0.49
11 -0.85
12 0.58
13 0.28
14 0.28
15 0.28
16 0.28
17 0.28
18 0.69
19 0.12
2 -0.68
20 0.44
21 0.62
22 0.56
23 -0.29
24 -0.3
3 -0.68
31 0.4
32 0.4
35 0.4
36 0.37
37 0.15
38 0.4
39 0.4
4 -0.68
40 0.15
41 0.15
5 -0.57
6 -0.57
7 -0.47
8 -0.47
9 -0.62

> <PUBCHEM_EFFECTIVE_ROTOR_COUNT>
5

> <PUBCHEM_PHARMACOPHORE_FEATURES>
15
1 1 acceptor
1 10 donor
1 11 donor
1 2 acceptor
1 2 donor
1 24 hydrophobe
1 3 acceptor
1 3 donor
1 4 acceptor
1 4 donor
1 5 acceptor
1 6 acceptor
5 1 12 13 14 15 rings
5 7 8 17 18 19 rings
6 9 10 17 19 21 22 rings

> <PUBCHEM_HEAVY_ATOM_COUNT>
24

> <PUBCHEM_ATOM_DEF_STEREO_COUNT>
4

> <PUBCHEM_ATOM_UDEF_STEREO_COUNT>
0

> <PUBCHEM_BOND_DEF_STEREO_COUNT>
0

> <PUBCHEM_BOND_UDEF_STEREO_COUNT>
0

> <PUBCHEM_ISOTOPIC_ATOM_COUNT>
0

> <PUBCHEM_COMPONENT_COUNT>
1

> <PUBCHEM_CACTVS_TAUTO_COUNT>
-1

> <PUBCHEM_CONFORMER_ID>
081234DA00000001

> <PUBCHEM_MMFF94_ENERGY>
72.8369

> <PUBCHEM_FEATURE_SELFOVERLAP>
76.301

> <PUBCHEM_SHAPE_FINGERPRINT>
10074138 170 17044542087992395672
10366900 7 18261967356590641883
10608611 8 18408041827432509861
10967382 1 18410013230300994622
1100329 8 17546165199499611272
11578080 2 17416372490732122385
11582403 64 16889138067577844677
116883 192 17692816991060385278
12788726 201 17688312279110442026
13134695 92 18198614445938695492
13140716 1 18195806499679561770
13533116 47 18411141342569701111
13583140 156 18341893000329076677
14223421 5 18408889567987723461
14466204 15 18411973655518297344
14790565 3 18264781020401494596
14866123 147 16539049837167725850
15295992 7 18337123267665110345
16945 1 18412258450251214614
19049666 15 18334017185638577745
19591789 44 17109058144148463460
21033648 29 17983285221024983504
221490 88 18336272253748581358
2334 1 17906173211078316166
23559900 14 18261674860785885197
2748010 2 18119533382160236916
3091708 16 8999543939898904600
335352 9 17975414612103002351
350125 39 18266184026859585228
469060 322 17187284007198430203
495365 180 18341600577159260689
5104073 3 18335984177201272650
58807428 26 18051678139134097312
7364860 26 18413105065582992868
7399639 24 18193835075277913067
81228 2 17547020624030541502
84936 182 18130504261774652096
8809292 202 18187653444580976983
9709674 26 18334584529243978643
9981440 41 18052517040272407481

> <PUBCHEM_SHAPE_MULTIPOLES>
433.79
7.52
4.25
1.07
4.05
0.45
-0.35
0.6
-0.27
-3.94
-1.03
0.33
0.4
1.87

> <PUBCHEM_SHAPE_SELFOVERLAP>
934.25

> <PUBCHEM_SHAPE_VOLUME>
235.1

> <PUBCHEM_COORDINATE_TYPE>
2
5
10

$$$$
