135443603
  -OEChem-03292013293D

 56 58  0     1  0  0  0  0  0999 V2000
   -6.1850    3.5290   -0.9744 O   0  0  0  0  0  0  0  0  0  0  0  0
   -3.2033    1.1560    2.0258 O   0  0  0  0  0  0  0  0  0  0  0  0
   -5.4358    1.8626   -2.3205 O   0  0  0  0  0  0  0  0  0  0  0  0
    6.6376   -0.7265   -2.2352 O   0  0  0  0  0  0  0  0  0  0  0  0
   -8.3559   -2.2513   -0.5870 O   0  0  0  0  0  0  0  0  0  0  0  0
   -8.5503   -1.0676    1.3387 O   0  0  0  0  0  0  0  0  0  0  0  0
    1.5608   -2.1736   -0.5714 N   0  0  3  0  0  0  0  0  0  0  0  0
   -4.0529    0.8706   -0.1130 N   0  0  0  0  0  0  0  0  0  0  0  0
    6.3861    1.6447    1.0828 N   0  0  0  0  0  0  0  0  0  0  0  0
    7.4084    1.0251   -0.9435 N   0  0  0  0  0  0  0  0  0  0  0  0
    8.2609    2.8123    0.2969 N   0  0  0  0  0  0  0  0  0  0  0  0
    2.5599   -2.5348    0.4107 C   0  0  0  0  0  0  0  0  0  0  0  0
   -5.2824    1.6009    0.0961 C   0  0  2  0  0  0  0  0  0  0  0  0
   -6.4198    0.7186    0.6248 C   0  0  0  0  0  0  0  0  0  0  0  0
    3.5666   -1.4461    0.5734 C   0  0  0  0  0  0  0  0  0  0  0  0
    0.4095   -1.4627   -0.2111 C   0  0  0  0  0  0  0  0  0  0  0  0
   -6.8841   -0.4051   -0.3105 C   0  0  0  0  0  0  0  0  0  0  0  0
    4.5554   -1.2615   -0.3914 C   0  0  0  0  0  0  0  0  0  0  0  0
   -1.8848   -0.0463    0.5044 C   0  0  0  0  0  0  0  0  0  0  0  0
    5.4936   -0.2380   -0.2284 C   0  0  0  0  0  0  0  0  0  0  0  0
    3.5167   -0.6137    1.6905 C   0  0  0  0  0  0  0  0  0  0  0  0
   -0.0169   -1.4507    1.1170 C   0  0  0  0  0  0  0  0  0  0  0  0
   -0.3112   -0.7665   -1.1815 C   0  0  0  0  0  0  0  0  0  0  0  0
   -3.0802    0.6928    0.8778 C   0  0  0  0  0  0  0  0  0  0  0  0
    1.7803   -2.5619   -1.9641 C   0  0  0  0  0  0  0  0  0  0  0  0
    5.4568    0.6067    0.8888 C   0  0  0  0  0  0  0  0  0  0  0  0
   -1.1640   -0.7426    1.4747 C   0  0  0  0  0  0  0  0  0  0  0  0
   -1.4585   -0.0584   -0.8237 C   0  0  0  0  0  0  0  0  0  0  0  0
    4.4568    0.4069    1.8469 C   0  0  0  0  0  0  0  0  0  0  0  0
   -5.6156    2.3154   -1.1975 C   0  0  0  0  0  0  0  0  0  0  0  0
    6.5509   -0.0230   -1.2358 C   0  0  0  0  0  0  0  0  0  0  0  0
   -8.0154   -1.2383    0.2520 C   0  0  0  0  0  0  0  0  0  0  0  0
    7.3158    1.8269    0.1878 C   0  0  0  0  0  0  0  0  0  0  0  0
    3.0956   -3.4351    0.0757 H   0  0  0  0  0  0  0  0  0  0  0  0
    2.1572   -2.8595    1.3748 H   0  0  0  0  0  0  0  0  0  0  0  0
   -5.0684    2.3712    0.8481 H   0  0  0  0  0  0  0  0  0  0  0  0
   -6.1144    0.2751    1.5816 H   0  0  0  0  0  0  0  0  0  0  0  0
   -7.2834    1.3592    0.8474 H   0  0  0  0  0  0  0  0  0  0  0  0
   -3.9415    0.4149   -1.0131 H   0  0  0  0  0  0  0  0  0  0  0  0
   -6.0454   -1.0795   -0.5160 H   0  0  0  0  0  0  0  0  0  0  0  0
   -7.2347    0.0206   -1.2567 H   0  0  0  0  0  0  0  0  0  0  0  0
    4.5981   -1.9141   -1.2590 H   0  0  0  0  0  0  0  0  0  0  0  0
    2.7534   -0.7480    2.4521 H   0  0  0  0  0  0  0  0  0  0  0  0
    0.4827   -1.9866    1.9147 H   0  0  0  0  0  0  0  0  0  0  0  0
   -0.0037   -0.7342   -2.2225 H   0  0  0  0  0  0  0  0  0  0  0  0
    2.5813   -3.3039   -2.0543 H   0  0  0  0  0  0  0  0  0  0  0  0
    2.0714   -1.6956   -2.5677 H   0  0  0  0  0  0  0  0  0  0  0  0
    0.8820   -3.0201   -2.3932 H   0  0  0  0  0  0  0  0  0  0  0  0
   -1.4857   -0.7520    2.5130 H   0  0  0  0  0  0  0  0  0  0  0  0
   -1.9715    0.4970   -1.6035 H   0  0  0  0  0  0  0  0  0  0  0  0
    4.4041    1.0467    2.7246 H   0  0  0  0  0  0  0  0  0  0  0  0
    8.1564    1.2194   -1.6028 H   0  0  0  0  0  0  0  0  0  0  0  0
   -6.4164    3.9835   -1.8123 H   0  0  0  0  0  0  0  0  0  0  0  0
    8.2709    3.4448    1.0896 H   0  0  0  0  0  0  0  0  0  0  0  0
    8.9774    2.9390   -0.4095 H   0  0  0  0  0  0  0  0  0  0  0  0
   -9.0768   -2.8048   -0.2178 H   0  0  0  0  0  0  0  0  0  0  0  0
  1 30  1  0  0  0  0
  1 53  1  0  0  0  0
  2 24  2  0  0  0  0
  3 30  2  0  0  0  0
  4 31  2  0  0  0  0
  5 32  1  0  0  0  0
  5 56  1  0  0  0  0
  6 32  2  0  0  0  0
  7 12  1  0  0  0  0
  7 16  1  0  0  0  0
  7 25  1  0  0  0  0
  8 13  1  0  0  0  0
  8 24  1  0  0  0  0
  8 39  1  0  0  0  0
  9 26  1  0  0  0  0
  9 33  2  0  0  0  0
 10 31  1  0  0  0  0
 10 33  1  0  0  0  0
 10 52  1  0  0  0  0
 11 33  1  0  0  0  0
 11 54  1  0  0  0  0
 11 55  1  0  0  0  0
 12 15  1  0  0  0  0
 12 34  1  0  0  0  0
 12 35  1  0  0  0  0
 13 14  1  0  0  0  0
 13 30  1  0  0  0  0
 13 36  1  0  0  0  0
 14 17  1  0  0  0  0
 14 37  1  0  0  0  0
 14 38  1  0  0  0  0
 15 18  2  0  0  0  0
 15 21  1  0  0  0  0
 16 22  2  0  0  0  0
 16 23  1  0  0  0  0
 17 32  1  0  0  0  0
 17 40  1  0  0  0  0
 17 41  1  0  0  0  0
 18 20  1  0  0  0  0
 18 42  1  0  0  0  0
 19 24  1  0  0  0  0
 19 27  2  0  0  0  0
 19 28  1  0  0  0  0
 20 26  2  0  0  0  0
 20 31  1  0  0  0  0
 21 29  2  0  0  0  0
 21 43  1  0  0  0  0
 22 27  1  0  0  0  0
 22 44  1  0  0  0  0
 23 28  2  0  0  0  0
 23 45  1  0  0  0  0
 25 46  1  0  0  0  0
 25 47  1  0  0  0  0
 25 48  1  0  0  0  0
 26 29  1  0  0  0  0
 27 49  1  0  0  0  0
 28 50  1  0  0  0  0
 29 51  1  0  0  0  0
M  END
> <PUBCHEM_COMPOUND_CID>
135443603

> <PUBCHEM_CONFORMER_RMSD>
1

> <PUBCHEM_CONFORMER_DIVERSEORDER>
25
293
95
23
245
166
22
195
76
6
103
219
241
252
280
143
110
17
206
183
212
289
36
178
197
70
164
225
170
75
53
119
242
135
116
123
223
173
28
184
214
272
168
239
160
294
229
108
256
105
270
284
271
71
10
196
292
144
264
286
261
98
257
55
218
62
232
231
94
198
26
78
179
60
233
120
253
112
43
132
89
281
147
7
248
287
39
156
188
267
237
121
85
102
154
243
66
34
88
217
82
139
291
174
277
4
130
185
265
126
148
64
19
8
200
285
107
269
176
115
165
72
259
111
167
97
56
48
5
208
155
83
86
158
251
283
204
268
181
163
73
199
90
216
207
288
203
54
295
93
224
2
145
113
92
52
80
187
172
138
192
14
33
234
263
42
21
63
205
282
67
127
227
213
1
260
99
159
128
9
122
141
191
125
41
202
228
210
273
3
136
106
91
117
13
146
100
114
215
16
104
255
190
236
258
44
32
221
175
162
27
46
226
194
157
151
61
279
51
30
49
290
24
133
211
150
222
161
247
240
149
101
266
153
250
47
118
209
193
169
142
152
177
59
278
186
79
297
58
35
87
296
109
230
140
38
182
276
84
31
171
274
15
18
40
254
50
262
129
29
275
131
235
11
68
45
37
180
77
201
244
137
20
189
96
65
81
57
74
249
238
12
246
134
69
220
124

> <PUBCHEM_MMFF94_PARTIAL_CHARGES>
45
1 -0.65
10 -0.49
11 -0.85
12 0.51
13 0.36
15 -0.14
16 0.1
17 0.06
18 -0.15
19 0.09
2 -0.57
20 0.09
21 -0.15
22 -0.15
23 -0.15
24 0.54
25 0.37
26 0.18
27 -0.15
28 -0.15
29 -0.15
3 -0.57
30 0.66
31 0.54
32 0.66
33 0.56
39 0.37
4 -0.57
42 0.15
43 0.15
44 0.15
45 0.15
49 0.15
5 -0.65
50 0.15
51 0.15
52 0.37
53 0.5
54 0.4
55 0.4
56 0.5
6 -0.57
7 -0.84
8 -0.73
9 -0.63

> <PUBCHEM_EFFECTIVE_ROTOR_COUNT>
10

> <PUBCHEM_PHARMACOPHORE_FEATURES>
15
1 1 acceptor
1 10 donor
1 11 donor
1 2 acceptor
1 3 acceptor
1 4 acceptor
1 5 acceptor
1 6 acceptor
1 7 cation
1 8 donor
3 1 3 30 anion
3 5 6 32 anion
6 15 18 20 21 26 29 rings
6 16 19 22 23 27 28 rings
6 9 10 20 26 31 33 rings

> <PUBCHEM_HEAVY_ATOM_COUNT>
33

> <PUBCHEM_ATOM_DEF_STEREO_COUNT>
0

> <PUBCHEM_ATOM_UDEF_STEREO_COUNT>
1

> <PUBCHEM_BOND_DEF_STEREO_COUNT>
0

> <PUBCHEM_BOND_UDEF_STEREO_COUNT>
0

> <PUBCHEM_ISOTOPIC_ATOM_COUNT>
0

> <PUBCHEM_COMPONENT_COUNT>
1

> <PUBCHEM_CACTVS_TAUTO_COUNT>
-1

> <PUBCHEM_CONFORMER_ID>
0812B49300000019

> <PUBCHEM_MMFF94_ENERGY>
97.344

> <PUBCHEM_FEATURE_SELFOVERLAP>
76.313

> <PUBCHEM_SHAPE_FINGERPRINT>
10674148 151 12679464179253966542
10677351 27 16056589946749576551
11115154 58 13973968727324176754
12440610 7 18041013816416052514
13947947 140 11964206555961419032
14251764 18 17094963247110073829
14347424 109 11602826813258072478
14444916 359 13758358877999509429
150020 25 18202847643416029263
15142383 8 11025799803327763962
15183329 4 15769768035870490105
15352257 5 12679172808846640493
15475509 8 13183018536270766035
15510800 12 10303814294338891756
16994733 274 18186515475853248425
17686467 74 18041000679012088993
20105231 36 15913332407755597319
20567600 234 17894914026946494374
21033648 29 17675926469860224642
21130935 74 17822289016574578667
21781051 124 14548731841530395494
21792934 111 12396289383489306366
24771293 8 17749392546498296357
3418910 222 18335709334430442357
4258327 124 18261966261558305502
439807 62 10519716587701361240
531348 171 10737298939849116313
5381727 24 18410570691898641754
6126387 218 12468350271851364591
6371009 1 15647058136423059623
6691757 9 15936419931382753345

> <PUBCHEM_SHAPE_MULTIPOLES>
619
26.81
2.81
1.79
14.89
0.86
0.26
11.09
2.61
0.79
0.83
-0.48
0.02
2.29

> <PUBCHEM_SHAPE_SELFOVERLAP>
1326.09

> <PUBCHEM_SHAPE_VOLUME>
339.3

> <PUBCHEM_COORDINATE_TYPE>
2
5
10

$$$$
