135434159
  -OEChem-03292013293D

 33 35  0     0  0  0  0  0  0999 V2000
   -5.0140   -0.3932   -0.0831 P   0  0  0  0  0  0  0  0  0  0  0  0
   -0.8626    0.8441   -0.2261 O   0  0  0  0  0  0  0  0  0  0  0  0
   -3.9628   -0.5410    1.1396 O   0  0  0  0  0  0  0  0  0  0  0  0
   -4.4460    0.8746   -0.9170 O   0  0  0  0  0  0  0  0  0  0  0  0
   -4.6971   -1.6618   -1.0369 O   0  0  0  0  0  0  0  0  0  0  0  0
   -6.4522   -0.2712    0.3280 O   0  0  0  0  0  0  0  0  0  0  0  0
    5.5500    0.2445   -0.7147 O   0  0  0  0  0  0  0  0  0  0  0  0
    1.3123    1.2297    0.5047 N   0  0  0  0  0  0  0  0  0  0  0  0
    3.3000    2.0755   -0.0747 N   0  0  0  0  0  0  0  0  0  0  0  0
    1.7854   -1.1409    0.3810 N   0  0  0  0  0  0  0  0  0  0  0  0
    4.0615   -1.5004   -0.2749 N   0  0  0  0  0  0  0  0  0  0  0  0
    2.6302   -3.3211    0.1493 N   0  0  0  0  0  0  0  0  0  0  0  0
   -2.2460    0.8058    0.0909 C   0  0  0  0  0  0  0  0  0  0  0  0
   -3.0537    0.9211   -1.1979 C   0  0  0  0  0  0  0  0  0  0  0  0
   -2.5748   -0.4825    0.8400 C   0  0  0  0  0  0  0  0  0  0  0  0
   -0.0734    1.1982    0.9059 C   0  0  0  0  0  0  0  0  0  0  0  0
    2.1287    0.1618    0.2745 C   0  0  0  0  0  0  0  0  0  0  0  0
    3.3371    0.7124   -0.0779 C   0  0  0  0  0  0  0  0  0  0  0  0
    2.0625    2.3586    0.2816 C   0  0  0  0  0  0  0  0  0  0  0  0
    4.4387   -0.1552   -0.3914 C   0  0  0  0  0  0  0  0  0  0  0  0
    2.7762   -1.9589    0.0991 C   0  0  0  0  0  0  0  0  0  0  0  0
   -2.5235    1.6617    0.7218 H   0  0  0  0  0  0  0  0  0  0  0  0
   -2.8330    1.8686   -1.7007 H   0  0  0  0  0  0  0  0  0  0  0  0
   -2.7958    0.1237   -1.9041 H   0  0  0  0  0  0  0  0  0  0  0  0
   -2.2888   -1.3653    0.2569 H   0  0  0  0  0  0  0  0  0  0  0  0
   -2.0369   -0.5487    1.7891 H   0  0  0  0  0  0  0  0  0  0  0  0
   -0.1596    0.4684    1.7159 H   0  0  0  0  0  0  0  0  0  0  0  0
   -0.3493    2.1930    1.2726 H   0  0  0  0  0  0  0  0  0  0  0  0
    1.6545    3.3542    0.3929 H   0  0  0  0  0  0  0  0  0  0  0  0
    4.7685   -2.2020   -0.4752 H   0  0  0  0  0  0  0  0  0  0  0  0
   -5.0445   -2.5435   -0.7838 H   0  0  0  0  0  0  0  0  0  0  0  0
    1.7458   -3.7450    0.4074 H   0  0  0  0  0  0  0  0  0  0  0  0
    3.3999   -3.9440   -0.0696 H   0  0  0  0  0  0  0  0  0  0  0  0
  1  3  1  0  0  0  0
  1  4  1  0  0  0  0
  1  5  1  0  0  0  0
  1  6  2  0  0  0  0
  2 13  1  0  0  0  0
  2 16  1  0  0  0  0
  3 15  1  0  0  0  0
  4 14  1  0  0  0  0
  5 31  1  0  0  0  0
  7 20  2  0  0  0  0
  8 16  1  0  0  0  0
  8 17  1  0  0  0  0
  8 19  1  0  0  0  0
  9 18  1  0  0  0  0
  9 19  2  0  0  0  0
 10 17  1  0  0  0  0
 10 21  2  0  0  0  0
 11 20  1  0  0  0  0
 11 21  1  0  0  0  0
 11 30  1  0  0  0  0
 12 21  1  0  0  0  0
 12 32  1  0  0  0  0
 12 33  1  0  0  0  0
 13 14  1  0  0  0  0
 13 15  1  0  0  0  0
 13 22  1  0  0  0  0
 14 23  1  0  0  0  0
 14 24  1  0  0  0  0
 15 25  1  0  0  0  0
 15 26  1  0  0  0  0
 16 27  1  0  0  0  0
 16 28  1  0  0  0  0
 17 18  2  0  0  0  0
 18 20  1  0  0  0  0
 19 29  1  0  0  0  0
M  END
> <PUBCHEM_COMPOUND_CID>
135434159

> <PUBCHEM_CONFORMER_RMSD>
0.6

> <PUBCHEM_CONFORMER_DIVERSEORDER>
1
140
41
143
136
25
47
109
129
142
26
131
52
125
148
74
77
114
76
35
6
97
134
68
149
146
46
100
66
99
71
102
98
51
92
56
39
72
10
105
24
94
147
141
104
15
144
48
87
43
122
111
27
91
112
127
14
7
115
107
63
57
62
61
53
82
4
64
90
29
67
132
133
59
50
45
55
12
128
32
81
119
8
13
79
3
23
78
137
22
139
121
69
40
42
11
20
5
138
93
95
9
103
54
88
120
106
36
145
116
118
38
37
96
44
2
83
60
117
85
80
30
34
123
86
101
130
135
108
28
49
70
84
58
31
113
18
75
89
33
73
65
19
126
124
110
17
21
16

> <PUBCHEM_MMFF94_PARTIAL_CHARGES>
26
1 1.51
10 -0.58
11 -0.49
12 -0.85
13 0.28
14 0.28
15 0.28
16 0.54
17 -0.03
18 0.14
19 0.04
2 -0.56
20 0.72
21 0.56
29 0.15
3 -0.55
30 0.37
31 0.5
32 0.4
33 0.4
4 -0.55
5 -0.77
6 -0.7
7 -0.57
8 0.05
9 -0.57

> <PUBCHEM_EFFECTIVE_ROTOR_COUNT>
4

> <PUBCHEM_PHARMACOPHORE_FEATURES>
10
1 11 donor
1 12 donor
1 2 acceptor
1 5 acceptor
1 6 acceptor
1 7 acceptor
3 8 9 19 cation
5 8 9 17 18 19 rings
6 1 3 4 13 14 15 rings
6 10 11 17 18 20 21 rings

> <PUBCHEM_HEAVY_ATOM_COUNT>
21

> <PUBCHEM_ATOM_DEF_STEREO_COUNT>
0

> <PUBCHEM_ATOM_UDEF_STEREO_COUNT>
0

> <PUBCHEM_BOND_DEF_STEREO_COUNT>
0

> <PUBCHEM_BOND_UDEF_STEREO_COUNT>
0

> <PUBCHEM_ISOTOPIC_ATOM_COUNT>
0

> <PUBCHEM_COMPONENT_COUNT>
1

> <PUBCHEM_CACTVS_TAUTO_COUNT>
-1

> <PUBCHEM_CONFORMER_ID>
08128FAF00000001

> <PUBCHEM_MMFF94_ENERGY>
25.7935

> <PUBCHEM_FEATURE_SELFOVERLAP>
50.935

> <PUBCHEM_SHAPE_FINGERPRINT>
10366900 7 18187650218838946280
10498660 4 16588293952583267645
11796584 16 17775570849193369263
12107183 9 17838909127113298073
12236239 1 17346602988807431217
12553582 1 17917701383936125580
12596602 18 16988559160362278955
12616999 72 18260830384711459532
12730499 353 18334018323546474586
13167823 11 18201435917704120999
13464513 79 18273500074504746790
13533116 47 18343865528806066489
13836976 161 18334863848515755020
13862211 1 18339362968861766954
14386348 63 18114185246049642217
14573314 32 18186236213058774437
14576447 43 18341613694474360928
14617045 38 18335989726779377999
15110567 62 18409449167693061491
15183329 4 18340764854729656177
15188451 53 14476662153724762253
15537594 2 18201718457353037239
15635459 17 18334860502129849282
15961568 22 16588590936687352636
17834072 33 18413107277406656813
17844677 252 18412268341746104581
19433438 38 18114178614377673884
200 152 18273214192454104361
20281475 54 18272646853365716937
20645477 70 18408884031569007816
21033650 10 15792859888761351196
21267235 1 18343309137120064822
21521721 280 18342460400354426544
221357 26 18408318874419523909
221490 88 18336552719397298146
2215653 11 18335412457758030301
23402539 116 16660362580502876860
235170 7 17676757704486861927
23557571 272 17458060452402996757
23559900 14 18335135440446150481
23596394 208 18114176415159135563
239999 70 18202285823007286988
2838139 119 15865223319663774310
2871803 45 18334297552424068360
3323516 105 18333731312240874769
33824 294 18410290320342754466
351380 3 17775283854745839807
42630746 31 18271523191406159784
4340502 62 18200583817889393032
46194498 28 17821733861601580308
465052 167 18059861679103219591
5281201 14 18113900450810478589
59682541 52 18197189531168296261
9709674 26 18260829323759644059

> <PUBCHEM_SHAPE_MULTIPOLES>
375.9
12.69
2.33
0.92
11.03
1.09
-0.04
2.88
-2.16
-2.62
0.06
0.72
-0.05
0.18

> <PUBCHEM_SHAPE_SELFOVERLAP>
794.345

> <PUBCHEM_SHAPE_VOLUME>
212.5

> <PUBCHEM_COORDINATE_TYPE>
2
5
10

$$$$
