135436455
  -OEChem-03292013293D

 33 34  0     1  0  0  0  0  0999 V2000
   -2.1385    2.0755    0.3637 O   0  0  0  0  0  0  0  0  0  0  0  0
   -6.1543   -0.0895   -0.0949 O   0  0  0  0  0  0  0  0  0  0  0  0
    4.3537   -1.2279    0.7150 O   0  0  0  0  0  0  0  0  0  0  0  0
    0.0210   -0.9213   -0.5294 N   0  0  0  0  0  0  0  0  0  0  0  0
    1.6533   -2.3089    0.1127 N   0  0  0  0  0  0  0  0  0  0  0  0
    1.1962    1.1946   -0.4909 N   0  0  0  0  0  0  0  0  0  0  0  0
    3.4715    0.8684    0.1852 N   0  0  0  0  0  0  0  0  0  0  0  0
    2.6668    3.0199   -0.3314 N   0  0  0  0  0  0  0  0  0  0  0  0
   -2.3769   -0.3418    0.1788 C   0  0  2  0  0  0  0  0  0  0  0  0
   -1.3479   -0.4645   -0.9720 C   0  0  0  0  0  0  0  0  0  0  0  0
   -3.7909   -0.2669   -0.4375 C   0  0  0  0  0  0  0  0  0  0  0  0
   -2.0698    0.8577    1.0918 C   0  0  0  0  0  0  0  0  0  0  0  0
    1.1243   -0.1452   -0.3286 C   0  0  0  0  0  0  0  0  0  0  0  0
   -4.9111   -0.1718    0.5916 C   0  0  0  0  0  0  0  0  0  0  0  0
    0.3892   -2.2150   -0.2511 C   0  0  0  0  0  0  0  0  0  0  0  0
    2.1055   -1.0235    0.0633 C   0  0  0  0  0  0  0  0  0  0  0  0
    3.4188   -0.5216    0.3595 C   0  0  0  0  0  0  0  0  0  0  0  0
    2.3891    1.6817   -0.2260 C   0  0  0  0  0  0  0  0  0  0  0  0
   -2.3232   -1.2490    0.7949 H   0  0  0  0  0  0  0  0  0  0  0  0
   -1.6584   -1.2251   -1.6992 H   0  0  0  0  0  0  0  0  0  0  0  0
   -1.2026    0.4773   -1.5120 H   0  0  0  0  0  0  0  0  0  0  0  0
   -3.8610    0.5880   -1.1230 H   0  0  0  0  0  0  0  0  0  0  0  0
   -3.9673   -1.1522   -1.0627 H   0  0  0  0  0  0  0  0  0  0  0  0
   -2.7664    0.9105    1.9333 H   0  0  0  0  0  0  0  0  0  0  0  0
   -1.0642    0.7690    1.5152 H   0  0  0  0  0  0  0  0  0  0  0  0
   -4.8216    0.7256    1.2086 H   0  0  0  0  0  0  0  0  0  0  0  0
   -4.9236   -1.0546    1.2382 H   0  0  0  0  0  0  0  0  0  0  0  0
   -0.3054   -3.0400   -0.3310 H   0  0  0  0  0  0  0  0  0  0  0  0
   -1.9266    2.7924    0.9854 H   0  0  0  0  0  0  0  0  0  0  0  0
    4.3587    1.3281    0.3688 H   0  0  0  0  0  0  0  0  0  0  0  0
   -6.8508   -0.0381    0.5817 H   0  0  0  0  0  0  0  0  0  0  0  0
    1.9551    3.6827   -0.6191 H   0  0  0  0  0  0  0  0  0  0  0  0
    3.5896    3.3865   -0.1252 H   0  0  0  0  0  0  0  0  0  0  0  0
  1 12  1  0  0  0  0
  1 29  1  0  0  0  0
  2 14  1  0  0  0  0
  2 31  1  0  0  0  0
  3 17  2  0  0  0  0
  4 10  1  0  0  0  0
  4 13  1  0  0  0  0
  4 15  1  0  0  0  0
  5 15  2  0  0  0  0
  5 16  1  0  0  0  0
  6 13  1  0  0  0  0
  6 18  2  0  0  0  0
  7 17  1  0  0  0  0
  7 18  1  0  0  0  0
  7 30  1  0  0  0  0
  8 18  1  0  0  0  0
  8 32  1  0  0  0  0
  8 33  1  0  0  0  0
  9 10  1  0  0  0  0
  9 11  1  0  0  0  0
  9 12  1  0  0  0  0
  9 19  1  0  0  0  0
 10 20  1  0  0  0  0
 10 21  1  0  0  0  0
 11 14  1  0  0  0  0
 11 22  1  0  0  0  0
 11 23  1  0  0  0  0
 12 24  1  0  0  0  0
 12 25  1  0  0  0  0
 13 16  2  0  0  0  0
 14 26  1  0  0  0  0
 14 27  1  0  0  0  0
 15 28  1  0  0  0  0
 16 17  1  0  0  0  0
M  END
> <PUBCHEM_COMPOUND_CID>
135436455

> <PUBCHEM_CONFORMER_RMSD>
0.6

> <PUBCHEM_CONFORMER_DIVERSEORDER>
2
180
236
169
96
84
264
177
230
215
221
235
268
56
141
240
114
25
138
234
20
174
167
176
202
61
142
147
161
102
254
95
226
207
181
65
256
252
98
217
244
16
140
93
200
17
38
271
66
166
68
139
237
88
48
238
40
163
10
210
171
201
259
108
198
136
206
34
151
170
41
120
42
110
76
246
241
91
148
81
263
269
187
199
11
208
46
222
247
179
113
144
125
270
33
212
155
89
152
137
218
73
131
82
6
189
220
191
157
45
35
109
70
53
211
75
7
172
119
260
71
250
80
229
112
134
196
197
257
50
79
233
97
266
3
227
58
64
262
158
9
19
258
122
29
1
185
130
213
13
248
92
21
49
4
214
255
90
77
231
100
232
239
69
182
135
267
192
128
162
251
165
28
62
126
145
51
219
18
153
32
55
216
118
85
12
5
168
188
26
99
175
72
186
86
156
190
39
60
103
63
67
205
224
54
123
245
160
31
94
24
37
164
121
27
52
253
36
104
115
195
101
15
23
111
124
22
143
8
228
106
105
203
159
78
154
178
194
116
127
14
150
30
129
133
44
57
225
87
132
242
74
47
43
183
117
249
209
146
265
193
261
59
184
83
107
149
243
204
223
173

> <PUBCHEM_MMFF94_PARTIAL_CHARGES>
22
1 -0.68
10 0.26
12 0.28
13 -0.03
14 0.28
15 0.04
16 0.14
17 0.72
18 0.56
2 -0.68
28 0.15
29 0.4
3 -0.57
30 0.37
31 0.4
32 0.4
33 0.4
4 0.05
5 -0.57
6 -0.58
7 -0.49
8 -0.85

> <PUBCHEM_EFFECTIVE_ROTOR_COUNT>
5

> <PUBCHEM_PHARMACOPHORE_FEATURES>
10
1 1 acceptor
1 1 donor
1 2 acceptor
1 2 donor
1 3 acceptor
1 7 donor
1 8 donor
3 4 5 15 cation
5 4 5 13 15 16 rings
6 6 7 13 16 17 18 rings

> <PUBCHEM_HEAVY_ATOM_COUNT>
18

> <PUBCHEM_ATOM_DEF_STEREO_COUNT>
0

> <PUBCHEM_ATOM_UDEF_STEREO_COUNT>
1

> <PUBCHEM_BOND_DEF_STEREO_COUNT>
0

> <PUBCHEM_BOND_UDEF_STEREO_COUNT>
0

> <PUBCHEM_ISOTOPIC_ATOM_COUNT>
0

> <PUBCHEM_COMPONENT_COUNT>
1

> <PUBCHEM_CACTVS_TAUTO_COUNT>
-1

> <PUBCHEM_CONFORMER_ID>
081298A700000002

> <PUBCHEM_MMFF94_ENERGY>
32.8679

> <PUBCHEM_FEATURE_SELFOVERLAP>
50.925

> <PUBCHEM_SHAPE_FINGERPRINT>
10090160 65 18413100654978978439
10366900 7 17967828110445975451
12236239 1 17989202651266475559
12251169 10 18409728447877926823
12403259 327 16081920602234919393
13140716 1 18265047110314357026
15342168 16 18044378459287567181
15475509 35 16371267971132111304
15775835 57 18059579130284542209
16945 1 18410005533925464902
17802600 8 18341890775288324649
19050596 39 18413670227581838583
192875 21 18411980252007568289
200 152 18341887477227980631
20559304 39 18341335513283963692
20715895 44 17981325582931524801
21267235 1 18340775848880686790
21524375 3 18201723989260091774
21637258 2 15141227803400877850
22854114 111 18411419531110303901
23402539 116 17917701422902243343
23557571 272 16702027435070000065
23559900 14 18337953394390787171
26918003 58 18260268543055045947
2748010 2 17906718225491013086
3286 77 18114180813274173062
350125 39 18410573989642123564
351380 180 18334856112952600739
4409770 3 16250841442774680039
44154327 71 18340209707935356693
474 4 18410576231451073537
5104073 3 18336267946276198803
537710 114 18131071558630225881
6333272 397 18411139155640134715
7832392 63 17981050708501324817
9999458 23 18259984894540079438

> <PUBCHEM_SHAPE_MULTIPOLES>
327.92
9.05
2.31
0.83
10.77
0.82
-0.03
0.43
-1.36
-2.32
0.1
0.2
0.01
-0.68

> <PUBCHEM_SHAPE_SELFOVERLAP>
685.908

> <PUBCHEM_SHAPE_VOLUME>
184.3

> <PUBCHEM_COORDINATE_TYPE>
2
5
10

$$$$
