135494321
  -OEChem-03292013293D

 38 40  0     0  0  0  0  0  0999 V2000
   -0.6140    3.0818    0.3624 P   0  0  0  0  0  0  0  0  0  0  0  0
   -3.7235   -2.0729    1.7168 O   0  0  0  0  0  0  0  0  0  0  0  0
   -0.2661    4.4182    1.2189 O   0  0  0  0  0  0  0  0  0  0  0  0
   -1.8309    2.4653    1.2439 O   0  0  0  0  0  0  0  0  0  0  0  0
   -1.0462    3.4179   -1.0395 O   0  0  0  0  0  0  0  0  0  0  0  0
    0.1978   -1.6678   -0.4910 N   0  0  0  0  0  0  0  0  0  0  0  0
   -0.8683   -2.6961    1.1847 N   0  0  0  0  0  0  0  0  0  0  0  0
   -1.5768   -0.2642   -1.3512 N   0  0  0  0  0  0  0  0  0  0  0  0
   -3.5828   -0.5907   -0.0822 N   0  0  0  0  0  0  0  0  0  0  0  0
   -3.5315    0.9266   -1.8819 N   0  0  0  0  0  0  0  0  0  0  0  0
    1.2711   -1.3082   -1.3859 C   0  0  0  0  0  0  0  0  0  0  0  0
    2.4945   -0.7876   -0.6732 C   0  0  0  0  0  0  0  0  0  0  0  0
   -1.0770   -1.1830   -0.4955 C   0  0  0  0  0  0  0  0  0  0  0  0
    2.5502    0.5158   -0.1795 C   0  0  0  0  0  0  0  0  0  0  0  0
   -1.7035   -1.8316    0.5411 C   0  0  0  0  0  0  0  0  0  0  0  0
    0.2743   -2.5748    0.5378 C   0  0  0  0  0  0  0  0  0  0  0  0
    3.5858   -1.6414   -0.5125 C   0  0  0  0  0  0  0  0  0  0  0  0
    3.6971    0.9653    0.4748 C   0  0  0  0  0  0  0  0  0  0  0  0
   -3.0844   -1.5451    0.8156 C   0  0  0  0  0  0  0  0  0  0  0  0
    1.4268    1.4315   -0.3304 C   0  0  0  0  0  0  0  0  0  0  0  0
    4.7327   -1.1919    0.1418 C   0  0  0  0  0  0  0  0  0  0  0  0
   -2.8412    0.0177   -1.1226 C   0  0  0  0  0  0  0  0  0  0  0  0
    4.7884    0.1115    0.6355 C   0  0  0  0  0  0  0  0  0  0  0  0
    0.7274    2.0037    0.6722 C   0  0  0  0  0  0  0  0  0  0  0  0
    0.9110   -0.5846   -2.1250 H   0  0  0  0  0  0  0  0  0  0  0  0
    1.5119   -2.2145   -1.9567 H   0  0  0  0  0  0  0  0  0  0  0  0
    1.1799   -3.1204    0.7659 H   0  0  0  0  0  0  0  0  0  0  0  0
    3.5584   -2.6603   -0.8897 H   0  0  0  0  0  0  0  0  0  0  0  0
    3.7630    1.9787    0.8640 H   0  0  0  0  0  0  0  0  0  0  0  0
    1.1391    1.6482   -1.3563 H   0  0  0  0  0  0  0  0  0  0  0  0
    5.5823   -1.8567    0.2673 H   0  0  0  0  0  0  0  0  0  0  0  0
    5.6818    0.4615    1.1443 H   0  0  0  0  0  0  0  0  0  0  0  0
   -4.5546   -0.3137    0.0232 H   0  0  0  0  0  0  0  0  0  0  0  0
    1.0016    1.7835    1.7003 H   0  0  0  0  0  0  0  0  0  0  0  0
   -3.0846    1.4162   -2.6495 H   0  0  0  0  0  0  0  0  0  0  0  0
   -4.5060    1.1383   -1.6976 H   0  0  0  0  0  0  0  0  0  0  0  0
   -0.8856    5.1777    1.1779 H   0  0  0  0  0  0  0  0  0  0  0  0
   -2.7081    2.9025    1.2066 H   0  0  0  0  0  0  0  0  0  0  0  0
  1  3  1  0  0  0  0
  1  4  1  0  0  0  0
  1  5  2  0  0  0  0
  1 24  1  0  0  0  0
  2 19  2  0  0  0  0
  3 37  1  0  0  0  0
  4 38  1  0  0  0  0
  6 11  1  0  0  0  0
  6 13  1  0  0  0  0
  6 16  1  0  0  0  0
  7 15  1  0  0  0  0
  7 16  2  0  0  0  0
  8 13  1  0  0  0  0
  8 22  2  0  0  0  0
  9 19  1  0  0  0  0
  9 22  1  0  0  0  0
  9 33  1  0  0  0  0
 10 22  1  0  0  0  0
 10 35  1  0  0  0  0
 10 36  1  0  0  0  0
 11 12  1  0  0  0  0
 11 25  1  0  0  0  0
 11 26  1  0  0  0  0
 12 14  1  0  0  0  0
 12 17  2  0  0  0  0
 13 15  2  0  0  0  0
 14 18  2  0  0  0  0
 14 20  1  0  0  0  0
 15 19  1  0  0  0  0
 16 27  1  0  0  0  0
 17 21  1  0  0  0  0
 17 28  1  0  0  0  0
 18 23  1  0  0  0  0
 18 29  1  0  0  0  0
 20 24  2  0  0  0  0
 20 30  1  0  0  0  0
 21 23  2  0  0  0  0
 21 31  1  0  0  0  0
 23 32  1  0  0  0  0
 24 34  1  0  0  0  0
M  END
> <PUBCHEM_COMPOUND_CID>
135494321

> <PUBCHEM_CONFORMER_RMSD>
0.8

> <PUBCHEM_CONFORMER_DIVERSEORDER>
1
33
13
9
4
28
19
30
25
32
12
29
22
31
18
2
20
16
3
24
23
5
11
14
17
27
6
10
15
8
26
7
21

> <PUBCHEM_MMFF94_PARTIAL_CHARGES>
36
1 1.39
10 -0.85
11 0.4
12 -0.14
13 -0.03
14 0.03
15 0.14
16 0.04
17 -0.15
18 -0.15
19 0.72
2 -0.57
20 -0.18
21 -0.15
22 0.56
23 -0.15
24 -0.3
27 0.15
28 0.15
29 0.15
3 -0.77
30 0.15
31 0.15
32 0.15
33 0.37
34 0.15
35 0.4
36 0.4
37 0.5
38 0.5
4 -0.77
5 -0.7
6 0.05
7 -0.57
8 -0.58
9 -0.49

> <PUBCHEM_EFFECTIVE_ROTOR_COUNT>
4

> <PUBCHEM_PHARMACOPHORE_FEATURES>
11
1 10 donor
1 2 acceptor
1 3 acceptor
1 4 acceptor
1 5 acceptor
1 9 donor
3 6 7 16 cation
4 1 3 4 5 anion
5 6 7 13 15 16 rings
6 12 14 17 18 21 23 rings
6 8 9 13 15 19 22 rings

> <PUBCHEM_HEAVY_ATOM_COUNT>
24

> <PUBCHEM_ATOM_DEF_STEREO_COUNT>
0

> <PUBCHEM_ATOM_UDEF_STEREO_COUNT>
0

> <PUBCHEM_BOND_DEF_STEREO_COUNT>
1

> <PUBCHEM_BOND_UDEF_STEREO_COUNT>
0

> <PUBCHEM_ISOTOPIC_ATOM_COUNT>
0

> <PUBCHEM_COMPONENT_COUNT>
1

> <PUBCHEM_CACTVS_TAUTO_COUNT>
-1

> <PUBCHEM_CONFORMER_ID>
08137AB100000001

> <PUBCHEM_MMFF94_ENERGY>
18.2166

> <PUBCHEM_FEATURE_SELFOVERLAP>
56.042

> <PUBCHEM_SHAPE_FINGERPRINT>
10006869 2 17907861704788792385
104564 63 18271532996420558636
10688039 33 18260835920586947233
11578080 2 14781491955014575902
11646440 116 18413109450976736849
12403259 226 18117840121453637863
12422481 6 17985854560765598515
12553582 1 18270969071578373204
12633257 1 18121798363197418555
12788726 201 18411411783717387056
13140716 1 18411991238465527985
13402501 40 18408877439248136149
14251745 187 18271796874731713008
14251751 93 18124033421323282432
14363568 33 17905904917214221264
14866123 147 17543630829893910474
17357779 13 18272647931149281204
18785283 64 17833563662023701937
20510252 161 18333171673770925254
20600515 1 18113339695442512164
21041028 32 18339933691671804808
21236236 1 18199186192729041206
23175994 123 18412829117865091462
23558518 356 18125161524564347540
238 59 17836896243329050509
3524813 1 18187355554376450479
469060 322 17896338934351046397
6438718 38 17773314522072794645
7226269 152 18336530669530929784
81228 2 18340494370031060392

> <PUBCHEM_SHAPE_MULTIPOLES>
449.38
7.23
4.12
1.37
4.57
4.32
-0.13
-2.63
0.45
-1.91
1.47
-1.12
0
1.16

> <PUBCHEM_SHAPE_SELFOVERLAP>
964.35

> <PUBCHEM_SHAPE_VOLUME>
250

> <PUBCHEM_COORDINATE_TYPE>
2
5
10

$$$$
