135434845
  -OEChem-03292013293D

 54 56  0     1  0  0  0  0  0999 V2000
    5.5660    3.6079    0.4042 O   0  0  0  0  0  0  0  0  0  0  0  0
    3.2292   -0.2710    2.6185 O   0  0  0  0  0  0  0  0  0  0  0  0
    3.7380    3.0082   -0.7994 O   0  0  0  0  0  0  0  0  0  0  0  0
    7.6778   -0.9069   -2.3749 O   0  0  0  0  0  0  0  0  0  0  0  0
    8.2678   -0.8790   -0.1844 O   0  0  0  0  0  0  0  0  0  0  0  0
   -3.2423    2.5219   -1.2469 O   0  0  0  0  0  0  0  0  0  0  0  0
   -1.7374   -2.9529   -0.3476 N   0  0  3  0  0  0  0  0  0  0  0  0
    3.4791    0.6804    0.5181 N   0  0  0  0  0  0  0  0  0  0  0  0
   -3.4159   -0.1855   -1.0568 N   0  0  0  0  0  0  0  0  0  0  0  0
   -5.7107   -1.2281    0.1869 N   0  0  0  0  0  0  0  0  0  0  0  0
   -5.2848    2.7810   -0.1822 N   0  0  0  0  0  0  0  0  0  0  0  0
   -6.5485    0.9305    0.5496 N   0  0  0  0  0  0  0  0  0  0  0  0
   -7.3391    3.1129    0.8869 N   0  0  0  0  0  0  0  0  0  0  0  0
    4.6670    1.4399    0.8158 C   0  0  1  0  0  0  0  0  0  0  0  0
    5.9552    0.6459    0.5678 C   0  0  0  0  0  0  0  0  0  0  0  0
   -0.5993   -2.2517    0.1010 C   0  0  0  0  0  0  0  0  0  0  0  0
    6.2004    0.2050   -0.8808 C   0  0  0  0  0  0  0  0  0  0  0  0
   -2.5405   -2.4302   -1.4354 C   0  0  0  0  0  0  0  0  0  0  0  0
    1.6515   -0.8624    0.9877 C   0  0  0  0  0  0  0  0  0  0  0  0
    2.8509   -0.1234    1.4594 C   0  0  0  0  0  0  0  0  0  0  0  0
    0.1635   -2.7586    1.1532 C   0  0  0  0  0  0  0  0  0  0  0  0
   -0.2367   -1.0502   -0.5078 C   0  0  0  0  0  0  0  0  0  0  0  0
   -3.6067   -1.5100   -0.9085 C   0  0  0  0  0  0  0  0  0  0  0  0
    4.5887    2.7375    0.0381 C   0  0  0  0  0  0  0  0  0  0  0  0
    1.2887   -2.0639    1.5966 C   0  0  0  0  0  0  0  0  0  0  0  0
    0.8887   -0.3556   -0.0643 C   0  0  0  0  0  0  0  0  0  0  0  0
   -2.1241   -4.2020    0.2779 C   0  0  0  0  0  0  0  0  0  0  0  0
    7.4773   -0.5849   -1.0702 C   0  0  0  0  0  0  0  0  0  0  0  0
   -4.7322   -2.0216   -0.2986 C   0  0  0  0  0  0  0  0  0  0  0  0
   -4.3986    0.5963   -0.5688 C   0  0  0  0  0  0  0  0  0  0  0  0
   -5.5336    0.1019    0.0457 C   0  0  0  0  0  0  0  0  0  0  0  0
   -4.2340    2.0467   -0.7082 C   0  0  0  0  0  0  0  0  0  0  0  0
   -6.4054    2.2220    0.4276 C   0  0  0  0  0  0  0  0  0  0  0  0
    4.6230    1.7105    1.8787 H   0  0  0  0  0  0  0  0  0  0  0  0
    5.9506   -0.2467    1.2074 H   0  0  0  0  0  0  0  0  0  0  0  0
    6.8136    1.2464    0.8963 H   0  0  0  0  0  0  0  0  0  0  0  0
    6.2588    1.0878   -1.5271 H   0  0  0  0  0  0  0  0  0  0  0  0
    5.3708   -0.4251   -1.2200 H   0  0  0  0  0  0  0  0  0  0  0  0
    3.1566    0.6895   -0.4440 H   0  0  0  0  0  0  0  0  0  0  0  0
   -3.0408   -3.2585   -1.9569 H   0  0  0  0  0  0  0  0  0  0  0  0
   -1.9561   -1.9600   -2.2340 H   0  0  0  0  0  0  0  0  0  0  0  0
   -0.0777   -3.6878    1.6598 H   0  0  0  0  0  0  0  0  0  0  0  0
   -0.7832   -0.5931   -1.3233 H   0  0  0  0  0  0  0  0  0  0  0  0
    1.8730   -2.4767    2.4148 H   0  0  0  0  0  0  0  0  0  0  0  0
    1.1183    0.5914   -0.5439 H   0  0  0  0  0  0  0  0  0  0  0  0
   -3.0046   -4.6420   -0.2034 H   0  0  0  0  0  0  0  0  0  0  0  0
   -2.3812   -4.0531    1.3325 H   0  0  0  0  0  0  0  0  0  0  0  0
   -1.3268   -4.9494    0.1966 H   0  0  0  0  0  0  0  0  0  0  0  0
   -4.9012   -3.0850   -0.1795 H   0  0  0  0  0  0  0  0  0  0  0  0
    5.5050    4.4539   -0.0887 H   0  0  0  0  0  0  0  0  0  0  0  0
   -5.2332    3.7935   -0.2461 H   0  0  0  0  0  0  0  0  0  0  0  0
    8.5140   -1.4033   -2.5043 H   0  0  0  0  0  0  0  0  0  0  0  0
   -8.1868    2.7960    1.3446 H   0  0  0  0  0  0  0  0  0  0  0  0
   -7.2112    4.1136    0.7836 H   0  0  0  0  0  0  0  0  0  0  0  0
  1 24  1  0  0  0  0
  1 50  1  0  0  0  0
  2 20  2  0  0  0  0
  3 24  2  0  0  0  0
  4 28  1  0  0  0  0
  4 52  1  0  0  0  0
  5 28  2  0  0  0  0
  6 32  2  0  0  0  0
  7 16  1  0  0  0  0
  7 18  1  0  0  0  0
  7 27  1  0  0  0  0
  8 14  1  0  0  0  0
  8 20  1  0  0  0  0
  8 39  1  0  0  0  0
  9 23  1  0  0  0  0
  9 30  2  0  0  0  0
 10 29  1  0  0  0  0
 10 31  2  0  0  0  0
 11 32  1  0  0  0  0
 11 33  1  0  0  0  0
 11 51  1  0  0  0  0
 12 31  1  0  0  0  0
 12 33  2  0  0  0  0
 13 33  1  0  0  0  0
 13 53  1  0  0  0  0
 13 54  1  0  0  0  0
 14 15  1  0  0  0  0
 14 24  1  0  0  0  0
 14 34  1  0  0  0  0
 15 17  1  0  0  0  0
 15 35  1  0  0  0  0
 15 36  1  0  0  0  0
 16 21  2  0  0  0  0
 16 22  1  0  0  0  0
 17 28  1  0  0  0  0
 17 37  1  0  0  0  0
 17 38  1  0  0  0  0
 18 23  1  0  0  0  0
 18 40  1  0  0  0  0
 18 41  1  0  0  0  0
 19 20  1  0  0  0  0
 19 25  2  0  0  0  0
 19 26  1  0  0  0  0
 21 25  1  0  0  0  0
 21 42  1  0  0  0  0
 22 26  2  0  0  0  0
 22 43  1  0  0  0  0
 23 29  2  0  0  0  0
 25 44  1  0  0  0  0
 26 45  1  0  0  0  0
 27 46  1  0  0  0  0
 27 47  1  0  0  0  0
 27 48  1  0  0  0  0
 29 49  1  0  0  0  0
 30 31  1  0  0  0  0
 30 32  1  0  0  0  0
M  END
> <PUBCHEM_COMPOUND_CID>
135434845

> <PUBCHEM_CONFORMER_RMSD>
1

> <PUBCHEM_CONFORMER_DIVERSEORDER>
4
48
41
145
36
88
49
138
101
104
29
125
65
31
59
76
141
35
127
37
68
54
107
45
133
124
84
112
144
63
50
67
128
71
106
109
148
122
113
81
15
90
44
136
85
10
97
132
47
105
96
12
117
129
89
111
119
64
130
26
108
143
152
149
32
74
91
92
14
43
93
51
9
147
100
55
42
2
52
115
18
131
33
39
7
62
17
16
40
3
72
110
118
60
22
28
75
61
103
139
146
94
20
95
19
123
23
53
13
140
126
25
11
102
46
82
98
79
86
116
5
30
137
142
6
150
66
58
21
1
151
87
80
27
120
73
77
56
69
121
24
114
57
8
83
38
134
34
135
70
99
78

> <PUBCHEM_MMFF94_PARTIAL_CHARGES>
43
1 -0.65
10 -0.62
11 -0.49
12 -0.63
13 -0.85
14 0.36
16 0.1
17 0.06
18 0.51
19 0.09
2 -0.57
20 0.54
21 -0.15
22 -0.15
23 0.17
24 0.66
25 -0.15
26 -0.15
27 0.37
28 0.66
29 0.16
3 -0.57
30 0.4
31 0.49
32 0.54
33 0.56
39 0.37
4 -0.65
42 0.15
43 0.15
44 0.15
45 0.15
49 0.15
5 -0.57
50 0.5
51 0.37
52 0.5
53 0.4
54 0.4
6 -0.57
7 -0.84
8 -0.73
9 -0.62

> <PUBCHEM_EFFECTIVE_ROTOR_COUNT>
10

> <PUBCHEM_PHARMACOPHORE_FEATURES>
17
1 1 acceptor
1 11 donor
1 13 donor
1 2 acceptor
1 3 acceptor
1 4 acceptor
1 5 acceptor
1 6 acceptor
1 7 cation
1 8 donor
1 9 acceptor
3 1 3 24 anion
3 10 12 31 cation
3 4 5 28 anion
6 11 12 30 31 32 33 rings
6 16 19 21 22 25 26 rings
6 9 10 23 29 30 31 rings

> <PUBCHEM_HEAVY_ATOM_COUNT>
33

> <PUBCHEM_ATOM_DEF_STEREO_COUNT>
1

> <PUBCHEM_ATOM_UDEF_STEREO_COUNT>
0

> <PUBCHEM_BOND_DEF_STEREO_COUNT>
0

> <PUBCHEM_BOND_UDEF_STEREO_COUNT>
0

> <PUBCHEM_ISOTOPIC_ATOM_COUNT>
0

> <PUBCHEM_COMPONENT_COUNT>
1

> <PUBCHEM_CACTVS_TAUTO_COUNT>
-1

> <PUBCHEM_CONFORMER_ID>
0812925D00000004

> <PUBCHEM_MMFF94_ENERGY>
95.0631

> <PUBCHEM_FEATURE_SELFOVERLAP>
86.483

> <PUBCHEM_SHAPE_FINGERPRINT>
10670039 82 18408316687785110055
10864689 126 18272363131895082601
10917259 69 18198347260766857240
1200032 147 18264213517512870211
12390115 104 18413103953471481755
13761468 95 17988368066211972417
13782708 43 16414063303994579543
14251764 75 18341332189781558977
14347329 18 18340476850642812771
14664723 55 18201726115844475297
14790565 3 18335696182506319617
14840074 17 17603299362610150061
14856354 85 17968379039140038527
15001296 14 17970339536885994676
15183329 4 17846502513291747498
15297060 5 18272653415785556169
15357212 105 16952838282956251388
15475509 8 18335424560986445886
15728490 51 8430311334266045472
19611394 137 17897455110789743275
21302155 148 18410854365692658345
21315764 119 18060140955621378238
21458453 9 14707501342061665713
21585480 29 8862944974761542212
21756936 100 18341039800844594959
21814621 53 17988921223750897650
22864921 10 18188205377764540637
38570 142 18186240628127133106
397830 11 7997705173130096254
4098825 35 18341612676883720524
4144715 1 18193842763280403162
4173938 77 17023191590873858260
4280585 95 10231752288905424259
437795 51 13551479194096632606
437795 70 18336557062379445988
50677037 204 18045487866515088461
508180 173 18342739637178234760
563151 40 18113339725729744938
636775 72 17979908634291815976
6700243 42 17261349253676489534
7808743 9 18340196475600001779

> <PUBCHEM_SHAPE_MULTIPOLES>
609.04
21.51
4.36
1.49
16.92
0.48
0.14
13.61
-4.22
-3.92
0.18
1.86
-0.41
-0.24

> <PUBCHEM_SHAPE_SELFOVERLAP>
1303.97

> <PUBCHEM_SHAPE_VOLUME>
333.2

> <PUBCHEM_COORDINATE_TYPE>
2
5
10

$$$$
