135495066
  -OEChem-03292013293D

 25 26  0     0  0  0  0  0  0999 V2000
    3.1437   -1.7767    1.2644 O   0  0  0  0  0  0  0  0  0  0  0  0
    4.7508   -0.3533   -0.5017 O   0  0  0  0  0  0  0  0  0  0  0  0
   -3.4178    1.9802    0.7286 O   0  0  0  0  0  0  0  0  0  0  0  0
   -3.7960   -0.2071   -0.0241 N   0  0  0  0  0  0  0  0  0  0  0  0
   -1.6876   -0.8781   -0.3633 N   0  0  0  0  0  0  0  0  0  0  0  0
   -3.4669   -2.4044   -0.8152 N   0  0  0  0  0  0  0  0  0  0  0  0
    0.8005    0.7754    0.0986 C   0  0  0  0  0  0  0  0  0  0  0  0
   -1.6764    0.4190    0.0936 C   0  0  0  0  0  0  0  0  0  0  0  0
   -0.6022    1.1797    0.3094 C   0  0  0  0  0  0  0  0  0  0  0  0
    1.3206   -0.3211    0.7862 C   0  0  0  0  0  0  0  0  0  0  0  0
    1.6069    1.4893   -0.7877 C   0  0  0  0  0  0  0  0  0  0  0  0
   -3.0611    0.8905    0.3271 C   0  0  0  0  0  0  0  0  0  0  0  0
    2.6472   -0.7038    0.5874 C   0  0  0  0  0  0  0  0  0  0  0  0
    2.9336    1.1068   -0.9863 C   0  0  0  0  0  0  0  0  0  0  0  0
    3.4536    0.0101   -0.2989 C   0  0  0  0  0  0  0  0  0  0  0  0
   -2.9488   -1.2066   -0.4179 C   0  0  0  0  0  0  0  0  0  0  0  0
   -0.7250    2.2067    0.6469 H   0  0  0  0  0  0  0  0  0  0  0  0
    0.6987   -0.8777    1.4841 H   0  0  0  0  0  0  0  0  0  0  0  0
    1.2152    2.3459   -1.3309 H   0  0  0  0  0  0  0  0  0  0  0  0
    3.5508    1.6719   -1.6797 H   0  0  0  0  0  0  0  0  0  0  0  0
   -4.8070   -0.2702    0.0028 H   0  0  0  0  0  0  0  0  0  0  0  0
   -2.8662   -3.1654   -1.1128 H   0  0  0  0  0  0  0  0  0  0  0  0
   -4.4675   -2.5693   -0.8247 H   0  0  0  0  0  0  0  0  0  0  0  0
    2.4444   -2.1464    1.8303 H   0  0  0  0  0  0  0  0  0  0  0  0
    5.1527    0.2539   -1.1466 H   0  0  0  0  0  0  0  0  0  0  0  0
  1 13  1  0  0  0  0
  1 24  1  0  0  0  0
  2 15  1  0  0  0  0
  2 25  1  0  0  0  0
  3 12  2  0  0  0  0
  4 12  1  0  0  0  0
  4 16  1  0  0  0  0
  4 21  1  0  0  0  0
  5  8  1  0  0  0  0
  5 16  2  0  0  0  0
  6 16  1  0  0  0  0
  6 22  1  0  0  0  0
  6 23  1  0  0  0  0
  7  9  1  0  0  0  0
  7 10  2  0  0  0  0
  7 11  1  0  0  0  0
  8  9  2  0  0  0  0
  8 12  1  0  0  0  0
  9 17  1  0  0  0  0
 10 13  1  0  0  0  0
 10 18  1  0  0  0  0
 11 14  2  0  0  0  0
 11 19  1  0  0  0  0
 13 15  2  0  0  0  0
 14 15  1  0  0  0  0
 14 20  1  0  0  0  0
M  END
> <PUBCHEM_COMPOUND_CID>
135495066

> <PUBCHEM_CONFORMER_RMSD>
0.6

> <PUBCHEM_CONFORMER_DIVERSEORDER>
3
6
2
4
1
5

> <PUBCHEM_MMFF94_PARTIAL_CHARGES>
25
1 -0.53
10 -0.15
11 -0.15
12 0.62
13 0.08
14 -0.15
15 0.08
16 0.56
17 0.15
18 0.15
19 0.15
2 -0.53
20 0.15
21 0.37
22 0.4
23 0.4
24 0.45
25 0.45
3 -0.57
4 -0.49
5 -0.62
6 -0.85
7 0.03
8 0.19
9 -0.18

> <PUBCHEM_EFFECTIVE_ROTOR_COUNT>
1.2

> <PUBCHEM_PHARMACOPHORE_FEATURES>
7
1 1 donor
1 2 donor
1 3 acceptor
1 4 donor
1 6 donor
5 4 5 8 12 16 rings
6 7 10 11 13 14 15 rings

> <PUBCHEM_HEAVY_ATOM_COUNT>
16

> <PUBCHEM_ATOM_DEF_STEREO_COUNT>
0

> <PUBCHEM_ATOM_UDEF_STEREO_COUNT>
0

> <PUBCHEM_BOND_DEF_STEREO_COUNT>
1

> <PUBCHEM_BOND_UDEF_STEREO_COUNT>
0

> <PUBCHEM_ISOTOPIC_ATOM_COUNT>
0

> <PUBCHEM_COMPONENT_COUNT>
1

> <PUBCHEM_CACTVS_TAUTO_COUNT>
-1

> <PUBCHEM_CONFORMER_ID>
08137D9A00000003

> <PUBCHEM_MMFF94_ENERGY>
42.203

> <PUBCHEM_FEATURE_SELFOVERLAP>
35.565

> <PUBCHEM_SHAPE_FINGERPRINT>
10062212 137 18409163290448348659
10616163 171 18413392059355815399
11578080 2 18191838237239665892
11769659 78 18409442600603026538
11806522 49 18337669832186200772
12236239 1 18335425655369786177
12346177 29 17917701392979734629
12500047 106 18130786698939762905
13296908 3 17775282802352439976
13760787 19 18409453569954879284
14144814 61 18410856551213599769
14576447 43 18261670471603641014
14965852 173 18412825798193092113
15375462 189 18408046212267149664
15669948 3 18343865537053161477
15757776 16 18040994047128799218
16752209 62 18272638065999928799
17804303 29 18131633409071817945
18186145 218 15864072048583331416
18522853 266 18271810090224574949
18915474 69 18338799021642437918
19422 9 18408888455337843367
200 152 18260550034847466320
20279233 1 16056882416135805717
20281475 54 18408878521136665938
20645477 70 16370995274672868866
21267235 1 18337684073764991315
21634736 98 18192147311743993486
22485316 2 18411416207011436008
2255824 54 18114186388653692588
22646028 28 18410291432148706646
232386 152 18201437003719047068
23402539 116 18410011023072776916
23402655 69 18113336375564972220
23463225 33 18408884001451560535
23559900 14 17845938429630171924
23598291 2 18261109630072694326
3082319 5 18334012825988426405
465052 167 17984710180221752863
474 4 17823987938117541492
57096353 35 18190185757161555524
573450 72 18341609300200668841
58051976 100 18335421274940890485
603831 33 18267582601091151869
7364860 26 18199466752224051320
74978 22 18342454859292706961
77492 1 18335141989938642577
81228 2 16413811300967039305
90525 40 18412545388384114743

> <PUBCHEM_SHAPE_MULTIPOLES>
296.72
8.03
1.87
0.95
0.44
0.4
-0.03
1.83
0.74
-1.12
0.05
0.34
0.1
-1.61

> <PUBCHEM_SHAPE_SELFOVERLAP>
648.725

> <PUBCHEM_SHAPE_VOLUME>
161.1

> <PUBCHEM_COORDINATE_TYPE>
2
5
10

$$$$
