135449322
  -OEChem-03292013293D

 37 39  0     1  0  0  0  0  0999 V2000
   -4.5727    1.3099    0.0259 P   0  0  0  0  0  0  0  0  0  0  0  0
   -1.1340   -1.1894    0.9313 O   0  0  0  0  0  0  0  0  0  0  0  0
   -2.9768    1.0692   -0.0259 O   0  0  0  0  0  0  0  0  0  0  0  0
   -2.4732   -3.6235    0.6143 O   0  0  0  0  0  0  0  0  0  0  0  0
   -4.9729    1.5800   -1.5175 O   0  0  0  0  0  0  0  0  0  0  0  0
   -4.6878    2.7746    0.7017 O   0  0  0  0  0  0  0  0  0  0  0  0
   -5.3581    0.2314    0.7131 O   0  0  0  0  0  0  0  0  0  0  0  0
    5.5824   -0.8870   -0.3377 O   0  0  0  0  0  0  0  0  0  0  0  0
    1.0921   -0.6277    0.0913 N   0  0  0  0  0  0  0  0  0  0  0  0
    2.8293   -1.9976   -0.2357 N   0  0  0  0  0  0  0  0  0  0  0  0
    2.2313    1.5013    0.2614 N   0  0  0  0  0  0  0  0  0  0  0  0
    4.5954    1.1999    0.0147 N   0  0  0  0  0  0  0  0  0  0  0  0
    3.6863    3.3430    0.3667 N   0  0  0  0  0  0  0  0  0  0  0  0
   -2.4922   -0.0974   -0.6866 C   0  0  1  0  0  0  0  0  0  0  0  0
   -0.3383   -0.1860    0.2730 C   0  0  1  0  0  0  0  0  0  0  0  0
   -1.0408    0.1226   -1.0445 C   0  0  0  0  0  0  0  0  0  0  0  0
   -2.4292   -1.2557    0.3006 C   0  0  1  0  0  0  0  0  0  0  0  0
   -2.5532   -2.6139   -0.3764 C   0  0  0  0  0  0  0  0  0  0  0  0
    2.2050    0.1606    0.0934 C   0  0  0  0  0  0  0  0  0  0  0  0
    1.5190   -1.9176   -0.1102 C   0  0  0  0  0  0  0  0  0  0  0  0
    3.2508   -0.7072   -0.1090 C   0  0  0  0  0  0  0  0  0  0  0  0
    4.5906   -0.1909   -0.1616 C   0  0  0  0  0  0  0  0  0  0  0  0
    3.4472    2.0015    0.2177 C   0  0  0  0  0  0  0  0  0  0  0  0
   -3.1125   -0.3002   -1.5649 H   0  0  0  0  0  0  0  0  0  0  0  0
   -0.3016    0.6896    0.9319 H   0  0  0  0  0  0  0  0  0  0  0  0
   -0.7333   -0.5852   -1.8233 H   0  0  0  0  0  0  0  0  0  0  0  0
   -0.8172    1.1364   -1.3908 H   0  0  0  0  0  0  0  0  0  0  0  0
   -3.1675   -1.1716    1.1040 H   0  0  0  0  0  0  0  0  0  0  0  0
   -1.7396   -2.7825   -1.0890 H   0  0  0  0  0  0  0  0  0  0  0  0
   -3.5129   -2.7057   -0.8943 H   0  0  0  0  0  0  0  0  0  0  0  0
    0.8340   -2.7529   -0.1592 H   0  0  0  0  0  0  0  0  0  0  0  0
   -2.5571   -4.4789    0.1595 H   0  0  0  0  0  0  0  0  0  0  0  0
    5.4961    1.6694   -0.0052 H   0  0  0  0  0  0  0  0  0  0  0  0
   -5.9191    1.6944   -1.7493 H   0  0  0  0  0  0  0  0  0  0  0  0
   -5.5755    3.1221    0.9327 H   0  0  0  0  0  0  0  0  0  0  0  0
    2.9269    3.9981    0.5167 H   0  0  0  0  0  0  0  0  0  0  0  0
    4.6273    3.7196    0.3314 H   0  0  0  0  0  0  0  0  0  0  0  0
  1  3  1  0  0  0  0
  1  5  1  0  0  0  0
  1  6  1  0  0  0  0
  1  7  2  0  0  0  0
  2 15  1  0  0  0  0
  2 17  1  0  0  0  0
  3 14  1  0  0  0  0
  4 18  1  0  0  0  0
  4 32  1  0  0  0  0
  5 34  1  0  0  0  0
  6 35  1  0  0  0  0
  8 22  2  0  0  0  0
  9 15  1  0  0  0  0
  9 19  1  0  0  0  0
  9 20  1  0  0  0  0
 10 20  2  0  0  0  0
 10 21  1  0  0  0  0
 11 19  1  0  0  0  0
 11 23  2  0  0  0  0
 12 22  1  0  0  0  0
 12 23  1  0  0  0  0
 12 33  1  0  0  0  0
 13 23  1  0  0  0  0
 13 36  1  0  0  0  0
 13 37  1  0  0  0  0
 14 16  1  0  0  0  0
 14 17  1  0  0  0  0
 14 24  1  0  0  0  0
 15 16  1  0  0  0  0
 15 25  1  0  0  0  0
 16 26  1  0  0  0  0
 16 27  1  0  0  0  0
 17 18  1  0  0  0  0
 17 28  1  0  0  0  0
 18 29  1  0  0  0  0
 18 30  1  0  0  0  0
 19 21  2  0  0  0  0
 20 31  1  0  0  0  0
 21 22  1  0  0  0  0
M  END
> <PUBCHEM_COMPOUND_CID>
135449322

> <PUBCHEM_CONFORMER_RMSD>
0.8

> <PUBCHEM_CONFORMER_DIVERSEORDER>
1
5
9
28
25
27
12
14
31
15
21
32
17
6
26
8
22
23
18
3
30
16
29
13
10
2
11
19
24
7
4
20
33

> <PUBCHEM_MMFF94_PARTIAL_CHARGES>
29
1 1.51
10 -0.57
11 -0.58
12 -0.49
13 -0.85
14 0.28
15 0.54
17 0.28
18 0.28
19 -0.03
2 -0.56
20 0.04
21 0.14
22 0.72
23 0.56
3 -0.55
31 0.15
32 0.4
33 0.37
34 0.5
35 0.5
36 0.4
37 0.4
4 -0.68
5 -0.77
6 -0.77
7 -0.7
8 -0.57
9 0.05

> <PUBCHEM_EFFECTIVE_ROTOR_COUNT>
5

> <PUBCHEM_PHARMACOPHORE_FEATURES>
14
1 12 donor
1 13 donor
1 2 acceptor
1 4 acceptor
1 4 donor
1 5 acceptor
1 6 acceptor
1 7 acceptor
1 8 acceptor
3 9 10 20 cation
4 1 5 6 7 anion
5 2 14 15 16 17 rings
5 9 10 19 20 21 rings
6 11 12 19 21 22 23 rings

> <PUBCHEM_HEAVY_ATOM_COUNT>
23

> <PUBCHEM_ATOM_DEF_STEREO_COUNT>
3

> <PUBCHEM_ATOM_UDEF_STEREO_COUNT>
0

> <PUBCHEM_BOND_DEF_STEREO_COUNT>
0

> <PUBCHEM_BOND_UDEF_STEREO_COUNT>
0

> <PUBCHEM_ISOTOPIC_ATOM_COUNT>
0

> <PUBCHEM_COMPONENT_COUNT>
1

> <PUBCHEM_CACTVS_TAUTO_COUNT>
-1

> <PUBCHEM_CONFORMER_ID>
0812CAEA00000001

> <PUBCHEM_MMFF94_ENERGY>
16.6193

> <PUBCHEM_FEATURE_SELFOVERLAP>
71.266

> <PUBCHEM_SHAPE_FINGERPRINT>
10608611 8 18337388339813135182
11089746 13 18341607092703705188
11405975 8 18409444812848911354
11595378 159 16588293956588298637
12236239 1 17418371372558487414
12403259 118 18268699675441548794
12403259 415 18198909291602285624
12403260 363 18192419995386768826
12500047 106 18409165510962401279
12596602 18 13984672425337793300
12633257 1 18188474814305862858
12788726 201 17559677230847030585
12969540 114 17968919909019162327
13140716 1 18337102454047430048
133893 2 15839891524493643879
15196674 1 18339079397508141868
17844677 252 18339369663676297984
18186145 218 18187917400586391436
20645477 56 18333449829038356263
21033648 144 18337096951846690932
21033648 29 18115854244545535085
21065198 57 18410857698122809546
21421861 104 17751070311459510642
21709351 56 18342735252116715166
221490 88 18339084920979016010
23227448 37 18411136969849719941
23402655 69 18342738529208247836
23557571 272 18340212993453339543
23558518 356 18043252542185004658
23559900 14 18342455916139550322
335352 9 18411418372123307558
3545911 37 18411140229397555519
4214541 1 18411138051917877095
474 4 18410007740995433392
5104073 3 18336259150087997162
543358 83 18341333293128704560
633830 44 18339354262525026526
8272917 22 18129947767220139854
9709674 26 18413393141666494566

> <PUBCHEM_SHAPE_MULTIPOLES>
411.19
11.59
3.19
0.85
1.01
0.14
-0.14
-5.76
-0.27
1.04
0.49
0.75
-0.08
0.64

> <PUBCHEM_SHAPE_SELFOVERLAP>
868.852

> <PUBCHEM_SHAPE_VOLUME>
233

> <PUBCHEM_COORDINATE_TYPE>
2
5
10

$$$$
