135410910
  -OEChem-03292013293D

 69 72  0     1  0  0  0  0  0999 V2000
    1.6255    0.1033    2.1022 O   0  0  0  0  0  0  0  0  0  0  0  0
    5.5019   -0.4627    0.1491 O   0  0  0  0  0  0  0  0  0  0  0  0
   -4.7163    1.2200   -0.2442 N   0  0  0  0  0  0  0  0  0  0  0  0
    0.9355   -1.9492    1.2369 N   0  0  0  0  0  0  0  0  0  0  0  0
    2.8540   -1.5083   -0.7854 N   0  0  0  0  0  0  0  0  0  0  0  0
    3.3205    5.5538   -0.5556 N   0  0  0  0  0  0  0  0  0  0  0  0
    1.3369    4.3221   -0.4617 N   0  0  0  0  0  0  0  0  0  0  0  0
   -5.0205    0.3402   -1.4048 C   0  0  1  0  0  0  0  0  0  0  0  0
   -5.6781    0.9939    0.8683 C   0  0  2  0  0  0  0  0  0  0  0  0
   -7.1272    1.2216    0.3990 C   0  0  0  0  0  0  0  0  0  0  0  0
   -6.4618    0.5603   -1.9008 C   0  0  0  0  0  0  0  0  0  0  0  0
   -7.4753    0.3452   -0.7908 C   0  0  0  0  0  0  0  0  0  0  0  0
   -3.3298    1.0438    0.2074 C   0  0  0  0  0  0  0  0  0  0  0  0
   -4.0809    0.5689   -2.6004 C   0  0  0  0  0  0  0  0  0  0  0  0
   -5.4340    1.9141    2.0758 C   0  0  0  0  0  0  0  0  0  0  0  0
   -3.1270   -0.3659    0.7603 C   0  0  0  0  0  0  0  0  0  0  0  0
   -1.6900   -0.5685    1.2456 C   0  0  0  0  0  0  0  0  0  0  0  0
   -1.4733   -1.9898    1.7657 C   0  0  0  0  0  0  0  0  0  0  0  0
   -0.0530   -2.1801    2.2841 C   0  0  0  0  0  0  0  0  0  0  0  0
    1.1603   -2.9464    0.2487 C   0  0  0  0  0  0  0  0  0  0  0  0
    1.6774   -0.7708    1.2449 C   0  0  0  0  0  0  0  0  0  0  0  0
    2.1313   -2.7037   -0.7292 C   0  0  0  0  0  0  0  0  0  0  0  0
    2.6491   -0.5848    0.0983 C   0  0  0  0  0  0  0  0  0  0  0  0
    0.4572   -4.1619    0.2288 C   0  0  0  0  0  0  0  0  0  0  0  0
    3.4024    0.6847   -0.0234 C   0  0  0  0  0  0  0  0  0  0  0  0
    2.3886   -3.6745   -1.7077 C   0  0  0  0  0  0  0  0  0  0  0  0
    0.7212   -5.1210   -0.7506 C   0  0  0  0  0  0  0  0  0  0  0  0
    1.6881   -4.8783   -1.7189 C   0  0  0  0  0  0  0  0  0  0  0  0
    2.6991    1.8805   -0.1687 C   0  0  0  0  0  0  0  0  0  0  0  0
    4.7969    0.6951    0.0073 C   0  0  0  0  0  0  0  0  0  0  0  0
    3.3903    3.0866   -0.2834 C   0  0  0  0  0  0  0  0  0  0  0  0
    5.4881    1.9013   -0.1071 C   0  0  0  0  0  0  0  0  0  0  0  0
    4.7849    3.0970   -0.2524 C   0  0  0  0  0  0  0  0  0  0  0  0
    2.6578    4.3337   -0.4370 C   0  0  0  0  0  0  0  0  0  0  0  0
   -4.9590   -0.7175   -1.1233 H   0  0  0  0  0  0  0  0  0  0  0  0
   -5.6482   -0.0456    1.2149 H   0  0  0  0  0  0  0  0  0  0  0  0
   -7.2723    2.2762    0.1291 H   0  0  0  0  0  0  0  0  0  0  0  0
   -6.6874   -0.1278   -2.7248 H   0  0  0  0  0  0  0  0  0  0  0  0
   -7.8274    1.0056    1.2155 H   0  0  0  0  0  0  0  0  0  0  0  0
   -6.5695    1.5777   -2.3001 H   0  0  0  0  0  0  0  0  0  0  0  0
   -7.4792   -0.7092   -0.4889 H   0  0  0  0  0  0  0  0  0  0  0  0
   -8.4828    0.5815   -1.1503 H   0  0  0  0  0  0  0  0  0  0  0  0
   -2.6179    1.2524   -0.5981 H   0  0  0  0  0  0  0  0  0  0  0  0
   -3.0784    1.7912    0.9687 H   0  0  0  0  0  0  0  0  0  0  0  0
   -4.5105    1.6610    2.6052 H   0  0  0  0  0  0  0  0  0  0  0  0
   -6.2464    1.8214    2.8055 H   0  0  0  0  0  0  0  0  0  0  0  0
   -5.3810    2.9650    1.7701 H   0  0  0  0  0  0  0  0  0  0  0  0
   -4.4388    0.0305   -3.4854 H   0  0  0  0  0  0  0  0  0  0  0  0
   -4.0191    1.6314   -2.8609 H   0  0  0  0  0  0  0  0  0  0  0  0
   -3.0701    0.1998   -2.4021 H   0  0  0  0  0  0  0  0  0  0  0  0
   -3.7704   -0.5736    1.6197 H   0  0  0  0  0  0  0  0  0  0  0  0
   -3.3223   -1.1322    0.0044 H   0  0  0  0  0  0  0  0  0  0  0  0
   -1.0118   -0.3611    0.4101 H   0  0  0  0  0  0  0  0  0  0  0  0
   -1.4649    0.1558    2.0378 H   0  0  0  0  0  0  0  0  0  0  0  0
   -1.7183   -2.7012    0.9714 H   0  0  0  0  0  0  0  0  0  0  0  0
   -2.1724   -2.1872    2.5875 H   0  0  0  0  0  0  0  0  0  0  0  0
    0.0879   -3.1772    2.7162 H   0  0  0  0  0  0  0  0  0  0  0  0
    0.1192   -1.4790    3.1097 H   0  0  0  0  0  0  0  0  0  0  0  0
   -0.2926   -4.4164    0.9703 H   0  0  0  0  0  0  0  0  0  0  0  0
    3.1402   -3.4924   -2.4726 H   0  0  0  0  0  0  0  0  0  0  0  0
    0.1741   -6.0594   -0.7523 H   0  0  0  0  0  0  0  0  0  0  0  0
    1.8962   -5.6228   -2.4814 H   0  0  0  0  0  0  0  0  0  0  0  0
    1.6124    1.8520   -0.1980 H   0  0  0  0  0  0  0  0  0  0  0  0
    6.5745    1.9235   -0.0845 H   0  0  0  0  0  0  0  0  0  0  0  0
    5.3711    4.0052   -0.3372 H   0  0  0  0  0  0  0  0  0  0  0  0
    6.4527   -0.2579    0.1486 H   0  0  0  0  0  0  0  0  0  0  0  0
    2.7916    6.4135   -0.6602 H   0  0  0  0  0  0  0  0  0  0  0  0
    4.3279    5.6527   -0.5461 H   0  0  0  0  0  0  0  0  0  0  0  0
    1.0084    5.2876   -0.5742 H   0  0  0  0  0  0  0  0  0  0  0  0
  1 21  2  0  0  0  0
  2 30  1  0  0  0  0
  2 66  1  0  0  0  0
  3  8  1  0  0  0  0
  3  9  1  0  0  0  0
  3 13  1  0  0  0  0
  4 19  1  0  0  0  0
  4 20  1  0  0  0  0
  4 21  1  0  0  0  0
  5 22  1  0  0  0  0
  5 23  2  0  0  0  0
  6 34  1  0  0  0  0
  6 67  1  0  0  0  0
  6 68  1  0  0  0  0
  7 34  2  0  0  0  0
  7 69  1  0  0  0  0
  8 11  1  0  0  0  0
  8 14  1  0  0  0  0
  8 35  1  0  0  0  0
  9 10  1  0  0  0  0
  9 15  1  0  0  0  0
  9 36  1  0  0  0  0
 10 12  1  0  0  0  0
 10 37  1  0  0  0  0
 10 39  1  0  0  0  0
 11 12  1  0  0  0  0
 11 38  1  0  0  0  0
 11 40  1  0  0  0  0
 12 41  1  0  0  0  0
 12 42  1  0  0  0  0
 13 16  1  0  0  0  0
 13 43  1  0  0  0  0
 13 44  1  0  0  0  0
 14 48  1  0  0  0  0
 14 49  1  0  0  0  0
 14 50  1  0  0  0  0
 15 45  1  0  0  0  0
 15 46  1  0  0  0  0
 15 47  1  0  0  0  0
 16 17  1  0  0  0  0
 16 51  1  0  0  0  0
 16 52  1  0  0  0  0
 17 18  1  0  0  0  0
 17 53  1  0  0  0  0
 17 54  1  0  0  0  0
 18 19  1  0  0  0  0
 18 55  1  0  0  0  0
 18 56  1  0  0  0  0
 19 57  1  0  0  0  0
 19 58  1  0  0  0  0
 20 22  1  0  0  0  0
 20 24  2  0  0  0  0
 21 23  1  0  0  0  0
 22 26  2  0  0  0  0
 23 25  1  0  0  0  0
 24 27  1  0  0  0  0
 24 59  1  0  0  0  0
 25 29  1  0  0  0  0
 25 30  2  0  0  0  0
 26 28  1  0  0  0  0
 26 60  1  0  0  0  0
 27 28  2  0  0  0  0
 27 61  1  0  0  0  0
 28 62  1  0  0  0  0
 29 31  2  0  0  0  0
 29 63  1  0  0  0  0
 30 32  1  0  0  0  0
 31 33  1  0  0  0  0
 31 34  1  0  0  0  0
 32 33  2  0  0  0  0
 32 64  1  0  0  0  0
 33 65  1  0  0  0  0
M  END
> <PUBCHEM_COMPOUND_CID>
135410910

> <PUBCHEM_CONFORMER_RMSD>
1

> <PUBCHEM_CONFORMER_DIVERSEORDER>
1
54
42
77
306
222
228
128
181
344
196
415
229
424
401
44
406
180
319
422
88
62
335
391
324
213
259
27
161
318
399
13
93
310
239
155
389
160
295
284
116
225
395
152
285
97
294
280
141
125
235
412
260
393
23
227
237
26
405
90
252
193
354
359
333
151
176
360
52
398
316
382
404
80
224
351
322
81
244
132
57
17
380
421
185
200
312
372
140
342
323
146
4
170
129
366
18
308
70
199
392
48
368
321
28
178
369
55
58
218
104
209
379
221
276
25
341
145
313
35
232
216
272
309
349
22
223
124
258
115
10
320
76
270
419
420
19
175
397
355
149
86
231
385
271
416
179
255
215
314
371
11
127
34
293
363
205
274
107
172
289
95
38
16
91
245
144
261
356
409
287
350
378
202
177
297
233
8
279
402
189
39
2
296
266
226
305
387
168
423
150
87
292
167
98
162
374
191
242
33
9
281
43
386
61
29
299
171
381
40
304
269
56
50
122
136
163
15
210
408
148
46
156
53
236
32
241
158
20
249
311
71
182
183
307
73
51
59
243
14
263
12
64
352
300
111
157
340
117
143
286
418
195
396
72
142
130
376
264
120
214
5
68
247
298
67
238
103
337
367
220
282
31
348
362
251
21
265
267
364
330
190
131
82
390
106
410
3
268
121
192
85
317
147
110
257
407
41
99
96
154
184
186
113
383
217
411
375
248
347
164
83
240
65
246
7
165
291
94
69
358
139
388
92
400
254
133
153
230
137
327
338
353
256
188
159
36
384
102
334
37
105
114
74
89
60
343
394
75
290
112
187
328
166
100
6
262
211
325
207
346
315
201
79
413
283
174
204
194
277
108
198
253
208
365
336
234
63
250
126
329
101
288
66
273
357
303
373
119
123
47
331
361
24
275
212
345
377
84
403
206
370
109
135
138
219
414
203
49
78
339
326
302
278
197
118
169
45
332
30
417
301
134
173

> <PUBCHEM_MMFF94_PARTIAL_CHARGES>
37
1 -0.57
13 0.27
19 0.3
2 -0.53
20 0.12
21 0.63
22 0.18
23 0.36
24 -0.15
25 0.09
26 -0.15
27 -0.15
28 -0.15
29 -0.15
3 -0.81
30 0.08
31 0.09
32 -0.15
33 -0.15
34 0.41
4 -0.48
5 -0.63
59 0.15
6 -0.85
60 0.15
61 0.15
62 0.15
63 0.15
64 0.15
65 0.15
66 0.45
67 0.4
68 0.4
69 0.4
7 -0.85
8 0.27
9 0.27

> <PUBCHEM_EFFECTIVE_ROTOR_COUNT>
9.2

> <PUBCHEM_PHARMACOPHORE_FEATURES>
11
1 1 acceptor
1 2 donor
1 3 cation
1 5 acceptor
1 6 donor
1 7 donor
3 6 7 34 cation
6 20 22 24 26 27 28 rings
6 25 29 30 31 32 33 rings
6 3 8 9 10 11 12 rings
6 4 5 20 21 22 23 rings

> <PUBCHEM_HEAVY_ATOM_COUNT>
34

> <PUBCHEM_ATOM_DEF_STEREO_COUNT>
2

> <PUBCHEM_ATOM_UDEF_STEREO_COUNT>
0

> <PUBCHEM_BOND_DEF_STEREO_COUNT>
0

> <PUBCHEM_BOND_UDEF_STEREO_COUNT>
0

> <PUBCHEM_ISOTOPIC_ATOM_COUNT>
0

> <PUBCHEM_COMPONENT_COUNT>
1

> <PUBCHEM_CACTVS_TAUTO_COUNT>
-1

> <PUBCHEM_CONFORMER_ID>
081234DE00000001

> <PUBCHEM_MMFF94_ENERGY>
87.3096

> <PUBCHEM_FEATURE_SELFOVERLAP>
55.893

> <PUBCHEM_SHAPE_FINGERPRINT>
11135609 149 17907849613680751471
11421498 54 18060133193993216328
13402501 40 17967811656505924941
1361 2 18413107260153025765
14117953 113 18341903953324421718
15082195 135 18340476863855060283
15484559 13 18413114944224376934
19309040 13 18201456765602210153
20028762 73 18342456998518710212
20715895 44 18411986896896981816
21033648 144 18187643652013467517
21133410 38 18128837282078043161
21641784 216 16755517924685578638
21716022 299 16916233139632852210
23522609 53 17488760973930901961
34797466 226 18335415713633488135
376196 1 18188771772307684994
394071 54 18333737888595947133
46194498 28 18266737983299487287
6036956 94 17108193932652730301
86090 222 17677066642022409483

> <PUBCHEM_SHAPE_MULTIPOLES>
663.06
15.28
6.94
1.93
28.02
1.47
0.06
-13.83
-3.46
-11.26
-2.63
2.33
0.94
0.07

> <PUBCHEM_SHAPE_SELFOVERLAP>
1411.007

> <PUBCHEM_SHAPE_VOLUME>
365.4

> <PUBCHEM_COORDINATE_TYPE>
2
5
10

$$$$
