135459780
  -OEChem-03292013293D

 31 33  0     1  0  0  0  0  0999 V2000
   -2.2218    2.4729   -0.7751 O   0  0  0  0  0  0  0  0  0  0  0  0
   -4.1805    0.7660   -1.1573 O   0  0  0  0  0  0  0  0  0  0  0  0
   -4.2735   -2.2559    0.5293 O   0  0  0  0  0  0  0  0  0  0  0  0
    4.6321   -1.4996   -0.6037 O   0  0  0  0  0  0  0  0  0  0  0  0
    0.4024    0.0029   -0.0486 N   0  0  0  0  0  0  0  0  0  0  0  0
    1.6741   -1.6603   -0.8374 N   0  0  0  0  0  0  0  0  0  0  0  0
    2.1089    1.4954    0.8090 N   0  0  0  0  0  0  0  0  0  0  0  0
    4.2945    0.5605    0.4417 N   0  0  0  0  0  0  0  0  0  0  0  0
   -0.8466    0.7894    0.2905 C   0  0  1  0  0  0  0  0  0  0  0  0
   -1.7775    1.1187   -0.9003 C   0  0  1  0  0  0  0  0  0  0  0  0
   -2.9617    0.1394   -0.8025 C   0  0  1  0  0  0  0  0  0  0  0  0
   -2.9255   -0.2919    0.6339 C   0  0  0  0  0  0  0  0  0  0  0  0
   -1.7673    0.0439    1.2170 C   0  0  0  0  0  0  0  0  0  0  0  0
    1.6945    0.3592    0.2024 C   0  0  0  0  0  0  0  0  0  0  0  0
   -4.0355   -1.0601    1.2568 C   0  0  0  0  0  0  0  0  0  0  0  0
    0.4419   -1.2192   -0.6748 C   0  0  0  0  0  0  0  0  0  0  0  0
    2.4495   -0.6795   -0.2926 C   0  0  0  0  0  0  0  0  0  0  0  0
    3.8851   -0.6226   -0.1883 C   0  0  0  0  0  0  0  0  0  0  0  0
    3.4068    1.5408    0.8999 C   0  0  0  0  0  0  0  0  0  0  0  0
   -0.4953    1.7040    0.7820 H   0  0  0  0  0  0  0  0  0  0  0  0
   -1.2771    1.0314   -1.8710 H   0  0  0  0  0  0  0  0  0  0  0  0
   -2.8059   -0.7343   -1.4456 H   0  0  0  0  0  0  0  0  0  0  0  0
   -1.5077   -0.1934    2.2398 H   0  0  0  0  0  0  0  0  0  0  0  0
   -4.9532   -0.4632    1.2600 H   0  0  0  0  0  0  0  0  0  0  0  0
   -3.8006   -1.3304    2.2917 H   0  0  0  0  0  0  0  0  0  0  0  0
   -0.4522   -1.7393   -0.9896 H   0  0  0  0  0  0  0  0  0  0  0  0
   -1.4368    3.0426   -0.8449 H   0  0  0  0  0  0  0  0  0  0  0  0
   -4.0751    1.1181   -2.0575 H   0  0  0  0  0  0  0  0  0  0  0  0
   -5.0108   -2.7148    0.9667 H   0  0  0  0  0  0  0  0  0  0  0  0
    3.9212    2.3952    1.3663 H   0  0  0  0  0  0  0  0  0  0  0  0
    5.2908    0.7120    0.5711 H   0  0  0  0  0  0  0  0  0  0  0  0
  1 10  1  0  0  0  0
  1 27  1  0  0  0  0
  2 11  1  0  0  0  0
  2 28  1  0  0  0  0
  3 15  1  0  0  0  0
  3 29  1  0  0  0  0
  4 18  2  0  0  0  0
  5  9  1  0  0  0  0
  5 14  1  0  0  0  0
  5 16  1  0  0  0  0
  6 16  2  0  0  0  0
  6 17  1  0  0  0  0
  7 14  1  0  0  0  0
  7 19  2  0  0  0  0
  8 18  1  0  0  0  0
  8 19  1  0  0  0  0
  8 31  1  0  0  0  0
  9 10  1  0  0  0  0
  9 13  1  0  0  0  0
  9 20  1  0  0  0  0
 10 11  1  0  0  0  0
 10 21  1  0  0  0  0
 11 12  1  0  0  0  0
 11 22  1  0  0  0  0
 12 13  2  0  0  0  0
 12 15  1  0  0  0  0
 13 23  1  0  0  0  0
 14 17  2  0  0  0  0
 15 24  1  0  0  0  0
 15 25  1  0  0  0  0
 16 26  1  0  0  0  0
 17 18  1  0  0  0  0
 19 30  1  0  0  0  0
M  END
> <PUBCHEM_COMPOUND_CID>
135459780

> <PUBCHEM_CONFORMER_RMSD>
0.6

> <PUBCHEM_CONFORMER_DIVERSEORDER>
1
11
16
6
17
15
5
2
13
14
12
8
4
10
9
7
3

> <PUBCHEM_MMFF94_PARTIAL_CHARGES>
26
1 -0.68
10 0.28
11 0.42
12 -0.28
13 -0.29
14 -0.03
15 0.42
16 0.04
17 0.14
18 0.72
19 0.45
2 -0.68
23 0.15
26 0.15
27 0.4
28 0.4
29 0.4
3 -0.68
30 0.06
31 0.37
4 -0.57
5 0.05
6 -0.57
7 -0.58
8 -0.49
9 0.39

> <PUBCHEM_EFFECTIVE_ROTOR_COUNT>
2.6

> <PUBCHEM_PHARMACOPHORE_FEATURES>
12
1 1 acceptor
1 1 donor
1 2 acceptor
1 2 donor
1 3 acceptor
1 3 donor
1 4 acceptor
1 8 donor
3 5 6 16 cation
5 5 6 14 16 17 rings
5 9 10 11 12 13 rings
6 7 8 14 17 18 19 rings

> <PUBCHEM_HEAVY_ATOM_COUNT>
19

> <PUBCHEM_ATOM_DEF_STEREO_COUNT>
3

> <PUBCHEM_ATOM_UDEF_STEREO_COUNT>
0

> <PUBCHEM_BOND_DEF_STEREO_COUNT>
0

> <PUBCHEM_BOND_UDEF_STEREO_COUNT>
0

> <PUBCHEM_ISOTOPIC_ATOM_COUNT>
0

> <PUBCHEM_COMPONENT_COUNT>
1

> <PUBCHEM_CACTVS_TAUTO_COUNT>
-1

> <PUBCHEM_CONFORMER_ID>
0812F3C400000001

> <PUBCHEM_MMFF94_ENERGY>
37.148

> <PUBCHEM_FEATURE_SELFOVERLAP>
61.058

> <PUBCHEM_SHAPE_FINGERPRINT>
10608611 8 18339073800733680276
11471102 20 18202558467462678020
11615757 297 17775563126420203504
12236239 1 16487253266412498953
12403259 226 18410854360927984816
12403259 415 18412263943493364992
12916754 54 18411706499323793001
13296908 3 18334576854131522369
13583140 156 17823672275110749560
13760787 5 17704354376870730432
14289901 80 17894918416582217632
15099037 37 18260266391007242731
15219456 202 18411417314917826137
15309172 13 17918277545182738223
15375358 24 18335975398752310229
15375462 189 16845294933940631667
15653759 3 18186522089949571984
16752209 62 16805600404225859411
16945 1 17988642948376726350
17349148 13 16298389071466537827
17844478 74 18410577292418901753
18175812 5 18408321085926501605
18186145 218 17704353277781128284
19141452 34 18339088193997322971
19422 9 16272207496248679261
200 152 17704062976414554781
20279233 1 18407759222874015135
20645477 56 18115308852692284429
20645477 70 18059847320948447390
20681677 76 18336259115237959368
21065201 7 17822004289916786128
21079973 296 18261111915401607699
221490 88 18341896268867974822
22854114 59 18272651268322954936
23402539 116 17821442478340792071
23557571 272 18186525406107319097
23559900 14 18041556949626661674
26918003 58 18273219690180925051
3268164 11 17240757402532316943
3286 77 18272098213837059696
474 4 16413202365236467232
5104073 3 18343581807202796930
5283173 99 18115010941070865749
6049 1 18410293596939064648
77492 1 16415476056060479352
81228 2 17895490128701894217
9709674 26 18267864991138717031

> <PUBCHEM_SHAPE_MULTIPOLES>
347.61
8.89
1.88
1.14
1.3
0.1
0.07
-2.06
0.68
-0.33
-0.16
-0.77
0.09
1.79

> <PUBCHEM_SHAPE_SELFOVERLAP>
760.083

> <PUBCHEM_SHAPE_VOLUME>
187

> <PUBCHEM_COORDINATE_TYPE>
2
5
10

$$$$
