135403659
  -OEChem-03292013293D

 28 29  0     1  0  0  0  0  0999 V2000
   -3.1306   -0.0549    1.8056 O   0  0  0  0  0  0  0  0  0  0  0  0
   -3.1064    1.6838   -0.4363 O   0  0  0  0  0  0  0  0  0  0  0  0
    1.0500    2.5619    0.3130 O   0  0  0  0  0  0  0  0  0  0  0  0
   -0.6319    0.4247    0.3241 N   0  0  0  0  0  0  0  0  0  0  0  0
    0.5312   -2.1103   -0.0233 N   0  0  0  0  0  0  0  0  0  0  0  0
    2.8849    1.1837   -0.0141 N   0  0  0  0  0  0  0  0  0  0  0  0
    2.6658   -1.1569   -0.1875 N   0  0  0  0  0  0  0  0  0  0  0  0
    4.7783   -0.1497   -0.3450 N   0  0  0  0  0  0  0  0  0  0  0  0
   -2.8407   -0.5649    0.4930 C   0  0  1  0  0  0  0  0  0  0  0  0
   -3.5709    0.3391   -0.5342 C   0  0  2  0  0  0  0  0  0  0  0  0
   -1.3689   -0.7020    0.3131 C   0  0  0  0  0  0  0  0  0  0  0  0
   -3.3935   -0.1238   -1.9735 C   0  0  0  0  0  0  0  0  0  0  0  0
    0.6932    0.2481    0.1577 C   0  0  0  0  0  0  0  0  0  0  0  0
   -0.7985   -1.9454    0.1429 C   0  0  0  0  0  0  0  0  0  0  0  0
    1.2828   -0.9900   -0.0146 C   0  0  0  0  0  0  0  0  0  0  0  0
    1.5360    1.4480    0.1629 C   0  0  0  0  0  0  0  0  0  0  0  0
    3.4193   -0.0912   -0.1837 C   0  0  0  0  0  0  0  0  0  0  0  0
   -3.3095   -1.5559    0.4483 H   0  0  0  0  0  0  0  0  0  0  0  0
   -4.6379    0.3584   -0.2817 H   0  0  0  0  0  0  0  0  0  0  0  0
   -2.3524   -0.0305   -2.3005 H   0  0  0  0  0  0  0  0  0  0  0  0
   -3.7129   -1.1628   -2.0985 H   0  0  0  0  0  0  0  0  0  0  0  0
   -3.9857    0.5025   -2.6498 H   0  0  0  0  0  0  0  0  0  0  0  0
   -1.3816   -2.8590    0.1321 H   0  0  0  0  0  0  0  0  0  0  0  0
   -2.4951   -0.4434    2.4307 H   0  0  0  0  0  0  0  0  0  0  0  0
   -3.6199    2.2198   -1.0645 H   0  0  0  0  0  0  0  0  0  0  0  0
    3.5247    1.9727   -0.0205 H   0  0  0  0  0  0  0  0  0  0  0  0
    5.2541   -1.0359   -0.4749 H   0  0  0  0  0  0  0  0  0  0  0  0
    5.3483    0.6890   -0.3393 H   0  0  0  0  0  0  0  0  0  0  0  0
  1  9  1  0  0  0  0
  1 24  1  0  0  0  0
  2 10  1  0  0  0  0
  2 25  1  0  0  0  0
  3 16  2  0  0  0  0
  4 11  1  0  0  0  0
  4 13  2  0  0  0  0
  5 14  1  0  0  0  0
  5 15  2  0  0  0  0
  6 16  1  0  0  0  0
  6 17  1  0  0  0  0
  6 26  1  0  0  0  0
  7 15  1  0  0  0  0
  7 17  2  0  0  0  0
  8 17  1  0  0  0  0
  8 27  1  0  0  0  0
  8 28  1  0  0  0  0
  9 10  1  0  0  0  0
  9 11  1  0  0  0  0
  9 18  1  0  0  0  0
 10 12  1  0  0  0  0
 10 19  1  0  0  0  0
 11 14  2  0  0  0  0
 12 20  1  0  0  0  0
 12 21  1  0  0  0  0
 12 22  1  0  0  0  0
 13 15  1  0  0  0  0
 13 16  1  0  0  0  0
 14 23  1  0  0  0  0
M  END
> <PUBCHEM_COMPOUND_CID>
135403659

> <PUBCHEM_CONFORMER_RMSD>
0.6

> <PUBCHEM_CONFORMER_DIVERSEORDER>
1
7
12
16
10
13
2
17
6
9
3
14
5
11
4
8
15

> <PUBCHEM_MMFF94_PARTIAL_CHARGES>
22
1 -0.68
10 0.28
11 0.17
13 0.4
14 0.16
15 0.49
16 0.54
17 0.56
2 -0.68
23 0.15
24 0.4
25 0.4
26 0.37
27 0.4
28 0.4
3 -0.57
4 -0.62
5 -0.62
6 -0.49
7 -0.63
8 -0.85
9 0.42

> <PUBCHEM_EFFECTIVE_ROTOR_COUNT>
2

> <PUBCHEM_PHARMACOPHORE_FEATURES>
11
1 1 acceptor
1 1 donor
1 2 acceptor
1 2 donor
1 3 acceptor
1 4 acceptor
1 6 donor
1 8 donor
3 5 7 15 cation
6 4 5 11 13 14 15 rings
6 6 7 13 15 16 17 rings

> <PUBCHEM_HEAVY_ATOM_COUNT>
17

> <PUBCHEM_ATOM_DEF_STEREO_COUNT>
2

> <PUBCHEM_ATOM_UDEF_STEREO_COUNT>
0

> <PUBCHEM_BOND_DEF_STEREO_COUNT>
0

> <PUBCHEM_BOND_UDEF_STEREO_COUNT>
0

> <PUBCHEM_ISOTOPIC_ATOM_COUNT>
0

> <PUBCHEM_COMPONENT_COUNT>
1

> <PUBCHEM_CACTVS_TAUTO_COUNT>
-1

> <PUBCHEM_CONFORMER_ID>
0812188B00000001

> <PUBCHEM_MMFF94_ENERGY>
42.8272

> <PUBCHEM_FEATURE_SELFOVERLAP>
55.922

> <PUBCHEM_SHAPE_FINGERPRINT>
10608611 8 18336826514756276976
10967382 1 18411140216708007906
11132069 177 18413385454128065594
11471102 20 18411417310949822030
11543360 7 15769772502694201458
12236239 1 17561367270808782707
12403259 226 18265892634829534505
124424 183 18040427780980623138
12654215 9 18334851693362694180
12730499 353 18114736028956903983
13464514 151 18045494223408947517
13583140 156 17095794512023099201
14911166 2 18411981368941573782
14993402 34 18343580741913945094
15279308 100 18408601495825039244
15653759 3 17603592945294742705
16945 1 18411419518267782018
18186145 218 18272097114330719410
18219364 16 18334583455543852699
200 152 17918268770986305143
20233049 118 18260829293752973124
20645477 70 18335980853150409494
21501502 16 18051982703433023566
21639500 275 18341886441703122701
22959321 8 18261095358392131847
231179 274 17676758812477517542
2334 1 17907581676598615474
23402539 116 18201717323903345630
23402655 69 18269545062355015741
23493267 7 17530963574897849369
23557571 272 17457784488275222663
23559900 14 18342182207064727372
25 1 18334851676146031687
2748010 2 18123472949370694954
3071541 158 18334017228599216140
350125 39 18121791787417657299
74978 22 18340484594347527362
77492 1 17561366175391714115
81228 2 16752678366712987003

> <PUBCHEM_SHAPE_MULTIPOLES>
307.34
6.95
1.92
1.06
1.69
0.31
-0.14
0.88
-1.47
0.43
0.11
-1.41
0
0.34

> <PUBCHEM_SHAPE_SELFOVERLAP>
657.524

> <PUBCHEM_SHAPE_VOLUME>
169.4

> <PUBCHEM_COORDINATE_TYPE>
2
5
10

$$$$
