135439721
  -OEChem-03292013293D

 40 41  0     0  0  0  0  0  0999 V2000
    2.8226   -2.0077   -0.5145 O   0  0  0  0  0  0  0  0  0  0  0  0
    2.8598    3.3520   -0.7657 O   0  0  0  0  0  0  0  0  0  0  0  0
   -6.8993    0.4911   -0.2835 O   0  0  0  0  0  0  0  0  0  0  0  0
   -1.2801   -2.2504    0.7114 O   0  0  0  0  0  0  0  0  0  0  0  0
    5.7763    0.0263    0.1498 N   0  0  0  0  0  0  0  0  0  0  0  0
    0.7289   -0.4732    0.1731 N   0  0  0  0  0  0  0  0  0  0  0  0
   -0.5789   -0.1526    0.0285 N   0  0  0  0  0  0  0  0  0  0  0  0
    3.0034    0.3311   -0.0300 C   0  0  0  0  0  0  0  0  0  0  0  0
    3.8088    1.4270    0.2594 C   0  0  0  0  0  0  0  0  0  0  0  0
    3.5828   -0.9170   -0.2296 C   0  0  0  0  0  0  0  0  0  0  0  0
    4.9613   -1.0155   -0.1296 C   0  0  0  0  0  0  0  0  0  0  0  0
    3.2466    2.7887    0.4823 C   0  0  0  0  0  0  0  0  0  0  0  0
    5.1772    1.2237    0.3375 C   0  0  0  0  0  0  0  0  0  0  0  0
    1.5415    0.4878   -0.1257 C   0  0  0  0  0  0  0  0  0  0  0  0
    5.6348   -2.3330   -0.3346 C   0  0  0  0  0  0  0  0  0  0  0  0
   -2.9451   -0.6895    0.1638 C   0  0  0  0  0  0  0  0  0  0  0  0
   -3.2914    0.6547    0.3015 C   0  0  0  0  0  0  0  0  0  0  0  0
   -3.9276   -1.6369   -0.1240 C   0  0  0  0  0  0  0  0  0  0  0  0
   -1.5595   -1.1031    0.3191 C   0  0  0  0  0  0  0  0  0  0  0  0
   -5.6026    0.1041   -0.1367 C   0  0  0  0  0  0  0  0  0  0  0  0
   -4.6201    1.0515    0.1512 C   0  0  0  0  0  0  0  0  0  0  0  0
   -5.2563   -1.2402   -0.2744 C   0  0  0  0  0  0  0  0  0  0  0  0
   -7.1832    1.8809   -0.1296 C   0  0  0  0  0  0  0  0  0  0  0  0
    2.3829    2.7592    1.1556 H   0  0  0  0  0  0  0  0  0  0  0  0
    3.9878    3.4534    0.9402 H   0  0  0  0  0  0  0  0  0  0  0  0
    5.8608    2.0377    0.5580 H   0  0  0  0  0  0  0  0  0  0  0  0
    1.1581    1.4743   -0.4395 H   0  0  0  0  0  0  0  0  0  0  0  0
    5.4341   -2.7128   -1.3414 H   0  0  0  0  0  0  0  0  0  0  0  0
    6.7203   -2.2412   -0.2218 H   0  0  0  0  0  0  0  0  0  0  0  0
    5.2825   -3.0616    0.4026 H   0  0  0  0  0  0  0  0  0  0  0  0
   -2.5613    1.4186    0.5531 H   0  0  0  0  0  0  0  0  0  0  0  0
   -3.6773   -2.6883   -0.2395 H   0  0  0  0  0  0  0  0  0  0  0  0
   -4.8209    2.1100    0.2773 H   0  0  0  0  0  0  0  0  0  0  0  0
   -6.0173   -1.9824   -0.4996 H   0  0  0  0  0  0  0  0  0  0  0  0
   -0.7938    0.7735   -0.3265 H   0  0  0  0  0  0  0  0  0  0  0  0
    1.9027   -1.7532   -0.6865 H   0  0  0  0  0  0  0  0  0  0  0  0
    2.4942    4.2335   -0.5792 H   0  0  0  0  0  0  0  0  0  0  0  0
   -6.9590    2.2274    0.8849 H   0  0  0  0  0  0  0  0  0  0  0  0
   -6.6794    2.4817   -0.8944 H   0  0  0  0  0  0  0  0  0  0  0  0
   -8.2600    2.0094   -0.2805 H   0  0  0  0  0  0  0  0  0  0  0  0
  1 10  1  0  0  0  0
  1 36  1  0  0  0  0
  2 12  1  0  0  0  0
  2 37  1  0  0  0  0
  3 20  1  0  0  0  0
  3 23  1  0  0  0  0
  4 19  2  0  0  0  0
  5 11  2  0  0  0  0
  5 13  1  0  0  0  0
  6  7  1  0  0  0  0
  6 14  2  0  0  0  0
  7 19  1  0  0  0  0
  7 35  1  0  0  0  0
  8  9  1  0  0  0  0
  8 10  2  0  0  0  0
  8 14  1  0  0  0  0
  9 12  1  0  0  0  0
  9 13  2  0  0  0  0
 10 11  1  0  0  0  0
 11 15  1  0  0  0  0
 12 24  1  0  0  0  0
 12 25  1  0  0  0  0
 13 26  1  0  0  0  0
 14 27  1  0  0  0  0
 15 28  1  0  0  0  0
 15 29  1  0  0  0  0
 15 30  1  0  0  0  0
 16 17  2  0  0  0  0
 16 18  1  0  0  0  0
 16 19  1  0  0  0  0
 17 21  1  0  0  0  0
 17 31  1  0  0  0  0
 18 22  2  0  0  0  0
 18 32  1  0  0  0  0
 20 21  2  0  0  0  0
 20 22  1  0  0  0  0
 21 33  1  0  0  0  0
 22 34  1  0  0  0  0
 23 38  1  0  0  0  0
 23 39  1  0  0  0  0
 23 40  1  0  0  0  0
M  END
> <PUBCHEM_COMPOUND_CID>
135439721

> <PUBCHEM_CONFORMER_RMSD>
0.8

> <PUBCHEM_CONFORMER_DIVERSEORDER>
1
3
10
12
6
11
9
2
7
4
8
5

> <PUBCHEM_MMFF94_PARTIAL_CHARGES>
32
1 -0.53
10 0.08
11 0.17
12 0.42
13 0.16
14 0.3
15 0.14
16 0.09
17 -0.15
18 -0.15
19 0.54
2 -0.68
20 0.08
21 -0.15
22 -0.15
23 0.28
26 0.15
27 0.06
3 -0.36
31 0.15
32 0.15
33 0.15
34 0.15
35 0.37
36 0.45
37 0.4
4 -0.57
5 -0.62
6 -0.51
7 -0.37
8 0.09
9 -0.14

> <PUBCHEM_EFFECTIVE_ROTOR_COUNT>
6

> <PUBCHEM_PHARMACOPHORE_FEATURES>
10
1 1 donor
1 2 acceptor
1 2 donor
1 3 acceptor
1 4 acceptor
1 5 acceptor
1 6 acceptor
1 7 donor
6 16 17 18 20 21 22 rings
6 5 8 9 10 11 13 rings

> <PUBCHEM_HEAVY_ATOM_COUNT>
23

> <PUBCHEM_ATOM_DEF_STEREO_COUNT>
0

> <PUBCHEM_ATOM_UDEF_STEREO_COUNT>
0

> <PUBCHEM_BOND_DEF_STEREO_COUNT>
1

> <PUBCHEM_BOND_UDEF_STEREO_COUNT>
0

> <PUBCHEM_ISOTOPIC_ATOM_COUNT>
0

> <PUBCHEM_COMPONENT_COUNT>
1

> <PUBCHEM_CACTVS_TAUTO_COUNT>
-1

> <PUBCHEM_CONFORMER_ID>
0812A56900000001

> <PUBCHEM_MMFF94_ENERGY>
76.3599

> <PUBCHEM_FEATURE_SELFOVERLAP>
50.754

> <PUBCHEM_SHAPE_FINGERPRINT>
10411042 1 18124597484554597542
10595046 47 18271523225306585351
10763959 59 18260547822676000365
10835480 77 18341608260829581049
11578080 2 14058155089867581332
11719270 70 17703788085417539846
12107183 9 17766285271069115306
12166972 35 18343866619095309208
12236239 1 18201998832981591519
12596602 18 11530478909421177799
13167372 99 18271810081919879865
13533116 47 18201719535785330730
14933364 13 18409168809897847385
15183329 4 18342460309262944130
15196674 1 18411138078062129857
17844677 252 18410864291034590139
18335252 114 18339070511358489493
20157964 124 18272090491591447295
20281389 69 18334294254485537145
20511986 3 17917136286578443830
20645477 70 18272655636721900694
21065198 57 18337112383827637250
21315763 129 18411981347266309607
21315763 28 18412543211399957639
21315764 268 18408317791966667181
221357 26 18410291380841383052
23402539 116 18342171189856441263
23536379 177 18342738511828178379
23559900 14 18341889722905104441
2838139 119 18412539882842800333
29717793 49 17846782884050179270
3004659 81 18411135827267132488
3103668 31 17899415290492224852
335352 9 18411421696560142718
351380 180 18412262856539305601
3545911 37 18410012135179182019
4073 2 18114748247406099530
4214541 1 18411701006224236083
5104073 3 18336548304118287907
57724786 102 17458913763425493501
59755656 215 18261674766449754239
59755656 520 17530964679453920651
633830 44 18262229023420964875
67856867 119 18270960262183652824
9709674 26 18337678623715639682
9971528 1 18186802508559630404
9995097 60 18411135840067625119

> <PUBCHEM_SHAPE_MULTIPOLES>
434.91
18.31
2.71
0.68
15.62
1.14
0
2.56
1.28
-2.54
0.18
-0.08
0.04
0.48

> <PUBCHEM_SHAPE_SELFOVERLAP>
927.045

> <PUBCHEM_SHAPE_VOLUME>
240.7

> <PUBCHEM_COORDINATE_TYPE>
2
5
10

$$$$
