135464871
  -OEChem-03292013293D

 33 35  0     1  0  0  0  0  0999 V2000
   -2.0975   -2.0544   -1.7375 O   0  0  0  0  0  0  0  0  0  0  0  0
   -2.2196    1.4399   -1.0577 O   0  0  0  0  0  0  0  0  0  0  0  0
   -5.0565    1.1330    0.6280 O   0  0  0  0  0  0  0  0  0  0  0  0
    4.8658    0.3364    0.1632 O   0  0  0  0  0  0  0  0  0  0  0  0
    0.5778   -1.0976    0.2733 N   0  0  0  0  0  0  0  0  0  0  0  0
    2.7206   -1.6862    0.5333 N   0  0  0  0  0  0  0  0  0  0  0  0
    0.8280    1.2499   -0.2758 N   0  0  0  0  0  0  0  0  0  0  0  0
    3.1551    1.8580   -0.2935 N   0  0  0  0  0  0  0  0  0  0  0  0
   -0.9278   -1.2328    0.2221 C   0  0  1  0  0  0  0  0  0  0  0  0
   -3.0248   -0.1240    0.6147 C   0  0  2  0  0  0  0  0  0  0  0  0
   -1.6473   -0.3358    1.2423 C   0  0  0  0  0  0  0  0  0  0  0  0
   -1.5484   -0.8756   -1.1521 C   0  0  2  0  0  0  0  0  0  0  0  0
   -2.6881    0.1093   -0.8624 C   0  0  2  0  0  0  0  0  0  0  0  0
   -3.8036    1.0016    1.2778 C   0  0  0  0  0  0  0  0  0  0  0  0
    1.3127    0.0279    0.0439 C   0  0  0  0  0  0  0  0  0  0  0  0
    1.4693   -2.1016    0.5639 C   0  0  0  0  0  0  0  0  0  0  0  0
    2.6211   -0.3650    0.2105 C   0  0  0  0  0  0  0  0  0  0  0  0
    3.6766    0.5999    0.0372 C   0  0  0  0  0  0  0  0  0  0  0  0
    1.7865    2.1170   -0.4311 C   0  0  0  0  0  0  0  0  0  0  0  0
   -1.1187   -2.2875    0.4622 H   0  0  0  0  0  0  0  0  0  0  0  0
   -3.6036   -1.0553    0.6893 H   0  0  0  0  0  0  0  0  0  0  0  0
   -1.1345    0.6196    1.3965 H   0  0  0  0  0  0  0  0  0  0  0  0
   -1.7184   -0.8258    2.2195 H   0  0  0  0  0  0  0  0  0  0  0  0
   -0.8124   -0.4702   -1.8539 H   0  0  0  0  0  0  0  0  0  0  0  0
   -3.5660   -0.0445   -1.4988 H   0  0  0  0  0  0  0  0  0  0  0  0
   -3.2748    1.9587    1.2238 H   0  0  0  0  0  0  0  0  0  0  0  0
   -3.9837    0.7686    2.3325 H   0  0  0  0  0  0  0  0  0  0  0  0
   -2.4928   -1.7998   -2.5887 H   0  0  0  0  0  0  0  0  0  0  0  0
   -1.9900    1.5326   -1.9980 H   0  0  0  0  0  0  0  0  0  0  0  0
    1.1490   -3.1099    0.7883 H   0  0  0  0  0  0  0  0  0  0  0  0
   -5.5380    1.8488    1.0767 H   0  0  0  0  0  0  0  0  0  0  0  0
    1.5765    3.1653   -0.6942 H   0  0  0  0  0  0  0  0  0  0  0  0
    3.8088    2.6216   -0.4412 H   0  0  0  0  0  0  0  0  0  0  0  0
  1 12  1  0  0  0  0
  1 28  1  0  0  0  0
  2 13  1  0  0  0  0
  2 29  1  0  0  0  0
  3 14  1  0  0  0  0
  3 31  1  0  0  0  0
  4 18  2  0  0  0  0
  5  9  1  0  0  0  0
  5 15  1  0  0  0  0
  5 16  1  0  0  0  0
  6 16  2  0  0  0  0
  6 17  1  0  0  0  0
  7 15  1  0  0  0  0
  7 19  2  0  0  0  0
  8 18  1  0  0  0  0
  8 19  1  0  0  0  0
  8 33  1  0  0  0  0
  9 11  1  0  0  0  0
  9 12  1  0  0  0  0
  9 20  1  0  0  0  0
 10 11  1  0  0  0  0
 10 13  1  0  0  0  0
 10 14  1  0  0  0  0
 10 21  1  0  0  0  0
 11 22  1  0  0  0  0
 11 23  1  0  0  0  0
 12 13  1  0  0  0  0
 12 24  1  0  0  0  0
 13 25  1  0  0  0  0
 14 26  1  0  0  0  0
 14 27  1  0  0  0  0
 15 17  2  0  0  0  0
 16 30  1  0  0  0  0
 17 18  1  0  0  0  0
 19 32  1  0  0  0  0
M  END
> <PUBCHEM_COMPOUND_CID>
135464871

> <PUBCHEM_CONFORMER_RMSD>
0.6

> <PUBCHEM_CONFORMER_DIVERSEORDER>
1
33
158
24
139
127
164
46
67
148
79
122
152
81
97
131
108
105
53
111
26
162
3
140
87
8
161
75
30
165
134
94
163
23
167
48
11
114
153
69
52
98
156
17
59
149
118
34
160
151
9
168
4
155
129
50
142
77
137
19
35
15
119
5
124
73
150
109
6
7
45
56
84
135
103
95
166
16
145
63
70
20
83
136
146
104
96
64
120
2
121
76
38
10
29
32
27
147
36
154
78
123
85
82
13
125
49
39
102
80
37
47
14
42
51
72
74
25
43
58
57
12
89
101
44
65
60
40
22
113
21
144
107
28
132
138
55
61
88
41
86
169
99
91
112
117
170
133
106
116
18
100
141
128
66
143
90
62
92
157
115
54
31
71
126
68
159
110
93
130

> <PUBCHEM_MMFF94_PARTIAL_CHARGES>
23
1 -0.68
12 0.28
13 0.28
14 0.28
15 -0.03
16 0.04
17 0.14
18 0.72
19 0.45
2 -0.68
28 0.4
29 0.4
3 -0.68
30 0.15
31 0.4
32 0.06
33 0.37
4 -0.57
5 0.05
6 -0.57
7 -0.58
8 -0.49
9 0.26

> <PUBCHEM_EFFECTIVE_ROTOR_COUNT>
3

> <PUBCHEM_PHARMACOPHORE_FEATURES>
12
1 1 acceptor
1 1 donor
1 2 acceptor
1 2 donor
1 3 acceptor
1 3 donor
1 4 acceptor
1 8 donor
3 5 6 16 cation
5 5 6 15 16 17 rings
5 9 10 11 12 13 rings
6 7 8 15 17 18 19 rings

> <PUBCHEM_HEAVY_ATOM_COUNT>
19

> <PUBCHEM_ATOM_DEF_STEREO_COUNT>
0

> <PUBCHEM_ATOM_UDEF_STEREO_COUNT>
4

> <PUBCHEM_BOND_DEF_STEREO_COUNT>
0

> <PUBCHEM_BOND_UDEF_STEREO_COUNT>
0

> <PUBCHEM_ISOTOPIC_ATOM_COUNT>
0

> <PUBCHEM_COMPONENT_COUNT>
1

> <PUBCHEM_CACTVS_TAUTO_COUNT>
-1

> <PUBCHEM_CONFORMER_ID>
081307A700000001

> <PUBCHEM_MMFF94_ENERGY>
45.6413

> <PUBCHEM_FEATURE_SELFOVERLAP>
61.039

> <PUBCHEM_SHAPE_FINGERPRINT>
10980938 120 18335419049952697562
11471102 20 18334576810928661354
11640471 11 18131360704022719545
12173636 292 17846775196464654213
12236239 1 18131350799807087707
12633257 1 17313105292982663385
13140716 1 18262520437036297376
13538477 17 17846495945985870251
13581323 91 13912320196400616242
13583140 156 15648435927308178820
15219456 202 17895473635346631715
15309172 13 18334012825893643234
15342168 16 18115037418784583501
15653759 3 16588023523877164024
15775835 57 18342741831711135073
16945 1 18187918530210412362
17844478 74 17458063742168265805
1813 80 17695922033567779126
18186145 218 18410856603201418332
18219364 16 17894903040404171223
19049666 15 17387123174608399107
19868273 293 16702302343284424875
200 152 18268701887160276391
20233049 118 17561084687403624976
20645476 183 17988924479156701303
21041028 32 18118401744040157600
22854114 111 18334860523609745944
23184049 59 18339647741428874979
23402539 116 16988841665904429969
23557571 272 17131266990513027706
23598291 2 18271794684177468999
25 1 18333733528786988202
2748010 2 17690267219252859686
474 4 18335702775265327264
5104073 3 18262513822955356752
633830 44 18337680827381489828
77492 1 18130782365085652595
7832392 63 18343020020995614344
9981440 41 17119151661313947544

> <PUBCHEM_SHAPE_MULTIPOLES>
347.61
7.69
2.07
1.16
0.45
0.08
-0.2
-2.97
1.41
-0.71
-0.28
1.17
0.23
-0.97

> <PUBCHEM_SHAPE_SELFOVERLAP>
753.863

> <PUBCHEM_SHAPE_VOLUME>
188.4

> <PUBCHEM_COORDINATE_TYPE>
2
5
10

$$$$
