135400908
  -OEChem-03292013293D

 28 30  0     0  0  0  0  0  0999 V2000
    4.0743    0.2734   -0.5998 S   0  0  0  0  0  0  0  0  0  0  0  0
   -3.7919    1.3484    1.1552 O   0  0  0  0  0  0  0  0  0  0  0  0
    0.2541    0.5629   -0.6963 N   0  0  0  0  0  0  0  0  0  0  0  0
   -1.0542    2.0942    0.2759 N   0  0  0  0  0  0  0  0  0  0  0  0
   -1.2166   -1.3595   -0.6688 N   0  0  0  0  0  0  0  0  0  0  0  0
   -3.3133   -0.7867    0.3391 N   0  0  0  0  0  0  0  0  0  0  0  0
    1.1601    2.7192   -0.4293 N   0  0  0  0  0  0  0  0  0  0  0  0
   -2.9170   -2.9668   -0.4571 N   0  0  0  0  0  0  0  0  0  0  0  0
    1.4065   -0.0337   -1.3335 C   0  0  0  0  0  0  0  0  0  0  0  0
   -0.9212   -0.0667   -0.4092 C   0  0  0  0  0  0  0  0  0  0  0  0
   -1.7001    0.8967    0.1848 C   0  0  0  0  0  0  0  0  0  0  0  0
    0.1253    1.8606   -0.2652 C   0  0  0  0  0  0  0  0  0  0  0  0
    2.5102   -0.3834   -0.3665 C   0  0  0  0  0  0  0  0  0  0  0  0
   -3.0275    0.5573    0.6174 C   0  0  0  0  0  0  0  0  0  0  0  0
   -2.4276   -1.6984   -0.2826 C   0  0  0  0  0  0  0  0  0  0  0  0
    2.4521   -1.1990    0.7423 C   0  0  0  0  0  0  0  0  0  0  0  0
    3.7083   -1.2856    1.4091 C   0  0  0  0  0  0  0  0  0  0  0  0
    4.6785   -0.5332    0.7846 C   0  0  0  0  0  0  0  0  0  0  0  0
    1.7410    0.6513   -2.1216 H   0  0  0  0  0  0  0  0  0  0  0  0
    1.0824   -0.9476   -1.8459 H   0  0  0  0  0  0  0  0  0  0  0  0
   -4.2304   -1.1333    0.6054 H   0  0  0  0  0  0  0  0  0  0  0  0
    1.5555   -1.7133    1.0640 H   0  0  0  0  0  0  0  0  0  0  0  0
    1.0929    3.6842   -0.1215 H   0  0  0  0  0  0  0  0  0  0  0  0
    2.0458    2.4588   -0.8500 H   0  0  0  0  0  0  0  0  0  0  0  0
    3.8911   -1.8705    2.3011 H   0  0  0  0  0  0  0  0  0  0  0  0
    5.7133   -0.4186    1.0750 H   0  0  0  0  0  0  0  0  0  0  0  0
   -2.3562   -3.6905   -0.8932 H   0  0  0  0  0  0  0  0  0  0  0  0
   -3.8520   -3.2191   -0.1559 H   0  0  0  0  0  0  0  0  0  0  0  0
  1 13  1  0  0  0  0
  1 18  1  0  0  0  0
  2 14  2  0  0  0  0
  3  9  1  0  0  0  0
  3 10  1  0  0  0  0
  3 12  1  0  0  0  0
  4 11  1  0  0  0  0
  4 12  2  0  0  0  0
  5 10  1  0  0  0  0
  5 15  2  0  0  0  0
  6 14  1  0  0  0  0
  6 15  1  0  0  0  0
  6 21  1  0  0  0  0
  7 12  1  0  0  0  0
  7 23  1  0  0  0  0
  7 24  1  0  0  0  0
  8 15  1  0  0  0  0
  8 27  1  0  0  0  0
  8 28  1  0  0  0  0
  9 13  1  0  0  0  0
  9 19  1  0  0  0  0
  9 20  1  0  0  0  0
 10 11  2  0  0  0  0
 11 14  1  0  0  0  0
 13 16  2  0  0  0  0
 16 17  1  0  0  0  0
 16 22  1  0  0  0  0
 17 18  2  0  0  0  0
 17 25  1  0  0  0  0
 18 26  1  0  0  0  0
M  END
> <PUBCHEM_COMPOUND_CID>
135400908

> <PUBCHEM_CONFORMER_RMSD>
0.6

> <PUBCHEM_CONFORMER_DIVERSEORDER>
1
13
15
11
10
12
16
4
8
5
9
14
17
3
6
7
2

> <PUBCHEM_MMFF94_PARTIAL_CHARGES>
26
1 -0.08
10 -0.03
11 0.14
12 0.27
13 -0.14
14 0.72
15 0.56
16 -0.15
17 -0.15
18 -0.11
2 -0.57
21 0.37
22 0.15
23 0.4
24 0.4
25 0.15
26 0.15
27 0.4
28 0.4
3 0.05
4 -0.57
5 -0.58
6 -0.49
7 -0.88
8 -0.85
9 0.44

> <PUBCHEM_EFFECTIVE_ROTOR_COUNT>
2

> <PUBCHEM_PHARMACOPHORE_FEATURES>
8
1 2 acceptor
1 6 donor
1 7 donor
1 8 donor
4 3 4 7 12 cation
5 1 13 16 17 18 rings
5 3 4 10 11 12 rings
6 5 6 10 11 14 15 rings

> <PUBCHEM_HEAVY_ATOM_COUNT>
18

> <PUBCHEM_ATOM_DEF_STEREO_COUNT>
0

> <PUBCHEM_ATOM_UDEF_STEREO_COUNT>
0

> <PUBCHEM_BOND_DEF_STEREO_COUNT>
0

> <PUBCHEM_BOND_UDEF_STEREO_COUNT>
0

> <PUBCHEM_ISOTOPIC_ATOM_COUNT>
0

> <PUBCHEM_COMPONENT_COUNT>
1

> <PUBCHEM_CACTVS_TAUTO_COUNT>
-1

> <PUBCHEM_CONFORMER_ID>
08120DCC00000001

> <PUBCHEM_MMFF94_ENERGY>
31.4239

> <PUBCHEM_FEATURE_SELFOVERLAP>
40.775

> <PUBCHEM_SHAPE_FINGERPRINT>
10062212 137 18333733532934359827
10366900 7 17560791100750845640
11132069 177 18342460296414906790
11578080 2 17896297247124432172
12202030 40 16589163799345397907
12251169 10 18341612577587893088
12382932 28 18341897350788296214
12553582 1 18408325484067997086
12633257 1 18130779011048342194
12670545 47 17346590881120329552
12824470 246 18114738360285895147
13083527 12 17698985599105184935
13140716 1 18341618165324579553
14178342 30 18272941505001801159
14341114 328 18408885157594445800
14787075 74 18189901005900452516
15375462 189 18187369839395277192
16945 1 18341346495832026317
17349148 13 18130781279007377917
17780758 139 17684901654756101738
1813 80 17459200590448243958
18186145 218 12612753506145891630
19050596 39 18334855005156993426
200 152 17385719176006951338
20291156 8 18261108561090100266
20510252 161 17914338978515492033
20600515 1 18272943691208759076
212916 134 17986956237378807161
21421861 104 18050865591229897835
21452121 199 17697021905919566543
21452121 71 18262803002733981054
21501502 16 18268157641641606125
21650355 55 18412255117003138944
22112679 90 18409737278404235396
22445834 79 18334580161019086827
231179 274 14333127434340995056
23184049 29 18268430320482960087
232386 152 18336272309540886934
23366157 5 18044942517385027836
23402539 116 18130780154005384805
23419403 2 17625778942518039389
23557571 272 17632026311478031759
23559900 14 18058746701762395702
25147074 1 18197509613252764333
2838139 119 14188460214139736283
34934 24 18334858290174199324
4072396 5 18191873319112145377
58807428 26 18197230148299720947
5902787 121 18411421756024669628
633830 44 12391245945238005518
7097593 13 18118956989291969274
90316 7 18336826381786682356

> <PUBCHEM_SHAPE_MULTIPOLES>
338.53
7.63
2.42
1.09
3.94
0.05
0.08
-2.47
2.33
-1.65
-0.14
0.46
-0.12
-1.38

> <PUBCHEM_SHAPE_SELFOVERLAP>
734.915

> <PUBCHEM_SHAPE_VOLUME>
187.8

> <PUBCHEM_COORDINATE_TYPE>
2
5
10

$$$$
