135464166
  -OEChem-03292013293D

 36 38  0     1  0  0  0  0  0999 V2000
   -3.9756   -3.0724    1.7075 Cl  0  0  0  0  0  0  0  0  0  0  0  0
   -0.4400    4.5891    0.3997 O   0  0  0  0  0  0  0  0  0  0  0  0
    4.2993   -1.5655   -1.7909 O   0  0  0  0  0  0  0  0  0  0  0  0
    0.8787    2.9004    1.1635 O   0  0  0  0  0  0  0  0  0  0  0  0
    1.5862   -0.3431   -2.2642 N   0  0  0  0  0  0  0  0  0  0  0  0
    1.7930   -0.3125    1.2863 N   0  0  0  0  0  0  0  0  0  0  0  0
    3.8336   -1.2728    0.4631 N   0  0  0  0  0  0  0  0  0  0  0  0
    3.4655   -1.0241    2.7631 N   0  0  0  0  0  0  0  0  0  0  0  0
   -0.8916    0.8747    0.1527 C   0  0  1  0  0  0  0  0  0  0  0  0
    0.2550    0.3239   -0.5938 C   0  0  0  0  0  0  0  0  0  0  0  0
   -1.1684    2.4018   -0.0758 C   0  0  0  0  0  0  0  0  0  0  0  0
    1.4465   -0.2019   -0.0662 C   0  0  0  0  0  0  0  0  0  0  0  0
   -2.1839    0.0504   -0.0359 C   0  0  0  0  0  0  0  0  0  0  0  0
    2.2537   -0.6069   -1.0996 C   0  0  0  0  0  0  0  0  0  0  0  0
    0.3673    0.2242   -1.9669 C   0  0  0  0  0  0  0  0  0  0  0  0
   -2.4637   -1.0141    0.8210 C   0  0  0  0  0  0  0  0  0  0  0  0
   -3.0719    0.3710   -1.0629 C   0  0  0  0  0  0  0  0  0  0  0  0
    3.5452   -1.1895   -0.9001 C   0  0  0  0  0  0  0  0  0  0  0  0
   -0.1146    3.2806    0.5625 C   0  0  0  0  0  0  0  0  0  0  0  0
    2.9761   -0.8451    1.4942 C   0  0  0  0  0  0  0  0  0  0  0  0
   -3.6315   -1.7580    0.6512 C   0  0  0  0  0  0  0  0  0  0  0  0
   -4.2395   -0.3729   -1.2329 C   0  0  0  0  0  0  0  0  0  0  0  0
   -4.5194   -1.4373   -0.3756 C   0  0  0  0  0  0  0  0  0  0  0  0
   -0.6626    0.7910    1.2263 H   0  0  0  0  0  0  0  0  0  0  0  0
   -1.1967    2.6381   -1.1458 H   0  0  0  0  0  0  0  0  0  0  0  0
   -2.1283    2.6760    0.3796 H   0  0  0  0  0  0  0  0  0  0  0  0
   -0.3052    0.5059   -2.7653 H   0  0  0  0  0  0  0  0  0  0  0  0
    1.9293   -0.5320   -3.1962 H   0  0  0  0  0  0  0  0  0  0  0  0
   -1.7695   -1.2651    1.6198 H   0  0  0  0  0  0  0  0  0  0  0  0
   -2.8743    1.1841   -1.7547 H   0  0  0  0  0  0  0  0  0  0  0  0
    4.7288   -1.6722    0.7297 H   0  0  0  0  0  0  0  0  0  0  0  0
   -4.9292   -0.1258   -2.0346 H   0  0  0  0  0  0  0  0  0  0  0  0
   -5.4327   -2.0087   -0.5207 H   0  0  0  0  0  0  0  0  0  0  0  0
    2.9262   -0.7495    3.5770 H   0  0  0  0  0  0  0  0  0  0  0  0
    4.3783   -1.4352    2.9251 H   0  0  0  0  0  0  0  0  0  0  0  0
    0.2202    5.1842    0.8148 H   0  0  0  0  0  0  0  0  0  0  0  0
  1 21  1  0  0  0  0
  2 19  1  0  0  0  0
  2 36  1  0  0  0  0
  3 18  2  0  0  0  0
  4 19  2  0  0  0  0
  5 14  1  0  0  0  0
  5 15  1  0  0  0  0
  5 28  1  0  0  0  0
  6 12  1  0  0  0  0
  6 20  2  0  0  0  0
  7 18  1  0  0  0  0
  7 20  1  0  0  0  0
  7 31  1  0  0  0  0
  8 20  1  0  0  0  0
  8 34  1  0  0  0  0
  8 35  1  0  0  0  0
  9 10  1  0  0  0  0
  9 11  1  0  0  0  0
  9 13  1  0  0  0  0
  9 24  1  0  0  0  0
 10 12  1  0  0  0  0
 10 15  2  0  0  0  0
 11 19  1  0  0  0  0
 11 25  1  0  0  0  0
 11 26  1  0  0  0  0
 12 14  2  0  0  0  0
 13 16  2  0  0  0  0
 13 17  1  0  0  0  0
 14 18  1  0  0  0  0
 15 27  1  0  0  0  0
 16 21  1  0  0  0  0
 16 29  1  0  0  0  0
 17 22  2  0  0  0  0
 17 30  1  0  0  0  0
 21 23  2  0  0  0  0
 22 23  1  0  0  0  0
 22 32  1  0  0  0  0
 23 33  1  0  0  0  0
M  END
> <PUBCHEM_COMPOUND_CID>
135464166

> <PUBCHEM_CONFORMER_RMSD>
0.8

> <PUBCHEM_CONFORMER_DIVERSEORDER>
1
50
17
25
51
49
20
58
23
47
53
27
31
29
60
16
59
33
5
40
42
9
13
35
8
45
52
44
55
19
7
36
22
15
34
56
11
3
30
28
21
32
26
39
43
57
10
2
46
24
37
4
6
14
41
38
18
48
54
12

> <PUBCHEM_MMFF94_PARTIAL_CHARGES>
33
1 -0.18
10 -0.18
11 0.06
12 0.12
13 -0.14
14 -0.24
15 -0.3
16 -0.15
17 -0.15
18 0.71
19 0.66
2 -0.65
20 0.56
21 0.18
22 -0.15
23 -0.15
27 0.15
28 0.27
29 0.15
3 -0.57
30 0.15
31 0.37
32 0.15
33 0.15
34 0.4
35 0.4
36 0.5
4 -0.57
5 0.03
6 -0.57
7 -0.49
8 -0.85
9 0.32

> <PUBCHEM_EFFECTIVE_ROTOR_COUNT>
4

> <PUBCHEM_PHARMACOPHORE_FEATURES>
11
1 2 acceptor
1 3 acceptor
1 4 acceptor
1 5 cation
1 5 donor
1 7 donor
1 8 donor
3 2 4 19 anion
5 5 10 12 14 15 rings
6 13 16 17 21 22 23 rings
6 6 7 12 14 18 20 rings

> <PUBCHEM_HEAVY_ATOM_COUNT>
23

> <PUBCHEM_ATOM_DEF_STEREO_COUNT>
1

> <PUBCHEM_ATOM_UDEF_STEREO_COUNT>
0

> <PUBCHEM_BOND_DEF_STEREO_COUNT>
0

> <PUBCHEM_BOND_UDEF_STEREO_COUNT>
0

> <PUBCHEM_ISOTOPIC_ATOM_COUNT>
0

> <PUBCHEM_COMPONENT_COUNT>
1

> <PUBCHEM_CACTVS_TAUTO_COUNT>
-1

> <PUBCHEM_CONFORMER_ID>
081304E600000001

> <PUBCHEM_MMFF94_ENERGY>
51.9635

> <PUBCHEM_FEATURE_SELFOVERLAP>
56.037

> <PUBCHEM_SHAPE_FINGERPRINT>
11578080 2 17532626049485787980
11796584 16 18113620097041979463
12363563 72 18413389843400110255
12549972 3 17270303290099963218
12553582 1 18409454656993166035
12707595 3 18337960098845077695
12788726 201 18191868925112473761
13009979 54 17823133424250826002
133893 2 18123206837724702185
13681431 1 18270965764311357953
14787075 74 17972048199709482844
15842332 3 17606690115284799370
1813 80 17845114959386463829
18219364 16 16341991201904433404
18222031 100 18060414737778626287
20369508 70 18263639727262738735
20600515 1 18262503832413363737
20626108 58 17168409562719933835
20739085 24 16056883541812869906
21304303 282 17399197908294726365
22393880 68 17313110773487838854
23419403 2 17828723461293447773
23557571 272 18057884649711922116
23559900 14 18187638128611555068
38570 142 15122375731718438282
463206 1 18334568062614185899
5902787 121 18409167748792920979
6049 1 17488454171009799864
621550 5 17058400031863931556
6442390 28 17050513054343291713
6669772 16 17550962819972670556
6786 2 16897669362865580292
81228 2 18056771922839164825
9841814 1 18338804540991625617

> <PUBCHEM_SHAPE_MULTIPOLES>
437.67
8.02
3.49
2.01
2.47
4.43
-0.06
-8.03
0.1
1
-2.02
-1.6
-0.76
1.16

> <PUBCHEM_SHAPE_SELFOVERLAP>
949.288

> <PUBCHEM_SHAPE_VOLUME>
238.9

> <PUBCHEM_COORDINATE_TYPE>
2
5
10

$$$$
