135448195
  -OEChem-03292013293D

 35 36  0     0  0  0  0  0  0999 V2000
   -1.9978    0.7621   -2.3536 O   0  0  0  0  0  0  0  0  0  0  0  0
   -3.1189   -2.5829    1.6898 O   0  0  0  0  0  0  0  0  0  0  0  0
    2.3889   -2.2675   -1.2830 O   0  0  0  0  0  0  0  0  0  0  0  0
   -2.8186    1.8746    1.0214 N   0  0  0  0  0  0  0  0  0  0  0  0
   -0.3280   -1.9790   -1.1437 N   0  0  0  0  0  0  0  0  0  0  0  0
    0.5243   -1.0681   -0.6167 N   0  0  0  0  0  0  0  0  0  0  0  0
    4.4166    1.7241    0.9441 N   0  0  0  0  0  0  0  0  0  0  0  0
   -2.0057   -0.4557   -0.2911 C   0  0  0  0  0  0  0  0  0  0  0  0
   -2.2191   -0.4667    1.0829 C   0  0  0  0  0  0  0  0  0  0  0  0
   -2.1982    0.7191   -1.0096 C   0  0  0  0  0  0  0  0  0  0  0  0
   -2.6013    1.8469   -0.3127 C   0  0  0  0  0  0  0  0  0  0  0  0
   -2.0292   -1.6941    1.9059 C   0  0  0  0  0  0  0  0  0  0  0  0
   -2.6213    0.7141    1.6861 C   0  0  0  0  0  0  0  0  0  0  0  0
   -1.5771   -1.6822   -0.9862 C   0  0  0  0  0  0  0  0  0  0  0  0
   -2.8227    3.1351   -1.0357 C   0  0  0  0  0  0  0  0  0  0  0  0
    2.7632   -0.2456   -0.1517 C   0  0  0  0  0  0  0  0  0  0  0  0
    1.9023   -1.2705   -0.7192 C   0  0  0  0  0  0  0  0  0  0  0  0
    4.0362   -0.5751    0.3006 C   0  0  0  0  0  0  0  0  0  0  0  0
    2.3161    1.0676   -0.0568 C   0  0  0  0  0  0  0  0  0  0  0  0
    4.8166    0.4372    0.8354 C   0  0  0  0  0  0  0  0  0  0  0  0
    3.1735    2.0065    0.4939 C   0  0  0  0  0  0  0  0  0  0  0  0
   -1.0917   -2.2032    1.6597 H   0  0  0  0  0  0  0  0  0  0  0  0
   -1.9929   -1.4531    2.9742 H   0  0  0  0  0  0  0  0  0  0  0  0
   -2.8061    0.7719    2.7544 H   0  0  0  0  0  0  0  0  0  0  0  0
   -2.3616   -2.3508   -1.3756 H   0  0  0  0  0  0  0  0  0  0  0  0
   -3.6062    3.0201   -1.7914 H   0  0  0  0  0  0  0  0  0  0  0  0
   -1.8986    3.4645   -1.5215 H   0  0  0  0  0  0  0  0  0  0  0  0
   -3.1372    3.9245   -0.3449 H   0  0  0  0  0  0  0  0  0  0  0  0
   -1.7068   -0.1029   -2.6840 H   0  0  0  0  0  0  0  0  0  0  0  0
    0.1635   -0.2723   -0.1091 H   0  0  0  0  0  0  0  0  0  0  0  0
   -2.9589   -3.3688    2.2397 H   0  0  0  0  0  0  0  0  0  0  0  0
    4.4216   -1.5878    0.2489 H   0  0  0  0  0  0  0  0  0  0  0  0
    1.3466    1.3941   -0.4157 H   0  0  0  0  0  0  0  0  0  0  0  0
    5.8166    0.2322    1.2034 H   0  0  0  0  0  0  0  0  0  0  0  0
    2.8753    3.0459    0.5842 H   0  0  0  0  0  0  0  0  0  0  0  0
  1 10  1  0  0  0  0
  1 29  1  0  0  0  0
  2 12  1  0  0  0  0
  2 31  1  0  0  0  0
  3 17  2  0  0  0  0
  4 11  2  0  0  0  0
  4 13  1  0  0  0  0
  5  6  1  0  0  0  0
  5 14  2  0  0  0  0
  6 17  1  0  0  0  0
  6 30  1  0  0  0  0
  7 20  2  0  0  0  0
  7 21  1  0  0  0  0
  8  9  1  0  0  0  0
  8 10  2  0  0  0  0
  8 14  1  0  0  0  0
  9 12  1  0  0  0  0
  9 13  2  0  0  0  0
 10 11  1  0  0  0  0
 11 15  1  0  0  0  0
 12 22  1  0  0  0  0
 12 23  1  0  0  0  0
 13 24  1  0  0  0  0
 14 25  1  0  0  0  0
 15 26  1  0  0  0  0
 15 27  1  0  0  0  0
 15 28  1  0  0  0  0
 16 17  1  0  0  0  0
 16 18  2  0  0  0  0
 16 19  1  0  0  0  0
 18 20  1  0  0  0  0
 18 32  1  0  0  0  0
 19 21  2  0  0  0  0
 19 33  1  0  0  0  0
 20 34  1  0  0  0  0
 21 35  1  0  0  0  0
M  END
> <PUBCHEM_COMPOUND_CID>
135448195

> <PUBCHEM_CONFORMER_RMSD>
0.8

> <PUBCHEM_CONFORMER_DIVERSEORDER>
2
7
5
14
10
8
12
11
6
9
3
13
1
4

> <PUBCHEM_MMFF94_PARTIAL_CHARGES>
30
1 -0.53
10 0.08
11 0.17
12 0.42
13 0.16
14 0.3
15 0.14
16 0.09
17 0.54
18 -0.15
19 -0.15
2 -0.68
20 0.16
21 0.16
24 0.15
25 0.06
29 0.45
3 -0.57
30 0.37
31 0.4
32 0.15
33 0.15
34 0.15
35 0.15
4 -0.62
5 -0.51
6 -0.37
7 -0.62
8 0.09
9 -0.14

> <PUBCHEM_EFFECTIVE_ROTOR_COUNT>
5

> <PUBCHEM_PHARMACOPHORE_FEATURES>
10
1 1 donor
1 2 acceptor
1 2 donor
1 3 acceptor
1 4 acceptor
1 5 acceptor
1 6 donor
1 7 acceptor
6 4 8 9 10 11 13 rings
6 7 16 18 19 20 21 rings

> <PUBCHEM_HEAVY_ATOM_COUNT>
21

> <PUBCHEM_ATOM_DEF_STEREO_COUNT>
0

> <PUBCHEM_ATOM_UDEF_STEREO_COUNT>
0

> <PUBCHEM_BOND_DEF_STEREO_COUNT>
1

> <PUBCHEM_BOND_UDEF_STEREO_COUNT>
0

> <PUBCHEM_ISOTOPIC_ATOM_COUNT>
0

> <PUBCHEM_COMPONENT_COUNT>
1

> <PUBCHEM_CACTVS_TAUTO_COUNT>
-1

> <PUBCHEM_CONFORMER_ID>
0812C68300000002

> <PUBCHEM_MMFF94_ENERGY>
71.7634

> <PUBCHEM_FEATURE_SELFOVERLAP>
50.754

> <PUBCHEM_SHAPE_FINGERPRINT>
10366900 7 18187938321230120234
11045515 52 17908963745783157975
11552529 35 17531813596671703618
11640471 11 16701741523254987278
11725454 13 17535733119417276669
12077114 3 18408600349184919676
12173636 292 15841286899191254359
12403814 3 18271247252172749891
12633257 1 18114196236475749329
13583140 156 18187353346974308714
14178342 30 17821454538419399738
14289901 80 17168143472916995962
14468879 13 18411688881558050353
15295992 7 17974576788458235691
18186145 218 17703799162786308046
18219364 16 18202285822648486776
18981168 100 18059871548927607086
20291156 8 11818999565053286356
20600515 1 17533225399645744751
21095088 737 17344041203966323024
21475661 188 17692546515606131329
21860390 5 14681091859005097065
21864079 5 18060424646574347336
22749437 52 18131059446753918200
2306618 200 18130218371560478571
23503958 25 18339375131670890916
27216 239 18412545418295729601
3187 122 18188495808090402337
469060 322 17983286324783455499
474 4 18058443197355195221
6049 1 18268452194741044142
633830 44 15841001082640586232
81228 2 17749972019512820731
9981440 41 18270094873613179298

> <PUBCHEM_SHAPE_MULTIPOLES>
394.64
8.05
2.95
1.75
8.99
0.52
0.08
2.93
2.43
-1.89
-0.16
-1.49
-0.43
1.99

> <PUBCHEM_SHAPE_SELFOVERLAP>
845.68

> <PUBCHEM_SHAPE_VOLUME>
216.8

> <PUBCHEM_COORDINATE_TYPE>
2
5
10

$$$$
