135468226
  -OEChem-03292013293D

 31 33  0     1  0  0  0  0  0999 V2000
    4.9900    1.4106    0.8631 S   0  0  0  0  0  0  0  0  0  0  0  0
   -1.9716    0.7748   -0.6666 O   0  0  0  0  0  0  0  0  0  0  0  0
   -1.2030   -2.5492    0.3675 O   0  0  0  0  0  0  0  0  0  0  0  0
   -3.8348   -1.3803    1.5117 O   0  0  0  0  0  0  0  0  0  0  0  0
   -4.3664    2.2422   -0.9809 O   0  0  0  0  0  0  0  0  0  0  0  0
    0.3228    0.3057   -0.0222 N   0  0  0  0  0  0  0  0  0  0  0  0
    0.3565    1.4387    0.7104 N   0  0  0  0  0  0  0  0  0  0  0  0
    1.8942   -1.2646   -0.9776 N   0  0  0  0  0  0  0  0  0  0  0  0
    4.2157   -0.7807   -0.5811 N   0  0  0  0  0  0  0  0  0  0  0  0
   -1.6073   -1.2106    0.5974 C   0  0  1  0  0  0  0  0  0  0  0  0
   -1.0056   -0.2737   -0.4458 C   0  0  1  0  0  0  0  0  0  0  0  0
   -3.0907   -1.0310    0.3603 C   0  0  2  0  0  0  0  0  0  0  0  0
   -3.1699    0.4554    0.0599 C   0  0  2  0  0  0  0  0  0  0  0  0
   -4.3829    0.8400   -0.7680 C   0  0  0  0  0  0  0  0  0  0  0  0
    1.5605   -0.1689   -0.2837 C   0  0  0  0  0  0  0  0  0  0  0  0
    2.4786    0.6710    0.2915 C   0  0  0  0  0  0  0  0  0  0  0  0
    1.6682    1.6550    0.8971 C   0  0  0  0  0  0  0  0  0  0  0  0
    3.8962    0.3677    0.1483 C   0  0  0  0  0  0  0  0  0  0  0  0
    3.2496   -1.5021   -1.0815 C   0  0  0  0  0  0  0  0  0  0  0  0
   -1.3216   -0.9407    1.6206 H   0  0  0  0  0  0  0  0  0  0  0  0
   -0.8170   -0.7636   -1.4079 H   0  0  0  0  0  0  0  0  0  0  0  0
   -3.4387   -1.6458   -0.4777 H   0  0  0  0  0  0  0  0  0  0  0  0
   -3.1554    1.0540    0.9798 H   0  0  0  0  0  0  0  0  0  0  0  0
   -5.3113    0.5725   -0.2544 H   0  0  0  0  0  0  0  0  0  0  0  0
   -4.3572    0.3548   -1.7493 H   0  0  0  0  0  0  0  0  0  0  0  0
   -1.4532   -2.7934   -0.5398 H   0  0  0  0  0  0  0  0  0  0  0  0
   -3.5333   -0.8265    2.2518 H   0  0  0  0  0  0  0  0  0  0  0  0
    1.9657    2.5231    1.4681 H   0  0  0  0  0  0  0  0  0  0  0  0
    1.2191   -1.8927   -1.4013 H   0  0  0  0  0  0  0  0  0  0  0  0
   -5.1513    2.4604   -1.5118 H   0  0  0  0  0  0  0  0  0  0  0  0
    3.4779   -2.4115   -1.6593 H   0  0  0  0  0  0  0  0  0  0  0  0
  1 18  2  0  0  0  0
  2 11  1  0  0  0  0
  2 13  1  0  0  0  0
  3 10  1  0  0  0  0
  3 26  1  0  0  0  0
  4 12  1  0  0  0  0
  4 27  1  0  0  0  0
  5 14  1  0  0  0  0
  5 30  1  0  0  0  0
  6  7  1  0  0  0  0
  6 11  1  0  0  0  0
  6 15  1  0  0  0  0
  7 17  2  0  0  0  0
  8 15  1  0  0  0  0
  8 19  1  0  0  0  0
  8 29  1  0  0  0  0
  9 18  1  0  0  0  0
  9 19  2  0  0  0  0
 10 11  1  0  0  0  0
 10 12  1  0  0  0  0
 10 20  1  0  0  0  0
 11 21  1  0  0  0  0
 12 13  1  0  0  0  0
 12 22  1  0  0  0  0
 13 14  1  0  0  0  0
 13 23  1  0  0  0  0
 14 24  1  0  0  0  0
 14 25  1  0  0  0  0
 15 16  2  0  0  0  0
 16 17  1  0  0  0  0
 16 18  1  0  0  0  0
 17 28  1  0  0  0  0
 19 31  1  0  0  0  0
M  END
> <PUBCHEM_COMPOUND_CID>
135468226

> <PUBCHEM_CONFORMER_RMSD>
0.6

> <PUBCHEM_CONFORMER_DIVERSEORDER>
1
130
66
28
104
36
40
119
101
120
9
37
128
87
33
105
32
79
77
85
11
126
81
25
115
78
114
52
118
6
103
80
99
63
110
125
61
75
44
26
62
5
59
121
55
46
58
3
70
86
88
68
95
129
116
12
83
51
67
21
54
56
23
7
90
22
108
94
17
122
72
15
45
34
98
4
107
47
124
71
123
27
8
19
10
127
30
13
69
18
106
41
14
91
16
39
20
109
92
50
76
24
73
100
112
43
53
2
82
29
74
111
89
97
35
117
57
93
48
38
113
31
96
102
84
42
65
49
60
64

> <PUBCHEM_MMFF94_PARTIAL_CHARGES>
25
1 -0.38
10 0.28
11 0.54
12 0.28
13 0.28
14 0.28
15 -0.07
16 -0.09
17 0.14
18 0.68
19 0.44
2 -0.56
26 0.4
27 0.4
28 0.15
29 0.4
3 -0.68
30 0.4
31 0.06
4 -0.68
5 -0.68
6 0.31
7 -0.71
8 -0.53
9 -0.66

> <PUBCHEM_EFFECTIVE_ROTOR_COUNT>
3

> <PUBCHEM_PHARMACOPHORE_FEATURES>
14
1 1 acceptor
1 2 acceptor
1 3 acceptor
1 3 donor
1 4 acceptor
1 4 donor
1 5 acceptor
1 5 donor
1 7 acceptor
1 8 donor
3 8 9 19 cation
5 2 10 11 12 13 rings
5 6 7 15 16 17 rings
6 8 9 15 16 18 19 rings

> <PUBCHEM_HEAVY_ATOM_COUNT>
19

> <PUBCHEM_ATOM_DEF_STEREO_COUNT>
0

> <PUBCHEM_ATOM_UDEF_STEREO_COUNT>
4

> <PUBCHEM_BOND_DEF_STEREO_COUNT>
0

> <PUBCHEM_BOND_UDEF_STEREO_COUNT>
0

> <PUBCHEM_ISOTOPIC_ATOM_COUNT>
0

> <PUBCHEM_COMPONENT_COUNT>
1

> <PUBCHEM_CACTVS_TAUTO_COUNT>
-1

> <PUBCHEM_CONFORMER_ID>
081314C200000001

> <PUBCHEM_MMFF94_ENERGY>
50.498

> <PUBCHEM_FEATURE_SELFOVERLAP>
71.158

> <PUBCHEM_SHAPE_FINGERPRINT>
10608611 8 18339640139373931177
11471102 20 18059852861851988580
11796584 16 17968659311773735618
12236239 1 15502372335718185325
12403259 415 18411707581660806719
124424 183 18343019977861318596
12500047 106 18409724092759742799
12507560 40 18411703205168240447
13134695 92 17561360669275679224
13296908 3 18413394237009222614
13464514 151 18051694344014147149
13544592 145 18337957779356853942
13675066 3 18410295838885177792
13760787 5 17275109427080900876
14115302 16 18334023782629236476
14386348 63 18412546513470230910
15219456 202 18413390955659346822
15375358 24 18341890801237242472
15653759 3 18261395580521365579
18186145 218 18339930324733916905
19049666 15 18339647750113839651
200 152 17203322321604110277
20279233 1 18413109476287520078
20645477 56 18408320016595903553
20645477 70 17917991633773648126
21065201 7 18040716956723016706
221357 26 18129650912540912253
23402539 116 18335688464466101468
23402655 69 17989198222891663765
23526113 38 18200307706508735035
23557571 272 18187368761158415636
23559900 14 18410295766546207430
296302 2 18202282537177853240
34934 24 18272642468219847382
4072396 5 18200857510379594928
474 4 15696850735893789826
495365 180 17846200151598529898
5104073 3 18411139121491257298
633830 44 18269264682579115437
69090 78 18272369814990418487
77492 1 15769779052271440479
8809292 202 18410580612623943418
9709674 26 18341051916509422118

> <PUBCHEM_SHAPE_MULTIPOLES>
351.46
9.55
2.03
1.07
0.44
0.19
-0.08
-2.52
0.2
-0.38
-0.02
-0.4
0.09
2.21

> <PUBCHEM_SHAPE_SELFOVERLAP>
748.288

> <PUBCHEM_SHAPE_VOLUME>
198.1

> <PUBCHEM_COORDINATE_TYPE>
2
5
10

$$$$
