135433961
  -OEChem-03292013293D

 42 44  0     1  0  0  0  0  0999 V2000
   -3.2498   -1.2394   -2.2939 O   0  0  0  0  0  0  0  0  0  0  0  0
    4.2219    3.2892   -1.5782 O   0  0  0  0  0  0  0  0  0  0  0  0
    4.1184    3.8306    0.6270 O   0  0  0  0  0  0  0  0  0  0  0  0
    1.2916   -1.9470    0.3148 N   0  0  3  0  0  0  0  0  0  0  0  0
   -4.1676    1.3147    0.7606 N   0  0  0  0  0  0  0  0  0  0  0  0
   -4.5693    0.4190   -1.3775 N   0  0  0  0  0  0  0  0  0  0  0  0
   -5.9589    2.0972   -0.5336 N   0  0  0  0  0  0  0  0  0  0  0  0
    0.3139   -2.1666    1.3583 C   0  0  0  0  0  0  0  0  0  0  0  0
   -0.8603   -1.2625    1.1885 C   0  0  0  0  0  0  0  0  0  0  0  0
    1.9328   -0.7110    0.1664 C   0  0  0  0  0  0  0  0  0  0  0  0
   -1.6084   -1.3050    0.0133 C   0  0  0  0  0  0  0  0  0  0  0  0
   -2.7067   -0.4528   -0.1350 C   0  0  0  0  0  0  0  0  0  0  0  0
   -1.2086   -0.3758    2.2063 C   0  0  0  0  0  0  0  0  0  0  0  0
   -3.0692    0.4439    0.8788 C   0  0  0  0  0  0  0  0  0  0  0  0
    1.6079   -3.0531   -0.5879 C   0  0  0  0  0  0  0  0  0  0  0  0
   -2.3071    0.4724    2.0518 C   0  0  0  0  0  0  0  0  0  0  0  0
    2.1487    0.1017    1.2793 C   0  0  0  0  0  0  0  0  0  0  0  0
    2.3551   -0.2926   -1.0955 C   0  0  0  0  0  0  0  0  0  0  0  0
   -3.5138   -0.4784   -1.3705 C   0  0  0  0  0  0  0  0  0  0  0  0
    2.7869    1.3330    1.1303 C   0  0  0  0  0  0  0  0  0  0  0  0
    2.9932    0.9387   -1.2444 C   0  0  0  0  0  0  0  0  0  0  0  0
    3.2093    1.7514   -0.1316 C   0  0  0  0  0  0  0  0  0  0  0  0
   -4.8745    1.2846   -0.3340 C   0  0  0  0  0  0  0  0  0  0  0  0
    3.0350   -3.3784   -0.5271 C   0  0  0  0  0  0  0  0  0  0  0  0
    3.8758    3.0346   -0.2863 C   0  0  0  0  0  0  0  0  0  0  0  0
    4.2038   -3.6484   -0.4799 C   0  0  0  0  0  0  0  0  0  0  0  0
    0.7721   -2.0660    2.3498 H   0  0  0  0  0  0  0  0  0  0  0  0
   -0.0630   -3.1980    1.3425 H   0  0  0  0  0  0  0  0  0  0  0  0
   -1.3408   -2.0013   -0.7772 H   0  0  0  0  0  0  0  0  0  0  0  0
   -0.6366   -0.3339    3.1295 H   0  0  0  0  0  0  0  0  0  0  0  0
    1.0406   -3.9510   -0.3137 H   0  0  0  0  0  0  0  0  0  0  0  0
    1.2948   -2.8222   -1.6123 H   0  0  0  0  0  0  0  0  0  0  0  0
   -2.5653    1.1577    2.8557 H   0  0  0  0  0  0  0  0  0  0  0  0
    1.8623   -0.1957    2.2828 H   0  0  0  0  0  0  0  0  0  0  0  0
    2.1886   -0.8826   -1.9913 H   0  0  0  0  0  0  0  0  0  0  0  0
    2.9513    1.9491    2.0105 H   0  0  0  0  0  0  0  0  0  0  0  0
    3.3017    1.2281   -2.2451 H   0  0  0  0  0  0  0  0  0  0  0  0
   -5.1597    0.4450   -2.2037 H   0  0  0  0  0  0  0  0  0  0  0  0
   -6.2549    2.7609    0.1739 H   0  0  0  0  0  0  0  0  0  0  0  0
   -6.4970    2.0601   -1.3923 H   0  0  0  0  0  0  0  0  0  0  0  0
    5.2408   -3.8871   -0.4379 H   0  0  0  0  0  0  0  0  0  0  0  0
    4.6706    4.1565   -1.6716 H   0  0  0  0  0  0  0  0  0  0  0  0
  1 19  2  0  0  0  0
  2 25  1  0  0  0  0
  2 42  1  0  0  0  0
  3 25  2  0  0  0  0
  4  8  1  0  0  0  0
  4 10  1  0  0  0  0
  4 15  1  0  0  0  0
  5 14  1  0  0  0  0
  5 23  2  0  0  0  0
  6 19  1  0  0  0  0
  6 23  1  0  0  0  0
  6 38  1  0  0  0  0
  7 23  1  0  0  0  0
  7 39  1  0  0  0  0
  7 40  1  0  0  0  0
  8  9  1  0  0  0  0
  8 27  1  0  0  0  0
  8 28  1  0  0  0  0
  9 11  2  0  0  0  0
  9 13  1  0  0  0  0
 10 17  2  0  0  0  0
 10 18  1  0  0  0  0
 11 12  1  0  0  0  0
 11 29  1  0  0  0  0
 12 14  2  0  0  0  0
 12 19  1  0  0  0  0
 13 16  2  0  0  0  0
 13 30  1  0  0  0  0
 14 16  1  0  0  0  0
 15 24  1  0  0  0  0
 15 31  1  0  0  0  0
 15 32  1  0  0  0  0
 16 33  1  0  0  0  0
 17 20  1  0  0  0  0
 17 34  1  0  0  0  0
 18 21  2  0  0  0  0
 18 35  1  0  0  0  0
 20 22  2  0  0  0  0
 20 36  1  0  0  0  0
 21 22  1  0  0  0  0
 21 37  1  0  0  0  0
 22 25  1  0  0  0  0
 24 26  3  0  0  0  0
 26 41  1  0  0  0  0
M  END
> <PUBCHEM_COMPOUND_CID>
135433961

> <PUBCHEM_CONFORMER_RMSD>
0.8

> <PUBCHEM_CONFORMER_DIVERSEORDER>
1
65
9
51
86
99
93
77
27
3
20
43
83
97
50
94
57
90
47
41
67
64
89
66
96
52
95
74
39
73
53
98
28
32
82
70
49
58
78
35
60
62
45
30
33
7
46
61
69
4
84
8
37
85
11
92
76
59
81
24
71
101
40
14
88
44
56
16
55
87
100
5
75
34
48
6
80
79
10
54
23
21
68
25
72
36
91
63
12
18
26
17
13
31
29
22
19
38
42
15
2

> <PUBCHEM_MMFF94_PARTIAL_CHARGES>
38
1 -0.57
10 0.1
11 -0.15
12 0.09
13 -0.15
14 0.18
15 0.57
16 -0.15
17 -0.15
18 -0.15
19 0.54
2 -0.65
20 -0.15
21 -0.15
22 0.09
23 0.56
24 -0.2
25 0.63
26 -0.18
29 0.15
3 -0.57
30 0.15
33 0.15
34 0.15
35 0.15
36 0.15
37 0.15
38 0.37
39 0.4
4 -0.84
40 0.4
41 0.18
42 0.5
5 -0.63
6 -0.49
7 -0.85
8 0.51
9 -0.14

> <PUBCHEM_EFFECTIVE_ROTOR_COUNT>
5

> <PUBCHEM_PHARMACOPHORE_FEATURES>
11
1 1 acceptor
1 2 acceptor
1 26 hydrophobe
1 3 acceptor
1 4 cation
1 6 donor
1 7 donor
3 2 3 25 anion
6 10 17 18 20 21 22 rings
6 5 6 12 14 19 23 rings
6 9 11 12 13 14 16 rings

> <PUBCHEM_HEAVY_ATOM_COUNT>
26

> <PUBCHEM_ATOM_DEF_STEREO_COUNT>
0

> <PUBCHEM_ATOM_UDEF_STEREO_COUNT>
0

> <PUBCHEM_BOND_DEF_STEREO_COUNT>
0

> <PUBCHEM_BOND_UDEF_STEREO_COUNT>
0

> <PUBCHEM_ISOTOPIC_ATOM_COUNT>
0

> <PUBCHEM_COMPONENT_COUNT>
1

> <PUBCHEM_CACTVS_TAUTO_COUNT>
-1

> <PUBCHEM_CONFORMER_ID>
08128EE900000001

> <PUBCHEM_MMFF94_ENERGY>
86.9292

> <PUBCHEM_FEATURE_SELFOVERLAP>
55.95

> <PUBCHEM_SHAPE_FINGERPRINT>
10165383 225 17541434293154747794
10498660 4 18340775947670397985
105312 117 18119257405100738164
12166972 35 18057318388380861723
12549972 3 17532113655708010842
12633257 1 15430595176953428085
12788726 201 17612042473739636626
13103583 49 10882218922131301085
13134695 92 18192438472315522950
13590594 115 17978515239177585712
14468879 13 18187370977582963513
15163728 17 18262524826461049916
16988056 13 18191863423275445580
17980427 23 18123437601990679874
1813 80 17840599097907856598
18335252 114 17977658720094717853
21304303 282 17626360670474491750
23559900 14 18058998489609261987
238 59 18342187656334084906
2838139 119 18194677292653734656
340366 18 17986664879534876183
376196 1 18262795306405827072
44317340 157 18410858725237178213
469060 322 17831873712773909027
474 4 18334287674015124825
484985 159 10085439172342011197
57724786 102 17822008739867421172
5969126 39 17763185740193036206
633830 44 18187921742977857795
6823239 73 16516271551106416934
7399639 24 17975436898499007874
7471813 234 17985829233554463002
9971528 1 18198899206877253922
9981440 41 18195804296345476354

> <PUBCHEM_SHAPE_MULTIPOLES>
497.54
10.44
4.19
1.82
9.02
0.49
-0.19
6.58
3.88
-8.24
0.87
1.05
-0.02
-0.1

> <PUBCHEM_SHAPE_SELFOVERLAP>
1084.746

> <PUBCHEM_SHAPE_VOLUME>
268

> <PUBCHEM_COORDINATE_TYPE>
2
5
10

$$$$
