135407139
  -OEChem-03292013293D

 34 35  0     0  0  0  0  0  0999 V2000
    0.9721   -0.1955   -1.2383 O   0  0  0  0  0  0  0  0  0  0  0  0
    3.6163    0.0522   -0.3570 O   0  0  0  0  0  0  0  0  0  0  0  0
   -4.6122    1.3430    1.6199 O   0  0  0  0  0  0  0  0  0  0  0  0
    5.1817   -1.2099    0.7722 O   0  0  0  0  0  0  0  0  0  0  0  0
   -1.1667    0.7206   -1.2360 N   0  0  0  0  0  0  0  0  0  0  0  0
   -2.4932    2.2346   -0.2613 N   0  0  0  0  0  0  0  0  0  0  0  0
   -2.0519   -1.3223   -0.2862 N   0  0  0  0  0  0  0  0  0  0  0  0
   -3.8650   -0.8294    1.2004 N   0  0  0  0  0  0  0  0  0  0  0  0
   -3.1783   -3.0518    0.8365 N   0  0  0  0  0  0  0  0  0  0  0  0
    6.0506    0.9764    2.1448 N   0  0  0  0  0  0  0  0  0  0  0  0
   -2.0249    0.0199   -0.4407 C   0  0  0  0  0  0  0  0  0  0  0  0
   -0.1186    0.1864   -2.0716 C   0  0  0  0  0  0  0  0  0  0  0  0
   -2.8232    0.9744    0.1417 C   0  0  0  0  0  0  0  0  0  0  0  0
   -1.4880    2.0486   -1.0943 C   0  0  0  0  0  0  0  0  0  0  0  0
    2.0529   -0.7210   -1.9969 C   0  0  0  0  0  0  0  0  0  0  0  0
   -3.8544    0.5649    1.0547 C   0  0  0  0  0  0  0  0  0  0  0  0
    3.1771   -1.1069   -1.0549 C   0  0  0  0  0  0  0  0  0  0  0  0
   -2.9877   -1.7258    0.5455 C   0  0  0  0  0  0  0  0  0  0  0  0
    4.6371   -0.1395    0.5383 C   0  0  0  0  0  0  0  0  0  0  0  0
    4.9761    1.1811    1.1833 C   0  0  0  0  0  0  0  0  0  0  0  0
   -0.5187   -0.6780   -2.6126 H   0  0  0  0  0  0  0  0  0  0  0  0
    0.1912    0.9602   -2.7824 H   0  0  0  0  0  0  0  0  0  0  0  0
   -0.9564    2.8304   -1.6196 H   0  0  0  0  0  0  0  0  0  0  0  0
    1.7191   -1.5992   -2.5603 H   0  0  0  0  0  0  0  0  0  0  0  0
    2.4019    0.0481   -2.6957 H   0  0  0  0  0  0  0  0  0  0  0  0
    4.0096   -1.5347   -1.6243 H   0  0  0  0  0  0  0  0  0  0  0  0
    2.8130   -1.8403   -0.3260 H   0  0  0  0  0  0  0  0  0  0  0  0
   -4.5588   -1.2276    1.8268 H   0  0  0  0  0  0  0  0  0  0  0  0
   -2.5986   -3.7701    0.4161 H   0  0  0  0  0  0  0  0  0  0  0  0
   -3.9025   -3.3536    1.4790 H   0  0  0  0  0  0  0  0  0  0  0  0
    4.0910    1.5748    1.6916 H   0  0  0  0  0  0  0  0  0  0  0  0
    5.3062    1.8797    0.4092 H   0  0  0  0  0  0  0  0  0  0  0  0
    5.7268    0.3677    2.8958 H   0  0  0  0  0  0  0  0  0  0  0  0
    6.2828    1.8662    2.5844 H   0  0  0  0  0  0  0  0  0  0  0  0
  1 12  1  0  0  0  0
  1 15  1  0  0  0  0
  2 17  1  0  0  0  0
  2 19  1  0  0  0  0
  3 16  2  0  0  0  0
  4 19  2  0  0  0  0
  5 11  1  0  0  0  0
  5 12  1  0  0  0  0
  5 14  1  0  0  0  0
  6 13  1  0  0  0  0
  6 14  2  0  0  0  0
  7 11  1  0  0  0  0
  7 18  2  0  0  0  0
  8 16  1  0  0  0  0
  8 18  1  0  0  0  0
  8 28  1  0  0  0  0
  9 18  1  0  0  0  0
  9 29  1  0  0  0  0
  9 30  1  0  0  0  0
 10 20  1  0  0  0  0
 10 33  1  0  0  0  0
 10 34  1  0  0  0  0
 11 13  2  0  0  0  0
 12 21  1  0  0  0  0
 12 22  1  0  0  0  0
 13 16  1  0  0  0  0
 14 23  1  0  0  0  0
 15 17  1  0  0  0  0
 15 24  1  0  0  0  0
 15 25  1  0  0  0  0
 17 26  1  0  0  0  0
 17 27  1  0  0  0  0
 19 20  1  0  0  0  0
 20 31  1  0  0  0  0
 20 32  1  0  0  0  0
M  END
> <PUBCHEM_COMPOUND_CID>
135407139

> <PUBCHEM_CONFORMER_RMSD>
0.8

> <PUBCHEM_CONFORMER_DIVERSEORDER>
1
30
132
93
52
19
153
185
133
13
188
26
75
64
143
66
130
141
189
120
126
127
16
179
107
135
84
20
27
36
73
60
183
14
31
59
87
67
68
165
50
169
22
6
186
142
187
103
54
63
88
170
41
83
182
44
112
172
162
35
94
23
164
65
46
49
42
121
45
86
102
9
12
39
108
115
58
21
77
176
166
136
18
173
97
3
111
71
7
149
92
181
146
98
80
89
155
79
190
74
24
10
57
78
37
72
118
85
38
110
167
100
40
125
69
4
158
56
2
61
138
15
122
96
140
174
8
34
180
104
119
161
116
168
156
28
43
33
55
117
177
51
147
178
95
151
171
11
82
17
5
152
137
192
101
53
29
175
134
139
129
99
25
144
91
163
150
76
47
70
124
154
160
191
145
114
113
157
48
81
32
123
62
148
131
184
159
106
128
109
105
90

> <PUBCHEM_MMFF94_PARTIAL_CHARGES>
26
1 -0.56
10 -0.99
11 -0.03
12 0.54
13 0.14
14 0.04
15 0.28
16 0.72
17 0.28
18 0.56
19 0.66
2 -0.43
20 0.33
23 0.15
28 0.37
29 0.4
3 -0.57
30 0.4
33 0.36
34 0.36
4 -0.57
5 0.05
6 -0.57
7 -0.58
8 -0.49
9 -0.85

> <PUBCHEM_EFFECTIVE_ROTOR_COUNT>
7

> <PUBCHEM_PHARMACOPHORE_FEATURES>
10
1 1 acceptor
1 10 cation
1 10 donor
1 3 acceptor
1 4 acceptor
1 8 donor
1 9 donor
3 5 6 14 cation
5 5 6 11 13 14 rings
6 7 8 11 13 16 18 rings

> <PUBCHEM_HEAVY_ATOM_COUNT>
20

> <PUBCHEM_ATOM_DEF_STEREO_COUNT>
0

> <PUBCHEM_ATOM_UDEF_STEREO_COUNT>
0

> <PUBCHEM_BOND_DEF_STEREO_COUNT>
0

> <PUBCHEM_BOND_UDEF_STEREO_COUNT>
0

> <PUBCHEM_ISOTOPIC_ATOM_COUNT>
0

> <PUBCHEM_COMPONENT_COUNT>
1

> <PUBCHEM_CACTVS_TAUTO_COUNT>
-1

> <PUBCHEM_CONFORMER_ID>
0812262300000001

> <PUBCHEM_MMFF94_ENERGY>
33.1299

> <PUBCHEM_FEATURE_SELFOVERLAP>
50.924

> <PUBCHEM_SHAPE_FINGERPRINT>
10319926 262 18410292467974426610
11370993 144 18202006473791688630
12363563 72 14201397162557466454
12523318 42 18260824912400904675
12633257 1 18409455794885354968
13583140 156 18263060185887375204
13828863 39 17845370128047715000
13887833 79 9367351448736158376
13994607 96 14620799331531928687
14081887 123 18408609140703432295
14123260 362 14476960082013918302
14178342 30 18114185168582242006
1420 369 16443069395913593818
14341114 328 18334017233099866060
14848178 5 13984928629243840144
15163728 17 12534249411252351465
15342168 16 16200153157764521284
15475509 35 16085071820393882585
17349148 13 16298107588284923522
17780758 139 17895746297688760904
17870717 6 8574713515702857753
17977361 122 17458071473246801995
19032999 76 17822844428512163930
19377110 9 17531533178562876724
20645477 70 13262688058161004502
20871999 31 9727630600920375446
21065199 12 18411697656598203198
21650355 55 18334301972151391325
23366157 5 17463437232035870421
23559900 14 18197243397841072614
23596394 208 10809344447405643124
27216 239 17846777390786955677
2838139 119 15838475263803134337
3459 110 17916299614058902474
351380 3 16298394535102755442
474 4 15051457050726083124
5924683 9 18412260670728564895
633830 44 15554455089446007532
7970288 3 14996002125539441000
85463 6 17313100860734344390

> <PUBCHEM_SHAPE_MULTIPOLES>
358.23
11.99
2.17
1.93
16.31
0.54
0.26
-1.23
-9.14
-2.15
-0.44
1.04
-0.19
1.69

> <PUBCHEM_SHAPE_SELFOVERLAP>
751.937

> <PUBCHEM_SHAPE_VOLUME>
200.7

> <PUBCHEM_COORDINATE_TYPE>
2
5
10

$$$$
