135433651
  -OEChem-03292013293D

 33 34  0     1  0  0  0  0  0999 V2000
    3.6411   -0.2451    0.1864 S   0  0  2  0  0  0  0  0  0  0  0  0
    1.7755   -2.6416    0.0105 O   0  0  0  0  0  0  0  0  0  0  0  0
    4.0483   -1.6161    0.6447 O   0  0  0  0  0  0  0  0  0  0  0  0
    1.9960    4.4280    0.3249 O   0  0  0  0  0  0  0  0  0  0  0  0
   -0.2303    0.9995    0.0923 N   0  0  0  0  0  0  0  0  0  0  0  0
   -2.9856   -1.1271    0.5073 N   0  0  0  0  0  0  0  0  0  0  0  0
    1.0991    3.3595    0.2449 N   0  0  0  0  0  0  0  0  0  0  0  0
    1.8441   -0.2420    0.1181 C   0  0  0  0  0  0  0  0  0  0  0  0
    1.1382   -1.4374    0.0389 C   0  0  0  0  0  0  0  0  0  0  0  0
   -0.8821   -0.1824    0.0159 C   0  0  0  0  0  0  0  0  0  0  0  0
    1.1194    0.9388    0.1415 C   0  0  0  0  0  0  0  0  0  0  0  0
   -0.2511   -1.4157   -0.0136 C   0  0  0  0  0  0  0  0  0  0  0  0
   -2.3212   -0.0822   -0.0355 C   0  0  0  0  0  0  0  0  0  0  0  0
   -2.9400    1.0179   -0.6070 C   0  0  0  0  0  0  0  0  0  0  0  0
    1.7654    2.2424    0.2226 C   0  0  0  0  0  0  0  0  0  0  0  0
    3.9414   -0.1670   -1.5986 C   0  0  0  0  0  0  0  0  0  0  0  0
   -4.3300    1.0478   -0.6224 C   0  0  0  0  0  0  0  0  0  0  0  0
   -4.3356   -1.0628    0.4741 C   0  0  0  0  0  0  0  0  0  0  0  0
   -5.0487   -0.0085   -0.0735 C   0  0  0  0  0  0  0  0  0  0  0  0
    0.9560   -3.8059   -0.0717 C   0  0  0  0  0  0  0  0  0  0  0  0
   -0.8607   -2.3073   -0.0901 H   0  0  0  0  0  0  0  0  0  0  0  0
   -2.3859    1.8415   -1.0456 H   0  0  0  0  0  0  0  0  0  0  0  0
    2.8655    2.2902    0.2686 H   0  0  0  0  0  0  0  0  0  0  0  0
    5.0196   -0.2134   -1.7692 H   0  0  0  0  0  0  0  0  0  0  0  0
    3.5551    0.7743   -1.9966 H   0  0  0  0  0  0  0  0  0  0  0  0
    3.4609   -1.0118   -2.0984 H   0  0  0  0  0  0  0  0  0  0  0  0
   -4.8526    1.8915   -1.0631 H   0  0  0  0  0  0  0  0  0  0  0  0
   -4.8489   -1.9112    0.9146 H   0  0  0  0  0  0  0  0  0  0  0  0
    1.6285   -4.6702   -0.0799 H   0  0  0  0  0  0  0  0  0  0  0  0
    0.3910   -3.8386   -1.0096 H   0  0  0  0  0  0  0  0  0  0  0  0
    0.3154   -3.9146    0.8103 H   0  0  0  0  0  0  0  0  0  0  0  0
   -6.1326   -0.0068   -0.0748 H   0  0  0  0  0  0  0  0  0  0  0  0
    1.3919    5.1896    0.3343 H   0  0  0  0  0  0  0  0  0  0  0  0
  1  3  2  0  0  0  0
  1  8  1  0  0  0  0
  1 16  1  0  0  0  0
  2  9  1  0  0  0  0
  2 20  1  0  0  0  0
  4  7  1  0  0  0  0
  4 33  1  0  0  0  0
  5 10  2  0  0  0  0
  5 11  1  0  0  0  0
  6 13  1  0  0  0  0
  6 18  2  0  0  0  0
  7 15  2  0  0  0  0
  8  9  1  0  0  0  0
  8 11  2  0  0  0  0
  9 12  2  0  0  0  0
 10 12  1  0  0  0  0
 10 13  1  0  0  0  0
 11 15  1  0  0  0  0
 12 21  1  0  0  0  0
 13 14  2  0  0  0  0
 14 17  1  0  0  0  0
 14 22  1  0  0  0  0
 15 23  1  0  0  0  0
 16 24  1  0  0  0  0
 16 25  1  0  0  0  0
 16 26  1  0  0  0  0
 17 19  2  0  0  0  0
 17 27  1  0  0  0  0
 18 19  1  0  0  0  0
 18 28  1  0  0  0  0
 19 32  1  0  0  0  0
 20 29  1  0  0  0  0
 20 30  1  0  0  0  0
 20 31  1  0  0  0  0
M  END
> <PUBCHEM_COMPOUND_CID>
135433651

> <PUBCHEM_CONFORMER_RMSD>
0.6

> <PUBCHEM_CONFORMER_DIVERSEORDER>
2
10
28
26
17
20
11
6
24
5
16
29
3
23
22
7
21
19
9
25
8
4
30
1
12
27
13
18
14
15

> <PUBCHEM_MMFF94_PARTIAL_CHARGES>
27
1 0.24
10 0.31
11 0.4
12 -0.15
13 0.31
14 -0.15
15 0.3
16 0.19
17 -0.15
18 0.16
19 -0.15
2 -0.36
20 0.28
21 0.15
22 0.15
23 0.06
27 0.15
28 0.15
3 -0.5
32 0.15
33 0.4
4 -0.34
5 -0.62
6 -0.62
7 -0.51
8 0.06
9 0.08

> <PUBCHEM_EFFECTIVE_ROTOR_COUNT>
4

> <PUBCHEM_PHARMACOPHORE_FEATURES>
8
1 2 acceptor
1 3 acceptor
1 4 anion
1 5 acceptor
1 6 acceptor
1 7 acceptor
6 5 8 9 10 11 12 rings
6 6 13 14 17 18 19 rings

> <PUBCHEM_HEAVY_ATOM_COUNT>
20

> <PUBCHEM_ATOM_DEF_STEREO_COUNT>
0

> <PUBCHEM_ATOM_UDEF_STEREO_COUNT>
1

> <PUBCHEM_BOND_DEF_STEREO_COUNT>
1

> <PUBCHEM_BOND_UDEF_STEREO_COUNT>
0

> <PUBCHEM_ISOTOPIC_ATOM_COUNT>
0

> <PUBCHEM_COMPONENT_COUNT>
1

> <PUBCHEM_CACTVS_TAUTO_COUNT>
-1

> <PUBCHEM_CONFORMER_ID>
08128DB300000002

> <PUBCHEM_MMFF94_ENERGY>
66.184

> <PUBCHEM_FEATURE_SELFOVERLAP>
40.618

> <PUBCHEM_SHAPE_FINGERPRINT>
10366900 7 18187370947755542779
10608611 8 18334851732492439333
10967382 1 18338795619843742402
1100329 8 18267301118215531472
11471102 20 18411133632454480383
116883 192 17548695184170757863
12403259 226 18334287674047098077
12553582 1 18267880392611774577
13140716 1 18265613375866330579
138480 1 18410853248268139809
14790565 3 18410864278155755460
14866123 147 16537635861457547899
15664445 248 18200328632206827012
1601671 61 18338518542955546012
16945 1 18412262826464160443
18186145 218 18271531991250472905
18785283 64 18263365952587591369
19591789 44 18266463298439120623
200 152 18130781257733001095
20645477 70 18336258020585645407
21267235 1 18338805498289940530
21421861 104 17609213455177939499
21709351 56 18341604945557596127
221490 88 18335988682970248635
22289505 5 18191576467872745605
2255824 54 18340767134375835629
23402539 116 18272640239221862070
23558518 356 17613994523015129290
23559900 14 18410001148811269993
266924 87 18123197797145059014
2748010 2 18120097439935716962
3060560 45 18342173371351849998
3286 77 18260543446145997375
350125 39 18193843875307394747
5104073 3 18335705000870757577
537710 114 18335144163650926494
633830 44 18200598115513501805
6443956 14 18410576141473174556
7364860 26 18410571816420047401
7495541 125 18260832626383792283
7808743 9 17328300754148599921
81228 2 17543635231670061410
9709674 26 18407761426572734779
9999458 23 18410576235888433487

> <PUBCHEM_SHAPE_MULTIPOLES>
382.89
8.32
3.77
0.82
7.21
1.96
0.22
-0.6
0.87
-3.55
-0.53
-0.4
0.01
0.52

> <PUBCHEM_SHAPE_SELFOVERLAP>
803.176

> <PUBCHEM_SHAPE_VOLUME>
220

> <PUBCHEM_COORDINATE_TYPE>
2
5
10

$$$$
