135402851
  -OEChem-03292013293D

 31 33  0     0  0  0  0  0  0999 V2000
   -3.5103   -1.0586    1.7169 N   0  0  0  0  0  0  0  0  0  0  0  0
    2.4131   -1.5751   -0.8186 N   0  0  0  0  0  0  0  0  0  0  0  0
    3.7221   -1.7880   -1.0355 N   0  0  0  0  0  0  0  0  0  0  0  0
    5.6351   -0.4634   -0.4753 N   0  0  0  0  0  0  0  0  0  0  0  0
    0.0758    2.4333    0.2180 N   0  0  0  0  0  0  0  0  0  0  0  0
    3.7633    2.4494    1.2384 N   0  0  0  0  0  0  0  0  0  0  0  0
   -2.5759   -0.2710   -0.1496 C   0  0  0  0  0  0  0  0  0  0  0  0
   -1.5769   -0.9104    0.6365 C   0  0  0  0  0  0  0  0  0  0  0  0
   -3.7793   -0.3781    0.5507 C   0  0  0  0  0  0  0  0  0  0  0  0
   -2.1819   -1.3844    1.7777 C   0  0  0  0  0  0  0  0  0  0  0  0
   -0.2034   -1.0581    0.3425 C   0  0  0  0  0  0  0  0  0  0  0  0
   -2.5718    0.3906   -1.3937 C   0  0  0  0  0  0  0  0  0  0  0  0
   -4.9837    0.1454    0.0673 C   0  0  0  0  0  0  0  0  0  0  0  0
    0.7377   -0.0689    0.1211 C   0  0  0  0  0  0  0  0  0  0  0  0
    2.1449   -0.4053   -0.1704 C   0  0  0  0  0  0  0  0  0  0  0  0
   -3.7690    0.9193   -1.8897 C   0  0  0  0  0  0  0  0  0  0  0  0
   -4.9552    0.7974   -1.1688 C   0  0  0  0  0  0  0  0  0  0  0  0
    3.3635    0.1880    0.0527 C   0  0  0  0  0  0  0  0  0  0  0  0
    4.2977   -0.7077   -0.5011 C   0  0  0  0  0  0  0  0  0  0  0  0
    0.3708    1.3117    0.1749 C   0  0  0  0  0  0  0  0  0  0  0  0
    3.5837    1.4340    0.7060 C   0  0  0  0  0  0  0  0  0  0  0  0
   -1.7913   -1.9243    2.6297 H   0  0  0  0  0  0  0  0  0  0  0  0
   -4.1950   -1.2844    2.4251 H   0  0  0  0  0  0  0  0  0  0  0  0
    0.1431   -2.0908    0.3590 H   0  0  0  0  0  0  0  0  0  0  0  0
   -1.6607    0.4894   -1.9767 H   0  0  0  0  0  0  0  0  0  0  0  0
   -5.9078    0.0509    0.6277 H   0  0  0  0  0  0  0  0  0  0  0  0
   -3.7723    1.4289   -2.8496 H   0  0  0  0  0  0  0  0  0  0  0  0
   -5.8738    1.2151   -1.5732 H   0  0  0  0  0  0  0  0  0  0  0  0
    1.7631   -2.2726   -1.1600 H   0  0  0  0  0  0  0  0  0  0  0  0
    6.0398    0.3702   -0.0600 H   0  0  0  0  0  0  0  0  0  0  0  0
    6.3044   -1.1129   -0.8764 H   0  0  0  0  0  0  0  0  0  0  0  0
  1  9  1  0  0  0  0
  1 10  1  0  0  0  0
  1 23  1  0  0  0  0
  2  3  1  0  0  0  0
  2 15  1  0  0  0  0
  2 29  1  0  0  0  0
  3 19  2  0  0  0  0
  4 19  1  0  0  0  0
  4 30  1  0  0  0  0
  4 31  1  0  0  0  0
  5 20  3  0  0  0  0
  6 21  3  0  0  0  0
  7  8  1  0  0  0  0
  7  9  1  0  0  0  0
  7 12  2  0  0  0  0
  8 10  2  0  0  0  0
  8 11  1  0  0  0  0
  9 13  2  0  0  0  0
 10 22  1  0  0  0  0
 11 14  2  0  0  0  0
 11 24  1  0  0  0  0
 12 16  1  0  0  0  0
 12 25  1  0  0  0  0
 13 17  1  0  0  0  0
 13 26  1  0  0  0  0
 14 15  1  0  0  0  0
 14 20  1  0  0  0  0
 15 18  2  0  0  0  0
 16 17  2  0  0  0  0
 16 27  1  0  0  0  0
 17 28  1  0  0  0  0
 18 19  1  0  0  0  0
 18 21  1  0  0  0  0
M  END
> <PUBCHEM_COMPOUND_CID>
135402851

> <PUBCHEM_CONFORMER_RMSD>
0.6

> <PUBCHEM_CONFORMER_DIVERSEORDER>
6
7
18
5
8
13
27
4
1
14
3
20
15
28
10
11
2
19
9
17
24
16
21
12
22
23
25
26

> <PUBCHEM_MMFF94_PARTIAL_CHARGES>
30
1 0.03
10 -0.3
11 -0.1
12 -0.15
13 -0.15
14 0.11
15 -0.2
16 -0.15
17 -0.15
18 0.02
19 0.37
2 0.3
20 0.49
21 0.54
22 0.15
23 0.27
24 0.15
25 0.15
26 0.15
27 0.15
28 0.15
29 0.27
3 -0.71
30 0.4
31 0.4
4 -0.88
5 -0.56
6 -0.56
8 -0.05
9 -0.15

> <PUBCHEM_EFFECTIVE_ROTOR_COUNT>
2

> <PUBCHEM_PHARMACOPHORE_FEATURES>
10
1 1 cation
1 1 donor
1 2 donor
1 4 donor
1 5 acceptor
1 6 acceptor
3 3 4 19 cation
5 1 7 8 9 10 rings
5 2 3 15 18 19 rings
6 7 9 12 13 16 17 rings

> <PUBCHEM_HEAVY_ATOM_COUNT>
21

> <PUBCHEM_ATOM_DEF_STEREO_COUNT>
0

> <PUBCHEM_ATOM_UDEF_STEREO_COUNT>
0

> <PUBCHEM_BOND_DEF_STEREO_COUNT>
1

> <PUBCHEM_BOND_UDEF_STEREO_COUNT>
0

> <PUBCHEM_ISOTOPIC_ATOM_COUNT>
0

> <PUBCHEM_COMPONENT_COUNT>
1

> <PUBCHEM_CACTVS_TAUTO_COUNT>
-1

> <PUBCHEM_CONFORMER_ID>
0812156300000006

> <PUBCHEM_MMFF94_ENERGY>
38.8159

> <PUBCHEM_FEATURE_SELFOVERLAP>
50.838

> <PUBCHEM_SHAPE_FINGERPRINT>
11595378 159 15285628894016087308
11796584 16 17676206841247112506
12107183 9 14545399041578003134
12236239 1 16630807703183740287
12390115 104 17750798728061572773
12403259 415 18334016120128011792
12616971 3 16988570112323096802
12788726 201 18264481785212573992
12969540 114 18337378392484586615
13134695 92 17988923396329343448
13675066 3 18261395593300791906
14251757 17 18261108556510472017
14386348 63 18335425664065196326
15375358 24 18408878564080992681
17357779 13 18341333305829366884
1813 80 17560256742484703172
18186145 218 18259988158261244787
200 152 17632576020078752450
20511986 3 16702006552828282297
20645477 56 17748827402043264143
20645477 70 18273497866580703614
21033648 29 18334288794838351056
21065201 7 17603589642270122714
221357 26 18340196411238971453
23175994 123 18410301298105362405
23402539 116 17846219916900914883
23557571 272 17894636954290085407
23559900 14 18040999514638212166
2838139 119 17916028946138385177
495365 180 18272922856527705938
5283173 99 18188204295443246852
573450 72 16153703249719610563
6034566 193 17549812730799467072
67856867 119 15410314659546796234
7471813 234 17060338501002409376

> <PUBCHEM_SHAPE_MULTIPOLES>
402.28
11.08
1.86
1.43
2.71
0.59
0
0.78
-2.03
0.71
0.48
-0.6
0.01
2.7

> <PUBCHEM_SHAPE_SELFOVERLAP>
894.672

> <PUBCHEM_SHAPE_VOLUME>
209.9

> <PUBCHEM_COORDINATE_TYPE>
2
5
10

$$$$
