135452425
  -OEChem-03292013293D

 26 27  0     0  0  0  0  0  0999 V2000
    5.9168   -0.4469    0.1477 O   0  0  0  0  0  0  0  0  0  0  0  0
   -4.5253   -2.0967   -0.4683 O   0  0  0  0  0  0  0  0  0  0  0  0
   -4.1810    0.1446   -0.0121 N   0  0  0  0  0  0  0  0  0  0  0  0
   -2.0105    1.0018    0.2874 N   0  0  0  0  0  0  0  0  0  0  0  0
    0.4695    0.5867   -0.2182 N   0  0  0  0  0  0  0  0  0  0  0  0
   -0.1693   -0.4251    0.1274 N   0  0  0  0  0  0  0  0  0  0  0  0
   -3.8756    2.4138    0.4454 N   0  0  0  0  0  0  0  0  0  0  0  0
    1.8476    0.3252   -0.1257 C   0  0  0  0  0  0  0  0  0  0  0  0
   -1.5284   -0.2705    0.0715 C   0  0  0  0  0  0  0  0  0  0  0  0
    2.3237   -0.5789    0.8238 C   0  0  0  0  0  0  0  0  0  0  0  0
    2.7389    0.9696   -0.9835 C   0  0  0  0  0  0  0  0  0  0  0  0
   -2.3099   -1.3342   -0.1825 C   0  0  0  0  0  0  0  0  0  0  0  0
   -3.3009    1.1864    0.2435 C   0  0  0  0  0  0  0  0  0  0  0  0
    4.5824   -0.1937    0.0580 C   0  0  0  0  0  0  0  0  0  0  0  0
   -3.7754   -1.1541   -0.2389 C   0  0  0  0  0  0  0  0  0  0  0  0
    3.6911   -0.8383    0.9158 C   0  0  0  0  0  0  0  0  0  0  0  0
    4.1064    0.7103   -0.8916 C   0  0  0  0  0  0  0  0  0  0  0  0
    1.6674   -1.0867    1.5261 H   0  0  0  0  0  0  0  0  0  0  0  0
    2.3765    1.6753   -1.7263 H   0  0  0  0  0  0  0  0  0  0  0  0
   -1.9084   -2.3272   -0.3491 H   0  0  0  0  0  0  0  0  0  0  0  0
   -5.1759    0.3477   -0.0343 H   0  0  0  0  0  0  0  0  0  0  0  0
    4.0570   -1.5399    1.6605 H   0  0  0  0  0  0  0  0  0  0  0  0
    4.7904    1.2189   -1.5656 H   0  0  0  0  0  0  0  0  0  0  0  0
   -3.3099    3.2331    0.6387 H   0  0  0  0  0  0  0  0  0  0  0  0
   -4.8812    2.5397    0.4078 H   0  0  0  0  0  0  0  0  0  0  0  0
    6.3838    0.0843   -0.5199 H   0  0  0  0  0  0  0  0  0  0  0  0
  1 14  1  0  0  0  0
  1 26  1  0  0  0  0
  2 15  2  0  0  0  0
  3 13  1  0  0  0  0
  3 15  1  0  0  0  0
  3 21  1  0  0  0  0
  4  9  1  0  0  0  0
  4 13  2  0  0  0  0
  5  6  2  0  0  0  0
  5  8  1  0  0  0  0
  6  9  1  0  0  0  0
  7 13  1  0  0  0  0
  7 24  1  0  0  0  0
  7 25  1  0  0  0  0
  8 10  2  0  0  0  0
  8 11  1  0  0  0  0
  9 12  2  0  0  0  0
 10 16  1  0  0  0  0
 10 18  1  0  0  0  0
 11 17  2  0  0  0  0
 11 19  1  0  0  0  0
 12 15  1  0  0  0  0
 12 20  1  0  0  0  0
 14 16  2  0  0  0  0
 14 17  1  0  0  0  0
 16 22  1  0  0  0  0
 17 23  1  0  0  0  0
M  END
> <PUBCHEM_COMPOUND_CID>
135452425

> <PUBCHEM_CONFORMER_RMSD>
0.6

> <PUBCHEM_CONFORMER_DIVERSEORDER>
1
3
2

> <PUBCHEM_MMFF94_PARTIAL_CHARGES>
26
1 -0.53
10 -0.15
11 -0.15
12 -0.14
13 0.56
14 0.08
15 0.62
16 -0.15
17 -0.15
18 0.15
19 0.15
2 -0.57
20 0.15
21 0.37
22 0.15
23 0.15
24 0.4
25 0.4
26 0.45
3 -0.49
4 -0.62
5 -0.18
6 -0.17
7 -0.85
8 0.18
9 0.34

> <PUBCHEM_EFFECTIVE_ROTOR_COUNT>
2

> <PUBCHEM_PHARMACOPHORE_FEATURES>
6
1 1 donor
1 2 acceptor
1 3 donor
1 7 donor
6 3 4 9 12 13 15 rings
6 8 10 11 14 16 17 rings

> <PUBCHEM_HEAVY_ATOM_COUNT>
17

> <PUBCHEM_ATOM_DEF_STEREO_COUNT>
0

> <PUBCHEM_ATOM_UDEF_STEREO_COUNT>
0

> <PUBCHEM_BOND_DEF_STEREO_COUNT>
0

> <PUBCHEM_BOND_UDEF_STEREO_COUNT>
0

> <PUBCHEM_ISOTOPIC_ATOM_COUNT>
0

> <PUBCHEM_COMPONENT_COUNT>
1

> <PUBCHEM_CACTVS_TAUTO_COUNT>
-1

> <PUBCHEM_CONFORMER_ID>
0812D70900000001

> <PUBCHEM_MMFF94_ENERGY>
46.0951

> <PUBCHEM_FEATURE_SELFOVERLAP>
30.49

> <PUBCHEM_SHAPE_FINGERPRINT>
10616163 171 18410013268629341051
10680689 15 18341900701089491187
10912923 1 18187363229535612768
11315181 36 18408039628388129240
11471102 20 17385443246017545236
12107183 9 17759235202627658722
12236239 1 18259985980749742364
12670546 56 18334572468927936100
13167823 11 18408603673405418582
13583140 156 17418083304585483358
13760787 5 17095529495962297532
17834072 33 18334576875722383972
17844677 252 18202006551095831984
18186145 218 16515405179294114296
19026448 5 18260830397126953896
19422 9 18333168370930245778
19489759 90 18201998819943384011
1986462 14 18343866623532213693
200 152 18260264182993203835
20279233 1 16702304550755132036
20281475 54 18261384529755304682
20300324 65 18411139173247018355
20612939 158 17385729136257650844
20645477 56 18271810069388392753
20645477 70 15719937069509322074
21033648 29 16271633508287349546
21065201 7 18201719531168505930
21267235 1 18335428983964276315
21426921 1 18341894091583247769
22646028 1 18334293188589680406
2297311 6 18060148655822298733
2306618 200 18060146427414754689
23402539 116 18411415107257163444
23402655 69 18040712533059721636
23532345 12 18408605868254941868
23557571 272 18060423503606507833
23559900 14 18269826661516571225
26918003 58 14979959189563761286
29717793 49 18409728465368870478
300161 21 18260541217042282704
34797466 226 17560251352860071556
4214541 1 18410855447296234805
474 4 17387982116971590836
4990 188 18272095980923616102
5104073 3 18334295383571482336
559249 180 18337668620678622498
573450 72 18410006620040254051
67856867 119 18264205988451660436
77779 3 18410576184464831056
9709674 26 18410019839981927998
9971528 1 17894630375181111252

> <PUBCHEM_SHAPE_MULTIPOLES>
313.21
11.61
1.64
0.83
4.1
0.27
-0.02
-1.17
-0.25
-2.42
0.02
0.48
0.02
-1.37

> <PUBCHEM_SHAPE_SELFOVERLAP>
677.051

> <PUBCHEM_SHAPE_VOLUME>
170.6

> <PUBCHEM_COORDINATE_TYPE>
2
5
10

$$$$
