135484455
  -OEChem-03292013293D

 43 45  0     1  0  0  0  0  0999 V2000
   -2.3621    0.3059   -1.0161 O   0  0  0  0  0  0  0  0  0  0  0  0
   -1.9537   -2.5441    1.1216 O   0  0  0  0  0  0  0  0  0  0  0  0
   -4.1037   -2.0772   -0.4900 O   0  0  0  0  0  0  0  0  0  0  0  0
   -3.7506    2.6544   -0.3649 O   0  0  0  0  0  0  0  0  0  0  0  0
   -0.8577    2.1267    0.4303 O   0  0  0  0  0  0  0  0  0  0  0  0
    4.2388    0.3569    0.6223 O   0  0  0  0  0  0  0  0  0  0  0  0
   -0.2557   -0.1208   -0.0964 N   0  0  0  0  0  0  0  0  0  0  0  0
    1.3817    1.3071    0.5034 N   0  0  0  0  0  0  0  0  0  0  0  0
    1.1219   -2.1032   -0.4497 N   0  0  0  0  0  0  0  0  0  0  0  0
    3.4281   -1.7161   -0.0429 N   0  0  0  0  0  0  0  0  0  0  0  0
    2.6834   -3.8360   -0.7120 N   0  0  0  0  0  0  0  0  0  0  0  0
   -1.5280   -0.7008   -0.4199 C   0  0  1  0  0  0  0  0  0  0  0  0
   -2.2666   -1.2022    0.8091 C   0  0  1  0  0  0  0  0  0  0  0  0
   -3.7135   -1.0301    0.3981 C   0  0  1  0  0  0  0  0  0  0  0  0
   -3.6669    0.2671   -0.3978 C   0  0  1  0  0  0  0  0  0  0  0  0
    0.9521   -0.7900   -0.1182 C   0  0  0  0  0  0  0  0  0  0  0  0
   -3.8186    1.5105    0.4683 C   0  0  0  0  0  0  0  0  0  0  0  0
   -0.0316    1.2358    0.2986 C   0  0  0  0  0  0  0  0  0  0  0  0
    1.9143    0.0705    0.2400 C   0  0  0  0  0  0  0  0  0  0  0  0
    2.1077    2.4810    0.9152 C   0  0  0  0  0  0  0  0  0  0  0  0
    3.3094   -0.3725    0.3037 C   0  0  0  0  0  0  0  0  0  0  0  0
    2.8668    3.1281   -0.2369 C   0  0  0  0  0  0  0  0  0  0  0  0
    2.3553   -2.5410   -0.4060 C   0  0  0  0  0  0  0  0  0  0  0  0
    1.9491    3.5900   -1.3600 C   0  0  0  0  0  0  0  0  0  0  0  0
   -1.3838   -1.4938   -1.1635 H   0  0  0  0  0  0  0  0  0  0  0  0
   -2.0436   -0.5799    1.6844 H   0  0  0  0  0  0  0  0  0  0  0  0
   -4.4091   -1.0261    1.2421 H   0  0  0  0  0  0  0  0  0  0  0  0
   -4.4006    0.2877   -1.2115 H   0  0  0  0  0  0  0  0  0  0  0  0
   -3.0477    1.5862    1.2379 H   0  0  0  0  0  0  0  0  0  0  0  0
   -4.7957    1.5065    0.9628 H   0  0  0  0  0  0  0  0  0  0  0  0
   -2.5428   -2.8207    1.8441 H   0  0  0  0  0  0  0  0  0  0  0  0
    2.7920    2.2092    1.7263 H   0  0  0  0  0  0  0  0  0  0  0  0
    1.3929    3.2018    1.3293 H   0  0  0  0  0  0  0  0  0  0  0  0
   -5.0231   -1.9050   -0.7561 H   0  0  0  0  0  0  0  0  0  0  0  0
    3.4155    3.9953    0.1489 H   0  0  0  0  0  0  0  0  0  0  0  0
    3.6115    2.4447   -0.6563 H   0  0  0  0  0  0  0  0  0  0  0  0
   -3.8642    3.4327    0.2069 H   0  0  0  0  0  0  0  0  0  0  0  0
    4.3577   -2.1254   -0.0314 H   0  0  0  0  0  0  0  0  0  0  0  0
    1.4607    2.7448   -1.8543 H   0  0  0  0  0  0  0  0  0  0  0  0
    1.1752    4.2664   -0.9834 H   0  0  0  0  0  0  0  0  0  0  0  0
    2.5270    4.1277   -2.1186 H   0  0  0  0  0  0  0  0  0  0  0  0
    1.9736   -4.5067   -0.9858 H   0  0  0  0  0  0  0  0  0  0  0  0
    3.6430   -4.1617   -0.6740 H   0  0  0  0  0  0  0  0  0  0  0  0
  1 12  1  0  0  0  0
  1 15  1  0  0  0  0
  2 13  1  0  0  0  0
  2 31  1  0  0  0  0
  3 14  1  0  0  0  0
  3 34  1  0  0  0  0
  4 17  1  0  0  0  0
  4 37  1  0  0  0  0
  5 18  2  0  0  0  0
  6 21  2  0  0  0  0
  7 12  1  0  0  0  0
  7 16  1  0  0  0  0
  7 18  1  0  0  0  0
  8 18  1  0  0  0  0
  8 19  1  0  0  0  0
  8 20  1  0  0  0  0
  9 16  1  0  0  0  0
  9 23  2  0  0  0  0
 10 21  1  0  0  0  0
 10 23  1  0  0  0  0
 10 38  1  0  0  0  0
 11 23  1  0  0  0  0
 11 42  1  0  0  0  0
 11 43  1  0  0  0  0
 12 13  1  0  0  0  0
 12 25  1  0  0  0  0
 13 14  1  0  0  0  0
 13 26  1  0  0  0  0
 14 15  1  0  0  0  0
 14 27  1  0  0  0  0
 15 17  1  0  0  0  0
 15 28  1  0  0  0  0
 16 19  2  0  0  0  0
 17 29  1  0  0  0  0
 17 30  1  0  0  0  0
 19 21  1  0  0  0  0
 20 22  1  0  0  0  0
 20 32  1  0  0  0  0
 20 33  1  0  0  0  0
 22 24  1  0  0  0  0
 22 35  1  0  0  0  0
 22 36  1  0  0  0  0
 24 39  1  0  0  0  0
 24 40  1  0  0  0  0
 24 41  1  0  0  0  0
M  END
> <PUBCHEM_COMPOUND_CID>
135484455

> <PUBCHEM_CONFORMER_RMSD>
0.8

> <PUBCHEM_CONFORMER_DIVERSEORDER>
1
27
26
28
24
7
11
30
10
22
2
17
8
5
23
29
12
3
16
21
18
9
13
25
4
14
19
20
6
15

> <PUBCHEM_MMFF94_PARTIAL_CHARGES>
28
1 -0.56
10 -0.49
11 -0.85
12 0.58
13 0.28
14 0.28
15 0.28
16 0.28
17 0.28
18 0.69
19 0.12
2 -0.68
20 0.3
21 0.62
23 0.56
3 -0.68
31 0.4
34 0.4
37 0.4
38 0.37
4 -0.68
42 0.4
43 0.4
5 -0.57
6 -0.57
7 -0.47
8 -0.47
9 -0.62

> <PUBCHEM_EFFECTIVE_ROTOR_COUNT>
5

> <PUBCHEM_PHARMACOPHORE_FEATURES>
15
1 1 acceptor
1 10 donor
1 11 donor
1 2 acceptor
1 2 donor
1 24 hydrophobe
1 3 acceptor
1 3 donor
1 4 acceptor
1 4 donor
1 5 acceptor
1 6 acceptor
5 1 12 13 14 15 rings
5 7 8 16 18 19 rings
6 9 10 16 19 21 23 rings

> <PUBCHEM_HEAVY_ATOM_COUNT>
24

> <PUBCHEM_ATOM_DEF_STEREO_COUNT>
4

> <PUBCHEM_ATOM_UDEF_STEREO_COUNT>
0

> <PUBCHEM_BOND_DEF_STEREO_COUNT>
0

> <PUBCHEM_BOND_UDEF_STEREO_COUNT>
0

> <PUBCHEM_ISOTOPIC_ATOM_COUNT>
0

> <PUBCHEM_COMPONENT_COUNT>
1

> <PUBCHEM_CACTVS_TAUTO_COUNT>
-1

> <PUBCHEM_CONFORMER_ID>
0813542700000001

> <PUBCHEM_MMFF94_ENERGY>
69.0059

> <PUBCHEM_FEATURE_SELFOVERLAP>
76.301

> <PUBCHEM_SHAPE_FINGERPRINT>
10608611 8 18410007758502070873
10616163 171 18193277618308101425
10967382 1 18413105087041881698
1100329 8 15599483002159029883
11680986 33 18269836423818784440
116883 192 17910394983462458326
12403260 363 18338222877575941323
12553582 1 18053119323605033090
12633257 1 18187914054379775672
12788726 201 17615133178949045690
13140716 1 18125150782961773714
14022347 108 18047761390489160298
14223421 5 18337397148749004331
14790565 3 18339928246424270848
14866123 147 16757477739126020283
15042514 8 17403744345946505434
15196674 1 18341048523485128274
15442244 35 18198906907420702081
15927050 60 15599501376535277629
1601671 61 18410293588887070372
16945 1 18412269432429667426
17492 89 18342173371605655039
18785283 64 18262530289311478985
19049666 15 18409450276126582475
19591789 44 17256816014273462616
20645477 70 18336818818401846231
21501502 16 18411139181868887345
221490 88 18410860953475814034
2255824 54 18338237175764376988
2334 1 17908418409474487250
23366157 5 18260550034488653198
23419403 2 17123912117085937744
23558518 356 18260548974191062977
23559900 14 18412537700102368168
2748010 2 18194962078864756602
335352 9 18052820247830595101
350125 39 18338238292034244520
394222 165 17898564543501803040
4409770 3 17393585996893858372
458136 41 18122926457589390768
5104073 3 18341327799428099722
6287921 2 18188781659443836485
7364860 26 18411982498576092124
81228 2 17623022196241781362
8809292 202 18336829684674263099
9709674 26 18410295813300594451

> <PUBCHEM_SHAPE_MULTIPOLES>
433.79
7.5
4.22
0.93
3.97
0.27
0.05
0.08
-0.09
-3.05
0.95
-0.04
0.21
0.34

> <PUBCHEM_SHAPE_SELFOVERLAP>
929.939

> <PUBCHEM_SHAPE_VOLUME>
236.7

> <PUBCHEM_COORDINATE_TYPE>
2
5
10

$$$$
