135406950
  -OEChem-03292013293D

 36 38  0     1  0  0  0  0  0999 V2000
    2.1273    0.7656    1.0854 O   0  0  0  0  0  0  0  0  0  0  0  0
    1.2335   -2.1521   -0.8298 O   0  0  0  0  0  0  0  0  0  0  0  0
    3.4058   -1.9710    0.8499 O   0  0  0  0  0  0  0  0  0  0  0  0
    4.0120    2.7036    0.3483 O   0  0  0  0  0  0  0  0  0  0  0  0
   -4.3821    1.8128   -0.7216 O   0  0  0  0  0  0  0  0  0  0  0  0
   -0.1299    0.5766    0.1762 N   0  0  0  0  0  0  0  0  0  0  0  0
   -1.4430    2.2207   -0.5818 N   0  0  0  0  0  0  0  0  0  0  0  0
   -1.7827   -1.1249    0.6586 N   0  0  0  0  0  0  0  0  0  0  0  0
   -3.9782   -0.3228    0.1327 N   0  0  0  0  0  0  0  0  0  0  0  0
   -3.6640   -2.4927    0.9906 N   0  0  0  0  0  0  0  0  0  0  0  0
    1.7962   -0.8788   -0.5843 C   0  0  1  0  0  0  0  0  0  0  0  0
    1.1326   -0.1481    0.5785 C   0  0  1  0  0  0  0  0  0  0  0  0
    3.2405   -0.9468   -0.1297 C   0  0  1  0  0  0  0  0  0  0  0  0
    3.4231    0.3985    0.5614 C   0  0  1  0  0  0  0  0  0  0  0  0
    3.8835    1.4984   -0.3853 C   0  0  0  0  0  0  0  0  0  0  0  0
   -1.4067    0.1002    0.2296 C   0  0  0  0  0  0  0  0  0  0  0  0
   -0.2035    1.8558   -0.3185 C   0  0  0  0  0  0  0  0  0  0  0  0
   -2.1860    1.1293   -0.2407 C   0  0  0  0  0  0  0  0  0  0  0  0
    1.6146   -2.6632   -2.1032 C   0  0  0  0  0  0  0  0  0  0  0  0
   -3.6099    0.9531   -0.3164 C   0  0  0  0  0  0  0  0  0  0  0  0
   -3.0831   -1.3141    0.6001 C   0  0  0  0  0  0  0  0  0  0  0  0
    1.7184   -0.2551   -1.4860 H   0  0  0  0  0  0  0  0  0  0  0  0
    0.8369   -0.8230    1.3906 H   0  0  0  0  0  0  0  0  0  0  0  0
    3.9503   -1.1373   -0.9396 H   0  0  0  0  0  0  0  0  0  0  0  0
    4.1023    0.3398    1.4195 H   0  0  0  0  0  0  0  0  0  0  0  0
    4.8534    1.2515   -0.8280 H   0  0  0  0  0  0  0  0  0  0  0  0
    3.1561    1.6734   -1.1840 H   0  0  0  0  0  0  0  0  0  0  0  0
    4.3348   -1.9517    1.1368 H   0  0  0  0  0  0  0  0  0  0  0  0
    0.6737    2.4703   -0.4681 H   0  0  0  0  0  0  0  0  0  0  0  0
    1.1403   -3.6399   -2.2325 H   0  0  0  0  0  0  0  0  0  0  0  0
    2.6984   -2.7961   -2.1640 H   0  0  0  0  0  0  0  0  0  0  0  0
    1.2670   -2.0024   -2.9033 H   0  0  0  0  0  0  0  0  0  0  0  0
    4.3091    3.3884   -0.2748 H   0  0  0  0  0  0  0  0  0  0  0  0
   -4.9676   -0.5537    0.1213 H   0  0  0  0  0  0  0  0  0  0  0  0
   -3.1046   -3.2632    1.3400 H   0  0  0  0  0  0  0  0  0  0  0  0
   -4.6677   -2.6295    0.9418 H   0  0  0  0  0  0  0  0  0  0  0  0
  1 12  1  0  0  0  0
  1 14  1  0  0  0  0
  2 11  1  0  0  0  0
  2 19  1  0  0  0  0
  3 13  1  0  0  0  0
  3 28  1  0  0  0  0
  4 15  1  0  0  0  0
  4 33  1  0  0  0  0
  5 20  2  0  0  0  0
  6 12  1  0  0  0  0
  6 16  1  0  0  0  0
  6 17  1  0  0  0  0
  7 17  2  0  0  0  0
  7 18  1  0  0  0  0
  8 16  1  0  0  0  0
  8 21  2  0  0  0  0
  9 20  1  0  0  0  0
  9 21  1  0  0  0  0
  9 34  1  0  0  0  0
 10 21  1  0  0  0  0
 10 35  1  0  0  0  0
 10 36  1  0  0  0  0
 11 12  1  0  0  0  0
 11 13  1  0  0  0  0
 11 22  1  0  0  0  0
 12 23  1  0  0  0  0
 13 14  1  0  0  0  0
 13 24  1  0  0  0  0
 14 15  1  0  0  0  0
 14 25  1  0  0  0  0
 15 26  1  0  0  0  0
 15 27  1  0  0  0  0
 16 18  2  0  0  0  0
 17 29  1  0  0  0  0
 18 20  1  0  0  0  0
 19 30  1  0  0  0  0
 19 31  1  0  0  0  0
 19 32  1  0  0  0  0
M  END
> <PUBCHEM_COMPOUND_CID>
135406950

> <PUBCHEM_CONFORMER_RMSD>
0.6

> <PUBCHEM_CONFORMER_DIVERSEORDER>
1
17
15
20
25
7
30
5
29
23
13
4
11
18
21
6
8
26
28
14
31
19
9
22
24
10
2
12
3
16
27

> <PUBCHEM_MMFF94_PARTIAL_CHARGES>
27
1 -0.56
10 -0.85
11 0.28
12 0.54
13 0.28
14 0.28
15 0.28
16 -0.03
17 0.04
18 0.14
19 0.28
2 -0.56
20 0.72
21 0.56
28 0.4
29 0.15
3 -0.68
33 0.4
34 0.37
35 0.4
36 0.4
4 -0.68
5 -0.57
6 0.05
7 -0.57
8 -0.58
9 -0.49

> <PUBCHEM_EFFECTIVE_ROTOR_COUNT>
4

> <PUBCHEM_PHARMACOPHORE_FEATURES>
13
1 1 acceptor
1 10 donor
1 2 acceptor
1 3 acceptor
1 3 donor
1 4 acceptor
1 4 donor
1 5 acceptor
1 9 donor
3 6 7 17 cation
5 1 11 12 13 14 rings
5 6 7 16 17 18 rings
6 8 9 16 18 20 21 rings

> <PUBCHEM_HEAVY_ATOM_COUNT>
21

> <PUBCHEM_ATOM_DEF_STEREO_COUNT>
4

> <PUBCHEM_ATOM_UDEF_STEREO_COUNT>
0

> <PUBCHEM_BOND_DEF_STEREO_COUNT>
0

> <PUBCHEM_BOND_UDEF_STEREO_COUNT>
0

> <PUBCHEM_ISOTOPIC_ATOM_COUNT>
0

> <PUBCHEM_COMPONENT_COUNT>
1

> <PUBCHEM_CACTVS_TAUTO_COUNT>
-1

> <PUBCHEM_CONFORMER_ID>
0812256600000001

> <PUBCHEM_MMFF94_ENERGY>
54.053

> <PUBCHEM_FEATURE_SELFOVERLAP>
66.161

> <PUBCHEM_SHAPE_FINGERPRINT>
10366900 7 17988918951254210001
10608611 8 18409163277479180480
10616163 171 18410576214244772063
10759866 29 18260834804354418790
10871710 139 17186160310973638308
11405975 8 18334856074055328232
12633257 1 18266742372396835202
13140716 1 18336835199512446235
13224815 77 18342462538424739134
13296908 3 18334576845425614835
13544592 145 18124041126578877599
15196674 1 18335419067190465665
15219456 202 18411981351476763913
15375358 24 18410007711273202933
15375462 6 18335138709084580480
15635459 17 18342745065906340447
17980427 23 17749671921252051132
18186145 218 17313378998315802321
200 152 17417236642204158837
20645477 70 18201152157208859487
221490 88 18409454670004752738
23402539 116 18260538996512503270
23557571 272 18261688033371207271
23559900 14 18336821984066855290
2748010 2 18339092514196300343
3060560 45 18202284676472630316
495365 180 17773854480950431113
5104073 3 18335138691493547921
58051976 378 18340484474320577700
633830 44 18051965927808139829
81228 2 18117013104030913145
9709674 26 18268994193796444807
9925002 15 17333084733719513540

> <PUBCHEM_SHAPE_MULTIPOLES>
377.92
8.07
2.88
1.11
1.82
0.5
-0.32
-1.31
0.66
-0.76
-0.67
-0.33
0.7
1.54

> <PUBCHEM_SHAPE_SELFOVERLAP>
814.559

> <PUBCHEM_SHAPE_VOLUME>
208

> <PUBCHEM_COORDINATE_TYPE>
2
5
10

$$$$
