135412158
  -OEChem-03292013293D

 35 36  0     0  0  0  0  0  0999 V2000
   -3.7493   -1.5132   -0.0034 S   0  0  0  0  0  0  0  0  0  0  0  0
    5.7010   -1.5250    0.0013 O   0  0  0  0  0  0  0  0  0  0  0  0
    6.4019    1.1651   -0.0221 O   0  0  0  0  0  0  0  0  0  0  0  0
   -2.2292    2.0778    0.0100 O   0  0  0  0  0  0  0  0  0  0  0  0
   -5.9476   -0.1532   -0.0100 N   0  0  0  0  0  0  0  0  0  0  0  0
   -1.2125   -0.0020    0.0200 N   0  0  0  0  0  0  0  0  0  0  0  0
    0.0304    0.5355    0.0117 N   0  0  0  0  0  0  0  0  0  0  0  0
   -6.2186   -2.5017   -0.0219 N   0  0  0  0  0  0  0  0  0  0  0  0
    2.4024    0.0502    0.0045 C   0  0  0  0  0  0  0  0  0  0  0  0
   -3.6344    0.1979    0.0046 C   0  0  0  0  0  0  0  0  0  0  0  0
   -4.8996    0.7466   -0.0003 C   0  0  0  0  0  0  0  0  0  0  0  0
    4.7404   -0.5592   -0.0011 C   0  0  0  0  0  0  0  0  0  0  0  0
    3.3955   -0.9293    0.0076 C   0  0  0  0  0  0  0  0  0  0  0  0
    2.7541    1.3999   -0.0071 C   0  0  0  0  0  0  0  0  0  0  0  0
    5.0921    0.7906   -0.0127 C   0  0  0  0  0  0  0  0  0  0  0  0
    4.0989    1.7701   -0.0156 C   0  0  0  0  0  0  0  0  0  0  0  0
   -2.2999    0.8514    0.0184 C   0  0  0  0  0  0  0  0  0  0  0  0
   -5.2235    2.1883    0.0012 C   0  0  0  0  0  0  0  0  0  0  0  0
   -5.4596   -1.3737   -0.0125 C   0  0  0  0  0  0  0  0  0  0  0  0
    1.0003   -0.3357    0.0139 C   0  0  0  0  0  0  0  0  0  0  0  0
    5.2569   -2.8804    0.0134 C   0  0  0  0  0  0  0  0  0  0  0  0
    3.0647   -1.9626    0.0168 H   0  0  0  0  0  0  0  0  0  0  0  0
    2.0023    2.1846   -0.0097 H   0  0  0  0  0  0  0  0  0  0  0  0
    4.3592    2.8252   -0.0246 H   0  0  0  0  0  0  0  0  0  0  0  0
   -4.8129    2.6798   -0.8864 H   0  0  0  0  0  0  0  0  0  0  0  0
   -6.3068    2.3480   -0.0018 H   0  0  0  0  0  0  0  0  0  0  0  0
   -4.8185    2.6768    0.8931 H   0  0  0  0  0  0  0  0  0  0  0  0
    0.7824   -1.4201    0.0227 H   0  0  0  0  0  0  0  0  0  0  0  0
   -1.3024   -1.0133    0.0218 H   0  0  0  0  0  0  0  0  0  0  0  0
   -7.2325   -2.4635   -0.0277 H   0  0  0  0  0  0  0  0  0  0  0  0
   -5.8013   -3.4267   -0.0237 H   0  0  0  0  0  0  0  0  0  0  0  0
    4.6941   -3.1293   -0.8927 H   0  0  0  0  0  0  0  0  0  0  0  0
    4.7025   -3.1159    0.9283 H   0  0  0  0  0  0  0  0  0  0  0  0
    6.1516   -3.5119    0.0139 H   0  0  0  0  0  0  0  0  0  0  0  0
    6.4536    2.1363   -0.0297 H   0  0  0  0  0  0  0  0  0  0  0  0
  1 10  1  0  0  0  0
  1 19  1  0  0  0  0
  2 12  1  0  0  0  0
  2 21  1  0  0  0  0
  3 15  1  0  0  0  0
  3 35  1  0  0  0  0
  4 17  2  0  0  0  0
  5 11  1  0  0  0  0
  5 19  2  0  0  0  0
  6  7  1  0  0  0  0
  6 17  1  0  0  0  0
  6 29  1  0  0  0  0
  7 20  2  0  0  0  0
  8 19  1  0  0  0  0
  8 30  1  0  0  0  0
  8 31  1  0  0  0  0
  9 13  2  0  0  0  0
  9 14  1  0  0  0  0
  9 20  1  0  0  0  0
 10 11  2  0  0  0  0
 10 17  1  0  0  0  0
 11 18  1  0  0  0  0
 12 13  1  0  0  0  0
 12 15  2  0  0  0  0
 13 22  1  0  0  0  0
 14 16  2  0  0  0  0
 14 23  1  0  0  0  0
 15 16  1  0  0  0  0
 16 24  1  0  0  0  0
 18 25  1  0  0  0  0
 18 26  1  0  0  0  0
 18 27  1  0  0  0  0
 20 28  1  0  0  0  0
 21 32  1  0  0  0  0
 21 33  1  0  0  0  0
 21 34  1  0  0  0  0
M  END
> <PUBCHEM_COMPOUND_CID>
135412158

> <PUBCHEM_CONFORMER_RMSD>
0.8

> <PUBCHEM_CONFORMER_DIVERSEORDER>
2
15
9
14
13
7
12
3
10
8
6
11
4
1
5

> <PUBCHEM_MMFF94_PARTIAL_CHARGES>
29
1 -0.08
10 -0.05
11 0.05
12 0.08
13 -0.15
14 -0.15
15 0.08
16 -0.15
17 0.71
18 0.18
19 0.46
2 -0.36
20 0.3
21 0.28
22 0.15
23 0.15
24 0.15
28 0.06
29 0.37
3 -0.53
30 0.4
31 0.4
35 0.45
4 -0.57
5 -0.57
6 -0.37
7 -0.51
8 -0.88
9 0.09

> <PUBCHEM_EFFECTIVE_ROTOR_COUNT>
5

> <PUBCHEM_PHARMACOPHORE_FEATURES>
9
1 2 acceptor
1 3 donor
1 4 acceptor
1 6 donor
1 7 acceptor
1 8 donor
3 5 8 19 cation
5 1 5 10 11 19 rings
6 9 12 13 14 15 16 rings

> <PUBCHEM_HEAVY_ATOM_COUNT>
21

> <PUBCHEM_ATOM_DEF_STEREO_COUNT>
0

> <PUBCHEM_ATOM_UDEF_STEREO_COUNT>
0

> <PUBCHEM_BOND_DEF_STEREO_COUNT>
1

> <PUBCHEM_BOND_UDEF_STEREO_COUNT>
0

> <PUBCHEM_ISOTOPIC_ATOM_COUNT>
0

> <PUBCHEM_COMPONENT_COUNT>
1

> <PUBCHEM_CACTVS_TAUTO_COUNT>
-1

> <PUBCHEM_CONFORMER_ID>
081239BE00000002

> <PUBCHEM_MMFF94_ENERGY>
53.287

> <PUBCHEM_FEATURE_SELFOVERLAP>
45.677

> <PUBCHEM_SHAPE_FINGERPRINT>
10595046 47 18410576214271483552
11287383 113 18411982476789941384
11315181 36 18341615940958846649
11524674 6 16487257699198921431
12107183 9 17762338007150714072
12166972 35 18334299794091853813
12236239 1 18410575076078594480
12596602 18 18412544301519862824
13073987 5 18342175565921752640
13167823 11 18410290306909531523
13288520 33 18411701002625451581
13533116 47 18412544302031734498
1420 363 18113623404123988779
14251732 16 18340768229819492400
14251764 18 18186799193514699696
14341114 176 18409733937004243772
14461889 52 18337949121172180138
14933364 13 18411421713043620852
15183329 4 18408885105268926203
15196674 1 18410573980867039841
15880784 105 18411704283373837179
17834072 33 18410855473023619680
17844677 252 18411706486676690065
17857418 61 18411136926657674538
18222031 100 16877943841148339404
18335252 98 18336833094709543122
19427546 62 18190744327261112720
19489759 90 17822007627718434473
200 152 18272369780508945105
20028762 73 18340765953872791850
20645477 70 18410575042626353862
21130935 74 18343301444496579962
21236236 1 18412263943994187097
21267235 1 18411426106668284814
220451 1 18341341045080515081
23081809 10 17967536761487092228
23402539 116 18408319982489204061
23522609 53 18122658060789168128
23536379 177 18411419496734767441
23559900 14 18339634638185697377
3004659 81 18335140856826938250
314173 85 16660363675339736149
3545911 37 18411138060929895804
4073 2 18113905995861067298
4214541 1 18410855439207531553
4325135 7 18409730702740785421
465052 167 18273217470068071862
5104073 3 18273495654324166233
542803 24 17385727993047510261
559249 180 18410008793963832951
67856867 119 18262241148029544733
7495541 125 17846493763963103608
9971528 1 17894633660387981116
9996256 80 18410292510180015235

> <PUBCHEM_SHAPE_MULTIPOLES>
398.49
18.58
2.49
0.59
1.7
0.88
0
4.67
-0.1
0.08
0
0.01
0.01
-0.05

> <PUBCHEM_SHAPE_SELFOVERLAP>
834.269

> <PUBCHEM_SHAPE_VOLUME>
226.8

> <PUBCHEM_COORDINATE_TYPE>
2
5
10

$$$$
