135449095
  -OEChem-03292013293D

 29 31  0     0  0  0  0  0  0999 V2000
    2.2831    2.6371    0.0014 O   0  0  0  0  0  0  0  0  0  0  0  0
    2.3158   -2.8820   -0.0010 O   0  0  0  0  0  0  0  0  0  0  0  0
   -0.2908    2.5404   -0.0024 O   0  0  0  0  0  0  0  0  0  0  0  0
   -0.2739   -2.8043    0.0007 O   0  0  0  0  0  0  0  0  0  0  0  0
    4.6286    1.2467    0.0001 O   0  0  0  0  0  0  0  0  0  0  0  0
   -3.9310   -0.8675    0.0001 N   0  0  0  0  0  0  0  0  0  0  0  0
    1.0210    0.5708   -0.0003 C   0  0  0  0  0  0  0  0  0  0  0  0
    1.0267   -0.8267   -0.0003 C   0  0  0  0  0  0  0  0  0  0  0  0
   -1.5241    0.5607   -0.0005 C   0  0  0  0  0  0  0  0  0  0  0  0
   -1.5128   -0.8306   -0.0004 C   0  0  0  0  0  0  0  0  0  0  0  0
   -0.2557    1.3164   -0.0010 C   0  0  0  0  0  0  0  0  0  0  0  0
   -0.2443   -1.5803   -0.0004 C   0  0  0  0  0  0  0  0  0  0  0  0
    2.2318    1.2734    0.0003 C   0  0  0  0  0  0  0  0  0  0  0  0
    2.2422   -1.5207    0.0002 C   0  0  0  0  0  0  0  0  0  0  0  0
   -2.7418    1.2399   -0.0001 C   0  0  0  0  0  0  0  0  0  0  0  0
    3.4411    0.5776    0.0009 C   0  0  0  0  0  0  0  0  0  0  0  0
   -2.7331   -1.4949   -0.0001 C   0  0  0  0  0  0  0  0  0  0  0  0
    3.4464   -0.8161    0.0008 C   0  0  0  0  0  0  0  0  0  0  0  0
   -3.9036    0.4837    0.0003 C   0  0  0  0  0  0  0  0  0  0  0  0
   -5.2257    1.1764    0.0017 C   0  0  0  0  0  0  0  0  0  0  0  0
   -2.7918    2.3240    0.0001 H   0  0  0  0  0  0  0  0  0  0  0  0
   -2.7993   -2.5783    0.0000 H   0  0  0  0  0  0  0  0  0  0  0  0
    4.3876   -1.3611    0.0009 H   0  0  0  0  0  0  0  0  0  0  0  0
   -5.3275    1.8043   -0.8891 H   0  0  0  0  0  0  0  0  0  0  0  0
   -6.0487    0.4540    0.0011 H   0  0  0  0  0  0  0  0  0  0  0  0
   -5.3267    1.8020    0.8943 H   0  0  0  0  0  0  0  0  0  0  0  0
    1.3925    3.0178    0.0043 H   0  0  0  0  0  0  0  0  0  0  0  0
    1.4296   -3.2737   -0.0040 H   0  0  0  0  0  0  0  0  0  0  0  0
    5.3569    0.6021    0.0003 H   0  0  0  0  0  0  0  0  0  0  0  0
  1 13  1  0  0  0  0
  1 27  1  0  0  0  0
  2 14  1  0  0  0  0
  2 28  1  0  0  0  0
  3 11  2  0  0  0  0
  4 12  2  0  0  0  0
  5 16  1  0  0  0  0
  5 29  1  0  0  0  0
  6 17  2  0  0  0  0
  6 19  1  0  0  0  0
  7  8  2  0  0  0  0
  7 11  1  0  0  0  0
  7 13  1  0  0  0  0
  8 12  1  0  0  0  0
  8 14  1  0  0  0  0
  9 10  2  0  0  0  0
  9 11  1  0  0  0  0
  9 15  1  0  0  0  0
 10 12  1  0  0  0  0
 10 17  1  0  0  0  0
 13 16  2  0  0  0  0
 14 18  2  0  0  0  0
 15 19  2  0  0  0  0
 15 21  1  0  0  0  0
 16 18  1  0  0  0  0
 17 22  1  0  0  0  0
 18 23  1  0  0  0  0
 19 20  1  0  0  0  0
 20 24  1  0  0  0  0
 20 25  1  0  0  0  0
 20 26  1  0  0  0  0
M  END
> <PUBCHEM_COMPOUND_CID>
135449095

> <PUBCHEM_CONFORMER_RMSD>
0.6

> <PUBCHEM_CONFORMER_DIVERSEORDER>
1

> <PUBCHEM_MMFF94_PARTIAL_CHARGES>
26
1 -0.53
10 0.09
11 0.4
12 0.4
13 0.08
14 0.08
15 -0.15
16 0.08
17 0.16
18 -0.15
19 0.17
2 -0.53
20 0.14
21 0.15
22 0.15
23 0.15
27 0.45
28 0.45
29 0.45
3 -0.57
4 -0.57
5 -0.53
6 -0.62
7 0.09
8 0.09
9 0.09

> <PUBCHEM_EFFECTIVE_ROTOR_COUNT>
0

> <PUBCHEM_PHARMACOPHORE_FEATURES>
9
1 1 donor
1 2 donor
1 3 acceptor
1 4 acceptor
1 5 donor
1 6 acceptor
6 6 9 10 15 17 19 rings
6 7 8 13 14 16 18 rings
6 7 8 9 10 11 12 rings

> <PUBCHEM_HEAVY_ATOM_COUNT>
20

> <PUBCHEM_ATOM_DEF_STEREO_COUNT>
0

> <PUBCHEM_ATOM_UDEF_STEREO_COUNT>
0

> <PUBCHEM_BOND_DEF_STEREO_COUNT>
0

> <PUBCHEM_BOND_UDEF_STEREO_COUNT>
0

> <PUBCHEM_ISOTOPIC_ATOM_COUNT>
0

> <PUBCHEM_COMPONENT_COUNT>
1

> <PUBCHEM_CACTVS_TAUTO_COUNT>
-1

> <PUBCHEM_CONFORMER_ID>
0812CA0700000001

> <PUBCHEM_MMFF94_ENERGY>
62.4329

> <PUBCHEM_FEATURE_SELFOVERLAP>
45.72

> <PUBCHEM_SHAPE_FINGERPRINT>
10411042 1 17402049994634704903
10608611 8 18408882932257969941
10616163 171 18339644567517011343
10967382 1 18410573950902599494
11132069 177 18411414020741161721
11471102 20 18410853239630095876
12011746 2 18411423890934665324
13140716 1 18410005567731094650
13221675 6 18410855477482201742
13380535 76 18409729599171761794
138480 1 18122626046487506914
14178342 30 17907843343281005354
14790565 3 18265623250155036068
15196674 1 18410855468776333031
15230672 131 13578470602563814803
15442244 35 18195810660991019266
15536298 74 18342739593975197102
16945 1 18410574002753404422
18186145 218 18412265008412905605
19591789 44 18266742565565147314
200 152 18060133263234509837
20510252 161 18272090478490560192
20645477 70 18340765936565516879
20739085 24 18120119215721062481
21267235 1 18339370664472639427
21421861 104 17969213435157335698
221490 88 18336836311582311259
2334 1 18410855494662129379
23402539 116 18271518779793875076
23402655 69 18343300366374833837
23463225 33 18409448072375530901
23559900 14 18341612603616114206
25 1 18408881853952140311
2748010 2 18410014342481265815
335352 9 18410573955551034070
33824 294 18409166584577384402
34934 24 18411975871103853375
350125 39 18265615386332829556
474 4 18335703861987160969
495365 180 17560786762696921712
5104073 3 18409729573143249235
537710 114 18411703170792996049
69090 78 18412259549694147023
7364860 26 18340769239237196126
7832392 63 18341046401771277599
8272917 22 18341899528653090111
9709674 26 18410579508559119255

> <PUBCHEM_SHAPE_MULTIPOLES>
377.26
7.83
2.73
0.59
3.99
0.52
0
-2.03
0
-1.21
0
0.03
0
0

> <PUBCHEM_SHAPE_SELFOVERLAP>
856.657

> <PUBCHEM_SHAPE_VOLUME>
194.8

> <PUBCHEM_COORDINATE_TYPE>
2
5
10

$$$$
