135455949
  -OEChem-03292013293D

 55 58  0     0  0  0  0  0  0999 V2000
   -3.6415   -5.1754   -0.7644 O   0  0  0  0  0  0  0  0  0  0  0  0
    7.7170    0.6672    0.6838 O   0  0  0  0  0  0  0  0  0  0  0  0
   -2.2144    5.1492    0.4907 O   0  0  0  0  0  0  0  0  0  0  0  0
   -4.9318    1.5911   -0.6390 O   0  0  0  0  0  0  0  0  0  0  0  0
    1.0243    1.2643   -0.4604 N   0  0  0  0  0  0  0  0  0  0  0  0
   -0.2958    0.4157    1.1109 N   0  0  0  0  0  0  0  0  0  0  0  0
   -0.5974    2.7657    0.4788 N   0  0  0  0  0  0  0  0  0  0  0  0
   -3.9339    3.6478   -0.1105 N   0  0  0  0  0  0  0  0  0  0  0  0
   -2.6775    1.7923   -0.1194 N   0  0  0  0  0  0  0  0  0  0  0  0
    1.4079   -0.0391   -0.3131 C   0  0  0  0  0  0  0  0  0  0  0  0
    0.5789   -0.5419    0.6619 C   0  0  0  0  0  0  0  0  0  0  0  0
    2.4946   -0.6575   -1.0935 C   0  0  0  0  0  0  0  0  0  0  0  0
    0.5455   -1.9018    1.2230 C   0  0  0  0  0  0  0  0  0  0  0  0
   -0.0010    1.4912    0.4150 C   0  0  0  0  0  0  0  0  0  0  0  0
    3.8965   -0.3022   -0.6170 C   0  0  0  0  0  0  0  0  0  0  0  0
   -0.5790   -2.7810    0.6898 C   0  0  0  0  0  0  0  0  0  0  0  0
    1.6031    2.2212   -1.3771 C   0  0  0  0  0  0  0  0  0  0  0  0
    4.2610   -0.5326    0.7096 C   0  0  0  0  0  0  0  0  0  0  0  0
    4.8160    0.2540   -1.5063 C   0  0  0  0  0  0  0  0  0  0  0  0
   -1.8714   -2.6450    1.1968 C   0  0  0  0  0  0  0  0  0  0  0  0
   -0.3158   -3.7218   -0.3058 C   0  0  0  0  0  0  0  0  0  0  0  0
   -1.8520    2.8137    0.2146 C   0  0  0  0  0  0  0  0  0  0  0  0
    5.5450   -0.2073    1.1467 C   0  0  0  0  0  0  0  0  0  0  0  0
    6.0999    0.5794   -1.0694 C   0  0  0  0  0  0  0  0  0  0  0  0
   -2.9004   -3.4498    0.7083 C   0  0  0  0  0  0  0  0  0  0  0  0
   -1.3449   -4.5267   -0.7943 C   0  0  0  0  0  0  0  0  0  0  0  0
   -2.6762    4.0607    0.2250 C   0  0  0  0  0  0  0  0  0  0  0  0
   -2.6372   -4.3907   -0.2872 C   0  0  0  0  0  0  0  0  0  0  0  0
    6.4644    0.3487    0.2572 C   0  0  0  0  0  0  0  0  0  0  0  0
   -3.9624    2.2712   -0.3256 C   0  0  0  0  0  0  0  0  0  0  0  0
   -5.0827    4.5222   -0.2270 C   0  0  0  0  0  0  0  0  0  0  0  0
   -4.9387   -4.9829   -0.2021 C   0  0  0  0  0  0  0  0  0  0  0  0
    2.3838   -0.4045   -2.1553 H   0  0  0  0  0  0  0  0  0  0  0  0
    2.4097   -1.7514   -1.0607 H   0  0  0  0  0  0  0  0  0  0  0  0
    0.4415   -1.8390    2.3148 H   0  0  0  0  0  0  0  0  0  0  0  0
    1.5036   -2.4127    1.0666 H   0  0  0  0  0  0  0  0  0  0  0  0
    1.6821    1.7659   -2.3669 H   0  0  0  0  0  0  0  0  0  0  0  0
    0.9692    3.1073   -1.4518 H   0  0  0  0  0  0  0  0  0  0  0  0
    2.5880    2.5053   -0.9990 H   0  0  0  0  0  0  0  0  0  0  0  0
    3.5636   -0.9723    1.4164 H   0  0  0  0  0  0  0  0  0  0  0  0
    4.5456    0.4400   -2.5422 H   0  0  0  0  0  0  0  0  0  0  0  0
   -2.0878   -1.9156    1.9730 H   0  0  0  0  0  0  0  0  0  0  0  0
    0.6861   -3.8366   -0.7104 H   0  0  0  0  0  0  0  0  0  0  0  0
    5.8172   -0.3934    2.1821 H   0  0  0  0  0  0  0  0  0  0  0  0
    6.8116    1.0128   -1.7667 H   0  0  0  0  0  0  0  0  0  0  0  0
   -3.8800   -3.2916    1.1463 H   0  0  0  0  0  0  0  0  0  0  0  0
   -1.1340   -5.2574   -1.5703 H   0  0  0  0  0  0  0  0  0  0  0  0
   -2.4151    0.8176   -0.2101 H   0  0  0  0  0  0  0  0  0  0  0  0
   -5.4810    4.4413   -1.2424 H   0  0  0  0  0  0  0  0  0  0  0  0
   -5.8526    4.1814    0.4711 H   0  0  0  0  0  0  0  0  0  0  0  0
   -4.8077    5.5572   -0.0104 H   0  0  0  0  0  0  0  0  0  0  0  0
    7.7957    0.4413    1.6266 H   0  0  0  0  0  0  0  0  0  0  0  0
   -5.6136   -5.6886   -0.6975 H   0  0  0  0  0  0  0  0  0  0  0  0
   -5.3211   -3.9773   -0.4074 H   0  0  0  0  0  0  0  0  0  0  0  0
   -4.9537   -5.2227    0.8665 H   0  0  0  0  0  0  0  0  0  0  0  0
  1 28  1  0  0  0  0
  1 32  1  0  0  0  0
  2 29  1  0  0  0  0
  2 52  1  0  0  0  0
  3 27  2  0  0  0  0
  4 30  2  0  0  0  0
  5 10  1  0  0  0  0
  5 14  1  0  0  0  0
  5 17  1  0  0  0  0
  6 11  1  0  0  0  0
  6 14  2  0  0  0  0
  7 14  1  0  0  0  0
  7 22  2  0  0  0  0
  8 27  1  0  0  0  0
  8 30  1  0  0  0  0
  8 31  1  0  0  0  0
  9 22  1  0  0  0  0
  9 30  1  0  0  0  0
  9 48  1  0  0  0  0
 10 11  2  0  0  0  0
 10 12  1  0  0  0  0
 11 13  1  0  0  0  0
 12 15  1  0  0  0  0
 12 33  1  0  0  0  0
 12 34  1  0  0  0  0
 13 16  1  0  0  0  0
 13 35  1  0  0  0  0
 13 36  1  0  0  0  0
 15 18  2  0  0  0  0
 15 19  1  0  0  0  0
 16 20  2  0  0  0  0
 16 21  1  0  0  0  0
 17 37  1  0  0  0  0
 17 38  1  0  0  0  0
 17 39  1  0  0  0  0
 18 23  1  0  0  0  0
 18 40  1  0  0  0  0
 19 24  2  0  0  0  0
 19 41  1  0  0  0  0
 20 25  1  0  0  0  0
 20 42  1  0  0  0  0
 21 26  2  0  0  0  0
 21 43  1  0  0  0  0
 22 27  1  0  0  0  0
 23 29  2  0  0  0  0
 23 44  1  0  0  0  0
 24 29  1  0  0  0  0
 24 45  1  0  0  0  0
 25 28  2  0  0  0  0
 25 46  1  0  0  0  0
 26 28  1  0  0  0  0
 26 47  1  0  0  0  0
 31 49  1  0  0  0  0
 31 50  1  0  0  0  0
 31 51  1  0  0  0  0
 32 53  1  0  0  0  0
 32 54  1  0  0  0  0
 32 55  1  0  0  0  0
M  END
> <PUBCHEM_COMPOUND_CID>
135455949

> <PUBCHEM_CONFORMER_RMSD>
0.8

> <PUBCHEM_CONFORMER_DIVERSEORDER>
1
146
103
175
99
5
84
199
85
68
107
161
187
98
72
33
171
148
51
120
170
109
118
104
197
136
152
57
164
11
195
140
184
125
87
55
156
128
116
50
53
191
106
14
177
122
160
19
86
180
105
190
129
196
162
37
91
123
112
181
83
65
43
135
139
143
134
173
141
25
108
49
172
81
90
130
60
198
80
178
169
102
64
2
67
133
21
127
158
54
79
23
31
36
52
44
186
167
94
35
153
182
192
45
18
75
121
73
115
174
78
194
88
30
157
179
42
100
189
149
132
155
40
185
142
95
119
48
111
28
163
188
200
166
15
16
101
138
144
59
47
32
131
113
193
82
150
114
24
61
20
77
17
176
58
27
71
69
38
147
7
46
13
3
66
151
9
165
6
26
62
56
110
74
34
124
63
93
117
29
183
97
12
126
92
8
137
76
168
22
70
145
154
159
10
4
89
39
96
41

> <PUBCHEM_MMFF94_PARTIAL_CHARGES>
42
1 -0.36
10 -0.33
11 0.05
12 0.32
13 0.32
14 0.31
15 -0.14
16 -0.14
17 0.26
18 -0.15
19 -0.15
2 -0.53
20 -0.15
21 -0.15
22 0.51
23 -0.15
24 -0.15
25 -0.15
26 -0.15
27 0.63
28 0.08
29 0.08
3 -0.57
30 0.69
31 0.3
32 0.28
4 -0.57
40 0.15
41 0.15
42 0.15
43 0.15
44 0.15
45 0.15
46 0.15
47 0.15
48 0.37
5 0.05
52 0.45
6 -0.57
7 -0.58
8 -0.42
9 -0.49

> <PUBCHEM_EFFECTIVE_ROTOR_COUNT>
6.4

> <PUBCHEM_PHARMACOPHORE_FEATURES>
10
1 1 acceptor
1 2 donor
1 3 acceptor
1 4 acceptor
1 9 donor
4 5 6 7 14 cation
5 5 6 10 11 14 rings
5 8 9 22 27 30 rings
6 15 18 19 23 24 29 rings
6 16 20 21 25 26 28 rings

> <PUBCHEM_HEAVY_ATOM_COUNT>
32

> <PUBCHEM_ATOM_DEF_STEREO_COUNT>
0

> <PUBCHEM_ATOM_UDEF_STEREO_COUNT>
0

> <PUBCHEM_BOND_DEF_STEREO_COUNT>
1

> <PUBCHEM_BOND_UDEF_STEREO_COUNT>
0

> <PUBCHEM_ISOTOPIC_ATOM_COUNT>
0

> <PUBCHEM_COMPONENT_COUNT>
1

> <PUBCHEM_CACTVS_TAUTO_COUNT>
-1

> <PUBCHEM_CONFORMER_ID>
0812E4CD00000001

> <PUBCHEM_MMFF94_ENERGY>
81.9129

> <PUBCHEM_FEATURE_SELFOVERLAP>
50.747

> <PUBCHEM_SHAPE_FINGERPRINT>
10411042 1 18050285061643394779
10675989 125 17181390612147190724
11386260 185 17693079074914512799
11720765 8 17763741392426282679
12293681 4 18340480166484483903
12788726 201 18190192367612342534
12977781 61 17915761815977734846
13150687 139 18192155893373559174
13540713 5 17895767304833092996
13590594 115 18121223335885748555
13692114 37 18340195328600990957
13757389 114 18263941972775438876
13899415 180 17981320406620123022
14068700 675 18191303995469357406
14068700 686 17902798461874564453
14294032 229 18411429401404313947
14556957 393 17900565641958171844
14790565 3 18122342372086120536
15131766 46 15143251025218548958
15400415 2 18050848814734783141
15664445 248 16971961684354255847
15927050 60 18265333911446556394
16993438 75 18335146384449933003
18365409 1 18410292497912519981
19301679 30 18336830887767286010
19319366 153 17981596066632666333
20511986 3 17675920998188291408
2132832 1 18043252555802805092
21344244 181 17983592818255986663
23516275 137 16557921013560628975
23559900 14 17546442740186662803
23929065 36 18339631352403444664
24180151 214 17701258023447200689
255183 313 18197523812235148243
3103668 31 18337106869606470727
38695281 34 18191588545099371781
4017518 198 18195817259016367582
4066623 53 18048307044904537415
4409770 3 18410013256097386363
5171179 24 18055629779149497584
59444896 2 17823394051139796986
5969126 39 18268707397787868366
59755656 520 18263078826140268422
9658208 31 18340771425834128384
9981440 41 18192159187323559065

> <PUBCHEM_SHAPE_MULTIPOLES>
610.16
12.95
8.25
1.16
20.52
1.94
0.05
-2.74
0.85
-20.76
0.71
0.92
0.29
-0.63

> <PUBCHEM_SHAPE_SELFOVERLAP>
1331.808

> <PUBCHEM_SHAPE_VOLUME>
330.9

> <PUBCHEM_COORDINATE_TYPE>
2
5
10

$$$$
