135400184
  -OEChem-03292013293D

 32 34  0     0  0  0  0  0  0999 V2000
    1.3083    0.4974   -1.7272 S   0  0  0  0  0  0  0  0  0  0  0  0
   -0.5366   -1.6405   -1.6685 O   0  0  0  0  0  0  0  0  0  0  0  0
   -2.4992   -1.7325   -0.5325 N   0  0  0  0  0  0  0  0  0  0  0  0
   -3.3239    0.0095    0.8169 N   0  0  0  0  0  0  0  0  0  0  0  0
   -4.5423   -1.9785    0.5750 N   0  0  0  0  0  0  0  0  0  0  0  0
    4.0741   -1.4863    1.3342 N   0  0  0  0  0  0  0  0  0  0  0  0
   -1.1725    0.2628   -0.3528 C   0  0  0  0  0  0  0  0  0  0  0  0
   -0.0435    1.0295   -0.6560 C   0  0  0  0  0  0  0  0  0  0  0  0
    0.0877    2.3044   -0.1086 C   0  0  0  0  0  0  0  0  0  0  0  0
   -2.1760    0.7548    0.4923 C   0  0  0  0  0  0  0  0  0  0  0  0
   -0.9022    2.8079    0.7340 C   0  0  0  0  0  0  0  0  0  0  0  0
   -2.0277    2.0369    1.0324 C   0  0  0  0  0  0  0  0  0  0  0  0
   -1.3338   -1.0908   -0.9191 C   0  0  0  0  0  0  0  0  0  0  0  0
    1.2609    3.1968   -0.3757 C   0  0  0  0  0  0  0  0  0  0  0  0
   -3.4575   -1.1846    0.3121 C   0  0  0  0  0  0  0  0  0  0  0  0
    2.3846   -0.2756   -0.5350 C   0  0  0  0  0  0  0  0  0  0  0  0
    1.9351   -1.3570    0.2147 C   0  0  0  0  0  0  0  0  0  0  0  0
    3.6778    0.2010   -0.3513 C   0  0  0  0  0  0  0  0  0  0  0  0
    2.8109   -1.9218    1.1279 C   0  0  0  0  0  0  0  0  0  0  0  0
    4.4757   -0.4335    0.5872 C   0  0  0  0  0  0  0  0  0  0  0  0
   -0.8185    3.7992    1.1721 H   0  0  0  0  0  0  0  0  0  0  0  0
   -2.7904    2.4445    1.6917 H   0  0  0  0  0  0  0  0  0  0  0  0
    2.1734    2.7871    0.0673 H   0  0  0  0  0  0  0  0  0  0  0  0
    1.4021    3.3596   -1.4492 H   0  0  0  0  0  0  0  0  0  0  0  0
    1.1203    4.1914    0.0641 H   0  0  0  0  0  0  0  0  0  0  0  0
   -2.6632   -2.6682   -0.8924 H   0  0  0  0  0  0  0  0  0  0  0  0
    0.9499   -1.7869    0.1364 H   0  0  0  0  0  0  0  0  0  0  0  0
    4.0670    1.0417   -0.9162 H   0  0  0  0  0  0  0  0  0  0  0  0
   -5.2910   -1.6608    1.1808 H   0  0  0  0  0  0  0  0  0  0  0  0
   -4.6294   -2.9055    0.1731 H   0  0  0  0  0  0  0  0  0  0  0  0
    2.5093   -2.7669    1.7381 H   0  0  0  0  0  0  0  0  0  0  0  0
    5.4923   -0.1002    0.7683 H   0  0  0  0  0  0  0  0  0  0  0  0
  1  8  1  0  0  0  0
  1 16  1  0  0  0  0
  2 13  2  0  0  0  0
  3 13  1  0  0  0  0
  3 15  1  0  0  0  0
  3 26  1  0  0  0  0
  4 10  1  0  0  0  0
  4 15  2  0  0  0  0
  5 15  1  0  0  0  0
  5 29  1  0  0  0  0
  5 30  1  0  0  0  0
  6 19  2  0  0  0  0
  6 20  1  0  0  0  0
  7  8  1  0  0  0  0
  7 10  2  0  0  0  0
  7 13  1  0  0  0  0
  8  9  2  0  0  0  0
  9 11  1  0  0  0  0
  9 14  1  0  0  0  0
 10 12  1  0  0  0  0
 11 12  2  0  0  0  0
 11 21  1  0  0  0  0
 12 22  1  0  0  0  0
 14 23  1  0  0  0  0
 14 24  1  0  0  0  0
 14 25  1  0  0  0  0
 16 17  2  0  0  0  0
 16 18  1  0  0  0  0
 17 19  1  0  0  0  0
 17 27  1  0  0  0  0
 18 20  2  0  0  0  0
 18 28  1  0  0  0  0
 19 31  1  0  0  0  0
 20 32  1  0  0  0  0
M  END
> <PUBCHEM_COMPOUND_CID>
135400184

> <PUBCHEM_CONFORMER_RMSD>
0.6

> <PUBCHEM_CONFORMER_DIVERSEORDER>
1
6
8
5
7
2
3
4

> <PUBCHEM_MMFF94_PARTIAL_CHARGES>
29
1 -0.2
10 0.18
11 -0.15
12 -0.15
13 0.54
14 0.14
15 0.56
16 0.1
17 -0.15
18 -0.15
19 0.16
2 -0.57
20 0.16
21 0.15
22 0.15
26 0.37
27 0.15
28 0.15
29 0.4
3 -0.49
30 0.4
31 0.15
32 0.15
4 -0.63
5 -0.85
6 -0.62
7 0.09
8 0.1
9 -0.14

> <PUBCHEM_EFFECTIVE_ROTOR_COUNT>
2

> <PUBCHEM_PHARMACOPHORE_FEATURES>
7
1 2 acceptor
1 3 donor
1 5 donor
1 6 acceptor
6 3 4 7 10 13 15 rings
6 6 16 17 18 19 20 rings
6 7 8 9 10 11 12 rings

> <PUBCHEM_HEAVY_ATOM_COUNT>
20

> <PUBCHEM_ATOM_DEF_STEREO_COUNT>
0

> <PUBCHEM_ATOM_UDEF_STEREO_COUNT>
0

> <PUBCHEM_BOND_DEF_STEREO_COUNT>
0

> <PUBCHEM_BOND_UDEF_STEREO_COUNT>
0

> <PUBCHEM_ISOTOPIC_ATOM_COUNT>
0

> <PUBCHEM_COMPONENT_COUNT>
1

> <PUBCHEM_CACTVS_TAUTO_COUNT>
-1

> <PUBCHEM_CONFORMER_ID>
08120AF800000001

> <PUBCHEM_MMFF94_ENERGY>
66.578

> <PUBCHEM_FEATURE_SELFOVERLAP>
35.594

> <PUBCHEM_SHAPE_FINGERPRINT>
10906281 52 18199479762091499389
1100329 8 17905889528667795668
11221954 11 13252861597636066715
11578080 2 18041264535221322564
12382932 28 18269558234692495692
12553582 1 18341330080182392342
12633257 1 17622446043537787066
12824470 246 18040149608675533642
13140716 1 18056201508137384167
13764800 53 17417242105450194808
14178342 30 17985850154371816705
14223421 5 18269271266726731670
14420673 8 17621320139838169558
14787075 74 18191311679091944916
15375462 189 18335985367107621086
15375462 478 18408886209038558991
15475509 35 17679605581917374451
16945 1 18127435387746390549
17780758 139 17903051367271654642
20291156 8 18408040706319354106
21421861 104 18267320887575812505
21475661 188 15122963793950136923
21650355 55 18266454313341241696
22112679 90 17558826428122455519
23388829 49 18412829109317523885
23419403 2 15692875979631477893
23559900 14 17914353294015672524
23598288 3 18265040337219217366
2748010 2 17477518333886827981
34934 24 18262799562423368688
392239 28 18266170815935594992
4072396 5 18270689667081568561
5104073 3 18055655043033460251
58807428 26 17474961921828118433
7097593 13 17757548560797783786
90316 7 18264775350448285168

> <PUBCHEM_SHAPE_MULTIPOLES>
389.65
6.97
3.06
1.31
1.81
1.9
-0.26
-4.77
2.69
-0.91
0.43
0.38
-0.21
-1.18

> <PUBCHEM_SHAPE_SELFOVERLAP>
844.122

> <PUBCHEM_SHAPE_VOLUME>
213.6

> <PUBCHEM_COORDINATE_TYPE>
2
5
10

$$$$
