135415984
  -OEChem-03292013293D

 37 39  0     1  0  0  0  0  0999 V2000
   -4.9321    1.1740    0.3562 O   0  0  0  0  0  0  0  0  0  0  0  0
   -5.1150   -1.8387    1.3336 O   0  0  0  0  0  0  0  0  0  0  0  0
    4.7612    0.5122    1.4900 O   0  0  0  0  0  0  0  0  0  0  0  0
   -1.7504    0.8447   -0.4810 N   0  0  2  0  0  0  0  0  0  0  0  0
    2.2886    2.0644    0.7444 N   0  0  0  0  0  0  0  0  0  0  0  0
    1.7351   -1.0336   -0.9127 N   0  0  0  0  0  0  0  0  0  0  0  0
    3.8433   -1.2013    0.2234 N   0  0  0  0  0  0  0  0  0  0  0  0
    3.0089   -2.9951   -1.0309 N   0  0  0  0  0  0  0  0  0  0  0  0
   -3.2539   -0.5422    0.5833 C   0  0  2  0  0  0  0  0  0  0  0  0
   -4.0622    0.3292   -0.3821 C   0  0  2  0  0  0  0  0  0  0  0  0
   -1.8591   -0.5427   -0.0284 C   0  0  0  0  0  0  0  0  0  0  0  0
   -3.0210    1.1459   -1.1516 C   0  0  0  0  0  0  0  0  0  0  0  0
   -0.5979    1.0631   -1.3418 C   0  0  0  0  0  0  0  0  0  0  0  0
   -3.8272   -1.9412    0.7507 C   0  0  0  0  0  0  0  0  0  0  0  0
    0.6735    1.2129   -0.5493 C   0  0  0  0  0  0  0  0  0  0  0  0
    1.6921    0.2602   -0.3778 C   0  0  0  0  0  0  0  0  0  0  0  0
    1.0700    2.3294    0.1608 C   0  0  0  0  0  0  0  0  0  0  0  0
    2.6757    0.7937    0.4167 C   0  0  0  0  0  0  0  0  0  0  0  0
    3.8580    0.0768    0.7844 C   0  0  0  0  0  0  0  0  0  0  0  0
    2.8127   -1.7118   -0.5880 C   0  0  0  0  0  0  0  0  0  0  0  0
   -3.2313   -0.0568    1.5701 H   0  0  0  0  0  0  0  0  0  0  0  0
   -4.6662   -0.2699   -1.0731 H   0  0  0  0  0  0  0  0  0  0  0  0
   -1.1023   -0.7974    0.7205 H   0  0  0  0  0  0  0  0  0  0  0  0
   -1.7907   -1.2552   -0.8608 H   0  0  0  0  0  0  0  0  0  0  0  0
   -3.0009    0.8018   -2.1937 H   0  0  0  0  0  0  0  0  0  0  0  0
   -3.2274    2.2208   -1.1394 H   0  0  0  0  0  0  0  0  0  0  0  0
   -0.7295    2.0019   -1.8982 H   0  0  0  0  0  0  0  0  0  0  0  0
   -0.4947    0.2766   -2.1004 H   0  0  0  0  0  0  0  0  0  0  0  0
   -3.1920   -2.5404    1.4112 H   0  0  0  0  0  0  0  0  0  0  0  0
   -3.9167   -2.4572   -0.2112 H   0  0  0  0  0  0  0  0  0  0  0  0
   -5.3942    1.7447   -0.2813 H   0  0  0  0  0  0  0  0  0  0  0  0
    0.5970    3.2908    0.3060 H   0  0  0  0  0  0  0  0  0  0  0  0
   -5.4566   -2.7435    1.4343 H   0  0  0  0  0  0  0  0  0  0  0  0
    2.8105    2.7090    1.3224 H   0  0  0  0  0  0  0  0  0  0  0  0
    4.6357   -1.8072    0.4157 H   0  0  0  0  0  0  0  0  0  0  0  0
    2.3259   -3.4564   -1.6219 H   0  0  0  0  0  0  0  0  0  0  0  0
    3.8401   -3.5197   -0.7813 H   0  0  0  0  0  0  0  0  0  0  0  0
  1 10  1  0  0  0  0
  1 31  1  0  0  0  0
  2 14  1  0  0  0  0
  2 33  1  0  0  0  0
  3 19  2  0  0  0  0
  4 11  1  0  0  0  0
  4 12  1  0  0  0  0
  4 13  1  0  0  0  0
  5 17  1  0  0  0  0
  5 18  1  0  0  0  0
  5 34  1  0  0  0  0
  6 16  1  0  0  0  0
  6 20  2  0  0  0  0
  7 19  1  0  0  0  0
  7 20  1  0  0  0  0
  7 35  1  0  0  0  0
  8 20  1  0  0  0  0
  8 36  1  0  0  0  0
  8 37  1  0  0  0  0
  9 10  1  0  0  0  0
  9 11  1  0  0  0  0
  9 14  1  0  0  0  0
  9 21  1  0  0  0  0
 10 12  1  0  0  0  0
 10 22  1  0  0  0  0
 11 23  1  0  0  0  0
 11 24  1  0  0  0  0
 12 25  1  0  0  0  0
 12 26  1  0  0  0  0
 13 15  1  0  0  0  0
 13 27  1  0  0  0  0
 13 28  1  0  0  0  0
 14 29  1  0  0  0  0
 14 30  1  0  0  0  0
 15 16  1  0  0  0  0
 15 17  2  0  0  0  0
 16 18  2  0  0  0  0
 17 32  1  0  0  0  0
 18 19  1  0  0  0  0
M  END
> <PUBCHEM_COMPOUND_CID>
135415984

> <PUBCHEM_CONFORMER_RMSD>
0.6

> <PUBCHEM_CONFORMER_DIVERSEORDER>
2
47
19
58
21
52
37
20
33
34
44
4
54
46
43
29
50
28
38
30
15
53
49
13
51
39
8
31
42
14
36
55
41
25
56
6
17
57
3
7
48
23
11
18
22
5
10
27
1
45
35
26
9
16
32
24
40
12

> <PUBCHEM_MMFF94_PARTIAL_CHARGES>
26
1 -0.68
10 0.28
11 0.27
12 0.27
13 0.45
14 0.28
15 -0.18
16 0.12
17 -0.3
18 -0.24
19 0.71
2 -0.68
20 0.56
3 -0.57
31 0.4
32 0.15
33 0.4
34 0.27
35 0.37
36 0.4
37 0.4
4 -0.81
5 0.03
6 -0.57
7 -0.49
8 -0.85

> <PUBCHEM_EFFECTIVE_ROTOR_COUNT>
4

> <PUBCHEM_PHARMACOPHORE_FEATURES>
13
1 1 acceptor
1 1 donor
1 2 acceptor
1 2 donor
1 3 acceptor
1 4 cation
1 5 cation
1 5 donor
1 7 donor
1 8 donor
5 4 9 10 11 12 rings
5 5 15 16 17 18 rings
6 6 7 16 18 19 20 rings

> <PUBCHEM_HEAVY_ATOM_COUNT>
20

> <PUBCHEM_ATOM_DEF_STEREO_COUNT>
2

> <PUBCHEM_ATOM_UDEF_STEREO_COUNT>
0

> <PUBCHEM_BOND_DEF_STEREO_COUNT>
0

> <PUBCHEM_BOND_UDEF_STEREO_COUNT>
0

> <PUBCHEM_ISOTOPIC_ATOM_COUNT>
0

> <PUBCHEM_COMPONENT_COUNT>
1

> <PUBCHEM_CACTVS_TAUTO_COUNT>
-1

> <PUBCHEM_CONFORMER_ID>
081248B000000002

> <PUBCHEM_MMFF94_ENERGY>
42.7701

> <PUBCHEM_FEATURE_SELFOVERLAP>
66.132

> <PUBCHEM_SHAPE_FINGERPRINT>
114674 6 18335427871547317043
117890 22 18408891758400146879
11796584 16 17387394762902821002
12236239 1 16558739122619579796
12346177 29 17894901954473660813
12363563 72 17458627864837643417
12506688 2 18411419466944257372
12596602 18 16558741368919143355
12670546 177 11386378036329407657
12892183 10 18060140929271254361
13533116 47 18343305881846084167
13544592 145 18263081011919978029
13583140 156 17346025784036668707
13675066 3 18412824681586043149
13911882 115 18412266134137805890
14252887 29 18341610387238779792
14386348 63 18335419032503660254
14790565 3 18052533572224222612
14866123 147 17116923517873666051
15342816 4 17240201049363637070
15375358 24 18337941312278135156
15422964 175 18339920399217645820
15475509 84 17058086589445884240
15635459 17 18338796710934364222
16752209 62 15864334875323667613
17804303 29 18260271845673744045
1813 80 17022910064277833485
19141452 34 18334014991348126391
193927 3 17604160332361025995
20281475 54 18260274040043440197
20403669 9 18041281062502942083
20645477 70 18340192055529807413
21065198 57 18411420609695968189
21065199 12 18411982490075951913
231179 274 9655576322839760428
23402539 116 14129329638397069764
23559900 14 18334580122375061140
26918003 58 18411694383490401177
2838139 119 13253649050558110626
314173 41 18260831462358055572
3421961 26 18200313195946944598
5104073 3 18335135440488453105
9709674 26 18410288086717174061

> <PUBCHEM_SHAPE_MULTIPOLES>
369.08
9.95
2.45
1.18
5.58
0.91
0
3.38
3.52
-0.63
-0.18
-0.14
0.11
2.03

> <PUBCHEM_SHAPE_SELFOVERLAP>
795.709

> <PUBCHEM_SHAPE_VOLUME>
203.8

> <PUBCHEM_COORDINATE_TYPE>
2
5
10

$$$$
