135485456
  -OEChem-03292013293D

 31 33  0     1  0  0  0  0  0999 V2000
   -5.9041    0.5008    0.4471 O   0  0  0  0  0  0  0  0  0  0  0  0
    3.9983    2.0347    0.1516 O   0  0  0  0  0  0  0  0  0  0  0  0
   -0.1074    0.1670   -0.1138 N   0  0  0  0  0  0  0  0  0  0  0  0
    1.0348    2.0887   -0.0453 N   0  0  0  0  0  0  0  0  0  0  0  0
    1.7057   -1.4318    0.0123 N   0  0  0  0  0  0  0  0  0  0  0  0
    3.8092   -0.2929    0.1476 N   0  0  0  0  0  0  0  0  0  0  0  0
    3.7127   -2.6454    0.1502 N   0  0  0  0  0  0  0  0  0  0  0  0
   -1.2938   -0.7706   -0.1886 C   0  0  1  0  0  0  0  0  0  0  0  0
   -2.3520   -0.6039    0.9225 C   0  0  0  0  0  0  0  0  0  0  0  0
   -3.5508    0.1206    0.2835 C   0  0  1  0  0  0  0  0  0  0  0  0
   -2.1050   -0.5771   -1.4357 C   0  0  0  0  0  0  0  0  0  0  0  0
   -3.3279   -0.1029   -1.1797 C   0  0  0  0  0  0  0  0  0  0  0  0
   -4.8841   -0.4278    0.7720 C   0  0  0  0  0  0  0  0  0  0  0  0
    1.2098   -0.1752   -0.0253 C   0  0  0  0  0  0  0  0  0  0  0  0
   -0.1616    1.5396   -0.1226 C   0  0  0  0  0  0  0  0  0  0  0  0
    1.8824    1.0222    0.0148 C   0  0  0  0  0  0  0  0  0  0  0  0
    3.3160    1.0188    0.1100 C   0  0  0  0  0  0  0  0  0  0  0  0
    3.0178   -1.4649    0.0994 C   0  0  0  0  0  0  0  0  0  0  0  0
   -0.8751   -1.7825   -0.1557 H   0  0  0  0  0  0  0  0  0  0  0  0
   -1.9706   -0.0560    1.7914 H   0  0  0  0  0  0  0  0  0  0  0  0
   -2.6525   -1.5990    1.2778 H   0  0  0  0  0  0  0  0  0  0  0  0
   -3.4922    1.1987    0.4802 H   0  0  0  0  0  0  0  0  0  0  0  0
   -1.7333   -0.7853   -2.4292 H   0  0  0  0  0  0  0  0  0  0  0  0
   -4.0553    0.1316   -1.9441 H   0  0  0  0  0  0  0  0  0  0  0  0
   -4.8758   -0.5423    1.8612 H   0  0  0  0  0  0  0  0  0  0  0  0
   -5.1250   -1.3958    0.3191 H   0  0  0  0  0  0  0  0  0  0  0  0
   -1.0940    2.0836   -0.1846 H   0  0  0  0  0  0  0  0  0  0  0  0
   -6.7419    0.1333    0.7766 H   0  0  0  0  0  0  0  0  0  0  0  0
    4.8161   -0.4108    0.2149 H   0  0  0  0  0  0  0  0  0  0  0  0
    3.2331   -3.5385    0.1218 H   0  0  0  0  0  0  0  0  0  0  0  0
    4.7245   -2.6611    0.2175 H   0  0  0  0  0  0  0  0  0  0  0  0
  1 13  1  0  0  0  0
  1 28  1  0  0  0  0
  2 17  2  0  0  0  0
  3  8  1  0  0  0  0
  3 14  1  0  0  0  0
  3 15  1  0  0  0  0
  4 15  2  0  0  0  0
  4 16  1  0  0  0  0
  5 14  1  0  0  0  0
  5 18  2  0  0  0  0
  6 17  1  0  0  0  0
  6 18  1  0  0  0  0
  6 29  1  0  0  0  0
  7 18  1  0  0  0  0
  7 30  1  0  0  0  0
  7 31  1  0  0  0  0
  8  9  1  0  0  0  0
  8 11  1  0  0  0  0
  8 19  1  0  0  0  0
  9 10  1  0  0  0  0
  9 20  1  0  0  0  0
  9 21  1  0  0  0  0
 10 12  1  0  0  0  0
 10 13  1  0  0  0  0
 10 22  1  0  0  0  0
 11 12  2  0  0  0  0
 11 23  1  0  0  0  0
 12 24  1  0  0  0  0
 13 25  1  0  0  0  0
 13 26  1  0  0  0  0
 14 16  2  0  0  0  0
 15 27  1  0  0  0  0
 16 17  1  0  0  0  0
M  END
> <PUBCHEM_COMPOUND_CID>
135485456

> <PUBCHEM_CONFORMER_RMSD>
0.6

> <PUBCHEM_CONFORMER_DIVERSEORDER>
1
2
9
5
10
8
13
4
12
3
11
6
7

> <PUBCHEM_MMFF94_PARTIAL_CHARGES>
24
1 -0.68
10 0.14
11 -0.29
12 -0.29
13 0.28
14 -0.03
15 0.04
16 0.14
17 0.72
18 0.56
2 -0.57
23 0.15
24 0.15
27 0.15
28 0.4
29 0.37
3 0.05
30 0.4
31 0.4
4 -0.57
5 -0.58
6 -0.49
7 -0.85
8 0.39

> <PUBCHEM_EFFECTIVE_ROTOR_COUNT>
2.6

> <PUBCHEM_PHARMACOPHORE_FEATURES>
9
1 1 acceptor
1 1 donor
1 2 acceptor
1 6 donor
1 7 donor
3 3 4 15 cation
5 3 4 14 15 16 rings
5 8 9 10 11 12 rings
6 5 6 14 16 17 18 rings

> <PUBCHEM_HEAVY_ATOM_COUNT>
18

> <PUBCHEM_ATOM_DEF_STEREO_COUNT>
2

> <PUBCHEM_ATOM_UDEF_STEREO_COUNT>
0

> <PUBCHEM_BOND_DEF_STEREO_COUNT>
0

> <PUBCHEM_BOND_UDEF_STEREO_COUNT>
0

> <PUBCHEM_ISOTOPIC_ATOM_COUNT>
0

> <PUBCHEM_COMPONENT_COUNT>
1

> <PUBCHEM_CACTVS_TAUTO_COUNT>
-1

> <PUBCHEM_CONFORMER_ID>
0813581000000001

> <PUBCHEM_MMFF94_ENERGY>
36.2002

> <PUBCHEM_FEATURE_SELFOVERLAP>
45.85

> <PUBCHEM_SHAPE_FINGERPRINT>
11089746 13 17418369224764038520
11471102 20 18409444812542949516
12107183 9 17910402684502214643
12236239 1 17775004604620307855
12507560 40 18333730196182646901
12553582 1 18268421344218180494
13140716 1 18050844721904737264
13167372 99 18200883855941656089
13296908 3 18186798067246856838
13581323 91 14996272643605841417
13675066 3 18260829306611520645
13760787 5 18342731919000410871
14178342 30 17982431987284913594
14252887 29 18186804690165503344
14341114 176 18334868208118654441
14790565 3 18048887591197460924
15219456 202 18114175350044104605
15375358 24 18114737222024103016
15375462 189 18202280324868938240
15442244 35 18269275672978432352
16945 1 18338510958481261620
1813 80 17985563160557654126
18186145 218 17531241721248466518
18785283 64 17606974055162015573
19784866 34 18123470742085098068
20281475 54 18271516563469645326
20645477 70 18410289194597592926
21267235 1 18339651053160097934
212916 134 15625939811987339351
23184049 59 18343303652141035167
23402539 116 15123508086945269233
23557571 272 16877940533754652212
2748010 2 18265598906590930788
300161 21 17632853152780333737
33824 294 18335420184050969250
34934 24 18200872988835379732
474 4 18126560365110766744
5104073 3 18412263969337068099
602551 16 16153995763047037545
77492 1 17703505566673533263
8272917 22 18342181059111110198

> <PUBCHEM_SHAPE_MULTIPOLES>
333.79
9.52
1.91
0.91
7.23
0.14
-0.2
0.5
1.7
-2.9
0.08
0.93
0.12
-0.07

> <PUBCHEM_SHAPE_SELFOVERLAP>
727.373

> <PUBCHEM_SHAPE_VOLUME>
182.4

> <PUBCHEM_COORDINATE_TYPE>
2
5
10

$$$$
