135438599
  -OEChem-03292013293D

 41 41  0     1  0  0  0  0  0999 V2000
   -2.1941   -3.0562   -0.6957 O   0  0  0  0  0  0  0  0  0  0  0  0
   -3.8448   -2.2627    0.6613 O   0  0  0  0  0  0  0  0  0  0  0  0
   -6.2232    1.2312    0.0343 O   0  0  0  0  0  0  0  0  0  0  0  0
    4.3944   -2.7581    0.1936 O   0  0  0  0  0  0  0  0  0  0  0  0
   -4.9886    2.6920    1.2880 O   0  0  0  0  0  0  0  0  0  0  0  0
    3.1969   -2.0467    1.9836 O   0  0  0  0  0  0  0  0  0  0  0  0
    5.8741    1.8880   -1.5880 O   0  0  0  0  0  0  0  0  0  0  0  0
   -4.1824   -0.0693   -0.8331 N   0  0  0  0  0  0  0  0  0  0  0  0
    1.8353   -0.2281    0.5528 N   0  0  0  0  0  0  0  0  0  0  0  0
    6.3475    2.5489    0.5605 N   0  0  0  0  0  0  0  0  0  0  0  0
   -3.1392   -0.9828   -1.2627 C   0  0  1  0  0  0  0  0  0  0  0  0
   -1.7765   -0.2700   -1.3027 C   0  0  0  0  0  0  0  0  0  0  0  0
   -1.5376    0.6645   -0.1280 C   0  0  0  0  0  0  0  0  0  0  0  0
   -3.9351    0.9941    0.0004 C   0  0  0  0  0  0  0  0  0  0  0  0
   -2.7048    1.3687    0.3845 C   0  0  0  0  0  0  0  0  0  0  0  0
    2.8665   -0.9645   -0.1719 C   0  0  1  0  0  0  0  0  0  0  0  0
    3.8943    0.0017   -0.7723 C   0  0  0  0  0  0  0  0  0  0  0  0
   -0.3177    0.8473    0.3980 C   0  0  0  0  0  0  0  0  0  0  0  0
   -3.1237   -2.1449   -0.3183 C   0  0  0  0  0  0  0  0  0  0  0  0
    4.6558    0.8625    0.2421 C   0  0  0  0  0  0  0  0  0  0  0  0
    0.8210    0.1040   -0.1671 C   0  0  0  0  0  0  0  0  0  0  0  0
   -5.0767    1.7468    0.5250 C   0  0  0  0  0  0  0  0  0  0  0  0
    3.4759   -1.9578    0.7949 C   0  0  0  0  0  0  0  0  0  0  0  0
    5.6828    1.7911   -0.3791 C   0  0  0  0  0  0  0  0  0  0  0  0
   -3.3967   -1.3666   -2.2566 H   0  0  0  0  0  0  0  0  0  0  0  0
   -1.7453    0.3461   -2.2128 H   0  0  0  0  0  0  0  0  0  0  0  0
   -1.0011   -1.0313   -1.4169 H   0  0  0  0  0  0  0  0  0  0  0  0
   -5.1509   -0.3033   -1.0251 H   0  0  0  0  0  0  0  0  0  0  0  0
   -2.5376    2.1835    1.0826 H   0  0  0  0  0  0  0  0  0  0  0  0
    2.4215   -1.5685   -0.9754 H   0  0  0  0  0  0  0  0  0  0  0  0
    3.3896    0.6654   -1.4866 H   0  0  0  0  0  0  0  0  0  0  0  0
    4.6242   -0.5712   -1.3589 H   0  0  0  0  0  0  0  0  0  0  0  0
   -0.1398    1.4723    1.2660 H   0  0  0  0  0  0  0  0  0  0  0  0
    3.9499    1.4798    0.8105 H   0  0  0  0  0  0  0  0  0  0  0  0
    5.1832    0.2191    0.9563 H   0  0  0  0  0  0  0  0  0  0  0  0
    0.7888   -0.1229   -1.2455 H   0  0  0  0  0  0  0  0  0  0  0  0
   -2.1665   -3.8251   -0.0873 H   0  0  0  0  0  0  0  0  0  0  0  0
   -7.0136    1.7098    0.3638 H   0  0  0  0  0  0  0  0  0  0  0  0
    6.1650    2.4623    1.5552 H   0  0  0  0  0  0  0  0  0  0  0  0
    7.0537    3.2225    0.2831 H   0  0  0  0  0  0  0  0  0  0  0  0
    4.7902   -3.3974    0.8235 H   0  0  0  0  0  0  0  0  0  0  0  0
  1 19  1  0  0  0  0
  1 37  1  0  0  0  0
  2 19  2  0  0  0  0
  3 22  1  0  0  0  0
  3 38  1  0  0  0  0
  4 23  1  0  0  0  0
  4 41  1  0  0  0  0
  5 22  2  0  0  0  0
  6 23  2  0  0  0  0
  7 24  2  0  0  0  0
  8 11  1  0  0  0  0
  8 14  1  0  0  0  0
  8 28  1  0  0  0  0
  9 16  1  0  0  0  0
  9 21  2  0  0  0  0
 10 24  1  0  0  0  0
 10 39  1  0  0  0  0
 10 40  1  0  0  0  0
 11 12  1  0  0  0  0
 11 19  1  0  0  0  0
 11 25  1  0  0  0  0
 12 13  1  0  0  0  0
 12 26  1  0  0  0  0
 12 27  1  0  0  0  0
 13 15  1  0  0  0  0
 13 18  2  0  0  0  0
 14 15  2  0  0  0  0
 14 22  1  0  0  0  0
 15 29  1  0  0  0  0
 16 17  1  0  0  0  0
 16 23  1  0  0  0  0
 16 30  1  0  0  0  0
 17 20  1  0  0  0  0
 17 31  1  0  0  0  0
 17 32  1  0  0  0  0
 18 21  1  0  0  0  0
 18 33  1  0  0  0  0
 20 24  1  0  0  0  0
 20 34  1  0  0  0  0
 20 35  1  0  0  0  0
 21 36  1  0  0  0  0
M  END
> <PUBCHEM_COMPOUND_CID>
135438599

> <PUBCHEM_CONFORMER_RMSD>
1

> <PUBCHEM_CONFORMER_DIVERSEORDER>
1
8
29
18
14
11
3
13
28
31
10
20
2
27
5
21
23
15
25
16
19
9
7
22
12
6
24
30
32
26
17
4

> <PUBCHEM_MMFF94_PARTIAL_CHARGES>
32
1 -0.65
10 -0.8
11 0.43
12 0.14
13 -0.14
14 0.11
15 -0.15
16 0.31
18 -0.14
19 0.66
2 -0.57
20 0.06
21 0.38
22 0.71
23 0.66
24 0.57
28 0.4
29 0.15
3 -0.65
33 0.15
36 0.06
37 0.5
38 0.5
39 0.37
4 -0.65
40 0.37
41 0.5
5 -0.57
6 -0.57
7 -0.57
8 -0.87
9 -0.7

> <PUBCHEM_EFFECTIVE_ROTOR_COUNT>
8.6

> <PUBCHEM_PHARMACOPHORE_FEATURES>
15
1 1 acceptor
1 10 donor
1 2 acceptor
1 3 acceptor
1 4 acceptor
1 5 acceptor
1 6 acceptor
1 7 acceptor
1 8 cation
1 8 donor
1 9 acceptor
3 1 2 19 anion
3 3 5 22 anion
3 4 6 23 anion
6 8 11 12 13 14 15 rings

> <PUBCHEM_HEAVY_ATOM_COUNT>
24

> <PUBCHEM_ATOM_DEF_STEREO_COUNT>
2

> <PUBCHEM_ATOM_UDEF_STEREO_COUNT>
0

> <PUBCHEM_BOND_DEF_STEREO_COUNT>
1

> <PUBCHEM_BOND_UDEF_STEREO_COUNT>
0

> <PUBCHEM_ISOTOPIC_ATOM_COUNT>
0

> <PUBCHEM_COMPONENT_COUNT>
1

> <PUBCHEM_CACTVS_TAUTO_COUNT>
-1

> <PUBCHEM_CONFORMER_ID>
0812A10700000001

> <PUBCHEM_MMFF94_ENERGY>
49.4676

> <PUBCHEM_FEATURE_SELFOVERLAP>
76.304

> <PUBCHEM_SHAPE_FINGERPRINT>
10366900 7 14692577615140352366
10554248 39 18056186986942803373
10906281 52 17846228713484807273
12236239 1 18410575046493994789
12596602 18 18261960661332603561
12616971 3 18114171996133757866
12788726 201 17632301107764935921
13073987 5 18409168818219003547
13631057 29 18192709179239425854
13726171 33 18130519616461680688
14790565 3 18125445215865606073
19377110 9 18114457946265840072
20681677 155 18413953892749114665
23559900 14 17916307130615953726
300161 21 18409725153595696021
3004659 81 18200595779199076558
34797466 226 17274548740712985956
4073 2 18336269037202932250
5104073 3 18261108569495672538
543368 44 18412543249232367205
67856867 119 18336537262537909162
90127 26 17418085563764732952

> <PUBCHEM_SHAPE_MULTIPOLES>
437.88
15.41
3.11
1.18
8.7
1.13
-0.03
-9.07
-0.23
0.54
-0.63
0.41
0.15
-2.35

> <PUBCHEM_SHAPE_SELFOVERLAP>
901.193

> <PUBCHEM_SHAPE_VOLUME>
246.7

> <PUBCHEM_COORDINATE_TYPE>
2
5
10

$$$$
