135402037
  -OEChem-03292013293D

 31 33  0     1  0  0  0  0  0999 V2000
   -1.9512    0.7807   -0.6603 O   0  0  0  0  0  0  0  0  0  0  0  0
   -1.1809   -2.5502    0.3496 O   0  0  0  0  0  0  0  0  0  0  0  0
   -3.8146   -1.3919    1.5002 O   0  0  0  0  0  0  0  0  0  0  0  0
   -4.3469    2.2486   -0.9657 O   0  0  0  0  0  0  0  0  0  0  0  0
    4.7168    1.1866    0.7270 O   0  0  0  0  0  0  0  0  0  0  0  0
    0.3430    0.3086   -0.0174 N   0  0  0  0  0  0  0  0  0  0  0  0
    1.7991    1.7024    0.9534 N   0  0  0  0  0  0  0  0  0  0  0  0
    1.8632   -1.2938   -1.0154 N   0  0  0  0  0  0  0  0  0  0  0  0
    4.1418   -0.6922   -0.5340 N   0  0  0  0  0  0  0  0  0  0  0  0
   -1.5864   -1.2138    0.5892 C   0  0  1  0  0  0  0  0  0  0  0  0
   -0.9846   -0.2686   -0.4465 C   0  0  1  0  0  0  0  0  0  0  0  0
   -3.0698   -1.0336    0.3521 C   0  0  2  0  0  0  0  0  0  0  0  0
   -3.1499    0.4550    0.0627 C   0  0  2  0  0  0  0  0  0  0  0  0
   -4.3624    0.8449   -0.7634 C   0  0  0  0  0  0  0  0  0  0  0  0
    1.5841   -0.1832   -0.2948 C   0  0  0  0  0  0  0  0  0  0  0  0
    0.5246    1.4434    0.7353 C   0  0  0  0  0  0  0  0  0  0  0  0
    2.4546    0.6920    0.3136 C   0  0  0  0  0  0  0  0  0  0  0  0
    3.8731    0.4615    0.2150 C   0  0  0  0  0  0  0  0  0  0  0  0
    3.1463   -1.4965   -1.1007 C   0  0  0  0  0  0  0  0  0  0  0  0
   -1.3024   -0.9517    1.6148 H   0  0  0  0  0  0  0  0  0  0  0  0
   -0.7931   -0.7517   -1.4119 H   0  0  0  0  0  0  0  0  0  0  0  0
   -3.4166   -1.6423   -0.4908 H   0  0  0  0  0  0  0  0  0  0  0  0
   -3.1368    1.0468    0.9871 H   0  0  0  0  0  0  0  0  0  0  0  0
   -5.2911    0.5728   -0.2526 H   0  0  0  0  0  0  0  0  0  0  0  0
   -4.3355    0.3670   -1.7482 H   0  0  0  0  0  0  0  0  0  0  0  0
   -1.4322   -2.7886   -0.5589 H   0  0  0  0  0  0  0  0  0  0  0  0
   -3.5142   -0.8434    2.2447 H   0  0  0  0  0  0  0  0  0  0  0  0
   -0.3043    2.0353    1.0988 H   0  0  0  0  0  0  0  0  0  0  0  0
   -5.1315    2.4701   -1.4957 H   0  0  0  0  0  0  0  0  0  0  0  0
    3.5574   -2.3568   -1.6513 H   0  0  0  0  0  0  0  0  0  0  0  0
    5.1132   -0.9567   -0.6710 H   0  0  0  0  0  0  0  0  0  0  0  0
  1 11  1  0  0  0  0
  1 13  1  0  0  0  0
  2 10  1  0  0  0  0
  2 26  1  0  0  0  0
  3 12  1  0  0  0  0
  3 27  1  0  0  0  0
  4 14  1  0  0  0  0
  4 29  1  0  0  0  0
  5 18  2  0  0  0  0
  6 11  1  0  0  0  0
  6 15  1  0  0  0  0
  6 16  1  0  0  0  0
  7 16  2  0  0  0  0
  7 17  1  0  0  0  0
  8 15  1  0  0  0  0
  8 19  2  0  0  0  0
  9 18  1  0  0  0  0
  9 19  1  0  0  0  0
  9 31  1  0  0  0  0
 10 11  1  0  0  0  0
 10 12  1  0  0  0  0
 10 20  1  0  0  0  0
 11 21  1  0  0  0  0
 12 13  1  0  0  0  0
 12 22  1  0  0  0  0
 13 14  1  0  0  0  0
 13 23  1  0  0  0  0
 14 24  1  0  0  0  0
 14 25  1  0  0  0  0
 15 17  2  0  0  0  0
 16 28  1  0  0  0  0
 17 18  1  0  0  0  0
 19 30  1  0  0  0  0
M  END
> <PUBCHEM_COMPOUND_CID>
135402037

> <PUBCHEM_CONFORMER_RMSD>
0.6

> <PUBCHEM_CONFORMER_DIVERSEORDER>
1
143
26
116
110
109
49
73
101
134
96
36
111
94
48
22
56
118
55
145
15
121
136
142
68
70
105
13
131
80
82
51
92
97
144
146
102
35
79
23
38
44
124
125
45
74
141
11
66
32
33
91
18
61
128
89
84
108
14
123
86
52
31
12
6
21
93
28
62
8
129
59
2
9
104
47
81
65
99
83
3
132
58
71
10
126
4
40
127
113
78
54
130
77
120
50
112
133
122
19
137
25
39
27
37
24
87
16
7
95
75
85
90
17
88
119
103
41
114
107
67
138
5
46
100
69
98
135
57
64
115
106
60
72
139
29
20
30
42
76
34
53
43
63
140
117

> <PUBCHEM_MMFF94_PARTIAL_CHARGES>
25
1 -0.56
10 0.28
11 0.54
12 0.28
13 0.28
14 0.28
15 -0.03
16 0.04
17 0.14
18 0.72
19 0.45
2 -0.68
26 0.4
27 0.4
28 0.15
29 0.4
3 -0.68
30 0.06
31 0.37
4 -0.68
5 -0.57
6 0.05
7 -0.57
8 -0.58
9 -0.49

> <PUBCHEM_EFFECTIVE_ROTOR_COUNT>
3

> <PUBCHEM_PHARMACOPHORE_FEATURES>
13
1 1 acceptor
1 2 acceptor
1 2 donor
1 3 acceptor
1 3 donor
1 4 acceptor
1 4 donor
1 5 acceptor
1 9 donor
3 6 7 16 cation
5 1 10 11 12 13 rings
5 6 7 15 16 17 rings
6 8 9 15 17 18 19 rings

> <PUBCHEM_HEAVY_ATOM_COUNT>
19

> <PUBCHEM_ATOM_DEF_STEREO_COUNT>
0

> <PUBCHEM_ATOM_UDEF_STEREO_COUNT>
4

> <PUBCHEM_BOND_DEF_STEREO_COUNT>
0

> <PUBCHEM_BOND_UDEF_STEREO_COUNT>
0

> <PUBCHEM_ISOTOPIC_ATOM_COUNT>
0

> <PUBCHEM_COMPONENT_COUNT>
1

> <PUBCHEM_CACTVS_TAUTO_COUNT>
-1

> <PUBCHEM_CONFORMER_ID>
0812123500000001

> <PUBCHEM_MMFF94_ENERGY>
43.8455

> <PUBCHEM_FEATURE_SELFOVERLAP>
66.118

> <PUBCHEM_SHAPE_FINGERPRINT>
10608611 8 18339640143679447985
11471102 20 18059852857514816780
11796584 16 17968660406990402594
12236239 1 15574712504276093709
124424 183 18342737407694340676
12500047 106 18409442613546080655
13134695 92 17561359565442710384
13296908 3 18341900688109753974
13464514 151 18051975818985596029
13544592 145 18337958874504968662
13675066 3 18410577309487786880
14115302 16 18334023778355368198
15219456 202 18413672426256726654
15375358 24 18341890796878978180
15653759 3 18261395580542445107
16945 1 17917434263162117768
18186145 218 18340212894927288027
19049666 15 18339647745818878835
19422 9 16153432778528285307
200 152 17203322325930700125
20201158 50 18344149189404393150
20279233 1 18412827996889228638
20645477 56 18408322211466577609
20645477 70 17917991629331033262
221357 26 18129932383227943349
23402539 116 18336533980291539876
23402655 69 17988916743662190341
23526113 38 18200307710808977081
23557571 272 18187369856338120372
23559900 14 18338238168181689694
25 1 18266454313657226637
296302 2 18272932752000350304
34934 24 18272923938875242982
4072396 5 18129081382696833490
474 4 15624792038012356546
495365 180 17702927202288085168
5104073 3 18410856551266218186
6049 1 18337680805695766833
633830 44 18268984302845439029
69090 78 18272651294277914199
77492 1 15769779052287271239
8809292 202 18410862091911439146
9709674 26 18341333391465053287

> <PUBCHEM_SHAPE_MULTIPOLES>
341.74
8.84
1.99
1.05
0.28
0.24
0.04
-1.81
-0.65
0.68
0.09
0.36
0.08
2.05

> <PUBCHEM_SHAPE_SELFOVERLAP>
742.334

> <PUBCHEM_SHAPE_VOLUME>
184.7

> <PUBCHEM_COORDINATE_TYPE>
2
5
10

$$$$
