135457441
  -OEChem-03292013293D

 36 38  0     1  0  0  0  0  0999 V2000
   -5.5546   -1.6466    0.5308 Cl  0  0  0  0  0  0  0  0  0  0  0  0
    4.7823    1.4497    0.1180 P   0  0  0  0  0  0  0  0  0  0  0  0
    1.2277   -0.8037    1.0633 O   0  0  0  0  0  0  0  0  0  0  0  0
   -0.6394   -2.7446   -1.3297 O   0  0  0  0  0  0  0  0  0  0  0  0
    1.3244   -3.7395    0.3215 O   0  0  0  0  0  0  0  0  0  0  0  0
    3.7667    0.3094    0.6565 O   0  0  0  0  0  0  0  0  0  0  0  0
    5.8995    0.5925   -0.6770 O   0  0  0  0  0  0  0  0  0  0  0  0
    3.9539    2.1721   -1.0682 O   0  0  0  0  0  0  0  0  0  0  0  0
   -4.2100    3.0672   -0.4258 O   0  0  0  0  0  0  0  0  0  0  0  0
    5.3219    2.3681    1.1753 O   0  0  0  0  0  0  0  0  0  0  0  0
   -0.8618    0.0871    0.1700 N   0  0  0  0  0  0  0  0  0  0  0  0
   -1.3658    2.2239   -0.2604 N   0  0  0  0  0  0  0  0  0  0  0  0
   -3.0831   -0.8604    0.3665 N   0  0  0  0  0  0  0  0  0  0  0  0
   -4.7463    0.8404    0.0254 N   0  0  0  0  0  0  0  0  0  0  0  0
    0.3677   -1.8663   -0.8687 C   0  0  2  0  0  0  0  0  0  0  0  0
    1.6370   -2.5846   -0.4561 C   0  0  1  0  0  0  0  0  0  0  0  0
   -0.0170   -1.1404    0.4163 C   0  0  1  0  0  0  0  0  0  0  0  0
    2.2988   -1.5650    0.4621 C   0  0  1  0  0  0  0  0  0  0  0  0
    3.2126   -0.5987   -0.2791 C   0  0  0  0  0  0  0  0  0  0  0  0
   -2.2233    0.1626    0.1577 C   0  0  0  0  0  0  0  0  0  0  0  0
   -0.3917    1.3521   -0.0864 C   0  0  0  0  0  0  0  0  0  0  0  0
   -2.5008    1.4833   -0.1089 C   0  0  0  0  0  0  0  0  0  0  0  0
   -3.8722    1.9134   -0.1933 C   0  0  0  0  0  0  0  0  0  0  0  0
   -4.3267   -0.4722    0.2902 C   0  0  0  0  0  0  0  0  0  0  0  0
    0.5855   -1.1450   -1.6659 H   0  0  0  0  0  0  0  0  0  0  0  0
    2.2495   -2.9057   -1.3033 H   0  0  0  0  0  0  0  0  0  0  0  0
   -0.6035   -1.7671    1.0987 H   0  0  0  0  0  0  0  0  0  0  0  0
    2.8481   -2.0366    1.2850 H   0  0  0  0  0  0  0  0  0  0  0  0
    2.6521   -0.0290   -1.0265 H   0  0  0  0  0  0  0  0  0  0  0  0
    4.0170   -1.1486   -0.7774 H   0  0  0  0  0  0  0  0  0  0  0  0
   -0.2716   -3.2411   -2.0804 H   0  0  0  0  0  0  0  0  0  0  0  0
    2.1663   -4.1445    0.5918 H   0  0  0  0  0  0  0  0  0  0  0  0
    0.6648    1.5778   -0.1372 H   0  0  0  0  0  0  0  0  0  0  0  0
   -5.7448    1.0236   -0.0096 H   0  0  0  0  0  0  0  0  0  0  0  0
    4.3438    2.9564   -1.5098 H   0  0  0  0  0  0  0  0  0  0  0  0
    6.6908    1.0540   -1.0279 H   0  0  0  0  0  0  0  0  0  0  0  0
  1 24  1  0  0  0  0
  2  6  1  0  0  0  0
  2  7  1  0  0  0  0
  2  8  1  0  0  0  0
  2 10  2  0  0  0  0
  3 17  1  0  0  0  0
  3 18  1  0  0  0  0
  4 15  1  0  0  0  0
  4 31  1  0  0  0  0
  5 16  1  0  0  0  0
  5 32  1  0  0  0  0
  6 19  1  0  0  0  0
  7 36  1  0  0  0  0
  8 35  1  0  0  0  0
  9 23  2  0  0  0  0
 11 17  1  0  0  0  0
 11 20  1  0  0  0  0
 11 21  1  0  0  0  0
 12 21  2  0  0  0  0
 12 22  1  0  0  0  0
 13 20  1  0  0  0  0
 13 24  2  0  0  0  0
 14 23  1  0  0  0  0
 14 24  1  0  0  0  0
 14 34  1  0  0  0  0
 15 16  1  0  0  0  0
 15 17  1  0  0  0  0
 15 25  1  0  0  0  0
 16 18  1  0  0  0  0
 16 26  1  0  0  0  0
 17 27  1  0  0  0  0
 18 19  1  0  0  0  0
 18 28  1  0  0  0  0
 19 29  1  0  0  0  0
 19 30  1  0  0  0  0
 20 22  2  0  0  0  0
 21 33  1  0  0  0  0
 22 23  1  0  0  0  0
M  END
> <PUBCHEM_COMPOUND_CID>
135457441

> <PUBCHEM_CONFORMER_RMSD>
0.8

> <PUBCHEM_CONFORMER_DIVERSEORDER>
1
45
31
13
3
34
57
33
19
59
56
52
20
24
4
58
42
49
55
47
14
9
2
16
26
44
25
39
37
10
15
51
8
40
18
17
53
28
50
23
6
43
7
32
36
46
54
48
21
11
30
29
12
27
35
41
22
5
38

> <PUBCHEM_MMFF94_PARTIAL_CHARGES>
30
1 -0.21
10 -0.7
11 0.05
12 -0.57
13 -0.58
14 -0.49
15 0.28
16 0.28
17 0.54
18 0.28
19 0.28
2 1.51
20 -0.03
21 0.04
22 0.14
23 0.72
24 0.72
3 -0.56
31 0.4
32 0.4
33 0.15
34 0.37
35 0.5
36 0.5
4 -0.68
5 -0.68
6 -0.55
7 -0.77
8 -0.77
9 -0.57

> <PUBCHEM_EFFECTIVE_ROTOR_COUNT>
5

> <PUBCHEM_PHARMACOPHORE_FEATURES>
15
1 10 acceptor
1 14 donor
1 3 acceptor
1 4 acceptor
1 4 donor
1 5 acceptor
1 5 donor
1 7 acceptor
1 8 acceptor
1 9 acceptor
3 11 12 21 cation
4 2 7 8 10 anion
5 11 12 20 21 22 rings
5 3 15 16 17 18 rings
6 13 14 20 22 23 24 rings

> <PUBCHEM_HEAVY_ATOM_COUNT>
24

> <PUBCHEM_ATOM_DEF_STEREO_COUNT>
4

> <PUBCHEM_ATOM_UDEF_STEREO_COUNT>
0

> <PUBCHEM_BOND_DEF_STEREO_COUNT>
0

> <PUBCHEM_BOND_UDEF_STEREO_COUNT>
0

> <PUBCHEM_ISOTOPIC_ATOM_COUNT>
0

> <PUBCHEM_COMPONENT_COUNT>
1

> <PUBCHEM_CACTVS_TAUTO_COUNT>
-1

> <PUBCHEM_CONFORMER_ID>
0812EAA100000001

> <PUBCHEM_MMFF94_ENERGY>
17.559

> <PUBCHEM_FEATURE_SELFOVERLAP>
76.312

> <PUBCHEM_SHAPE_FINGERPRINT>
10090160 65 18260545657980736807
10411042 1 17402328673413762510
10498660 4 18412264999981609640
10906281 52 18262536861370707595
11488393 25 17701839699453030262
11578080 2 16661750082398451463
12403259 118 18335688413089796984
12788726 201 17393336824735556442
12925494 130 18340201874227037969
13590594 115 17402051591740404395
14341114 328 17313383444124159064
14528608 73 18413103948580305172
1454969 45 18341048635861289831
14787075 74 18261392307983334355
14790565 3 18340210781508615985
15196674 1 18408886200501215888
15927050 60 17258788538350412493
15961568 22 18186242809670040844
17349148 13 13045950075103733025
17980427 23 17822301188379688989
19591789 44 18195808694123058825
21065198 57 18121499047111000787
23227448 37 18199746028372263052
23559900 14 18050844416703700107
4325135 7 18334015012374660967
474 4 18113343002984268356
474229 33 18337674212562401211
5104073 3 18262521381891952465
550186 72 18337389452458436005
6442390 28 18411699911303345002
67856867 119 18262794047848871762
7808743 9 18195521713605040336
9709674 26 17909549459353462919
9981440 41 18333733532892363922

> <PUBCHEM_SHAPE_MULTIPOLES>
432.75
11.61
3.56
0.9
3.36
0.87
0.04
-6.4
-1.02
0.3
0.48
0.49
0.11
0.72

> <PUBCHEM_SHAPE_SELFOVERLAP>
905.82

> <PUBCHEM_SHAPE_VOLUME>
247.9

> <PUBCHEM_COORDINATE_TYPE>
2
5
10

$$$$
