135442584
  -OEChem-03292013293D

 27 29  0     1  0  0  0  0  0999 V2000
    3.5286   -1.4539   -0.8199 S   0  0  0  0  0  0  0  0  0  0  0  0
    2.2584    0.2020    0.8184 O   0  0  0  0  0  0  0  0  0  0  0  0
    4.3804    1.4564   -0.4875 O   0  0  0  0  0  0  0  0  0  0  0  0
   -4.3691    1.4038   -0.1901 O   0  0  0  0  0  0  0  0  0  0  0  0
   -0.0360    0.1324    0.0608 N   0  0  0  0  0  0  0  0  0  0  0  0
   -1.4333    1.8627   -0.1825 N   0  0  0  0  0  0  0  0  0  0  0  0
   -1.6206   -1.6914    0.2543 N   0  0  0  0  0  0  0  0  0  0  0  0
   -3.8721   -0.8583    0.1037 N   0  0  0  0  0  0  0  0  0  0  0  0
    1.2669   -0.6222    0.1812 C   0  0  1  0  0  0  0  0  0  0  0  0
    1.8150   -1.0371   -1.1833 C   0  0  0  0  0  0  0  0  0  0  0  0
    3.5317   -0.4443    0.6844 C   0  0  2  0  0  0  0  0  0  0  0  0
   -1.2961   -0.3872    0.0991 C   0  0  0  0  0  0  0  0  0  0  0  0
    4.6135    0.6187    0.6331 C   0  0  0  0  0  0  0  0  0  0  0  0
   -0.1706    1.4888   -0.1098 C   0  0  0  0  0  0  0  0  0  0  0  0
   -2.1295    0.6973   -0.0528 C   0  0  0  0  0  0  0  0  0  0  0  0
   -3.5563    0.4975   -0.0578 C   0  0  0  0  0  0  0  0  0  0  0  0
   -2.9108   -1.8653    0.2488 C   0  0  0  0  0  0  0  0  0  0  0  0
    1.0526   -1.4816    0.8304 H   0  0  0  0  0  0  0  0  0  0  0  0
    1.2664   -1.8786   -1.6148 H   0  0  0  0  0  0  0  0  0  0  0  0
    1.8037   -0.2047   -1.8944 H   0  0  0  0  0  0  0  0  0  0  0  0
    3.6802   -1.0952    1.5523 H   0  0  0  0  0  0  0  0  0  0  0  0
    5.6131    0.1789    0.5536 H   0  0  0  0  0  0  0  0  0  0  0  0
    4.5712    1.2458    1.5298 H   0  0  0  0  0  0  0  0  0  0  0  0
    0.6818    2.1508   -0.1787 H   0  0  0  0  0  0  0  0  0  0  0  0
   -4.8533   -1.1215    0.1153 H   0  0  0  0  0  0  0  0  0  0  0  0
   -3.3570   -2.8653    0.3635 H   0  0  0  0  0  0  0  0  0  0  0  0
    5.0796    2.1321   -0.4903 H   0  0  0  0  0  0  0  0  0  0  0  0
  1 10  1  0  0  0  0
  1 11  1  0  0  0  0
  2  9  1  0  0  0  0
  2 11  1  0  0  0  0
  3 13  1  0  0  0  0
  3 27  1  0  0  0  0
  4 16  2  0  0  0  0
  5  9  1  0  0  0  0
  5 12  1  0  0  0  0
  5 14  1  0  0  0  0
  6 14  2  0  0  0  0
  6 15  1  0  0  0  0
  7 12  1  0  0  0  0
  7 17  2  0  0  0  0
  8 16  1  0  0  0  0
  8 17  1  0  0  0  0
  8 25  1  0  0  0  0
  9 10  1  0  0  0  0
  9 18  1  0  0  0  0
 10 19  1  0  0  0  0
 10 20  1  0  0  0  0
 11 13  1  0  0  0  0
 11 21  1  0  0  0  0
 12 15  2  0  0  0  0
 13 22  1  0  0  0  0
 13 23  1  0  0  0  0
 14 24  1  0  0  0  0
 15 16  1  0  0  0  0
 17 26  1  0  0  0  0
M  END
> <PUBCHEM_COMPOUND_CID>
135442584

> <PUBCHEM_CONFORMER_RMSD>
0.6

> <PUBCHEM_CONFORMER_DIVERSEORDER>
1
13
14
10
6
4
21
17
15
20
7
2
3
18
19
11
5
8
12
16
9

> <PUBCHEM_MMFF94_PARTIAL_CHARGES>
21
1 -0.46
10 0.23
11 0.51
12 -0.03
13 0.28
14 0.04
15 0.14
16 0.72
17 0.45
2 -0.56
24 0.15
25 0.37
26 0.06
27 0.4
3 -0.68
4 -0.57
5 0.05
6 -0.57
7 -0.58
8 -0.49
9 0.54

> <PUBCHEM_EFFECTIVE_ROTOR_COUNT>
3

> <PUBCHEM_PHARMACOPHORE_FEATURES>
9
1 2 acceptor
1 3 acceptor
1 3 donor
1 4 acceptor
1 8 donor
3 5 6 14 cation
5 1 2 9 10 11 rings
5 5 6 12 14 15 rings
6 7 8 12 15 16 17 rings

> <PUBCHEM_HEAVY_ATOM_COUNT>
17

> <PUBCHEM_ATOM_DEF_STEREO_COUNT>
2

> <PUBCHEM_ATOM_UDEF_STEREO_COUNT>
0

> <PUBCHEM_BOND_DEF_STEREO_COUNT>
0

> <PUBCHEM_BOND_UDEF_STEREO_COUNT>
0

> <PUBCHEM_ISOTOPIC_ATOM_COUNT>
0

> <PUBCHEM_COMPONENT_COUNT>
1

> <PUBCHEM_CACTVS_TAUTO_COUNT>
-1

> <PUBCHEM_CONFORMER_ID>
0812B09800000001

> <PUBCHEM_MMFF94_ENERGY>
34.7486

> <PUBCHEM_FEATURE_SELFOVERLAP>
45.816

> <PUBCHEM_SHAPE_FINGERPRINT>
10014705 185 18260825990907363213
10366900 7 17704066300349918649
10608611 8 18342454794888997656
107287 299 17632860819782286430
11132069 177 18409449176187426721
11615757 297 16415478272442874386
12236239 1 17240204305175804642
13214271 11 18342451573394409535
13296908 3 18413110549955737918
13544592 145 18199757937847206487
13675066 3 17240484663207648467
15196674 1 18410855455886188883
15219456 202 18202002109988806398
15309172 13 16845573119130603614
15375358 24 18342455928475540263
16945 1 18334861563487645197
17834072 14 18411138038964280255
18175812 5 18273215274759352838
19050596 39 18260260859189456040
200 152 16845282809490417879
20279233 1 18272653428486055718
20510252 161 18270961220204232641
20528008 55 18271803497344325835
20645477 56 18334859377080493669
20645477 70 17489306322264526486
21267235 1 18335429001233829355
22854114 59 17704066313646218538
23402539 116 18336254704601783182
23557571 272 18339933696315042238
23559900 14 18340488859788408486
2748010 2 18336824316423883973
296302 2 18343865523799007303
34934 24 18336539443843328995
3545911 37 18410856547361620620
474 4 17024039335924245292
5104073 3 18410855443032832538
5374978 207 18408318861433992704
69090 78 18272926086111192175
7364860 26 18124315162324578417
77492 1 17167866339651327914
77779 3 18410856560030251250
81228 2 18264224516592064945
9709674 26 18412548699609143326

> <PUBCHEM_SHAPE_MULTIPOLES>
316.17
8.82
1.85
0.84
2.58
0.05
0.07
-0.9
-0.26
-0.53
0.18
0.64
0.13
0.67

> <PUBCHEM_SHAPE_SELFOVERLAP>
671.412

> <PUBCHEM_SHAPE_VOLUME>
179.1

> <PUBCHEM_COORDINATE_TYPE>
2
5
10

$$$$
