135492480
  -OEChem-03292013293D

 42 43  0     0  0  0  0  0  0999 V2000
   -3.7784   -1.9053   -0.0712 P   0  0  0  0  0  0  0  0  0  0  0  0
   -2.8260   -2.1922   -1.3352 O   0  0  0  0  0  0  0  0  0  0  0  0
   -3.3848   -3.0524    0.9854 O   0  0  0  0  0  0  0  0  0  0  0  0
   -5.2265   -1.7384   -0.3581 O   0  0  0  0  0  0  0  0  0  0  0  0
    5.4122   -0.2224    0.4998 O   0  0  0  0  0  0  0  0  0  0  0  0
    1.2742    1.3175   -0.4600 N   0  0  0  0  0  0  0  0  0  0  0  0
    3.3996    1.8889   -0.0621 N   0  0  0  0  0  0  0  0  0  0  0  0
    1.4177   -1.0907   -0.2627 N   0  0  0  0  0  0  0  0  0  0  0  0
    3.6642   -1.7499    0.2460 N   0  0  0  0  0  0  0  0  0  0  0  0
    1.9630   -3.3601    0.0080 N   0  0  0  0  0  0  0  0  0  0  0  0
   -2.5145    2.1076    0.2617 C   0  0  0  0  0  0  0  0  0  0  0  0
   -0.9816    1.9397    0.4617 C   0  0  0  0  0  0  0  0  0  0  0  0
   -3.1303    0.7780   -0.2645 C   0  0  0  0  0  0  0  0  0  0  0  0
   -3.1929    2.5183    1.5819 C   0  0  0  0  0  0  0  0  0  0  0  0
   -2.8077    3.1947   -0.7937 C   0  0  0  0  0  0  0  0  0  0  0  0
   -0.1939    1.4783   -0.7733 C   0  0  0  0  0  0  0  0  0  0  0  0
   -3.0138   -0.4320    0.6591 C   0  0  0  0  0  0  0  0  0  0  0  0
    1.9477    0.1521   -0.2402 C   0  0  0  0  0  0  0  0  0  0  0  0
    2.1903    2.3342   -0.3422 C   0  0  0  0  0  0  0  0  0  0  0  0
    3.2449    0.5356    0.0003 C   0  0  0  0  0  0  0  0  0  0  0  0
    4.2344   -0.4695    0.2743 C   0  0  0  0  0  0  0  0  0  0  0  0
    2.3024   -2.0321   -0.0148 C   0  0  0  0  0  0  0  0  0  0  0  0
   -0.5678    2.8992    0.8018 H   0  0  0  0  0  0  0  0  0  0  0  0
   -0.7904    1.2410    1.2865 H   0  0  0  0  0  0  0  0  0  0  0  0
   -4.2004    0.9418   -0.4545 H   0  0  0  0  0  0  0  0  0  0  0  0
   -2.7148    0.5241   -1.2465 H   0  0  0  0  0  0  0  0  0  0  0  0
   -2.4331    2.9149   -1.7837 H   0  0  0  0  0  0  0  0  0  0  0  0
   -2.3413    4.1464   -0.5154 H   0  0  0  0  0  0  0  0  0  0  0  0
   -3.8854    3.3698   -0.8910 H   0  0  0  0  0  0  0  0  0  0  0  0
   -2.9544    1.8236    2.3936 H   0  0  0  0  0  0  0  0  0  0  0  0
   -4.2827    2.5555    1.4760 H   0  0  0  0  0  0  0  0  0  0  0  0
   -2.8548    3.5115    1.8990 H   0  0  0  0  0  0  0  0  0  0  0  0
   -0.2294    2.2092   -1.5874 H   0  0  0  0  0  0  0  0  0  0  0  0
   -0.5207    0.5054   -1.1493 H   0  0  0  0  0  0  0  0  0  0  0  0
   -3.5130   -0.2464    1.6145 H   0  0  0  0  0  0  0  0  0  0  0  0
   -1.9655   -0.6677    0.8648 H   0  0  0  0  0  0  0  0  0  0  0  0
    1.9164    3.3724   -0.4709 H   0  0  0  0  0  0  0  0  0  0  0  0
   -3.0353   -2.9418   -1.9321 H   0  0  0  0  0  0  0  0  0  0  0  0
   -3.7021   -3.9686    0.8376 H   0  0  0  0  0  0  0  0  0  0  0  0
    4.2788   -2.5382    0.4276 H   0  0  0  0  0  0  0  0  0  0  0  0
    1.0105   -3.6615   -0.1668 H   0  0  0  0  0  0  0  0  0  0  0  0
    2.6520   -4.0790    0.2002 H   0  0  0  0  0  0  0  0  0  0  0  0
  1  2  1  0  0  0  0
  1  3  1  0  0  0  0
  1  4  2  0  0  0  0
  1 17  1  0  0  0  0
  2 38  1  0  0  0  0
  3 39  1  0  0  0  0
  5 21  2  0  0  0  0
  6 16  1  0  0  0  0
  6 18  1  0  0  0  0
  6 19  1  0  0  0  0
  7 19  2  0  0  0  0
  7 20  1  0  0  0  0
  8 18  1  0  0  0  0
  8 22  2  0  0  0  0
  9 21  1  0  0  0  0
  9 22  1  0  0  0  0
  9 40  1  0  0  0  0
 10 22  1  0  0  0  0
 10 41  1  0  0  0  0
 10 42  1  0  0  0  0
 11 12  1  0  0  0  0
 11 13  1  0  0  0  0
 11 14  1  0  0  0  0
 11 15  1  0  0  0  0
 12 16  1  0  0  0  0
 12 23  1  0  0  0  0
 12 24  1  0  0  0  0
 13 17  1  0  0  0  0
 13 25  1  0  0  0  0
 13 26  1  0  0  0  0
 14 30  1  0  0  0  0
 14 31  1  0  0  0  0
 14 32  1  0  0  0  0
 15 27  1  0  0  0  0
 15 28  1  0  0  0  0
 15 29  1  0  0  0  0
 16 33  1  0  0  0  0
 16 34  1  0  0  0  0
 17 35  1  0  0  0  0
 17 36  1  0  0  0  0
 18 20  2  0  0  0  0
 19 37  1  0  0  0  0
 20 21  1  0  0  0  0
M  END
> <PUBCHEM_COMPOUND_CID>
135492480

> <PUBCHEM_CONFORMER_RMSD>
0.8

> <PUBCHEM_CONFORMER_DIVERSEORDER>
1
53
22
35
34
6
46
32
31
33
9
41
55
14
26
57
10
19
18
17
11
49
23
45
21
51
40
64
67
63
8
27
15
25
68
54
29
52
12
61
3
66
58
38
44
24
39
4
20
30
13
28
47
7
42
50
62
5
43
65
60
56
48
37
2
36
16
59

> <PUBCHEM_MMFF94_PARTIAL_CHARGES>
22
1 1.24
10 -0.85
16 0.26
18 -0.03
19 0.04
2 -0.77
20 0.14
21 0.72
22 0.56
3 -0.77
37 0.15
38 0.5
39 0.5
4 -0.7
40 0.37
41 0.4
42 0.4
5 -0.57
6 0.05
7 -0.57
8 -0.58
9 -0.49

> <PUBCHEM_EFFECTIVE_ROTOR_COUNT>
6

> <PUBCHEM_PHARMACOPHORE_FEATURES>
11
1 10 donor
1 2 acceptor
1 3 acceptor
1 4 acceptor
1 5 acceptor
1 9 donor
3 11 14 15 hydrophobe
3 6 7 19 cation
4 1 2 3 4 anion
5 6 7 18 19 20 rings
6 8 9 18 20 21 22 rings

> <PUBCHEM_HEAVY_ATOM_COUNT>
22

> <PUBCHEM_ATOM_DEF_STEREO_COUNT>
0

> <PUBCHEM_ATOM_UDEF_STEREO_COUNT>
0

> <PUBCHEM_BOND_DEF_STEREO_COUNT>
0

> <PUBCHEM_BOND_UDEF_STEREO_COUNT>
0

> <PUBCHEM_ISOTOPIC_ATOM_COUNT>
0

> <PUBCHEM_COMPONENT_COUNT>
1

> <PUBCHEM_CACTVS_TAUTO_COUNT>
-1

> <PUBCHEM_CONFORMER_ID>
0813738000000001

> <PUBCHEM_MMFF94_ENERGY>
12.7733

> <PUBCHEM_FEATURE_SELFOVERLAP>
56.033

> <PUBCHEM_SHAPE_FINGERPRINT>
10616163 171 18412547600081262543
11552529 35 18201716241260467489
12422481 6 18051444828289864169
12500047 106 18264765450543607621
12553582 1 18119549845002042865
12633257 1 18122345670652801819
13004483 165 18341045324472847581
13583140 156 18059277804080402376
13631057 29 18342174500769759044
14178342 30 18339350877895741792
14251757 17 17823953733356114671
14787075 74 17698726144373689760
15099037 8 18410013256092247993
15352361 1 18337390560469781595
17492 89 18411138009074400771
19141452 34 18264210205951354341
20028762 73 18200591518449685670
20261772 1 18059574753681453302
21673915 165 18411417310870804618
221490 88 18409733975917340788
23559900 14 18410282636203988177
23622692 118 18412259558115452085
2871803 45 18337107972843034989
350125 39 18339078306655520644
46194498 28 17098606084379512127
463206 1 18124030402178109711
5104073 3 18342166723222114906
5309563 4 18121505914922365595
532947 4 17187285665540908141
5924683 9 18412543198056477225
7097593 13 18267591212469275772
9709674 26 18338802212739744223

> <PUBCHEM_SHAPE_MULTIPOLES>
408.22
9.78
4.1
0.95
2.28
1.16
-0.1
3.42
-1.06
-3.18
0
-0.81
-0.2
-0.6

> <PUBCHEM_SHAPE_SELFOVERLAP>
832.238

> <PUBCHEM_SHAPE_VOLUME>
240.6

> <PUBCHEM_COORDINATE_TYPE>
2
5
10

$$$$
