135423946
  -OEChem-03292013293D

 43 45  0     1  0  0  0  0  0999 V2000
    2.6883    0.0349    1.0675 O   0  0  0  0  0  0  0  0  0  0  0  0
    1.3528   -2.1059   -1.5041 O   0  0  0  0  0  0  0  0  0  0  0  0
    3.4439   -2.7559    0.1623 O   0  0  0  0  0  0  0  0  0  0  0  0
    4.9319    1.6960    0.8246 O   0  0  0  0  0  0  0  0  0  0  0  0
   -3.5535    2.6399   -0.3896 O   0  0  0  0  0  0  0  0  0  0  0  0
    0.4780    0.5073    0.1461 N   0  3  0  0  0  0  0  0  0  0  0  0
   -0.4927    2.4113   -0.1734 N   0  0  0  0  0  0  0  0  0  0  0  0
   -1.4928   -0.9602    0.2270 N   0  0  0  0  0  0  0  0  0  0  0  0
   -3.4770    0.3528   -0.0728 N   0  0  0  0  0  0  0  0  0  0  0  0
   -3.6081   -1.9703    0.2374 N   0  0  0  0  0  0  0  0  0  0  0  0
    1.5644   -0.5211    0.3542 C   0  0  1  0  0  0  0  0  0  0  0  0
    2.1313   -1.0618   -0.9544 C   0  0  1  0  0  0  0  0  0  0  0  0
    3.5160   -1.5130   -0.5347 C   0  0  1  0  0  0  0  0  0  0  0  0
    3.9150   -0.4356    0.4657 C   0  0  1  0  0  0  0  0  0  0  0  0
    4.6139    0.7516   -0.1826 C   0  0  0  0  0  0  0  0  0  0  0  0
   -0.8769    0.2440    0.0994 C   0  0  0  0  0  0  0  0  0  0  0  0
    0.6945    1.8165   -0.0197 C   0  0  0  0  0  0  0  0  0  0  0  0
   -1.4859    1.4648   -0.1046 C   0  0  0  0  0  0  0  0  0  0  0  0
   -2.8914    1.6209   -0.2106 C   0  0  0  0  0  0  0  0  0  0  0  0
   -0.6765    3.8331   -0.3798 C   0  0  0  0  0  0  0  0  0  0  0  0
   -2.7992   -0.8675    0.1354 C   0  0  0  0  0  0  0  0  0  0  0  0
   -4.8395   -1.9118    0.9924 C   0  0  0  0  0  0  0  0  0  0  0  0
   -3.1367   -3.2698   -0.1857 C   0  0  0  0  0  0  0  0  0  0  0  0
    1.1400   -1.3205    0.9740 H   0  0  0  0  0  0  0  0  0  0  0  0
    2.1992   -0.2553   -1.6940 H   0  0  0  0  0  0  0  0  0  0  0  0
    4.2054   -1.6379   -1.3746 H   0  0  0  0  0  0  0  0  0  0  0  0
    4.5327   -0.8291    1.2810 H   0  0  0  0  0  0  0  0  0  0  0  0
    3.9669    1.2503   -0.9111 H   0  0  0  0  0  0  0  0  0  0  0  0
    5.5393    0.4384   -0.6757 H   0  0  0  0  0  0  0  0  0  0  0  0
    1.6551    2.3064   -0.0310 H   0  0  0  0  0  0  0  0  0  0  0  0
    1.8376   -2.4585   -2.2696 H   0  0  0  0  0  0  0  0  0  0  0  0
    4.3468   -2.9855    0.4414 H   0  0  0  0  0  0  0  0  0  0  0  0
   -1.1746    3.9990   -1.3389 H   0  0  0  0  0  0  0  0  0  0  0  0
   -1.2822    4.2424    0.4332 H   0  0  0  0  0  0  0  0  0  0  0  0
    0.2934    4.3382   -0.3903 H   0  0  0  0  0  0  0  0  0  0  0  0
    5.3782    2.4415    0.3881 H   0  0  0  0  0  0  0  0  0  0  0  0
   -4.4897    0.3206   -0.1428 H   0  0  0  0  0  0  0  0  0  0  0  0
   -3.9742   -3.9250   -0.4488 H   0  0  0  0  0  0  0  0  0  0  0  0
   -5.0900   -2.8877    1.4233 H   0  0  0  0  0  0  0  0  0  0  0  0
   -4.7678   -1.2043    1.8261 H   0  0  0  0  0  0  0  0  0  0  0  0
   -2.4981   -3.1917   -1.0725 H   0  0  0  0  0  0  0  0  0  0  0  0
   -2.5637   -3.7480    0.6154 H   0  0  0  0  0  0  0  0  0  0  0  0
   -5.6687   -1.6097    0.3447 H   0  0  0  0  0  0  0  0  0  0  0  0
  1 11  1  0  0  0  0
  1 14  1  0  0  0  0
  2 12  1  0  0  0  0
  2 31  1  0  0  0  0
  3 13  1  0  0  0  0
  3 32  1  0  0  0  0
  4 15  1  0  0  0  0
  4 36  1  0  0  0  0
  5 19  2  0  0  0  0
  6 11  1  0  0  0  0
  6 16  1  0  0  0  0
  6 17  2  0  0  0  0
  7 17  1  0  0  0  0
  7 18  1  0  0  0  0
  7 20  1  0  0  0  0
  8 16  1  0  0  0  0
  8 21  2  0  0  0  0
  9 19  1  0  0  0  0
  9 21  1  0  0  0  0
  9 37  1  0  0  0  0
 10 21  1  0  0  0  0
 10 22  1  0  0  0  0
 10 23  1  0  0  0  0
 11 12  1  0  0  0  0
 11 24  1  0  0  0  0
 12 13  1  0  0  0  0
 12 25  1  0  0  0  0
 13 14  1  0  0  0  0
 13 26  1  0  0  0  0
 14 15  1  0  0  0  0
 14 27  1  0  0  0  0
 15 28  1  0  0  0  0
 15 29  1  0  0  0  0
 16 18  2  0  0  0  0
 17 30  1  0  0  0  0
 18 19  1  0  0  0  0
 20 33  1  0  0  0  0
 20 34  1  0  0  0  0
 20 35  1  0  0  0  0
 22 39  1  0  0  0  0
 22 40  1  0  0  0  0
 22 43  1  0  0  0  0
 23 38  1  0  0  0  0
 23 41  1  0  0  0  0
 23 42  1  0  0  0  0
M  CHG  1   6   1
M  END
> <PUBCHEM_COMPOUND_CID>
135423946

> <PUBCHEM_CONFORMER_RMSD>
0.8

> <PUBCHEM_CONFORMER_DIVERSEORDER>
1
8
3
12
7
13
4
9
11
5
2
14
10
6

> <PUBCHEM_MMFF94_PARTIAL_CHARGES>
28
1 -0.56
10 -0.79
11 0.79
12 0.28
13 0.28
14 0.28
15 0.28
16 0.49
17 0.65
18 0.28
19 0.7
2 -0.68
20 0.51
21 0.56
22 0.37
23 0.37
3 -0.68
30 0.15
31 0.4
32 0.4
36 0.4
37 0.37
4 -0.68
5 -0.57
6 -0.76
7 -0.76
8 -0.59
9 -0.49

> <PUBCHEM_EFFECTIVE_ROTOR_COUNT>
4

> <PUBCHEM_PHARMACOPHORE_FEATURES>
13
1 1 acceptor
1 2 acceptor
1 2 donor
1 3 acceptor
1 3 donor
1 4 acceptor
1 4 donor
1 5 acceptor
1 9 donor
3 6 7 17 cation
5 1 11 12 13 14 rings
5 6 7 16 17 18 rings
6 8 9 16 18 19 21 rings

> <PUBCHEM_HEAVY_ATOM_COUNT>
23

> <PUBCHEM_ATOM_DEF_STEREO_COUNT>
4

> <PUBCHEM_ATOM_UDEF_STEREO_COUNT>
0

> <PUBCHEM_BOND_DEF_STEREO_COUNT>
0

> <PUBCHEM_BOND_UDEF_STEREO_COUNT>
0

> <PUBCHEM_ISOTOPIC_ATOM_COUNT>
0

> <PUBCHEM_COMPONENT_COUNT>
1

> <PUBCHEM_CACTVS_TAUTO_COUNT>
-1

> <PUBCHEM_CONFORMER_ID>
081267CA00000001

> <PUBCHEM_MMFF94_ENERGY>
59.0119

> <PUBCHEM_FEATURE_SELFOVERLAP>
66.122

> <PUBCHEM_SHAPE_FINGERPRINT>
10319926 262 18266720425958121314
10616163 171 18412263909070258214
10906281 52 18190761901243843409
11405975 8 18267021661541296650
11552529 35 17917710244722936059
12173636 292 17975974263395349021
12553582 1 18266753543950143919
12633257 1 17984144755844344810
13140716 1 18268435646173705515
138480 1 15743597099602979061
14787075 74 17970346134250536866
14790565 3 17256534544098920549
15042514 8 18263650567686016227
15099037 37 18410569600058524194
15196674 1 18410573946507301490
15375358 24 18269832034351651949
17492 89 18335420115289898618
1813 80 17749679575046821751
19141452 34 18272939362435716451
19591789 44 17040643257892643885
20681677 274 18337667491492509970
21065198 57 18266739087116235338
23402539 116 18260823791994753874
23419403 2 17754145872624978453
23557571 272 18411147930595703294
23559900 14 18196367027456031306
2748010 2 18339348743328832309
34934 24 18336257973087550761
5104073 3 18340484474357358858
7364860 26 18050572034341449681
81228 2 18190758439516338825
9709674 26 18126848188101570158

> <PUBCHEM_SHAPE_MULTIPOLES>
419.08
9.01
3.83
0.87
2.69
1.24
-0.06
-3.65
1.63
-2.54
-0.58
0.31
-0.25
1.09

> <PUBCHEM_SHAPE_SELFOVERLAP>
895.355

> <PUBCHEM_SHAPE_VOLUME>
233.5

> <PUBCHEM_COORDINATE_TYPE>
2
5
10

$$$$
