135480717
  -OEChem-03292013293D

 31 32  0     0  0  0  0  0  0999 V2000
    2.0841    0.0238   -0.4848 S   0  0  0  0  0  0  0  0  0  0  0  0
    3.8401    2.5205   -0.4597 O   0  0  0  0  0  0  0  0  0  0  0  0
    4.6455   -1.6457   -0.7852 O   0  0  0  0  0  0  0  0  0  0  0  0
   -4.5771   -0.9588   -0.7108 O   0  0  0  0  0  0  0  0  0  0  0  0
   -0.2220   -0.9998    0.4918 N   0  0  0  0  0  0  0  0  0  0  0  0
   -1.9719   -2.2545   -0.1127 N   0  0  0  0  0  0  0  0  0  0  0  0
   -1.2144    1.2070    0.4268 N   0  0  0  0  0  0  0  0  0  0  0  0
   -3.5157    1.0636   -0.2244 N   0  0  0  0  0  0  0  0  0  0  0  0
   -2.5270    3.1475    0.2483 N   0  0  0  0  0  0  0  0  0  0  0  0
    3.6596    0.2556    0.3723 C   0  0  0  0  0  0  0  0  0  0  0  0
    1.1230   -0.6687    0.8964 C   0  0  0  0  0  0  0  0  0  0  0  0
   -1.2576   -0.1365    0.2870 C   0  0  0  0  0  0  0  0  0  0  0  0
   -2.3134   -0.9348   -0.0816 C   0  0  0  0  0  0  0  0  0  0  0  0
    4.5142    1.2697   -0.3875 C   0  0  0  0  0  0  0  0  0  0  0  0
    4.3803   -1.0875    0.4968 C   0  0  0  0  0  0  0  0  0  0  0  0
   -0.7010   -2.2621    0.2389 C   0  0  0  0  0  0  0  0  0  0  0  0
   -3.5824   -0.3285   -0.3754 C   0  0  0  0  0  0  0  0  0  0  0  0
   -2.3643    1.7890    0.1637 C   0  0  0  0  0  0  0  0  0  0  0  0
    3.4490    0.6619    1.3682 H   0  0  0  0  0  0  0  0  0  0  0  0
    1.0553    0.0563    1.7139 H   0  0  0  0  0  0  0  0  0  0  0  0
    1.5892   -1.5825    1.2744 H   0  0  0  0  0  0  0  0  0  0  0  0
    3.8052   -1.8124    1.0808 H   0  0  0  0  0  0  0  0  0  0  0  0
    4.7379    0.9395   -1.4083 H   0  0  0  0  0  0  0  0  0  0  0  0
    5.4643    1.4292    0.1340 H   0  0  0  0  0  0  0  0  0  0  0  0
    5.3403   -0.9474    1.0064 H   0  0  0  0  0  0  0  0  0  0  0  0
   -0.0801   -3.1436    0.3259 H   0  0  0  0  0  0  0  0  0  0  0  0
   -4.3626    1.5938   -0.4085 H   0  0  0  0  0  0  0  0  0  0  0  0
    4.4255    3.1328   -0.9371 H   0  0  0  0  0  0  0  0  0  0  0  0
    5.1165   -2.4837   -0.6393 H   0  0  0  0  0  0  0  0  0  0  0  0
   -1.7592    3.7524    0.5187 H   0  0  0  0  0  0  0  0  0  0  0  0
   -3.4176    3.5874    0.0436 H   0  0  0  0  0  0  0  0  0  0  0  0
  1 10  1  0  0  0  0
  1 11  1  0  0  0  0
  2 14  1  0  0  0  0
  2 28  1  0  0  0  0
  3 15  1  0  0  0  0
  3 29  1  0  0  0  0
  4 17  2  0  0  0  0
  5 11  1  0  0  0  0
  5 12  1  0  0  0  0
  5 16  1  0  0  0  0
  6 13  1  0  0  0  0
  6 16  2  0  0  0  0
  7 12  1  0  0  0  0
  7 18  2  0  0  0  0
  8 17  1  0  0  0  0
  8 18  1  0  0  0  0
  8 27  1  0  0  0  0
  9 18  1  0  0  0  0
  9 30  1  0  0  0  0
  9 31  1  0  0  0  0
 10 14  1  0  0  0  0
 10 15  1  0  0  0  0
 10 19  1  0  0  0  0
 11 20  1  0  0  0  0
 11 21  1  0  0  0  0
 12 13  2  0  0  0  0
 13 17  1  0  0  0  0
 14 23  1  0  0  0  0
 14 24  1  0  0  0  0
 15 22  1  0  0  0  0
 15 25  1  0  0  0  0
 16 26  1  0  0  0  0
M  END
> <PUBCHEM_COMPOUND_CID>
135480717

> <PUBCHEM_CONFORMER_RMSD>
0.6

> <PUBCHEM_CONFORMER_DIVERSEORDER>
1
59
114
106
34
172
162
105
142
93
53
181
49
119
117
17
12
68
186
70
47
134
156
10
82
161
23
146
144
101
178
29
145
107
171
18
154
182
121
90
109
41
133
79
183
52
9
60
127
57
135
40
95
118
166
108
84
158
50
185
113
30
100
136
81
44
14
19
8
151
27
64
97
88
170
115
31
86
67
157
13
179
61
167
71
111
173
143
132
102
148
55
177
155
6
75
3
35
150
69
42
66
137
124
32
63
159
85
33
110
184
65
58
176
91
87
138
147
20
169
76
126
149
140
92
7
26
160
28
130
25
174
38
125
72
2
62
16
11
89
4
80
163
120
128
96
164
5
51
165
46
180
83
15
112
22
153
56
48
122
98
43
168
74
116
73
24
21
36
54
152
39
37
99
77
129
103
104
78
131
141
45
139
94
175
123

> <PUBCHEM_MMFF94_PARTIAL_CHARGES>
24
1 -0.46
10 0.23
11 0.49
12 -0.03
13 0.14
14 0.28
15 0.28
16 0.04
17 0.72
18 0.56
2 -0.68
26 0.15
27 0.37
28 0.4
29 0.4
3 -0.68
30 0.4
31 0.4
4 -0.57
5 0.05
6 -0.57
7 -0.58
8 -0.49
9 -0.85

> <PUBCHEM_EFFECTIVE_ROTOR_COUNT>
5

> <PUBCHEM_PHARMACOPHORE_FEATURES>
10
1 2 acceptor
1 2 donor
1 3 acceptor
1 3 donor
1 4 acceptor
1 8 donor
1 9 donor
3 5 6 16 cation
5 5 6 12 13 16 rings
6 7 8 12 13 17 18 rings

> <PUBCHEM_HEAVY_ATOM_COUNT>
18

> <PUBCHEM_ATOM_DEF_STEREO_COUNT>
0

> <PUBCHEM_ATOM_UDEF_STEREO_COUNT>
0

> <PUBCHEM_BOND_DEF_STEREO_COUNT>
0

> <PUBCHEM_BOND_UDEF_STEREO_COUNT>
0

> <PUBCHEM_ISOTOPIC_ATOM_COUNT>
0

> <PUBCHEM_COMPONENT_COUNT>
1

> <PUBCHEM_CACTVS_TAUTO_COUNT>
-1

> <PUBCHEM_CONFORMER_ID>
0813458D00000001

> <PUBCHEM_MMFF94_ENERGY>
33.7315

> <PUBCHEM_FEATURE_SELFOVERLAP>
50.925

> <PUBCHEM_SHAPE_FINGERPRINT>
12107183 9 17903912258879149706
12173636 292 18411693292378498638
12403260 363 18410848833315546346
12916748 109 18408325488336662146
14790565 3 18412550882096225057
15196674 1 18409729560253227541
15442244 35 18335983082712507752
17492 89 18336830891924758634
17834072 32 18192992621448308073
1813 80 13542460977443805010
18186145 218 17749104504848853434
20300324 65 18343861130427232671
20510252 161 18342459231558553289
20645477 56 18336265738377891962
20645477 70 18343868810177534974
21524375 3 18188493449794485243
21637258 2 15410313551919922487
23366157 5 17973161725526142459
23402539 116 18342165670586102175
23557571 272 18191876840716309030
23559900 14 18343300362723522570
2838139 119 16662582434402368149
351380 180 18413103957470705676
3545911 37 18337392742465947396
4028521 119 18333725836141800005
4214541 1 18410575068010756396
474 4 17458628981835218916
5104073 3 18409167718664853818
559249 180 18195241123233603274
58051976 100 18335703827938977198
67856867 119 18264761229360460400
9709674 26 18342182146128596494
9981440 41 17466790807104463864

> <PUBCHEM_SHAPE_MULTIPOLES>
331.77
9.53
2.68
0.79
7.09
1.27
0.01
1.12
-1.82
-0.65
0
0.23
-0.08
-0.54

> <PUBCHEM_SHAPE_SELFOVERLAP>
683.998

> <PUBCHEM_SHAPE_VOLUME>
192.7

> <PUBCHEM_COORDINATE_TYPE>
2
5
10

$$$$
