135431427
  -OEChem-03292013293D

 26 27  0     1  0  0  0  0  0999 V2000
   -4.9243    0.4685   -0.6281 Cl  0  0  0  0  0  0  0  0  0  0  0  0
   -3.0575   -0.7985    1.3695 O   0  0  0  0  0  0  0  0  0  0  0  0
    0.0412    2.1602   -0.3827 O   0  0  0  0  0  0  0  0  0  0  0  0
   -0.5711   -0.8087   -0.4174 N   0  0  0  0  0  0  0  0  0  0  0  0
    1.0054   -2.3575   -0.1194 N   0  0  0  0  0  0  0  0  0  0  0  0
    2.2265    1.4955    0.0003 N   0  0  0  0  0  0  0  0  0  0  0  0
    2.9103   -0.7992    0.1660 N   0  0  0  0  0  0  0  0  0  0  0  0
    4.4661    0.9358    0.3884 N   0  0  0  0  0  0  0  0  0  0  0  0
   -1.8806   -0.2483   -0.6487 C   0  0  0  0  0  0  0  0  0  0  0  0
   -2.5135    0.3001    0.6372 C   0  0  1  0  0  0  0  0  0  0  0  0
    0.5996   -0.1322   -0.2367 C   0  0  0  0  0  0  0  0  0  0  0  0
    1.5552   -1.1044   -0.0548 C   0  0  0  0  0  0  0  0  0  0  0  0
   -0.2758   -2.1448   -0.3382 C   0  0  0  0  0  0  0  0  0  0  0  0
   -3.6374    1.2794    0.3035 C   0  0  0  0  0  0  0  0  0  0  0  0
    0.8690    1.2696   -0.2228 C   0  0  0  0  0  0  0  0  0  0  0  0
    3.1869    0.4847    0.1840 C   0  0  0  0  0  0  0  0  0  0  0  0
   -1.7542    0.5377   -1.4020 H   0  0  0  0  0  0  0  0  0  0  0  0
   -2.4908   -1.0417   -1.0968 H   0  0  0  0  0  0  0  0  0  0  0  0
   -1.7767    0.7957    1.2774 H   0  0  0  0  0  0  0  0  0  0  0  0
   -1.0297   -2.9130   -0.4453 H   0  0  0  0  0  0  0  0  0  0  0  0
   -4.1057    1.6491    1.2205 H   0  0  0  0  0  0  0  0  0  0  0  0
   -3.2743    2.1312   -0.2788 H   0  0  0  0  0  0  0  0  0  0  0  0
    2.5437    2.4601    0.0320 H   0  0  0  0  0  0  0  0  0  0  0  0
   -3.7612   -1.1988    0.8307 H   0  0  0  0  0  0  0  0  0  0  0  0
    5.2341    0.2890    0.5314 H   0  0  0  0  0  0  0  0  0  0  0  0
    4.6819    1.9266    0.4025 H   0  0  0  0  0  0  0  0  0  0  0  0
  1 14  1  0  0  0  0
  2 10  1  0  0  0  0
  2 24  1  0  0  0  0
  3 15  2  0  0  0  0
  4  9  1  0  0  0  0
  4 11  1  0  0  0  0
  4 13  1  0  0  0  0
  5 12  1  0  0  0  0
  5 13  2  0  0  0  0
  6 15  1  0  0  0  0
  6 16  1  0  0  0  0
  6 23  1  0  0  0  0
  7 12  1  0  0  0  0
  7 16  2  0  0  0  0
  8 16  1  0  0  0  0
  8 25  1  0  0  0  0
  8 26  1  0  0  0  0
  9 10  1  0  0  0  0
  9 17  1  0  0  0  0
  9 18  1  0  0  0  0
 10 14  1  0  0  0  0
 10 19  1  0  0  0  0
 11 12  2  0  0  0  0
 11 15  1  0  0  0  0
 13 20  1  0  0  0  0
 14 21  1  0  0  0  0
 14 22  1  0  0  0  0
M  END
> <PUBCHEM_COMPOUND_CID>
135431427

> <PUBCHEM_CONFORMER_RMSD>
0.6

> <PUBCHEM_CONFORMER_DIVERSEORDER>
1
12
20
8
21
24
28
26
22
16
27
10
23
19
17
25
3
2
11
6
14
5
18
15
7
4
13
9

> <PUBCHEM_MMFF94_PARTIAL_CHARGES>
21
1 -0.29
10 0.28
11 -0.24
12 0.35
13 0.04
14 0.29
15 0.71
16 0.56
2 -0.68
20 0.15
23 0.37
24 0.4
25 0.4
26 0.4
3 -0.57
4 0.05
5 -0.57
6 -0.49
7 -0.57
8 -0.85
9 0.26

> <PUBCHEM_EFFECTIVE_ROTOR_COUNT>
3

> <PUBCHEM_PHARMACOPHORE_FEATURES>
8
1 2 acceptor
1 2 donor
1 3 acceptor
1 6 donor
1 8 donor
3 4 5 13 cation
5 4 5 11 12 13 rings
6 6 7 11 12 15 16 rings

> <PUBCHEM_HEAVY_ATOM_COUNT>
16

> <PUBCHEM_ATOM_DEF_STEREO_COUNT>
0

> <PUBCHEM_ATOM_UDEF_STEREO_COUNT>
1

> <PUBCHEM_BOND_DEF_STEREO_COUNT>
0

> <PUBCHEM_BOND_UDEF_STEREO_COUNT>
0

> <PUBCHEM_ISOTOPIC_ATOM_COUNT>
0

> <PUBCHEM_COMPONENT_COUNT>
1

> <PUBCHEM_CACTVS_TAUTO_COUNT>
-1

> <PUBCHEM_CONFORMER_ID>
0812850300000001

> <PUBCHEM_MMFF94_ENERGY>
27.4378

> <PUBCHEM_FEATURE_SELFOVERLAP>
40.766

> <PUBCHEM_SHAPE_FINGERPRINT>
10219947 1 18410295787240068587
10967382 1 18411136900813718972
10980938 120 18339081493046058975
11132069 177 18409448098182257946
11471102 20 18410570656557123660
11471102 22 18262254286159728275
12236239 1 17775562023193850933
12251169 10 18261117421433617227
12382932 28 18409451375205472707
124424 183 17822291267036740177
13140716 1 18193267714546371512
13380535 76 18409166615011524411
14251717 144 18412539882341334959
14897335 6 18343298176078831775
15309172 13 18410857689221489170
15375358 24 18187645773990925913
15775835 57 18060419114476952929
16945 1 18410004455825116694
18186145 218 17988658396931062766
200 152 18201431498441145327
20201158 50 18261959548782871681
20279233 1 17968100802715569659
20645477 70 18270115704257371023
21524375 3 18272369806167946575
23402539 116 18130496534974888647
23402655 69 18271235024828100149
2748010 2 18122052105865191164
4072396 5 18189879968332667016
528886 8 18412257359223889850
53812653 166 18413386544669976568
7364860 26 18129104415863085078
83771 10 9079114466782346383

> <PUBCHEM_SHAPE_MULTIPOLES>
294.5
7.29
2.05
0.81
3.73
0.5
0.11
-2.7
0.59
-0.72
-0.15
0.57
0.06
0.16

> <PUBCHEM_SHAPE_SELFOVERLAP>
617.356

> <PUBCHEM_SHAPE_VOLUME>
168.1

> <PUBCHEM_COORDINATE_TYPE>
2
5
10

$$$$
