135426834
  -OEChem-03292013293D

 33 35  0     0  0  0  0  0  0999 V2000
   -5.1005   -0.9075    0.0679 O   0  0  0  0  0  0  0  0  0  0  0  0
   -1.0659   -3.3099   -0.1176 O   0  0  0  0  0  0  0  0  0  0  0  0
    0.6115    3.7368    0.0120 O   0  0  0  0  0  0  0  0  0  0  0  0
    4.2869   -1.0321    0.8466 O   0  0  0  0  0  0  0  0  0  0  0  0
   -4.9209    1.6785    0.2340 O   0  0  0  0  0  0  0  0  0  0  0  0
    3.3864   -1.8200   -1.1353 O   0  0  0  0  0  0  0  0  0  0  0  0
    0.5169   -1.0141   -0.1162 N   0  0  0  0  0  0  0  0  0  0  0  0
   -0.7919    1.4462    0.0043 N   0  0  0  0  0  0  0  0  0  0  0  0
    1.3115    0.1061   -0.1171 C   0  0  0  0  0  0  0  0  0  0  0  0
   -0.8543   -0.9407   -0.0595 C   0  0  0  0  0  0  0  0  0  0  0  0
   -1.4875    0.2500   -0.0011 C   0  0  0  0  0  0  0  0  0  0  0  0
    0.5063    1.3793   -0.0495 C   0  0  0  0  0  0  0  0  0  0  0  0
    2.6507    0.2148   -0.1679 C   0  0  0  0  0  0  0  0  0  0  0  0
   -2.9574    0.3161    0.0588 C   0  0  0  0  0  0  0  0  0  0  0  0
   -1.6222   -2.2176   -0.0646 C   0  0  0  0  0  0  0  0  0  0  0  0
    1.2442    2.6932   -0.0428 C   0  0  0  0  0  0  0  0  0  0  0  0
   -3.7166   -0.9390    0.0536 C   0  0  0  0  0  0  0  0  0  0  0  0
    3.3393    1.4868   -0.1606 C   0  0  0  0  0  0  0  0  0  0  0  0
   -3.1021   -2.1289   -0.0037 C   0  0  0  0  0  0  0  0  0  0  0  0
    2.7143    2.6656   -0.1031 C   0  0  0  0  0  0  0  0  0  0  0  0
    3.4713   -1.0064   -0.2347 C   0  0  0  0  0  0  0  0  0  0  0  0
   -3.5741    1.5114    0.1712 C   0  0  0  0  0  0  0  0  0  0  0  0
    5.1539   -2.1684    0.9252 C   0  0  0  0  0  0  0  0  0  0  0  0
    0.9536   -1.9266   -0.1590 H   0  0  0  0  0  0  0  0  0  0  0  0
    4.4247    1.4749   -0.2127 H   0  0  0  0  0  0  0  0  0  0  0  0
   -3.6519   -3.0639   -0.0200 H   0  0  0  0  0  0  0  0  0  0  0  0
    3.2553    3.6038   -0.1021 H   0  0  0  0  0  0  0  0  0  0  0  0
   -3.0690    2.4682    0.2057 H   0  0  0  0  0  0  0  0  0  0  0  0
   -5.4354   -1.8205    0.0502 H   0  0  0  0  0  0  0  0  0  0  0  0
   -5.0914    2.6338    0.3056 H   0  0  0  0  0  0  0  0  0  0  0  0
    5.7550   -2.0750    1.8336 H   0  0  0  0  0  0  0  0  0  0  0  0
    5.8247   -2.1936    0.0611 H   0  0  0  0  0  0  0  0  0  0  0  0
    4.5665   -3.0897    0.9860 H   0  0  0  0  0  0  0  0  0  0  0  0
  1 17  1  0  0  0  0
  1 29  1  0  0  0  0
  2 15  2  0  0  0  0
  3 16  2  0  0  0  0
  4 21  1  0  0  0  0
  4 23  1  0  0  0  0
  5 22  1  0  0  0  0
  5 30  1  0  0  0  0
  6 21  2  0  0  0  0
  7  9  1  0  0  0  0
  7 10  1  0  0  0  0
  7 24  1  0  0  0  0
  8 11  1  0  0  0  0
  8 12  2  0  0  0  0
  9 12  1  0  0  0  0
  9 13  2  0  0  0  0
 10 11  2  0  0  0  0
 10 15  1  0  0  0  0
 11 14  1  0  0  0  0
 12 16  1  0  0  0  0
 13 18  1  0  0  0  0
 13 21  1  0  0  0  0
 14 17  1  0  0  0  0
 14 22  2  0  0  0  0
 15 19  1  0  0  0  0
 16 20  1  0  0  0  0
 17 19  2  0  0  0  0
 18 20  2  0  0  0  0
 18 25  1  0  0  0  0
 19 26  1  0  0  0  0
 20 27  1  0  0  0  0
 22 28  1  0  0  0  0
 23 31  1  0  0  0  0
 23 32  1  0  0  0  0
 23 33  1  0  0  0  0
M  END
> <PUBCHEM_COMPOUND_CID>
135426834

> <PUBCHEM_CONFORMER_RMSD>
0.6

> <PUBCHEM_CONFORMER_DIVERSEORDER>
1
3
2

> <PUBCHEM_MMFF94_PARTIAL_CHARGES>
29
1 -0.53
10 0.11
11 0.17
12 0.44
13 0.01
15 0.54
16 0.56
17 0.08
18 -0.15
19 -0.14
2 -0.57
20 -0.14
21 0.71
22 -0.07
23 0.28
24 0.4
25 0.15
26 0.15
27 0.15
28 0.15
29 0.45
3 -0.57
30 0.45
4 -0.43
5 -0.53
6 -0.57
7 -0.6
8 -0.62
9 0.11

> <PUBCHEM_EFFECTIVE_ROTOR_COUNT>
2

> <PUBCHEM_PHARMACOPHORE_FEATURES>
11
1 1 donor
1 2 acceptor
1 3 acceptor
1 5 donor
1 6 acceptor
1 7 cation
1 7 donor
1 8 acceptor
6 10 11 14 15 17 19 rings
6 7 8 9 10 11 12 rings
6 9 12 13 16 18 20 rings

> <PUBCHEM_HEAVY_ATOM_COUNT>
23

> <PUBCHEM_ATOM_DEF_STEREO_COUNT>
0

> <PUBCHEM_ATOM_UDEF_STEREO_COUNT>
0

> <PUBCHEM_BOND_DEF_STEREO_COUNT>
1

> <PUBCHEM_BOND_UDEF_STEREO_COUNT>
0

> <PUBCHEM_ISOTOPIC_ATOM_COUNT>
0

> <PUBCHEM_COMPONENT_COUNT>
1

> <PUBCHEM_CACTVS_TAUTO_COUNT>
-1

> <PUBCHEM_CONFORMER_ID>
0812731200000001

> <PUBCHEM_MMFF94_ENERGY>
69.8694

> <PUBCHEM_FEATURE_SELFOVERLAP>
55.894

> <PUBCHEM_SHAPE_FINGERPRINT>
10608611 8 18267586995133137973
10616163 171 17979921832113567870
10967382 1 18339364187635388516
1100329 8 18410011005159658809
11578080 2 16842751922717800059
116883 192 18270126686799762244
12107183 9 18266460910479489601
12403259 226 18335697273892639253
12403260 363 18341326773542669479
12553582 1 18339370677853335766
12633257 1 18410858720045288846
13140716 1 18410853261410855088
138480 1 18410292545157347820
14022347 108 18265346005968460126
14178342 30 17980184607161238128
14223421 5 18050572046946308935
14466204 15 18266176137025573345
14790565 3 18123202211654858628
14866123 147 17550115757567621170
15042514 8 17904757774894381242
15099037 51 18337953385631553797
15196674 1 18410576197402662349
15256400 18 18412826876177239881
15442244 35 18410855490272197096
15536298 74 18341615965984754228
16945 1 18123472949228315613
17349148 13 18131632296337691079
17492 89 18265895945975870675
17804303 29 18409172099294137623
1813 80 17313379024771473604
19591789 44 18337674122547254133
20028762 73 18201716263168555287
20600515 1 18200037222754865580
21267235 1 18410301319205925306
21501502 16 18339361997175544444
21859007 373 17824235156255738493
221490 88 18263934404367368362
2334 1 18339082708590407964
23366157 5 18042967764842576068
23402539 116 18271515395222651623
23558518 356 18190182471770263851
23559900 14 18270116941218215568
3004659 81 18187934933038922670
335352 9 18338234860582001373
34934 24 18411136970140084452
350125 39 18410580613135535825
3680242 22 18264493888208588979
4409770 3 17754721746135278980
5104073 3 18412268354482645177
6138700 20 18266179418207182950
7097593 13 18337668749532513388
7364860 26 18268713994651796204
7832392 63 18339643450894001684
9709674 26 18266464402161352159
9981440 41 17398948765873849184

> <PUBCHEM_SHAPE_MULTIPOLES>
428.15
9.1
3.65
0.7
1.19
0.97
0
-3.07
-1.27
-1.28
-0.04
-0.46
-0.2
-0.57

> <PUBCHEM_SHAPE_SELFOVERLAP>
949.717

> <PUBCHEM_SHAPE_VOLUME>
226.1

> <PUBCHEM_COORDINATE_TYPE>
2
5
10

$$$$
