135408752
  -OEChem-03292013293D

 47 49  0     0  0  0  0  0  0999 V2000
   -6.0247    0.6045   -0.4609 S   0  0  0  0  0  0  0  0  0  0  0  0
   -1.6776   -3.1859    0.7753 O   0  0  0  0  0  0  0  0  0  0  0  0
   -6.3049    1.4058    0.9362 O   0  0  0  0  0  0  0  0  0  0  0  0
   -5.5196    1.5802   -1.4160 O   0  0  0  0  0  0  0  0  0  0  0  0
   -7.2016   -0.1932   -0.7680 O   0  0  0  0  0  0  0  0  0  0  0  0
    5.3333    0.5386   -0.9800 O   0  0  0  0  0  0  0  0  0  0  0  0
    4.6853    0.7521    1.1882 O   0  0  0  0  0  0  0  0  0  0  0  0
   -1.0428   -0.6122   -0.1526 N   0  0  0  0  0  0  0  0  0  0  0  0
   -0.6863    0.6804   -0.0180 N   0  0  0  0  0  0  0  0  0  0  0  0
    1.5021   -0.0263   -0.5225 N   0  0  0  0  0  0  0  0  0  0  0  0
    1.9682   -0.5361    0.5217 N   0  0  0  0  0  0  0  0  0  0  0  0
   -4.7333   -0.5129   -0.0970 C   0  0  0  0  0  0  0  0  0  0  0  0
   -2.3735   -1.0163    0.0239 C   0  0  0  0  0  0  0  0  0  0  0  0
   -3.4048   -0.1235   -0.2674 C   0  0  0  0  0  0  0  0  0  0  0  0
   -2.6707   -2.2985    0.4856 C   0  0  0  0  0  0  0  0  0  0  0  0
   -5.0306   -1.7951    0.3648 C   0  0  0  0  0  0  0  0  0  0  0  0
   -3.9993   -2.6879    0.6562 C   0  0  0  0  0  0  0  0  0  0  0  0
    1.0770    2.3389   -0.0421 C   0  0  0  0  0  0  0  0  0  0  0  0
    0.5872    0.9790   -0.2004 C   0  0  0  0  0  0  0  0  0  0  0  0
    0.4544    3.2046    0.8569 C   0  0  0  0  0  0  0  0  0  0  0  0
    2.1708    2.7769   -0.7884 C   0  0  0  0  0  0  0  0  0  0  0  0
    2.8752   -1.5547    0.1854 C   0  0  0  0  0  0  0  0  0  0  0  0
    4.2300   -1.2769    0.0047 C   0  0  0  0  0  0  0  0  0  0  0  0
    0.9256    4.5087    1.0096 C   0  0  0  0  0  0  0  0  0  0  0  0
    2.6421    4.0809   -0.6358 C   0  0  0  0  0  0  0  0  0  0  0  0
    2.4042   -2.8587    0.0321 C   0  0  0  0  0  0  0  0  0  0  0  0
    5.1140   -2.3029   -0.3291 C   0  0  0  0  0  0  0  0  0  0  0  0
    2.0194    4.9467    0.2633 C   0  0  0  0  0  0  0  0  0  0  0  0
    3.2882   -3.8849   -0.3016 C   0  0  0  0  0  0  0  0  0  0  0  0
    4.6431   -3.6069   -0.4822 C   0  0  0  0  0  0  0  0  0  0  0  0
    4.7498    0.0757    0.1583 C   0  0  0  0  0  0  0  0  0  0  0  0
   -3.1777    0.8761   -0.6290 H   0  0  0  0  0  0  0  0  0  0  0  0
   -6.0571   -2.1183    0.5129 H   0  0  0  0  0  0  0  0  0  0  0  0
   -4.2453   -3.6832    1.0168 H   0  0  0  0  0  0  0  0  0  0  0  0
   -0.3252   -1.3282   -0.1320 H   0  0  0  0  0  0  0  0  0  0  0  0
   -0.3952    2.8828    1.4537 H   0  0  0  0  0  0  0  0  0  0  0  0
    2.6670    2.1242   -1.5017 H   0  0  0  0  0  0  0  0  0  0  0  0
    0.4418    5.1826    1.7107 H   0  0  0  0  0  0  0  0  0  0  0  0
    3.4929    4.4225   -1.2180 H   0  0  0  0  0  0  0  0  0  0  0  0
    1.3513   -3.0879    0.1723 H   0  0  0  0  0  0  0  0  0  0  0  0
    6.1733   -2.1029   -0.4695 H   0  0  0  0  0  0  0  0  0  0  0  0
    2.3864    5.9620    0.3821 H   0  0  0  0  0  0  0  0  0  0  0  0
   -2.0750   -4.0197    1.0800 H   0  0  0  0  0  0  0  0  0  0  0  0
    2.9216   -4.9004   -0.4203 H   0  0  0  0  0  0  0  0  0  0  0  0
    5.3314   -4.4061   -0.7411 H   0  0  0  0  0  0  0  0  0  0  0  0
   -7.0153    2.0883    0.8942 H   0  0  0  0  0  0  0  0  0  0  0  0
    5.6771    1.4507   -0.8688 H   0  0  0  0  0  0  0  0  0  0  0  0
  1  3  1  0  0  0  0
  1  4  2  0  0  0  0
  1  5  2  0  0  0  0
  1 12  1  0  0  0  0
  2 15  1  0  0  0  0
  2 43  1  0  0  0  0
  3 46  1  0  0  0  0
  6 31  1  0  0  0  0
  6 47  1  0  0  0  0
  7 31  2  0  0  0  0
  8  9  1  0  0  0  0
  8 13  1  0  0  0  0
  8 35  1  0  0  0  0
  9 19  2  0  0  0  0
 10 11  2  0  0  0  0
 10 19  1  0  0  0  0
 11 22  1  0  0  0  0
 12 14  2  0  0  0  0
 12 16  1  0  0  0  0
 13 14  1  0  0  0  0
 13 15  2  0  0  0  0
 14 32  1  0  0  0  0
 15 17  1  0  0  0  0
 16 17  2  0  0  0  0
 16 33  1  0  0  0  0
 17 34  1  0  0  0  0
 18 19  1  0  0  0  0
 18 20  2  0  0  0  0
 18 21  1  0  0  0  0
 20 24  1  0  0  0  0
 20 36  1  0  0  0  0
 21 25  2  0  0  0  0
 21 37  1  0  0  0  0
 22 23  1  0  0  0  0
 22 26  2  0  0  0  0
 23 27  2  0  0  0  0
 23 31  1  0  0  0  0
 24 28  2  0  0  0  0
 24 38  1  0  0  0  0
 25 28  1  0  0  0  0
 25 39  1  0  0  0  0
 26 29  1  0  0  0  0
 26 40  1  0  0  0  0
 27 30  1  0  0  0  0
 27 41  1  0  0  0  0
 28 42  1  0  0  0  0
 29 30  2  0  0  0  0
 29 44  1  0  0  0  0
 30 45  1  0  0  0  0
M  END
> <PUBCHEM_COMPOUND_CID>
135408752

> <PUBCHEM_CONFORMER_RMSD>
1

> <PUBCHEM_CONFORMER_DIVERSEORDER>
3
70
45
11
36
41
67
59
31
24
37
40
58
30
46
47
26
53
60
44
54
62
20
18
56
51
64
15
75
61
52
4
28
63
38
71
7
14
21
39
6
55
57
48
12
73
17
34
69
43
33
32
29
25
22
66
9
16
74
19
50
49
42
1
35
72
23
8
65
2
5
68
10
27
13

> <PUBCHEM_MMFF94_PARTIAL_CHARGES>
47
1 1.49
10 -0.21
11 -0.18
12 -0.01
13 0.1
14 -0.15
15 0.08
16 -0.15
17 -0.15
18 0.09
19 0.57
2 -0.53
20 -0.15
21 -0.15
22 0.18
23 0.09
24 -0.15
25 -0.15
26 -0.15
27 -0.15
28 -0.15
29 -0.15
3 -0.68
30 -0.15
31 0.63
32 0.15
33 0.15
34 0.15
35 0.4
36 0.15
37 0.15
38 0.15
39 0.15
4 -0.65
40 0.15
41 0.15
42 0.15
43 0.45
44 0.15
45 0.15
46 0.5
47 0.5
5 -0.65
6 -0.65
7 -0.57
8 -0.46
9 -0.49

> <PUBCHEM_EFFECTIVE_ROTOR_COUNT>
7

> <PUBCHEM_PHARMACOPHORE_FEATURES>
13
1 2 donor
1 3 acceptor
1 4 acceptor
1 5 acceptor
1 6 acceptor
1 7 acceptor
1 8 donor
3 6 7 31 anion
3 9 10 19 cation
4 1 3 4 5 anion
6 12 13 14 15 16 17 rings
6 18 20 21 24 25 28 rings
6 22 23 26 27 29 30 rings

> <PUBCHEM_HEAVY_ATOM_COUNT>
31

> <PUBCHEM_ATOM_DEF_STEREO_COUNT>
0

> <PUBCHEM_ATOM_UDEF_STEREO_COUNT>
0

> <PUBCHEM_BOND_DEF_STEREO_COUNT>
1

> <PUBCHEM_BOND_UDEF_STEREO_COUNT>
0

> <PUBCHEM_ISOTOPIC_ATOM_COUNT>
0

> <PUBCHEM_COMPONENT_COUNT>
1

> <PUBCHEM_CACTVS_TAUTO_COUNT>
-1

> <PUBCHEM_CONFORMER_ID>
08122C7000000003

> <PUBCHEM_MMFF94_ENERGY>
95.6806

> <PUBCHEM_FEATURE_SELFOVERLAP>
66.089

> <PUBCHEM_SHAPE_FINGERPRINT>
10864689 126 18267594670962330828
1100329 8 18267592308198016233
11135609 187 18119257401017339092
12107183 9 18270130002857425921
12128747 34 18334294305661089901
12166972 35 18202559567211546665
12516196 113 18341046328730570238
12788726 201 18046907074096495082
13004483 165 18268421339812059938
138480 1 18411141363717444514
140371 6 18412832364960685040
14725015 67 18051969226074569162
14866123 147 17547293298224013770
15081414 286 18411711979929487794
15131766 46 15838976864781310114
15183329 4 18335981965894923379
15351339 4 17825941525572257467
15664445 248 18270697441051535084
15775530 1 17971720446022919068
15927050 60 17548138183675501860
16087824 20 18122347878772855193
16112460 7 18269003003286351505
21120745 212 18125460630814305516
21133410 127 17825096259019219741
21279426 13 18263921030393168359
21304303 172 18127979602677972184
21859007 373 17604685821720689229
23559900 14 18412257372330351067
24771750 20 17972611149352136076
3004659 81 18114464457653246278
3103668 31 17901949634740046269
4015057 19 18410847781475839887
4144715 1 18261962946297357395
437815 12 18338233756928452143
5104073 3 18189336947729191057
6004065 56 18412535522939610055
6443956 14 18410012161059963424
9981440 41 17762331814219453417

> <PUBCHEM_SHAPE_MULTIPOLES>
586.68
14.4
6.23
0.92
19.03
5.05
0
-6.1
2.03
-7.39
-0.69
0.22
0.36
1.05

> <PUBCHEM_SHAPE_SELFOVERLAP>
1263.299

> <PUBCHEM_SHAPE_VOLUME>
321.3

> <PUBCHEM_COORDINATE_TYPE>
2
5
10

$$$$
