135480707
  -OEChem-03292013293D

 31 33  0     1  0  0  0  0  0999 V2000
   -4.0209    0.7180    1.4827 O   0  0  0  0  0  0  0  0  0  0  0  0
   -3.7106    0.9982   -1.5409 O   0  0  0  0  0  0  0  0  0  0  0  0
    4.4136   -0.1373   -0.0193 O   0  0  0  0  0  0  0  0  0  0  0  0
    0.0669   -1.3701    0.0124 N   0  0  0  0  0  0  0  0  0  0  0  0
    2.1817   -2.0975   -0.0095 N   0  0  0  0  0  0  0  0  0  0  0  0
    0.4210    1.0244    0.0213 N   0  0  0  0  0  0  0  0  0  0  0  0
    2.7656    1.5171    0.0034 N   0  0  0  0  0  0  0  0  0  0  0  0
    1.1725    3.2505    0.0256 N   0  0  0  0  0  0  0  0  0  0  0  0
   -1.4444   -1.4225    0.0248 C   0  0  0  0  0  0  0  0  0  0  0  0
   -2.0976   -0.7292    1.2388 C   0  0  0  0  0  0  0  0  0  0  0  0
   -2.0655   -0.7586   -1.2177 C   0  0  0  0  0  0  0  0  0  0  0  0
   -2.9012    0.4323    0.6640 C   0  0  1  0  0  0  0  0  0  0  0  0
   -3.3266   -0.0773   -0.7040 C   0  0  1  0  0  0  0  0  0  0  0  0
    0.8534   -0.2560    0.0112 C   0  0  0  0  0  0  0  0  0  0  0  0
    0.9119   -2.4530   -0.0004 C   0  0  0  0  0  0  0  0  0  0  0  0
    2.1412   -0.7345   -0.0023 C   0  0  0  0  0  0  0  0  0  0  0  0
    3.2356    0.1963   -0.0073 C   0  0  0  0  0  0  0  0  0  0  0  0
    1.4033    1.8993    0.0172 C   0  0  0  0  0  0  0  0  0  0  0  0
   -1.6868   -2.4927    0.0438 H   0  0  0  0  0  0  0  0  0  0  0  0
   -2.7645   -1.4350    1.7506 H   0  0  0  0  0  0  0  0  0  0  0  0
   -1.3770   -0.3850    1.9881 H   0  0  0  0  0  0  0  0  0  0  0  0
   -1.3985   -0.0326   -1.6964 H   0  0  0  0  0  0  0  0  0  0  0  0
   -2.3063   -1.5013   -1.9866 H   0  0  0  0  0  0  0  0  0  0  0  0
   -2.3000    1.3442    0.5778 H   0  0  0  0  0  0  0  0  0  0  0  0
   -4.1676   -0.7763   -0.6255 H   0  0  0  0  0  0  0  0  0  0  0  0
    0.5457   -3.4706   -0.0026 H   0  0  0  0  0  0  0  0  0  0  0  0
   -3.6849    0.9552    2.3639 H   0  0  0  0  0  0  0  0  0  0  0  0
   -3.8779    0.6325   -2.4262 H   0  0  0  0  0  0  0  0  0  0  0  0
    3.4596    2.2591    0.0010 H   0  0  0  0  0  0  0  0  0  0  0  0
    0.2286    3.6215    0.0356 H   0  0  0  0  0  0  0  0  0  0  0  0
    1.9361    3.9177    0.0222 H   0  0  0  0  0  0  0  0  0  0  0  0
  1 12  1  0  0  0  0
  1 27  1  0  0  0  0
  2 13  1  0  0  0  0
  2 28  1  0  0  0  0
  3 17  2  0  0  0  0
  4  9  1  0  0  0  0
  4 14  1  0  0  0  0
  4 15  1  0  0  0  0
  5 15  2  0  0  0  0
  5 16  1  0  0  0  0
  6 14  1  0  0  0  0
  6 18  2  0  0  0  0
  7 17  1  0  0  0  0
  7 18  1  0  0  0  0
  7 29  1  0  0  0  0
  8 18  1  0  0  0  0
  8 30  1  0  0  0  0
  8 31  1  0  0  0  0
  9 10  1  0  0  0  0
  9 11  1  0  0  0  0
  9 19  1  0  0  0  0
 10 12  1  0  0  0  0
 10 20  1  0  0  0  0
 10 21  1  0  0  0  0
 11 13  1  0  0  0  0
 11 22  1  0  0  0  0
 11 23  1  0  0  0  0
 12 13  1  0  0  0  0
 12 24  1  0  0  0  0
 13 25  1  0  0  0  0
 14 16  2  0  0  0  0
 15 26  1  0  0  0  0
 16 17  1  0  0  0  0
M  END
> <PUBCHEM_COMPOUND_CID>
135480707

> <PUBCHEM_CONFORMER_RMSD>
0.6

> <PUBCHEM_CONFORMER_DIVERSEORDER>
3
6
9
12
11
5
1
2
8
4
10
7

> <PUBCHEM_MMFF94_PARTIAL_CHARGES>
22
1 -0.68
12 0.28
13 0.28
14 -0.03
15 0.04
16 0.14
17 0.72
18 0.56
2 -0.68
26 0.15
27 0.4
28 0.4
29 0.37
3 -0.57
30 0.4
31 0.4
4 0.05
5 -0.57
6 -0.58
7 -0.49
8 -0.85
9 0.26

> <PUBCHEM_EFFECTIVE_ROTOR_COUNT>
2

> <PUBCHEM_PHARMACOPHORE_FEATURES>
11
1 1 acceptor
1 1 donor
1 2 acceptor
1 2 donor
1 3 acceptor
1 7 donor
1 8 donor
3 4 5 15 cation
5 4 5 14 15 16 rings
5 9 10 11 12 13 rings
6 6 7 14 16 17 18 rings

> <PUBCHEM_HEAVY_ATOM_COUNT>
18

> <PUBCHEM_ATOM_DEF_STEREO_COUNT>
2

> <PUBCHEM_ATOM_UDEF_STEREO_COUNT>
0

> <PUBCHEM_BOND_DEF_STEREO_COUNT>
0

> <PUBCHEM_BOND_UDEF_STEREO_COUNT>
0

> <PUBCHEM_ISOTOPIC_ATOM_COUNT>
0

> <PUBCHEM_COMPONENT_COUNT>
1

> <PUBCHEM_CACTVS_TAUTO_COUNT>
-1

> <PUBCHEM_CONFORMER_ID>
0813458300000003

> <PUBCHEM_MMFF94_ENERGY>
42.4727

> <PUBCHEM_FEATURE_SELFOVERLAP>
56.001

> <PUBCHEM_SHAPE_FINGERPRINT>
10366900 7 17894922870574404963
104564 63 18196942063083517652
10608611 8 18261668272453427759
10967382 1 18410856542776509474
10980938 120 18410292488805717390
11471102 20 18409725132252715334
11578080 2 12686214218982363639
11640471 11 17560818584431143995
12236239 1 17703790297689043843
124424 183 17967806150462878746
12654215 9 18334569127569733516
13132413 78 18343026553630718360
13140716 1 18266744760451587616
15653759 3 17167583799643819915
15775835 57 17917999356203889331
16945 1 18410856559756048514
18186145 218 18341618165276905316
18219364 16 18333452049541534491
19049666 15 17750513971207328771
193761 8 17834395614701284138
200 152 18201431541243592991
20233049 118 18187359926763914412
21524375 3 18264208186989450250
21639500 275 18339350946472566247
22094290 62 18339080505330259336
231179 274 18186793665053104134
2334 1 17978510067852403236
23419403 2 14500239985779442267
23493267 7 17385721396199029920
23598291 2 17916864587226938959
238 59 17902750242196734981
25 1 18335420153511424735
2748010 2 18121785199116880814
350125 39 18049169061519579122
474 4 18340205292687598129
63268167 104 18412259519481793307
74978 22 18267866262332933286
77492 1 17703505515439984591
7832392 63 18344150284478498923
81228 2 17544190485205651058
9981440 41 17121397946225912576

> <PUBCHEM_SHAPE_MULTIPOLES>
327.92
6.52
2.45
1.03
1.18
0.81
0.01
1.35
0.02
-1.54
0.01
1.37
0.08
0

> <PUBCHEM_SHAPE_SELFOVERLAP>
714.85

> <PUBCHEM_SHAPE_VOLUME>
179.3

> <PUBCHEM_COORDINATE_TYPE>
2
5
10

$$$$
