135430345
  -OEChem-03292013293D

 57 60  0     0  0  0  0  0  0999 V2000
   -4.4893   -1.6893   -0.0491 O   0  0  0  0  0  0  0  0  0  0  0  0
   -2.1368   -3.0269   -1.1217 O   0  0  0  0  0  0  0  0  0  0  0  0
    3.7355    3.8391   -0.1596 O   0  0  0  0  0  0  0  0  0  0  0  0
    4.8867   -0.0662    0.2991 O   0  0  0  0  0  0  0  0  0  0  0  0
    5.5204    1.8508   -0.8066 O   0  0  0  0  0  0  0  0  0  0  0  0
   -0.7994    2.4159   -0.0401 N   0  0  0  0  0  0  0  0  0  0  0  0
    0.0040   -0.2030   -0.1637 N   0  0  0  0  0  0  0  0  0  0  0  0
   -0.9749   -2.7534    0.8663 N   0  0  0  0  0  0  0  0  0  0  0  0
    1.4483   -5.5313    0.3332 N   0  0  0  0  0  0  0  0  0  0  0  0
   -1.7268    1.4373   -0.0404 C   0  0  0  0  0  0  0  0  0  0  0  0
   -1.3010    0.1049   -0.1038 C   0  0  0  0  0  0  0  0  0  0  0  0
   -3.1094    1.7241    0.0214 C   0  0  0  0  0  0  0  0  0  0  0  0
   -2.2410   -0.9164   -0.1051 C   0  0  0  0  0  0  0  0  0  0  0  0
   -4.0555    0.6714    0.0188 C   0  0  0  0  0  0  0  0  0  0  0  0
   -3.6049   -0.6465   -0.0450 C   0  0  0  0  0  0  0  0  0  0  0  0
    0.9153    0.7803   -0.1630 C   0  0  0  0  0  0  0  0  0  0  0  0
    0.5067    2.1130   -0.1001 C   0  0  0  0  0  0  0  0  0  0  0  0
   -1.7981   -2.3085   -0.1698 C   0  0  0  0  0  0  0  0  0  0  0  0
   -3.5982    3.0464    0.0870 C   0  0  0  0  0  0  0  0  0  0  0  0
   -0.4369   -4.0933    0.9319 C   0  0  0  0  0  0  0  0  0  0  0  0
   -5.4301    0.9566    0.0800 C   0  0  0  0  0  0  0  0  0  0  0  0
    0.9108   -4.1808    0.2309 C   0  0  0  0  0  0  0  0  0  0  0  0
    2.2765    0.4872   -0.2248 C   0  0  0  0  0  0  0  0  0  0  0  0
    1.4690    3.1208   -0.1003 C   0  0  0  0  0  0  0  0  0  0  0  0
   -4.9670    3.3171    0.1476 C   0  0  0  0  0  0  0  0  0  0  0  0
   -5.8823    2.2726    0.1441 C   0  0  0  0  0  0  0  0  0  0  0  0
    3.2351    1.4986   -0.2248 C   0  0  0  0  0  0  0  0  0  0  0  0
    2.8290    2.8230   -0.1623 C   0  0  0  0  0  0  0  0  0  0  0  0
    0.8110   -6.4162   -0.6440 C   0  0  0  0  0  0  0  0  0  0  0  0
    2.8999   -5.5254    0.1407 C   0  0  0  0  0  0  0  0  0  0  0  0
    4.6462    1.1454   -0.2880 C   0  0  0  0  0  0  0  0  0  0  0  0
    4.2144    4.2775    1.1108 C   0  0  0  0  0  0  0  0  0  0  0  0
    6.2429   -0.5248    0.3006 C   0  0  0  0  0  0  0  0  0  0  0  0
   -2.9131    3.8923    0.0919 H   0  0  0  0  0  0  0  0  0  0  0  0
   -0.3378   -4.3446    1.9939 H   0  0  0  0  0  0  0  0  0  0  0  0
   -1.1728   -4.7733    0.4922 H   0  0  0  0  0  0  0  0  0  0  0  0
   -6.1730    0.1618    0.0791 H   0  0  0  0  0  0  0  0  0  0  0  0
    0.8401   -3.8443   -0.8121 H   0  0  0  0  0  0  0  0  0  0  0  0
    1.5809   -3.4677    0.7311 H   0  0  0  0  0  0  0  0  0  0  0  0
   -0.7285   -2.1089    1.6121 H   0  0  0  0  0  0  0  0  0  0  0  0
    2.5721   -0.5591   -0.2869 H   0  0  0  0  0  0  0  0  0  0  0  0
    1.1536    4.1618   -0.0520 H   0  0  0  0  0  0  0  0  0  0  0  0
   -5.3144    4.3449    0.1974 H   0  0  0  0  0  0  0  0  0  0  0  0
   -6.9471    2.4806    0.1911 H   0  0  0  0  0  0  0  0  0  0  0  0
   -4.0334   -2.5449   -0.0726 H   0  0  0  0  0  0  0  0  0  0  0  0
   -0.2644   -6.5109   -0.4660 H   0  0  0  0  0  0  0  0  0  0  0  0
    1.2197   -7.4300   -0.5607 H   0  0  0  0  0  0  0  0  0  0  0  0
    3.3891   -4.9161    0.9090 H   0  0  0  0  0  0  0  0  0  0  0  0
    3.1837   -5.1354   -0.8436 H   0  0  0  0  0  0  0  0  0  0  0  0
    3.3062   -6.5380    0.2417 H   0  0  0  0  0  0  0  0  0  0  0  0
    0.9632   -6.0744   -1.6745 H   0  0  0  0  0  0  0  0  0  0  0  0
    4.6859    3.4537    1.6559 H   0  0  0  0  0  0  0  0  0  0  0  0
    3.3948    4.6976    1.7023 H   0  0  0  0  0  0  0  0  0  0  0  0
    4.9612    5.0586    0.9440 H   0  0  0  0  0  0  0  0  0  0  0  0
    6.2728   -1.4972    0.7992 H   0  0  0  0  0  0  0  0  0  0  0  0
    6.8767    0.1749    0.8533 H   0  0  0  0  0  0  0  0  0  0  0  0
    6.6017   -0.6436   -0.7260 H   0  0  0  0  0  0  0  0  0  0  0  0
  1 15  1  0  0  0  0
  1 45  1  0  0  0  0
  2 18  2  0  0  0  0
  3 28  1  0  0  0  0
  3 32  1  0  0  0  0
  4 31  1  0  0  0  0
  4 33  1  0  0  0  0
  5 31  2  0  0  0  0
  6 10  2  0  0  0  0
  6 17  1  0  0  0  0
  7 11  2  0  0  0  0
  7 16  1  0  0  0  0
  8 18  1  0  0  0  0
  8 20  1  0  0  0  0
  8 40  1  0  0  0  0
  9 22  1  0  0  0  0
  9 29  1  0  0  0  0
  9 30  1  0  0  0  0
 10 11  1  0  0  0  0
 10 12  1  0  0  0  0
 11 13  1  0  0  0  0
 12 14  1  0  0  0  0
 12 19  2  0  0  0  0
 13 15  2  0  0  0  0
 13 18  1  0  0  0  0
 14 15  1  0  0  0  0
 14 21  2  0  0  0  0
 16 17  2  0  0  0  0
 16 23  1  0  0  0  0
 17 24  1  0  0  0  0
 19 25  1  0  0  0  0
 19 34  1  0  0  0  0
 20 22  1  0  0  0  0
 20 35  1  0  0  0  0
 20 36  1  0  0  0  0
 21 26  1  0  0  0  0
 21 37  1  0  0  0  0
 22 38  1  0  0  0  0
 22 39  1  0  0  0  0
 23 27  2  0  0  0  0
 23 41  1  0  0  0  0
 24 28  2  0  0  0  0
 24 42  1  0  0  0  0
 25 26  2  0  0  0  0
 25 43  1  0  0  0  0
 26 44  1  0  0  0  0
 27 28  1  0  0  0  0
 27 31  1  0  0  0  0
 29 46  1  0  0  0  0
 29 47  1  0  0  0  0
 29 51  1  0  0  0  0
 30 48  1  0  0  0  0
 30 49  1  0  0  0  0
 30 50  1  0  0  0  0
 32 52  1  0  0  0  0
 32 53  1  0  0  0  0
 32 54  1  0  0  0  0
 33 55  1  0  0  0  0
 33 56  1  0  0  0  0
 33 57  1  0  0  0  0
M  END
> <PUBCHEM_COMPOUND_CID>
135430345

> <PUBCHEM_CONFORMER_RMSD>
1

> <PUBCHEM_CONFORMER_DIVERSEORDER>
1
3
5
6
9
14
11
15
4
2
12
10
13
8
7

> <PUBCHEM_MMFF94_PARTIAL_CHARGES>
39
1 -0.53
10 0.31
11 0.31
13 0.09
15 0.08
16 0.31
17 0.31
18 0.54
19 -0.15
2 -0.57
20 0.3
21 -0.15
22 0.27
23 -0.15
24 -0.15
25 -0.15
26 -0.15
27 0.09
28 0.08
29 0.27
3 -0.36
30 0.27
31 0.63
32 0.28
33 0.28
34 0.15
37 0.15
4 -0.43
40 0.37
41 0.15
42 0.15
43 0.15
44 0.15
45 0.45
5 -0.57
6 -0.62
7 -0.62
8 -0.73
9 -0.81

> <PUBCHEM_EFFECTIVE_ROTOR_COUNT>
8

> <PUBCHEM_PHARMACOPHORE_FEATURES>
12
1 1 donor
1 2 acceptor
1 3 acceptor
1 5 acceptor
1 6 acceptor
1 7 acceptor
1 8 donor
1 9 cation
6 10 11 12 13 14 15 rings
6 12 14 19 21 25 26 rings
6 16 17 23 24 27 28 rings
6 6 7 10 11 16 17 rings

> <PUBCHEM_HEAVY_ATOM_COUNT>
33

> <PUBCHEM_ATOM_DEF_STEREO_COUNT>
0

> <PUBCHEM_ATOM_UDEF_STEREO_COUNT>
0

> <PUBCHEM_BOND_DEF_STEREO_COUNT>
0

> <PUBCHEM_BOND_UDEF_STEREO_COUNT>
0

> <PUBCHEM_ISOTOPIC_ATOM_COUNT>
0

> <PUBCHEM_COMPONENT_COUNT>
1

> <PUBCHEM_CACTVS_TAUTO_COUNT>
-1

> <PUBCHEM_CONFORMER_ID>
081280C900000001

> <PUBCHEM_MMFF94_ENERGY>
118.9186

> <PUBCHEM_FEATURE_SELFOVERLAP>
61.004

> <PUBCHEM_SHAPE_FINGERPRINT>
10411042 1 16681474625205585142
10940486 97 17972890425711747140
1100329 8 17904767678968101163
11049842 53 18042995157800820134
11297010 23 18267289946958473461
11578080 2 16445017610791796053
12107183 9 18337387137254558368
12788726 201 17831003998959670235
13140716 1 18411698798500906265
138480 1 17905327329922214011
14028597 1 17774176608557327689
14068700 686 17406835554533147944
14394314 77 17691412910406061840
14659021 117 17765419229806004242
14725015 67 18197495349392522295
14790565 3 18409731759492981849
14844126 61 17614274889563302155
14937079 2 17761213211947634905
14955137 171 17689442581749074947
15196674 1 18339643455094562605
15320467 1 18266177236743468266
15400415 2 18410293657185242532
15439362 3 18119809115177739917
15684970 41 17477516122364013307
15927050 60 18411983538148614775
15961568 22 17331962725127861871
16719943 64 18409167744503637762
20642791 35 18050290267090977431
20775438 99 16112298133495568207
21133410 171 16971620231077531122
21133410 221 15887653004510104882
21344244 246 18265601101656589103
21796203 349 17259665476567519705
22311459 1 18338516318168488956
23516275 137 18117581543173832530
23559900 14 18272937081317322676
283562 15 18197497531899838923
335352 9 18410856546882268252
3380486 145 17326348012928048683
3383291 50 18266735968501097554
3882209 13 16973889670010372034
4073 2 18192150623887069424
5104073 3 18341054119849179849
5265222 85 18335998552953022020
5385378 56 18267031557415264257
6700243 42 16827044389850869060
9709674 26 18050852418391270356
9981440 41 18336264656341572017

> <PUBCHEM_SHAPE_MULTIPOLES>
629.85
11.67
8.55
0.76
1.22
13.97
0.04
-9.44
0.38
-9.38
0.51
-0.22
0.13
-0.17

> <PUBCHEM_SHAPE_SELFOVERLAP>
1389.983

> <PUBCHEM_SHAPE_VOLUME>
340.7

> <PUBCHEM_COORDINATE_TYPE>
2
5
10

$$$$
