135426831
  -OEChem-03292013293D

 32 33  0     0  0  0  0  0  0999 V2000
   -0.8223   -2.3303    0.8275 O   0  0  0  0  0  0  0  0  0  0  0  0
    0.8223   -2.3303   -0.8275 O   0  0  0  0  0  0  0  0  0  0  0  0
    3.5514    2.3101    0.8265 O   0  0  0  0  0  0  0  0  0  0  0  0
   -3.5514    2.3101   -0.8265 O   0  0  0  0  0  0  0  0  0  0  0  0
   -0.8282    2.1417   -0.8013 O   0  0  0  0  0  0  0  0  0  0  0  0
    0.8281    2.1416    0.8013 O   0  0  0  0  0  0  0  0  0  0  0  0
   -3.5482   -2.1359    0.7985 O   0  0  0  0  0  0  0  0  0  0  0  0
    3.5482   -2.1359   -0.7985 O   0  0  0  0  0  0  0  0  0  0  0  0
   -0.7228   -0.0937    0.0105 C   0  0  0  0  0  0  0  0  0  0  0  0
    0.7228   -0.0937   -0.0105 C   0  0  0  0  0  0  0  0  0  0  0  0
   -1.4369   -1.1633    0.4103 C   0  0  0  0  0  0  0  0  0  0  0  0
    1.4369   -1.1633   -0.4103 C   0  0  0  0  0  0  0  0  0  0  0  0
    1.4401    1.1425    0.4298 C   0  0  0  0  0  0  0  0  0  0  0  0
   -1.4401    1.1425   -0.4297 C   0  0  0  0  0  0  0  0  0  0  0  0
    3.6277    0.0852    0.0142 C   0  0  0  0  0  0  0  0  0  0  0  0
   -3.6277    0.0852   -0.0142 C   0  0  0  0  0  0  0  0  0  0  0  0
   -2.9229    1.1504   -0.4135 C   0  0  0  0  0  0  0  0  0  0  0  0
    2.9229    1.1505    0.4135 C   0  0  0  0  0  0  0  0  0  0  0  0
    2.9236   -1.1451   -0.4265 C   0  0  0  0  0  0  0  0  0  0  0  0
   -2.9236   -1.1452    0.4264 C   0  0  0  0  0  0  0  0  0  0  0  0
   -5.1282    0.0384    0.0235 C   0  0  0  0  0  0  0  0  0  0  0  0
    5.1282    0.0385   -0.0235 C   0  0  0  0  0  0  0  0  0  0  0  0
   -5.5000   -0.7623   -0.6245 H   0  0  0  0  0  0  0  0  0  0  0  0
   -5.5899    0.9720   -0.3125 H   0  0  0  0  0  0  0  0  0  0  0  0
   -5.4772   -0.1505    1.0443 H   0  0  0  0  0  0  0  0  0  0  0  0
    5.5001   -0.7622    0.6247 H   0  0  0  0  0  0  0  0  0  0  0  0
    5.5898    0.9721    0.3125 H   0  0  0  0  0  0  0  0  0  0  0  0
    5.4772   -0.1505   -1.0442 H   0  0  0  0  0  0  0  0  0  0  0  0
   -1.5229   -2.9614    1.0665 H   0  0  0  0  0  0  0  0  0  0  0  0
    1.5229   -2.9614   -1.0665 H   0  0  0  0  0  0  0  0  0  0  0  0
    2.8587    2.9488    1.0684 H   0  0  0  0  0  0  0  0  0  0  0  0
   -2.8587    2.9488   -1.0684 H   0  0  0  0  0  0  0  0  0  0  0  0
  1 11  1  0  0  0  0
  1 29  1  0  0  0  0
  2 12  1  0  0  0  0
  2 30  1  0  0  0  0
  3 18  1  0  0  0  0
  3 31  1  0  0  0  0
  4 17  1  0  0  0  0
  4 32  1  0  0  0  0
  5 14  2  0  0  0  0
  6 13  2  0  0  0  0
  7 20  2  0  0  0  0
  8 19  2  0  0  0  0
  9 10  1  0  0  0  0
  9 11  2  0  0  0  0
  9 14  1  0  0  0  0
 10 12  2  0  0  0  0
 10 13  1  0  0  0  0
 11 20  1  0  0  0  0
 12 19  1  0  0  0  0
 13 18  1  0  0  0  0
 14 17  1  0  0  0  0
 15 18  2  0  0  0  0
 15 19  1  0  0  0  0
 15 22  1  0  0  0  0
 16 17  2  0  0  0  0
 16 20  1  0  0  0  0
 16 21  1  0  0  0  0
 21 23  1  0  0  0  0
 21 24  1  0  0  0  0
 21 25  1  0  0  0  0
 22 26  1  0  0  0  0
 22 27  1  0  0  0  0
 22 28  1  0  0  0  0
M  END
> <PUBCHEM_COMPOUND_CID>
135426831

> <PUBCHEM_CONFORMER_RMSD>
0.6

> <PUBCHEM_CONFORMER_DIVERSEORDER>
1
2

> <PUBCHEM_MMFF94_PARTIAL_CHARGES>
26
1 -0.53
10 0.01
11 0.09
12 0.09
13 0.54
14 0.54
15 -0.12
16 -0.12
17 0.09
18 0.09
19 0.54
2 -0.53
20 0.54
21 0.14
22 0.14
29 0.45
3 -0.53
30 0.45
31 0.45
32 0.45
4 -0.53
5 -0.57
6 -0.57
7 -0.57
8 -0.57
9 0.01

> <PUBCHEM_EFFECTIVE_ROTOR_COUNT>
1

> <PUBCHEM_PHARMACOPHORE_FEATURES>
10
1 1 donor
1 2 donor
1 3 donor
1 4 donor
1 5 acceptor
1 6 acceptor
1 7 acceptor
1 8 acceptor
6 10 12 13 15 18 19 rings
6 9 11 14 16 17 20 rings

> <PUBCHEM_HEAVY_ATOM_COUNT>
22

> <PUBCHEM_ATOM_DEF_STEREO_COUNT>
0

> <PUBCHEM_ATOM_UDEF_STEREO_COUNT>
0

> <PUBCHEM_BOND_DEF_STEREO_COUNT>
0

> <PUBCHEM_BOND_UDEF_STEREO_COUNT>
0

> <PUBCHEM_ISOTOPIC_ATOM_COUNT>
0

> <PUBCHEM_COMPONENT_COUNT>
1

> <PUBCHEM_CACTVS_TAUTO_COUNT>
-1

> <PUBCHEM_CONFORMER_ID>
0812730F00000001

> <PUBCHEM_MMFF94_ENERGY>
64.8811

> <PUBCHEM_FEATURE_SELFOVERLAP>
50.841

> <PUBCHEM_SHAPE_FINGERPRINT>
10608611 8 18410570686616866624
10646746 165 18334010597000522568
10759866 29 18041002830500508342
10967382 1 18411699893669340366
1100329 8 14231515465505686112
11132069 177 18261672662042035313
11471102 20 18272088284041495614
12011746 2 18410575101853497943
12403259 226 18410572885639849350
12403259 415 18410570690912067789
13140716 1 18410573946496745867
13402501 40 18410856563934769866
14386348 63 18410857659151436834
14866123 147 16758042892735254970
15196674 1 18410575084663078915
15219456 202 18412262847901891721
15536298 74 18342176669865289645
15848702 151 17774448178685403191
16945 1 18410855460128161798
17357779 13 18263348348012166911
17804303 29 18337113474585579177
18186145 218 18262798445668321493
19049666 15 18410575058893281810
19141452 34 18341899627880767663
200 152 17703788115771778443
20510252 161 18410854331143133105
20645477 70 17917431986644971510
21249577 43 18410293613986610313
21267235 1 18410864256221385378
21279426 13 18194402178005799932
221357 26 18342453708378446381
221490 88 18411987957527050118
22182313 1 18410856563940031876
23175994 123 17847066592394261112
23402539 116 18334288803496941903
23557571 272 18186801365871658157
23559900 14 18266457612403580678
2748010 2 18410574002331326948
3323516 105 18340487772559951485
335352 9 18410575071788726884
350125 39 18410579525907598652
3524813 1 18410851062087198288
495365 180 17917415545225150248
5104073 3 18410575041713406856
69090 78 18342735234905359527
8809292 202 18335707108840011931
9709674 26 18411982433782363254

> <PUBCHEM_SHAPE_MULTIPOLES>
405.8
8.71
2.56
0.84
0
0.03
0
-0.36
0
0
0
0
0
1.58

> <PUBCHEM_SHAPE_SELFOVERLAP>
894.935

> <PUBCHEM_SHAPE_VOLUME>
214

> <PUBCHEM_COORDINATE_TYPE>
2
5
10

$$$$
