135435112
  -OEChem-03292013293D

 37 39  0     1  0  0  0  0  0999 V2000
    0.7899   -3.7576   -0.3637 S   0  0  0  0  0  0  0  0  0  0  0  0
   -1.6633    0.0692   -1.2266 O   0  0  0  0  0  0  0  0  0  0  0  0
   -2.2222   -2.3795    1.3329 O   0  0  0  0  0  0  0  0  0  0  0  0
   -4.1487   -1.3121   -0.2757 O   0  0  0  0  0  0  0  0  0  0  0  0
   -3.5461    2.7177    0.3627 O   0  0  0  0  0  0  0  0  0  0  0  0
    4.3389    0.7761    0.3428 O   0  0  0  0  0  0  0  0  0  0  0  0
    0.1773   -1.0397   -0.3059 N   0  0  0  0  0  0  0  0  0  0  0  0
    2.3833   -1.4922   -0.0364 N   0  0  0  0  0  0  0  0  0  0  0  0
    0.3073    1.3929   -0.1633 N   0  0  0  0  0  0  0  0  0  0  0  0
    2.5128    2.1974    0.1713 N   0  0  0  0  0  0  0  0  0  0  0  0
    0.7187    3.6969    0.0095 N   0  0  0  0  0  0  0  0  0  0  0  0
   -1.2439   -1.0959   -0.4974 C   0  0  1  0  0  0  0  0  0  0  0  0
   -2.0075   -1.0824    0.8156 C   0  0  1  0  0  0  0  0  0  0  0  0
   -3.3000   -0.3999    0.4205 C   0  0  1  0  0  0  0  0  0  0  0  0
   -2.8170    0.6453   -0.5759 C   0  0  1  0  0  0  0  0  0  0  0  0
   -2.3887    1.9506    0.0810 C   0  0  0  0  0  0  0  0  0  0  0  0
    0.8707    0.1489   -0.1526 C   0  0  0  0  0  0  0  0  0  0  0  0
    1.1117   -2.1268   -0.2376 C   0  0  0  0  0  0  0  0  0  0  0  0
    2.1697   -0.1337    0.0055 C   0  0  0  0  0  0  0  0  0  0  0  0
    3.1374    0.9533    0.1911 C   0  0  0  0  0  0  0  0  0  0  0  0
    3.6825   -2.1207    0.1039 C   0  0  0  0  0  0  0  0  0  0  0  0
    1.1373    2.3921   -0.0018 C   0  0  0  0  0  0  0  0  0  0  0  0
   -1.4943   -1.9789   -1.0952 H   0  0  0  0  0  0  0  0  0  0  0  0
   -1.4824   -0.4907    1.5751 H   0  0  0  0  0  0  0  0  0  0  0  0
   -3.8593   -0.0013    1.2717 H   0  0  0  0  0  0  0  0  0  0  0  0
   -3.5694    0.8424   -1.3484 H   0  0  0  0  0  0  0  0  0  0  0  0
   -1.7975    2.5383   -0.6236 H   0  0  0  0  0  0  0  0  0  0  0  0
   -1.8380    1.8038    1.0133 H   0  0  0  0  0  0  0  0  0  0  0  0
   -2.8070   -2.2929    2.1049 H   0  0  0  0  0  0  0  0  0  0  0  0
   -4.9483   -0.8239   -0.5367 H   0  0  0  0  0  0  0  0  0  0  0  0
    4.1031   -1.8576    1.0789 H   0  0  0  0  0  0  0  0  0  0  0  0
    4.3398   -1.7645   -0.6948 H   0  0  0  0  0  0  0  0  0  0  0  0
    3.6091   -3.2077    0.0371 H   0  0  0  0  0  0  0  0  0  0  0  0
   -3.2472    3.5531    0.7607 H   0  0  0  0  0  0  0  0  0  0  0  0
    3.0966    3.0200    0.2914 H   0  0  0  0  0  0  0  0  0  0  0  0
   -0.2570    3.9461   -0.1007 H   0  0  0  0  0  0  0  0  0  0  0  0
    1.3770    4.4581    0.1358 H   0  0  0  0  0  0  0  0  0  0  0  0
  1 18  2  0  0  0  0
  2 12  1  0  0  0  0
  2 15  1  0  0  0  0
  3 13  1  0  0  0  0
  3 29  1  0  0  0  0
  4 14  1  0  0  0  0
  4 30  1  0  0  0  0
  5 16  1  0  0  0  0
  5 34  1  0  0  0  0
  6 20  2  0  0  0  0
  7 12  1  0  0  0  0
  7 17  1  0  0  0  0
  7 18  1  0  0  0  0
  8 18  1  0  0  0  0
  8 19  1  0  0  0  0
  8 21  1  0  0  0  0
  9 17  1  0  0  0  0
  9 22  2  0  0  0  0
 10 20  1  0  0  0  0
 10 22  1  0  0  0  0
 10 35  1  0  0  0  0
 11 22  1  0  0  0  0
 11 36  1  0  0  0  0
 11 37  1  0  0  0  0
 12 13  1  0  0  0  0
 12 23  1  0  0  0  0
 13 14  1  0  0  0  0
 13 24  1  0  0  0  0
 14 15  1  0  0  0  0
 14 25  1  0  0  0  0
 15 16  1  0  0  0  0
 15 26  1  0  0  0  0
 16 27  1  0  0  0  0
 16 28  1  0  0  0  0
 17 19  2  0  0  0  0
 19 20  1  0  0  0  0
 21 31  1  0  0  0  0
 21 32  1  0  0  0  0
 21 33  1  0  0  0  0
M  END
> <PUBCHEM_COMPOUND_CID>
135435112

> <PUBCHEM_CONFORMER_RMSD>
0.6

> <PUBCHEM_CONFORMER_DIVERSEORDER>
1
8
13
9
14
7
11
12
5
10
3
2
6
4

> <PUBCHEM_MMFF94_PARTIAL_CHARGES>
28
1 -0.38
10 -0.49
11 -0.85
12 0.58
13 0.28
14 0.28
15 0.28
16 0.28
17 0.28
18 0.5
19 0.12
2 -0.56
20 0.62
21 0.3
22 0.56
29 0.4
3 -0.68
30 0.4
34 0.4
35 0.37
36 0.4
37 0.4
4 -0.68
5 -0.68
6 -0.57
7 -0.47
8 -0.47
9 -0.62

> <PUBCHEM_EFFECTIVE_ROTOR_COUNT>
3

> <PUBCHEM_PHARMACOPHORE_FEATURES>
14
1 1 acceptor
1 10 donor
1 11 donor
1 2 acceptor
1 3 acceptor
1 3 donor
1 4 acceptor
1 4 donor
1 5 acceptor
1 5 donor
1 6 acceptor
5 2 12 13 14 15 rings
5 7 8 17 18 19 rings
6 9 10 17 19 20 22 rings

> <PUBCHEM_HEAVY_ATOM_COUNT>
22

> <PUBCHEM_ATOM_DEF_STEREO_COUNT>
4

> <PUBCHEM_ATOM_UDEF_STEREO_COUNT>
0

> <PUBCHEM_BOND_DEF_STEREO_COUNT>
0

> <PUBCHEM_BOND_UDEF_STEREO_COUNT>
0

> <PUBCHEM_ISOTOPIC_ATOM_COUNT>
0

> <PUBCHEM_COMPONENT_COUNT>
1

> <PUBCHEM_CACTVS_TAUTO_COUNT>
-1

> <PUBCHEM_CONFORMER_ID>
0812936800000001

> <PUBCHEM_MMFF94_ENERGY>
82.9967

> <PUBCHEM_FEATURE_SELFOVERLAP>
71.218

> <PUBCHEM_SHAPE_FINGERPRINT>
10366900 7 18189341340842437211
10608611 8 18409166584724992951
10906281 52 18123198909346428910
10967382 1 18339077193878708710
1100329 8 16392678438647146682
11578080 2 14205114624166591828
116883 192 17621039759576277430
12553582 1 17977943488799446342
12633257 1 18261115218078270267
13132413 78 18342457036798986532
13140716 1 18338510825300176962
14178342 30 18340195315378550793
14223421 5 18336834207232517323
14790565 3 18338243764609076436
15042514 8 16392961013104356218
15196674 1 18411698742750123236
15309172 13 18268433601637676403
15442244 35 18339360760309391624
16945 1 18195242454398534790
19049666 15 18335141955789887867
19591789 44 18411419514489746974
19930381 70 18267018552037650051
200 152 18200864176068858471
20739085 24 18337688412109299784
21197605 99 17694797225004935089
21501502 16 18409169883312571837
2334 1 18410854373907663382
23558518 356 18261399936177262451
23559900 14 18409724067232720611
238 59 17975654507400860149
2748010 2 18411416202943263782
335352 9 18051130298348037628
350125 39 17545885288117277928
352729 6 17906731754168431910
5104073 3 18410854317666900946
7364860 26 18411420634922323182
7832392 63 18196933275622426709
81228 2 17692538814713178474
8809292 202 18190745232544352170
9709674 26 18409168839672812395

> <PUBCHEM_SHAPE_MULTIPOLES>
402.35
6.32
4.05
0.8
0.69
0.31
-0.03
0.33
-0.65
-0.92
-0.14
0.37
-0.26
0.39

> <PUBCHEM_SHAPE_SELFOVERLAP>
859.981

> <PUBCHEM_SHAPE_VOLUME>
224.8

> <PUBCHEM_COORDINATE_TYPE>
2
5
10

$$$$
