135464337
  -OEChem-03292013293D

 51 54  0     1  0  0  0  0  0999 V2000
    5.2778   -1.2270   -0.6719 O   0  0  0  0  0  0  0  0  0  0  0  0
   -1.3311    2.3806   -0.2548 O   0  0  0  0  0  0  0  0  0  0  0  0
    2.8487    1.3615    1.4856 O   0  0  0  0  0  0  0  0  0  0  0  0
    3.4775   -2.0219   -1.7788 O   0  0  0  0  0  0  0  0  0  0  0  0
   -5.6348   -4.1591    0.6562 O   0  0  0  0  0  0  0  0  0  0  0  0
   -2.2190    1.1706   -2.0003 O   0  0  0  0  0  0  0  0  0  0  0  0
   -0.4968    5.0288    0.2526 O   0  0  0  0  0  0  0  0  0  0  0  0
   -2.4456    6.9124    0.9439 O   0  0  0  0  0  0  0  0  0  0  0  0
   -0.8557   -3.1278    0.6443 N   0  0  0  0  0  0  0  0  0  0  0  0
    1.1709   -1.8693    0.3353 N   0  0  0  0  0  0  0  0  0  0  0  0
   -1.0904   -1.0527   -0.1441 C   0  0  0  0  0  0  0  0  0  0  0  0
   -2.3854   -1.6423   -0.0259 C   0  0  0  0  0  0  0  0  0  0  0  0
   -0.1679   -2.0024    0.2803 C   0  0  0  0  0  0  0  0  0  0  0  0
   -2.2077   -2.9374    0.4686 C   0  0  0  0  0  0  0  0  0  0  0  0
   -0.5863    0.1899   -0.5660 C   0  0  0  0  0  0  0  0  0  0  0  0
    5.7709   -0.6258    0.5421 C   0  0  2  0  0  0  0  0  0  0  0  0
    5.0933    0.7163    0.7660 C   0  0  0  0  0  0  0  0  0  0  0  0
    1.5988   -0.6555   -0.0816 C   0  0  0  0  0  0  0  0  0  0  0  0
    3.0590   -0.4585   -0.0419 C   0  0  0  0  0  0  0  0  0  0  0  0
    3.6119    0.5148    0.7047 C   0  0  0  0  0  0  0  0  0  0  0  0
    0.7933    0.3819   -0.5296 C   0  0  0  0  0  0  0  0  0  0  0  0
   -3.6962   -1.1959   -0.2936 C   0  0  0  0  0  0  0  0  0  0  0  0
    3.9384   -1.3065   -0.8947 C   0  0  0  0  0  0  0  0  0  0  0  0
   -3.2775   -3.8076    0.7084 C   0  0  0  0  0  0  0  0  0  0  0  0
    7.2793   -0.4736    0.4076 C   0  0  0  0  0  0  0  0  0  0  0  0
   -1.4552    1.2570   -1.0276 C   0  0  0  0  0  0  0  0  0  0  0  0
   -4.7749   -2.0557   -0.0583 C   0  0  0  0  0  0  0  0  0  0  0  0
   -4.5664   -3.3414    0.4352 C   0  0  0  0  0  0  0  0  0  0  0  0
   -2.1404    3.5064   -0.6112 C   0  0  0  0  0  0  0  0  0  0  0  0
   -1.8744    4.6596    0.3496 C   0  0  2  0  0  0  0  0  0  0  0  0
   -2.7142    5.8810   -0.0001 C   0  0  0  0  0  0  0  0  0  0  0  0
    5.5593   -1.3177    1.3678 H   0  0  0  0  0  0  0  0  0  0  0  0
    5.3775    1.4421   -0.0054 H   0  0  0  0  0  0  0  0  0  0  0  0
    5.3990    1.1193    1.7382 H   0  0  0  0  0  0  0  0  0  0  0  0
   -0.4319   -3.9766    0.9923 H   0  0  0  0  0  0  0  0  0  0  0  0
    1.2203    1.3252   -0.8609 H   0  0  0  0  0  0  0  0  0  0  0  0
   -3.8932   -0.1966   -0.6668 H   0  0  0  0  0  0  0  0  0  0  0  0
   -3.1110   -4.8088    1.0930 H   0  0  0  0  0  0  0  0  0  0  0  0
    7.5357    0.1561   -0.4515 H   0  0  0  0  0  0  0  0  0  0  0  0
    7.7463   -1.4487    0.2314 H   0  0  0  0  0  0  0  0  0  0  0  0
    7.7168   -0.0346    1.3092 H   0  0  0  0  0  0  0  0  0  0  0  0
   -5.7818   -1.7009   -0.2652 H   0  0  0  0  0  0  0  0  0  0  0  0
   -3.1967    3.2168   -0.5718 H   0  0  0  0  0  0  0  0  0  0  0  0
   -1.8803    3.8028   -1.6346 H   0  0  0  0  0  0  0  0  0  0  0  0
   -2.0414    4.3447    1.3857 H   0  0  0  0  0  0  0  0  0  0  0  0
    3.4452    2.0036    1.9066 H   0  0  0  0  0  0  0  0  0  0  0  0
   -3.7829    5.6476    0.0339 H   0  0  0  0  0  0  0  0  0  0  0  0
   -2.4562    6.2650   -0.9926 H   0  0  0  0  0  0  0  0  0  0  0  0
   -6.4501   -3.6857    0.4170 H   0  0  0  0  0  0  0  0  0  0  0  0
   -0.3505    5.7707    0.8642 H   0  0  0  0  0  0  0  0  0  0  0  0
   -2.9942    7.6757    0.6952 H   0  0  0  0  0  0  0  0  0  0  0  0
  1 16  1  0  0  0  0
  1 23  1  0  0  0  0
  2 26  1  0  0  0  0
  2 29  1  0  0  0  0
  3 20  1  0  0  0  0
  3 46  1  0  0  0  0
  4 23  2  0  0  0  0
  5 28  1  0  0  0  0
  5 49  1  0  0  0  0
  6 26  2  0  0  0  0
  7 30  1  0  0  0  0
  7 50  1  0  0  0  0
  8 31  1  0  0  0  0
  8 51  1  0  0  0  0
  9 13  1  0  0  0  0
  9 14  1  0  0  0  0
  9 35  1  0  0  0  0
 10 13  1  0  0  0  0
 10 18  2  0  0  0  0
 11 12  1  0  0  0  0
 11 13  2  0  0  0  0
 11 15  1  0  0  0  0
 12 14  2  0  0  0  0
 12 22  1  0  0  0  0
 14 24  1  0  0  0  0
 15 21  2  0  0  0  0
 15 26  1  0  0  0  0
 16 17  1  0  0  0  0
 16 25  1  0  0  0  0
 16 32  1  0  0  0  0
 17 20  1  0  0  0  0
 17 33  1  0  0  0  0
 17 34  1  0  0  0  0
 18 19  1  0  0  0  0
 18 21  1  0  0  0  0
 19 20  2  0  0  0  0
 19 23  1  0  0  0  0
 21 36  1  0  0  0  0
 22 27  2  0  0  0  0
 22 37  1  0  0  0  0
 24 28  2  0  0  0  0
 24 38  1  0  0  0  0
 25 39  1  0  0  0  0
 25 40  1  0  0  0  0
 25 41  1  0  0  0  0
 27 28  1  0  0  0  0
 27 42  1  0  0  0  0
 29 30  1  0  0  0  0
 29 43  1  0  0  0  0
 29 44  1  0  0  0  0
 30 31  1  0  0  0  0
 30 45  1  0  0  0  0
 31 47  1  0  0  0  0
 31 48  1  0  0  0  0
M  END
> <PUBCHEM_COMPOUND_CID>
135464337

> <PUBCHEM_CONFORMER_RMSD>
0.8

> <PUBCHEM_CONFORMER_DIVERSEORDER>
1
7
50
26
102
103
144
5
23
162
154
116
134
137
21
53
91
165
145
177
108
141
59
104
67
12
119
131
89
68
140
180
176
158
169
71
86
160
17
143
118
81
49
98
166
150
139
46
125
135
124
159
83
142
29
149
73
105
167
24
79
87
179
13
161
37
78
65
3
4
43
97
148
54
48
77
174
133
113
56
6
120
82
130
25
128
80
10
147
106
132
8
31
151
90
41
163
156
61
60
35
62
40
152
64
72
28
93
157
69
36
2
45
38
111
126
47
70
58
175
95
112
76
178
22
51
109
127
84
92
164
74
94
52
88
9
20
155
129
117
173
55
15
11
39
44
14
153
168
57
42
99
16
101
122
123
115
172
114
100
18
107
19
171
27
136
34
30
121
96
170
75
66
33
138
85
110
146
32
63

> <PUBCHEM_MMFF94_PARTIAL_CHARGES>
37
1 -0.43
10 -0.57
13 0.11
14 -0.15
15 0.09
16 0.28
17 0.14
18 0.34
19 -0.01
2 -0.43
20 -0.06
21 -0.15
22 -0.15
23 0.71
24 -0.15
26 0.63
27 -0.15
28 0.08
29 0.28
3 -0.53
30 0.28
31 0.28
35 0.27
36 0.15
37 0.15
38 0.15
4 -0.57
42 0.15
46 0.45
49 0.45
5 -0.53
50 0.4
51 0.4
6 -0.57
7 -0.68
8 -0.68
9 0.03

> <PUBCHEM_EFFECTIVE_ROTOR_COUNT>
6.6

> <PUBCHEM_PHARMACOPHORE_FEATURES>
15
1 10 acceptor
1 3 donor
1 4 acceptor
1 5 donor
1 6 acceptor
1 7 acceptor
1 7 donor
1 8 acceptor
1 8 donor
1 9 cation
1 9 donor
5 9 11 12 13 14 rings
6 1 16 17 19 20 23 rings
6 10 11 13 15 18 21 rings
6 12 14 22 24 27 28 rings

> <PUBCHEM_HEAVY_ATOM_COUNT>
31

> <PUBCHEM_ATOM_DEF_STEREO_COUNT>
1

> <PUBCHEM_ATOM_UDEF_STEREO_COUNT>
1

> <PUBCHEM_BOND_DEF_STEREO_COUNT>
0

> <PUBCHEM_BOND_UDEF_STEREO_COUNT>
0

> <PUBCHEM_ISOTOPIC_ATOM_COUNT>
0

> <PUBCHEM_COMPONENT_COUNT>
1

> <PUBCHEM_CACTVS_TAUTO_COUNT>
-1

> <PUBCHEM_CONFORMER_ID>
0813059100000001

> <PUBCHEM_MMFF94_ENERGY>
80.4642

> <PUBCHEM_FEATURE_SELFOVERLAP>
76.334

> <PUBCHEM_SHAPE_FINGERPRINT>
10006869 2 18192700156340935159
10165383 225 17469903090435192700
10411042 1 18265334082733181351
10937287 8 17833547895109580869
1100329 8 18408889547067158333
11059845 2 17758647007589727554
12166972 35 17168419488837994766
12236239 1 16588295116878483654
12293681 160 18048000079550152093
12516196 113 18264770050332177818
12788726 201 18261688059441607070
13140716 1 18336265755457547277
13383665 225 18264795236774308748
138480 1 15888275245874265065
14068700 675 18040996301728446774
14955137 171 18119249712598383891
15081414 286 18050850210809189691
15347591 1 18338798915507938938
15400415 2 17689997839348322480
15419008 47 18201437030169223016
15927050 60 17907015080223754343
17980427 23 17986408874262733155
17980427 26 17402314985088486941
19319366 153 17404573386119692973
20238998 120 18338799043496802965
21033648 29 17845366816554343731
21033650 10 18116740460039973142
21267235 1 18042125530214519971
21304253 13 18338238297078239723
23559900 14 17904477751554157723
23845131 108 17831863447960177433
23929065 36 18339061736412768992
283562 15 18333447629799284067
3004659 81 17531523321270469414
3178227 256 16896532987765150307
3418910 222 18261955271655893380
3886686 26 17467872369752635258
4058900 60 17549268029803344944
4408954 87 17911826599980487177
5171179 24 17977928405449017461
6004065 56 18051123997932487119
6700243 42 17984457172313927140
7399639 24 18272364330575507894
77188 2 18194404617937912653
79837 15 18192993712353910761
9555976 147 18118939444624853146
9658208 31 18051708641627752092
9777508 108 18267304227176190097

> <PUBCHEM_SHAPE_MULTIPOLES>
581.05
11.89
7.91
1.08
16.91
18.56
-0.27
-10.02
1.79
-15.03
2.29
0.33
0.1
1.54

> <PUBCHEM_SHAPE_SELFOVERLAP>
1279.436

> <PUBCHEM_SHAPE_VOLUME>
312.6

> <PUBCHEM_COORDINATE_TYPE>
2
5
10

$$$$
