135446919
  -OEChem-03292013293D

 31 32  0     1  0  0  0  0  0999 V2000
    1.7096    0.4072   -0.2877 O   0  0  0  0  0  0  0  0  0  0  0  0
    4.0031    0.6953    1.3307 O   0  0  0  0  0  0  0  0  0  0  0  0
    6.1780   -0.9575    0.8552 O   0  0  0  0  0  0  0  0  0  0  0  0
   -4.5932    0.5898    1.1130 O   0  0  0  0  0  0  0  0  0  0  0  0
   -0.4763    1.1033   -0.6764 N   0  0  0  0  0  0  0  0  0  0  0  0
   -2.2334    2.1574    0.2197 N   0  0  0  0  0  0  0  0  0  0  0  0
   -1.2365   -1.1925   -0.5746 N   0  0  0  0  0  0  0  0  0  0  0  0
   -3.4252   -1.3003    0.3940 N   0  0  0  0  0  0  0  0  0  0  0  0
   -2.3211   -3.2591   -0.3041 N   0  0  0  0  0  0  0  0  0  0  0  0
    0.8228    0.9209   -1.2775 C   0  0  0  0  0  0  0  0  0  0  0  0
   -1.3861    0.1348   -0.3698 C   0  0  0  0  0  0  0  0  0  0  0  0
    3.9424   -0.2903    0.2971 C   0  0  1  0  0  0  0  0  0  0  0  0
    3.0187    0.2137   -0.8060 C   0  0  0  0  0  0  0  0  0  0  0  0
   -2.4495    0.8118    0.1766 C   0  0  0  0  0  0  0  0  0  0  0  0
   -1.0317    2.3029   -0.3033 C   0  0  0  0  0  0  0  0  0  0  0  0
    5.3568   -0.5158   -0.2207 C   0  0  0  0  0  0  0  0  0  0  0  0
   -3.6011    0.0729    0.6153 C   0  0  0  0  0  0  0  0  0  0  0  0
   -2.2773   -1.8945   -0.1816 C   0  0  0  0  0  0  0  0  0  0  0  0
    0.7190    0.2187   -2.1118 H   0  0  0  0  0  0  0  0  0  0  0  0
    1.1759    1.8896   -1.6474 H   0  0  0  0  0  0  0  0  0  0  0  0
    3.5426   -1.1983    0.7607 H   0  0  0  0  0  0  0  0  0  0  0  0
    2.9802   -0.5129   -1.6258 H   0  0  0  0  0  0  0  0  0  0  0  0
    3.3863    1.1710   -1.1956 H   0  0  0  0  0  0  0  0  0  0  0  0
   -0.5154    3.2442   -0.4355 H   0  0  0  0  0  0  0  0  0  0  0  0
    5.7900    0.4130   -0.6068 H   0  0  0  0  0  0  0  0  0  0  0  0
    5.3712   -1.2763   -1.0076 H   0  0  0  0  0  0  0  0  0  0  0  0
   -4.1835   -1.9179    0.6692 H   0  0  0  0  0  0  0  0  0  0  0  0
    4.3475    1.5176    0.9422 H   0  0  0  0  0  0  0  0  0  0  0  0
    7.0706   -1.0940    0.4944 H   0  0  0  0  0  0  0  0  0  0  0  0
   -1.5457   -3.7754   -0.7049 H   0  0  0  0  0  0  0  0  0  0  0  0
   -3.1280   -3.7920    0.0017 H   0  0  0  0  0  0  0  0  0  0  0  0
  1 10  1  0  0  0  0
  1 13  1  0  0  0  0
  2 12  1  0  0  0  0
  2 28  1  0  0  0  0
  3 16  1  0  0  0  0
  3 29  1  0  0  0  0
  4 17  2  0  0  0  0
  5 10  1  0  0  0  0
  5 11  1  0  0  0  0
  5 15  1  0  0  0  0
  6 14  1  0  0  0  0
  6 15  2  0  0  0  0
  7 11  1  0  0  0  0
  7 18  2  0  0  0  0
  8 17  1  0  0  0  0
  8 18  1  0  0  0  0
  8 27  1  0  0  0  0
  9 18  1  0  0  0  0
  9 30  1  0  0  0  0
  9 31  1  0  0  0  0
 10 19  1  0  0  0  0
 10 20  1  0  0  0  0
 11 14  2  0  0  0  0
 12 13  1  0  0  0  0
 12 16  1  0  0  0  0
 12 21  1  0  0  0  0
 13 22  1  0  0  0  0
 13 23  1  0  0  0  0
 14 17  1  0  0  0  0
 15 24  1  0  0  0  0
 16 25  1  0  0  0  0
 16 26  1  0  0  0  0
M  END
> <PUBCHEM_COMPOUND_CID>
135446919

> <PUBCHEM_CONFORMER_RMSD>
0.6

> <PUBCHEM_CONFORMER_DIVERSEORDER>
1
64
219
287
291
180
13
212
9
326
290
23
68
70
300
292
179
20
45
254
157
28
211
177
264
55
293
104
126
214
71
203
266
73
232
299
240
7
115
249
298
46
16
153
116
239
110
19
289
74
92
324
132
10
257
124
59
308
114
4
225
3
231
21
54
162
165
282
235
105
312
32
155
25
309
33
96
36
35
245
108
237
131
295
323
34
205
302
66
194
90
81
82
284
121
2
156
134
43
142
27
136
113
95
22
207
248
188
29
24
158
246
128
127
77
91
106
75
117
53
50
166
227
278
184
317
31
63
285
201
40
6
260
39
275
315
72
175
164
44
84
222
78
173
294
192
174
256
274
83
99
147
18
65
58
143
49
220
199
140
79
268
8
154
139
122
202
210
47
67
145
204
310
12
119
193
198
56
263
172
297
206
187
190
320
17
191
89
111
159
306
208
230
197
152
130
11
112
267
98
14
148
322
15
217
321
76
102
97
242
304
224
85
223
60
41
251
101
161
283
221
125
109
138
259
200
253
316
26
279
88
93
319
51
146
144
244
178
42
325
243
183
100
276
218
241
171
238
280
169
94
30
107
38
118
129
296
103
167
258
327
305
265
252
313
57
262
133
272
5
62
314
181
286
176
86
213
250
80
186
247
137
37
87
301
307
120
209
52
189
185
135
288
150
271
303
270
195
269
151
277
234
149
123
163
69
318
168
281
216
273
261
48
182
226
233
196
170
141
255
236
311
160
228
215
61
229

> <PUBCHEM_MMFF94_PARTIAL_CHARGES>
24
1 -0.56
10 0.54
11 -0.03
12 0.28
13 0.28
14 0.14
15 0.04
16 0.28
17 0.72
18 0.56
2 -0.68
24 0.15
27 0.37
28 0.4
29 0.4
3 -0.68
30 0.4
31 0.4
4 -0.57
5 0.05
6 -0.57
7 -0.58
8 -0.49
9 -0.85

> <PUBCHEM_EFFECTIVE_ROTOR_COUNT>
5

> <PUBCHEM_PHARMACOPHORE_FEATURES>
11
1 1 acceptor
1 2 acceptor
1 2 donor
1 3 acceptor
1 3 donor
1 4 acceptor
1 8 donor
1 9 donor
3 5 6 15 cation
5 5 6 11 14 15 rings
6 7 8 11 14 17 18 rings

> <PUBCHEM_HEAVY_ATOM_COUNT>
18

> <PUBCHEM_ATOM_DEF_STEREO_COUNT>
0

> <PUBCHEM_ATOM_UDEF_STEREO_COUNT>
1

> <PUBCHEM_BOND_DEF_STEREO_COUNT>
0

> <PUBCHEM_BOND_UDEF_STEREO_COUNT>
0

> <PUBCHEM_ISOTOPIC_ATOM_COUNT>
0

> <PUBCHEM_COMPONENT_COUNT>
1

> <PUBCHEM_CACTVS_TAUTO_COUNT>
-1

> <PUBCHEM_CONFORMER_ID>
0812C18700000001

> <PUBCHEM_MMFF94_ENERGY>
35.3597

> <PUBCHEM_FEATURE_SELFOVERLAP>
56.012

> <PUBCHEM_SHAPE_FINGERPRINT>
10366900 7 17917702496649101388
11046707 91 18186800283798108884
11132069 177 18271818912419742797
11370993 144 17703796886179425450
12236239 1 17748835102682392132
12251169 10 18411703179572763508
12553582 1 17530957004019703992
12633257 1 18131077042965833456
13140716 1 18268155425480484337
13167823 11 18187363195592670722
13551218 46 18263083223654646594
13862211 1 18338802316562946183
14341114 176 18342740711326343592
14420673 8 18195251014659479870
15042514 8 18337962280836241555
17780758 139 18337097974665598264
17804303 29 18341901813206562796
17977361 122 18260547844061048779
1813 80 17240777138038950342
200 152 15864072057474076116
20281475 54 18335984280676093724
20645477 70 14129329656041169624
20681677 274 18269269226586059432
20871999 31 10953453037736668078
21637258 2 16298675005241657809
21650355 55 18412826906236872581
22959321 94 18334575763088503348
2297311 6 18270414814828592060
23366157 5 17829337126426681821
23402539 116 18343860005357083965
23559900 14 18129404686080887884
23728640 28 18410299129162975219
2748010 2 17977690631685623565
2838139 119 14259410595715633475
351380 3 17676206870936791122
441001 317 9583512123474486190
5104073 3 18340778151014650728
5364581 5 18128237078174090160
559249 180 17895750686686440500
58807428 26 18267604420152931891
5924683 9 17988634254878136151
602551 16 18411982473186161470
90316 7 18408609162484724149

> <PUBCHEM_SHAPE_MULTIPOLES>
322.05
10.48
2.3
0.99
16.38
1.02
-0.05
3.05
-3.95
-2.64
0.28
0.39
-0.14
-0.49

> <PUBCHEM_SHAPE_SELFOVERLAP>
678.502

> <PUBCHEM_SHAPE_VOLUME>
180.3

> <PUBCHEM_COORDINATE_TYPE>
2
5
10

$$$$
