135410907
  -OEChem-03292013293D

 34 36  0     1  0  0  0  0  0999 V2000
    2.2532    0.3959    1.0026 O   0  0  0  0  0  0  0  0  0  0  0  0
    1.1544   -2.1199   -1.3305 O   0  0  0  0  0  0  0  0  0  0  0  0
    3.3576   -2.3374    0.3039 O   0  0  0  0  0  0  0  0  0  0  0  0
    4.2426    2.3137    0.5382 O   0  0  0  0  0  0  0  0  0  0  0  0
   -4.3547    1.8497   -0.4159 O   0  0  0  0  0  0  0  0  0  0  0  0
   -0.0242    0.4871    0.1294 N   0  0  0  0  0  0  0  0  0  0  0  0
   -1.6868   -1.2231    0.3911 N   0  0  0  0  0  0  0  0  0  0  0  0
   -3.9008   -0.3800    0.0817 N   0  0  0  0  0  0  0  0  0  0  0  0
   -3.5435   -2.6489    0.5812 N   0  0  0  0  0  0  0  0  0  0  0  0
    1.1971   -0.3651    0.3808 C   0  0  1  0  0  0  0  0  0  0  0  0
    1.7977   -0.9374   -0.8991 C   0  0  1  0  0  0  0  0  0  0  0  0
    3.2415   -1.1616   -0.4960 C   0  0  1  0  0  0  0  0  0  0  0  0
    3.5164    0.0425    0.3959 C   0  0  1  0  0  0  0  0  0  0  0  0
    4.0298    1.2512   -0.3745 C   0  0  0  0  0  0  0  0  0  0  0  0
   -1.3228    0.0580    0.1425 C   0  0  0  0  0  0  0  0  0  0  0  0
    0.0051    1.8319   -0.1518 C   0  0  0  0  0  0  0  0  0  0  0  0
   -2.1272    1.1433   -0.1343 C   0  0  0  0  0  0  0  0  0  0  0  0
   -1.2938    2.2667   -0.3214 C   0  0  0  0  0  0  0  0  0  0  0  0
   -3.5560    0.9514   -0.1787 C   0  0  0  0  0  0  0  0  0  0  0  0
   -2.9853   -1.4179    0.3549 C   0  0  0  0  0  0  0  0  0  0  0  0
    0.8766   -1.1431    1.0838 H   0  0  0  0  0  0  0  0  0  0  0  0
    1.7437   -0.2014   -1.7106 H   0  0  0  0  0  0  0  0  0  0  0  0
    3.9193   -1.2663   -1.3480 H   0  0  0  0  0  0  0  0  0  0  0  0
    4.2030   -0.1925    1.2171 H   0  0  0  0  0  0  0  0  0  0  0  0
    3.3033    1.5936   -1.1179 H   0  0  0  0  0  0  0  0  0  0  0  0
    4.9763    1.0222   -0.8738 H   0  0  0  0  0  0  0  0  0  0  0  0
    0.9399    2.3720   -0.2137 H   0  0  0  0  0  0  0  0  0  0  0  0
    1.6646   -2.4724   -2.0794 H   0  0  0  0  0  0  0  0  0  0  0  0
    4.2904   -2.4192    0.5667 H   0  0  0  0  0  0  0  0  0  0  0  0
   -1.5940    3.2789   -0.5536 H   0  0  0  0  0  0  0  0  0  0  0  0
    4.5719    3.0711    0.0250 H   0  0  0  0  0  0  0  0  0  0  0  0
   -4.8888   -0.6166    0.0729 H   0  0  0  0  0  0  0  0  0  0  0  0
   -2.9664   -3.4574    0.7860 H   0  0  0  0  0  0  0  0  0  0  0  0
   -4.5476   -2.7882    0.5509 H   0  0  0  0  0  0  0  0  0  0  0  0
  1 10  1  0  0  0  0
  1 13  1  0  0  0  0
  2 11  1  0  0  0  0
  2 28  1  0  0  0  0
  3 12  1  0  0  0  0
  3 29  1  0  0  0  0
  4 14  1  0  0  0  0
  4 31  1  0  0  0  0
  5 19  2  0  0  0  0
  6 10  1  0  0  0  0
  6 15  1  0  0  0  0
  6 16  1  0  0  0  0
  7 15  1  0  0  0  0
  7 20  2  0  0  0  0
  8 19  1  0  0  0  0
  8 20  1  0  0  0  0
  8 32  1  0  0  0  0
  9 20  1  0  0  0  0
  9 33  1  0  0  0  0
  9 34  1  0  0  0  0
 10 11  1  0  0  0  0
 10 21  1  0  0  0  0
 11 12  1  0  0  0  0
 11 22  1  0  0  0  0
 12 13  1  0  0  0  0
 12 23  1  0  0  0  0
 13 14  1  0  0  0  0
 13 24  1  0  0  0  0
 14 25  1  0  0  0  0
 14 26  1  0  0  0  0
 15 17  2  0  0  0  0
 16 18  2  0  0  0  0
 16 27  1  0  0  0  0
 17 18  1  0  0  0  0
 17 19  1  0  0  0  0
 18 30  1  0  0  0  0
M  END
> <PUBCHEM_COMPOUND_CID>
135410907

> <PUBCHEM_CONFORMER_RMSD>
0.6

> <PUBCHEM_CONFORMER_DIVERSEORDER>
1
9
15
11
6
16
10
2
4
17
8
3
14
12
5
7
13

> <PUBCHEM_MMFF94_PARTIAL_CHARGES>
28
1 -0.56
10 0.54
11 0.28
12 0.28
13 0.28
14 0.28
15 -0.03
16 -0.3
17 -0.09
18 -0.15
19 0.72
2 -0.68
20 0.56
27 0.15
28 0.4
29 0.4
3 -0.68
30 0.15
31 0.4
32 0.37
33 0.4
34 0.4
4 -0.68
5 -0.57
6 0.05
7 -0.58
8 -0.49
9 -0.85

> <PUBCHEM_EFFECTIVE_ROTOR_COUNT>
3

> <PUBCHEM_PHARMACOPHORE_FEATURES>
14
1 1 acceptor
1 2 acceptor
1 2 donor
1 3 acceptor
1 3 donor
1 4 acceptor
1 4 donor
1 5 acceptor
1 6 cation
1 8 donor
1 9 donor
5 1 10 11 12 13 rings
5 6 15 16 17 18 rings
6 7 8 15 17 19 20 rings

> <PUBCHEM_HEAVY_ATOM_COUNT>
20

> <PUBCHEM_ATOM_DEF_STEREO_COUNT>
4

> <PUBCHEM_ATOM_UDEF_STEREO_COUNT>
0

> <PUBCHEM_BOND_DEF_STEREO_COUNT>
0

> <PUBCHEM_BOND_UDEF_STEREO_COUNT>
0

> <PUBCHEM_ISOTOPIC_ATOM_COUNT>
0

> <PUBCHEM_COMPONENT_COUNT>
1

> <PUBCHEM_CACTVS_TAUTO_COUNT>
-1

> <PUBCHEM_CONFORMER_ID>
081234DB00000001

> <PUBCHEM_MMFF94_ENERGY>
47.3361

> <PUBCHEM_FEATURE_SELFOVERLAP>
71.224

> <PUBCHEM_SHAPE_FINGERPRINT>
10366900 7 17774997968964648017
10498660 4 18408324380134905460
10608611 8 18339358570008212252
10616163 171 18411703200820759526
10759866 29 18334301955098265510
11132069 177 18408039606597009057
11405975 8 18337673018666754498
12633257 1 18197784293063633802
13140716 1 18339368474118342619
13214271 11 18412258471488635261
13224815 77 18342181063585178500
13296908 3 18409731755034211419
13544592 145 18197225737019985815
14787075 74 17753611540186141426
15196674 1 18410011035208579335
15219456 202 18342458127424754272
15375358 24 18412260610540526197
15375462 6 18410293618824942118
16945 1 18195537990739443805
17492 89 18334858307597421986
17980427 23 17749955591067728876
18175812 5 18413107234361941110
18186145 218 17603582993597028812
19141452 34 18343309193324353027
19591789 44 17836084850660569120
200 152 17274529919923013005
20510252 161 18268990874093082897
20645477 56 18261395499339337381
20645477 70 18060135384362941446
20681677 274 18335978680160338210
21501502 16 18269841925967296184
21618674 54 18408322207076385490
221490 88 18411989040075203406
22213442 358 18337674234263837577
23402539 116 18260542338376776642
23557571 272 18337402616047076390
23559900 14 18338794503706068466
2748010 2 18412550911722645831
296302 2 18343584040443521101
335352 9 18192992612773354207
34934 24 18408316692407059585
474 4 17096099098778317324
495365 180 17559371626723016537
5104073 3 18410013225652470233
58051976 378 18342737395300224700
67856867 119 18187081767929256320
7097593 13 17826498973572365338
7364860 26 18123191470278865241
81228 2 18190196602186254977
8809292 202 18337675200415402795
9709674 26 18270121188772371863

> <PUBCHEM_SHAPE_MULTIPOLES>
362.32
8.27
2.67
0.83
0.4
0.33
0.09
-0.58
-0.38
-0.3
0.07
0.34
0.17
0.97

> <PUBCHEM_SHAPE_SELFOVERLAP>
787.382

> <PUBCHEM_SHAPE_VOLUME>
197.7

> <PUBCHEM_COORDINATE_TYPE>
2
5
10

$$$$
