135400189
  -OEChem-03292013293D

 66 69  0     0  0  0  0  0  0999 V2000
    3.3694    1.2893    2.0636 S   0  0  0  0  0  0  0  0  0  0  0  0
    4.0667    2.5483    2.2156 O   0  0  0  0  0  0  0  0  0  0  0  0
    2.8857    0.5610    3.2169 O   0  0  0  0  0  0  0  0  0  0  0  0
   -1.1995    2.2021   -1.5852 O   0  0  0  0  0  0  0  0  0  0  0  0
   -1.8542   -3.5255   -0.1801 O   0  0  0  0  0  0  0  0  0  0  0  0
    4.3173    0.2382    1.0994 N   0  0  0  0  0  0  0  0  0  0  0  0
    5.3555   -1.3590   -1.0545 N   0  0  0  0  0  0  0  0  0  0  0  0
   -3.5236   -0.4432    0.5636 N   0  0  0  0  0  0  0  0  0  0  0  0
   -1.0955   -1.3476    0.0020 N   0  0  0  0  0  0  0  0  0  0  0  0
   -2.5354    0.4876    0.5279 N   0  0  0  0  0  0  0  0  0  0  0  0
   -5.5403   -1.3521    0.7819 N   0  0  0  0  0  0  0  0  0  0  0  0
    4.9965    0.8739   -0.0650 C   0  0  0  0  0  0  0  0  0  0  0  0
    3.6622   -1.0439    0.7140 C   0  0  0  0  0  0  0  0  0  0  0  0
    6.0093   -0.1030   -0.6607 C   0  0  0  0  0  0  0  0  0  0  0  0
    4.7006   -1.9839    0.1033 C   0  0  0  0  0  0  0  0  0  0  0  0
    6.3232   -2.2763   -1.6550 C   0  0  0  0  0  0  0  0  0  0  0  0
    2.0033    1.5560    0.9778 C   0  0  0  0  0  0  0  0  0  0  0  0
    5.6489   -3.5527   -2.1286 C   0  0  0  0  0  0  0  0  0  0  0  0
    0.8955    0.7100    1.0289 C   0  0  0  0  0  0  0  0  0  0  0  0
    2.0317    2.6138    0.0689 C   0  0  0  0  0  0  0  0  0  0  0  0
   -0.1840    0.9217    0.1712 C   0  0  0  0  0  0  0  0  0  0  0  0
   -0.1556    1.9794   -0.7378 C   0  0  0  0  0  0  0  0  0  0  0  0
    0.9524    2.8254   -0.7890 C   0  0  0  0  0  0  0  0  0  0  0  0
   -1.3547    0.0093    0.2427 C   0  0  0  0  0  0  0  0  0  0  0  0
   -3.3647   -1.7873    0.3348 C   0  0  0  0  0  0  0  0  0  0  0  0
   -4.8492   -0.2333    0.8280 C   0  0  0  0  0  0  0  0  0  0  0  0
   -5.3885    1.1097    1.1233 C   0  0  0  0  0  0  0  0  0  0  0  0
   -4.6216   -2.3262    0.4753 C   0  0  0  0  0  0  0  0  0  0  0  0
   -2.0773   -2.3372    0.0293 C   0  0  0  0  0  0  0  0  0  0  0  0
   -6.1294    1.7307   -0.0762 C   0  0  0  0  0  0  0  0  0  0  0  0
   -5.0449   -3.7290    0.3407 C   0  0  0  0  0  0  0  0  0  0  0  0
   -0.9212    2.1492   -2.9828 C   0  0  0  0  0  0  0  0  0  0  0  0
   -5.2225    1.9276   -1.2805 C   0  0  0  0  0  0  0  0  0  0  0  0
   -2.1562    1.6670   -3.7136 C   0  0  0  0  0  0  0  0  0  0  0  0
    5.5313    1.7737    0.2555 H   0  0  0  0  0  0  0  0  0  0  0  0
    4.2651    1.1543   -0.8302 H   0  0  0  0  0  0  0  0  0  0  0  0
    2.8697   -0.8693   -0.0210 H   0  0  0  0  0  0  0  0  0  0  0  0
    3.2288   -1.5245    1.5972 H   0  0  0  0  0  0  0  0  0  0  0  0
    6.4687    0.3695   -1.5373 H   0  0  0  0  0  0  0  0  0  0  0  0
    5.4405   -2.2640    0.8650 H   0  0  0  0  0  0  0  0  0  0  0  0
    4.1570   -2.8900   -0.1823 H   0  0  0  0  0  0  0  0  0  0  0  0
    6.8090   -0.2945    0.0674 H   0  0  0  0  0  0  0  0  0  0  0  0
    6.7788   -1.7942   -2.5287 H   0  0  0  0  0  0  0  0  0  0  0  0
    7.1358   -2.5243   -0.9606 H   0  0  0  0  0  0  0  0  0  0  0  0
    5.3919   -4.2224   -1.3023 H   0  0  0  0  0  0  0  0  0  0  0  0
    4.7459   -3.3430   -2.7120 H   0  0  0  0  0  0  0  0  0  0  0  0
    6.3348   -4.1081   -2.7784 H   0  0  0  0  0  0  0  0  0  0  0  0
    0.8639   -0.1142    1.7371 H   0  0  0  0  0  0  0  0  0  0  0  0
    2.8840    3.2848    0.0109 H   0  0  0  0  0  0  0  0  0  0  0  0
    0.9860    3.6580   -1.4863 H   0  0  0  0  0  0  0  0  0  0  0  0
   -0.1448   -1.6376   -0.2110 H   0  0  0  0  0  0  0  0  0  0  0  0
   -4.6027    1.7951    1.4619 H   0  0  0  0  0  0  0  0  0  0  0  0
   -6.0950    1.0257    1.9584 H   0  0  0  0  0  0  0  0  0  0  0  0
   -6.9773    1.0971   -0.3633 H   0  0  0  0  0  0  0  0  0  0  0  0
   -6.5398    2.7007    0.2275 H   0  0  0  0  0  0  0  0  0  0  0  0
   -4.5256   -4.3607    1.0681 H   0  0  0  0  0  0  0  0  0  0  0  0
   -6.1210   -3.8348    0.5108 H   0  0  0  0  0  0  0  0  0  0  0  0
   -4.8246   -4.1043   -0.6636 H   0  0  0  0  0  0  0  0  0  0  0  0
   -0.6502    3.1521   -3.3301 H   0  0  0  0  0  0  0  0  0  0  0  0
   -0.0895    1.4651   -3.1930 H   0  0  0  0  0  0  0  0  0  0  0  0
   -4.8854    0.9735   -1.6969 H   0  0  0  0  0  0  0  0  0  0  0  0
   -5.7629    2.4569   -2.0721 H   0  0  0  0  0  0  0  0  0  0  0  0
   -4.3427    2.5240   -1.0185 H   0  0  0  0  0  0  0  0  0  0  0  0
   -2.4566    0.6779   -3.3520 H   0  0  0  0  0  0  0  0  0  0  0  0
   -2.9990    2.3418   -3.5320 H   0  0  0  0  0  0  0  0  0  0  0  0
   -1.9765    1.6107   -4.7908 H   0  0  0  0  0  0  0  0  0  0  0  0
  1  2  2  0  0  0  0
  1  3  2  0  0  0  0
  1  6  1  0  0  0  0
  1 17  1  0  0  0  0
  4 22  1  0  0  0  0
  4 32  1  0  0  0  0
  5 29  2  0  0  0  0
  6 12  1  0  0  0  0
  6 13  1  0  0  0  0
  7 14  1  0  0  0  0
  7 15  1  0  0  0  0
  7 16  1  0  0  0  0
  8 10  1  0  0  0  0
  8 25  1  0  0  0  0
  8 26  1  0  0  0  0
  9 24  1  0  0  0  0
  9 29  1  0  0  0  0
  9 51  1  0  0  0  0
 10 24  2  0  0  0  0
 11 26  2  0  0  0  0
 11 28  1  0  0  0  0
 12 14  1  0  0  0  0
 12 35  1  0  0  0  0
 12 36  1  0  0  0  0
 13 15  1  0  0  0  0
 13 37  1  0  0  0  0
 13 38  1  0  0  0  0
 14 39  1  0  0  0  0
 14 42  1  0  0  0  0
 15 40  1  0  0  0  0
 15 41  1  0  0  0  0
 16 18  1  0  0  0  0
 16 43  1  0  0  0  0
 16 44  1  0  0  0  0
 17 19  2  0  0  0  0
 17 20  1  0  0  0  0
 18 45  1  0  0  0  0
 18 46  1  0  0  0  0
 18 47  1  0  0  0  0
 19 21  1  0  0  0  0
 19 48  1  0  0  0  0
 20 23  2  0  0  0  0
 20 49  1  0  0  0  0
 21 22  2  0  0  0  0
 21 24  1  0  0  0  0
 22 23  1  0  0  0  0
 23 50  1  0  0  0  0
 25 28  2  0  0  0  0
 25 29  1  0  0  0  0
 26 27  1  0  0  0  0
 27 30  1  0  0  0  0
 27 52  1  0  0  0  0
 27 53  1  0  0  0  0
 28 31  1  0  0  0  0
 30 33  1  0  0  0  0
 30 54  1  0  0  0  0
 30 55  1  0  0  0  0
 31 56  1  0  0  0  0
 31 57  1  0  0  0  0
 31 58  1  0  0  0  0
 32 34  1  0  0  0  0
 32 59  1  0  0  0  0
 32 60  1  0  0  0  0
 33 61  1  0  0  0  0
 33 62  1  0  0  0  0
 33 63  1  0  0  0  0
 34 64  1  0  0  0  0
 34 65  1  0  0  0  0
 34 66  1  0  0  0  0
M  END
> <PUBCHEM_COMPOUND_CID>
135400189

> <PUBCHEM_CONFORMER_RMSD>
1

> <PUBCHEM_CONFORMER_DIVERSEORDER>
3
67
70
73
51
98
30
71
93
38
48
59
28
66
43
34
18
45
69
76
36
63
20
97
100
85
17
94
16
103
89
78
44
65
99
81
35
52
39
88
42
50
21
96
87
55
90
101
61
83
22
92
95
1
10
47
56
64
91
24
75
29
46
77
68
58
41
12
27
86
25
72
15
84
40
74
33
53
79
57
13
19
37
102
49
6
32
82
31
62
2
26
54
23
11
14
8
4
80
5
7
9
60

> <PUBCHEM_MMFF94_PARTIAL_CHARGES>
34
1 1.45
10 -0.65
11 -0.57
12 0.36
13 0.36
14 0.27
15 0.27
16 0.27
17 -0.01
19 -0.15
2 -0.65
20 -0.15
21 0.09
22 0.08
23 -0.15
24 0.42
25 -0.24
26 0.01
27 0.18
28 0.05
29 0.71
3 -0.65
31 0.18
32 0.28
4 -0.36
48 0.15
49 0.15
5 -0.57
50 0.15
51 0.37
6 -0.85
7 -0.81
8 0.51
9 -0.49

> <PUBCHEM_EFFECTIVE_ROTOR_COUNT>
9.2

> <PUBCHEM_PHARMACOPHORE_FEATURES>
12
1 2 acceptor
1 3 acceptor
1 33 hydrophobe
1 4 acceptor
1 5 acceptor
1 7 cation
1 9 donor
3 8 11 26 cation
5 8 11 25 26 28 rings
6 17 19 20 21 22 23 rings
6 6 7 12 13 14 15 rings
6 8 9 10 24 25 29 rings

> <PUBCHEM_HEAVY_ATOM_COUNT>
34

> <PUBCHEM_ATOM_DEF_STEREO_COUNT>
0

> <PUBCHEM_ATOM_UDEF_STEREO_COUNT>
0

> <PUBCHEM_BOND_DEF_STEREO_COUNT>
0

> <PUBCHEM_BOND_UDEF_STEREO_COUNT>
0

> <PUBCHEM_ISOTOPIC_ATOM_COUNT>
0

> <PUBCHEM_COMPONENT_COUNT>
1

> <PUBCHEM_CACTVS_TAUTO_COUNT>
-1

> <PUBCHEM_CONFORMER_ID>
08120AFD00000003

> <PUBCHEM_MMFF94_ENERGY>
60.373

> <PUBCHEM_FEATURE_SELFOVERLAP>
61.035

> <PUBCHEM_SHAPE_FINGERPRINT>
10369192 42 17838885286072448728
10764073 3 17915756283605870789
11135609 12 18412537696825577626
11991303 11 16011248196033186357
12128747 34 17917714603803395176
12422481 6 18334856121769498917
12633046 712 18273216361750530068
12788726 201 16877936118465234216
13009979 54 18043539511374244929
13402501 40 18343027657864854326
13583140 156 16843874493750713993
15274700 259 17461707412930287517
15475509 8 18261403208283303424
15510800 12 17984982597418378446
15537594 2 17676200269202935369
15685185 35 14564539512346479734
16728300 4 16915671280389679310
17349148 13 12823016477510867505
17818456 19 18410294748528513529
1813 80 17676759989251207141
19319366 153 15791999117486144576
21279426 13 18342177739206969819
21641784 216 16226042280227386548
22182313 1 18263619854264606248
23559900 14 18272933829689177465
24893989 43 17321833396821282834
32027 91 18272652312169105258
437815 12 17917436359211835122
4435113 14 18340220643064998006
46194498 28 18333736840898006652
563151 74 16916487277421715010
7237137 82 17240476975084833525

> <PUBCHEM_SHAPE_MULTIPOLES>
650.19
15.62
4.17
2.45
3.85
2.71
1.33
8.54
0.88
-0.75
1.5
1.62
-1.58
4.66

> <PUBCHEM_SHAPE_SELFOVERLAP>
1364.45

> <PUBCHEM_SHAPE_VOLUME>
369.6

> <PUBCHEM_COORDINATE_TYPE>
2
5
10

$$$$
