135435048
  -OEChem-03292013293D

 27 29  0     0  0  0  0  0  0999 V2000
    3.7702    2.1129   -0.6858 O   0  0  0  0  0  0  0  0  0  0  0  0
   -5.5805   -1.1626   -0.4268 O   0  0  0  0  0  0  0  0  0  0  0  0
    1.5556    1.6797   -0.1499 N   0  0  0  0  0  0  0  0  0  0  0  0
   -0.7020    1.3479    0.3735 N   0  0  0  0  0  0  0  0  0  0  0  0
    4.1994   -0.8343   -0.1546 N   0  0  0  0  0  0  0  0  0  0  0  0
    0.7421   -0.4918    0.4700 N   0  0  0  0  0  0  0  0  0  0  0  0
    2.5432   -2.1930    0.4649 N   0  0  0  0  0  0  0  0  0  0  0  0
    3.0764   -0.0626   -0.0899 C   0  0  0  0  0  0  0  0  0  0  0  0
    0.5425    0.7863    0.2416 C   0  0  0  0  0  0  0  0  0  0  0  0
    2.0704   -0.9189    0.2924 C   0  0  0  0  0  0  0  0  0  0  0  0
    2.8909    1.3296   -0.3447 C   0  0  0  0  0  0  0  0  0  0  0  0
   -1.9288    0.7176    0.1714 C   0  0  0  0  0  0  0  0  0  0  0  0
   -3.0509    1.1285    0.8908 C   0  0  0  0  0  0  0  0  0  0  0  0
   -2.0339   -0.3249   -0.7494 C   0  0  0  0  0  0  0  0  0  0  0  0
    3.8279   -2.1086    0.1876 C   0  0  0  0  0  0  0  0  0  0  0  0
   -4.2781    0.4968    0.6899 C   0  0  0  0  0  0  0  0  0  0  0  0
   -3.2611   -0.9567   -0.9504 C   0  0  0  0  0  0  0  0  0  0  0  0
   -4.3832   -0.5459   -0.2309 C   0  0  0  0  0  0  0  0  0  0  0  0
    1.2964    2.6500   -0.3027 H   0  0  0  0  0  0  0  0  0  0  0  0
   -0.7621    2.3513    0.5193 H   0  0  0  0  0  0  0  0  0  0  0  0
    5.1300   -0.5285   -0.4066 H   0  0  0  0  0  0  0  0  0  0  0  0
   -2.9813    1.9391    1.6118 H   0  0  0  0  0  0  0  0  0  0  0  0
   -1.1851   -0.6517   -1.3437 H   0  0  0  0  0  0  0  0  0  0  0  0
    4.5385   -2.9224    0.2149 H   0  0  0  0  0  0  0  0  0  0  0  0
   -5.1487    0.8210    1.2536 H   0  0  0  0  0  0  0  0  0  0  0  0
   -3.3312   -1.7641   -1.6744 H   0  0  0  0  0  0  0  0  0  0  0  0
   -5.4703   -1.8592   -1.0967 H   0  0  0  0  0  0  0  0  0  0  0  0
  1 11  2  0  0  0  0
  2 18  1  0  0  0  0
  2 27  1  0  0  0  0
  3  9  1  0  0  0  0
  3 11  1  0  0  0  0
  3 19  1  0  0  0  0
  4  9  1  0  0  0  0
  4 12  1  0  0  0  0
  4 20  1  0  0  0  0
  5  8  1  0  0  0  0
  5 15  1  0  0  0  0
  5 21  1  0  0  0  0
  6  9  2  0  0  0  0
  6 10  1  0  0  0  0
  7 10  1  0  0  0  0
  7 15  2  0  0  0  0
  8 10  2  0  0  0  0
  8 11  1  0  0  0  0
 12 13  2  0  0  0  0
 12 14  1  0  0  0  0
 13 16  1  0  0  0  0
 13 22  1  0  0  0  0
 14 17  2  0  0  0  0
 14 23  1  0  0  0  0
 15 24  1  0  0  0  0
 16 18  2  0  0  0  0
 16 25  1  0  0  0  0
 17 18  1  0  0  0  0
 17 26  1  0  0  0  0
M  END
> <PUBCHEM_COMPOUND_CID>
135435048

> <PUBCHEM_CONFORMER_RMSD>
0.6

> <PUBCHEM_CONFORMER_DIVERSEORDER>
1
3
6
8
4
7
10
2
9
5

> <PUBCHEM_MMFF94_PARTIAL_CHARGES>
27
1 -0.57
10 0.35
11 0.71
12 0.1
13 -0.15
14 -0.15
15 0.04
16 -0.15
17 -0.15
18 0.08
19 0.37
2 -0.53
20 0.4
21 0.27
22 0.15
23 0.15
24 0.15
25 0.15
26 0.15
27 0.45
3 -0.49
4 -0.55
5 0.03
6 -0.57
7 -0.57
8 -0.24
9 0.56

> <PUBCHEM_EFFECTIVE_ROTOR_COUNT>
2

> <PUBCHEM_PHARMACOPHORE_FEATURES>
9
1 1 acceptor
1 2 donor
1 3 donor
1 4 donor
1 5 donor
3 5 7 15 cation
5 5 7 8 10 15 rings
6 12 13 14 16 17 18 rings
6 3 6 8 9 10 11 rings

> <PUBCHEM_HEAVY_ATOM_COUNT>
18

> <PUBCHEM_ATOM_DEF_STEREO_COUNT>
0

> <PUBCHEM_ATOM_UDEF_STEREO_COUNT>
0

> <PUBCHEM_BOND_DEF_STEREO_COUNT>
0

> <PUBCHEM_BOND_UDEF_STEREO_COUNT>
0

> <PUBCHEM_ISOTOPIC_ATOM_COUNT>
0

> <PUBCHEM_COMPONENT_COUNT>
1

> <PUBCHEM_CACTVS_TAUTO_COUNT>
-1

> <PUBCHEM_CONFORMER_ID>
0812932800000001

> <PUBCHEM_MMFF94_ENERGY>
50.3541

> <PUBCHEM_FEATURE_SELFOVERLAP>
45.842

> <PUBCHEM_SHAPE_FINGERPRINT>
10062212 137 18130501964399242839
10616163 171 18272370905754018759
11471102 20 18334015012269269740
11578080 2 18057016086987089560
11806522 49 18409448051454543506
12107183 9 17836935494929868393
12236239 1 18201722842424708888
12916754 54 18409165485398039965
13167823 11 18342177756576424559
13533116 47 18341048601448569939
13760787 5 18411419514510722429
13862211 1 18261954034530751594
14251717 144 18407476669844701858
14576447 43 18410575067979341806
15196674 1 18412544306131275865
15375462 189 18272373078906711001
15477762 27 18336547127771904122
15536298 74 18342175570411814152
17834072 33 18411982485791170269
18186145 218 17168146719469342185
18915474 69 18342454859039259007
19050596 39 18343302548118025921
19422 9 18342460322448506721
200 152 18412823582031990057
20279233 1 16515400789695262441
20281475 54 18341891883574405825
20291156 8 18340767039923478456
20612939 158 18333735732163278948
20645477 70 18333729117549671942
21065198 48 18343588434427225513
21267235 1 18341339924115520183
221490 88 18334303092853148818
2255824 54 18335704936177254318
22646028 1 18343582936752821129
22646028 28 18342736304114676863
23463225 33 18343019956581635015
23559900 14 18411693275156535456
23596394 208 17749377157582884679
23598291 2 18341058419058149197
2871803 45 18186515488664017683
29717793 49 18201718431952186733
3004659 81 18409445864862736471
312423 11 18341061739152122137
4214541 1 18340206289473652921
42630746 31 18410290346244628192
465052 167 18130228276504507071
474 4 18189338051130084364
4921388 177 16660935469221702739
5104073 3 18343585135902678121
5281201 14 17748825198276694509
573450 72 17917993850256353817
602551 16 16056587807085593030
633830 44 17603871078803123993
77779 3 18410013226069343593
7970288 3 18192989314440145538
9709674 26 18337680723764723899

> <PUBCHEM_SHAPE_MULTIPOLES>
333.79
10.17
2
0.83
5.75
0.1
-0.02
3.01
-0.66
-2.05
-0.03
0.38
-0.02
-1.32

> <PUBCHEM_SHAPE_SELFOVERLAP>
742.297

> <PUBCHEM_SHAPE_VOLUME>
176

> <PUBCHEM_COORDINATE_TYPE>
2
5
10

$$$$
