135412736
  -OEChem-03292013293D

 29 30  0     0  0  0  0  0  0999 V2000
    1.3885   -2.4237   -0.0013 O   0  5  0  0  0  0  0  0  0  0  0  0
    2.2096    2.8692   -0.0041 O   0  5  0  0  0  0  0  0  0  0  0  0
   -4.2699    1.2636   -0.0177 O   0  0  0  0  0  0  0  0  0  0  0  0
    1.6143   -1.1631   -0.0010 N   0  3  0  0  0  0  0  0  0  0  0  0
    2.0526    1.6006   -0.0021 N   0  3  0  0  0  0  0  0  0  0  0  0
   -1.8512   -0.0371   -0.0116 N   0  0  0  0  0  0  0  0  0  0  0  0
   -3.0319   -0.6969   -0.0134 N   0  0  0  0  0  0  0  0  0  0  0  0
   -7.6760    0.4847    0.0451 N   0  0  0  0  0  0  0  0  0  0  0  0
    2.9159   -0.6689    0.0028 C   0  0  0  0  0  0  0  0  0  0  0  0
    3.1375    0.7280    0.0023 C   0  0  0  0  0  0  0  0  0  0  0  0
    0.5575   -0.2810   -0.0053 C   0  0  0  0  0  0  0  0  0  0  0  0
    0.7747    1.0886   -0.0060 C   0  0  0  0  0  0  0  0  0  0  0  0
    4.0069   -1.5464    0.0072 C   0  0  0  0  0  0  0  0  0  0  0  0
    4.4463    1.2252    0.0063 C   0  0  0  0  0  0  0  0  0  0  0  0
    5.3069   -1.0388    0.0112 C   0  0  0  0  0  0  0  0  0  0  0  0
    5.5255    0.3404    0.0106 C   0  0  0  0  0  0  0  0  0  0  0  0
   -0.7982   -0.8062   -0.0084 C   0  0  0  0  0  0  0  0  0  0  0  0
   -4.2061    0.0367   -0.0165 C   0  0  0  0  0  0  0  0  0  0  0  0
   -5.4232   -0.8653   -0.0163 C   0  0  0  0  0  0  0  0  0  0  0  0
   -6.6797   -0.1095    0.0183 C   0  0  0  0  0  0  0  0  0  0  0  0
   -0.0033    1.8389   -0.0093 H   0  0  0  0  0  0  0  0  0  0  0  0
    3.8721   -2.6246    0.0077 H   0  0  0  0  0  0  0  0  0  0  0  0
    4.6502    2.2924    0.0060 H   0  0  0  0  0  0  0  0  0  0  0  0
    6.1534   -1.7197    0.0146 H   0  0  0  0  0  0  0  0  0  0  0  0
    6.5411    0.7260    0.0137 H   0  0  0  0  0  0  0  0  0  0  0  0
   -0.9239   -1.9035   -0.0076 H   0  0  0  0  0  0  0  0  0  0  0  0
   -3.0182   -1.7122   -0.0126 H   0  0  0  0  0  0  0  0  0  0  0  0
   -5.3894   -1.4906   -0.9156 H   0  0  0  0  0  0  0  0  0  0  0  0
   -5.3645   -1.5278    0.8547 H   0  0  0  0  0  0  0  0  0  0  0  0
  1  4  1  0  0  0  0
  2  5  1  0  0  0  0
  3 18  2  0  0  0  0
  4  9  1  0  0  0  0
  4 11  2  0  0  0  0
  5 10  1  0  0  0  0
  5 12  2  0  0  0  0
  6  7  1  0  0  0  0
  6 17  2  0  0  0  0
  7 18  1  0  0  0  0
  7 27  1  0  0  0  0
  8 20  3  0  0  0  0
  9 10  1  0  0  0  0
  9 13  2  0  0  0  0
 10 14  2  0  0  0  0
 11 12  1  0  0  0  0
 11 17  1  0  0  0  0
 12 21  1  0  0  0  0
 13 15  1  0  0  0  0
 13 22  1  0  0  0  0
 14 16  1  0  0  0  0
 14 23  1  0  0  0  0
 15 16  2  0  0  0  0
 15 24  1  0  0  0  0
 16 25  1  0  0  0  0
 17 26  1  0  0  0  0
 18 19  1  0  0  0  0
 19 20  1  0  0  0  0
 19 28  1  0  0  0  0
 19 29  1  0  0  0  0
M  CHG  4   1  -1   2  -1   4   1   5   1
M  END
> <PUBCHEM_COMPOUND_CID>
135412736

> <PUBCHEM_CONFORMER_RMSD>
0.6

> <PUBCHEM_CONFORMER_DIVERSEORDER>
1
23
15
26
13
25
6
22
16
24
12
2
4
7
28
9
14
20
3
29
11
21
10
17
19
27
5
8
18

> <PUBCHEM_MMFF94_PARTIAL_CHARGES>
27
1 -0.75
10 0.09
11 0.18
12 -0.06
13 -0.15
14 -0.15
15 -0.15
16 -0.15
17 0.3
18 0.57
19 0.26
2 -0.75
20 0.36
21 0.15
22 0.15
23 0.15
24 0.15
25 0.15
26 0.06
27 0.37
3 -0.57
4 0.57
5 0.57
6 -0.51
7 -0.37
8 -0.56
9 0.09

> <PUBCHEM_EFFECTIVE_ROTOR_COUNT>
4

> <PUBCHEM_PHARMACOPHORE_FEATURES>
8
1 1 anion
1 2 anion
1 3 acceptor
1 6 acceptor
1 7 donor
1 8 acceptor
6 4 5 9 10 11 12 rings
6 9 10 13 14 15 16 rings

> <PUBCHEM_HEAVY_ATOM_COUNT>
20

> <PUBCHEM_ATOM_DEF_STEREO_COUNT>
0

> <PUBCHEM_ATOM_UDEF_STEREO_COUNT>
0

> <PUBCHEM_BOND_DEF_STEREO_COUNT>
1

> <PUBCHEM_BOND_UDEF_STEREO_COUNT>
0

> <PUBCHEM_ISOTOPIC_ATOM_COUNT>
0

> <PUBCHEM_COMPONENT_COUNT>
1

> <PUBCHEM_CACTVS_TAUTO_COUNT>
-1

> <PUBCHEM_CONFORMER_ID>
08123C0000000001

> <PUBCHEM_MMFF94_ENERGY>
49.3938

> <PUBCHEM_FEATURE_SELFOVERLAP>
40.631

> <PUBCHEM_SHAPE_FINGERPRINT>
10354089 29 18411136943700088290
10411042 1 18122626051452653550
10688039 33 17967812717362886404
11471102 20 18410292519213074494
12107183 9 17620760488244493419
12166972 35 18202283619383609585
12236239 1 17917991694008730255
13167372 99 18272093756268018753
13533116 47 17203613640308786126
13836976 161 18341617035616351110
14170010 4 18410011052441494896
14251764 18 18410575084731865128
14341114 176 18408327696339930401
14464042 87 17989494000040911705
14933364 13 18334859411946491213
15196674 1 18410573950865890604
17834072 33 18343017809240613207
200 152 18202281394579415617
20645477 70 18412546475042813934
21267235 1 18339928121922388590
221357 26 18409164398718904421
23402539 116 17989483044053670685
23536379 177 18413389822088687219
23559900 14 18336824294986016545
29717793 49 17775290456020890015
335352 9 18410858776803133958
34797466 226 16200435792857155368
350125 39 18411136926990191765
3545911 37 18408885144614351311
4072396 5 18336536162804949770
4073 2 17968663825541510915
4214541 1 18410573977231501005
42630746 31 18343023285403212374
4340502 62 16515678962306262146
5104073 3 18410573963745271825
542803 24 17346601868105712547
59755656 215 18260266326619825423
59755656 520 17458622342011413283
8272917 22 18413673508578228334
9999458 23 18186519947172322094

> <PUBCHEM_SHAPE_MULTIPOLES>
369.08
16.37
1.89
0.58
28.95
0.46
0
0.27
-0.15
-2.05
0
-0.05
-0.01
-0.01

> <PUBCHEM_SHAPE_SELFOVERLAP>
787.818

> <PUBCHEM_SHAPE_VOLUME>
201

> <PUBCHEM_COORDINATE_TYPE>
2
5
10

$$$$
