135408877
  -OEChem-03292013293D

 29 30  0     1  0  0  0  0  0999 V2000
   -2.6361   -0.5030   -2.0009 O   0  0  0  0  0  0  0  0  0  0  0  0
   -3.4703    1.3038    1.0797 O   0  0  0  0  0  0  0  0  0  0  0  0
   -4.2122   -1.5169    1.6644 O   0  0  0  0  0  0  0  0  0  0  0  0
    1.4146   -2.5624   -0.5206 O   0  0  0  0  0  0  0  0  0  0  0  0
   -0.2970   -0.4510   -0.6148 N   0  0  0  0  0  0  0  0  0  0  0  0
    0.7613    2.0731    0.0242 N   0  0  0  0  0  0  0  0  0  0  0  0
    3.1659   -1.1827    0.1137 N   0  0  0  0  0  0  0  0  0  0  0  0
    2.8786    1.1398    0.3966 N   0  0  0  0  0  0  0  0  0  0  0  0
    4.9760    0.1530    0.7562 N   0  0  0  0  0  0  0  0  0  0  0  0
   -2.4880    0.5177   -0.9989 C   0  0  1  0  0  0  0  0  0  0  0  0
   -3.4563    0.2014    0.1703 C   0  0  1  0  0  0  0  0  0  0  0  0
   -1.0529    0.6630   -0.6292 C   0  0  0  0  0  0  0  0  0  0  0  0
   -3.0783   -1.0684    0.9284 C   0  0  0  0  0  0  0  0  0  0  0  0
    0.9934   -0.2675   -0.2743 C   0  0  0  0  0  0  0  0  0  0  0  0
   -0.5339    1.9012   -0.3159 C   0  0  0  0  0  0  0  0  0  0  0  0
    1.5314    0.9656    0.0431 C   0  0  0  0  0  0  0  0  0  0  0  0
    1.8551   -1.4534   -0.2455 C   0  0  0  0  0  0  0  0  0  0  0  0
    3.6487    0.0865    0.4236 C   0  0  0  0  0  0  0  0  0  0  0  0
   -2.8192    1.4502   -1.4736 H   0  0  0  0  0  0  0  0  0  0  0  0
   -4.4721    0.0966   -0.2308 H   0  0  0  0  0  0  0  0  0  0  0  0
   -2.2673   -0.8864    1.6408 H   0  0  0  0  0  0  0  0  0  0  0  0
   -2.7960   -1.8762    0.2469 H   0  0  0  0  0  0  0  0  0  0  0  0
   -1.1346    2.8033   -0.3237 H   0  0  0  0  0  0  0  0  0  0  0  0
   -1.8634   -0.4670   -2.5901 H   0  0  0  0  0  0  0  0  0  0  0  0
   -4.0847    1.0790    1.7991 H   0  0  0  0  0  0  0  0  0  0  0  0
    3.8163   -1.9620    0.1532 H   0  0  0  0  0  0  0  0  0  0  0  0
   -3.9442   -2.3231    2.1374 H   0  0  0  0  0  0  0  0  0  0  0  0
    5.4135    1.0357    0.9966 H   0  0  0  0  0  0  0  0  0  0  0  0
    5.5595   -0.6763    0.7721 H   0  0  0  0  0  0  0  0  0  0  0  0
  1 10  1  0  0  0  0
  1 24  1  0  0  0  0
  2 11  1  0  0  0  0
  2 25  1  0  0  0  0
  3 13  1  0  0  0  0
  3 27  1  0  0  0  0
  4 17  2  0  0  0  0
  5 12  1  0  0  0  0
  5 14  2  0  0  0  0
  6 15  1  0  0  0  0
  6 16  2  0  0  0  0
  7 17  1  0  0  0  0
  7 18  1  0  0  0  0
  7 26  1  0  0  0  0
  8 16  1  0  0  0  0
  8 18  2  0  0  0  0
  9 18  1  0  0  0  0
  9 28  1  0  0  0  0
  9 29  1  0  0  0  0
 10 11  1  0  0  0  0
 10 12  1  0  0  0  0
 10 19  1  0  0  0  0
 11 13  1  0  0  0  0
 11 20  1  0  0  0  0
 12 15  2  0  0  0  0
 13 21  1  0  0  0  0
 13 22  1  0  0  0  0
 14 16  1  0  0  0  0
 14 17  1  0  0  0  0
 15 23  1  0  0  0  0
M  END
> <PUBCHEM_COMPOUND_CID>
135408877

> <PUBCHEM_CONFORMER_RMSD>
0.6

> <PUBCHEM_CONFORMER_DIVERSEORDER>
1
37
71
41
55
35
14
50
69
38
9
27
7
20
66
11
65
39
28
53
49
24
54
3
29
58
10
72
63
36
46
26
6
45
30
42
70
62
57
68
56
22
2
4
12
31
18
52
25
48
60
61
59
8
43
64
51
15
19
32
67
34
17
5
33
40
23
16
13
47
44
21

> <PUBCHEM_MMFF94_PARTIAL_CHARGES>
25
1 -0.68
10 0.42
11 0.28
12 0.17
13 0.28
14 0.4
15 0.16
16 0.49
17 0.54
18 0.56
2 -0.68
23 0.15
24 0.4
25 0.4
26 0.37
27 0.4
28 0.4
29 0.4
3 -0.68
4 -0.57
5 -0.62
6 -0.62
7 -0.49
8 -0.63
9 -0.85

> <PUBCHEM_EFFECTIVE_ROTOR_COUNT>
3

> <PUBCHEM_PHARMACOPHORE_FEATURES>
13
1 1 acceptor
1 1 donor
1 2 acceptor
1 2 donor
1 3 acceptor
1 3 donor
1 4 acceptor
1 5 acceptor
1 7 donor
1 9 donor
3 6 8 16 cation
6 5 6 12 14 15 16 rings
6 7 8 14 16 17 18 rings

> <PUBCHEM_HEAVY_ATOM_COUNT>
18

> <PUBCHEM_ATOM_DEF_STEREO_COUNT>
0

> <PUBCHEM_ATOM_UDEF_STEREO_COUNT>
2

> <PUBCHEM_BOND_DEF_STEREO_COUNT>
0

> <PUBCHEM_BOND_UDEF_STEREO_COUNT>
0

> <PUBCHEM_ISOTOPIC_ATOM_COUNT>
0

> <PUBCHEM_COMPONENT_COUNT>
1

> <PUBCHEM_CACTVS_TAUTO_COUNT>
-1

> <PUBCHEM_CONFORMER_ID>
08122CED00000001

> <PUBCHEM_MMFF94_ENERGY>
45.9223

> <PUBCHEM_FEATURE_SELFOVERLAP>
66.073

> <PUBCHEM_SHAPE_FINGERPRINT>
11132069 177 18200859743398637198
11471102 22 18411705395596299667
12202030 40 17749107803267497439
12251169 10 18271811241608080527
12382932 28 18410014299637016491
12633257 1 18263946477990092363
13140716 1 18268141153335788904
13214271 11 18410290294261922157
13583140 156 16880438654813093536
14252887 29 18131078112549794526
15209294 21 17632573834009165760
15309172 13 18272645757663759878
15375358 24 18262228920320267685
15375462 189 18202558479946711840
15422964 175 18334867090857445047
16945 1 18412535518449145820
17844478 74 18261391113676522940
19784866 170 18340209600597896056
19862831 5 11674875619560193467
200 152 18201706402023077767
20279233 1 18041274387986204655
20645477 70 18127676154532303974
21256008 23 18341614832271663160
231179 274 11095888163676757060
23402539 116 12324230634384419364
23493267 7 17750214937998409380
23557571 272 16443336538231159917
23559900 14 17969494910545703722
26918003 58 18187640288879904025
2748010 2 18053653677787075628
5104073 3 18339354150950861888
568465 68 18341059617459201995
8809292 202 18113622278589505603

> <PUBCHEM_SHAPE_MULTIPOLES>
322.05
7.59
1.96
1.17
1.24
0.27
0.12
1.44
-2.94
0.1
-0.07
-1.3
0.26
0.75

> <PUBCHEM_SHAPE_SELFOVERLAP>
687.672

> <PUBCHEM_SHAPE_VOLUME>
177.4

> <PUBCHEM_COORDINATE_TYPE>
2
5
10

$$$$
