135440064
  -OEChem-03292013293D

 33 35  0     1  0  0  0  0  0999 V2000
    1.9163    0.4425   -1.0672 O   0  0  0  0  0  0  0  0  0  0  0  0
    3.5012    2.4181    0.6525 O   0  0  0  0  0  0  0  0  0  0  0  0
    5.1576   -1.1062   -0.6661 O   0  0  0  0  0  0  0  0  0  0  0  0
    1.0932   -2.2686    0.4075 O   0  0  0  0  0  0  0  0  0  0  0  0
   -4.2269   -1.9028    0.0941 O   0  0  0  0  0  0  0  0  0  0  0  0
   -0.0111   -0.1670    0.1112 N   0  0  0  0  0  0  0  0  0  0  0  0
   -1.2655   -2.0324    0.2604 N   0  0  0  0  0  0  0  0  0  0  0  0
   -1.8368    1.4388   -0.1654 N   0  0  0  0  0  0  0  0  0  0  0  0
   -3.9774    0.4022   -0.1560 N   0  0  0  0  0  0  0  0  0  0  0  0
   -3.7844    2.7260   -0.4120 N   0  0  0  0  0  0  0  0  0  0  0  0
    1.0877    0.7527    0.0620 C   0  0  1  0  0  0  0  0  0  0  0  0
    1.9667    0.6876    1.3005 C   0  0  0  0  0  0  0  0  0  0  0  0
    3.3363    1.0048    0.7462 C   0  0  1  0  0  0  0  0  0  0  0  0
    3.2938    0.3946   -0.6479 C   0  0  1  0  0  0  0  0  0  0  0  0
    3.7401   -1.0615   -0.6715 C   0  0  0  0  0  0  0  0  0  0  0  0
   -1.3446    0.1771    0.0039 C   0  0  0  0  0  0  0  0  0  0  0  0
    0.0893   -1.5852    0.2784 C   0  0  0  0  0  0  0  0  0  0  0  0
   -2.0683   -0.9440    0.0952 C   0  0  0  0  0  0  0  0  0  0  0  0
   -3.5248   -0.9039    0.0162 C   0  0  0  0  0  0  0  0  0  0  0  0
   -3.1425    1.5272   -0.2421 C   0  0  0  0  0  0  0  0  0  0  0  0
    0.7221    1.7754   -0.0853 H   0  0  0  0  0  0  0  0  0  0  0  0
    1.9758   -0.3078    1.7553 H   0  0  0  0  0  0  0  0  0  0  0  0
    1.6271    1.3956    2.0637 H   0  0  0  0  0  0  0  0  0  0  0  0
    4.1459    0.6204    1.3738 H   0  0  0  0  0  0  0  0  0  0  0  0
    3.8818    0.9818   -1.3624 H   0  0  0  0  0  0  0  0  0  0  0  0
    3.3760   -1.5676   -1.5717 H   0  0  0  0  0  0  0  0  0  0  0  0
    3.3866   -1.6156    0.2001 H   0  0  0  0  0  0  0  0  0  0  0  0
    4.3726    2.5830    0.2534 H   0  0  0  0  0  0  0  0  0  0  0  0
   -1.5872   -2.9878    0.3532 H   0  0  0  0  0  0  0  0  0  0  0  0
    5.4148   -2.0436   -0.6896 H   0  0  0  0  0  0  0  0  0  0  0  0
   -4.9802    0.5494   -0.2240 H   0  0  0  0  0  0  0  0  0  0  0  0
   -3.2649    3.5939   -0.4848 H   0  0  0  0  0  0  0  0  0  0  0  0
   -4.7953    2.7812   -0.4699 H   0  0  0  0  0  0  0  0  0  0  0  0
  1 11  1  0  0  0  0
  1 14  1  0  0  0  0
  2 13  1  0  0  0  0
  2 28  1  0  0  0  0
  3 15  1  0  0  0  0
  3 30  1  0  0  0  0
  4 17  2  0  0  0  0
  5 19  2  0  0  0  0
  6 11  1  0  0  0  0
  6 16  1  0  0  0  0
  6 17  1  0  0  0  0
  7 17  1  0  0  0  0
  7 18  1  0  0  0  0
  7 29  1  0  0  0  0
  8 16  1  0  0  0  0
  8 20  2  0  0  0  0
  9 19  1  0  0  0  0
  9 20  1  0  0  0  0
  9 31  1  0  0  0  0
 10 20  1  0  0  0  0
 10 32  1  0  0  0  0
 10 33  1  0  0  0  0
 11 12  1  0  0  0  0
 11 21  1  0  0  0  0
 12 13  1  0  0  0  0
 12 22  1  0  0  0  0
 12 23  1  0  0  0  0
 13 14  1  0  0  0  0
 13 24  1  0  0  0  0
 14 15  1  0  0  0  0
 14 25  1  0  0  0  0
 15 26  1  0  0  0  0
 15 27  1  0  0  0  0
 16 18  2  0  0  0  0
 18 19  1  0  0  0  0
M  END
> <PUBCHEM_COMPOUND_CID>
135440064

> <PUBCHEM_CONFORMER_RMSD>
0.6

> <PUBCHEM_CONFORMER_DIVERSEORDER>
1
17
9
8
13
5
16
12
15
3
11
2
14
7
4
10
6

> <PUBCHEM_MMFF94_PARTIAL_CHARGES>
25
1 -0.56
10 -0.85
11 0.58
13 0.28
14 0.28
15 0.28
16 0.28
17 0.69
18 0.12
19 0.62
2 -0.68
20 0.56
28 0.4
29 0.37
3 -0.68
30 0.4
31 0.37
32 0.4
33 0.4
4 -0.57
5 -0.57
6 -0.47
7 -0.54
8 -0.62
9 -0.49

> <PUBCHEM_EFFECTIVE_ROTOR_COUNT>
3

> <PUBCHEM_PHARMACOPHORE_FEATURES>
13
1 1 acceptor
1 10 donor
1 2 acceptor
1 2 donor
1 3 acceptor
1 3 donor
1 4 acceptor
1 5 acceptor
1 7 donor
1 9 donor
5 1 11 12 13 14 rings
5 6 7 16 17 18 rings
6 8 9 16 18 19 20 rings

> <PUBCHEM_HEAVY_ATOM_COUNT>
20

> <PUBCHEM_ATOM_DEF_STEREO_COUNT>
3

> <PUBCHEM_ATOM_UDEF_STEREO_COUNT>
0

> <PUBCHEM_BOND_DEF_STEREO_COUNT>
0

> <PUBCHEM_BOND_UDEF_STEREO_COUNT>
0

> <PUBCHEM_ISOTOPIC_ATOM_COUNT>
0

> <PUBCHEM_COMPONENT_COUNT>
1

> <PUBCHEM_CACTVS_TAUTO_COUNT>
-1

> <PUBCHEM_CONFORMER_ID>
0812A6C000000001

> <PUBCHEM_MMFF94_ENERGY>
64.3898

> <PUBCHEM_FEATURE_SELFOVERLAP>
66.134

> <PUBCHEM_SHAPE_FINGERPRINT>
10498660 4 18335130999486883197
10608611 8 18412823611770031760
10646746 165 18410852157467350104
1100329 8 16899902986730707096
11132069 177 18260543450715518005
11405975 8 18272371940571643961
12173636 292 18408879642471270605
12236239 1 17313376877087339296
12403259 226 18341047514368169889
12403259 415 18412827988304822144
12507560 40 18342735252148434640
12788726 201 16810967292359399610
13134695 92 16917061136565921344
13140716 1 18190737527853149435
13464514 151 18054513508443170501
14866123 147 16976756685160260898
15196674 1 18410856581114626060
15219456 202 18201437008362154336
15536298 74 18413387652866659874
16945 1 18335982081784797651
17804303 29 18410295796283748870
18186145 218 18202290194804063232
200 152 16845573097507820430
20510252 161 18341331197132274257
20645477 56 18339077210969290520
20645477 70 17560812047686169590
21065201 7 18408036312462354400
21267235 1 18336838540876007587
21279426 13 18195249906325328558
21501502 16 18262511486387736387
23402539 116 18267854158972597149
23493267 7 17749398048240340395
23557571 272 18339360880906560328
23559900 14 18272088288890454816
2748010 2 18335986355361666239
296302 2 11602816917199312971
3004659 81 18189063002326587246
350125 39 18337395937736953963
3545911 37 18334295319442150485
4214541 1 18411702071297101652
43471831 8 18259977180636677011
495365 180 17632283593499777200
4990 188 18271812289432622326
5104073 3 18411138047538345808
5281201 14 18272093824549580396
59755656 215 18336265652711057567
633830 44 18341886385694676229
69090 78 18059855124798879686
7364860 26 18196369225841308207
77492 1 17313097579173789945
9709674 26 18339643472432076666

> <PUBCHEM_SHAPE_MULTIPOLES>
357.34
8.63
2.4
0.86
1.27
0.32
0.06
0.79
-1.23
-1.08
0.13
0.67
0.11
1.03

> <PUBCHEM_SHAPE_SELFOVERLAP>
777.441

> <PUBCHEM_SHAPE_VOLUME>
191.3

> <PUBCHEM_COORDINATE_TYPE>
2
5
10

$$$$
