135409438
  -OEChem-03292013293D

 31 32  0     0  0  0  0  0  0999 V2000
    3.3943   -0.5592   -0.4073 P   0  0  0  0  0  0  0  0  0  0  0  0
    1.7029    1.2235    0.2569 O   0  0  0  0  0  0  0  0  0  0  0  0
    4.6937   -0.6269   -1.3660 O   0  0  0  0  0  0  0  0  0  0  0  0
    2.2378   -1.2508   -1.2998 O   0  0  0  0  0  0  0  0  0  0  0  0
   -3.7395   -1.5575   -1.2258 O   0  0  0  0  0  0  0  0  0  0  0  0
    3.5775   -1.1466    0.9603 O   0  0  0  0  0  0  0  0  0  0  0  0
   -1.1413    1.7696    0.3851 N   0  0  0  0  0  0  0  0  0  0  0  0
   -2.9326    1.2779   -0.8606 N   0  0  0  0  0  0  0  0  0  0  0  0
   -0.4419   -0.4495    1.0524 N   0  0  0  0  0  0  0  0  0  0  0  0
   -1.9118   -2.0979    0.1236 N   0  0  0  0  0  0  0  0  0  0  0  0
   -0.0913   -2.7341    1.4743 N   0  0  0  0  0  0  0  0  0  0  0  0
   -0.1365    2.5684    1.0440 C   0  0  0  0  0  0  0  0  0  0  0  0
   -1.2575    0.4109    0.4038 C   0  0  0  0  0  0  0  0  0  0  0  0
    1.1960    2.5514    0.3028 C   0  0  0  0  0  0  0  0  0  0  0  0
   -2.3624    0.1418   -0.3671 C   0  0  0  0  0  0  0  0  0  0  0  0
   -2.1717    2.2459   -0.3885 C   0  0  0  0  0  0  0  0  0  0  0  0
    2.9466    1.1640   -0.4271 C   0  0  0  0  0  0  0  0  0  0  0  0
   -2.7701   -1.2229   -0.5568 C   0  0  0  0  0  0  0  0  0  0  0  0
   -0.7921   -1.7078    0.8959 C   0  0  0  0  0  0  0  0  0  0  0  0
   -0.0209    2.1648    2.0565 H   0  0  0  0  0  0  0  0  0  0  0  0
   -0.5142    3.5930    1.1282 H   0  0  0  0  0  0  0  0  0  0  0  0
    1.9102    3.1967    0.8267 H   0  0  0  0  0  0  0  0  0  0  0  0
    1.0638    2.9273   -0.7190 H   0  0  0  0  0  0  0  0  0  0  0  0
   -2.3149    3.3021   -0.5722 H   0  0  0  0  0  0  0  0  0  0  0  0
    2.8337    1.5231   -1.4550 H   0  0  0  0  0  0  0  0  0  0  0  0
    3.6990    1.7636    0.0945 H   0  0  0  0  0  0  0  0  0  0  0  0
   -2.1101   -3.0921    0.0561 H   0  0  0  0  0  0  0  0  0  0  0  0
    0.7278   -2.5543    2.0446 H   0  0  0  0  0  0  0  0  0  0  0  0
   -0.3685   -3.7013    1.3477 H   0  0  0  0  0  0  0  0  0  0  0  0
    5.1478   -1.4874   -1.4903 H   0  0  0  0  0  0  0  0  0  0  0  0
    2.2425   -2.2254   -1.4109 H   0  0  0  0  0  0  0  0  0  0  0  0
  1  3  1  0  0  0  0
  1  4  1  0  0  0  0
  1  6  2  0  0  0  0
  1 17  1  0  0  0  0
  2 14  1  0  0  0  0
  2 17  1  0  0  0  0
  3 30  1  0  0  0  0
  4 31  1  0  0  0  0
  5 18  2  0  0  0  0
  7 12  1  0  0  0  0
  7 13  1  0  0  0  0
  7 16  1  0  0  0  0
  8 15  1  0  0  0  0
  8 16  2  0  0  0  0
  9 13  1  0  0  0  0
  9 19  2  0  0  0  0
 10 18  1  0  0  0  0
 10 19  1  0  0  0  0
 10 27  1  0  0  0  0
 11 19  1  0  0  0  0
 11 28  1  0  0  0  0
 11 29  1  0  0  0  0
 12 14  1  0  0  0  0
 12 20  1  0  0  0  0
 12 21  1  0  0  0  0
 13 15  2  0  0  0  0
 14 22  1  0  0  0  0
 14 23  1  0  0  0  0
 15 18  1  0  0  0  0
 16 24  1  0  0  0  0
 17 25  1  0  0  0  0
 17 26  1  0  0  0  0
M  END
> <PUBCHEM_COMPOUND_CID>
135409438

> <PUBCHEM_CONFORMER_RMSD>
0.8

> <PUBCHEM_CONFORMER_DIVERSEORDER>
1
28
2
5
36
25
12
37
15
13
38
6
4
19
27
9
20
22
21
24
18
16
11
32
26
17
14
3
7
10
8
23
35
34
29
33
31
30

> <PUBCHEM_MMFF94_PARTIAL_CHARGES>
25
1 1.24
10 -0.49
11 -0.85
12 0.26
13 -0.03
14 0.28
15 0.14
16 0.04
17 0.28
18 0.72
19 0.56
2 -0.56
24 0.15
27 0.37
28 0.4
29 0.4
3 -0.77
30 0.5
31 0.5
4 -0.77
5 -0.57
6 -0.7
7 0.05
8 -0.57
9 -0.58

> <PUBCHEM_EFFECTIVE_ROTOR_COUNT>
5

> <PUBCHEM_PHARMACOPHORE_FEATURES>
11
1 10 donor
1 11 donor
1 2 acceptor
1 3 acceptor
1 4 acceptor
1 5 acceptor
1 6 acceptor
3 7 8 16 cation
4 1 3 4 6 anion
5 7 8 13 15 16 rings
6 9 10 13 15 18 19 rings

> <PUBCHEM_HEAVY_ATOM_COUNT>
19

> <PUBCHEM_ATOM_DEF_STEREO_COUNT>
0

> <PUBCHEM_ATOM_UDEF_STEREO_COUNT>
0

> <PUBCHEM_BOND_DEF_STEREO_COUNT>
0

> <PUBCHEM_BOND_UDEF_STEREO_COUNT>
0

> <PUBCHEM_ISOTOPIC_ATOM_COUNT>
0

> <PUBCHEM_COMPONENT_COUNT>
1

> <PUBCHEM_CACTVS_TAUTO_COUNT>
-1

> <PUBCHEM_CONFORMER_ID>
08122F1E00000001

> <PUBCHEM_MMFF94_ENERGY>
0.3849

> <PUBCHEM_FEATURE_SELFOVERLAP>
56.037

> <PUBCHEM_SHAPE_FINGERPRINT>
10062212 137 18116700829490113459
10693767 8 17983832735551583031
10764073 3 17613485135667292833
12363563 72 18131360725750848140
12553582 1 18339656623716746376
1420 336 18410862018854504768
14251745 187 18267016344123890152
14790565 3 17838338484731764889
15415430 2 18262236741365997411
16945 1 18200879452697934609
19591789 44 18335980961088327971
19765921 60 17678458558822701545
20645476 183 17604449409018341608
20871999 31 18408892836521236948
22802520 49 18121216747347419817
23557571 272 18058997450189831114
23559900 14 18342170017710151544
27216 239 8358249311600137204
2748010 2 17112129097389243369
5262128 65 18271816739050350372
8809292 202 18411146826857868284
9709674 26 18339643459705410844
9925002 15 17617622524692371803

> <PUBCHEM_SHAPE_MULTIPOLES>
340.61
6.31
3.12
1.21
5.13
0.62
0.02
-2.12
-3.01
-0.91
0.8
0.22
-0.46
0.15

> <PUBCHEM_SHAPE_SELFOVERLAP>
704.597

> <PUBCHEM_SHAPE_VOLUME>
197.1

> <PUBCHEM_COORDINATE_TYPE>
2
5
10

$$$$
