135487647
  -OEChem-03292013293D

 59 62  0     0  0  0  0  0  0999 V2000
   -4.0886    0.6743   -2.5140 O   0  0  0  0  0  0  0  0  0  0  0  0
    0.8134    2.6452    0.8480 O   0  0  0  0  0  0  0  0  0  0  0  0
    1.6445   -3.1833    1.5551 O   0  0  0  0  0  0  0  0  0  0  0  0
   -4.8213   -0.1093   -0.4368 N   0  0  0  0  0  0  0  0  0  0  0  0
   -6.3114   -2.1000    0.9816 N   0  0  0  0  0  0  0  0  0  0  0  0
    4.1445   -2.3313    0.0525 N   0  0  0  0  0  0  0  0  0  0  0  0
    0.7213   -1.2308    0.7006 N   0  0  0  0  0  0  0  0  0  0  0  0
    1.9330    0.3030   -0.7098 N   0  0  0  0  0  0  0  0  0  0  0  0
    4.9992   -1.6187   -0.7153 N   0  0  0  0  0  0  0  0  0  0  0  0
   -6.1109   -0.5756   -0.9443 C   0  0  0  0  0  0  0  0  0  0  0  0
   -4.6280   -0.2879    1.0075 C   0  0  0  0  0  0  0  0  0  0  0  0
   -6.4105   -1.9963   -0.4755 C   0  0  0  0  0  0  0  0  0  0  0  0
   -4.9751   -1.7127    1.4373 C   0  0  0  0  0  0  0  0  0  0  0  0
   -3.9274    0.5243   -1.3036 C   0  0  0  0  0  0  0  0  0  0  0  0
   -2.6861    1.0728   -0.7411 C   0  0  0  0  0  0  0  0  0  0  0  0
    2.9866   -0.6020   -0.5608 C   0  0  0  0  0  0  0  0  0  0  0  0
    4.2769   -0.5537   -1.0895 C   0  0  0  0  0  0  0  0  0  0  0  0
    2.9167   -1.7537    0.1728 C   0  0  0  0  0  0  0  0  0  0  0  0
   -0.3617    0.8022   -0.1405 C   0  0  0  0  0  0  0  0  0  0  0  0
    0.8478   -0.0603   -0.0757 C   0  0  0  0  0  0  0  0  0  0  0  0
   -1.5405    0.2801   -0.6729 C   0  0  0  0  0  0  0  0  0  0  0  0
    4.8779    0.4751   -1.9533 C   0  0  0  0  0  0  0  0  0  0  0  0
   -0.3287    2.1170    0.3239 C   0  0  0  0  0  0  0  0  0  0  0  0
   -2.6531    2.3877   -0.2765 C   0  0  0  0  0  0  0  0  0  0  0  0
    1.7463   -2.1643    0.8808 C   0  0  0  0  0  0  0  0  0  0  0  0
    5.8260    1.4223   -1.1892 C   0  0  0  0  0  0  0  0  0  0  0  0
   -1.4744    2.9098    0.2560 C   0  0  0  0  0  0  0  0  0  0  0  0
    4.5922   -3.5687    0.6458 C   0  0  0  0  0  0  0  0  0  0  0  0
    5.1163    2.2032   -0.0947 C   0  0  0  0  0  0  0  0  0  0  0  0
    0.7558    3.1001    2.1982 C   0  0  0  0  0  0  0  0  0  0  0  0
    2.1192    2.9316    2.8339 C   0  0  0  0  0  0  0  0  0  0  0  0
   -6.1349   -0.5320   -2.0380 H   0  0  0  0  0  0  0  0  0  0  0  0
   -6.8732    0.1205   -0.5730 H   0  0  0  0  0  0  0  0  0  0  0  0
   -5.2865    0.4330    1.5074 H   0  0  0  0  0  0  0  0  0  0  0  0
   -3.6044   -0.0569    1.3101 H   0  0  0  0  0  0  0  0  0  0  0  0
   -4.2315   -2.4155    1.0414 H   0  0  0  0  0  0  0  0  0  0  0  0
   -4.9352   -1.7809    2.5297 H   0  0  0  0  0  0  0  0  0  0  0  0
   -7.4225   -2.2757   -0.7871 H   0  0  0  0  0  0  0  0  0  0  0  0
   -5.7178   -2.7047   -0.9465 H   0  0  0  0  0  0  0  0  0  0  0  0
   -6.4978   -3.0618    1.2642 H   0  0  0  0  0  0  0  0  0  0  0  0
    5.4421   -0.0069   -2.7619 H   0  0  0  0  0  0  0  0  0  0  0  0
    4.0945    1.0677   -2.4418 H   0  0  0  0  0  0  0  0  0  0  0  0
   -1.5698   -0.7436   -1.0398 H   0  0  0  0  0  0  0  0  0  0  0  0
   -3.5398    3.0143   -0.3265 H   0  0  0  0  0  0  0  0  0  0  0  0
    6.6549    0.8549   -0.7493 H   0  0  0  0  0  0  0  0  0  0  0  0
    6.2641    2.1284   -1.9044 H   0  0  0  0  0  0  0  0  0  0  0  0
   -0.1641   -1.4177    1.1637 H   0  0  0  0  0  0  0  0  0  0  0  0
   -1.4621    3.9384    0.6061 H   0  0  0  0  0  0  0  0  0  0  0  0
    3.9511   -4.3763    0.2842 H   0  0  0  0  0  0  0  0  0  0  0  0
    5.6286   -3.7607    0.3558 H   0  0  0  0  0  0  0  0  0  0  0  0
    4.5229   -3.4751    1.7322 H   0  0  0  0  0  0  0  0  0  0  0  0
    4.2543    2.7479   -0.4933 H   0  0  0  0  0  0  0  0  0  0  0  0
    4.7708    1.5497    0.7120 H   0  0  0  0  0  0  0  0  0  0  0  0
    5.8013    2.9343    0.3469 H   0  0  0  0  0  0  0  0  0  0  0  0
    0.4698    4.1574    2.2050 H   0  0  0  0  0  0  0  0  0  0  0  0
    0.0171    2.5299    2.7753 H   0  0  0  0  0  0  0  0  0  0  0  0
    2.1141    3.2802    3.8704 H   0  0  0  0  0  0  0  0  0  0  0  0
    2.8768    3.4920    2.2760 H   0  0  0  0  0  0  0  0  0  0  0  0
    2.4251    1.8801    2.8153 H   0  0  0  0  0  0  0  0  0  0  0  0
  1 14  2  0  0  0  0
  2 23  1  0  0  0  0
  2 30  1  0  0  0  0
  3 25  2  0  0  0  0
  4 10  1  0  0  0  0
  4 11  1  0  0  0  0
  4 14  1  0  0  0  0
  5 12  1  0  0  0  0
  5 13  1  0  0  0  0
  5 40  1  0  0  0  0
  6  9  1  0  0  0  0
  6 18  1  0  0  0  0
  6 28  1  0  0  0  0
  7 20  1  0  0  0  0
  7 25  1  0  0  0  0
  7 47  1  0  0  0  0
  8 16  1  0  0  0  0
  8 20  2  0  0  0  0
  9 17  2  0  0  0  0
 10 12  1  0  0  0  0
 10 32  1  0  0  0  0
 10 33  1  0  0  0  0
 11 13  1  0  0  0  0
 11 34  1  0  0  0  0
 11 35  1  0  0  0  0
 12 38  1  0  0  0  0
 12 39  1  0  0  0  0
 13 36  1  0  0  0  0
 13 37  1  0  0  0  0
 14 15  1  0  0  0  0
 15 21  2  0  0  0  0
 15 24  1  0  0  0  0
 16 17  1  0  0  0  0
 16 18  2  0  0  0  0
 17 22  1  0  0  0  0
 18 25  1  0  0  0  0
 19 20  1  0  0  0  0
 19 21  1  0  0  0  0
 19 23  2  0  0  0  0
 21 43  1  0  0  0  0
 22 26  1  0  0  0  0
 22 41  1  0  0  0  0
 22 42  1  0  0  0  0
 23 27  1  0  0  0  0
 24 27  2  0  0  0  0
 24 44  1  0  0  0  0
 26 29  1  0  0  0  0
 26 45  1  0  0  0  0
 26 46  1  0  0  0  0
 27 48  1  0  0  0  0
 28 49  1  0  0  0  0
 28 50  1  0  0  0  0
 28 51  1  0  0  0  0
 29 52  1  0  0  0  0
 29 53  1  0  0  0  0
 29 54  1  0  0  0  0
 30 31  1  0  0  0  0
 30 55  1  0  0  0  0
 30 56  1  0  0  0  0
 31 57  1  0  0  0  0
 31 58  1  0  0  0  0
 31 59  1  0  0  0  0
M  END
> <PUBCHEM_COMPOUND_CID>
135487647

> <PUBCHEM_CONFORMER_RMSD>
1

> <PUBCHEM_CONFORMER_DIVERSEORDER>
1
45
40
65
23
38
62
80
52
57
59
30
26
58
78
76
81
55
9
64
72
75
16
48
60
39
68
4
28
43
56
74
47
51
27
61
46
29
13
41
69
24
53
35
32
19
63
5
25
70
54
33
7
36
42
79
77
67
6
22
8
14
73
20
66
37
83
10
21
50
12
44
82
31
15
18
71
34
17
3
49
2
11

> <PUBCHEM_MMFF94_PARTIAL_CHARGES>
33
1 -0.57
10 0.3
11 0.3
12 0.27
13 0.27
14 0.54
15 0.09
16 0.12
17 0.11
18 -0.24
19 0.09
2 -0.36
20 0.42
21 -0.15
22 0.18
23 0.08
24 -0.15
25 0.71
27 -0.15
28 0.26
3 -0.57
30 0.28
4 -0.66
40 0.36
43 0.15
44 0.15
47 0.37
48 0.15
5 -0.9
6 0.31
7 -0.49
8 -0.57
9 -0.71

> <PUBCHEM_EFFECTIVE_ROTOR_COUNT>
8.2

> <PUBCHEM_PHARMACOPHORE_FEATURES>
12
1 1 acceptor
1 2 acceptor
1 29 hydrophobe
1 3 acceptor
1 5 cation
1 5 donor
1 7 donor
1 9 acceptor
5 6 9 16 17 18 rings
6 15 19 21 23 24 27 rings
6 4 5 10 11 12 13 rings
6 7 8 16 18 20 25 rings

> <PUBCHEM_HEAVY_ATOM_COUNT>
31

> <PUBCHEM_ATOM_DEF_STEREO_COUNT>
0

> <PUBCHEM_ATOM_UDEF_STEREO_COUNT>
0

> <PUBCHEM_BOND_DEF_STEREO_COUNT>
0

> <PUBCHEM_BOND_UDEF_STEREO_COUNT>
0

> <PUBCHEM_ISOTOPIC_ATOM_COUNT>
0

> <PUBCHEM_COMPONENT_COUNT>
1

> <PUBCHEM_CACTVS_TAUTO_COUNT>
-1

> <PUBCHEM_CONFORMER_ID>
0813609F00000001

> <PUBCHEM_MMFF94_ENERGY>
75.867

> <PUBCHEM_FEATURE_SELFOVERLAP>
61.012

> <PUBCHEM_SHAPE_FINGERPRINT>
10794284 68 17415036570734851961
10928967 22 17989194920135848575
11672396 43 18338239246593520978
12553582 1 18130774638861292463
12788726 201 18201160927758723102
13009979 54 17764300644582096346
13103583 49 18130242488645806411
13540713 4 18197754709989113069
13631057 29 18334297530838812711
14251758 9 10159703477721688740
14767858 380 18335149729780869092
14787075 74 18411991260246124520
14955137 171 17703805699162497781
15064986 266 17677342606751134925
15082195 135 17241068564518345430
15510800 12 17753613744317469227
17492 89 18197503913805178886
17909252 39 18340204098676640978
1813 80 17489586736099432325
19319366 153 18336260223877969182
21774942 28 14129879428676588407
22149856 69 18336562555146686987
22182313 1 18265309846776185613
22393880 68 17313943000668378999
22950370 63 18341615889149921335
23559900 14 18041275565303356445
3117164 225 11167935866241485501
314194 84 18272644645420263207
329604 57 18335986393425612735
3504750 166 16601802295346336594
4258327 124 17097797896210100844
437795 51 18199472241207878392
439807 62 18113902646224549255
484989 97 18261405468127457370
5104073 3 18270962336710931576
6669772 16 18124593343383269476
86090 222 18267296715193740641

> <PUBCHEM_SHAPE_MULTIPOLES>
590.47
14.74
4
1.87
10.89
0.06
-0.47
-8.29
4.29
-3.14
-2.66
-0.2
0.93
0.6

> <PUBCHEM_SHAPE_SELFOVERLAP>
1265.353

> <PUBCHEM_SHAPE_VOLUME>
323.5

> <PUBCHEM_COORDINATE_TYPE>
2
5
10

$$$$
