135483447
  -OEChem-03292013293D

 25 26  0     0  0  0  0  0  0999 V2000
   -1.9364    2.3853    0.0008 O   0  0  0  0  0  0  0  0  0  0  0  0
   -1.0243   -3.0574    0.0003 O   0  0  0  0  0  0  0  0  0  0  0  0
    3.2117    1.8574   -0.0003 O   0  0  0  0  0  0  0  0  0  0  0  0
    3.6750   -0.8535   -0.0016 O   0  0  0  0  0  0  0  0  0  0  0  0
    0.6190    2.7313    0.0003 O   0  0  0  0  0  0  0  0  0  0  0  0
    1.5158   -2.5364    0.0011 O   0  0  0  0  0  0  0  0  0  0  0  0
   -0.3435    0.5647    0.0007 C   0  0  0  0  0  0  0  0  0  0  0  0
   -0.1082   -0.8109    0.0006 C   0  0  0  0  0  0  0  0  0  0  0  0
   -1.6569    1.0492    0.0005 C   0  0  0  0  0  0  0  0  0  0  0  0
   -2.7288    0.1564   -0.0007 C   0  0  0  0  0  0  0  0  0  0  0  0
   -1.1866   -1.7037    0.0001 C   0  0  0  0  0  0  0  0  0  0  0  0
    0.7827    1.5167    0.0001 C   0  0  0  0  0  0  0  0  0  0  0  0
    1.2703   -1.3358    0.0005 C   0  0  0  0  0  0  0  0  0  0  0  0
   -2.4943   -1.2172   -0.0010 C   0  0  0  0  0  0  0  0  0  0  0  0
    2.1589    0.9622   -0.0001 C   0  0  0  0  0  0  0  0  0  0  0  0
    2.3848   -0.3576   -0.0003 C   0  0  0  0  0  0  0  0  0  0  0  0
   -4.1392    0.6494   -0.0010 C   0  0  0  0  0  0  0  0  0  0  0  0
   -3.3255   -1.9185   -0.0017 H   0  0  0  0  0  0  0  0  0  0  0  0
   -4.3318    1.2519    0.8929 H   0  0  0  0  0  0  0  0  0  0  0  0
   -4.3301    1.2563   -0.8923 H   0  0  0  0  0  0  0  0  0  0  0  0
   -4.8615   -0.1740   -0.0038 H   0  0  0  0  0  0  0  0  0  0  0  0
   -1.1231    2.9112    0.0074 H   0  0  0  0  0  0  0  0  0  0  0  0
   -0.0840   -3.2908    0.0028 H   0  0  0  0  0  0  0  0  0  0  0  0
    2.8329    2.7534   -0.0002 H   0  0  0  0  0  0  0  0  0  0  0  0
    3.6143   -1.8244   -0.0016 H   0  0  0  0  0  0  0  0  0  0  0  0
  1  9  1  0  0  0  0
  1 22  1  0  0  0  0
  2 11  1  0  0  0  0
  2 23  1  0  0  0  0
  3 15  1  0  0  0  0
  3 24  1  0  0  0  0
  4 16  1  0  0  0  0
  4 25  1  0  0  0  0
  5 12  2  0  0  0  0
  6 13  2  0  0  0  0
  7  8  1  0  0  0  0
  7  9  2  0  0  0  0
  7 12  1  0  0  0  0
  8 11  2  0  0  0  0
  8 13  1  0  0  0  0
  9 10  1  0  0  0  0
 10 14  2  0  0  0  0
 10 17  1  0  0  0  0
 11 14  1  0  0  0  0
 12 15  1  0  0  0  0
 13 16  1  0  0  0  0
 14 18  1  0  0  0  0
 15 16  2  0  0  0  0
 17 19  1  0  0  0  0
 17 20  1  0  0  0  0
 17 21  1  0  0  0  0
M  END
> <PUBCHEM_COMPOUND_CID>
135483447

> <PUBCHEM_CONFORMER_RMSD>
0.4

> <PUBCHEM_CONFORMER_DIVERSEORDER>
1

> <PUBCHEM_MMFF94_PARTIAL_CHARGES>
22
1 -0.53
10 -0.14
11 0.08
12 0.47
13 0.47
14 -0.15
15 0.09
16 0.09
17 0.14
18 0.15
2 -0.53
22 0.45
23 0.45
24 0.45
25 0.45
3 -0.53
4 -0.53
5 -0.57
6 -0.57
7 0.09
8 0.09
9 0.08

> <PUBCHEM_EFFECTIVE_ROTOR_COUNT>
0

> <PUBCHEM_PHARMACOPHORE_FEATURES>
8
1 1 donor
1 2 donor
1 3 donor
1 4 donor
1 5 acceptor
1 6 acceptor
6 7 8 12 13 15 16 rings
6 7 8 9 10 11 14 rings

> <PUBCHEM_HEAVY_ATOM_COUNT>
17

> <PUBCHEM_ATOM_DEF_STEREO_COUNT>
0

> <PUBCHEM_ATOM_UDEF_STEREO_COUNT>
0

> <PUBCHEM_BOND_DEF_STEREO_COUNT>
0

> <PUBCHEM_BOND_UDEF_STEREO_COUNT>
0

> <PUBCHEM_ISOTOPIC_ATOM_COUNT>
0

> <PUBCHEM_COMPONENT_COUNT>
1

> <PUBCHEM_CACTVS_TAUTO_COUNT>
-1

> <PUBCHEM_CONFORMER_ID>
0813503700000001

> <PUBCHEM_MMFF94_ENERGY>
48.0378

> <PUBCHEM_FEATURE_SELFOVERLAP>
40.624

> <PUBCHEM_SHAPE_FINGERPRINT>
10411042 1 16249128391474984647
10608611 8 18410571803345273861
10967382 1 18410575067525407749
11132069 177 18410566314550993696
11471102 20 18410569596117069325
11680986 33 18409174315650587403
12382932 28 18339643437866337395
13140716 1 18266457796369327747
13221675 6 18410576171363839739
13380535 76 18411415133153703903
13897977 150 18338514244004506069
14790565 3 18338537256160593148
15196674 1 18410856598315600743
15309172 13 18411710859179828739
15536298 74 18343582958264658760
16945 1 18410575114849201763
193761 8 18122626320937587303
19591789 44 18338521845827880427
20510252 161 17622732332867173632
20588541 1 18410295791540375639
21267235 1 18339089206649365739
21501502 16 18338795744381833351
2334 1 17834396005052561255
23402539 116 18270950263462812767
23463225 33 18408038498827424752
23559900 14 18270969050694517092
2748010 2 18194119620834480461
2897 32 18409449219137151717
335352 9 18410856525285352374
5104073 3 18410294743679080659
528886 8 18339356478132006608
53812653 166 18413666915655398032
7364860 26 18342176622752778094
8809292 202 18333455360587156835

> <PUBCHEM_SHAPE_MULTIPOLES>
314.64
5.15
2.92
0.58
0.58
0.43
0
-0.88
0
-0.26
0
0.04
0
0

> <PUBCHEM_SHAPE_SELFOVERLAP>
699.631

> <PUBCHEM_SHAPE_VOLUME>
166

> <PUBCHEM_COORDINATE_TYPE>
2
5
10

$$$$
