135493835
  -OEChem-03292013293D

 36 38  0     0  0  0  0  0  0999 V2000
   -4.9734   -0.1753    0.1297 O   0  0  0  0  0  0  0  0  0  0  0  0
   -1.1659   -3.0587   -0.1049 O   0  0  0  0  0  0  0  0  0  0  0  0
    1.1286    3.7897    0.0254 O   0  0  0  0  0  0  0  0  0  0  0  0
    4.3457   -1.3008    0.8415 O   0  0  0  0  0  0  0  0  0  0  0  0
   -4.5859    2.2315    0.2079 O   0  0  0  0  0  0  0  0  0  0  0  0
    3.3701   -2.0004   -1.1379 O   0  0  0  0  0  0  0  0  0  0  0  0
    0.5910   -0.9299   -0.1125 N   0  0  0  0  0  0  0  0  0  0  0  0
   -0.4818    1.6390    0.0088 N   0  0  0  0  0  0  0  0  0  0  0  0
   -0.7681   -0.7297   -0.0553 C   0  0  0  0  0  0  0  0  0  0  0  0
   -1.2860    0.5126    0.0028 C   0  0  0  0  0  0  0  0  0  0  0  0
    1.4871    0.1105   -0.1148 C   0  0  0  0  0  0  0  0  0  0  0  0
    0.8045    1.4526   -0.0455 C   0  0  0  0  0  0  0  0  0  0  0  0
   -2.7396    0.7115    0.0632 C   0  0  0  0  0  0  0  0  0  0  0  0
   -1.6487   -1.9296   -0.0594 C   0  0  0  0  0  0  0  0  0  0  0  0
   -3.1357   -1.7220   -0.0044 C   0  0  0  0  0  0  0  0  0  0  0  0
   -3.6239   -0.4655    0.0589 C   0  0  0  0  0  0  0  0  0  0  0  0
    2.8305    0.0938   -0.1684 C   0  0  0  0  0  0  0  0  0  0  0  0
    1.6614    2.6921   -0.0364 C   0  0  0  0  0  0  0  0  0  0  0  0
    3.6347    1.2962   -0.1629 C   0  0  0  0  0  0  0  0  0  0  0  0
   -3.9441   -2.9894   -0.0354 C   0  0  0  0  0  0  0  0  0  0  0  0
    3.1223    2.5279   -0.1022 C   0  0  0  0  0  0  0  0  0  0  0  0
   -3.2587    1.9561    0.1214 C   0  0  0  0  0  0  0  0  0  0  0  0
    3.5332   -1.1989   -0.2375 C   0  0  0  0  0  0  0  0  0  0  0  0
    5.1028   -2.5132    0.9177 C   0  0  0  0  0  0  0  0  0  0  0  0
    0.9405   -1.8793   -0.1559 H   0  0  0  0  0  0  0  0  0  0  0  0
    4.7140    1.1832   -0.2188 H   0  0  0  0  0  0  0  0  0  0  0  0
   -3.6595   -3.5988   -0.9004 H   0  0  0  0  0  0  0  0  0  0  0  0
   -5.0211   -2.8278   -0.1112 H   0  0  0  0  0  0  0  0  0  0  0  0
   -3.7611   -3.5739    0.8726 H   0  0  0  0  0  0  0  0  0  0  0  0
    3.7482    3.4117   -0.1021 H   0  0  0  0  0  0  0  0  0  0  0  0
   -2.6766    2.8687    0.1245 H   0  0  0  0  0  0  0  0  0  0  0  0
   -5.4860   -0.9954    0.1865 H   0  0  0  0  0  0  0  0  0  0  0  0
   -4.6794    3.1995    0.2409 H   0  0  0  0  0  0  0  0  0  0  0  0
    5.7125   -2.4767    1.8245 H   0  0  0  0  0  0  0  0  0  0  0  0
    4.4320   -3.3755    0.9800 H   0  0  0  0  0  0  0  0  0  0  0  0
    5.7660   -2.6008    0.0518 H   0  0  0  0  0  0  0  0  0  0  0  0
  1 16  1  0  0  0  0
  1 32  1  0  0  0  0
  2 14  2  0  0  0  0
  3 18  2  0  0  0  0
  4 23  1  0  0  0  0
  4 24  1  0  0  0  0
  5 22  1  0  0  0  0
  5 33  1  0  0  0  0
  6 23  2  0  0  0  0
  7  9  1  0  0  0  0
  7 11  1  0  0  0  0
  7 25  1  0  0  0  0
  8 10  1  0  0  0  0
  8 12  2  0  0  0  0
  9 10  2  0  0  0  0
  9 14  1  0  0  0  0
 10 13  1  0  0  0  0
 11 12  1  0  0  0  0
 11 17  2  0  0  0  0
 12 18  1  0  0  0  0
 13 16  1  0  0  0  0
 13 22  2  0  0  0  0
 14 15  1  0  0  0  0
 15 16  2  0  0  0  0
 15 20  1  0  0  0  0
 17 19  1  0  0  0  0
 17 23  1  0  0  0  0
 18 21  1  0  0  0  0
 19 21  2  0  0  0  0
 19 26  1  0  0  0  0
 20 27  1  0  0  0  0
 20 28  1  0  0  0  0
 20 29  1  0  0  0  0
 21 30  1  0  0  0  0
 22 31  1  0  0  0  0
 24 34  1  0  0  0  0
 24 35  1  0  0  0  0
 24 36  1  0  0  0  0
M  END
> <PUBCHEM_COMPOUND_CID>
135493835

> <PUBCHEM_CONFORMER_RMSD>
0.6

> <PUBCHEM_CONFORMER_DIVERSEORDER>
1
3
2

> <PUBCHEM_MMFF94_PARTIAL_CHARGES>
29
1 -0.53
10 0.17
11 0.11
12 0.44
14 0.54
15 -0.12
16 0.08
17 0.01
18 0.56
19 -0.15
2 -0.57
20 0.14
21 -0.14
22 -0.07
23 0.71
24 0.28
25 0.4
26 0.15
3 -0.57
30 0.15
31 0.15
32 0.45
33 0.45
4 -0.43
5 -0.53
6 -0.57
7 -0.6
8 -0.62
9 0.11

> <PUBCHEM_EFFECTIVE_ROTOR_COUNT>
2

> <PUBCHEM_PHARMACOPHORE_FEATURES>
11
1 1 donor
1 2 acceptor
1 3 acceptor
1 5 donor
1 6 acceptor
1 7 cation
1 7 donor
1 8 acceptor
6 11 12 17 18 19 21 rings
6 7 8 9 10 11 12 rings
6 9 10 13 14 15 16 rings

> <PUBCHEM_HEAVY_ATOM_COUNT>
24

> <PUBCHEM_ATOM_DEF_STEREO_COUNT>
0

> <PUBCHEM_ATOM_UDEF_STEREO_COUNT>
0

> <PUBCHEM_BOND_DEF_STEREO_COUNT>
1

> <PUBCHEM_BOND_UDEF_STEREO_COUNT>
0

> <PUBCHEM_ISOTOPIC_ATOM_COUNT>
0

> <PUBCHEM_COMPONENT_COUNT>
1

> <PUBCHEM_CACTVS_TAUTO_COUNT>
-1

> <PUBCHEM_CONFORMER_ID>
081378CB00000001

> <PUBCHEM_MMFF94_ENERGY>
73.3131

> <PUBCHEM_FEATURE_SELFOVERLAP>
55.908

> <PUBCHEM_SHAPE_FINGERPRINT>
10616163 171 18124318469401553414
10967382 1 18339364166260863260
1100329 8 18338234860328722201
11405975 8 18410012126204119401
11578080 2 17058638797422016147
116883 192 18198069075655805148
12107183 9 18266179426786152865
12403259 226 18335978735799870653
12403260 363 18413383250825738495
12553582 1 18339654321814865646
12633257 1 18338802212644675246
13140716 1 18411695461664024208
13642711 20 17472687036691441669
138480 1 18410292528035409956
14178342 30 18123735720091989872
14223421 5 18194968675596991093
14466204 15 18265894649037321265
14790565 3 17979367364668574980
14866123 147 17334225524256787514
15042514 8 18193553359867715650
15196674 1 18410575097590217821
15256400 18 18412545392547291089
15420108 30 16904700181521943433
15442244 35 18410573998194745032
16728300 4 16884403248285952210
17349148 13 18131348596377971525
17492 89 18337953514280846603
1813 80 17312819360436372316
19591789 44 18265897964783975365
20028762 73 18201715137865901303
20600515 1 18200316494455486432
20691752 17 17313098670406635104
21033648 29 17488443235638436786
21267235 1 18410302401590372954
21501502 16 18338801224781215092
21859007 373 17752179731065648661
221490 88 18336835306675508306
22393880 68 18269285719392364716
23366157 5 18115026441222779620
23402539 116 18199175205274153398
23558518 356 18261960759847812483
23559900 14 18342173405658619640
3004659 81 18188217486084118606
335352 9 18338234839007003061
34934 24 18411135849227479716
350125 39 18410580604450688161
3680242 22 18264493875360610354
4214541 1 18410857659330895365
4409770 3 17682383763805375572
463206 1 18114462232786503642
5104073 3 18412830204824101475
5309563 4 17184758433216317755
6823239 73 18058468594124635934
7097593 13 18337668723804959612
7364860 26 18268713986146244660
9709674 26 18265619959972210171
9981440 41 17542783557125862704

> <PUBCHEM_SHAPE_MULTIPOLES>
448.73
9.46
3.95
0.7
0.36
0.56
0
-3.65
-1.07
-0.81
-0.14
-0.43
-0.22
-0.65

> <PUBCHEM_SHAPE_SELFOVERLAP>
992.601

> <PUBCHEM_SHAPE_VOLUME>
237.6

> <PUBCHEM_COORDINATE_TYPE>
2
5
10

$$$$
