135469150
  -OEChem-03292013293D

 56 58  0     0  0  0  0  0  0999 V2000
    2.5412    3.4163    0.2072 O   0  0  0  0  0  0  0  0  0  0  0  0
   -0.1916    3.9734   -0.2321 O   0  0  0  0  0  0  0  0  0  0  0  0
   -2.5981    2.5436   -0.0430 O   0  0  0  0  0  0  0  0  0  0  0  0
    3.0894    0.6358    0.4826 O   0  0  0  0  0  0  0  0  0  0  0  0
    1.1002   -1.0495    0.6336 O   0  0  0  0  0  0  0  0  0  0  0  0
   -1.9949    0.6255    1.7091 O   0  0  0  0  0  0  0  0  0  0  0  0
    0.1131   -3.4114    0.1290 N   0  0  0  0  0  0  0  0  0  0  0  0
   -2.5315   -3.1790    1.3623 N   0  0  0  0  0  0  0  0  0  0  0  0
    1.8719    4.4883    0.8703 C   0  0  0  0  0  0  0  0  0  0  0  0
    0.7660    5.0134   -0.0313 C   0  0  0  0  0  0  0  0  0  0  0  0
    3.6165    2.8996    0.9935 C   0  0  0  0  0  0  0  0  0  0  0  0
   -1.3964    4.4660   -0.8187 C   0  0  0  0  0  0  0  0  0  0  0  0
    4.1191    1.6180    0.3423 C   0  0  0  0  0  0  0  0  0  0  0  0
   -2.2652    3.2819   -1.2233 C   0  0  0  0  0  0  0  0  0  0  0  0
   -3.1414    1.3059   -0.2707 C   0  0  0  0  0  0  0  0  0  0  0  0
    3.3295   -0.6061   -0.0401 C   0  0  0  0  0  0  0  0  0  0  0  0
   -3.3270   -0.9744    0.5131 C   0  0  0  0  0  0  0  0  0  0  0  0
    2.3729   -2.7978   -0.4472 C   0  0  0  0  0  0  0  0  0  0  0  0
    2.2532   -1.4970    0.0520 C   0  0  0  0  0  0  0  0  0  0  0  0
   -2.8265    0.3208    0.6696 C   0  0  0  0  0  0  0  0  0  0  0  0
    4.5228   -1.0292   -0.6299 C   0  0  0  0  0  0  0  0  0  0  0  0
   -3.9966    1.0008   -1.3335 C   0  0  0  0  0  0  0  0  0  0  0  0
   -4.1967   -1.2773   -0.5341 C   0  0  0  0  0  0  0  0  0  0  0  0
    3.5652   -3.2197   -1.0342 C   0  0  0  0  0  0  0  0  0  0  0  0
   -2.2816   -3.7591    0.0483 C   0  0  0  0  0  0  0  0  0  0  0  0
   -0.9181   -4.4505    0.0680 C   0  0  0  0  0  0  0  0  0  0  0  0
   -4.5250   -0.2868   -1.4587 C   0  0  0  0  0  0  0  0  0  0  0  0
    4.6375   -2.3327   -1.1227 C   0  0  0  0  0  0  0  0  0  0  0  0
    1.2455   -3.7440   -0.3848 C   0  0  0  0  0  0  0  0  0  0  0  0
   -2.9536   -1.9747    1.5235 C   0  0  0  0  0  0  0  0  0  0  0  0
    2.5874    5.2885    1.0886 H   0  0  0  0  0  0  0  0  0  0  0  0
    0.2882    5.8786    0.4419 H   0  0  0  0  0  0  0  0  0  0  0  0
    1.1706    5.3046   -1.0067 H   0  0  0  0  0  0  0  0  0  0  0  0
    1.4427    4.1135    1.8065 H   0  0  0  0  0  0  0  0  0  0  0  0
   -1.1634    5.0711   -1.7019 H   0  0  0  0  0  0  0  0  0  0  0  0
   -1.9164    5.0829   -0.0775 H   0  0  0  0  0  0  0  0  0  0  0  0
    3.2610    2.6880    2.0087 H   0  0  0  0  0  0  0  0  0  0  0  0
    4.4181    3.6446    1.0317 H   0  0  0  0  0  0  0  0  0  0  0  0
    5.0255    1.2867    0.8612 H   0  0  0  0  0  0  0  0  0  0  0  0
   -1.7078    2.6422   -1.9190 H   0  0  0  0  0  0  0  0  0  0  0  0
    4.3206    1.7936   -0.7208 H   0  0  0  0  0  0  0  0  0  0  0  0
   -3.1765    3.6593   -1.6994 H   0  0  0  0  0  0  0  0  0  0  0  0
    5.3825   -0.3728   -0.7209 H   0  0  0  0  0  0  0  0  0  0  0  0
   -4.2847    1.7494   -2.0649 H   0  0  0  0  0  0  0  0  0  0  0  0
    3.6736   -4.2265   -1.4281 H   0  0  0  0  0  0  0  0  0  0  0  0
   -4.6301   -2.2676   -0.6391 H   0  0  0  0  0  0  0  0  0  0  0  0
   -0.8322   -5.1083    0.9404 H   0  0  0  0  0  0  0  0  0  0  0  0
   -2.2815   -3.0290   -0.7660 H   0  0  0  0  0  0  0  0  0  0  0  0
   -3.0604   -4.5003   -0.1607 H   0  0  0  0  0  0  0  0  0  0  0  0
   -0.8219   -5.0609   -0.8384 H   0  0  0  0  0  0  0  0  0  0  0  0
   -5.2006   -0.5153   -2.2783 H   0  0  0  0  0  0  0  0  0  0  0  0
    5.5687   -2.6557   -1.5801 H   0  0  0  0  0  0  0  0  0  0  0  0
    1.4155   -4.7503   -0.8090 H   0  0  0  0  0  0  0  0  0  0  0  0
   -3.0598   -1.6383    2.5702 H   0  0  0  0  0  0  0  0  0  0  0  0
    1.2236   -0.1238    0.9060 H   0  0  0  0  0  0  0  0  0  0  0  0
   -1.6135   -0.1791    2.0943 H   0  0  0  0  0  0  0  0  0  0  0  0
  1  9  1  0  0  0  0
  1 11  1  0  0  0  0
  2 10  1  0  0  0  0
  2 12  1  0  0  0  0
  3 14  1  0  0  0  0
  3 15  1  0  0  0  0
  4 13  1  0  0  0  0
  4 16  1  0  0  0  0
  5 19  1  0  0  0  0
  5 55  1  0  0  0  0
  6 20  1  0  0  0  0
  6 56  1  0  0  0  0
  7 26  1  0  0  0  0
  7 29  2  0  0  0  0
  8 25  1  0  0  0  0
  8 30  2  0  0  0  0
  9 10  1  0  0  0  0
  9 31  1  0  0  0  0
  9 34  1  0  0  0  0
 10 32  1  0  0  0  0
 10 33  1  0  0  0  0
 11 13  1  0  0  0  0
 11 37  1  0  0  0  0
 11 38  1  0  0  0  0
 12 14  1  0  0  0  0
 12 35  1  0  0  0  0
 12 36  1  0  0  0  0
 13 39  1  0  0  0  0
 13 41  1  0  0  0  0
 14 40  1  0  0  0  0
 14 42  1  0  0  0  0
 15 20  1  0  0  0  0
 15 22  2  0  0  0  0
 16 19  1  0  0  0  0
 16 21  2  0  0  0  0
 17 20  2  0  0  0  0
 17 23  1  0  0  0  0
 17 30  1  0  0  0  0
 18 19  2  0  0  0  0
 18 24  1  0  0  0  0
 18 29  1  0  0  0  0
 21 28  1  0  0  0  0
 21 43  1  0  0  0  0
 22 27  1  0  0  0  0
 22 44  1  0  0  0  0
 23 27  2  0  0  0  0
 23 46  1  0  0  0  0
 24 28  2  0  0  0  0
 24 45  1  0  0  0  0
 25 26  1  0  0  0  0
 25 48  1  0  0  0  0
 25 49  1  0  0  0  0
 26 47  1  0  0  0  0
 26 50  1  0  0  0  0
 27 51  1  0  0  0  0
 28 52  1  0  0  0  0
 29 53  1  0  0  0  0
 30 54  1  0  0  0  0
M  END
> <PUBCHEM_COMPOUND_CID>
135469150

> <PUBCHEM_CONFORMER_RMSD>
0.8

> <PUBCHEM_CONFORMER_DIVERSEORDER>
1
5
13
14
12
11
9
8
3
6
2
7
4
10

> <PUBCHEM_MMFF94_PARTIAL_CHARGES>
40
1 -0.56
10 0.28
11 0.28
12 0.28
13 0.28
14 0.28
15 0.08
16 0.08
17 0.09
18 0.09
19 0.08
2 -0.56
20 0.08
21 -0.15
22 -0.15
23 -0.15
24 -0.15
25 0.25
26 0.25
27 -0.15
28 -0.15
29 0.3
3 -0.36
30 0.3
4 -0.36
43 0.15
44 0.15
45 0.15
46 0.15
5 -0.53
51 0.15
52 0.15
53 0.06
54 0.06
55 0.45
56 0.45
6 -0.53
7 -0.7
8 -0.7
9 0.28

> <PUBCHEM_EFFECTIVE_ROTOR_COUNT>
2.4

> <PUBCHEM_PHARMACOPHORE_FEATURES>
10
1 1 acceptor
1 2 acceptor
1 3 acceptor
1 4 acceptor
1 5 donor
1 6 donor
1 7 acceptor
1 8 acceptor
6 15 17 20 22 23 27 rings
6 16 18 19 21 24 28 rings

> <PUBCHEM_HEAVY_ATOM_COUNT>
30

> <PUBCHEM_ATOM_DEF_STEREO_COUNT>
0

> <PUBCHEM_ATOM_UDEF_STEREO_COUNT>
0

> <PUBCHEM_BOND_DEF_STEREO_COUNT>
0

> <PUBCHEM_BOND_UDEF_STEREO_COUNT>
0

> <PUBCHEM_ISOTOPIC_ATOM_COUNT>
0

> <PUBCHEM_COMPONENT_COUNT>
1

> <PUBCHEM_CACTVS_TAUTO_COUNT>
-1

> <PUBCHEM_CONFORMER_ID>
0813185E00000001

> <PUBCHEM_MMFF94_ENERGY>
102.6975

> <PUBCHEM_FEATURE_SELFOVERLAP>
50.761

> <PUBCHEM_SHAPE_FINGERPRINT>
10049733 16 13936537387213115901
10439779 11 16895097025453428146
10653451 467 18117015308124850057
10675989 125 16823055915668059164
11059048 146 17115239066202143372
11374522 363 17470430199055788757
11513181 2 16902733705439460948
12100795 323 18050563246626910800
12788726 201 17903635181463640057
12978246 48 17329704839239386424
13122387 1 17473543547163768621
13165053 182 16823958718248478078
1361 2 18339346574649598197
14251757 5 17833843672532927308
15297060 5 16832088974836643680
15320467 1 18338795740198019172
15721738 15 17541910145519420661
19930381 70 18410564094206213749
20764821 26 17616529562736293020
20775438 99 17691637326763955621
22113638 7 15888274902076155068
325973 47 18410573985315183100
437795 70 14456133807271587223
437795 96 18338505452343763680
4403749 210 17403152185731633049
5047190 2 15890521547961766545
54324442 115 18124601868597797310
9543594 6 17257657149470175156

> <PUBCHEM_SHAPE_MULTIPOLES>
572.21
9.3
8.27
1.25
2.4
5.98
0.07
-2.19
-2.34
1.54
0.27
-0.75
-0.08
2.95

> <PUBCHEM_SHAPE_SELFOVERLAP>
1200.062

> <PUBCHEM_SHAPE_VOLUME>
320.7

> <PUBCHEM_COORDINATE_TYPE>
2
5
10

$$$$
