135457951
  -OEChem-03292013293D

 29 30  0     0  0  0  0  0  0999 V2000
   -1.3324   -2.5490   -0.2129 O   0  0  0  0  0  0  0  0  0  0  0  0
   -3.2188    1.8168   -0.1970 O   0  0  0  0  0  0  0  0  0  0  0  0
   -0.7549    2.9385   -0.0355 O   0  0  0  0  0  0  0  0  0  0  0  0
    3.7624   -1.7070    0.0870 O   0  0  0  0  0  0  0  0  0  0  0  0
    1.2335   -2.7365   -0.0781 O   0  0  0  0  0  0  0  0  0  0  0  0
    4.0520    1.0268    0.1740 O   0  0  0  0  0  0  0  0  0  0  0  0
    1.7973    2.5743    0.0912 O   0  0  0  0  0  0  0  0  0  0  0  0
    0.1382   -0.6339   -0.0820 C   0  0  0  0  0  0  0  0  0  0  0  0
   -2.2650   -0.3737   -0.2048 C   0  0  0  0  0  0  0  0  0  0  0  0
    0.2852    0.7531   -0.0374 C   0  0  0  0  0  0  0  0  0  0  0  0
   -1.1402   -1.1982   -0.1660 C   0  0  0  0  0  0  0  0  0  0  0  0
   -2.1181    1.0113   -0.1599 C   0  0  0  0  0  0  0  0  0  0  0  0
   -0.8457    1.5774   -0.0765 C   0  0  0  0  0  0  0  0  0  0  0  0
   -3.6331   -0.9728   -0.2945 C   0  0  0  0  0  0  0  0  0  0  0  0
    1.3207   -1.5147   -0.0413 C   0  0  0  0  0  0  0  0  0  0  0  0
    1.6256    1.3615    0.0500 C   0  0  0  0  0  0  0  0  0  0  0  0
    2.6570   -0.8782    0.0482 C   0  0  0  0  0  0  0  0  0  0  0  0
    2.7976    0.4527    0.0905 C   0  0  0  0  0  0  0  0  0  0  0  0
   -4.3615   -0.9485    1.0449 C   0  0  0  0  0  0  0  0  0  0  0  0
   -4.2277   -0.4717   -1.0680 H   0  0  0  0  0  0  0  0  0  0  0  0
   -3.5890   -2.0125   -0.6402 H   0  0  0  0  0  0  0  0  0  0  0  0
   -3.8079   -1.5167    1.8006 H   0  0  0  0  0  0  0  0  0  0  0  0
   -5.3515   -1.4042    0.9408 H   0  0  0  0  0  0  0  0  0  0  0  0
   -4.4997    0.0666    1.4289 H   0  0  0  0  0  0  0  0  0  0  0  0
   -0.4885   -3.0228   -0.1795 H   0  0  0  0  0  0  0  0  0  0  0  0
   -4.0409    1.3206   -0.3134 H   0  0  0  0  0  0  0  0  0  0  0  0
    0.1689    3.2235    0.0240 H   0  0  0  0  0  0  0  0  0  0  0  0
    3.4409   -2.6242    0.0456 H   0  0  0  0  0  0  0  0  0  0  0  0
    3.9306    1.9918    0.1925 H   0  0  0  0  0  0  0  0  0  0  0  0
  1 11  1  0  0  0  0
  1 25  1  0  0  0  0
  2 12  1  0  0  0  0
  2 26  1  0  0  0  0
  3 13  1  0  0  0  0
  3 27  1  0  0  0  0
  4 17  1  0  0  0  0
  4 28  1  0  0  0  0
  5 15  2  0  0  0  0
  6 18  1  0  0  0  0
  6 29  1  0  0  0  0
  7 16  2  0  0  0  0
  8 10  2  0  0  0  0
  8 11  1  0  0  0  0
  8 15  1  0  0  0  0
  9 11  2  0  0  0  0
  9 12  1  0  0  0  0
  9 14  1  0  0  0  0
 10 13  1  0  0  0  0
 10 16  1  0  0  0  0
 12 13  2  0  0  0  0
 14 19  1  0  0  0  0
 14 20  1  0  0  0  0
 14 21  1  0  0  0  0
 15 17  1  0  0  0  0
 16 18  1  0  0  0  0
 17 18  2  0  0  0  0
 19 22  1  0  0  0  0
 19 23  1  0  0  0  0
 19 24  1  0  0  0  0
M  END
> <PUBCHEM_COMPOUND_CID>
135457951

> <PUBCHEM_CONFORMER_RMSD>
0.6

> <PUBCHEM_CONFORMER_DIVERSEORDER>
1

> <PUBCHEM_MMFF94_PARTIAL_CHARGES>
23
1 -0.53
10 0.09
11 0.08
12 0.08
13 0.08
14 0.14
15 0.47
16 0.47
17 0.09
18 0.09
2 -0.53
25 0.45
26 0.45
27 0.45
28 0.45
29 0.45
3 -0.53
4 -0.53
5 -0.57
6 -0.53
7 -0.57
8 0.09
9 -0.14

> <PUBCHEM_EFFECTIVE_ROTOR_COUNT>
1

> <PUBCHEM_PHARMACOPHORE_FEATURES>
10
1 1 donor
1 19 hydrophobe
1 2 donor
1 3 donor
1 4 donor
1 5 acceptor
1 6 donor
1 7 acceptor
6 8 10 15 16 17 18 rings
6 8 9 10 11 12 13 rings

> <PUBCHEM_HEAVY_ATOM_COUNT>
19

> <PUBCHEM_ATOM_DEF_STEREO_COUNT>
0

> <PUBCHEM_ATOM_UDEF_STEREO_COUNT>
0

> <PUBCHEM_BOND_DEF_STEREO_COUNT>
0

> <PUBCHEM_BOND_UDEF_STEREO_COUNT>
0

> <PUBCHEM_ISOTOPIC_ATOM_COUNT>
0

> <PUBCHEM_COMPONENT_COUNT>
1

> <PUBCHEM_CACTVS_TAUTO_COUNT>
-1

> <PUBCHEM_CONFORMER_ID>
0812EC9F00000001

> <PUBCHEM_MMFF94_ENERGY>
54.3178

> <PUBCHEM_FEATURE_SELFOVERLAP>
50.78

> <PUBCHEM_SHAPE_FINGERPRINT>
10608611 8 18410006611424140413
10967382 1 18338796831161371126
1100329 8 17112690389421783451
11132069 177 18268138928173367002
11471102 20 18410849980008556519
11578080 2 17272818040749152753
11680986 33 18267021648418920079
12032990 46 18408608067251745539
12553582 1 18411697724716163254
12730499 353 17105081804209791629
13140716 1 18050567640272972826
13221675 6 18410574019622238647
14178342 30 18267576919203373424
14790565 3 17760381271701845253
15196674 1 18410572864217773412
15219456 202 18410291393689010845
15442244 35 18339077095126219802
15536298 74 18343018882982261710
16945 1 18411412942598790878
17804303 29 18341051818178471622
193761 8 18194962941852593709
19591789 44 18410858788960347031
200 152 18130496505680263759
20510252 161 18343584027426874129
20645477 70 18336253648303689599
20739085 24 18264233399017092769
21267235 1 18410582772866042018
21501502 16 18410854321967122620
221490 88 18337397037006293818
23184049 59 18341342170884446067
2334 1 17906730658761834774
23402539 116 18270952540127711127
23463225 33 18409729590291481997
23559900 14 18269828732355166530
2748010 2 18124310506474099430
335352 9 18194962946142286660
350125 39 18410016558616136961
5104073 3 18410290276965963744
7364860 26 18341893047610893184
8809292 202 18261959535423404587
9709674 26 18411420617732235846

> <PUBCHEM_SHAPE_MULTIPOLES>
349.93
6.31
2.88
0.66
1.05
0.42
-0.06
-1.06
-0.95
-0.42
0.09
0.32
-0.06
0.23

> <PUBCHEM_SHAPE_SELFOVERLAP>
773.915

> <PUBCHEM_SHAPE_VOLUME>
186.2

> <PUBCHEM_COORDINATE_TYPE>
2
5
10

$$$$
