135408656
  -OEChem-03292013293D

 31 32  0     0  0  0  0  0  0999 V2000
   -0.6728   -1.9214    0.3827 S   0  0  0  0  0  0  0  0  0  0  0  0
   -0.1945   -1.8188    1.7479 O   0  0  0  0  0  0  0  0  0  0  0  0
   -1.2629   -3.1558   -0.0981 O   0  0  0  0  0  0  0  0  0  0  0  0
    4.3930    0.8697   -2.0649 O   0  0  0  0  0  0  0  0  0  0  0  0
    0.5615   -1.4358   -0.6909 N   0  0  0  0  0  0  0  0  0  0  0  0
    2.4999   -0.2650   -1.3722 N   0  0  0  0  0  0  0  0  0  0  0  0
    1.7121   -0.0799    0.8472 N   0  0  0  0  0  0  0  0  0  0  0  0
   -4.6973    2.3980   -0.4885 N   0  0  0  0  0  0  0  0  0  0  0  0
   -1.8655   -0.6423    0.1244 C   0  0  0  0  0  0  0  0  0  0  0  0
    1.6165   -0.5576   -0.3533 C   0  0  0  0  0  0  0  0  0  0  0  0
   -2.8451   -0.7898   -0.8578 C   0  0  0  0  0  0  0  0  0  0  0  0
   -1.8266    0.5145    0.9027 C   0  0  0  0  0  0  0  0  0  0  0  0
   -3.7858    0.2197   -1.0613 C   0  0  0  0  0  0  0  0  0  0  0  0
   -2.7673    1.5240    0.6989 C   0  0  0  0  0  0  0  0  0  0  0  0
   -3.7470    1.3766   -0.2830 C   0  0  0  0  0  0  0  0  0  0  0  0
    2.7704    0.7688    1.0913 C   0  0  0  0  0  0  0  0  0  0  0  0
    3.5792    0.5763   -1.1960 C   0  0  0  0  0  0  0  0  0  0  0  0
    3.6889    1.1222    0.1762 C   0  0  0  0  0  0  0  0  0  0  0  0
    2.8433    1.2969    2.4947 C   0  0  0  0  0  0  0  0  0  0  0  0
    0.5593   -1.8522   -1.6304 H   0  0  0  0  0  0  0  0  0  0  0  0
   -2.8895   -1.6790   -1.4801 H   0  0  0  0  0  0  0  0  0  0  0  0
   -1.0713    0.6519    1.6710 H   0  0  0  0  0  0  0  0  0  0  0  0
   -4.5432    0.0940   -1.8308 H   0  0  0  0  0  0  0  0  0  0  0  0
   -2.7260    2.4212    1.3112 H   0  0  0  0  0  0  0  0  0  0  0  0
    2.3518   -0.6827   -2.2858 H   0  0  0  0  0  0  0  0  0  0  0  0
    4.5119    1.7919    0.3953 H   0  0  0  0  0  0  0  0  0  0  0  0
    1.9334    1.8567    2.7362 H   0  0  0  0  0  0  0  0  0  0  0  0
    3.6970    1.9666    2.6431 H   0  0  0  0  0  0  0  0  0  0  0  0
    2.9393    0.4700    3.2062 H   0  0  0  0  0  0  0  0  0  0  0  0
   -5.4087    2.2919   -1.1994 H   0  0  0  0  0  0  0  0  0  0  0  0
   -4.6696    3.2364    0.0764 H   0  0  0  0  0  0  0  0  0  0  0  0
  1  2  2  0  0  0  0
  1  3  2  0  0  0  0
  1  5  1  0  0  0  0
  1  9  1  0  0  0  0
  4 17  2  0  0  0  0
  5 10  1  0  0  0  0
  5 20  1  0  0  0  0
  6 10  1  0  0  0  0
  6 17  1  0  0  0  0
  6 25  1  0  0  0  0
  7 10  2  0  0  0  0
  7 16  1  0  0  0  0
  8 15  1  0  0  0  0
  8 30  1  0  0  0  0
  8 31  1  0  0  0  0
  9 11  2  0  0  0  0
  9 12  1  0  0  0  0
 11 13  1  0  0  0  0
 11 21  1  0  0  0  0
 12 14  2  0  0  0  0
 12 22  1  0  0  0  0
 13 15  2  0  0  0  0
 13 23  1  0  0  0  0
 14 15  1  0  0  0  0
 14 24  1  0  0  0  0
 16 18  2  0  0  0  0
 16 19  1  0  0  0  0
 17 18  1  0  0  0  0
 18 26  1  0  0  0  0
 19 27  1  0  0  0  0
 19 28  1  0  0  0  0
 19 29  1  0  0  0  0
M  END
> <PUBCHEM_COMPOUND_CID>
135408656

> <PUBCHEM_CONFORMER_RMSD>
0.6

> <PUBCHEM_CONFORMER_DIVERSEORDER>
1
5
8
14
4
13
7
6
2
9
12
3
10
11

> <PUBCHEM_MMFF94_PARTIAL_CHARGES>
28
1 1.45
10 0.75
11 -0.15
12 -0.15
13 -0.15
14 -0.15
15 0.1
16 0.03
17 0.62
18 -0.14
19 0.14
2 -0.65
20 0.42
21 0.15
22 0.15
23 0.15
24 0.15
25 0.37
26 0.15
3 -0.65
30 0.4
31 0.4
4 -0.57
5 -0.79
6 -0.49
7 -0.62
8 -0.9
9 -0.01

> <PUBCHEM_EFFECTIVE_ROTOR_COUNT>
3

> <PUBCHEM_PHARMACOPHORE_FEATURES>
9
1 2 acceptor
1 3 acceptor
1 4 acceptor
1 5 donor
1 6 donor
1 8 cation
1 8 donor
6 6 7 10 16 17 18 rings
6 9 11 12 13 14 15 rings

> <PUBCHEM_HEAVY_ATOM_COUNT>
19

> <PUBCHEM_ATOM_DEF_STEREO_COUNT>
0

> <PUBCHEM_ATOM_UDEF_STEREO_COUNT>
0

> <PUBCHEM_BOND_DEF_STEREO_COUNT>
0

> <PUBCHEM_BOND_UDEF_STEREO_COUNT>
0

> <PUBCHEM_ISOTOPIC_ATOM_COUNT>
0

> <PUBCHEM_COMPONENT_COUNT>
1

> <PUBCHEM_CACTVS_TAUTO_COUNT>
-1

> <PUBCHEM_CONFORMER_ID>
08122C1000000001

> <PUBCHEM_MMFF94_ENERGY>
38.8503

> <PUBCHEM_FEATURE_SELFOVERLAP>
45.726

> <PUBCHEM_SHAPE_FINGERPRINT>
10498660 4 18413387618496683757
10871710 139 15175536259311316008
11370993 144 13768469943234779532
11543360 7 16343407492960985613
11640471 11 17749661973875262194
11725454 13 17128981101955241690
12363563 72 10303805471663253581
12788726 201 17534345827468983859
12892183 10 14418133993856789397
13294875 104 18341604872601486130
13764800 53 18335991964130155499
14251764 38 17829055656082763100
14957384 54 17967812777655679260
15342168 16 18041001696434002837
1798214 55 18408884006015800085
18186145 218 17918277558167652531
19107657 9 18259984859853046453
200 152 14907907080393930798
20388580 30 11887372721522967387
20645477 70 16486981734390586980
21524375 3 18336825286633260603
21618674 53 16951139498609310030
21756936 100 16227763123894883908
21864079 5 18187932819134505508
23557571 272 17912920874814020203
23559900 14 18202281399248994080
238 59 16629956750241032456
25 1 18059029275623180898
4028521 119 18201999923913736829
474 4 18042124276199093957
5262128 65 16559041479811744616
526903 126 18201991136711232289
5281201 14 17203612609373956692
6049 1 17772484623001710578
7615 1 17242715718603802082
7808743 9 18261680366992162916
84936 182 18127407856710260331
9709674 26 17773869977181748721
9981440 41 18269821164048278978

> <PUBCHEM_SHAPE_MULTIPOLES>
357.33
8.37
2.33
1.74
0.07
0.94
0.23
-5.73
-3.31
1.87
0.53
-1.99
-0.35
0.75

> <PUBCHEM_SHAPE_SELFOVERLAP>
747.113

> <PUBCHEM_SHAPE_VOLUME>
201.8

> <PUBCHEM_COORDINATE_TYPE>
2
5
10

$$$$
