135443893
  -OEChem-03292013293D

 30 32  0     1  0  0  0  0  0999 V2000
   -1.9348    0.7731   -0.6655 O   0  0  0  0  0  0  0  0  0  0  0  0
   -1.1946   -2.5690    0.3300 O   0  0  0  0  0  0  0  0  0  0  0  0
   -3.8084   -1.3855    1.5004 O   0  0  0  0  0  0  0  0  0  0  0  0
   -4.3162    2.2678   -0.9518 O   0  0  0  0  0  0  0  0  0  0  0  0
    4.6724    1.2499    0.7704 O   0  0  0  0  0  0  0  0  0  0  0  0
    0.3580    0.2741   -0.0383 N   0  0  0  0  0  0  0  0  0  0  0  0
    0.4262    1.3981    0.7076 N   0  0  0  0  0  0  0  0  0  0  0  0
    1.7152    1.6616    0.9309 N   0  0  0  0  0  0  0  0  0  0  0  0
    1.9165   -1.3070   -1.0240 N   0  0  0  0  0  0  0  0  0  0  0  0
    4.1713   -0.6456   -0.5006 N   0  0  0  0  0  0  0  0  0  0  0  0
   -1.5841   -1.2289    0.5760 C   0  0  2  0  0  0  0  0  0  0  0  0
   -3.0668   -1.0319    0.3487 C   0  0  2  0  0  0  0  0  0  0  0  0
   -0.9784   -0.2874   -0.4607 C   0  0  1  0  0  0  0  0  0  0  0  0
   -3.1325    0.4583    0.0641 C   0  0  2  0  0  0  0  0  0  0  0  0
   -4.3458    0.8638   -0.7534 C   0  0  0  0  0  0  0  0  0  0  0  0
    1.6009   -0.2054   -0.3076 C   0  0  0  0  0  0  0  0  0  0  0  0
    2.4355    0.6889    0.3154 C   0  0  0  0  0  0  0  0  0  0  0  0
    3.8592    0.5007    0.2447 C   0  0  0  0  0  0  0  0  0  0  0  0
    3.2064   -1.4759   -1.0863 C   0  0  0  0  0  0  0  0  0  0  0  0
   -1.2901   -0.9724    1.6002 H   0  0  0  0  0  0  0  0  0  0  0  0
   -3.4255   -1.6343   -0.4938 H   0  0  0  0  0  0  0  0  0  0  0  0
   -0.7945   -0.7710   -1.4273 H   0  0  0  0  0  0  0  0  0  0  0  0
   -3.1071    1.0472    0.9900 H   0  0  0  0  0  0  0  0  0  0  0  0
   -5.2742    0.6003   -0.2375 H   0  0  0  0  0  0  0  0  0  0  0  0
   -4.3302    0.3885   -1.7397 H   0  0  0  0  0  0  0  0  0  0  0  0
   -1.4552   -2.8024   -0.5771 H   0  0  0  0  0  0  0  0  0  0  0  0
   -3.4974   -0.8426    2.2445 H   0  0  0  0  0  0  0  0  0  0  0  0
   -5.1016    2.4994   -1.4762 H   0  0  0  0  0  0  0  0  0  0  0  0
    3.6502   -2.3242   -1.6301 H   0  0  0  0  0  0  0  0  0  0  0  0
    5.1514   -0.8842   -0.6210 H   0  0  0  0  0  0  0  0  0  0  0  0
  1 13  1  0  0  0  0
  1 14  1  0  0  0  0
  2 11  1  0  0  0  0
  2 26  1  0  0  0  0
  3 12  1  0  0  0  0
  3 27  1  0  0  0  0
  4 15  1  0  0  0  0
  4 28  1  0  0  0  0
  5 18  2  0  0  0  0
  6  7  1  0  0  0  0
  6 13  1  0  0  0  0
  6 16  1  0  0  0  0
  7  8  2  0  0  0  0
  8 17  1  0  0  0  0
  9 16  1  0  0  0  0
  9 19  2  0  0  0  0
 10 18  1  0  0  0  0
 10 19  1  0  0  0  0
 10 30  1  0  0  0  0
 11 12  1  0  0  0  0
 11 13  1  0  0  0  0
 11 20  1  0  0  0  0
 12 14  1  0  0  0  0
 12 21  1  0  0  0  0
 13 22  1  0  0  0  0
 14 15  1  0  0  0  0
 14 23  1  0  0  0  0
 15 24  1  0  0  0  0
 15 25  1  0  0  0  0
 16 17  2  0  0  0  0
 17 18  1  0  0  0  0
 19 29  1  0  0  0  0
M  END
> <PUBCHEM_COMPOUND_CID>
135443893

> <PUBCHEM_CONFORMER_RMSD>
0.6

> <PUBCHEM_CONFORMER_DIVERSEORDER>
1
126
36
37
106
142
66
116
115
134
128
147
117
149
17
82
25
97
92
73
7
108
94
107
8
9
144
99
20
39
127
125
80
48
45
12
51
29
19
119
89
43
38
145
68
32
2
110
138
44
122
103
64
120
5
76
28
104
69
72
30
102
114
57
95
79
21
75
91
93
3
4
88
63
55
112
35
10
23
56
14
148
129
135
26
34
52
111
136
96
11
16
61
81
42
143
54
105
33
131
22
141
84
132
6
124
121
58
27
146
109
13
59
86
78
77
98
83
101
65
113
139
67
133
15
62
24
100
118
40
70
53
90
85
123
130
50
18
46
47
137
41
74
71
60
31
49
140
87

> <PUBCHEM_MMFF94_PARTIAL_CHARGES>
24
1 -0.56
10 -0.49
11 0.28
12 0.28
13 0.54
14 0.28
15 0.28
16 -0.03
17 0.14
18 0.72
19 0.45
2 -0.68
26 0.4
27 0.4
28 0.4
29 0.06
3 -0.68
30 0.37
4 -0.68
5 -0.57
6 0.31
7 -0.42
8 -0.23
9 -0.58

> <PUBCHEM_EFFECTIVE_ROTOR_COUNT>
3

> <PUBCHEM_PHARMACOPHORE_FEATURES>
12
1 1 acceptor
1 10 donor
1 2 acceptor
1 2 donor
1 3 acceptor
1 3 donor
1 4 acceptor
1 4 donor
1 5 acceptor
5 1 11 12 13 14 rings
5 6 7 8 16 17 rings
6 9 10 16 17 18 19 rings

> <PUBCHEM_HEAVY_ATOM_COUNT>
19

> <PUBCHEM_ATOM_DEF_STEREO_COUNT>
0

> <PUBCHEM_ATOM_UDEF_STEREO_COUNT>
4

> <PUBCHEM_BOND_DEF_STEREO_COUNT>
0

> <PUBCHEM_BOND_UDEF_STEREO_COUNT>
0

> <PUBCHEM_ISOTOPIC_ATOM_COUNT>
0

> <PUBCHEM_COMPONENT_COUNT>
1

> <PUBCHEM_CACTVS_TAUTO_COUNT>
-1

> <PUBCHEM_CONFORMER_ID>
0812B5B500000001

> <PUBCHEM_MMFF94_ENERGY>
44.3169

> <PUBCHEM_FEATURE_SELFOVERLAP>
61.039

> <PUBCHEM_SHAPE_FINGERPRINT>
10608611 8 18339921614313699073
11471102 20 18059852857525353300
11796584 16 17968941881982956946
12236239 1 15574712504260262965
124424 183 18343019977887692356
12500047 106 18409724088496450039
13134695 92 17489303070969138248
13296908 3 18341900688109766966
13464514 151 18051976914207511789
13544592 145 18337958874515537670
13675066 3 18410296934022723466
15219456 202 18341614832218824710
15375358 24 18341890796868422188
15653759 3 18261395580531915075
18186145 218 18340213994370376467
19049666 15 18339647741476458235
19422 9 16153432778523017043
200 152 17275379924274112405
20201158 50 18344149185120001358
20279233 1 18412827996905072390
20645477 56 18408322211429660853
20645477 70 17845934035308942590
21065201 7 18040718056213584442
23402539 116 18336815455262969300
23402655 69 17917141724102038341
23526113 38 18200589185785687747
23557571 272 18187933905950843076
23559900 14 18338238168176421454
4072396 5 18129081382707395978
474 4 15624792038017650778
495365 180 17845918667995006802
5104073 3 18410575071978735450
633830 44 18269265773506044405
69090 78 18272651289967129159
77492 1 15770060522942673343
8809292 202 18410862091932570610
9709674 26 18341333387164811262

> <PUBCHEM_SHAPE_MULTIPOLES>
336.76
8.92
1.98
1.04
0.04
0.25
-0.03
-2.04
0.49
-0.8
-0.08
-0.28
0.08
2.05

> <PUBCHEM_SHAPE_SELFOVERLAP>
727.926

> <PUBCHEM_SHAPE_VOLUME>
181.1

> <PUBCHEM_COORDINATE_TYPE>
2
5
10

$$$$
