135497915
  -OEChem-03292013293D

 47 48  0     1  0  0  0  0  0999 V2000
   -1.6364   -1.7786   -1.5249 O   0  0  0  0  0  0  0  0  0  0  0  0
    1.6548   -0.7736   -1.9220 O   0  0  0  0  0  0  0  0  0  0  0  0
    5.6661   -0.3748    0.0511 O   0  0  0  0  0  0  0  0  0  0  0  0
    4.5997   -1.8204    1.4377 O   0  0  0  0  0  0  0  0  0  0  0  0
   -1.5391    0.4508    1.8923 O   0  0  0  0  0  0  0  0  0  0  0  0
   -0.7091    2.3413   -2.6702 O   0  0  0  0  0  0  0  0  0  0  0  0
    2.2209   -0.9850    0.3269 N   0  0  0  0  0  0  0  0  0  0  0  0
   -0.4842   -1.7043    0.4476 N   0  0  0  0  0  0  0  0  0  0  0  0
   -0.4921    2.8978   -0.4083 N   0  0  0  0  0  0  0  0  0  0  0  0
    3.1306    1.0576    1.3749 C   0  0  0  0  0  0  0  0  0  0  0  0
    3.3215   -0.0563    0.3444 C   0  0  1  0  0  0  0  0  0  0  0  0
    1.9214    1.9658    1.1195 C   0  0  0  0  0  0  0  0  0  0  0  0
    1.9560    2.6505   -0.2507 C   0  0  0  0  0  0  0  0  0  0  0  0
    0.4042   -2.2892   -0.5566 C   0  0  2  0  0  0  0  0  0  0  0  0
    1.4781   -1.2655   -0.8106 C   0  0  0  0  0  0  0  0  0  0  0  0
   -0.4520   -2.5243   -1.7763 C   0  0  0  0  0  0  0  0  0  0  0  0
    0.7686    3.5857   -0.4630 C   0  0  0  0  0  0  0  0  0  0  0  0
    4.5615   -0.8652    0.6728 C   0  0  0  0  0  0  0  0  0  0  0  0
   -1.5680   -1.4475   -0.2140 C   0  0  0  0  0  0  0  0  0  0  0  0
   -2.7726   -0.8246    0.2780 C   0  0  0  0  0  0  0  0  0  0  0  0
   -2.7249    0.1063    1.3156 C   0  0  0  0  0  0  0  0  0  0  0  0
   -3.9967   -1.1656   -0.2973 C   0  0  0  0  0  0  0  0  0  0  0  0
   -3.9013    0.6962    1.7780 C   0  0  0  0  0  0  0  0  0  0  0  0
   -5.1732   -0.5757    0.1652 C   0  0  0  0  0  0  0  0  0  0  0  0
   -1.1085    2.3433   -1.5128 C   0  0  0  0  0  0  0  0  0  0  0  0
   -5.1255    0.3552    1.2027 C   0  0  0  0  0  0  0  0  0  0  0  0
    3.0271    0.6210    2.3772 H   0  0  0  0  0  0  0  0  0  0  0  0
    4.0362    1.6773    1.4080 H   0  0  0  0  0  0  0  0  0  0  0  0
    3.4599    0.3544   -0.6610 H   0  0  0  0  0  0  0  0  0  0  0  0
    1.8878    2.7294    1.9062 H   0  0  0  0  0  0  0  0  0  0  0  0
    1.0059    1.3727    1.2199 H   0  0  0  0  0  0  0  0  0  0  0  0
    1.9516    1.9026   -1.0500 H   0  0  0  0  0  0  0  0  0  0  0  0
    2.8845    3.2251   -0.3483 H   0  0  0  0  0  0  0  0  0  0  0  0
    0.8688   -3.2163   -0.2046 H   0  0  0  0  0  0  0  0  0  0  0  0
    2.0024   -1.4801    1.1873 H   0  0  0  0  0  0  0  0  0  0  0  0
   -0.0187   -2.2213   -2.7330 H   0  0  0  0  0  0  0  0  0  0  0  0
   -0.7371   -3.5793   -1.8582 H   0  0  0  0  0  0  0  0  0  0  0  0
    0.7511    4.3632    0.3081 H   0  0  0  0  0  0  0  0  0  0  0  0
    0.8616    4.0794   -1.4366 H   0  0  0  0  0  0  0  0  0  0  0  0
   -0.9528    2.8131    0.4931 H   0  0  0  0  0  0  0  0  0  0  0  0
   -4.0681   -1.8966   -1.0985 H   0  0  0  0  0  0  0  0  0  0  0  0
    6.4718   -0.8846    0.2820 H   0  0  0  0  0  0  0  0  0  0  0  0
   -3.8791    1.4228    2.5858 H   0  0  0  0  0  0  0  0  0  0  0  0
   -6.1268   -0.8432   -0.2806 H   0  0  0  0  0  0  0  0  0  0  0  0
   -2.0650    1.8760   -1.2295 H   0  0  0  0  0  0  0  0  0  0  0  0
   -6.0416    0.8140    1.5631 H   0  0  0  0  0  0  0  0  0  0  0  0
   -1.7027    1.1135    2.5850 H   0  0  0  0  0  0  0  0  0  0  0  0
  1 16  1  0  0  0  0
  1 19  1  0  0  0  0
  2 15  2  0  0  0  0
  3 18  1  0  0  0  0
  3 42  1  0  0  0  0
  4 18  2  0  0  0  0
  5 21  1  0  0  0  0
  5 47  1  0  0  0  0
  6 25  2  0  0  0  0
  7 11  1  0  0  0  0
  7 15  1  0  0  0  0
  7 35  1  0  0  0  0
  8 14  1  0  0  0  0
  8 19  2  0  0  0  0
  9 17  1  0  0  0  0
  9 25  1  0  0  0  0
  9 40  1  0  0  0  0
 10 11  1  0  0  0  0
 10 12  1  0  0  0  0
 10 27  1  0  0  0  0
 10 28  1  0  0  0  0
 11 18  1  0  0  0  0
 11 29  1  0  0  0  0
 12 13  1  0  0  0  0
 12 30  1  0  0  0  0
 12 31  1  0  0  0  0
 13 17  1  0  0  0  0
 13 32  1  0  0  0  0
 13 33  1  0  0  0  0
 14 15  1  0  0  0  0
 14 16  1  0  0  0  0
 14 34  1  0  0  0  0
 16 36  1  0  0  0  0
 16 37  1  0  0  0  0
 17 38  1  0  0  0  0
 17 39  1  0  0  0  0
 19 20  1  0  0  0  0
 20 21  1  0  0  0  0
 20 22  2  0  0  0  0
 21 23  2  0  0  0  0
 22 24  1  0  0  0  0
 22 41  1  0  0  0  0
 23 26  1  0  0  0  0
 23 43  1  0  0  0  0
 24 26  2  0  0  0  0
 24 44  1  0  0  0  0
 25 45  1  0  0  0  0
 26 46  1  0  0  0  0
M  END
> <PUBCHEM_COMPOUND_CID>
135497915

> <PUBCHEM_CONFORMER_RMSD>
1.2

> <PUBCHEM_CONFORMER_DIVERSEORDER>
1
94
166
172
38
57
68
212
104
141
169
232
37
202
170
65
188
56
205
22
168
17
33
105
135
162
231
112
184
41
182
146
215
98
71
12
74
49
224
236
157
165
209
147
149
181
190
132
106
64
155
151
15
213
42
156
16
195
75
73
154
136
47
142
107
70
19
32
5
210
10
129
117
114
179
90
167
23
130
28
148
86
101
120
200
60
108
91
153
234
29
63
227
66
123
221
85
226
109
127
81
233
139
96
13
128
175
100
137
228
79
163
150
51
26
31
18
45
59
176
235
126
55
204
102
43
223
80
95
230
97
208
67
30
218
121
48
164
9
197
82
14
191
34
196
25
39
203
11
84
174
50
116
192
193
61
77
88
160
145
6
111
83
89
229
62
220
27
54
158
122
40
214
211
159
21
131
177
93
36
189
198
110
207
125
118
20
140
144
69
143
99
199
8
124
58
183
52
237
186
24
103
78
138
219
178
3
173
133
119
161
201
171
46
225
72
216
115
2
7
187
87
152
76
4
134
217
44
35
206
222
194
113
53
92
185
180

> <PUBCHEM_MMFF94_PARTIAL_CHARGES>
32
1 -0.43
11 0.36
14 0.31
15 0.57
16 0.28
17 0.3
18 0.66
19 0.51
2 -0.57
20 0.09
21 0.08
22 -0.15
23 -0.15
24 -0.15
25 0.57
26 -0.15
3 -0.65
35 0.37
4 -0.57
40 0.37
41 0.15
42 0.5
43 0.15
44 0.15
45 0.06
46 0.15
47 0.45
5 -0.53
6 -0.57
7 -0.73
8 -0.7
9 -0.73

> <PUBCHEM_EFFECTIVE_ROTOR_COUNT>
11.6

> <PUBCHEM_PHARMACOPHORE_FEATURES>
10
1 2 acceptor
1 3 acceptor
1 4 acceptor
1 5 donor
1 6 acceptor
1 7 donor
1 9 donor
3 3 4 18 anion
5 1 8 14 16 19 rings
6 20 21 22 23 24 26 rings

> <PUBCHEM_HEAVY_ATOM_COUNT>
26

> <PUBCHEM_ATOM_DEF_STEREO_COUNT>
0

> <PUBCHEM_ATOM_UDEF_STEREO_COUNT>
2

> <PUBCHEM_BOND_DEF_STEREO_COUNT>
0

> <PUBCHEM_BOND_UDEF_STEREO_COUNT>
0

> <PUBCHEM_ISOTOPIC_ATOM_COUNT>
0

> <PUBCHEM_COMPONENT_COUNT>
1

> <PUBCHEM_CACTVS_TAUTO_COUNT>
-1

> <PUBCHEM_CONFORMER_ID>
081388BB00000001

> <PUBCHEM_MMFF94_ENERGY>
46.4282

> <PUBCHEM_FEATURE_SELFOVERLAP>
50.805

> <PUBCHEM_SHAPE_FINGERPRINT>
10688039 33 17967249767372171204
10708813 3 18053103110008389333
11244481 83 16445620396129297125
11370993 70 17846497066893070633
12422481 6 18337112263747966265
12633257 1 18273495680283860384
13402501 40 18263353690798943837
13583140 156 18114462353161378819
13965767 371 18272356595012048818
14117953 113 18271248222998811245
14840074 17 18262530302518368444
15463212 79 17038686114938691709
17859628 37 18340770454559726452
17980427 23 18272939319443306375
18336668 15 18272651272454652272
20715895 44 18129945577372199505
21033648 29 17459170989063809815
23227448 37 17131827720274364111
23559900 14 17203061702640943046
35225 105 17317572458412952572
3524813 1 18201434753219422808
474 4 18341619256336041003
513202 73 18046345237251824802
6287921 2 17845675680584343135
6328613 192 18130230479907054504
7064713 232 17917997161254204713

> <PUBCHEM_SHAPE_MULTIPOLES>
484.91
9.21
3.46
1.89
0.05
2.26
0.59
-2.2
-4.9
-1.36
1.69
0.42
0.48
-0.65

> <PUBCHEM_SHAPE_SELFOVERLAP>
1011.272

> <PUBCHEM_SHAPE_VOLUME>
273.1

> <PUBCHEM_COORDINATE_TYPE>
2
5
10

$$$$
