135407110
  -OEChem-03292013293D

 31 33  0     1  0  0  0  0  0999 V2000
    2.0304    0.4982    0.9767 O   0  0  0  0  0  0  0  0  0  0  0  0
    1.1686   -2.2615   -1.1730 O   0  0  0  0  0  0  0  0  0  0  0  0
    3.4093   -2.1415    0.4200 O   0  0  0  0  0  0  0  0  0  0  0  0
    3.7952    2.5826    0.3506 O   0  0  0  0  0  0  0  0  0  0  0  0
   -4.6317    1.3559   -0.4199 O   0  0  0  0  0  0  0  0  0  0  0  0
   -0.2578    0.2928    0.1526 N   0  0  0  0  0  0  0  0  0  0  0  0
   -0.2533    1.5957   -0.1977 N   0  0  0  0  0  0  0  0  0  0  0  0
   -1.7938   -1.5274    0.5420 N   0  0  0  0  0  0  0  0  0  0  0  0
   -4.0641   -0.8181    0.2031 N   0  0  0  0  0  0  0  0  0  0  0  0
    1.6887   -0.9928   -0.8293 C   0  0  2  0  0  0  0  0  0  0  0  0
    3.1547   -1.0372   -0.4469 C   0  0  1  0  0  0  0  0  0  0  0  0
    1.0517   -0.4079    0.4270 C   0  0  1  0  0  0  0  0  0  0  0  0
    3.3139    0.2429    0.3635 C   0  0  1  0  0  0  0  0  0  0  0  0
    3.6822    1.4483   -0.4907 C   0  0  0  0  0  0  0  0  0  0  0  0
   -1.5073   -0.2446    0.2155 C   0  0  0  0  0  0  0  0  0  0  0  0
   -2.3717    0.7733   -0.1152 C   0  0  0  0  0  0  0  0  0  0  0  0
   -1.5512    1.8826   -0.3601 C   0  0  0  0  0  0  0  0  0  0  0  0
   -3.7891    0.5126   -0.1378 C   0  0  0  0  0  0  0  0  0  0  0  0
   -3.0749   -1.7540    0.5196 C   0  0  0  0  0  0  0  0  0  0  0  0
    1.5421   -0.3188   -1.6822 H   0  0  0  0  0  0  0  0  0  0  0  0
    0.8238   -1.1707    1.1810 H   0  0  0  0  0  0  0  0  0  0  0  0
    3.8256   -1.1231   -1.3065 H   0  0  0  0  0  0  0  0  0  0  0  0
    4.0354    0.1340    1.1813 H   0  0  0  0  0  0  0  0  0  0  0  0
    2.9093    1.6648   -1.2348 H   0  0  0  0  0  0  0  0  0  0  0  0
    4.6388    1.2899   -0.9981 H   0  0  0  0  0  0  0  0  0  0  0  0
    1.7012   -2.6045   -1.9107 H   0  0  0  0  0  0  0  0  0  0  0  0
    4.3497   -2.1075    0.6656 H   0  0  0  0  0  0  0  0  0  0  0  0
   -1.8314    2.8855   -0.6484 H   0  0  0  0  0  0  0  0  0  0  0  0
    4.0343    3.3366   -0.2150 H   0  0  0  0  0  0  0  0  0  0  0  0
   -3.4882   -2.7458    0.7597 H   0  0  0  0  0  0  0  0  0  0  0  0
   -5.0353   -1.1158    0.2200 H   0  0  0  0  0  0  0  0  0  0  0  0
  1 12  1  0  0  0  0
  1 13  1  0  0  0  0
  2 10  1  0  0  0  0
  2 26  1  0  0  0  0
  3 11  1  0  0  0  0
  3 27  1  0  0  0  0
  4 14  1  0  0  0  0
  4 29  1  0  0  0  0
  5 18  2  0  0  0  0
  6  7  1  0  0  0  0
  6 12  1  0  0  0  0
  6 15  1  0  0  0  0
  7 17  2  0  0  0  0
  8 15  1  0  0  0  0
  8 19  2  0  0  0  0
  9 18  1  0  0  0  0
  9 19  1  0  0  0  0
  9 31  1  0  0  0  0
 10 11  1  0  0  0  0
 10 12  1  0  0  0  0
 10 20  1  0  0  0  0
 11 13  1  0  0  0  0
 11 22  1  0  0  0  0
 12 21  1  0  0  0  0
 13 14  1  0  0  0  0
 13 23  1  0  0  0  0
 14 24  1  0  0  0  0
 14 25  1  0  0  0  0
 15 16  2  0  0  0  0
 16 17  1  0  0  0  0
 16 18  1  0  0  0  0
 17 28  1  0  0  0  0
 19 30  1  0  0  0  0
M  END
> <PUBCHEM_COMPOUND_CID>
135407110

> <PUBCHEM_CONFORMER_RMSD>
0.6

> <PUBCHEM_CONFORMER_DIVERSEORDER>
1
11
13
6
7
15
4
2
3
14
9
5
12
10
8

> <PUBCHEM_MMFF94_PARTIAL_CHARGES>
25
1 -0.56
10 0.28
11 0.28
12 0.54
13 0.28
14 0.28
15 -0.03
16 -0.09
17 0.14
18 0.72
19 0.45
2 -0.68
26 0.4
27 0.4
28 0.15
29 0.4
3 -0.68
30 0.06
31 0.37
4 -0.68
5 -0.57
6 0.31
7 -0.71
8 -0.58
9 -0.49

> <PUBCHEM_EFFECTIVE_ROTOR_COUNT>
3

> <PUBCHEM_PHARMACOPHORE_FEATURES>
13
1 1 acceptor
1 2 acceptor
1 2 donor
1 3 acceptor
1 3 donor
1 4 acceptor
1 4 donor
1 5 acceptor
1 7 acceptor
1 9 donor
5 1 10 11 12 13 rings
5 6 7 15 16 17 rings
6 8 9 15 16 18 19 rings

> <PUBCHEM_HEAVY_ATOM_COUNT>
19

> <PUBCHEM_ATOM_DEF_STEREO_COUNT>
4

> <PUBCHEM_ATOM_UDEF_STEREO_COUNT>
0

> <PUBCHEM_BOND_DEF_STEREO_COUNT>
0

> <PUBCHEM_BOND_UDEF_STEREO_COUNT>
0

> <PUBCHEM_ISOTOPIC_ATOM_COUNT>
0

> <PUBCHEM_COMPONENT_COUNT>
1

> <PUBCHEM_CACTVS_TAUTO_COUNT>
-1

> <PUBCHEM_CONFORMER_ID>
0812260600000001

> <PUBCHEM_MMFF94_ENERGY>
44.9618

> <PUBCHEM_FEATURE_SELFOVERLAP>
66.113

> <PUBCHEM_SHAPE_FINGERPRINT>
10608611 8 18410291384951630044
10616163 171 18411703226611746751
107287 299 17988928881249980374
11132069 177 18335699463903778569
12633257 1 18268153054378891018
13214271 11 18338513148682305213
13296908 3 18408042913922157155
13675066 3 17676776400769436817
15196674 1 18408886239546253163
15219456 202 18412546517643898395
15375358 24 18410572886019644551
15375462 6 18408888460086484806
15536298 74 18409732871789096372
16945 1 18124045537251872894
18175812 5 18411700976038113414
18186145 218 17458340823346005127
200 152 17417802899372140359
20201158 50 18200032837308179439
20279233 1 18341615884670564943
20510252 161 18411420583957897769
20528008 55 18411417293669674021
20645477 56 18187647973172606029
20645477 70 18272369737279911855
21501502 16 18341337686616653800
221490 88 18409738348262879818
23402539 116 18334849494070614775
23557571 272 18262812863794211398
23559900 14 18338231566510974490
296302 2 18413110580289228989
474 4 17096096916829364404
495365 180 17774421833297909385
5104073 3 18407761430408162817
58051976 378 18343021090695795692
69090 78 18340762650926065279
7364860 26 18411136910047205688
81228 2 18116730533821769673
8809292 202 18335988571026948187
9709674 26 18341336569920271959

> <PUBCHEM_SHAPE_MULTIPOLES>
341.74
8.13
2.34
0.82
1.78
0.07
0.06
1.32
-0.05
-1.05
0.14
-0.28
-0.17
0.72

> <PUBCHEM_SHAPE_SELFOVERLAP>
742.162

> <PUBCHEM_SHAPE_VOLUME>
184.6

> <PUBCHEM_COORDINATE_TYPE>
2
5
10

$$$$
