135416394
  -OEChem-03292013293D

 50 52  0     0  0  0  0  0  0999 V2000
    1.5592    1.0277    2.1416 O   0  0  0  0  0  0  0  0  0  0  0  0
   -1.6532    3.0973   -0.9723 O   0  0  0  0  0  0  0  0  0  0  0  0
    3.1368   -2.2376   -2.8868 O   0  0  0  0  0  0  0  0  0  0  0  0
    1.7210   -0.4961   -2.4474 O   0  0  0  0  0  0  0  0  0  0  0  0
   -5.7209   -3.0481    0.7336 O   0  0  0  0  0  0  0  0  0  0  0  0
    2.4619    0.5611    0.0599 N   0  0  0  0  0  0  0  0  0  0  0  0
   -0.9691    1.0735   -0.2996 N   0  0  0  0  0  0  0  0  0  0  0  0
   -2.8135    2.3331   -0.7951 N   0  0  0  0  0  0  0  0  0  0  0  0
   -4.4997    0.2474   -0.2320 N   0  0  0  0  0  0  0  0  0  0  0  0
    1.6386    2.8394    0.5179 C   0  0  0  0  0  0  0  0  0  0  0  0
    3.7353   -2.4584    1.9086 C   0  0  0  0  0  0  0  0  0  0  0  0
    3.0829   -1.0881    1.7204 C   0  0  0  0  0  0  0  0  0  0  0  0
    3.0248   -3.5157    1.0755 C   0  0  0  0  0  0  0  0  0  0  0  0
    2.7543   -0.7585    0.2824 C   0  0  0  0  0  0  0  0  0  0  0  0
    3.0620   -3.1521   -0.4086 C   0  0  0  0  0  0  0  0  0  0  0  0
    2.7615   -1.7001   -0.6815 C   0  0  0  0  0  0  0  0  0  0  0  0
    0.7712    2.8791   -0.7719 C   0  0  0  0  0  0  0  0  0  0  0  0
    1.8757    1.3907    1.0077 C   0  0  0  0  0  0  0  0  0  0  0  0
    3.0032    3.4952    0.2155 C   0  0  0  0  0  0  0  0  0  0  0  0
    0.9814    3.6574    1.6489 C   0  0  0  0  0  0  0  0  0  0  0  0
   -0.6132    2.2807   -0.6598 C   0  0  0  0  0  0  0  0  0  0  0  0
    2.4626   -1.3868   -2.0899 C   0  0  0  0  0  0  0  0  0  0  0  0
   -2.3277    1.1532   -0.3981 C   0  0  0  0  0  0  0  0  0  0  0  0
   -3.1720    0.0342   -0.0936 C   0  0  0  0  0  0  0  0  0  0  0  0
   -2.6179   -1.1690    0.3129 C   0  0  0  0  0  0  0  0  0  0  0  0
   -3.4821   -2.2211    0.5954 C   0  0  0  0  0  0  0  0  0  0  0  0
   -5.3086   -0.7981    0.0517 C   0  0  0  0  0  0  0  0  0  0  0  0
   -4.8546   -2.0402    0.4648 C   0  0  0  0  0  0  0  0  0  0  0  0
    4.7910   -2.4078    1.6128 H   0  0  0  0  0  0  0  0  0  0  0  0
    3.7149   -2.7368    2.9685 H   0  0  0  0  0  0  0  0  0  0  0  0
    3.7507   -0.3359    2.1578 H   0  0  0  0  0  0  0  0  0  0  0  0
    2.1570   -1.1226    2.3063 H   0  0  0  0  0  0  0  0  0  0  0  0
    1.9827   -3.6052    1.4080 H   0  0  0  0  0  0  0  0  0  0  0  0
    3.4930   -4.4947    1.2283 H   0  0  0  0  0  0  0  0  0  0  0  0
    2.3468   -3.7972   -0.9339 H   0  0  0  0  0  0  0  0  0  0  0  0
    4.0614   -3.3867   -0.7975 H   0  0  0  0  0  0  0  0  0  0  0  0
    0.6637    3.9250   -1.0913 H   0  0  0  0  0  0  0  0  0  0  0  0
    1.2758    2.3720   -1.6024 H   0  0  0  0  0  0  0  0  0  0  0  0
    2.5034    0.8813   -0.9024 H   0  0  0  0  0  0  0  0  0  0  0  0
    3.5101    3.0058   -0.6236 H   0  0  0  0  0  0  0  0  0  0  0  0
    0.0247    3.2214    1.9575 H   0  0  0  0  0  0  0  0  0  0  0  0
    1.6217    3.6928    2.5381 H   0  0  0  0  0  0  0  0  0  0  0  0
    0.7917    4.6893    1.3325 H   0  0  0  0  0  0  0  0  0  0  0  0
    3.6723    3.4280    1.0812 H   0  0  0  0  0  0  0  0  0  0  0  0
    2.8872    4.5541   -0.0417 H   0  0  0  0  0  0  0  0  0  0  0  0
    2.9673   -2.0663   -3.8377 H   0  0  0  0  0  0  0  0  0  0  0  0
   -1.5478   -1.3171    0.4170 H   0  0  0  0  0  0  0  0  0  0  0  0
   -3.0752   -3.1760    0.9162 H   0  0  0  0  0  0  0  0  0  0  0  0
   -6.3693   -0.6004   -0.0674 H   0  0  0  0  0  0  0  0  0  0  0  0
   -5.2148   -3.8327    1.0064 H   0  0  0  0  0  0  0  0  0  0  0  0
  1 18  2  0  0  0  0
  2  8  1  0  0  0  0
  2 21  1  0  0  0  0
  3 22  1  0  0  0  0
  3 46  1  0  0  0  0
  4 22  2  0  0  0  0
  5 28  1  0  0  0  0
  5 50  1  0  0  0  0
  6 14  1  0  0  0  0
  6 18  1  0  0  0  0
  6 39  1  0  0  0  0
  7 21  2  0  0  0  0
  7 23  1  0  0  0  0
  8 23  2  0  0  0  0
  9 24  2  0  0  0  0
  9 27  1  0  0  0  0
 10 17  1  0  0  0  0
 10 18  1  0  0  0  0
 10 19  1  0  0  0  0
 10 20  1  0  0  0  0
 11 12  1  0  0  0  0
 11 13  1  0  0  0  0
 11 29  1  0  0  0  0
 11 30  1  0  0  0  0
 12 14  1  0  0  0  0
 12 31  1  0  0  0  0
 12 32  1  0  0  0  0
 13 15  1  0  0  0  0
 13 33  1  0  0  0  0
 13 34  1  0  0  0  0
 14 16  2  0  0  0  0
 15 16  1  0  0  0  0
 15 35  1  0  0  0  0
 15 36  1  0  0  0  0
 16 22  1  0  0  0  0
 17 21  1  0  0  0  0
 17 37  1  0  0  0  0
 17 38  1  0  0  0  0
 19 40  1  0  0  0  0
 19 44  1  0  0  0  0
 19 45  1  0  0  0  0
 20 41  1  0  0  0  0
 20 42  1  0  0  0  0
 20 43  1  0  0  0  0
 23 24  1  0  0  0  0
 24 25  1  0  0  0  0
 25 26  2  0  0  0  0
 25 47  1  0  0  0  0
 26 28  1  0  0  0  0
 26 48  1  0  0  0  0
 27 28  2  0  0  0  0
 27 49  1  0  0  0  0
M  END
> <PUBCHEM_COMPOUND_CID>
135416394

> <PUBCHEM_CONFORMER_RMSD>
1

> <PUBCHEM_CONFORMER_DIVERSEORDER>
1
104
132
171
106
17
24
83
183
34
182
54
178
199
99
25
88
70
127
50
161
192
108
164
31
98
141
191
84
125
57
26
8
87
185
197
39
193
97
60
86
96
7
72
111
76
29
13
63
71
196
143
115
37
21
166
189
176
44
113
128
59
4
184
42
38
20
19
139
134
168
40
11
119
156
167
52
14
48
186
5
169
91
43
47
107
170
55
56
94
131
152
75
9
172
153
121
150
179
175
135
22
12
159
62
138
195
92
124
45
190
85
102
129
32
27
149
162
173
30
180
158
133
89
165
198
154
80
49
2
78
163
90
112
157
68
6
177
140
105
16
144
35
33
101
28
120
66
69
114
160
146
122
41
10
194
117
118
79
116
126
77
103
82
18
3
95
36
188
123
67
23
64
15
137
145
110
136
53
61
100
130
73
181
93
51
58
148
46
187
151
174
65
74
81
147
155
109
142

> <PUBCHEM_MMFF94_PARTIAL_CHARGES>
30
1 -0.57
10 0.06
12 0.14
14 -0.03
15 0.14
16 -0.12
17 0.18
18 0.57
2 -0.02
21 0.3
22 0.71
23 0.46
24 0.36
25 -0.15
26 -0.15
27 0.16
28 0.08
3 -0.65
39 0.37
4 -0.57
46 0.5
47 0.15
48 0.15
49 0.15
5 -0.53
50 0.45
6 -0.54
7 -0.57
8 -0.41
9 -0.62

> <PUBCHEM_EFFECTIVE_ROTOR_COUNT>
7.8

> <PUBCHEM_PHARMACOPHORE_FEATURES>
12
1 1 acceptor
1 3 acceptor
1 4 acceptor
1 5 donor
1 6 donor
1 9 acceptor
3 10 19 20 hydrophobe
3 3 4 22 anion
3 7 8 23 cation
5 2 7 8 21 23 rings
6 11 12 13 14 15 16 rings
6 9 24 25 26 27 28 rings

> <PUBCHEM_HEAVY_ATOM_COUNT>
28

> <PUBCHEM_ATOM_DEF_STEREO_COUNT>
0

> <PUBCHEM_ATOM_UDEF_STEREO_COUNT>
0

> <PUBCHEM_BOND_DEF_STEREO_COUNT>
0

> <PUBCHEM_BOND_UDEF_STEREO_COUNT>
0

> <PUBCHEM_ISOTOPIC_ATOM_COUNT>
0

> <PUBCHEM_COMPONENT_COUNT>
1

> <PUBCHEM_CACTVS_TAUTO_COUNT>
-1

> <PUBCHEM_CONFORMER_ID>
08124A4A00000001

> <PUBCHEM_MMFF94_ENERGY>
62.0411

> <PUBCHEM_FEATURE_SELFOVERLAP>
60.949

> <PUBCHEM_SHAPE_FINGERPRINT>
114674 6 18263928911130876083
11488393 25 18269574856769858116
11578080 2 17241867853320808636
12107183 9 18339929191501400713
12156800 1 12890630799416998054
12202916 173 17478008724214033302
12363563 72 18196647406704157738
12633257 1 18270405971316609385
12712778 12 17686600365249470594
12990986 174 18118674431561481018
13533116 47 18200597016465811737
1361 2 17975973486481262419
13726171 33 18197240069637660556
14725015 67 16828402840872423655
14863182 85 17972884944795374221
14866123 147 18049717417981386825
15664445 248 17970358228726267685
19301679 30 18264212599118264947
1979834 28 18122340457021466849
20028762 73 17331404676048298263
20600515 1 17979625741753961212
20775530 9 18412262800826374955
22440779 20 15766148302374733294
23559900 14 18408315584426868645
3117164 225 18269571481163135937
3421961 26 18336540611947774865
44317340 157 8790621273677881531
57359948 33 17241591975155801167
6433294 58 18336260227660785235
6669772 16 18127415777485120308
6823239 73 18272381845029823310
81228 2 17338718154823189704

> <PUBCHEM_SHAPE_MULTIPOLES>
526.96
9.55
5.26
1.91
14.11
1.75
0.76
-9.2
-1.48
-2.92
-0.87
-2.55
-0.77
1.62

> <PUBCHEM_SHAPE_SELFOVERLAP>
1127.66

> <PUBCHEM_SHAPE_VOLUME>
288.3

> <PUBCHEM_COORDINATE_TYPE>
2
5
10

$$$$
