135465599
  -OEChem-03292013293D

 33 35  0     1  0  0  0  0  0999 V2000
    0.1705   -3.9274    0.5864 Br  0  0  0  0  0  0  0  0  0  0  0  0
    1.6574    0.5065    1.0717 O   0  0  0  0  0  0  0  0  0  0  0  0
    2.4859   -2.0080   -1.3718 O   0  0  0  0  0  0  0  0  0  0  0  0
    4.3132   -0.6241    0.1511 O   0  0  0  0  0  0  0  0  0  0  0  0
    1.6661    3.2766    0.6500 O   0  0  0  0  0  0  0  0  0  0  0  0
   -4.5457   -0.6634   -0.2387 O   0  0  0  0  0  0  0  0  0  0  0  0
   -0.0751   -1.0312    0.3027 N   0  0  0  0  0  0  0  0  0  0  0  0
   -2.0081   -2.1495    0.1811 N   0  0  0  0  0  0  0  0  0  0  0  0
   -0.8575    1.2409    0.0132 N   0  0  0  0  0  0  0  0  0  0  0  0
   -3.2376    1.2711   -0.2605 N   0  0  0  0  0  0  0  0  0  0  0  0
   -1.9991    3.2720   -0.2968 N   0  0  0  0  0  0  0  0  0  0  0  0
    2.1353   -0.7254   -0.8918 C   0  0  1  0  0  0  0  0  0  0  0  0
    1.4053   -0.7690    0.4467 C   0  0  1  0  0  0  0  0  0  0  0  0
    3.3398    0.1347   -0.5651 C   0  0  1  0  0  0  0  0  0  0  0  0
    2.7497    1.1636    0.3909 C   0  0  1  0  0  0  0  0  0  0  0  0
    2.1983    2.3918   -0.3201 C   0  0  0  0  0  0  0  0  0  0  0  0
   -1.0464   -0.0938    0.1093 C   0  0  0  0  0  0  0  0  0  0  0  0
   -0.7030   -2.2524    0.3389 C   0  0  0  0  0  0  0  0  0  0  0  0
   -2.2170   -0.8095    0.0391 C   0  0  0  0  0  0  0  0  0  0  0  0
   -3.4558   -0.1103   -0.1636 C   0  0  0  0  0  0  0  0  0  0  0  0
   -1.9765    1.9070   -0.1730 C   0  0  0  0  0  0  0  0  0  0  0  0
    1.5159   -0.2322   -1.6508 H   0  0  0  0  0  0  0  0  0  0  0  0
    1.7873   -1.5478    1.1151 H   0  0  0  0  0  0  0  0  0  0  0  0
    3.8261    0.5555   -1.4497 H   0  0  0  0  0  0  0  0  0  0  0  0
    3.4609    1.4720    1.1657 H   0  0  0  0  0  0  0  0  0  0  0  0
    1.4023    2.1373   -1.0249 H   0  0  0  0  0  0  0  0  0  0  0  0
    2.9951    2.9108   -0.8623 H   0  0  0  0  0  0  0  0  0  0  0  0
    3.0376   -1.8822   -2.1625 H   0  0  0  0  0  0  0  0  0  0  0  0
    5.0469   -0.0241    0.3687 H   0  0  0  0  0  0  0  0  0  0  0  0
    1.3283    4.0543    0.1741 H   0  0  0  0  0  0  0  0  0  0  0  0
   -4.0508    1.8626   -0.4054 H   0  0  0  0  0  0  0  0  0  0  0  0
   -1.1454    3.8173   -0.2486 H   0  0  0  0  0  0  0  0  0  0  0  0
   -2.8674    3.7760   -0.4404 H   0  0  0  0  0  0  0  0  0  0  0  0
  1 18  1  0  0  0  0
  2 13  1  0  0  0  0
  2 15  1  0  0  0  0
  3 12  1  0  0  0  0
  3 28  1  0  0  0  0
  4 14  1  0  0  0  0
  4 29  1  0  0  0  0
  5 16  1  0  0  0  0
  5 30  1  0  0  0  0
  6 20  2  0  0  0  0
  7 13  1  0  0  0  0
  7 17  1  0  0  0  0
  7 18  1  0  0  0  0
  8 18  2  0  0  0  0
  8 19  1  0  0  0  0
  9 17  1  0  0  0  0
  9 21  2  0  0  0  0
 10 20  1  0  0  0  0
 10 21  1  0  0  0  0
 10 31  1  0  0  0  0
 11 21  1  0  0  0  0
 11 32  1  0  0  0  0
 11 33  1  0  0  0  0
 12 13  1  0  0  0  0
 12 14  1  0  0  0  0
 12 22  1  0  0  0  0
 13 23  1  0  0  0  0
 14 15  1  0  0  0  0
 14 24  1  0  0  0  0
 15 16  1  0  0  0  0
 15 25  1  0  0  0  0
 16 26  1  0  0  0  0
 16 27  1  0  0  0  0
 17 19  2  0  0  0  0
 19 20  1  0  0  0  0
M  END
> <PUBCHEM_COMPOUND_CID>
135465599

> <PUBCHEM_CONFORMER_RMSD>
0.6

> <PUBCHEM_CONFORMER_DIVERSEORDER>
1
13
7
3
9
6
14
12
10
2
4
11
8
5

> <PUBCHEM_MMFF94_PARTIAL_CHARGES>
27
1 -0.06
10 -0.49
11 -0.85
12 0.28
13 0.54
14 0.28
15 0.28
16 0.28
17 -0.03
18 0.24
19 0.14
2 -0.56
20 0.72
21 0.56
28 0.4
29 0.4
3 -0.68
30 0.4
31 0.37
32 0.4
33 0.4
4 -0.68
5 -0.68
6 -0.57
7 0.05
8 -0.57
9 -0.58

> <PUBCHEM_EFFECTIVE_ROTOR_COUNT>
3

> <PUBCHEM_PHARMACOPHORE_FEATURES>
15
1 1 hydrophobe
1 10 donor
1 11 donor
1 2 acceptor
1 3 acceptor
1 3 donor
1 4 acceptor
1 4 donor
1 5 acceptor
1 5 donor
1 6 acceptor
3 7 8 18 cation
5 2 12 13 14 15 rings
5 7 8 17 18 19 rings
6 9 10 17 19 20 21 rings

> <PUBCHEM_HEAVY_ATOM_COUNT>
21

> <PUBCHEM_ATOM_DEF_STEREO_COUNT>
4

> <PUBCHEM_ATOM_UDEF_STEREO_COUNT>
0

> <PUBCHEM_BOND_DEF_STEREO_COUNT>
0

> <PUBCHEM_BOND_UDEF_STEREO_COUNT>
0

> <PUBCHEM_ISOTOPIC_ATOM_COUNT>
0

> <PUBCHEM_COMPONENT_COUNT>
1

> <PUBCHEM_CACTVS_TAUTO_COUNT>
-1

> <PUBCHEM_CONFORMER_ID>
08130A7F00000001

> <PUBCHEM_MMFF94_ENERGY>
49.3216

> <PUBCHEM_FEATURE_SELFOVERLAP>
76.316

> <PUBCHEM_SHAPE_FINGERPRINT>
10498660 4 18334572396172104493
10608611 8 18339642372841080808
10616163 171 17833553770587691172
10967382 1 18265613363081570737
12403259 226 18409728443603714311
12403260 363 18409720755548970374
12553582 1 17182790302938371547
13140716 1 18336834207501653363
14790565 3 18409738391618884049
16945 1 18337105679415193787
17802600 8 18410007741037507956
18186145 218 18199475376322631063
19591789 44 18337674087960967851
20510252 161 18413108351248974217
20905425 154 17836647418330090566
21524375 3 18186800257738583507
22802520 49 18340778146756424234
2334 1 17977385258846031467
23366157 5 17680433238672943043
23402539 116 18411688903017147094
23557571 272 17979648054023966310
23559900 14 18341328998229980320
238 59 18123437580399591037
2748010 2 18121782995719640723
350125 39 18047474418186198259
5262128 65 17916882204828930700
7364860 26 18270680990847171712
7832392 63 17979918211572188221
81228 2 17979346796317731435
9709674 26 18341899614231066062
9925002 15 15320540986864016758

> <PUBCHEM_SHAPE_MULTIPOLES>
383.86
6.13
3.98
0.84
0.82
0.67
-0.07
-1.23
-0.87
0.12
0.49
-0.47
0.18
0.63

> <PUBCHEM_SHAPE_SELFOVERLAP>
818.238

> <PUBCHEM_SHAPE_VOLUME>
218.3

> <PUBCHEM_COORDINATE_TYPE>
2
5
10

$$$$
