135449328
  -OEChem-03292013293D

 53 54  0     0  0  0  0  0  0999 V2000
   -3.8459   -0.6966    2.4664 S   0  0  0  0  0  0  0  0  0  0  0  0
   -0.5496    4.7395   -1.5555 O   0  0  0  0  0  0  0  0  0  0  0  0
   -1.7932    2.9054   -0.1830 O   0  0  0  0  0  0  0  0  0  0  0  0
    6.0586   -0.1610    0.1685 O   0  0  0  0  0  0  0  0  0  0  0  0
    1.1065   -2.7328   -2.4516 O   0  0  0  0  0  0  0  0  0  0  0  0
    4.6346    0.5910    1.8045 O   0  0  0  0  0  0  0  0  0  0  0  0
    3.3321   -2.2028   -2.2757 O   0  0  0  0  0  0  0  0  0  0  0  0
    0.1794    1.7189    0.3187 N   0  0  0  0  0  0  0  0  0  0  0  0
    1.9988   -0.2104    1.3190 N   0  0  0  0  0  0  0  0  0  0  0  0
    3.8744   -0.6801   -0.0009 N   0  0  0  0  0  0  0  0  0  0  0  0
    1.7656   -1.5031   -0.6819 N   0  0  0  0  0  0  0  0  0  0  0  0
   -0.2712    0.6412    1.0859 C   0  0  0  0  0  0  0  0  0  0  0  0
    0.6228   -0.3091    1.5796 C   0  0  0  0  0  0  0  0  0  0  0  0
   -2.1039   -0.5457    2.1204 C   0  0  0  0  0  0  0  0  0  0  0  0
   -1.6346    0.5228    1.3563 C   0  0  0  0  0  0  0  0  0  0  0  0
    0.1533   -1.3779    2.3433 C   0  0  0  0  0  0  0  0  0  0  0  0
   -1.2099   -1.4960    2.6140 C   0  0  0  0  0  0  0  0  0  0  0  0
   -0.5774    2.7513   -0.2476 C   0  0  0  0  0  0  0  0  0  0  0  0
   -4.5202   -0.8181    0.8162 C   0  0  0  0  0  0  0  0  0  0  0  0
    0.2818    3.7353   -1.0115 C   0  0  0  0  0  0  0  0  0  0  0  0
    2.5073   -0.7731    0.2639 C   0  0  0  0  0  0  0  0  0  0  0  0
   -5.4370    0.1320    0.3659 C   0  0  0  0  0  0  0  0  0  0  0  0
   -4.1296   -1.8625   -0.0220 C   0  0  0  0  0  0  0  0  0  0  0  0
   -5.9632    0.0375   -0.9226 C   0  0  0  0  0  0  0  0  0  0  0  0
   -4.6559   -1.9569   -1.3104 C   0  0  0  0  0  0  0  0  0  0  0  0
   -5.5729   -1.0071   -1.7605 C   0  0  0  0  0  0  0  0  0  0  0  0
    4.8352   -0.0223    0.7617 C   0  0  0  0  0  0  0  0  0  0  0  0
    2.1851   -2.1508   -1.8462 C   0  0  0  0  0  0  0  0  0  0  0  0
    0.1961    5.7045   -2.2913 C   0  0  0  0  0  0  0  0  0  0  0  0
    1.3786   -3.4409   -3.6662 C   0  0  0  0  0  0  0  0  0  0  0  0
    7.1543    0.4677    0.8427 C   0  0  0  0  0  0  0  0  0  0  0  0
   -2.3715    1.2328    1.0105 H   0  0  0  0  0  0  0  0  0  0  0  0
    0.8415   -2.1238    2.7324 H   0  0  0  0  0  0  0  0  0  0  0  0
   -1.5573   -2.3359    3.2106 H   0  0  0  0  0  0  0  0  0  0  0  0
    1.1845    1.7483    0.1616 H   0  0  0  0  0  0  0  0  0  0  0  0
    1.0096    4.1779   -0.3222 H   0  0  0  0  0  0  0  0  0  0  0  0
    0.8043    3.2005   -1.8126 H   0  0  0  0  0  0  0  0  0  0  0  0
   -5.7523    0.9534    1.0044 H   0  0  0  0  0  0  0  0  0  0  0  0
   -3.4210   -2.6177    0.3090 H   0  0  0  0  0  0  0  0  0  0  0  0
   -6.6768    0.7773   -1.2735 H   0  0  0  0  0  0  0  0  0  0  0  0
   -4.3527   -2.7706   -1.9627 H   0  0  0  0  0  0  0  0  0  0  0  0
   -5.9827   -1.0807   -2.7636 H   0  0  0  0  0  0  0  0  0  0  0  0
    0.7678   -1.5824   -0.5080 H   0  0  0  0  0  0  0  0  0  0  0  0
    4.2199   -1.1377   -0.8386 H   0  0  0  0  0  0  0  0  0  0  0  0
   -0.5002    6.4500   -2.6843 H   0  0  0  0  0  0  0  0  0  0  0  0
    0.7120    5.2289   -3.1310 H   0  0  0  0  0  0  0  0  0  0  0  0
    0.9176    6.2070   -1.6399 H   0  0  0  0  0  0  0  0  0  0  0  0
    0.4361   -3.8514   -4.0383 H   0  0  0  0  0  0  0  0  0  0  0  0
    1.7862   -2.7590   -4.4185 H   0  0  0  0  0  0  0  0  0  0  0  0
    6.9932    1.5484    0.9005 H   0  0  0  0  0  0  0  0  0  0  0  0
    7.2790    0.0404    1.8422 H   0  0  0  0  0  0  0  0  0  0  0  0
    8.0625    0.2786    0.2644 H   0  0  0  0  0  0  0  0  0  0  0  0
    2.0706   -4.2667   -3.4758 H   0  0  0  0  0  0  0  0  0  0  0  0
  1 14  1  0  0  0  0
  1 19  1  0  0  0  0
  2 20  1  0  0  0  0
  2 29  1  0  0  0  0
  3 18  2  0  0  0  0
  4 27  1  0  0  0  0
  4 31  1  0  0  0  0
  5 28  1  0  0  0  0
  5 30  1  0  0  0  0
  6 27  2  0  0  0  0
  7 28  2  0  0  0  0
  8 12  1  0  0  0  0
  8 18  1  0  0  0  0
  8 35  1  0  0  0  0
  9 13  1  0  0  0  0
  9 21  2  0  0  0  0
 10 21  1  0  0  0  0
 10 27  1  0  0  0  0
 10 44  1  0  0  0  0
 11 21  1  0  0  0  0
 11 28  1  0  0  0  0
 11 43  1  0  0  0  0
 12 13  2  0  0  0  0
 12 15  1  0  0  0  0
 13 16  1  0  0  0  0
 14 15  2  0  0  0  0
 14 17  1  0  0  0  0
 15 32  1  0  0  0  0
 16 17  2  0  0  0  0
 16 33  1  0  0  0  0
 17 34  1  0  0  0  0
 18 20  1  0  0  0  0
 19 22  2  0  0  0  0
 19 23  1  0  0  0  0
 20 36  1  0  0  0  0
 20 37  1  0  0  0  0
 22 24  1  0  0  0  0
 22 38  1  0  0  0  0
 23 25  2  0  0  0  0
 23 39  1  0  0  0  0
 24 26  2  0  0  0  0
 24 40  1  0  0  0  0
 25 26  1  0  0  0  0
 25 41  1  0  0  0  0
 26 42  1  0  0  0  0
 29 45  1  0  0  0  0
 29 46  1  0  0  0  0
 29 47  1  0  0  0  0
 30 48  1  0  0  0  0
 30 49  1  0  0  0  0
 30 53  1  0  0  0  0
 31 50  1  0  0  0  0
 31 51  1  0  0  0  0
 31 52  1  0  0  0  0
M  END
> <PUBCHEM_COMPOUND_CID>
135449328

> <PUBCHEM_CONFORMER_RMSD>
1.2

> <PUBCHEM_CONFORMER_DIVERSEORDER>
2
17
10
8
48
14
39
34
46
27
21
15
31
53
7
47
26
43
49
38
52
41
50
9
29
56
32
37
59
51
20
33
36
16
5
58
30
12
40
6
54
24
45
35
28
4
19
57
55
44
22
13
1
42
18
23
11
25
3

> <PUBCHEM_MMFF94_PARTIAL_CHARGES>
42
1 -0.2
10 -0.49
11 -0.49
12 0.12
13 0.18
14 0.1
15 -0.15
16 -0.15
17 -0.15
18 0.57
19 0.1
2 -0.56
20 0.34
21 0.57
22 -0.15
23 -0.15
24 -0.15
25 -0.15
26 -0.15
27 0.78
28 0.78
29 0.28
3 -0.57
30 0.28
31 0.28
32 0.15
33 0.15
34 0.15
35 0.37
38 0.15
39 0.15
4 -0.43
40 0.15
41 0.15
42 0.15
43 0.37
44 0.37
5 -0.43
6 -0.57
7 -0.57
8 -0.55
9 -0.63

> <PUBCHEM_EFFECTIVE_ROTOR_COUNT>
13

> <PUBCHEM_PHARMACOPHORE_FEATURES>
9
1 10 donor
1 11 donor
1 2 acceptor
1 3 acceptor
1 6 acceptor
1 7 acceptor
1 8 donor
6 12 13 14 15 16 17 rings
6 19 22 23 24 25 26 rings

> <PUBCHEM_HEAVY_ATOM_COUNT>
31

> <PUBCHEM_ATOM_DEF_STEREO_COUNT>
0

> <PUBCHEM_ATOM_UDEF_STEREO_COUNT>
0

> <PUBCHEM_BOND_DEF_STEREO_COUNT>
0

> <PUBCHEM_BOND_UDEF_STEREO_COUNT>
0

> <PUBCHEM_ISOTOPIC_ATOM_COUNT>
0

> <PUBCHEM_COMPONENT_COUNT>
1

> <PUBCHEM_CACTVS_TAUTO_COUNT>
-1

> <PUBCHEM_CONFORMER_ID>
0812CAF000000002

> <PUBCHEM_MMFF94_ENERGY>
85.2734

> <PUBCHEM_FEATURE_SELFOVERLAP>
45.721

> <PUBCHEM_SHAPE_FINGERPRINT>
10985338 15 17545322982024940017
11477941 20 17688641174910174630
11578080 2 17701552705126371753
12160290 23 17831312600966082113
12293681 160 17458336434016289985
12788726 201 17822839888647349481
14840074 17 18270682086147929452
20600515 1 17749123195955513204
21054139 6 16845575331213133122
21285901 2 18342176605456747367
21583282 1 18121218942682999956
21792965 131 17917129655977848470
21860390 5 18116422838038062077
26353 1 18338530646722077469
46194498 28 18191873546988180335
469060 322 18342457066879218622
5969126 39 18335695027424387296
66674814 147 18129930308426410783
6913067 236 18272366469189503826
7226269 152 17676203584859392755

> <PUBCHEM_SHAPE_MULTIPOLES>
586.68
12.46
4.85
3.19
4.46
10.12
-1.53
-4.89
0.41
1.11
-6.09
0.04
-2.53
1.34

> <PUBCHEM_SHAPE_SELFOVERLAP>
1207.642

> <PUBCHEM_SHAPE_VOLUME>
336.7

> <PUBCHEM_COORDINATE_TYPE>
2
5
10

$$$$
