135459767
  -OEChem-03292013293D

 30 31  0     1  0  0  0  0  0999 V2000
   -1.9748   -0.8602    1.0457 O   0  0  0  0  0  0  0  0  0  0  0  0
   -1.7005    2.0180   -1.0769 O   0  0  0  0  0  0  0  0  0  0  0  0
   -3.9261    1.4012    0.3761 O   0  0  0  0  0  0  0  0  0  0  0  0
    1.4990    1.9076    0.6216 O   0  0  0  0  0  0  0  0  0  0  0  0
    4.3156    1.1430    0.1508 O   0  0  0  0  0  0  0  0  0  0  0  0
    0.5018   -1.4549   -0.1034 N   0  0  0  0  0  0  0  0  0  0  0  0
    1.8383   -1.4534   -0.2449 N   0  0  0  0  0  0  0  0  0  0  0  0
    4.6755   -1.0422   -0.4439 N   0  0  0  0  0  0  0  0  0  0  0  0
   -1.9274    0.6559   -0.7749 C   0  0  2  0  0  0  0  0  0  0  0  0
   -3.3751    0.3621   -0.4328 C   0  0  1  0  0  0  0  0  0  0  0  0
   -1.1990    0.2229    0.4923 C   0  0  2  0  0  0  0  0  0  0  0  0
   -3.2624   -0.9128    0.3931 C   0  0  1  0  0  0  0  0  0  0  0  0
    0.2316   -0.1919    0.2372 C   0  0  0  0  0  0  0  0  0  0  0  0
   -3.3173   -2.1773   -0.4534 C   0  0  0  0  0  0  0  0  0  0  0  0
    1.3864    0.6096    0.3125 C   0  0  0  0  0  0  0  0  0  0  0  0
    2.4164   -0.2411   -0.0067 C   0  0  0  0  0  0  0  0  0  0  0  0
    3.8181    0.0135   -0.0924 C   0  0  0  0  0  0  0  0  0  0  0  0
   -1.6130    0.0502   -1.6339 H   0  0  0  0  0  0  0  0  0  0  0  0
   -4.0092    0.2678   -1.3195 H   0  0  0  0  0  0  0  0  0  0  0  0
   -1.1993    1.0306    1.2357 H   0  0  0  0  0  0  0  0  0  0  0  0
   -4.0269   -0.9643    1.1759 H   0  0  0  0  0  0  0  0  0  0  0  0
   -2.5132   -2.2011   -1.1965 H   0  0  0  0  0  0  0  0  0  0  0  0
   -4.2770   -2.2636   -0.9716 H   0  0  0  0  0  0  0  0  0  0  0  0
   -3.1812   -3.0612    0.1790 H   0  0  0  0  0  0  0  0  0  0  0  0
   -2.2777    2.2507   -1.8241 H   0  0  0  0  0  0  0  0  0  0  0  0
   -4.8357    1.1415    0.6022 H   0  0  0  0  0  0  0  0  0  0  0  0
    2.2876   -2.3217   -0.5071 H   0  0  0  0  0  0  0  0  0  0  0  0
    2.4295    2.1901    0.5926 H   0  0  0  0  0  0  0  0  0  0  0  0
    4.3469   -1.9800   -0.6470 H   0  0  0  0  0  0  0  0  0  0  0  0
    5.6769   -0.8908   -0.5063 H   0  0  0  0  0  0  0  0  0  0  0  0
  1 11  1  0  0  0  0
  1 12  1  0  0  0  0
  2  9  1  0  0  0  0
  2 25  1  0  0  0  0
  3 10  1  0  0  0  0
  3 26  1  0  0  0  0
  4 15  1  0  0  0  0
  4 28  1  0  0  0  0
  5 17  2  0  0  0  0
  6  7  1  0  0  0  0
  6 13  2  0  0  0  0
  7 16  1  0  0  0  0
  7 27  1  0  0  0  0
  8 17  1  0  0  0  0
  8 29  1  0  0  0  0
  8 30  1  0  0  0  0
  9 10  1  0  0  0  0
  9 11  1  0  0  0  0
  9 18  1  0  0  0  0
 10 12  1  0  0  0  0
 10 19  1  0  0  0  0
 11 13  1  0  0  0  0
 11 20  1  0  0  0  0
 12 14  1  0  0  0  0
 12 21  1  0  0  0  0
 13 15  1  0  0  0  0
 14 22  1  0  0  0  0
 14 23  1  0  0  0  0
 14 24  1  0  0  0  0
 15 16  2  0  0  0  0
 16 17  1  0  0  0  0
M  END
> <PUBCHEM_COMPOUND_CID>
135459767

> <PUBCHEM_CONFORMER_RMSD>
0.6

> <PUBCHEM_CONFORMER_DIVERSEORDER>
2
15
11
17
9
10
13
8
7
18
16
12
3
14
4
6
19
5
1
20

> <PUBCHEM_MMFF94_PARTIAL_CHARGES>
22
1 -0.56
10 0.28
11 0.46
12 0.28
13 0.11
15 0.06
16 -0.24
17 0.71
2 -0.68
25 0.4
26 0.4
27 0.27
28 0.45
29 0.37
3 -0.68
30 0.37
4 -0.51
5 -0.57
6 -0.71
7 0.3
8 -0.8
9 0.28

> <PUBCHEM_EFFECTIVE_ROTOR_COUNT>
3

> <PUBCHEM_PHARMACOPHORE_FEATURES>
12
1 1 acceptor
1 2 acceptor
1 2 donor
1 3 acceptor
1 3 donor
1 4 donor
1 5 acceptor
1 6 acceptor
1 7 donor
1 8 donor
5 1 9 10 11 12 rings
5 6 7 13 15 16 rings

> <PUBCHEM_HEAVY_ATOM_COUNT>
17

> <PUBCHEM_ATOM_DEF_STEREO_COUNT>
4

> <PUBCHEM_ATOM_UDEF_STEREO_COUNT>
0

> <PUBCHEM_BOND_DEF_STEREO_COUNT>
0

> <PUBCHEM_BOND_UDEF_STEREO_COUNT>
0

> <PUBCHEM_ISOTOPIC_ATOM_COUNT>
0

> <PUBCHEM_COMPONENT_COUNT>
1

> <PUBCHEM_CACTVS_TAUTO_COUNT>
-1

> <PUBCHEM_CONFORMER_ID>
0812F3B700000002

> <PUBCHEM_MMFF94_ENERGY>
31.8081

> <PUBCHEM_FEATURE_SELFOVERLAP>
60.918

> <PUBCHEM_SHAPE_FINGERPRINT>
10014705 185 18186515501854946405
10608611 8 18408600353232207452
11132069 177 18259700103426571021
11471102 20 18343017783507674120
12032990 46 18343026579822294374
12500047 106 18411413982534764453
12932764 1 17968086504489834025
13214271 11 18333450958783436663
13296908 3 18343302552782258110
15196674 1 18412263956377967976
15219456 202 18410293613997166419
15309172 13 17561367283314182055
15775835 57 18408324358823521163
16945 1 18338786832361487507
18175812 5 18411417340866880653
18186145 218 18409731729723155124
200 152 17918269874745498831
20201158 50 18410573963893003019
20645477 56 18188773838577201077
20645477 70 17988363659380530014
21501502 16 18262227833630465651
22094290 60 18186803577784745812
221490 88 18268152139688331522
23402539 116 17676481752679714366
23402655 69 18341894078038963012
23557571 272 18409739455984302999
23559900 14 18411417272780614418
2871803 45 18265321975616194879
3268164 11 17603294960273998415
3286 77 18200873001572556045
3312278 4 18272934912295086451
4028521 119 18040986307534500245
474 4 15286783484831864716
5104073 3 18411699898222914402
6333449 129 18335135393475355503
633830 44 17748831825780457714
8809292 202 18334298668878409459

> <PUBCHEM_SHAPE_MULTIPOLES>
305.56
8.02
1.85
0.82
4.6
0
0.02
0.65
0.54
-0.91
0.22
-0.35
-0.1
0.42

> <PUBCHEM_SHAPE_SELFOVERLAP>
649.724

> <PUBCHEM_SHAPE_VOLUME>
170.2

> <PUBCHEM_COORDINATE_TYPE>
2
5
10

$$$$
