135413546
  -OEChem-03292013293D

 29 31  0     0  0  0  0  0  0999 V2000
   -2.5378   -4.0672   -0.2071 Br  0  0  0  0  0  0  0  0  0  0  0  0
   -4.0859    1.2775    0.2635 O   0  0  0  0  0  0  0  0  0  0  0  0
    2.7386    2.2493   -0.4807 O   0  0  0  0  0  0  0  0  0  0  0  0
   -2.1616    2.4414    0.3681 N   0  0  0  0  0  0  0  0  0  0  0  0
   -2.8343   -1.1928    0.0415 N   0  0  0  0  0  0  0  0  0  0  0  0
    2.0340   -1.1235    0.2146 N   0  0  0  0  0  0  0  0  0  0  0  0
    3.8077    0.2322    0.0506 N   0  0  0  0  0  0  0  0  0  0  0  0
    4.2117   -2.0290    0.5850 N   0  0  0  0  0  0  0  0  0  0  0  0
    0.3389    0.5325   -0.2849 C   0  0  0  0  0  0  0  0  0  0  0  0
    0.0396    1.9638   -0.6435 C   0  0  0  0  0  0  0  0  0  0  0  0
   -0.7958   -0.3431   -0.1789 C   0  0  0  0  0  0  0  0  0  0  0  0
   -0.7320    2.6547    0.4668 C   0  0  0  0  0  0  0  0  0  0  0  0
   -2.1299    0.0018    0.0368 C   0  0  0  0  0  0  0  0  0  0  0  0
    1.6121    0.1401   -0.0992 C   0  0  0  0  0  0  0  0  0  0  0  0
   -2.8516    1.2522    0.2268 C   0  0  0  0  0  0  0  0  0  0  0  0
   -0.7352   -1.7675   -0.2897 C   0  0  0  0  0  0  0  0  0  0  0  0
   -2.0072   -2.2586   -0.1478 C   0  0  0  0  0  0  0  0  0  0  0  0
    2.7562    1.0638   -0.2160 C   0  0  0  0  0  0  0  0  0  0  0  0
    3.3325   -1.0274    0.2940 C   0  0  0  0  0  0  0  0  0  0  0  0
    0.8477    2.6111   -0.9523 H   0  0  0  0  0  0  0  0  0  0  0  0
   -0.5769    1.9488   -1.5568 H   0  0  0  0  0  0  0  0  0  0  0  0
   -0.4044    2.3412    1.4645 H   0  0  0  0  0  0  0  0  0  0  0  0
   -0.5841    3.7383    0.3970 H   0  0  0  0  0  0  0  0  0  0  0  0
   -2.7394    3.2655    0.5045 H   0  0  0  0  0  0  0  0  0  0  0  0
    0.1241   -2.3924   -0.4868 H   0  0  0  0  0  0  0  0  0  0  0  0
   -3.8336   -1.2604    0.1737 H   0  0  0  0  0  0  0  0  0  0  0  0
    4.7833    0.5053    0.0655 H   0  0  0  0  0  0  0  0  0  0  0  0
    3.8918   -2.9734    0.7703 H   0  0  0  0  0  0  0  0  0  0  0  0
    5.2107   -1.8591    0.6247 H   0  0  0  0  0  0  0  0  0  0  0  0
  1 17  1  0  0  0  0
  2 15  2  0  0  0  0
  3 18  2  0  0  0  0
  4 12  1  0  0  0  0
  4 15  1  0  0  0  0
  4 24  1  0  0  0  0
  5 13  1  0  0  0  0
  5 17  1  0  0  0  0
  5 26  1  0  0  0  0
  6 14  1  0  0  0  0
  6 19  2  0  0  0  0
  7 18  1  0  0  0  0
  7 19  1  0  0  0  0
  7 27  1  0  0  0  0
  8 19  1  0  0  0  0
  8 28  1  0  0  0  0
  8 29  1  0  0  0  0
  9 10  1  0  0  0  0
  9 11  1  0  0  0  0
  9 14  2  0  0  0  0
 10 12  1  0  0  0  0
 10 20  1  0  0  0  0
 10 21  1  0  0  0  0
 11 13  2  0  0  0  0
 11 16  1  0  0  0  0
 12 22  1  0  0  0  0
 12 23  1  0  0  0  0
 13 15  1  0  0  0  0
 14 18  1  0  0  0  0
 16 17  2  0  0  0  0
 16 25  1  0  0  0  0
M  END
> <PUBCHEM_COMPOUND_CID>
135413546

> <PUBCHEM_CONFORMER_RMSD>
0.6

> <PUBCHEM_CONFORMER_DIVERSEORDER>
2
1

> <PUBCHEM_MMFF94_PARTIAL_CHARGES>
25
1 -0.06
10 0.14
11 -0.05
12 0.3
13 -0.24
14 0.19
15 0.71
16 -0.15
17 -0.09
18 0.62
19 0.56
2 -0.57
24 0.37
25 0.15
26 0.27
27 0.37
28 0.4
29 0.4
3 -0.57
4 -0.73
5 0.03
6 -0.62
7 -0.49
8 -0.85
9 -0.09

> <PUBCHEM_EFFECTIVE_ROTOR_COUNT>
0.8

> <PUBCHEM_PHARMACOPHORE_FEATURES>
11
1 1 hydrophobe
1 2 acceptor
1 3 acceptor
1 4 donor
1 5 cation
1 5 donor
1 7 donor
1 8 donor
5 5 11 13 16 17 rings
5 6 7 14 18 19 rings
7 4 9 10 11 12 13 15 rings

> <PUBCHEM_HEAVY_ATOM_COUNT>
19

> <PUBCHEM_ATOM_DEF_STEREO_COUNT>
0

> <PUBCHEM_ATOM_UDEF_STEREO_COUNT>
0

> <PUBCHEM_BOND_DEF_STEREO_COUNT>
1

> <PUBCHEM_BOND_UDEF_STEREO_COUNT>
0

> <PUBCHEM_ISOTOPIC_ATOM_COUNT>
0

> <PUBCHEM_COMPONENT_COUNT>
1

> <PUBCHEM_CACTVS_TAUTO_COUNT>
-1

> <PUBCHEM_CONFORMER_ID>
08123F2A00000002

> <PUBCHEM_MMFF94_ENERGY>
48.4316

> <PUBCHEM_FEATURE_SELFOVERLAP>
55.894

> <PUBCHEM_SHAPE_FINGERPRINT>
10616163 171 18340209695198238910
10967382 1 18266742385181535837
1100329 8 18411135818772182297
11578080 2 17416117519887637593
12251169 10 18337953389958273368
12553582 1 17908421707609048254
13140716 1 18411133653976965218
13538477 17 18409168818134490644
138480 1 16754096732696989863
14178342 30 18266164218517824160
14965852 173 18411415103342016962
15042514 8 18410857655294826235
15099037 8 18336260262089296426
15196674 1 18410012117841291137
15309172 13 18194969530464515585
15442244 35 18409446964643311602
16945 1 18268720423779819612
17492 89 18337672018119638194
17804303 29 18341334375449939630
1813 80 16953108505319261774
19591789 44 17690283707474566526
20028762 73 18201152158074282847
20510252 161 18057041307134810441
21267235 1 18337401525004408046
21478907 32 18267018552317874487
21501502 16 18409730702972861300
21524375 3 18057882446841637303
23184049 29 18267306623783693991
2334 1 18338799047248509870
23402539 116 18200300032030106773
23463225 33 18408887321635392732
23557571 272 18130233751912127814
23559900 14 18343297064156990800
23728640 28 18339638941189105083
257057 1 18124307466006551303
2748010 2 18340769346310367061
3084891 72 18269270162856859003
3091708 16 8912893614678631547
335352 9 18265895761265071980
352729 6 18341900662471858087
43471831 8 17905892474767460467
5104073 3 18411134749499308674
54173680 148 18411419535510954575
58807428 26 17981616961548237289
69090 78 18339075995577720697
6992083 37 18262245425579250077
7097593 13 18262791861942620090
7364860 26 17404019717769264191
74978 22 18409730651412076820
9709674 26 18343304755916319742

> <PUBCHEM_SHAPE_MULTIPOLES>
360.31
6.48
3.92
0.69
3.29
1.58
0.02
2.6
-0.58
-3
-0.16
0.05
-0.03
-0.94

> <PUBCHEM_SHAPE_SELFOVERLAP>
785.804

> <PUBCHEM_SHAPE_VOLUME>
198.3

> <PUBCHEM_COORDINATE_TYPE>
2
5
10

$$$$
