135435111
  -OEChem-03292013293D

 37 39  0     1  0  0  0  0  0999 V2000
   -2.2363    0.0837   -1.0695 O   0  0  0  0  0  0  0  0  0  0  0  0
   -1.2808   -2.3711    1.3636 O   0  0  0  0  0  0  0  0  0  0  0  0
   -3.5063   -2.4920   -0.2082 O   0  0  0  0  0  0  0  0  0  0  0  0
   -4.0181    2.2069   -0.6395 O   0  0  0  0  0  0  0  0  0  0  0  0
   -1.0647    2.3038    0.1007 O   0  0  0  0  0  0  0  0  0  0  0  0
    4.2713    1.5093    0.3009 O   0  0  0  0  0  0  0  0  0  0  0  0
   -0.0726    0.1534   -0.1875 N   0  0  0  0  0  0  0  0  0  0  0  0
    1.2874    1.9124    0.1822 N   0  0  0  0  0  0  0  0  0  0  0  0
    1.6367   -1.5786   -0.3633 N   0  0  0  0  0  0  0  0  0  0  0  0
    3.8404   -0.7396   -0.0913 N   0  0  0  0  0  0  0  0  0  0  0  0
    3.4829   -3.0230   -0.4844 N   0  0  0  0  0  0  0  0  0  0  0  0
   -1.2232   -0.6791   -0.3940 C   0  0  1  0  0  0  0  0  0  0  0  0
   -1.8378   -1.1539    0.9115 C   0  0  1  0  0  0  0  0  0  0  0  0
   -3.2985   -1.2936    0.5386 C   0  0  1  0  0  0  0  0  0  0  0  0
   -3.5019   -0.1135   -0.4018 C   0  0  1  0  0  0  0  0  0  0  0  0
   -3.8630    1.1772    0.3212 C   0  0  0  0  0  0  0  0  0  0  0  0
    1.2363   -0.2868   -0.1782 C   0  0  0  0  0  0  0  0  0  0  0  0
   -0.0926    1.5656    0.0407 C   0  0  0  0  0  0  0  0  0  0  0  0
    2.0316    0.7684    0.0423 C   0  0  0  0  0  0  0  0  0  0  0  0
    3.4850    0.5927    0.1034 C   0  0  0  0  0  0  0  0  0  0  0  0
    1.7943    3.2378    0.4291 C   0  0  0  0  0  0  0  0  0  0  0  0
    2.9298   -1.7804   -0.3165 C   0  0  0  0  0  0  0  0  0  0  0  0
   -0.9495   -1.5167   -1.0467 H   0  0  0  0  0  0  0  0  0  0  0  0
   -1.7174   -0.4017    1.7007 H   0  0  0  0  0  0  0  0  0  0  0  0
   -3.9691   -1.3131    1.4024 H   0  0  0  0  0  0  0  0  0  0  0  0
   -4.2405   -0.3218   -1.1842 H   0  0  0  0  0  0  0  0  0  0  0  0
   -3.1062    1.4809    1.0473 H   0  0  0  0  0  0  0  0  0  0  0  0
   -4.8147    1.0578    0.8496 H   0  0  0  0  0  0  0  0  0  0  0  0
   -1.7977   -2.6601    2.1348 H   0  0  0  0  0  0  0  0  0  0  0  0
   -4.4459   -2.5200   -0.4573 H   0  0  0  0  0  0  0  0  0  0  0  0
    2.4545    3.5307   -0.3921 H   0  0  0  0  0  0  0  0  0  0  0  0
    2.3454    3.2436    1.3737 H   0  0  0  0  0  0  0  0  0  0  0  0
    0.9674    3.9502    0.4939 H   0  0  0  0  0  0  0  0  0  0  0  0
   -4.2624    3.0149   -0.1568 H   0  0  0  0  0  0  0  0  0  0  0  0
    4.8291   -0.9719   -0.0681 H   0  0  0  0  0  0  0  0  0  0  0  0
    2.9027   -3.8376   -0.6524 H   0  0  0  0  0  0  0  0  0  0  0  0
    4.4863   -3.1650   -0.4457 H   0  0  0  0  0  0  0  0  0  0  0  0
  1 12  1  0  0  0  0
  1 15  1  0  0  0  0
  2 13  1  0  0  0  0
  2 29  1  0  0  0  0
  3 14  1  0  0  0  0
  3 30  1  0  0  0  0
  4 16  1  0  0  0  0
  4 34  1  0  0  0  0
  5 18  2  0  0  0  0
  6 20  2  0  0  0  0
  7 12  1  0  0  0  0
  7 17  1  0  0  0  0
  7 18  1  0  0  0  0
  8 18  1  0  0  0  0
  8 19  1  0  0  0  0
  8 21  1  0  0  0  0
  9 17  1  0  0  0  0
  9 22  2  0  0  0  0
 10 20  1  0  0  0  0
 10 22  1  0  0  0  0
 10 35  1  0  0  0  0
 11 22  1  0  0  0  0
 11 36  1  0  0  0  0
 11 37  1  0  0  0  0
 12 13  1  0  0  0  0
 12 23  1  0  0  0  0
 13 14  1  0  0  0  0
 13 24  1  0  0  0  0
 14 15  1  0  0  0  0
 14 25  1  0  0  0  0
 15 16  1  0  0  0  0
 15 26  1  0  0  0  0
 16 27  1  0  0  0  0
 16 28  1  0  0  0  0
 17 19  2  0  0  0  0
 19 20  1  0  0  0  0
 21 31  1  0  0  0  0
 21 32  1  0  0  0  0
 21 33  1  0  0  0  0
M  END
> <PUBCHEM_COMPOUND_CID>
135435111

> <PUBCHEM_CONFORMER_RMSD>
0.6

> <PUBCHEM_CONFORMER_DIVERSEORDER>
1
15
9
12
16
4
3
17
8
6
2
14
11
13
5
7
10

> <PUBCHEM_MMFF94_PARTIAL_CHARGES>
28
1 -0.56
10 -0.49
11 -0.85
12 0.58
13 0.28
14 0.28
15 0.28
16 0.28
17 0.28
18 0.69
19 0.12
2 -0.68
20 0.62
21 0.3
22 0.56
29 0.4
3 -0.68
30 0.4
34 0.4
35 0.37
36 0.4
37 0.4
4 -0.68
5 -0.57
6 -0.57
7 -0.47
8 -0.47
9 -0.62

> <PUBCHEM_EFFECTIVE_ROTOR_COUNT>
3

> <PUBCHEM_PHARMACOPHORE_FEATURES>
14
1 1 acceptor
1 10 donor
1 11 donor
1 2 acceptor
1 2 donor
1 3 acceptor
1 3 donor
1 4 acceptor
1 4 donor
1 5 acceptor
1 6 acceptor
5 1 12 13 14 15 rings
5 7 8 17 18 19 rings
6 9 10 17 19 20 22 rings

> <PUBCHEM_HEAVY_ATOM_COUNT>
22

> <PUBCHEM_ATOM_DEF_STEREO_COUNT>
4

> <PUBCHEM_ATOM_UDEF_STEREO_COUNT>
0

> <PUBCHEM_BOND_DEF_STEREO_COUNT>
0

> <PUBCHEM_BOND_UDEF_STEREO_COUNT>
0

> <PUBCHEM_ISOTOPIC_ATOM_COUNT>
0

> <PUBCHEM_COMPONENT_COUNT>
1

> <PUBCHEM_CACTVS_TAUTO_COUNT>
-1

> <PUBCHEM_CONFORMER_ID>
0812936700000001

> <PUBCHEM_MMFF94_ENERGY>
70.9009

> <PUBCHEM_FEATURE_SELFOVERLAP>
71.227

> <PUBCHEM_SHAPE_FINGERPRINT>
10366900 7 18118691155958253491
10608611 8 18337388348297828069
10616163 171 18339082716932520214
10967382 1 18412262826791182068
1100329 8 16606598338552033803
11680986 33 18412545379567495576
116883 192 18054513504480259404
12553582 1 18124332518635555114
12788726 201 17976826385275724666
13140716 1 18197779891202079784
13296908 3 18411420609121033302
14115302 16 18041294165936128007
14223421 5 18265619977357398563
14790565 3 17978517433885775145
14866123 147 17188697442175102578
15042514 8 17187003095337234078
15196674 1 18411136922225245324
15219456 202 18409730676928796334
15375358 24 18409444808464188586
15442244 35 18341898428856788025
16945 1 18341331201448145276
17492 89 18341331184142526671
18186145 218 17968373442517460095
19049666 15 18335704974557614619
19591789 44 17762345012912305756
21279426 13 18121497943293889085
21421861 104 17969496001229728426
221490 88 18410862053362007550
2334 1 18340487764434311948
23559900 14 18339638924430975322
2748010 2 17905889528393554060
335352 9 18194965141012928271
34934 24 18412538799777603988
5104073 3 18411698777009538282
7364860 26 18340769368059756784
81228 2 17838633162357873496
8809292 202 18334860502113771443
9709674 26 18337113457253034515

> <PUBCHEM_SHAPE_MULTIPOLES>
392.63
7.65
3.26
0.82
0.47
0.31
-0.08
-0.76
0.34
-0.96
-0.23
0.38
-0.19
0.99

> <PUBCHEM_SHAPE_SELFOVERLAP>
852.255

> <PUBCHEM_SHAPE_VOLUME>
211.8

> <PUBCHEM_COORDINATE_TYPE>
2
5
10

$$$$
