135463489
  -OEChem-03292013293D

 36 38  0     1  0  0  0  0  0999 V2000
    1.6692    0.4799    1.0718 O   0  0  0  0  0  0  0  0  0  0  0  0
    2.4737   -2.0582   -1.3552 O   0  0  0  0  0  0  0  0  0  0  0  0
    4.3139   -0.6841    0.1609 O   0  0  0  0  0  0  0  0  0  0  0  0
    1.7072    3.2470    0.6329 O   0  0  0  0  0  0  0  0  0  0  0  0
   -4.5470   -0.6506   -0.2297 O   0  0  0  0  0  0  0  0  0  0  0  0
   -0.0785   -1.0444    0.3106 N   0  0  0  0  0  0  0  0  0  0  0  0
   -2.0193   -2.1504    0.1995 N   0  0  0  0  0  0  0  0  0  0  0  0
   -0.8458    1.2306    0.0031 N   0  0  0  0  0  0  0  0  0  0  0  0
   -3.2258    1.2747   -0.2690 N   0  0  0  0  0  0  0  0  0  0  0  0
   -1.9729    3.2667   -0.3218 N   0  0  0  0  0  0  0  0  0  0  0  0
    1.4044   -0.7968    0.4544 C   0  0  1  0  0  0  0  0  0  0  0  0
    2.1361   -0.7691   -0.8835 C   0  0  1  0  0  0  0  0  0  0  0  0
    3.3492    0.0803   -0.5609 C   0  0  1  0  0  0  0  0  0  0  0  0
    2.7689    1.1213    0.3880 C   0  0  1  0  0  0  0  0  0  0  0  0
    2.2310    2.3507   -0.3312 C   0  0  0  0  0  0  0  0  0  0  0  0
   -1.0436   -0.1019    0.1103 C   0  0  0  0  0  0  0  0  0  0  0  0
   -0.7147   -2.2610    0.3571 C   0  0  0  0  0  0  0  0  0  0  0  0
   -2.2192   -0.8103    0.0468 C   0  0  0  0  0  0  0  0  0  0  0  0
    0.0269   -3.5228    0.5640 C   0  0  0  0  0  0  0  0  0  0  0  0
   -3.4533   -0.1044   -0.1606 C   0  0  0  0  0  0  0  0  0  0  0  0
   -1.9604    1.9027   -0.1875 C   0  0  0  0  0  0  0  0  0  0  0  0
    1.7783   -1.5775    1.1253 H   0  0  0  0  0  0  0  0  0  0  0  0
    1.5225   -0.2743   -1.6462 H   0  0  0  0  0  0  0  0  0  0  0  0
    3.8407    0.4906   -1.4477 H   0  0  0  0  0  0  0  0  0  0  0  0
    3.4825    1.4271    1.1616 H   0  0  0  0  0  0  0  0  0  0  0  0
    1.4327    2.0999   -1.0346 H   0  0  0  0  0  0  0  0  0  0  0  0
    3.0335    2.8580   -0.8762 H   0  0  0  0  0  0  0  0  0  0  0  0
    3.0267   -1.9433   -2.1466 H   0  0  0  0  0  0  0  0  0  0  0  0
    5.0536   -0.0904    0.3756 H   0  0  0  0  0  0  0  0  0  0  0  0
    0.7422   -3.7013   -0.2426 H   0  0  0  0  0  0  0  0  0  0  0  0
    0.5587   -3.5178    1.5201 H   0  0  0  0  0  0  0  0  0  0  0  0
   -0.6668   -4.3700    0.5799 H   0  0  0  0  0  0  0  0  0  0  0  0
    1.3769    4.0248    0.1517 H   0  0  0  0  0  0  0  0  0  0  0  0
   -4.0351    1.8706   -0.4178 H   0  0  0  0  0  0  0  0  0  0  0  0
   -1.1150    3.8059   -0.2784 H   0  0  0  0  0  0  0  0  0  0  0  0
   -2.8373    3.7760   -0.4688 H   0  0  0  0  0  0  0  0  0  0  0  0
  1 11  1  0  0  0  0
  1 14  1  0  0  0  0
  2 12  1  0  0  0  0
  2 28  1  0  0  0  0
  3 13  1  0  0  0  0
  3 29  1  0  0  0  0
  4 15  1  0  0  0  0
  4 33  1  0  0  0  0
  5 20  2  0  0  0  0
  6 11  1  0  0  0  0
  6 16  1  0  0  0  0
  6 17  1  0  0  0  0
  7 17  2  0  0  0  0
  7 18  1  0  0  0  0
  8 16  1  0  0  0  0
  8 21  2  0  0  0  0
  9 20  1  0  0  0  0
  9 21  1  0  0  0  0
  9 34  1  0  0  0  0
 10 21  1  0  0  0  0
 10 35  1  0  0  0  0
 10 36  1  0  0  0  0
 11 12  1  0  0  0  0
 11 22  1  0  0  0  0
 12 13  1  0  0  0  0
 12 23  1  0  0  0  0
 13 14  1  0  0  0  0
 13 24  1  0  0  0  0
 14 15  1  0  0  0  0
 14 25  1  0  0  0  0
 15 26  1  0  0  0  0
 15 27  1  0  0  0  0
 16 18  2  0  0  0  0
 17 19  1  0  0  0  0
 18 20  1  0  0  0  0
 19 30  1  0  0  0  0
 19 31  1  0  0  0  0
 19 32  1  0  0  0  0
M  END
> <PUBCHEM_COMPOUND_CID>
135463489

> <PUBCHEM_CONFORMER_RMSD>
0.6

> <PUBCHEM_CONFORMER_DIVERSEORDER>
1
11
5
13
8
7
6
3
12
10
2
9
4

> <PUBCHEM_MMFF94_PARTIAL_CHARGES>
27
1 -0.56
10 -0.85
11 0.54
12 0.28
13 0.28
14 0.28
15 0.28
16 -0.03
17 0.01
18 0.14
19 0.18
2 -0.68
20 0.72
21 0.56
28 0.4
29 0.4
3 -0.68
33 0.4
34 0.37
35 0.4
36 0.4
4 -0.68
5 -0.57
6 0.05
7 -0.57
8 -0.58
9 -0.49

> <PUBCHEM_EFFECTIVE_ROTOR_COUNT>
3

> <PUBCHEM_PHARMACOPHORE_FEATURES>
14
1 1 acceptor
1 10 donor
1 2 acceptor
1 2 donor
1 3 acceptor
1 3 donor
1 4 acceptor
1 4 donor
1 5 acceptor
1 9 donor
3 6 7 17 cation
5 1 11 12 13 14 rings
5 6 7 16 17 18 rings
6 8 9 16 18 20 21 rings

> <PUBCHEM_HEAVY_ATOM_COUNT>
21

> <PUBCHEM_ATOM_DEF_STEREO_COUNT>
4

> <PUBCHEM_ATOM_UDEF_STEREO_COUNT>
0

> <PUBCHEM_BOND_DEF_STEREO_COUNT>
0

> <PUBCHEM_BOND_UDEF_STEREO_COUNT>
0

> <PUBCHEM_ISOTOPIC_ATOM_COUNT>
0

> <PUBCHEM_COMPONENT_COUNT>
1

> <PUBCHEM_CACTVS_TAUTO_COUNT>
-1

> <PUBCHEM_CONFORMER_ID>
0813024100000001

> <PUBCHEM_MMFF94_ENERGY>
50.4028

> <PUBCHEM_FEATURE_SELFOVERLAP>
71.242

> <PUBCHEM_SHAPE_FINGERPRINT>
10498660 4 18334572396172085005
10608611 8 18267585882636063256
10616163 171 17905330980607544396
10967382 1 18265613363076308985
12403259 226 18409445869062602335
12403260 363 18409439280572272702
13140716 1 18336271257532420811
14790565 3 18410019858000443809
16945 1 18337104575666562523
17802600 8 18409726261771065772
18186145 218 18271531879460016771
19591789 44 18265899059858295563
20510252 161 18412826876256458793
20905425 154 17836365947616620734
21524375 3 18187082823668622835
22802520 49 18341059617475155818
2334 1 17977385263130449267
23402539 116 18411688898732742294
23557571 272 18050298264577954286
23559900 14 18341328993966668042
238 59 18123156105417592629
2748010 2 17908146834191542114
350125 39 18047473318653458483
5262128 65 17916882204823668950
7364860 26 18270680990857701728
7832392 63 17979918207293045181
81228 2 18050562151579594923
9709674 26 18341618139270205638
9925002 15 15464093216385941238

> <PUBCHEM_SHAPE_MULTIPOLES>
377.92
6.22
3.62
0.83
0.71
0.5
0.07
0.8
0.83
0.18
-0.28
-0.45
-0.15
0.67

> <PUBCHEM_SHAPE_SELFOVERLAP>
819.317

> <PUBCHEM_SHAPE_VOLUME>
205.2

> <PUBCHEM_COORDINATE_TYPE>
2
5
10

$$$$
