135492073
  -OEChem-03292013293D

 36 38  0     1  0  0  0  0  0999 V2000
    3.5281   -1.7905   -0.3193 P   0  0  0  0  0  0  0  0  0  0  0  0
    0.6641    1.4338    1.0285 O   0  0  0  0  0  0  0  0  0  0  0  0
    3.0146   -0.2223   -0.4209 O   0  0  0  0  0  0  0  0  0  0  0  0
    0.2867    1.5175   -1.9762 O   0  0  0  0  0  0  0  0  0  0  0  0
    2.2875    3.5999    1.7848 O   0  0  0  0  0  0  0  0  0  0  0  0
    5.0269   -1.6627   -0.0639 O   0  5  0  0  0  0  0  0  0  0  0  0
    3.1798   -2.3995   -1.6744 O   0  5  0  0  0  0  0  0  0  0  0  0
    2.7474   -2.3771    0.8533 O   0  0  0  0  0  0  0  0  0  0  0  0
   -4.7306   -1.9946    0.1116 O   0  0  0  0  0  0  0  0  0  0  0  0
   -0.4309   -0.7008    0.6144 N   0  0  0  0  0  0  0  0  0  0  0  0
   -1.8667   -2.4070    0.7841 N   0  0  0  0  0  0  0  0  0  0  0  0
   -1.9150    1.0549   -0.1430 N   0  0  0  0  0  0  0  0  0  0  0  0
   -4.1492    0.2173   -0.3606 N   0  0  0  0  0  0  0  0  0  0  0  0
   -3.6534    2.4645   -0.8583 N   0  0  0  0  0  0  0  0  0  0  0  0
    1.6336    0.0342   -0.6595 C   0  0  1  0  0  0  0  0  0  0  0  0
    0.8792    0.0551    0.6724 C   0  0  1  0  0  0  0  0  0  0  0  0
    1.4771    1.4416   -1.1953 C   0  0  2  0  0  0  0  0  0  0  0  0
    1.2815    2.2895    0.0531 C   0  0  2  0  0  0  0  0  0  0  0  0
    2.5843    2.8190    0.6386 C   0  0  0  0  0  0  0  0  0  0  0  0
   -1.6492   -0.2119    0.2450 C   0  0  0  0  0  0  0  0  0  0  0  0
   -0.6130   -2.0252    0.9297 C   0  0  0  0  0  0  0  0  0  0  0  0
   -2.5060   -1.2798    0.3595 C   0  0  0  0  0  0  0  0  0  0  0  0
   -3.8953   -1.1022    0.0392 C   0  0  0  0  0  0  0  0  0  0  0  0
   -3.1814    1.2463   -0.4429 C   0  0  0  0  0  0  0  0  0  0  0  0
    1.2430   -0.7194   -1.3514 H   0  0  0  0  0  0  0  0  0  0  0  0
    1.4288   -0.4016    1.5006 H   0  0  0  0  0  0  0  0  0  0  0  0
    2.3130    1.7866   -1.8117 H   0  0  0  0  0  0  0  0  0  0  0  0
    0.5905    3.1229   -0.1182 H   0  0  0  0  0  0  0  0  0  0  0  0
    3.1105    3.4479   -0.0860 H   0  0  0  0  0  0  0  0  0  0  0  0
    3.2441    2.0077    0.9598 H   0  0  0  0  0  0  0  0  0  0  0  0
    0.4094    0.9418   -2.7502 H   0  0  0  0  0  0  0  0  0  0  0  0
    0.1945   -2.6593    1.2648 H   0  0  0  0  0  0  0  0  0  0  0  0
    3.1330    3.9300    2.1335 H   0  0  0  0  0  0  0  0  0  0  0  0
   -5.1051    0.4530   -0.6111 H   0  0  0  0  0  0  0  0  0  0  0  0
   -4.6316    2.6027   -1.0873 H   0  0  0  0  0  0  0  0  0  0  0  0
   -3.0355    3.2636   -0.9486 H   0  0  0  0  0  0  0  0  0  0  0  0
  1  3  1  0  0  0  0
  1  6  1  0  0  0  0
  1  7  1  0  0  0  0
  1  8  2  0  0  0  0
  2 16  1  0  0  0  0
  2 18  1  0  0  0  0
  3 15  1  0  0  0  0
  4 17  1  0  0  0  0
  4 31  1  0  0  0  0
  5 19  1  0  0  0  0
  5 33  1  0  0  0  0
  9 23  2  0  0  0  0
 10 16  1  0  0  0  0
 10 20  1  0  0  0  0
 10 21  1  0  0  0  0
 11 21  2  0  0  0  0
 11 22  1  0  0  0  0
 12 20  1  0  0  0  0
 12 24  2  0  0  0  0
 13 23  1  0  0  0  0
 13 24  1  0  0  0  0
 13 34  1  0  0  0  0
 14 24  1  0  0  0  0
 14 35  1  0  0  0  0
 14 36  1  0  0  0  0
 15 16  1  0  0  0  0
 15 17  1  0  0  0  0
 15 25  1  0  0  0  0
 16 26  1  0  0  0  0
 17 18  1  0  0  0  0
 17 27  1  0  0  0  0
 18 19  1  0  0  0  0
 18 28  1  0  0  0  0
 19 29  1  0  0  0  0
 19 30  1  0  0  0  0
 20 22  2  0  0  0  0
 21 32  1  0  0  0  0
 22 23  1  0  0  0  0
M  CHG  2   6  -1   7  -1
M  END
> <PUBCHEM_COMPOUND_CID>
135492073

> <PUBCHEM_CONFORMER_RMSD>
0.8

> <PUBCHEM_CONFORMER_DIVERSEORDER>
1
58
37
109
5
45
116
25
47
31
16
3
39
105
114
96
73
44
64
69
41
68
80
65
51
106
35
12
112
79
55
57
74
115
26
84
40
100
70
19
61
33
111
71
88
17
89
23
92
103
75
94
24
21
28
113
95
118
9
101
66
85
43
110
50
87
54
108
13
72
60
30
107
22
86
90
36
67
97
27
18
117
63
102
48
42
20
8
7
49
62
11
78
46
29
59
32
53
34
82
4
91
76
83
56
98
52
93
104
38
15
6
10
2
14
99
81
77

> <PUBCHEM_MMFF94_PARTIAL_CHARGES>
30
1 1.37
10 0.05
11 -0.57
12 -0.58
13 -0.49
14 -0.85
15 0.28
16 0.54
17 0.28
18 0.28
19 0.28
2 -0.56
20 -0.03
21 0.04
22 0.14
23 0.72
24 0.56
3 -0.55
31 0.4
32 0.15
33 0.4
34 0.37
35 0.4
36 0.4
4 -0.68
5 -0.68
6 -1.03
7 -1.03
8 -1.03
9 -0.57

> <PUBCHEM_EFFECTIVE_ROTOR_COUNT>
5

> <PUBCHEM_PHARMACOPHORE_FEATURES>
16
1 13 donor
1 14 donor
1 2 acceptor
1 4 acceptor
1 4 donor
1 5 acceptor
1 5 donor
1 6 acceptor
1 7 acceptor
1 8 acceptor
1 9 acceptor
3 10 11 21 cation
4 1 6 7 8 anion
5 10 11 20 21 22 rings
5 2 15 16 17 18 rings
6 12 13 20 22 23 24 rings

> <PUBCHEM_HEAVY_ATOM_COUNT>
24

> <PUBCHEM_ATOM_DEF_STEREO_COUNT>
0

> <PUBCHEM_ATOM_UDEF_STEREO_COUNT>
4

> <PUBCHEM_BOND_DEF_STEREO_COUNT>
0

> <PUBCHEM_BOND_UDEF_STEREO_COUNT>
0

> <PUBCHEM_ISOTOPIC_ATOM_COUNT>
0

> <PUBCHEM_COMPONENT_COUNT>
1

> <PUBCHEM_CACTVS_TAUTO_COUNT>
-1

> <PUBCHEM_CONFORMER_ID>
081371E900000001

> <PUBCHEM_MMFF94_ENERGY>
61.2973

> <PUBCHEM_FEATURE_SELFOVERLAP>
81.426

> <PUBCHEM_SHAPE_FINGERPRINT>
1100329 8 16608286084389333784
12403259 226 18409447016314774949
12553582 1 18126593157581242514
12788726 201 17979640027046542786
13134695 92 17203033115317398480
13140716 1 18408603630920015153
14790565 3 17400925193843643305
14866123 147 16973372366420447706
14955137 171 18051720766368096635
15295992 7 18338812160374671169
15536298 74 18336263543660146627
16945 1 17972608963329410417
17804303 29 18335704914385880855
17980427 23 17131558249778745248
1813 80 15191120376562639244
18186145 218 18041272240803347375
19049666 15 18410013281592831673
20600515 1 18123197805455802332
20645477 70 18271250541780211711
20691752 17 16950561077703835317
22182313 1 18041826411806595085
22802520 49 18264218070004233867
23175994 123 18201163139471721260
23402539 116 18263359196825613478
23419403 2 18264181704859251092
23557571 272 18053381003731253462
23559900 14 18336826510487904388
2748010 2 18187642539859420517
3286 77 18410856572672430445
350125 39 18334299726162920705
5104073 3 18339085990446628363
5283173 99 18262238799114521660
59755656 215 18263924521879741672
7364860 26 18341333413324543962
81228 2 17838353886678712072
9709674 26 18336548342831157963

> <PUBCHEM_SHAPE_MULTIPOLES>
425.9
7.79
3.62
1.24
2.69
1.31
0.18
-3.26
0.94
-2.23
-0.74
-0.75
0.45
1.74

> <PUBCHEM_SHAPE_SELFOVERLAP>
905.792

> <PUBCHEM_SHAPE_VOLUME>
239.6

> <PUBCHEM_COORDINATE_TYPE>
2
5
10

$$$$
