135409539
  -OEChem-03292013293D

 35 36  0     0  0  0  0  0  0999 V2000
   -2.0109    2.0565   -0.4824 O   0  0  0  0  0  0  0  0  0  0  0  0
   -2.4471   -3.2821   -0.8057 O   0  0  0  0  0  0  0  0  0  0  0  0
    2.1117    1.9769    0.6979 O   0  0  0  0  0  0  0  0  0  0  0  0
   -5.0997    0.2367    0.1881 N   0  0  0  0  0  0  0  0  0  0  0  0
   -0.0291    0.3613    0.1591 N   0  0  0  0  0  0  0  0  0  0  0  0
    1.2496   -0.0532   -0.0051 N   0  0  0  0  0  0  0  0  0  0  0  0
    6.2431   -0.6812   -0.2353 N   0  0  0  0  0  0  0  0  0  0  0  0
   -2.3591   -0.2694   -0.0284 C   0  0  0  0  0  0  0  0  0  0  0  0
   -3.2403   -1.3070    0.2555 C   0  0  0  0  0  0  0  0  0  0  0  0
   -2.8466    1.0209   -0.2041 C   0  0  0  0  0  0  0  0  0  0  0  0
   -4.2129    1.2196   -0.0864 C   0  0  0  0  0  0  0  0  0  0  0  0
   -2.7777   -2.7092    0.4540 C   0  0  0  0  0  0  0  0  0  0  0  0
   -4.5889   -1.0041    0.3524 C   0  0  0  0  0  0  0  0  0  0  0  0
   -0.9139   -0.5325   -0.1433 C   0  0  0  0  0  0  0  0  0  0  0  0
   -4.7896    2.5858   -0.2657 C   0  0  0  0  0  0  0  0  0  0  0  0
    3.6504    0.3051    0.1098 C   0  0  0  0  0  0  0  0  0  0  0  0
    2.3014    0.8177    0.2868 C   0  0  0  0  0  0  0  0  0  0  0  0
    4.6960    1.1757   -0.1770 C   0  0  0  0  0  0  0  0  0  0  0  0
    3.8997   -1.0581    0.2243 C   0  0  0  0  0  0  0  0  0  0  0  0
    5.9623    0.6373   -0.3390 C   0  0  0  0  0  0  0  0  0  0  0  0
    5.2017   -1.4966    0.0444 C   0  0  0  0  0  0  0  0  0  0  0  0
   -1.9070   -2.7529    1.1174 H   0  0  0  0  0  0  0  0  0  0  0  0
   -3.5611   -3.3237    0.9119 H   0  0  0  0  0  0  0  0  0  0  0  0
   -5.3285   -1.7686    0.5699 H   0  0  0  0  0  0  0  0  0  0  0  0
   -0.6081   -1.5399   -0.4750 H   0  0  0  0  0  0  0  0  0  0  0  0
   -4.5722    2.9641   -1.2697 H   0  0  0  0  0  0  0  0  0  0  0  0
   -4.3764    3.2759    0.4769 H   0  0  0  0  0  0  0  0  0  0  0  0
   -5.8776    2.5727   -0.1414 H   0  0  0  0  0  0  0  0  0  0  0  0
   -1.1142    1.7373   -0.6685 H   0  0  0  0  0  0  0  0  0  0  0  0
    1.3919   -0.9884   -0.3727 H   0  0  0  0  0  0  0  0  0  0  0  0
   -2.1457   -4.1907   -0.6350 H   0  0  0  0  0  0  0  0  0  0  0  0
    4.5437    2.2449   -0.2790 H   0  0  0  0  0  0  0  0  0  0  0  0
    3.1332   -1.7839    0.4712 H   0  0  0  0  0  0  0  0  0  0  0  0
    6.8117    1.2735   -0.5649 H   0  0  0  0  0  0  0  0  0  0  0  0
    5.4503   -2.5494    0.1295 H   0  0  0  0  0  0  0  0  0  0  0  0
  1 10  1  0  0  0  0
  1 29  1  0  0  0  0
  2 12  1  0  0  0  0
  2 31  1  0  0  0  0
  3 17  2  0  0  0  0
  4 11  2  0  0  0  0
  4 13  1  0  0  0  0
  5  6  1  0  0  0  0
  5 14  2  0  0  0  0
  6 17  1  0  0  0  0
  6 30  1  0  0  0  0
  7 20  2  0  0  0  0
  7 21  1  0  0  0  0
  8  9  1  0  0  0  0
  8 10  2  0  0  0  0
  8 14  1  0  0  0  0
  9 12  1  0  0  0  0
  9 13  2  0  0  0  0
 10 11  1  0  0  0  0
 11 15  1  0  0  0  0
 12 22  1  0  0  0  0
 12 23  1  0  0  0  0
 13 24  1  0  0  0  0
 14 25  1  0  0  0  0
 15 26  1  0  0  0  0
 15 27  1  0  0  0  0
 15 28  1  0  0  0  0
 16 17  1  0  0  0  0
 16 18  2  0  0  0  0
 16 19  1  0  0  0  0
 18 20  1  0  0  0  0
 18 32  1  0  0  0  0
 19 21  2  0  0  0  0
 19 33  1  0  0  0  0
 20 34  1  0  0  0  0
 21 35  1  0  0  0  0
M  END
> <PUBCHEM_COMPOUND_CID>
135409539

> <PUBCHEM_CONFORMER_RMSD>
0.8

> <PUBCHEM_CONFORMER_DIVERSEORDER>
1
6
8
7
5
3
2
4

> <PUBCHEM_MMFF94_PARTIAL_CHARGES>
30
1 -0.53
10 0.08
11 0.17
12 0.42
13 0.16
14 0.3
15 0.14
16 0.09
17 0.54
18 -0.15
19 -0.15
2 -0.68
20 0.16
21 0.16
24 0.15
25 0.06
29 0.45
3 -0.57
30 0.37
31 0.4
32 0.15
33 0.15
34 0.15
35 0.15
4 -0.62
5 -0.51
6 -0.37
7 -0.62
8 0.09
9 -0.14

> <PUBCHEM_EFFECTIVE_ROTOR_COUNT>
5

> <PUBCHEM_PHARMACOPHORE_FEATURES>
10
1 1 donor
1 2 acceptor
1 2 donor
1 3 acceptor
1 4 acceptor
1 5 acceptor
1 6 donor
1 7 acceptor
6 4 8 9 10 11 13 rings
6 7 16 18 19 20 21 rings

> <PUBCHEM_HEAVY_ATOM_COUNT>
21

> <PUBCHEM_ATOM_DEF_STEREO_COUNT>
0

> <PUBCHEM_ATOM_UDEF_STEREO_COUNT>
0

> <PUBCHEM_BOND_DEF_STEREO_COUNT>
1

> <PUBCHEM_BOND_UDEF_STEREO_COUNT>
0

> <PUBCHEM_ISOTOPIC_ATOM_COUNT>
0

> <PUBCHEM_COMPONENT_COUNT>
1

> <PUBCHEM_CACTVS_TAUTO_COUNT>
-1

> <PUBCHEM_CONFORMER_ID>
08122F8300000001

> <PUBCHEM_MMFF94_ENERGY>
62.1084

> <PUBCHEM_FEATURE_SELFOVERLAP>
50.754

> <PUBCHEM_SHAPE_FINGERPRINT>
10411042 1 18048600619390247811
10595046 47 18261395611039771844
10835480 77 18342450457204806648
11315181 36 17967816075915995893
11405975 8 18343020033838409592
11524674 6 17346599677213852735
11796584 16 18341896273500779518
12107183 9 17685769125889542704
12236239 1 17748829605171673940
12616971 3 16660366995734408788
12788726 201 17773594914654632280
13167823 11 18334574668109525106
14341114 176 18410298025197871008
14420673 8 18337113358854155410
15042514 8 18263931115372479243
15183329 4 18337108973591630968
15196674 1 18409448081276883752
15250474 111 18262785346414487322
15788980 27 17703788128566977220
17492 89 18047474705669763643
17834072 33 18334579070719833924
17844677 252 18409738391017425848
1813 80 16732986414259710462
19489759 90 11527948949876100446
20645477 70 18340489972422301878
20681677 155 18259984859810757802
21065198 57 18340203089348497080
21267235 1 18334300898594034043
21279426 13 18267587901191831222
23402539 116 18342733005785639117
23536379 177 18333732395116082168
23559900 14 18340198691228250104
3004659 81 18334016052416376362
335352 9 18410292510976892933
3545911 37 18411139129849179904
4073 2 18040722510922923770
4214541 1 18409730659891332440
44062 13 18342458174754342830
5104073 3 18410571799445842440
542803 24 17458347437854136348
559249 180 18336542724934820082
5924683 9 18129375067891721911
59755656 215 18341054008648969566
59755656 520 18336820915004906303
6327066 14 17897999137201914197
633830 44 17385444349491869984
77779 3 18408604785954734184

> <PUBCHEM_SHAPE_MULTIPOLES>
394.64
14.86
2.65
0.68
14.31
0.96
0
-0.99
0.58
-3.27
0.23
-0.05
0.06
0.28

> <PUBCHEM_SHAPE_SELFOVERLAP>
844.302

> <PUBCHEM_SHAPE_VOLUME>
216.8

> <PUBCHEM_COORDINATE_TYPE>
2
5
10

$$$$
