135430323
  -OEChem-03292013293D

 44 48  0     0  0  0  0  0  0999 V2000
   -3.9408   -2.0701   -0.0006 O   0  0  0  0  0  0  0  0  0  0  0  0
    0.6265    3.6225    0.0005 O   0  0  0  0  0  0  0  0  0  0  0  0
    3.2732   -3.1420   -0.0009 O   0  0  0  0  0  0  0  0  0  0  0  0
   -1.8068    4.0369    0.0066 O   0  0  0  0  0  0  0  0  0  0  0  0
   -4.8046    0.4328   -0.0069 O   0  0  0  0  0  0  0  0  0  0  0  0
    3.0945    3.2021   -0.0047 O   0  0  0  0  0  0  0  0  0  0  0  0
   -1.5604   -2.5419    0.0009 C   0  0  0  0  0  0  0  0  0  0  0  0
   -0.1531   -1.9157    0.0005 C   0  0  0  0  0  0  0  0  0  0  0  0
    0.0260   -0.5159    0.0003 C   0  0  0  0  0  0  0  0  0  0  0  0
   -1.0818    0.3657    0.0002 C   0  0  0  0  0  0  0  0  0  0  0  0
    1.3484    0.0177    0.0001 C   0  0  0  0  0  0  0  0  0  0  0  0
   -2.6797   -1.4926   -0.0002 C   0  0  0  0  0  0  0  0  0  0  0  0
   -2.4627   -0.1620   -0.0008 C   0  0  0  0  0  0  0  0  0  0  0  0
   -0.8911    1.7633    0.0009 C   0  0  0  0  0  0  0  0  0  0  0  0
    2.4736   -0.8392    0.0003 C   0  0  0  0  0  0  0  0  0  0  0  0
    1.5105    1.4111   -0.0004 C   0  0  0  0  0  0  0  0  0  0  0  0
   -1.7231   -3.4188   -1.2628 C   0  0  0  0  0  0  0  0  0  0  0  0
   -1.7239   -3.4164    1.2667 C   0  0  0  0  0  0  0  0  0  0  0  0
    0.9803   -2.7468    0.0007 C   0  0  0  0  0  0  0  0  0  0  0  0
    0.4115    2.2724    0.0003 C   0  0  0  0  0  0  0  0  0  0  0  0
    2.2677   -2.2206    0.0006 C   0  0  0  0  0  0  0  0  0  0  0  0
   -3.6298    0.7830   -0.0029 C   0  0  0  0  0  0  0  0  0  0  0  0
    3.8427   -0.2664    0.0003 C   0  0  0  0  0  0  0  0  0  0  0  0
   -2.0495    2.6751    0.0024 C   0  0  0  0  0  0  0  0  0  0  0  0
    2.8685    1.9982   -0.0019 C   0  0  0  0  0  0  0  0  0  0  0  0
   -3.3096    2.2269    0.0008 C   0  0  0  0  0  0  0  0  0  0  0  0
    4.0132    1.0639   -0.0011 C   0  0  0  0  0  0  0  0  0  0  0  0
    5.0803   -1.1232    0.0009 C   0  0  0  0  0  0  0  0  0  0  0  0
   -2.7145   -3.8838    1.3147 H   0  0  0  0  0  0  0  0  0  0  0  0
   -1.5917   -2.8256   -2.1762 H   0  0  0  0  0  0  0  0  0  0  0  0
   -0.9941   -4.2359   -1.2971 H   0  0  0  0  0  0  0  0  0  0  0  0
   -0.9945   -4.2331    1.3030 H   0  0  0  0  0  0  0  0  0  0  0  0
   -1.5931   -2.8212    2.1789 H   0  0  0  0  0  0  0  0  0  0  0  0
   -2.7139   -3.8861   -1.3106 H   0  0  0  0  0  0  0  0  0  0  0  0
    0.8498   -3.8270    0.0009 H   0  0  0  0  0  0  0  0  0  0  0  0
   -4.1532    2.9101    0.0019 H   0  0  0  0  0  0  0  0  0  0  0  0
    5.0006    1.5153   -0.0016 H   0  0  0  0  0  0  0  0  0  0  0  0
   -4.6182   -1.3766   -0.0001 H   0  0  0  0  0  0  0  0  0  0  0  0
    5.1250   -1.7497   -0.8960 H   0  0  0  0  0  0  0  0  0  0  0  0
    5.1241   -1.7497    0.8978 H   0  0  0  0  0  0  0  0  0  0  0  0
    5.9982   -0.5230    0.0014 H   0  0  0  0  0  0  0  0  0  0  0  0
    1.4811    3.8317    0.4080 H   0  0  0  0  0  0  0  0  0  0  0  0
    2.9076   -4.0427   -0.0007 H   0  0  0  0  0  0  0  0  0  0  0  0
   -2.6595    4.5049    0.0074 H   0  0  0  0  0  0  0  0  0  0  0  0
  1 12  1  0  0  0  0
  1 38  1  0  0  0  0
  2 20  1  0  0  0  0
  2 42  1  0  0  0  0
  3 21  1  0  0  0  0
  3 43  1  0  0  0  0
  4 24  1  0  0  0  0
  4 44  1  0  0  0  0
  5 22  2  0  0  0  0
  6 25  2  0  0  0  0
  7  8  1  0  0  0  0
  7 12  1  0  0  0  0
  7 17  1  0  0  0  0
  7 18  1  0  0  0  0
  8  9  1  0  0  0  0
  8 19  2  0  0  0  0
  9 10  1  0  0  0  0
  9 11  2  0  0  0  0
 10 13  1  0  0  0  0
 10 14  2  0  0  0  0
 11 15  1  0  0  0  0
 11 16  1  0  0  0  0
 12 13  2  0  0  0  0
 13 22  1  0  0  0  0
 14 20  1  0  0  0  0
 14 24  1  0  0  0  0
 15 21  2  0  0  0  0
 15 23  1  0  0  0  0
 16 20  2  0  0  0  0
 16 25  1  0  0  0  0
 17 30  1  0  0  0  0
 17 31  1  0  0  0  0
 17 34  1  0  0  0  0
 18 29  1  0  0  0  0
 18 32  1  0  0  0  0
 18 33  1  0  0  0  0
 19 21  1  0  0  0  0
 19 35  1  0  0  0  0
 22 26  1  0  0  0  0
 23 27  2  0  0  0  0
 23 28  1  0  0  0  0
 24 26  2  0  0  0  0
 25 27  1  0  0  0  0
 26 36  1  0  0  0  0
 27 37  1  0  0  0  0
 28 39  1  0  0  0  0
 28 40  1  0  0  0  0
 28 41  1  0  0  0  0
M  END
> <PUBCHEM_COMPOUND_CID>
135430323

> <PUBCHEM_CONFORMER_RMSD>
0.6

> <PUBCHEM_CONFORMER_DIVERSEORDER>
1

> <PUBCHEM_MMFF94_PARTIAL_CHARGES>
31
1 -0.53
10 0.03
12 -0.06
13 -0.01
14 0.03
15 0.03
16 0.09
19 -0.15
2 -0.53
20 0.08
21 0.08
22 0.54
23 -0.17
24 0.05
25 0.47
26 -0.14
27 -0.14
28 0.14
3 -0.53
35 0.15
36 0.15
37 0.15
38 0.45
4 -0.53
42 0.45
43 0.45
44 0.45
5 -0.57
6 -0.57
7 0.28
8 -0.14

> <PUBCHEM_EFFECTIVE_ROTOR_COUNT>
0.2

> <PUBCHEM_PHARMACOPHORE_FEATURES>
12
1 1 donor
1 2 donor
1 3 donor
1 4 donor
1 5 acceptor
1 6 acceptor
3 7 17 18 hydrophobe
6 10 13 14 22 24 26 rings
6 11 15 16 23 25 27 rings
6 7 8 9 10 12 13 rings
6 8 9 11 15 19 21 rings
6 9 10 11 14 16 20 rings

> <PUBCHEM_HEAVY_ATOM_COUNT>
28

> <PUBCHEM_ATOM_DEF_STEREO_COUNT>
0

> <PUBCHEM_ATOM_UDEF_STEREO_COUNT>
0

> <PUBCHEM_BOND_DEF_STEREO_COUNT>
0

> <PUBCHEM_BOND_UDEF_STEREO_COUNT>
0

> <PUBCHEM_ISOTOPIC_ATOM_COUNT>
0

> <PUBCHEM_COMPONENT_COUNT>
1

> <PUBCHEM_CACTVS_TAUTO_COUNT>
-1

> <PUBCHEM_CONFORMER_ID>
081280B300000001

> <PUBCHEM_MMFF94_ENERGY>
103.9616

> <PUBCHEM_FEATURE_SELFOVERLAP>
61.074

> <PUBCHEM_SHAPE_FINGERPRINT>
10319926 262 18197472097336037362
10411042 1 18122625221753975062
10616163 171 18338800121180367774
10967382 1 18410573959413445284
1100329 8 18410292510190590912
11513181 2 18058726879898098407
11578080 2 17130130134181524139
12422481 6 18195272064156593651
12553582 1 18338510949437542419
13122387 1 18266459802119061029
13140716 1 18337106894869664306
13583140 156 17023465235613146617
138480 1 16032673016859296579
14178342 30 18338498795291953424
14223421 5 18411419539932288544
14790565 3 17691416209231563152
15196674 1 18338517546470281830
16728300 4 16812620528239945634
16945 1 18410573989478066950
19591789 44 18122063109017625640
19930381 70 16969137623108477323
20028762 73 18057031416410488983
20739085 24 16891473607065368683
20775438 99 16761644300460129503
20905425 154 18341899592898277582
21197605 99 18339655550655930763
21267235 1 18410864226156451914
2334 1 17906172111091739584
23559900 14 18341327873191486248
238 59 16743924128331468117
2748010 2 18194685856321832127
335352 9 18410855438721910532
34934 24 18410288112339661234
350125 39 18338239232890675113
352729 6 18411703213790135316
5104073 3 18338517546596902818
9709674 26 18411986870763447102

> <PUBCHEM_SHAPE_MULTIPOLES>
541.01
7.37
5.06
0.72
2.53
0.64
0
-0.06
-0.01
-1.19
0
-0.2
-0.43
0

> <PUBCHEM_SHAPE_SELFOVERLAP>
1252.234

> <PUBCHEM_SHAPE_VOLUME>
275.5

> <PUBCHEM_COORDINATE_TYPE>
2
5
10

$$$$
