135445750
  -OEChem-03292013293D

 37 39  0     1  0  0  0  0  0999 V2000
    2.3318   -0.3101   -1.0312 O   0  0  0  0  0  0  0  0  0  0  0  0
    1.3902    2.1769    1.3994 O   0  0  0  0  0  0  0  0  0  0  0  0
    3.6127    2.3122   -0.2176 O   0  0  0  0  0  0  0  0  0  0  0  0
    4.1856   -2.3746   -0.6394 O   0  0  0  0  0  0  0  0  0  0  0  0
   -4.3442   -1.5339    0.3114 O   0  0  0  0  0  0  0  0  0  0  0  0
    0.0482   -0.2835   -0.1698 N   0  3  0  0  0  0  0  0  0  0  0  0
   -1.2958   -1.9359    0.1946 N   0  0  0  0  0  0  0  0  0  0  0  0
   -1.5819    1.5445   -0.3821 N   0  0  0  0  0  0  0  0  0  0  0  0
   -3.7980    0.6732   -0.0981 N   0  0  0  0  0  0  0  0  0  0  0  0
   -3.4479    2.9575   -0.5098 N   0  0  0  0  0  0  0  0  0  0  0  0
    1.3254    0.4942   -0.3822 C   0  0  1  0  0  0  0  0  0  0  0  0
    1.9554    0.9724    0.9219 C   0  0  1  0  0  0  0  0  0  0  0  0
    3.4133    1.1152    0.5331 C   0  0  1  0  0  0  0  0  0  0  0  0
    3.6122   -0.0673   -0.4065 C   0  0  1  0  0  0  0  0  0  0  0  0
    4.0389   -1.3381    0.3154 C   0  0  0  0  0  0  0  0  0  0  0  0
   -1.2260    0.2486   -0.1823 C   0  0  0  0  0  0  0  0  0  0  0  0
   -0.0092   -1.6000    0.0583 C   0  0  0  0  0  0  0  0  0  0  0  0
   -2.0747   -0.8135    0.0509 C   0  0  0  0  0  0  0  0  0  0  0  0
   -3.4851   -0.6786    0.1134 C   0  0  0  0  0  0  0  0  0  0  0  0
   -1.7690   -3.2801    0.4538 C   0  0  0  0  0  0  0  0  0  0  0  0
   -2.8819    1.7208   -0.3330 C   0  0  0  0  0  0  0  0  0  0  0  0
    1.0882    1.3317   -1.0497 H   0  0  0  0  0  0  0  0  0  0  0  0
    1.8392    0.2053    1.6966 H   0  0  0  0  0  0  0  0  0  0  0  0
    4.0914    1.1394    1.3909 H   0  0  0  0  0  0  0  0  0  0  0  0
    4.3179    0.1542   -1.2152 H   0  0  0  0  0  0  0  0  0  0  0  0
    4.9953   -1.1939    0.8274 H   0  0  0  0  0  0  0  0  0  0  0  0
    3.2855   -1.6608    1.0407 H   0  0  0  0  0  0  0  0  0  0  0  0
    0.8317   -2.2719    0.1242 H   0  0  0  0  0  0  0  0  0  0  0  0
    1.9161    2.4614    2.1661 H   0  0  0  0  0  0  0  0  0  0  0  0
    4.5504    2.3418   -0.4739 H   0  0  0  0  0  0  0  0  0  0  0  0
   -2.3154   -3.2961    1.4006 H   0  0  0  0  0  0  0  0  0  0  0  0
   -2.4235   -3.5980   -0.3623 H   0  0  0  0  0  0  0  0  0  0  0  0
   -0.9221   -3.9688    0.5198 H   0  0  0  0  0  0  0  0  0  0  0  0
    4.4601   -3.1726   -0.1565 H   0  0  0  0  0  0  0  0  0  0  0  0
   -4.7834    0.9208   -0.0804 H   0  0  0  0  0  0  0  0  0  0  0  0
   -2.8756    3.7763   -0.6846 H   0  0  0  0  0  0  0  0  0  0  0  0
   -4.4525    3.0903   -0.4713 H   0  0  0  0  0  0  0  0  0  0  0  0
  1 11  1  0  0  0  0
  1 14  1  0  0  0  0
  2 12  1  0  0  0  0
  2 29  1  0  0  0  0
  3 13  1  0  0  0  0
  3 30  1  0  0  0  0
  4 15  1  0  0  0  0
  4 34  1  0  0  0  0
  5 19  2  0  0  0  0
  6 11  1  0  0  0  0
  6 16  1  0  0  0  0
  6 17  2  0  0  0  0
  7 17  1  0  0  0  0
  7 18  1  0  0  0  0
  7 20  1  0  0  0  0
  8 16  1  0  0  0  0
  8 21  2  0  0  0  0
  9 19  1  0  0  0  0
  9 21  1  0  0  0  0
  9 35  1  0  0  0  0
 10 21  1  0  0  0  0
 10 36  1  0  0  0  0
 10 37  1  0  0  0  0
 11 12  1  0  0  0  0
 11 22  1  0  0  0  0
 12 13  1  0  0  0  0
 12 23  1  0  0  0  0
 13 14  1  0  0  0  0
 13 24  1  0  0  0  0
 14 15  1  0  0  0  0
 14 25  1  0  0  0  0
 15 26  1  0  0  0  0
 15 27  1  0  0  0  0
 16 18  2  0  0  0  0
 17 28  1  0  0  0  0
 18 19  1  0  0  0  0
 20 31  1  0  0  0  0
 20 32  1  0  0  0  0
 20 33  1  0  0  0  0
M  CHG  1   6   1
M  END
> <PUBCHEM_COMPOUND_CID>
135445750

> <PUBCHEM_CONFORMER_RMSD>
0.6

> <PUBCHEM_CONFORMER_DIVERSEORDER>
1
10
14
8
6
15
9
5
2
4
13
3
11
16
7
12

> <PUBCHEM_MMFF94_PARTIAL_CHARGES>
28
1 -0.56
10 -0.85
11 0.79
12 0.28
13 0.28
14 0.28
15 0.28
16 0.49
17 0.65
18 0.28
19 0.7
2 -0.68
20 0.51
21 0.56
28 0.15
29 0.4
3 -0.68
30 0.4
34 0.4
35 0.37
36 0.4
37 0.4
4 -0.68
5 -0.57
6 -0.76
7 -0.76
8 -0.59
9 -0.49

> <PUBCHEM_EFFECTIVE_ROTOR_COUNT>
3

> <PUBCHEM_PHARMACOPHORE_FEATURES>
14
1 1 acceptor
1 10 donor
1 2 acceptor
1 2 donor
1 3 acceptor
1 3 donor
1 4 acceptor
1 4 donor
1 5 acceptor
1 9 donor
3 6 7 17 cation
5 1 11 12 13 14 rings
5 6 7 16 17 18 rings
6 8 9 16 18 19 21 rings

> <PUBCHEM_HEAVY_ATOM_COUNT>
21

> <PUBCHEM_ATOM_DEF_STEREO_COUNT>
4

> <PUBCHEM_ATOM_UDEF_STEREO_COUNT>
0

> <PUBCHEM_BOND_DEF_STEREO_COUNT>
0

> <PUBCHEM_BOND_UDEF_STEREO_COUNT>
0

> <PUBCHEM_ISOTOPIC_ATOM_COUNT>
0

> <PUBCHEM_COMPONENT_COUNT>
1

> <PUBCHEM_CACTVS_TAUTO_COUNT>
-1

> <PUBCHEM_CONFORMER_ID>
0812BCF600000001

> <PUBCHEM_MMFF94_ENERGY>
47.7168

> <PUBCHEM_FEATURE_SELFOVERLAP>
71.238

> <PUBCHEM_SHAPE_FINGERPRINT>
10366900 7 18055629766153604400
10608611 8 18340766035017454992
10616163 171 18194123138734838990
10646746 165 18410009910027602060
1100329 8 16467837763492302968
12173636 292 18408036304115188525
12403259 226 18413103987561908921
12403259 415 18411981342987374325
12403260 363 18411689972495470239
12500047 106 18409164403045065510
12507560 40 18412821400394429352
12553582 1 17470742468283522059
13134695 92 17346021274379394096
13140716 1 18118683219438744603
13464514 151 17910111305115037213
14178342 30 18190168174061363050
14223421 5 18196086866296006888
14866123 147 16903287296622707402
15042514 8 18262527013006176619
15196674 1 18410292501595368405
15219456 202 18343862238323229092
15442244 35 18409165485461232980
16752209 62 18261943098995032355
16945 1 18335419131773308519
17804303 29 18410016511518969078
18186145 218 18201165359991094048
19049666 15 18341890818369671600
19591789 44 18409448055433532363
20510252 161 18412265064606462489
20645477 70 17704081707067541990
21279426 13 18051695438951337078
21524375 3 18339638924251387143
23402539 116 18340762767201620247
23559900 14 18342455899191308972
2748010 2 18263088730213715559
3004659 81 18044104454383012910
3084891 72 18125716786299104704
335352 9 18194401087205530060
350125 39 18336551508501214129
4214541 1 18409167692884603572
5104073 3 18410575080378726984
59755656 215 18263081029332364959
69090 78 18272930570014974631
7364860 26 17906167348469224895
81228 2 18116708719698450715
9709674 26 18411703214001378886

> <PUBCHEM_SHAPE_MULTIPOLES>
377.92
8.18
3.09
0.83
1.78
0.45
-0.1
-0.01
0.38
-1.13
-0.18
0.41
-0.16
1.09

> <PUBCHEM_SHAPE_SELFOVERLAP>
816.822

> <PUBCHEM_SHAPE_VOLUME>
206.9

> <PUBCHEM_COORDINATE_TYPE>
2
5
10

$$$$
