135400435
  -OEChem-03292013293D

 40 41  0     0  0  0  0  0  0999 V2000
    4.4734    1.4697   -0.4258 O   0  0  0  0  0  0  0  0  0  0  0  0
   -5.3995   -1.5581    0.1912 O   0  0  0  0  0  0  0  0  0  0  0  0
   -3.3502    2.7523    0.5860 O   0  0  0  0  0  0  0  0  0  0  0  0
   -5.6139    1.1598    0.6802 O   0  0  0  0  0  0  0  0  0  0  0  0
    3.8984   -2.3005    1.2124 O   0  0  0  0  0  0  0  0  0  0  0  0
    1.8787   -2.3330   -1.1463 O   0  0  0  0  0  0  0  0  0  0  0  0
    2.5138    1.3641   -1.5478 O   0  0  0  0  0  0  0  0  0  0  0  0
   -1.9164   -0.5186   -0.1921 C   0  0  0  0  0  0  0  0  0  0  0  0
   -2.0206    0.8505    0.0540 C   0  0  0  0  0  0  0  0  0  0  0  0
   -3.0541   -1.3240   -0.1449 C   0  0  0  0  0  0  0  0  0  0  0  0
   -4.2961   -0.7605    0.1483 C   0  0  0  0  0  0  0  0  0  0  0  0
   -3.2624    1.4141    0.3472 C   0  0  0  0  0  0  0  0  0  0  0  0
   -4.4001    0.6086    0.3942 C   0  0  0  0  0  0  0  0  0  0  0  0
    3.0671   -0.5246   -0.2224 C   0  0  0  0  0  0  0  0  0  0  0  0
   -0.6046   -1.1140   -0.5028 C   0  0  0  0  0  0  0  0  0  0  0  0
    1.8351   -1.2466   -0.5836 C   0  0  0  0  0  0  0  0  0  0  0  0
    0.5768   -0.5510   -0.2103 C   0  0  0  0  0  0  0  0  0  0  0  0
    3.9758   -1.0665    0.6097 C   0  0  0  0  0  0  0  0  0  0  0  0
    5.3971    0.8618    0.4502 C   0  0  0  0  0  0  0  0  0  0  0  0
    5.1758   -0.3545    0.9576 C   0  0  0  0  0  0  0  0  0  0  0  0
    3.3168    0.8334   -0.7860 C   0  0  0  0  0  0  0  0  0  0  0  0
    6.6055    1.6873    0.7417 C   0  0  0  0  0  0  0  0  0  0  0  0
   -5.2060   -2.9466   -0.0723 C   0  0  0  0  0  0  0  0  0  0  0  0
   -3.5904    3.5968   -0.5382 C   0  0  0  0  0  0  0  0  0  0  0  0
   -1.1605    1.5128    0.0076 H   0  0  0  0  0  0  0  0  0  0  0  0
   -2.9165   -2.3823   -0.3424 H   0  0  0  0  0  0  0  0  0  0  0  0
   -0.6408   -2.0770   -1.0070 H   0  0  0  0  0  0  0  0  0  0  0  0
    0.6659    0.3911    0.3179 H   0  0  0  0  0  0  0  0  0  0  0  0
    5.8974   -0.8068    1.6298 H   0  0  0  0  0  0  0  0  0  0  0  0
    7.1466    1.9055   -0.1845 H   0  0  0  0  0  0  0  0  0  0  0  0
    7.2953    1.1798    1.4238 H   0  0  0  0  0  0  0  0  0  0  0  0
    6.3128    2.6361    1.2025 H   0  0  0  0  0  0  0  0  0  0  0  0
   -6.2825    0.4530    0.6679 H   0  0  0  0  0  0  0  0  0  0  0  0
   -4.8474   -3.1181   -1.0930 H   0  0  0  0  0  0  0  0  0  0  0  0
   -4.5642   -3.4154    0.6814 H   0  0  0  0  0  0  0  0  0  0  0  0
   -6.1868   -3.4278    0.0035 H   0  0  0  0  0  0  0  0  0  0  0  0
   -4.5411    3.3412   -1.0167 H   0  0  0  0  0  0  0  0  0  0  0  0
   -2.7720    3.5150   -1.2606 H   0  0  0  0  0  0  0  0  0  0  0  0
   -3.6433    4.6303   -0.1852 H   0  0  0  0  0  0  0  0  0  0  0  0
    4.6821   -2.4543    1.7657 H   0  0  0  0  0  0  0  0  0  0  0  0
  1 19  1  0  0  0  0
  1 21  1  0  0  0  0
  2 11  1  0  0  0  0
  2 23  1  0  0  0  0
  3 12  1  0  0  0  0
  3 24  1  0  0  0  0
  4 13  1  0  0  0  0
  4 33  1  0  0  0  0
  5 18  1  0  0  0  0
  5 40  1  0  0  0  0
  6 16  2  0  0  0  0
  7 21  2  0  0  0  0
  8  9  2  0  0  0  0
  8 10  1  0  0  0  0
  8 15  1  0  0  0  0
  9 12  1  0  0  0  0
  9 25  1  0  0  0  0
 10 11  2  0  0  0  0
 10 26  1  0  0  0  0
 11 13  1  0  0  0  0
 12 13  2  0  0  0  0
 14 16  1  0  0  0  0
 14 18  2  0  0  0  0
 14 21  1  0  0  0  0
 15 17  2  0  0  0  0
 15 27  1  0  0  0  0
 16 17  1  0  0  0  0
 17 28  1  0  0  0  0
 18 20  1  0  0  0  0
 19 20  2  0  0  0  0
 19 22  1  0  0  0  0
 20 29  1  0  0  0  0
 22 30  1  0  0  0  0
 22 31  1  0  0  0  0
 22 32  1  0  0  0  0
 23 34  1  0  0  0  0
 23 35  1  0  0  0  0
 23 36  1  0  0  0  0
 24 37  1  0  0  0  0
 24 38  1  0  0  0  0
 24 39  1  0  0  0  0
M  END
> <PUBCHEM_COMPOUND_CID>
135400435

> <PUBCHEM_CONFORMER_RMSD>
0.8

> <PUBCHEM_CONFORMER_DIVERSEORDER>
3
14
24
2
28
4
10
8
11
20
15
29
1
21
16
19
27
13
12
26
22
7
9
25
30
17
18
6
23
5

> <PUBCHEM_MMFF94_PARTIAL_CHARGES>
31
1 -0.23
10 -0.15
11 0.08
12 0.08
13 0.08
14 0.03
15 -0.18
16 0.54
17 -0.14
18 0.08
19 -0.06
2 -0.36
20 -0.15
21 0.71
22 0.14
23 0.28
24 0.28
25 0.15
26 0.15
27 0.15
28 0.15
29 0.15
3 -0.36
33 0.45
4 -0.53
40 0.45
5 -0.53
6 -0.57
7 -0.57
8 0.03
9 -0.15

> <PUBCHEM_EFFECTIVE_ROTOR_COUNT>
5

> <PUBCHEM_PHARMACOPHORE_FEATURES>
9
1 14 anion
1 2 acceptor
1 3 acceptor
1 4 donor
1 5 donor
1 6 acceptor
1 7 acceptor
6 1 14 18 19 20 21 rings
6 8 9 10 11 12 13 rings

> <PUBCHEM_HEAVY_ATOM_COUNT>
24

> <PUBCHEM_ATOM_DEF_STEREO_COUNT>
0

> <PUBCHEM_ATOM_UDEF_STEREO_COUNT>
0

> <PUBCHEM_BOND_DEF_STEREO_COUNT>
1

> <PUBCHEM_BOND_UDEF_STEREO_COUNT>
0

> <PUBCHEM_ISOTOPIC_ATOM_COUNT>
0

> <PUBCHEM_COMPONENT_COUNT>
1

> <PUBCHEM_CACTVS_TAUTO_COUNT>
-1

> <PUBCHEM_CONFORMER_ID>
08120BF300000003

> <PUBCHEM_MMFF94_ENERGY>
92.3044

> <PUBCHEM_FEATURE_SELFOVERLAP>
45.672

> <PUBCHEM_SHAPE_FINGERPRINT>
10595046 47 18407758153274268738
10670039 82 18337690671420594220
11724838 91 18337387270430056358
12107183 9 17830164706388934498
12236239 1 18410291428402352578
12403259 118 18409724050047518120
12596602 18 18260259763688089226
12616971 3 17603596235540358869
13073987 5 18408038498748531122
13785724 45 17764870196254341738
13914758 101 16732968822490351655
14251764 18 18114177575828901632
14341114 176 18334861597525870674
14849402 71 18189054377816147700
15188451 53 16153997962149537899
15196674 1 18412263909096501900
16992779 147 16469815793982142881
17492 89 18339081492946735070
17844677 252 18339648841072761346
19377110 9 18337400421540639819
20511986 3 18335687347695268564
20715895 44 17906448831740977673
21065198 48 18334855000551030034
21065198 57 18195530290032348503
21859007 373 17389374923326069989
2215653 11 11819263490725222867
23559900 14 17912932677489937238
245318 6 17389681996223800268
3633792 109 17604412060516096239
38570 142 17533523337769788996
5104073 3 18410017602377469731
67856867 119 18262520423824484269
7808743 9 18129656525893784650
90127 26 18338809935412955778
960060 61 10663815291481634506

> <PUBCHEM_SHAPE_MULTIPOLES>
452.82
15.54
3.08
0.97
5.85
1.18
-0.09
2.35
4.05
-3.58
-0.17
0.8
0.01
-0.41

> <PUBCHEM_SHAPE_SELFOVERLAP>
966.829

> <PUBCHEM_SHAPE_VOLUME>
252.9

> <PUBCHEM_COORDINATE_TYPE>
2
5
10

$$$$
