135465372
  -OEChem-03292013293D

 28 29  0     0  0  0  0  0  0999 V2000
    2.3692    0.3228    0.0818 O   0  0  0  0  0  0  0  0  0  0  0  0
   -4.0334    0.7123    0.8400 O   0  0  0  0  0  0  0  0  0  0  0  0
    0.2564    1.0815   -0.5298 N   0  0  0  0  0  0  0  0  0  0  0  0
   -1.5477    2.1979    0.1777 N   0  0  0  0  0  0  0  0  0  0  0  0
   -0.5821   -1.1889   -0.4890 N   0  0  0  0  0  0  0  0  0  0  0  0
   -2.8592   -1.2198    0.2552 N   0  0  0  0  0  0  0  0  0  0  0  0
   -1.7529   -3.2184   -0.3147 N   0  0  0  0  0  0  0  0  0  0  0  0
    5.8562   -0.7560    0.5418 N   0  0  0  0  0  0  0  0  0  0  0  0
   -0.7097    0.1444   -0.3095 C   0  0  0  0  0  0  0  0  0  0  0  0
    1.6029    0.8534   -0.9957 C   0  0  0  0  0  0  0  0  0  0  0  0
   -1.8007    0.8591    0.1225 C   0  0  0  0  0  0  0  0  0  0  0  0
   -0.2956    2.3012   -0.2227 C   0  0  0  0  0  0  0  0  0  0  0  0
   -3.0131    0.1603    0.4482 C   0  0  0  0  0  0  0  0  0  0  0  0
    3.7170    0.0839   -0.3009 C   0  0  0  0  0  0  0  0  0  0  0  0
   -1.6786   -1.8547   -0.1980 C   0  0  0  0  0  0  0  0  0  0  0  0
    4.4714   -0.4790    0.8931 C   0  0  0  0  0  0  0  0  0  0  0  0
    1.5610    0.1464   -1.8315 H   0  0  0  0  0  0  0  0  0  0  0  0
    2.0224    1.8068   -1.3349 H   0  0  0  0  0  0  0  0  0  0  0  0
    0.2606    3.2248   -0.3088 H   0  0  0  0  0  0  0  0  0  0  0  0
    3.7371   -0.6290   -1.1341 H   0  0  0  0  0  0  0  0  0  0  0  0
    4.1739    1.0248   -0.6312 H   0  0  0  0  0  0  0  0  0  0  0  0
   -3.6604   -1.8111    0.4570 H   0  0  0  0  0  0  0  0  0  0  0  0
    4.4294    0.2281    1.7295 H   0  0  0  0  0  0  0  0  0  0  0  0
    3.9864   -1.3985    1.2396 H   0  0  0  0  0  0  0  0  0  0  0  0
   -0.9578   -3.7622   -0.6320 H   0  0  0  0  0  0  0  0  0  0  0  0
   -2.6027   -3.7232   -0.0880 H   0  0  0  0  0  0  0  0  0  0  0  0
    6.3562   -1.0831    1.3674 H   0  0  0  0  0  0  0  0  0  0  0  0
    6.3168    0.1057    0.2517 H   0  0  0  0  0  0  0  0  0  0  0  0
  1 10  1  0  0  0  0
  1 14  1  0  0  0  0
  2 13  2  0  0  0  0
  3  9  1  0  0  0  0
  3 10  1  0  0  0  0
  3 12  1  0  0  0  0
  4 11  1  0  0  0  0
  4 12  2  0  0  0  0
  5  9  1  0  0  0  0
  5 15  2  0  0  0  0
  6 13  1  0  0  0  0
  6 15  1  0  0  0  0
  6 22  1  0  0  0  0
  7 15  1  0  0  0  0
  7 25  1  0  0  0  0
  7 26  1  0  0  0  0
  8 16  1  0  0  0  0
  8 27  1  0  0  0  0
  8 28  1  0  0  0  0
  9 11  2  0  0  0  0
 10 17  1  0  0  0  0
 10 18  1  0  0  0  0
 11 13  1  0  0  0  0
 12 19  1  0  0  0  0
 14 16  1  0  0  0  0
 14 20  1  0  0  0  0
 14 21  1  0  0  0  0
 16 23  1  0  0  0  0
 16 24  1  0  0  0  0
M  END
> <PUBCHEM_COMPOUND_CID>
135465372

> <PUBCHEM_CONFORMER_RMSD>
0.6

> <PUBCHEM_CONFORMER_DIVERSEORDER>
1
18
22
36
23
25
12
3
38
10
35
26
15
19
9
8
16
4
34
27
31
11
21
28
2
37
6
33
5
32
17
7
13
30
20
29
24
39
14

> <PUBCHEM_MMFF94_PARTIAL_CHARGES>
22
1 -0.56
10 0.54
11 0.14
12 0.04
13 0.72
14 0.28
15 0.56
16 0.27
19 0.15
2 -0.57
22 0.37
25 0.4
26 0.4
27 0.36
28 0.36
3 0.05
4 -0.57
5 -0.58
6 -0.49
7 -0.85
8 -0.99
9 -0.03

> <PUBCHEM_EFFECTIVE_ROTOR_COUNT>
4

> <PUBCHEM_PHARMACOPHORE_FEATURES>
9
1 1 acceptor
1 2 acceptor
1 6 donor
1 7 donor
1 8 cation
1 8 donor
3 3 4 12 cation
5 3 4 9 11 12 rings
6 5 6 9 11 13 15 rings

> <PUBCHEM_HEAVY_ATOM_COUNT>
16

> <PUBCHEM_ATOM_DEF_STEREO_COUNT>
0

> <PUBCHEM_ATOM_UDEF_STEREO_COUNT>
0

> <PUBCHEM_BOND_DEF_STEREO_COUNT>
0

> <PUBCHEM_BOND_UDEF_STEREO_COUNT>
0

> <PUBCHEM_ISOTOPIC_ATOM_COUNT>
0

> <PUBCHEM_COMPONENT_COUNT>
1

> <PUBCHEM_CACTVS_TAUTO_COUNT>
-1

> <PUBCHEM_CONFORMER_ID>
0813099C00000001

> <PUBCHEM_MMFF94_ENERGY>
24.6796

> <PUBCHEM_FEATURE_SELFOVERLAP>
45.849

> <PUBCHEM_SHAPE_FINGERPRINT>
11132069 177 18272941500585007805
12251169 10 18411981347709447180
12633257 1 18060425720194703048
13140716 1 18340491195622610145
13551218 46 18264206916085449258
13862211 1 18411419548976241647
14123260 362 11887668537638072634
14420673 8 18050569539562049898
15042514 8 18410299141979259699
16945 1 18269858517647597749
17804303 29 18342179981406543556
17977361 122 18261386763122701754
1813 80 17241056401297459414
193761 8 17617955629813637565
200 152 15791730781020294632
20510252 161 18129384791391595032
21501502 16 18051986002062976117
21637258 2 16153994650771931073
21650355 55 18412822503768774112
22959321 94 18335135397680626090
2297311 6 18271255937139798380
232386 152 18337397148706702628
23366157 5 17901390313664614108
23402539 116 18272362062568895373
23463225 33 18335709372382618668
23552423 10 17543923759442144453
23559900 14 18129121012344665724
23728640 28 18411420626417168091
2748010 2 17977967699777981605
2838139 119 14332022351908522049
43471831 8 18191874422349002115
474 4 13398623970785088752
559249 180 17896310312772894850
58807428 26 18268164058428066235
90316 7 18408605855143628268

> <PUBCHEM_SHAPE_MULTIPOLES>
287.65
8.04
2.43
0.82
13.13
0.99
0
2.31
-2.89
-2.07
0.3
0.23
-0.04
-0.69

> <PUBCHEM_SHAPE_SELFOVERLAP>
608.356

> <PUBCHEM_SHAPE_VOLUME>
160.7

> <PUBCHEM_COORDINATE_TYPE>
2
5
10

$$$$
