135449289
  -OEChem-03292013293D

 28 28  0     1  0  0  0  0  0999 V2000
   -0.2230    2.6019   -0.1795 S   0  0  2  0  0  0  0  0  0  0  0  0
    0.3248   -2.8433    0.9073 S   0  0  0  0  0  0  0  0  0  0  0  0
   -4.1297   -0.7193   -0.4587 O   0  0  0  0  0  0  0  0  0  0  0  0
   -1.1755    3.3702   -1.0490 O   0  0  0  0  0  0  0  0  0  0  0  0
    3.8097    0.3764    0.8452 O   0  0  0  0  0  0  0  0  0  0  0  0
    1.2682    0.0562    0.6032 N   0  0  0  0  0  0  0  0  0  0  0  0
    1.9291   -0.0844   -0.4479 N   0  0  0  0  0  0  0  0  0  0  0  0
    4.0193   -0.0490   -1.3832 N   0  0  0  0  0  0  0  0  0  0  0  0
   -0.8957    0.9380   -0.0341 C   0  0  0  0  0  0  0  0  0  0  0  0
   -0.0964   -0.1438    0.3354 C   0  0  0  0  0  0  0  0  0  0  0  0
   -0.6524   -1.4189    0.4378 C   0  0  0  0  0  0  0  0  0  0  0  0
   -2.2510    0.7445   -0.3009 C   0  0  0  0  0  0  0  0  0  0  0  0
   -2.8070   -0.5307   -0.1984 C   0  0  0  0  0  0  0  0  0  0  0  0
   -2.0076   -1.6124    0.1708 C   0  0  0  0  0  0  0  0  0  0  0  0
   -0.5213    3.1205    1.5304 C   0  0  0  0  0  0  0  0  0  0  0  0
    0.1310   -3.9091   -0.5471 C   0  0  0  0  0  0  0  0  0  0  0  0
    3.2776    0.1032   -0.2312 C   0  0  0  0  0  0  0  0  0  0  0  0
   -2.8955    1.5729   -0.5841 H   0  0  0  0  0  0  0  0  0  0  0  0
   -2.4566   -2.5995    0.2562 H   0  0  0  0  0  0  0  0  0  0  0  0
   -0.2144    4.1641    1.6329 H   0  0  0  0  0  0  0  0  0  0  0  0
    0.0712    2.5036    2.2101 H   0  0  0  0  0  0  0  0  0  0  0  0
   -1.5836    3.0319    1.7711 H   0  0  0  0  0  0  0  0  0  0  0  0
    0.7777   -4.7837   -0.4373 H   0  0  0  0  0  0  0  0  0  0  0  0
    0.4222   -3.3723   -1.4540 H   0  0  0  0  0  0  0  0  0  0  0  0
   -0.9015   -4.2540   -0.6435 H   0  0  0  0  0  0  0  0  0  0  0  0
   -4.3442   -1.6605   -0.3404 H   0  0  0  0  0  0  0  0  0  0  0  0
    3.5789   -0.2740   -2.2689 H   0  0  0  0  0  0  0  0  0  0  0  0
    5.0279    0.0595   -1.3799 H   0  0  0  0  0  0  0  0  0  0  0  0
  1  4  2  0  0  0  0
  1  9  1  0  0  0  0
  1 15  1  0  0  0  0
  2 11  1  0  0  0  0
  2 16  1  0  0  0  0
  3 13  1  0  0  0  0
  3 26  1  0  0  0  0
  5 17  2  0  0  0  0
  6  7  2  0  0  0  0
  6 10  1  0  0  0  0
  7 17  1  0  0  0  0
  8 17  1  0  0  0  0
  8 27  1  0  0  0  0
  8 28  1  0  0  0  0
  9 10  1  0  0  0  0
  9 12  2  0  0  0  0
 10 11  2  0  0  0  0
 11 14  1  0  0  0  0
 12 13  1  0  0  0  0
 12 18  1  0  0  0  0
 13 14  2  0  0  0  0
 14 19  1  0  0  0  0
 15 20  1  0  0  0  0
 15 21  1  0  0  0  0
 15 22  1  0  0  0  0
 16 23  1  0  0  0  0
 16 24  1  0  0  0  0
 16 25  1  0  0  0  0
M  END
> <PUBCHEM_COMPOUND_CID>
135449289

> <PUBCHEM_CONFORMER_RMSD>
0.6

> <PUBCHEM_CONFORMER_DIVERSEORDER>
1
58
50
31
32
53
39
45
51
11
16
10
61
49
34
56
55
54
47
14
40
25
13
59
18
44
24
60
28
38
37
21
42
20
19
43
30
46
48
35
27
6
12
26
52
41
5
17
8
57
62
29
4
7
23
36
15
9
3
33
22
2

> <PUBCHEM_MMFF94_PARTIAL_CHARGES>
22
1 0.24
10 0.18
11 0.1
12 -0.15
13 0.08
14 -0.15
15 0.19
16 0.23
17 0.84
18 0.15
19 0.15
2 -0.33
26 0.45
27 0.37
28 0.37
3 -0.53
4 -0.5
5 -0.57
6 -0.18
7 -0.21
8 -0.8
9 0.06

> <PUBCHEM_EFFECTIVE_ROTOR_COUNT>
4

> <PUBCHEM_PHARMACOPHORE_FEATURES>
7
1 16 hydrophobe
1 3 donor
1 4 acceptor
1 5 acceptor
1 7 donor
1 8 donor
6 9 10 11 12 13 14 rings

> <PUBCHEM_HEAVY_ATOM_COUNT>
17

> <PUBCHEM_ATOM_DEF_STEREO_COUNT>
1

> <PUBCHEM_ATOM_UDEF_STEREO_COUNT>
0

> <PUBCHEM_BOND_DEF_STEREO_COUNT>
0

> <PUBCHEM_BOND_UDEF_STEREO_COUNT>
0

> <PUBCHEM_ISOTOPIC_ATOM_COUNT>
0

> <PUBCHEM_COMPONENT_COUNT>
1

> <PUBCHEM_CACTVS_TAUTO_COUNT>
-1

> <PUBCHEM_CONFORMER_ID>
0812CAC900000001

> <PUBCHEM_MMFF94_ENERGY>
40.0403

> <PUBCHEM_FEATURE_SELFOVERLAP>
35.575

> <PUBCHEM_SHAPE_FINGERPRINT>
10756046 5 17833546795555398159
108231 29 18340488983830464873
11578080 2 13037190171523772586
11680986 33 17833548273213882953
13149001 5 18049435134912391111
14614273 12 18189610532223516741
14790565 3 18336841848328275941
16945 1 18040715878912916251
193761 8 17905039253607045779
20510252 161 18412260619172957800
20511035 2 17694782226228926733
20600515 1 18266165318077184472
20645476 183 17313673775154895058
21029758 11 18270677687969666489
21501502 16 18121780517386542755
2334 1 18192995052362445689
23402539 116 18341320180340582846
23419403 2 15398429016175785571
23557571 272 18343305903236998824
23558518 356 17972597675933791323
23559900 14 18339926021867756748
23566358 2 17907576921996089599
2748010 2 17829880281265517459
3060560 45 18267563867003443615
350125 39 17761781667331399777
353137 74 18336264522701764993
43471831 8 18335136432304086058
589210 1 17906169547059794795
7364860 26 17907852912410605450
81228 2 18339658771132075992

> <PUBCHEM_SHAPE_MULTIPOLES>
325
4.98
4.24
1.07
3.36
0.48
-0.12
0.05
1.39
-1.1
-0.27
0.34
-0.39
0.02

> <PUBCHEM_SHAPE_SELFOVERLAP>
643.451

> <PUBCHEM_SHAPE_VOLUME>
196.3

> <PUBCHEM_COORDINATE_TYPE>
2
5
10

$$$$
