135460621
  -OEChem-03292013293D

 48 50  0     0  0  0  0  0  0999 V2000
    4.0890    2.1416   -1.6608 S   0  0  0  0  0  0  0  0  0  0  0  0
   -0.1703    1.0881    2.7087 S   0  0  0  0  0  0  0  0  0  0  0  0
    2.7359   -2.5622   -2.0136 O   0  0  0  0  0  0  0  0  0  0  0  0
   -6.8219   -0.9615   -1.3085 O   0  0  0  0  0  0  0  0  0  0  0  0
    1.0148    2.4724   -1.6067 O   0  0  0  0  0  0  0  0  0  0  0  0
    3.3982   -0.3790   -1.7285 N   0  0  0  0  0  0  0  0  0  0  0  0
    4.3131    0.3799    0.3101 N   0  0  0  0  0  0  0  0  0  0  0  0
    1.2476    2.1036    0.7017 N   0  0  0  0  0  0  0  0  0  0  0  0
   -0.9990    1.2281    0.2641 N   0  0  0  0  0  0  0  0  0  0  0  0
    3.6244   -1.9303    0.1116 C   0  0  0  0  0  0  0  0  0  0  0  0
    3.3874   -3.3226    0.6179 C   0  0  0  0  0  0  0  0  0  0  0  0
    4.1486   -0.8974    0.8094 C   0  0  0  0  0  0  0  0  0  0  0  0
    3.2058   -1.6763   -1.3054 C   0  0  0  0  0  0  0  0  0  0  0  0
    3.9380    0.5784   -0.9093 C   0  0  0  0  0  0  0  0  0  0  0  0
    1.9212   -3.5685    0.9135 C   0  0  0  0  0  0  0  0  0  0  0  0
    4.6424   -1.0365    2.2258 C   0  0  0  0  0  0  0  0  0  0  0  0
   -3.2412    0.2345    0.4173 C   0  0  0  0  0  0  0  0  0  0  0  0
   -2.0029    0.6457    1.0131 C   0  0  0  0  0  0  0  0  0  0  0  0
    3.0518    3.1050   -0.5399 C   0  0  0  0  0  0  0  0  0  0  0  0
   -4.4158    0.2454    1.1696 C   0  0  0  0  0  0  0  0  0  0  0  0
   -3.2702   -0.1785   -0.9148 C   0  0  0  0  0  0  0  0  0  0  0  0
    0.0152    1.5030    1.0539 C   0  0  0  0  0  0  0  0  0  0  0  0
    1.6508    2.5323   -0.5574 C   0  0  0  0  0  0  0  0  0  0  0  0
   -1.7375    0.4869    2.3571 C   0  0  0  0  0  0  0  0  0  0  0  0
   -5.6479   -0.5697   -0.7419 C   0  0  0  0  0  0  0  0  0  0  0  0
   -5.6192   -0.1565    0.5902 C   0  0  0  0  0  0  0  0  0  0  0  0
   -4.4734   -0.5806   -1.4943 C   0  0  0  0  0  0  0  0  0  0  0  0
   -7.9850   -0.9250   -0.4828 C   0  0  0  0  0  0  0  0  0  0  0  0
    3.7372   -4.0493   -0.1261 H   0  0  0  0  0  0  0  0  0  0  0  0
    3.9771   -3.5346    1.5153 H   0  0  0  0  0  0  0  0  0  0  0  0
    1.5487   -2.8726    1.6732 H   0  0  0  0  0  0  0  0  0  0  0  0
    1.7808   -4.5853    1.2952 H   0  0  0  0  0  0  0  0  0  0  0  0
    1.2957   -3.4619    0.0217 H   0  0  0  0  0  0  0  0  0  0  0  0
    3.1355   -0.1267   -2.6763 H   0  0  0  0  0  0  0  0  0  0  0  0
    5.7147   -1.2562    2.2323 H   0  0  0  0  0  0  0  0  0  0  0  0
    4.1164   -1.8140    2.7862 H   0  0  0  0  0  0  0  0  0  0  0  0
    4.4839   -0.1035    2.7794 H   0  0  0  0  0  0  0  0  0  0  0  0
    3.0024    4.1410   -0.8891 H   0  0  0  0  0  0  0  0  0  0  0  0
    3.4893    3.1122    0.4625 H   0  0  0  0  0  0  0  0  0  0  0  0
   -4.4356    0.5772    2.2046 H   0  0  0  0  0  0  0  0  0  0  0  0
   -2.3671   -0.2008   -1.5202 H   0  0  0  0  0  0  0  0  0  0  0  0
   -2.3436    0.0539    3.1408 H   0  0  0  0  0  0  0  0  0  0  0  0
    1.8849    2.2141    1.4862 H   0  0  0  0  0  0  0  0  0  0  0  0
   -6.4945   -0.1200    1.2297 H   0  0  0  0  0  0  0  0  0  0  0  0
   -4.4897   -0.9024   -2.5321 H   0  0  0  0  0  0  0  0  0  0  0  0
   -7.9002   -1.6160    0.3627 H   0  0  0  0  0  0  0  0  0  0  0  0
   -8.2193    0.0960   -0.1627 H   0  0  0  0  0  0  0  0  0  0  0  0
   -8.8260   -1.2692   -1.0938 H   0  0  0  0  0  0  0  0  0  0  0  0
  1 14  1  0  0  0  0
  1 19  1  0  0  0  0
  2 22  1  0  0  0  0
  2 24  1  0  0  0  0
  3 13  2  0  0  0  0
  4 25  1  0  0  0  0
  4 28  1  0  0  0  0
  5 23  2  0  0  0  0
  6 13  1  0  0  0  0
  6 14  1  0  0  0  0
  6 34  1  0  0  0  0
  7 12  1  0  0  0  0
  7 14  2  0  0  0  0
  8 22  1  0  0  0  0
  8 23  1  0  0  0  0
  8 43  1  0  0  0  0
  9 18  1  0  0  0  0
  9 22  2  0  0  0  0
 10 11  1  0  0  0  0
 10 12  2  0  0  0  0
 10 13  1  0  0  0  0
 11 15  1  0  0  0  0
 11 29  1  0  0  0  0
 11 30  1  0  0  0  0
 12 16  1  0  0  0  0
 15 31  1  0  0  0  0
 15 32  1  0  0  0  0
 15 33  1  0  0  0  0
 16 35  1  0  0  0  0
 16 36  1  0  0  0  0
 16 37  1  0  0  0  0
 17 18  1  0  0  0  0
 17 20  2  0  0  0  0
 17 21  1  0  0  0  0
 18 24  2  0  0  0  0
 19 23  1  0  0  0  0
 19 38  1  0  0  0  0
 19 39  1  0  0  0  0
 20 26  1  0  0  0  0
 20 40  1  0  0  0  0
 21 27  2  0  0  0  0
 21 41  1  0  0  0  0
 24 42  1  0  0  0  0
 25 26  2  0  0  0  0
 25 27  1  0  0  0  0
 26 44  1  0  0  0  0
 27 45  1  0  0  0  0
 28 46  1  0  0  0  0
 28 47  1  0  0  0  0
 28 48  1  0  0  0  0
M  END
> <PUBCHEM_COMPOUND_CID>
135460621

> <PUBCHEM_CONFORMER_RMSD>
1

> <PUBCHEM_CONFORMER_DIVERSEORDER>
1
48
217
201
75
59
233
249
195
82
139
85
114
208
90
241
38
3
177
173
55
256
105
178
58
255
72
158
45
70
69
191
64
39
148
65
106
92
250
183
130
197
246
107
247
78
115
224
61
25
242
122
165
96
258
33
102
17
234
198
228
121
231
47
132
101
157
10
108
141
86
36
18
186
49
133
252
211
227
13
93
187
126
179
212
24
239
237
40
73
117
220
42
124
44
199
52
76
218
216
2
109
219
257
243
77
81
66
11
222
232
67
152
112
150
68
29
225
146
253
193
21
223
221
14
8
229
142
63
95
147
205
153
120
149
4
134
166
97
209
32
34
71
116
46
16
83
204
189
245
84
57
156
94
19
50
236
80
30
244
175
185
74
7
240
138
180
196
254
161
206
31
118
213
210
144
184
20
110
5
143
26
163
128
169
35
167
37
238
91
129
100
9
162
51
88
28
127
87
60
248
182
164
22
203
230
192
119
41
154
12
168
151
99
226
43
62
103
176
188
135
98
89
172
27
170
104
113
125
181
54
171
79
23
251
6
207
56
123
15
145
53
137
214
235
140
190
111
160
215
131
194
136
200
155
202
174
159

> <PUBCHEM_MMFF94_PARTIAL_CHARGES>
34
1 -0.37
10 -0.12
11 0.14
12 0.03
13 0.62
14 0.65
16 0.14
17 0.05
18 0.17
19 0.29
2 -0.08
20 -0.15
21 -0.15
22 0.44
23 0.57
24 -0.11
25 0.08
26 -0.15
27 -0.15
28 0.28
3 -0.57
34 0.37
4 -0.36
40 0.15
41 0.15
42 0.15
43 0.37
44 0.15
45 0.15
5 -0.57
6 -0.49
7 -0.62
8 -0.49
9 -0.57

> <PUBCHEM_EFFECTIVE_ROTOR_COUNT>
8

> <PUBCHEM_PHARMACOPHORE_FEATURES>
9
1 15 hydrophobe
1 3 acceptor
1 4 acceptor
1 5 acceptor
1 6 donor
1 8 donor
5 2 9 18 22 24 rings
6 17 20 21 25 26 27 rings
6 6 7 10 12 13 14 rings

> <PUBCHEM_HEAVY_ATOM_COUNT>
28

> <PUBCHEM_ATOM_DEF_STEREO_COUNT>
0

> <PUBCHEM_ATOM_UDEF_STEREO_COUNT>
0

> <PUBCHEM_BOND_DEF_STEREO_COUNT>
0

> <PUBCHEM_BOND_UDEF_STEREO_COUNT>
0

> <PUBCHEM_ISOTOPIC_ATOM_COUNT>
0

> <PUBCHEM_COMPONENT_COUNT>
1

> <PUBCHEM_CACTVS_TAUTO_COUNT>
-1

> <PUBCHEM_CONFORMER_ID>
0812F70D00000001

> <PUBCHEM_MMFF94_ENERGY>
65.1362

> <PUBCHEM_FEATURE_SELFOVERLAP>
45.671

> <PUBCHEM_SHAPE_FINGERPRINT>
11069576 57 18336554824327100702
11796584 16 17774727549544909149
11828532 37 15502664844687653001
12166972 35 18336823079231261986
12661589 4 17201064041086209311
13150687 139 18193577751683816404
13533116 47 18342458170907450037
1361 2 18334295387502218298
14114206 34 16737235881104660214
14251740 57 17775011128749795958
14347332 77 18341892979371854193
14429115 67 18200313212883733226
14508693 111 16700304629172148447
15001296 14 17845651576884837391
15119646 104 18272092699658188081
15183329 4 18273501174322907829
15274700 256 12685081594142282260
17134984 74 18338237197123487351
17138139 8 17701254973967055404
17818456 19 17770801021238802185
17857418 61 18059855086813794509
1813 80 18271526407819420409
18681886 176 16199886071261295348
19026451 147 18410290277198506754
19315092 285 18129653081372498114
20511986 3 17989202663861629869
20567600 234 11815893475218009217
20567600 247 18341043112506843227
20645477 70 18114757005039464712
20775530 9 17538577513149244178
21285901 2 17530960285116743028
21315764 371 17275105037614015490
23559900 14 15791735187324210506
238 59 18115324370419460144
25222932 49 16773781624007163164
3004659 81 17703237312012796413
3411729 13 15912187901443910424
397830 11 11239710925458663189
4066623 53 16878489159907868845
46194498 28 17967806167795689973
463206 1 18270963552059886923
513532 50 17313094289260541677
57527573 199 15967905889763069912
5951187 136 14924238152439910990
59682541 52 18259976081530581357
6669772 16 17604141648852414064

> <PUBCHEM_SHAPE_MULTIPOLES>
546.39
15.06
3.41
2.26
28.55
1
0.75
6.03
-4.88
-6.3
-0.52
-0.65
-0.11
-1.96

> <PUBCHEM_SHAPE_SELFOVERLAP>
1139.786

> <PUBCHEM_SHAPE_VOLUME>
312.5

> <PUBCHEM_COORDINATE_TYPE>
2
5
10

$$$$
