135464167
  -OEChem-03292013293D

 38 39  0     1  0  0  0  0  0999 V2000
    3.6619   -1.8818   -0.1207 P   0  0  0  0  0  0  0  0  0  0  0  0
    0.8562    1.7431    0.1136 O   0  0  0  0  0  0  0  0  0  0  0  0
    2.4629    3.9879    1.2322 O   0  0  0  0  0  0  0  0  0  0  0  0
    3.3029   -2.8860    1.0856 O   0  0  0  0  0  0  0  0  0  0  0  0
    2.6969   -2.3540   -1.3200 O   0  0  0  0  0  0  0  0  0  0  0  0
    5.1064   -1.7465   -0.4546 O   0  0  0  0  0  0  0  0  0  0  0  0
   -5.2028   -0.5953    0.5926 O   0  0  0  0  0  0  0  0  0  0  0  0
   -1.3376    1.3558   -0.6989 N   0  0  0  0  0  0  0  0  0  0  0  0
   -3.5166    1.6773   -0.3105 N   0  0  0  0  0  0  0  0  0  0  0  0
   -1.1367   -0.9995   -0.1785 N   0  0  0  0  0  0  0  0  0  0  0  0
   -3.2603   -1.8871    0.4870 N   0  0  0  0  0  0  0  0  0  0  0  0
   -1.3522   -3.2642    0.4088 N   0  0  0  0  0  0  0  0  0  0  0  0
    2.2196    2.0531   -0.1678 C   0  0  2  0  0  0  0  0  0  0  0  0
    2.9445    0.7820   -0.6209 C   0  0  0  0  0  0  0  0  0  0  0  0
    2.8930   -0.3380    0.4144 C   0  0  0  0  0  0  0  0  0  0  0  0
    2.8558    2.6264    1.0956 C   0  0  0  0  0  0  0  0  0  0  0  0
    0.0817    1.6719   -1.0779 C   0  0  0  0  0  0  0  0  0  0  0  0
   -1.8366    0.1497   -0.3039 C   0  0  0  0  0  0  0  0  0  0  0  0
   -3.1715    0.3795   -0.0738 C   0  0  0  0  0  0  0  0  0  0  0  0
   -2.3864    2.2429   -0.6872 C   0  0  0  0  0  0  0  0  0  0  0  0
   -4.0051   -0.7058    0.3636 C   0  0  0  0  0  0  0  0  0  0  0  0
   -1.8760   -2.0114    0.2213 C   0  0  0  0  0  0  0  0  0  0  0  0
    2.2691    2.8100   -0.9618 H   0  0  0  0  0  0  0  0  0  0  0  0
    3.9928    1.0136   -0.8456 H   0  0  0  0  0  0  0  0  0  0  0  0
    2.5153    0.4086   -1.5564 H   0  0  0  0  0  0  0  0  0  0  0  0
    3.4039   -0.0319    1.3331 H   0  0  0  0  0  0  0  0  0  0  0  0
    1.8543   -0.5634    0.6791 H   0  0  0  0  0  0  0  0  0  0  0  0
    2.5264    2.0947    1.9939 H   0  0  0  0  0  0  0  0  0  0  0  0
    3.9485    2.6071    1.0343 H   0  0  0  0  0  0  0  0  0  0  0  0
    0.3953    0.8634   -1.7443 H   0  0  0  0  0  0  0  0  0  0  0  0
    0.0573    2.6334   -1.6014 H   0  0  0  0  0  0  0  0  0  0  0  0
   -2.2650    3.2821   -0.9606 H   0  0  0  0  0  0  0  0  0  0  0  0
    2.8840    4.3264    2.0407 H   0  0  0  0  0  0  0  0  0  0  0  0
   -3.7548   -2.7206    0.7918 H   0  0  0  0  0  0  0  0  0  0  0  0
    2.9121   -3.1749   -1.8116 H   0  0  0  0  0  0  0  0  0  0  0  0
    3.6339   -3.8088    1.0538 H   0  0  0  0  0  0  0  0  0  0  0  0
   -0.3692   -3.4520    0.2443 H   0  0  0  0  0  0  0  0  0  0  0  0
   -1.9300   -4.0385    0.7172 H   0  0  0  0  0  0  0  0  0  0  0  0
  1  4  1  0  0  0  0
  1  5  1  0  0  0  0
  1  6  2  0  0  0  0
  1 15  1  0  0  0  0
  2 13  1  0  0  0  0
  2 17  1  0  0  0  0
  3 16  1  0  0  0  0
  3 33  1  0  0  0  0
  4 36  1  0  0  0  0
  5 35  1  0  0  0  0
  7 21  2  0  0  0  0
  8 17  1  0  0  0  0
  8 18  1  0  0  0  0
  8 20  1  0  0  0  0
  9 19  1  0  0  0  0
  9 20  2  0  0  0  0
 10 18  1  0  0  0  0
 10 22  2  0  0  0  0
 11 21  1  0  0  0  0
 11 22  1  0  0  0  0
 11 34  1  0  0  0  0
 12 22  1  0  0  0  0
 12 37  1  0  0  0  0
 12 38  1  0  0  0  0
 13 14  1  0  0  0  0
 13 16  1  0  0  0  0
 13 23  1  0  0  0  0
 14 15  1  0  0  0  0
 14 24  1  0  0  0  0
 14 25  1  0  0  0  0
 15 26  1  0  0  0  0
 15 27  1  0  0  0  0
 16 28  1  0  0  0  0
 16 29  1  0  0  0  0
 17 30  1  0  0  0  0
 17 31  1  0  0  0  0
 18 19  2  0  0  0  0
 19 21  1  0  0  0  0
 20 32  1  0  0  0  0
M  END
> <PUBCHEM_COMPOUND_CID>
135464167

> <PUBCHEM_CONFORMER_RMSD>
0.8

> <PUBCHEM_CONFORMER_DIVERSEORDER>
1
309
305
146
204
295
151
37
125
150
194
104
288
62
143
182
280
169
112
2
277
187
300
58
195
158
29
13
60
100
224
219
228
33
266
156
98
76
87
218
234
84
34
261
298
281
108
89
116
257
73
45
185
16
208
70
233
77
71
8
69
207
56
237
68
154
190
258
113
267
293
80
63
284
99
74
18
57
272
119
282
65
246
202
314
50
304
311
82
193
242
27
199
259
179
283
253
159
139
67
209
152
115
92
110
54
184
49
30
47
21
299
101
94
273
171
26
200
201
296
178
287
226
39
144
81
310
132
107
181
52
198
229
301
126
7
72
162
211
307
145
78
59
214
163
308
216
127
19
9
167
31
61
165
170
302
191
32
103
312
93
220
245
14
53
248
231
5
265
51
120
262
46
96
188
260
102
168
147
264
114
20
278
130
192
166
111
109
44
86
142
133
66
173
164
4
269
23
297
197
55
140
128
230
12
122
121
161
252
141
239
35
95
255
131
135
148
240
205
174
123
306
88
222
17
138
6
183
180
64
289
175
249
91
124
105
3
247
79
196
223
40
136
48
225
263
97
275
251
24
221
213
90
250
117
238
270
206
186
83
274
189
153
11
25
42
254
290
268
176
172
236
10
75
134
22
276
38
244
28
129
243
43
303
177
155
291
285
15
217
271
286
235
36
203
215
227
313
160
118
41
294
232
210
85
137
157
241
256
106
212
149
279
292

> <PUBCHEM_MMFF94_PARTIAL_CHARGES>
27
1 1.24
10 -0.58
11 -0.49
12 -0.85
13 0.28
16 0.28
17 0.54
18 -0.03
19 0.14
2 -0.56
20 0.04
21 0.72
22 0.56
3 -0.68
32 0.15
33 0.4
34 0.37
35 0.5
36 0.5
37 0.4
38 0.4
4 -0.77
5 -0.77
6 -0.7
7 -0.57
8 0.05
9 -0.57

> <PUBCHEM_EFFECTIVE_ROTOR_COUNT>
7

> <PUBCHEM_PHARMACOPHORE_FEATURES>
13
1 11 donor
1 12 donor
1 2 acceptor
1 3 acceptor
1 3 donor
1 4 acceptor
1 5 acceptor
1 6 acceptor
1 7 acceptor
3 8 9 20 cation
4 1 4 5 6 anion
5 8 9 18 19 20 rings
6 10 11 18 19 21 22 rings

> <PUBCHEM_HEAVY_ATOM_COUNT>
22

> <PUBCHEM_ATOM_DEF_STEREO_COUNT>
0

> <PUBCHEM_ATOM_UDEF_STEREO_COUNT>
1

> <PUBCHEM_BOND_DEF_STEREO_COUNT>
0

> <PUBCHEM_BOND_UDEF_STEREO_COUNT>
0

> <PUBCHEM_ISOTOPIC_ATOM_COUNT>
0

> <PUBCHEM_COMPONENT_COUNT>
1

> <PUBCHEM_CACTVS_TAUTO_COUNT>
-1

> <PUBCHEM_CONFORMER_ID>
081304E700000001

> <PUBCHEM_MMFF94_ENERGY>
9.6313

> <PUBCHEM_FEATURE_SELFOVERLAP>
66.188

> <PUBCHEM_SHAPE_FINGERPRINT>
10366900 7 17913481621671050569
10616163 171 18120097435751565102
1100329 8 16104729515685877949
114674 6 18261670463003040538
12506688 2 18339644447711347836
12553582 1 17684939389721084815
12633257 1 18271257027291143817
13140716 1 18408889495442829785
13402501 40 18338801117771348014
13533116 47 18341614862705608393
14178342 30 17976253857017582312
14223421 5 18337950220050908332
14617045 38 18263376917675573126
14866123 147 16973933113171443818
17804303 29 18337113371437831501
1813 80 16950561120759159813
19591789 44 18334858277769247891
19930381 70 18192994807618505103
20600515 1 18050576144888935804
21521239 73 18196061462376763829
22182313 1 18041261237044485301
23559900 14 18336825381017299564
314173 41 18338802204645480436
350125 39 18335989666755194533
5104073 3 18340498845776919083
6433294 58 18409168818361369798
6442390 28 17691968580728078712
6823239 73 18412823565305860250
7364860 26 18341893030578775512
9709674 26 18338232768663714110

> <PUBCHEM_SHAPE_MULTIPOLES>
396.48
8.97
4.18
0.99
0.76
0.39
-0.01
-3.43
-0.93
-3.29
-0.96
-0.56
0.24
1.58

> <PUBCHEM_SHAPE_SELFOVERLAP>
810.721

> <PUBCHEM_SHAPE_VOLUME>
231.6

> <PUBCHEM_COORDINATE_TYPE>
2
5
10

$$$$
