135416505
  -OEChem-03292013293D

 49 52  0     0  0  0  0  0  0999 V2000
   -3.1986   -1.0182   -1.1130 S   0  0  0  0  0  0  0  0  0  0  0  0
    1.0026   -0.3113    0.6669 O   0  0  0  0  0  0  0  0  0  0  0  0
    4.6612    2.7765    0.4171 O   0  0  0  0  0  0  0  0  0  0  0  0
    4.7644   -1.2204   -3.5223 O   0  0  0  0  0  0  0  0  0  0  0  0
    3.7206   -4.0517    2.0761 O   0  0  0  0  0  0  0  0  0  0  0  0
   -0.7369   -1.7790    0.8201 O   0  0  0  0  0  0  0  0  0  0  0  0
    3.7193   -1.0028    0.0054 N   0  0  0  0  0  0  0  0  0  0  0  0
   -3.6863    0.7620    0.6885 N   0  0  0  0  0  0  0  0  0  0  0  0
    3.7660    0.1232    0.9384 C   0  0  0  0  0  0  0  0  0  0  0  0
    2.8388    1.2253    0.5436 C   0  0  0  0  0  0  0  0  0  0  0  0
    4.2425   -2.2126    0.6385 C   0  0  0  0  0  0  0  0  0  0  0  0
    4.4750   -0.6923   -1.2075 C   0  0  0  0  0  0  0  0  0  0  0  0
    1.4715    0.9909    0.4130 C   0  0  0  0  0  0  0  0  0  0  0  0
    0.5874    1.9988    0.0472 C   0  0  0  0  0  0  0  0  0  0  0  0
    3.3309    2.5056    0.3001 C   0  0  0  0  0  0  0  0  0  0  0  0
    4.0176   -1.5672   -2.3636 C   0  0  0  0  0  0  0  0  0  0  0  0
    3.1752   -2.8742    1.4956 C   0  0  0  0  0  0  0  0  0  0  0  0
    1.0885    3.2800   -0.1956 C   0  0  0  0  0  0  0  0  0  0  0  0
   -0.8264    1.6827   -0.0733 C   0  0  0  0  0  0  0  0  0  0  0  0
    2.4578    3.5312   -0.0687 C   0  0  0  0  0  0  0  0  0  0  0  0
   -1.2819    0.4448    0.1727 C   0  0  0  0  0  0  0  0  0  0  0  0
   -0.3468   -0.6422    0.5737 C   0  0  0  0  0  0  0  0  0  0  0  0
   -2.7230    0.1698    0.0220 C   0  0  0  0  0  0  0  0  0  0  0  0
   -4.8489   -0.7393   -0.6985 C   0  0  0  0  0  0  0  0  0  0  0  0
   -4.9118    0.2512    0.2863 C   0  0  0  0  0  0  0  0  0  0  0  0
   -6.0046   -1.3529   -1.2080 C   0  0  0  0  0  0  0  0  0  0  0  0
   -6.1775    0.6395    0.7767 C   0  0  0  0  0  0  0  0  0  0  0  0
   -7.2445   -0.9503   -0.7054 C   0  0  0  0  0  0  0  0  0  0  0  0
   -7.3321    0.0329    0.2740 C   0  0  0  0  0  0  0  0  0  0  0  0
    4.8003    0.4682    1.0663 H   0  0  0  0  0  0  0  0  0  0  0  0
    3.4526   -0.1788    1.9463 H   0  0  0  0  0  0  0  0  0  0  0  0
    4.5600   -2.9600   -0.0983 H   0  0  0  0  0  0  0  0  0  0  0  0
    4.3212    0.3469   -1.5253 H   0  0  0  0  0  0  0  0  0  0  0  0
    5.5586   -0.7856   -1.0531 H   0  0  0  0  0  0  0  0  0  0  0  0
    5.1443   -2.0085    1.2321 H   0  0  0  0  0  0  0  0  0  0  0  0
    2.9556   -1.4047   -2.5784 H   0  0  0  0  0  0  0  0  0  0  0  0
    4.1763   -2.6324   -2.1758 H   0  0  0  0  0  0  0  0  0  0  0  0
    2.3091   -3.1603    0.8889 H   0  0  0  0  0  0  0  0  0  0  0  0
    2.8342   -2.2299    2.3107 H   0  0  0  0  0  0  0  0  0  0  0  0
    0.4258    4.0920   -0.4844 H   0  0  0  0  0  0  0  0  0  0  0  0
   -1.4965    2.4834   -0.3731 H   0  0  0  0  0  0  0  0  0  0  0  0
    2.8305    4.5340   -0.2613 H   0  0  0  0  0  0  0  0  0  0  0  0
    4.8140    3.7142    0.2092 H   0  0  0  0  0  0  0  0  0  0  0  0
    3.0163   -4.4607    2.6075 H   0  0  0  0  0  0  0  0  0  0  0  0
    4.4433   -1.7824   -4.2480 H   0  0  0  0  0  0  0  0  0  0  0  0
   -5.9438   -2.1212   -1.9727 H   0  0  0  0  0  0  0  0  0  0  0  0
   -6.2575    1.4065    1.5419 H   0  0  0  0  0  0  0  0  0  0  0  0
   -8.1514   -1.4127   -1.0862 H   0  0  0  0  0  0  0  0  0  0  0  0
   -8.3052    0.3332    0.6529 H   0  0  0  0  0  0  0  0  0  0  0  0
  1 23  1  0  0  0  0
  1 24  1  0  0  0  0
  2 13  1  0  0  0  0
  2 22  1  0  0  0  0
  3 15  1  0  0  0  0
  3 43  1  0  0  0  0
  4 16  1  0  0  0  0
  4 45  1  0  0  0  0
  5 17  1  0  0  0  0
  5 44  1  0  0  0  0
  6 22  2  0  0  0  0
  7  9  1  0  0  0  0
  7 11  1  0  0  0  0
  7 12  1  0  0  0  0
  8 23  2  0  0  0  0
  8 25  1  0  0  0  0
  9 10  1  0  0  0  0
  9 30  1  0  0  0  0
  9 31  1  0  0  0  0
 10 13  1  0  0  0  0
 10 15  2  0  0  0  0
 11 17  1  0  0  0  0
 11 32  1  0  0  0  0
 11 35  1  0  0  0  0
 12 16  1  0  0  0  0
 12 33  1  0  0  0  0
 12 34  1  0  0  0  0
 13 14  2  0  0  0  0
 14 18  1  0  0  0  0
 14 19  1  0  0  0  0
 15 20  1  0  0  0  0
 16 36  1  0  0  0  0
 16 37  1  0  0  0  0
 17 38  1  0  0  0  0
 17 39  1  0  0  0  0
 18 20  2  0  0  0  0
 18 40  1  0  0  0  0
 19 21  2  0  0  0  0
 19 41  1  0  0  0  0
 20 42  1  0  0  0  0
 21 22  1  0  0  0  0
 21 23  1  0  0  0  0
 24 25  1  0  0  0  0
 24 26  2  0  0  0  0
 25 27  2  0  0  0  0
 26 28  1  0  0  0  0
 26 46  1  0  0  0  0
 27 29  1  0  0  0  0
 27 47  1  0  0  0  0
 28 29  2  0  0  0  0
 28 48  1  0  0  0  0
 29 49  1  0  0  0  0
M  END
> <PUBCHEM_COMPOUND_CID>
135416505

> <PUBCHEM_CONFORMER_RMSD>
0.8

> <PUBCHEM_CONFORMER_DIVERSEORDER>
1
23
8
27
57
39
90
42
19
36
71
37
9
52
7
68
89
60
82
48
35
26
54
2
18
76
65
61
83
67
73
10
72
31
69
38
59
46
43
30
85
58
21
28
45
91
66
20
75
47
78
15
80
77
62
16
5
24
53
4
70
3
50
41
22
29
17
92
40
93
55
6
49
33
56
32
63
11
25
86
84
74
12
51
87
34
13
79
14
81
64
88
44

> <PUBCHEM_MMFF94_PARTIAL_CHARGES>
39
1 -0.08
10 -0.14
11 0.27
12 0.27
13 0.08
14 0.03
15 0.08
16 0.28
17 0.28
18 -0.15
19 -0.18
2 -0.23
20 -0.15
21 0.06
22 0.71
23 0.33
24 0.04
25 0.23
26 -0.15
27 -0.15
28 -0.15
29 -0.15
3 -0.53
4 -0.68
40 0.15
41 0.15
42 0.15
43 0.45
44 0.4
45 0.4
46 0.15
47 0.15
48 0.15
49 0.15
5 -0.68
6 -0.57
7 -0.81
8 -0.57
9 0.41

> <PUBCHEM_EFFECTIVE_ROTOR_COUNT>
7

> <PUBCHEM_PHARMACOPHORE_FEATURES>
12
1 3 donor
1 4 acceptor
1 4 donor
1 5 acceptor
1 5 donor
1 6 acceptor
1 7 cation
1 8 acceptor
5 1 8 23 24 25 rings
6 10 13 14 15 18 20 rings
6 2 13 14 19 21 22 rings
6 24 25 26 27 28 29 rings

> <PUBCHEM_HEAVY_ATOM_COUNT>
29

> <PUBCHEM_ATOM_DEF_STEREO_COUNT>
0

> <PUBCHEM_ATOM_UDEF_STEREO_COUNT>
0

> <PUBCHEM_BOND_DEF_STEREO_COUNT>
0

> <PUBCHEM_BOND_UDEF_STEREO_COUNT>
0

> <PUBCHEM_ISOTOPIC_ATOM_COUNT>
0

> <PUBCHEM_COMPONENT_COUNT>
1

> <PUBCHEM_CACTVS_TAUTO_COUNT>
-1

> <PUBCHEM_CONFORMER_ID>
08124AB900000001

> <PUBCHEM_MMFF94_ENERGY>
80.269

> <PUBCHEM_FEATURE_SELFOVERLAP>
60.996

> <PUBCHEM_SHAPE_FINGERPRINT>
10411042 1 18119238468416129914
10595046 47 18199464549470044889
10906281 52 18118124903745246096
11135609 149 18045189735812666878
11796584 16 16343429521790290165
12107183 9 18196936561679155881
12166972 35 17531806823745907378
12236239 1 18201437017595719233
12422481 6 17060619967341732421
13533116 47 18342735247595154361
1361 2 18273500078304407374
13782708 43 17603578600621452227
13785724 45 18125441912524156331
14347332 77 18337947897075085321
14904525 67 16225765199577506173
15001296 14 18340762736867823463
15183329 4 18202847669349311533
15250474 111 18057025016793355279
15475509 8 18056782947766616333
1577012 14 18059576927947722065
17818456 19 17703519778952782097
17844677 252 18410009919139983873
1813 80 18341051826299063900
20028762 73 18201434766416171543
20645477 70 18272089417939339620
21033648 29 16950828272773889893
21641784 216 17385445393301565741
23522609 53 18119557382575526837
23559900 14 17775290460358178719
23569914 152 17180198312562527207
239999 70 18272090517788531990
29717793 49 18273210915932043277
3004659 81 18059858367757293543
335352 9 18263643021587466580
345986 75 18201430325092531200
397830 11 12175044610682720341
404807 14 16481100218966083807
4073 2 18190460657007507563
4093350 32 17846500356716706218
5104073 3 18202282537657999395
513532 50 18272937150289675788
5372103 7 16590019220004063332
57359948 33 17240752978241288068
6669772 16 18261384611322825170
70251023 43 18129673989367947398
9981440 41 16973065070628290777

> <PUBCHEM_SHAPE_MULTIPOLES>
561.35
16.01
3.62
1.67
27.33
0.53
1.27
-5.8
2.78
-6.95
-1.02
-2.8
-1.75
-0.98

> <PUBCHEM_SHAPE_SELFOVERLAP>
1212.029

> <PUBCHEM_SHAPE_VOLUME>
309.5

> <PUBCHEM_COORDINATE_TYPE>
2
5
10

$$$$
