135411006
  -OEChem-03292013293D

 33 35  0     1  0  0  0  0  0999 V2000
   -2.3302   -0.1752    0.9219 O   0  0  0  0  0  0  0  0  0  0  0  0
   -3.3355    2.5490   -0.0691 O   0  0  0  0  0  0  0  0  0  0  0  0
   -4.3907   -2.0427    0.6300 O   0  0  0  0  0  0  0  0  0  0  0  0
    4.2697   -1.8501   -0.3016 O   0  0  0  0  0  0  0  0  0  0  0  0
   -0.0433   -0.3814    0.0828 N   0  0  0  0  0  0  0  0  0  0  0  0
    1.6449    1.3162    0.2423 N   0  0  0  0  0  0  0  0  0  0  0  0
    3.8478    0.4171    0.0261 N   0  0  0  0  0  0  0  0  0  0  0  0
    3.5233    2.7220    0.3540 N   0  0  0  0  0  0  0  0  0  0  0  0
   -1.2510    0.5052    0.2542 C   0  0  1  0  0  0  0  0  0  0  0  0
   -1.8153    1.0095   -1.0694 C   0  0  0  0  0  0  0  0  0  0  0  0
   -3.2587    1.2798   -0.7139 C   0  0  1  0  0  0  0  0  0  0  0  0
   -3.5765    0.1770    0.2877 C   0  0  1  0  0  0  0  0  0  0  0  0
   -4.1376   -1.0749   -0.3732 C   0  0  0  0  0  0  0  0  0  0  0  0
    1.2622    0.0265    0.0827 C   0  0  0  0  0  0  0  0  0  0  0  0
   -0.0921   -1.7425   -0.1002 C   0  0  0  0  0  0  0  0  0  0  0  0
    2.0513   -1.0890   -0.1032 C   0  0  0  0  0  0  0  0  0  0  0  0
    1.2012   -2.2094   -0.2196 C   0  0  0  0  0  0  0  0  0  0  0  0
    3.4836   -0.9240   -0.1416 C   0  0  0  0  0  0  0  0  0  0  0  0
    2.9468    1.4868    0.2101 C   0  0  0  0  0  0  0  0  0  0  0  0
   -0.9344    1.3293    0.9042 H   0  0  0  0  0  0  0  0  0  0  0  0
   -1.7568    0.2306   -1.8388 H   0  0  0  0  0  0  0  0  0  0  0  0
   -1.2727    1.8902   -1.4269 H   0  0  0  0  0  0  0  0  0  0  0  0
   -3.9214    1.3019   -1.5837 H   0  0  0  0  0  0  0  0  0  0  0  0
   -4.2515    0.5157    1.0816 H   0  0  0  0  0  0  0  0  0  0  0  0
   -3.4242   -1.5087   -1.0811 H   0  0  0  0  0  0  0  0  0  0  0  0
   -5.0749   -0.8553   -0.8936 H   0  0  0  0  0  0  0  0  0  0  0  0
   -1.0356   -2.2698   -0.1356 H   0  0  0  0  0  0  0  0  0  0  0  0
   -4.2612    2.6837    0.1966 H   0  0  0  0  0  0  0  0  0  0  0  0
    1.4869   -3.2406   -0.3733 H   0  0  0  0  0  0  0  0  0  0  0  0
   -4.7490   -2.8297    0.1853 H   0  0  0  0  0  0  0  0  0  0  0  0
    4.8397    0.6364    0.0138 H   0  0  0  0  0  0  0  0  0  0  0  0
    2.9577    3.5525    0.4913 H   0  0  0  0  0  0  0  0  0  0  0  0
    4.5299    2.8423    0.3276 H   0  0  0  0  0  0  0  0  0  0  0  0
  1  9  1  0  0  0  0
  1 12  1  0  0  0  0
  2 11  1  0  0  0  0
  2 28  1  0  0  0  0
  3 13  1  0  0  0  0
  3 30  1  0  0  0  0
  4 18  2  0  0  0  0
  5  9  1  0  0  0  0
  5 14  1  0  0  0  0
  5 15  1  0  0  0  0
  6 14  1  0  0  0  0
  6 19  2  0  0  0  0
  7 18  1  0  0  0  0
  7 19  1  0  0  0  0
  7 31  1  0  0  0  0
  8 19  1  0  0  0  0
  8 32  1  0  0  0  0
  8 33  1  0  0  0  0
  9 10  1  0  0  0  0
  9 20  1  0  0  0  0
 10 11  1  0  0  0  0
 10 21  1  0  0  0  0
 10 22  1  0  0  0  0
 11 12  1  0  0  0  0
 11 23  1  0  0  0  0
 12 13  1  0  0  0  0
 12 24  1  0  0  0  0
 13 25  1  0  0  0  0
 13 26  1  0  0  0  0
 14 16  2  0  0  0  0
 15 17  2  0  0  0  0
 15 27  1  0  0  0  0
 16 17  1  0  0  0  0
 16 18  1  0  0  0  0
 17 29  1  0  0  0  0
M  END
> <PUBCHEM_COMPOUND_CID>
135411006

> <PUBCHEM_CONFORMER_RMSD>
0.6

> <PUBCHEM_CONFORMER_DIVERSEORDER>
1
8
13
9
6
15
10
12
11
3
2
7
5
14
4

> <PUBCHEM_MMFF94_PARTIAL_CHARGES>
25
1 -0.56
11 0.28
12 0.28
13 0.28
14 -0.03
15 -0.3
16 -0.09
17 -0.15
18 0.72
19 0.56
2 -0.68
27 0.15
28 0.4
29 0.15
3 -0.68
30 0.4
31 0.37
32 0.4
33 0.4
4 -0.57
5 0.05
6 -0.58
7 -0.49
8 -0.85
9 0.54

> <PUBCHEM_EFFECTIVE_ROTOR_COUNT>
3

> <PUBCHEM_PHARMACOPHORE_FEATURES>
12
1 1 acceptor
1 2 acceptor
1 2 donor
1 3 acceptor
1 3 donor
1 4 acceptor
1 5 cation
1 7 donor
1 8 donor
5 1 9 10 11 12 rings
5 5 14 15 16 17 rings
6 6 7 14 16 18 19 rings

> <PUBCHEM_HEAVY_ATOM_COUNT>
19

> <PUBCHEM_ATOM_DEF_STEREO_COUNT>
3

> <PUBCHEM_ATOM_UDEF_STEREO_COUNT>
0

> <PUBCHEM_BOND_DEF_STEREO_COUNT>
0

> <PUBCHEM_BOND_UDEF_STEREO_COUNT>
0

> <PUBCHEM_ISOTOPIC_ATOM_COUNT>
0

> <PUBCHEM_COMPONENT_COUNT>
1

> <PUBCHEM_CACTVS_TAUTO_COUNT>
-1

> <PUBCHEM_CONFORMER_ID>
0812353E00000001

> <PUBCHEM_MMFF94_ENERGY>
41.4428

> <PUBCHEM_FEATURE_SELFOVERLAP>
61.063

> <PUBCHEM_SHAPE_FINGERPRINT>
10366900 7 17822016388934864410
10608611 8 18336543833046840869
11405975 8 18338233765391721121
11471102 20 18340483366329746156
11615757 297 18202285788093673563
12403259 226 18408600336284245556
12403259 415 18408323293460745684
12403260 363 18409157818601841746
12500047 106 18116992179124171165
12507557 5 18341045220908212608
12916754 54 18413110563141118819
13140716 1 18337384946488655016
13583140 156 17387386061003504498
13675066 3 17988915639934372074
15196674 1 18410855451543508468
15219456 202 18408322168289921417
16945 1 18270402681392928166
18186145 218 18202290182082561520
19591789 44 18411136948116992134
19930381 70 18195523920722780449
200 152 18131343099426539655
20449540 30 18272091578550703617
20645477 70 18272083855666599686
20681677 76 18335696148310286845
21065198 57 18337953389894943853
21524375 3 18268991050048987650
21709351 56 18341044125559703070
221490 88 18410860953528886202
22854114 111 18411981360330429540
23402539 116 17022905596989820270
23557571 272 17676207940557610901
23559900 14 18266733597805419162
25 1 18264767666883148374
2748010 2 18339931527620334246
2838139 119 15194703754198309864
2871803 45 18334850641486499527
296302 2 9295282850517485174
3286 77 18408040697761042262
335352 9 18194964032805916300
350125 39 18411141380728456638
4214541 1 18338517439502411237
5104073 3 18410572868502205089
5283173 99 18041825248239885869
6333272 397 18337388361124525904
77779 3 18411419501251358565
9709674 26 18410860927928127879

> <PUBCHEM_SHAPE_MULTIPOLES>
347.61
8.56
2.56
0.76
1.64
0.5
0.05
-0.02
-0.1
-0.59
-0.03
0.38
0.04
0.86

> <PUBCHEM_SHAPE_SELFOVERLAP>
754.735

> <PUBCHEM_SHAPE_VOLUME>
189.2

> <PUBCHEM_COORDINATE_TYPE>
2
5
10

$$$$
