135415187
  -OEChem-03292013293D

 65 67  0     1  0  0  0  0  0999 V2000
    0.9456    1.3281   -0.9234 S   0  0  0  0  0  0  0  0  0  0  0  0
   -1.7063   -2.2046    1.9099 S   0  0  0  0  0  0  0  0  0  0  0  0
    4.6413   -0.6051    1.8275 O   0  0  0  0  0  0  0  0  0  0  0  0
    4.4105   -2.4063   -0.8327 O   0  0  0  0  0  0  0  0  0  0  0  0
    4.6045   -1.0357   -2.6170 O   0  0  0  0  0  0  0  0  0  0  0  0
   -3.2968   -3.5972   -0.5237 O   0  0  0  0  0  0  0  0  0  0  0  0
    2.0723    0.5174    1.3890 N   0  0  2  0  0  0  0  0  0  0  0  0
   -1.3152   -0.4095    0.0716 N   0  0  0  0  0  0  0  0  0  0  0  0
    3.0136    0.2188    0.2820 C   0  0  2  0  0  0  0  0  0  0  0  0
    0.7394    0.7091    0.7795 C   0  0  2  0  0  0  0  0  0  0  0  0
    4.4929    0.2149    0.6709 C   0  0  2  0  0  0  0  0  0  0  0  0
    2.7450    1.1816   -0.8771 C   0  0  0  0  0  0  0  0  0  0  0  0
    5.4517   -0.2479   -0.4586 C   0  0  0  0  0  0  0  0  0  0  0  0
   -0.0187   -0.6179    0.7523 C   0  0  1  0  0  0  0  0  0  0  0  0
    2.4499    1.6823    2.1924 C   0  0  0  0  0  0  0  0  0  0  0  0
   -0.2661   -1.1532    2.1562 C   0  0  0  0  0  0  0  0  0  0  0  0
    6.7060   -0.9184    0.1363 C   0  0  0  0  0  0  0  0  0  0  0  0
    5.9231    0.9781   -1.2709 C   0  0  0  0  0  0  0  0  0  0  0  0
    4.7846   -1.2422   -1.4224 C   0  0  0  0  0  0  0  0  0  0  0  0
   -2.2092   -1.2129    0.5556 C   0  0  0  0  0  0  0  0  0  0  0  0
   -3.5939   -1.2812    0.0326 C   0  0  0  0  0  0  0  0  0  0  0  0
   -4.4120   -0.1517    0.0597 C   0  0  0  0  0  0  0  0  0  0  0  0
   -3.9199    1.1475    0.6094 C   0  0  0  0  0  0  0  0  0  0  0  0
   -4.0788   -2.4813   -0.4874 C   0  0  0  0  0  0  0  0  0  0  0  0
   -3.5010    2.1702   -0.4608 C   0  0  0  0  0  0  0  0  0  0  0  0
   -5.7150   -0.2222   -0.4335 C   0  0  0  0  0  0  0  0  0  0  0  0
   -2.9389    3.4627    0.1392 C   0  0  0  0  0  0  0  0  0  0  0  0
   -5.3817   -2.5519   -0.9806 C   0  0  0  0  0  0  0  0  0  0  0  0
   -6.1998   -1.4222   -0.9538 C   0  0  0  0  0  0  0  0  0  0  0  0
   -2.5109    4.4407   -0.9555 C   0  0  0  0  0  0  0  0  0  0  0  0
   -1.9163    5.7101   -0.3666 C   0  0  0  0  0  0  0  0  0  0  0  0
    2.7434   -0.7978   -0.0258 H   0  0  0  0  0  0  0  0  0  0  0  0
    0.1399    1.4471    1.3276 H   0  0  0  0  0  0  0  0  0  0  0  0
    4.7901    1.2247    0.9825 H   0  0  0  0  0  0  0  0  0  0  0  0
    3.1716    2.1748   -0.7084 H   0  0  0  0  0  0  0  0  0  0  0  0
    3.0630    0.8038   -1.8477 H   0  0  0  0  0  0  0  0  0  0  0  0
    0.5392   -1.3685    0.1727 H   0  0  0  0  0  0  0  0  0  0  0  0
    1.6887    1.8734    2.9583 H   0  0  0  0  0  0  0  0  0  0  0  0
    2.5641    2.5947    1.5977 H   0  0  0  0  0  0  0  0  0  0  0  0
    3.3770    1.5066    2.7460 H   0  0  0  0  0  0  0  0  0  0  0  0
    0.5837   -1.7178    2.5492 H   0  0  0  0  0  0  0  0  0  0  0  0
   -0.5297   -0.3583    2.8615 H   0  0  0  0  0  0  0  0  0  0  0  0
    6.3977    1.7230   -0.6218 H   0  0  0  0  0  0  0  0  0  0  0  0
    6.6690    0.6822   -2.0194 H   0  0  0  0  0  0  0  0  0  0  0  0
    5.1250    1.4776   -1.8216 H   0  0  0  0  0  0  0  0  0  0  0  0
    7.4048   -1.2077   -0.6583 H   0  0  0  0  0  0  0  0  0  0  0  0
    6.4699   -1.8369    0.6850 H   0  0  0  0  0  0  0  0  0  0  0  0
    7.2385   -0.2403    0.8127 H   0  0  0  0  0  0  0  0  0  0  0  0
    5.4496   -0.3260    2.2901 H   0  0  0  0  0  0  0  0  0  0  0  0
    3.9915   -3.0216   -1.4714 H   0  0  0  0  0  0  0  0  0  0  0  0
   -4.7272    1.5903    1.2104 H   0  0  0  0  0  0  0  0  0  0  0  0
   -3.1098    1.0069    1.3334 H   0  0  0  0  0  0  0  0  0  0  0  0
   -4.3638    2.4103   -1.0951 H   0  0  0  0  0  0  0  0  0  0  0  0
   -2.7484    1.7212   -1.1207 H   0  0  0  0  0  0  0  0  0  0  0  0
   -6.3633    0.6500   -0.4194 H   0  0  0  0  0  0  0  0  0  0  0  0
   -3.6963    3.9304    0.7794 H   0  0  0  0  0  0  0  0  0  0  0  0
   -2.0782    3.2239    0.7759 H   0  0  0  0  0  0  0  0  0  0  0  0
   -5.7730   -3.4800   -1.3887 H   0  0  0  0  0  0  0  0  0  0  0  0
   -7.2141   -1.4770   -1.3380 H   0  0  0  0  0  0  0  0  0  0  0  0
   -3.3735    4.7015   -1.5797 H   0  0  0  0  0  0  0  0  0  0  0  0
   -1.7685    3.9675   -1.6087 H   0  0  0  0  0  0  0  0  0  0  0  0
   -3.8037   -4.3282   -0.9171 H   0  0  0  0  0  0  0  0  0  0  0  0
   -1.0301    5.4852    0.2354 H   0  0  0  0  0  0  0  0  0  0  0  0
   -1.6188    6.3957   -1.1662 H   0  0  0  0  0  0  0  0  0  0  0  0
   -2.6430    6.2250    0.2699 H   0  0  0  0  0  0  0  0  0  0  0  0
  1 10  1  0  0  0  0
  1 12  1  0  0  0  0
  2 16  1  0  0  0  0
  2 20  1  0  0  0  0
  3 11  1  0  0  0  0
  3 49  1  0  0  0  0
  4 19  1  0  0  0  0
  4 50  1  0  0  0  0
  5 19  2  0  0  0  0
  6 24  1  0  0  0  0
  6 62  1  0  0  0  0
  7  9  1  0  0  0  0
  7 10  1  0  0  0  0
  7 15  1  0  0  0  0
  8 14  1  0  0  0  0
  8 20  2  0  0  0  0
  9 11  1  0  0  0  0
  9 12  1  0  0  0  0
  9 32  1  0  0  0  0
 10 14  1  0  0  0  0
 10 33  1  0  0  0  0
 11 13  1  0  0  0  0
 11 34  1  0  0  0  0
 12 35  1  0  0  0  0
 12 36  1  0  0  0  0
 13 17  1  0  0  0  0
 13 18  1  0  0  0  0
 13 19  1  0  0  0  0
 14 16  1  0  0  0  0
 14 37  1  0  0  0  0
 15 38  1  0  0  0  0
 15 39  1  0  0  0  0
 15 40  1  0  0  0  0
 16 41  1  0  0  0  0
 16 42  1  0  0  0  0
 17 46  1  0  0  0  0
 17 47  1  0  0  0  0
 17 48  1  0  0  0  0
 18 43  1  0  0  0  0
 18 44  1  0  0  0  0
 18 45  1  0  0  0  0
 20 21  1  0  0  0  0
 21 22  2  0  0  0  0
 21 24  1  0  0  0  0
 22 23  1  0  0  0  0
 22 26  1  0  0  0  0
 23 25  1  0  0  0  0
 23 51  1  0  0  0  0
 23 52  1  0  0  0  0
 24 28  2  0  0  0  0
 25 27  1  0  0  0  0
 25 53  1  0  0  0  0
 25 54  1  0  0  0  0
 26 29  2  0  0  0  0
 26 55  1  0  0  0  0
 27 30  1  0  0  0  0
 27 56  1  0  0  0  0
 27 57  1  0  0  0  0
 28 29  1  0  0  0  0
 28 58  1  0  0  0  0
 29 59  1  0  0  0  0
 30 31  1  0  0  0  0
 30 60  1  0  0  0  0
 30 61  1  0  0  0  0
 31 63  1  0  0  0  0
 31 64  1  0  0  0  0
 31 65  1  0  0  0  0
M  END
> <PUBCHEM_COMPOUND_CID>
135415187

> <PUBCHEM_CONFORMER_RMSD>
1.2

> <PUBCHEM_CONFORMER_DIVERSEORDER>
1
88
51
14
142
136
171
123
137
193
68
203
66
118
115
133
181
139
30
148
89
162
80
86
10
58
53
177
39
192
151
179
186
98
127
101
19
209
220
190
106
169
143
212
36
130
164
107
91
63
213
113
55
46
182
103
93
48
204
175
196
92
83
21
195
154
125
146
205
57
215
78
155
191
12
95
167
120
104
211
33
210
22
132
219
218
75
38
129
67
28
7
79
52
44
97
126
81
128
20
198
150
172
168
71
108
134
96
188
160
50
16
185
141
158
6
207
114
112
206
122
201
18
102
116
119
87
214
40
47
180
99
29
121
64
70
4
208
216
110
45
100
197
27
124
189
105
74
73
152
159
82
42
35
61
76
56
184
163
170
23
90
149
84
24
9
140
31
117
131
200
147
54
187
60
65
165
144
138
166
173
217
77
199
15
26
176
34
153
156
69
59
32
135
109
25
43
157
13
94
178
111
8
37
62
202
174
161
72
3
145
85
49
5
183
17
41
2
11
194

> <PUBCHEM_MMFF94_PARTIAL_CHARGES>
31
1 -0.46
10 0.5
11 0.28
12 0.23
13 0.06
14 0.25
15 0.27
16 0.23
19 0.66
2 -0.37
20 0.5
21 0.09
22 -0.14
23 0.14
24 0.08
26 -0.15
28 -0.15
29 -0.15
3 -0.68
4 -0.65
49 0.4
5 -0.57
50 0.5
55 0.15
58 0.15
59 0.15
6 -0.53
62 0.45
7 -0.81
8 -0.7
9 0.27

> <PUBCHEM_EFFECTIVE_ROTOR_COUNT>
10.6

> <PUBCHEM_PHARMACOPHORE_FEATURES>
14
1 3 acceptor
1 3 donor
1 31 hydrophobe
1 4 acceptor
1 5 acceptor
1 6 donor
1 7 cation
1 8 acceptor
3 13 17 18 hydrophobe
3 4 5 19 anion
4 23 25 27 30 hydrophobe
5 1 7 9 10 12 rings
5 2 8 14 16 20 rings
6 21 22 24 26 28 29 rings

> <PUBCHEM_HEAVY_ATOM_COUNT>
31

> <PUBCHEM_ATOM_DEF_STEREO_COUNT>
4

> <PUBCHEM_ATOM_UDEF_STEREO_COUNT>
0

> <PUBCHEM_BOND_DEF_STEREO_COUNT>
0

> <PUBCHEM_BOND_UDEF_STEREO_COUNT>
0

> <PUBCHEM_ISOTOPIC_ATOM_COUNT>
0

> <PUBCHEM_COMPONENT_COUNT>
1

> <PUBCHEM_CACTVS_TAUTO_COUNT>
-1

> <PUBCHEM_CONFORMER_ID>
0812459300000001

> <PUBCHEM_MMFF94_ENERGY>
86.7494

> <PUBCHEM_FEATURE_SELFOVERLAP>
71.107

> <PUBCHEM_SHAPE_FINGERPRINT>
10670039 82 18187642475203055833
10815517 723 18261962847234086789
11796584 16 18201439211617690842
11828532 37 18191308380831705927
12166972 35 16486977331690471242
12788726 201 18260545610867933313
12977781 61 17700425676064682364
13533116 47 15913049858889479946
13617811 41 18409441518910026503
13782708 43 17632573903003124551
14068700 675 18333724741363593797
14294032 229 18265614278648927849
14347332 77 18410853252820907463
14910302 57 18130781283128368931
14955137 171 18190756404703861803
15021287 119 16082212875565916536
15183329 4 18407478868694286914
15419008 42 17771060489171398454
15420108 30 17756979017953719577
15961568 22 18121205739152016376
19311894 1 18196938759927269193
19958102 18 18271804597225621815
20775438 99 17042022033343990391
21033650 10 18190762859480538068
21987440 362 17180536875326924149
22122407 14 14707209885817985919
23559900 14 18269268143985009393
244849 19 17773571894052172000
3004659 81 18411135879181520066
3610482 184 17969811629581005788
437795 70 18411141337768299185
46194498 28 18201997780989073104
508706 21 18342460318174892199
5283173 99 18339365137371975448
531348 171 18339081475761078131
550186 7 18271241608601592973
59755656 215 18411411805018448767
59755656 520 17986120608668720313
6608658 132 18187080620735430965

> <PUBCHEM_SHAPE_MULTIPOLES>
612.23
15.3
4.66
1.77
10.24
7.52
0.38
-7.28
-5.95
-7.38
-0.99
1.77
-0.56
0.16

> <PUBCHEM_SHAPE_SELFOVERLAP>
1247.078

> <PUBCHEM_SHAPE_VOLUME>
359.6

> <PUBCHEM_COORDINATE_TYPE>
2
5
10

$$$$
