135403803
  -OEChem-03292013293D

 20 21  0     0  0  0  0  0  0999 V2000
   -0.9911   -2.6232    0.0003 O   0  0  0  0  0  0  0  0  0  0  0  0
    3.4567   -1.4503   -0.0004 O   0  0  0  0  0  0  0  0  0  0  0  0
    4.2185    0.6912   -0.0002 O   0  0  0  0  0  0  0  0  0  0  0  0
   -2.6301   -0.9838    0.0004 N   0  0  0  0  0  0  0  0  0  0  0  0
    0.9757   -0.7459   -0.0001 N   0  0  0  0  0  0  0  0  0  0  0  0
   -2.0915    1.3111    0.0001 N   0  0  0  0  0  0  0  0  0  0  0  0
    0.1649    1.9452    0.0005 N   0  0  0  0  0  0  0  0  0  0  0  0
   -4.3330    0.6202   -0.0012 N   0  0  0  0  0  0  0  0  0  0  0  0
   -0.3195   -0.3757    0.0003 C   0  0  0  0  0  0  0  0  0  0  0  0
   -0.7370    0.9420    0.0003 C   0  0  0  0  0  0  0  0  0  0  0  0
   -1.3232   -1.4446    0.0004 C   0  0  0  0  0  0  0  0  0  0  0  0
   -2.9877    0.3624   -0.0001 C   0  0  0  0  0  0  0  0  0  0  0  0
    1.8640    0.2660    0.0000 C   0  0  0  0  0  0  0  0  0  0  0  0
    1.4663    1.5860    0.0003 C   0  0  0  0  0  0  0  0  0  0  0  0
    3.2672   -0.1007   -0.0004 C   0  0  0  0  0  0  0  0  0  0  0  0
   -3.3753   -1.6741    0.0003 H   0  0  0  0  0  0  0  0  0  0  0  0
    2.1708    2.4097    0.0005 H   0  0  0  0  0  0  0  0  0  0  0  0
   -4.6855    1.5711   -0.0018 H   0  0  0  0  0  0  0  0  0  0  0  0
   -5.0154   -0.1300   -0.0015 H   0  0  0  0  0  0  0  0  0  0  0  0
    4.4094   -1.6845   -0.0005 H   0  0  0  0  0  0  0  0  0  0  0  0
  1 11  2  0  0  0  0
  2 15  1  0  0  0  0
  2 20  1  0  0  0  0
  3 15  2  0  0  0  0
  4 11  1  0  0  0  0
  4 12  1  0  0  0  0
  4 16  1  0  0  0  0
  5  9  2  0  0  0  0
  5 13  1  0  0  0  0
  6 10  1  0  0  0  0
  6 12  2  0  0  0  0
  7 10  2  0  0  0  0
  7 14  1  0  0  0  0
  8 12  1  0  0  0  0
  8 18  1  0  0  0  0
  8 19  1  0  0  0  0
  9 10  1  0  0  0  0
  9 11  1  0  0  0  0
 13 14  2  0  0  0  0
 13 15  1  0  0  0  0
 14 17  1  0  0  0  0
M  END
> <PUBCHEM_COMPOUND_CID>
135403803

> <PUBCHEM_CONFORMER_RMSD>
0.4

> <PUBCHEM_CONFORMER_DIVERSEORDER>
1
2
3

> <PUBCHEM_MMFF94_PARTIAL_CHARGES>
20
1 -0.57
10 0.49
11 0.54
12 0.56
13 0.4
14 0.16
15 0.63
16 0.37
17 0.15
18 0.4
19 0.4
2 -0.65
20 0.5
3 -0.57
4 -0.49
5 -0.62
6 -0.63
7 -0.62
8 -0.85
9 0.4

> <PUBCHEM_EFFECTIVE_ROTOR_COUNT>
1

> <PUBCHEM_PHARMACOPHORE_FEATURES>
10
1 1 acceptor
1 2 acceptor
1 3 acceptor
1 4 donor
1 5 acceptor
1 8 donor
3 2 3 15 anion
3 6 7 10 cation
6 4 6 9 10 11 12 rings
6 5 7 9 10 13 14 rings

> <PUBCHEM_HEAVY_ATOM_COUNT>
15

> <PUBCHEM_ATOM_DEF_STEREO_COUNT>
0

> <PUBCHEM_ATOM_UDEF_STEREO_COUNT>
0

> <PUBCHEM_BOND_DEF_STEREO_COUNT>
0

> <PUBCHEM_BOND_UDEF_STEREO_COUNT>
0

> <PUBCHEM_ISOTOPIC_ATOM_COUNT>
0

> <PUBCHEM_COMPONENT_COUNT>
1

> <PUBCHEM_CACTVS_TAUTO_COUNT>
-1

> <PUBCHEM_CONFORMER_ID>
0812191B00000001

> <PUBCHEM_MMFF94_ENERGY>
39.9834

> <PUBCHEM_FEATURE_SELFOVERLAP>
50.907

> <PUBCHEM_SHAPE_FINGERPRINT>
10608611 8 18340763853205879656
10967382 1 18410856529738711202
11132069 177 18411132541601352544
11471102 20 18410569565730479909
12032990 46 18410017615093247555
13221675 6 18408040714661316891
13380535 76 18341895181887996527
13690532 89 18410291389446752073
14115302 16 18261403260139240396
14144814 61 18410293609918535466
14325111 11 18410855430258770916
14911166 2 18411135835735871133
14993402 34 18410011022387143469
15196674 1 18410856559692692999
15775835 57 18259985963649000985
16945 1 18410856594031338853
18511873 20 18335138708604539017
193761 8 17978229688013309733
20201158 50 18343585135470180126
20510252 161 18200593588180531208
20511035 2 18056757856377795084
20528008 55 18343578551454152856
20588541 1 18413673495687674702
20645476 183 17896059773834077654
20871998 184 18201161060692148191
21267235 1 18337963307069590258
21501502 16 18193839472855146636
2334 1 17978511158636855428
23402539 116 18272360958593365261
23402655 69 18269260293544713981
23463225 33 18408886209349567838
23552423 10 18045783656669790348
23559900 14 18342175584014173168
2748010 2 18122905596922742957
3312278 4 18338803419926104850
34934 24 18410567422958355122
366044 4 18409729552159035267
43471831 8 18191586346023498883
5104073 3 18410574002389402050
528886 8 18411414012072001945
53812653 166 18413385440689301848
54173680 148 18265616670233002835
69090 78 18341608226659369775
7364860 26 18125158492264942192
74978 22 18338233893945178093
8809292 202 18335142037209702242
9709674 26 18341618148166186214

> <PUBCHEM_SHAPE_MULTIPOLES>
266.18
6.22
1.97
0.57
1.24
0.61
0
-0.3
0
-0.27
0
0
-0.01
0

> <PUBCHEM_SHAPE_SELFOVERLAP>
584.424

> <PUBCHEM_SHAPE_VOLUME>
141.7

> <PUBCHEM_COORDINATE_TYPE>
2
5
10

$$$$
