135491415
  -OEChem-03292013293D

 34 36  0     1  0  0  0  0  0999 V2000
   -2.2359   -0.4079    0.9927 O   0  0  0  0  0  0  0  0  0  0  0  0
   -3.4077    2.3197    0.3243 O   0  0  0  0  0  0  0  0  0  0  0  0
   -4.2027   -2.3572    0.5711 O   0  0  0  0  0  0  0  0  0  0  0  0
    4.2604   -1.9293   -0.4343 O   0  0  0  0  0  0  0  0  0  0  0  0
    0.0344   -0.4282    0.1165 N   0  0  0  0  0  0  0  0  0  0  0  0
   -1.2026    2.1631   -1.3956 N   0  0  0  0  0  0  0  0  0  0  0  0
    1.3044   -2.2100   -0.3465 N   0  0  0  0  0  0  0  0  0  0  0  0
    1.7373    1.2669    0.4090 N   0  0  0  0  0  0  0  0  0  0  0  0
    3.9148    0.3208    0.0866 N   0  0  0  0  0  0  0  0  0  0  0  0
    3.6601    2.6023    0.6094 N   0  0  0  0  0  0  0  0  0  0  0  0
   -1.8455    0.9504   -0.9118 C   0  0  1  0  0  0  0  0  0  0  0  0
   -1.2098    0.3903    0.3623 C   0  0  1  0  0  0  0  0  0  0  0  0
   -3.2896    1.1408   -0.4728 C   0  0  1  0  0  0  0  0  0  0  0  0
   -3.5192   -0.0732    0.4214 C   0  0  1  0  0  0  0  0  0  0  0  0
   -4.0332   -1.2865   -0.3412 C   0  0  0  0  0  0  0  0  0  0  0  0
    1.3268    0.0061    0.1479 C   0  0  0  0  0  0  0  0  0  0  0  0
    0.0726   -1.7678   -0.1851 C   0  0  0  0  0  0  0  0  0  0  0  0
    2.0791   -1.1071   -0.1392 C   0  0  0  0  0  0  0  0  0  0  0  0
    3.5105   -0.9934   -0.1868 C   0  0  0  0  0  0  0  0  0  0  0  0
    3.0456    1.4002    0.3722 C   0  0  0  0  0  0  0  0  0  0  0  0
   -1.8110    0.1939   -1.7063 H   0  0  0  0  0  0  0  0  0  0  0  0
   -0.9203    1.1708    1.0769 H   0  0  0  0  0  0  0  0  0  0  0  0
   -3.9918    1.2232   -1.3079 H   0  0  0  0  0  0  0  0  0  0  0  0
   -4.1880    0.1481    1.2609 H   0  0  0  0  0  0  0  0  0  0  0  0
   -3.3208   -1.6130   -1.1052 H   0  0  0  0  0  0  0  0  0  0  0  0
   -4.9966   -1.0715   -0.8138 H   0  0  0  0  0  0  0  0  0  0  0  0
   -1.6827    2.4954   -2.2307 H   0  0  0  0  0  0  0  0  0  0  0  0
   -0.2443    1.9576   -1.6738 H   0  0  0  0  0  0  0  0  0  0  0  0
   -4.3328    2.3797    0.6179 H   0  0  0  0  0  0  0  0  0  0  0  0
   -0.8233   -2.3663   -0.2772 H   0  0  0  0  0  0  0  0  0  0  0  0
   -4.5332   -3.1175    0.0629 H   0  0  0  0  0  0  0  0  0  0  0  0
    4.9124    0.5130    0.0788 H   0  0  0  0  0  0  0  0  0  0  0  0
    3.1210    3.4344    0.8226 H   0  0  0  0  0  0  0  0  0  0  0  0
    4.6695    2.6955    0.5787 H   0  0  0  0  0  0  0  0  0  0  0  0
  1 12  1  0  0  0  0
  1 14  1  0  0  0  0
  2 13  1  0  0  0  0
  2 29  1  0  0  0  0
  3 15  1  0  0  0  0
  3 31  1  0  0  0  0
  4 19  2  0  0  0  0
  5 12  1  0  0  0  0
  5 16  1  0  0  0  0
  5 17  1  0  0  0  0
  6 11  1  0  0  0  0
  6 27  1  0  0  0  0
  6 28  1  0  0  0  0
  7 17  2  0  0  0  0
  7 18  1  0  0  0  0
  8 16  1  0  0  0  0
  8 20  2  0  0  0  0
  9 19  1  0  0  0  0
  9 20  1  0  0  0  0
  9 32  1  0  0  0  0
 10 20  1  0  0  0  0
 10 33  1  0  0  0  0
 10 34  1  0  0  0  0
 11 12  1  0  0  0  0
 11 13  1  0  0  0  0
 11 21  1  0  0  0  0
 12 22  1  0  0  0  0
 13 14  1  0  0  0  0
 13 23  1  0  0  0  0
 14 15  1  0  0  0  0
 14 24  1  0  0  0  0
 15 25  1  0  0  0  0
 15 26  1  0  0  0  0
 16 18  2  0  0  0  0
 17 30  1  0  0  0  0
 18 19  1  0  0  0  0
M  END
> <PUBCHEM_COMPOUND_CID>
135491415

> <PUBCHEM_CONFORMER_RMSD>
0.6

> <PUBCHEM_CONFORMER_DIVERSEORDER>
1
9
15
6
14
4
13
5
10
2
12
3
11
16
8
7

> <PUBCHEM_MMFF94_PARTIAL_CHARGES>
28
1 -0.56
10 -0.85
11 0.27
12 0.54
13 0.28
14 0.28
15 0.28
16 -0.03
17 0.04
18 0.14
19 0.72
2 -0.68
20 0.56
27 0.36
28 0.36
29 0.4
3 -0.68
30 0.15
31 0.4
32 0.37
33 0.4
34 0.4
4 -0.57
5 0.05
6 -0.99
7 -0.57
8 -0.58
9 -0.49

> <PUBCHEM_EFFECTIVE_ROTOR_COUNT>
3

> <PUBCHEM_PHARMACOPHORE_FEATURES>
14
1 1 acceptor
1 10 donor
1 2 acceptor
1 2 donor
1 3 acceptor
1 3 donor
1 4 acceptor
1 6 cation
1 6 donor
1 9 donor
3 5 7 17 cation
5 1 11 12 13 14 rings
5 5 7 16 17 18 rings
6 8 9 16 18 19 20 rings

> <PUBCHEM_HEAVY_ATOM_COUNT>
20

> <PUBCHEM_ATOM_DEF_STEREO_COUNT>
4

> <PUBCHEM_ATOM_UDEF_STEREO_COUNT>
0

> <PUBCHEM_BOND_DEF_STEREO_COUNT>
0

> <PUBCHEM_BOND_UDEF_STEREO_COUNT>
0

> <PUBCHEM_ISOTOPIC_ATOM_COUNT>
0

> <PUBCHEM_COMPONENT_COUNT>
1

> <PUBCHEM_CACTVS_TAUTO_COUNT>
-1

> <PUBCHEM_CONFORMER_ID>
08136F5700000001

> <PUBCHEM_MMFF94_ENERGY>
43.2947

> <PUBCHEM_FEATURE_SELFOVERLAP>
71.234

> <PUBCHEM_SHAPE_FINGERPRINT>
10366900 7 17895199878674390434
10608611 8 18409445847609144133
11132069 177 18186235139169387189
11405975 8 18339643339198179809
11471102 20 18341890732612834756
11615757 297 18131635568934063154
12403259 226 18408881807097688812
12403259 415 18409449189183358236
12403260 363 18410001144115375978
12507557 5 18342453695403614018
12623949 98 17987258774664803615
12633257 1 18191581947992454881
12916754 54 18341897393906826259
12969540 114 17606945215200214077
13134695 92 17273962563750027112
13140716 1 18337666430028725152
14289901 80 18271803540541827963
15196674 1 18411700984580471048
15219456 202 18409728443551070697
18175812 5 18408886209228190301
18186145 218 18131641071092974872
19591789 44 18411981373136814406
19930381 70 18125717031223829305
200 152 17988635281844317703
20645477 56 18189619341860713301
20681677 76 18408597067634791693
21065198 57 18339361868511206769
221490 88 18411986857846786154
23402539 116 17531248314018121231
23557571 272 18113056021922632101
23559900 14 18339355250130400394
2748010 2 18336537257720988172
2871803 45 18335695066353379919
3286 77 18411700980549287044
350125 39 18340208587196513322
5104073 3 18411699872183987802
5283173 99 18041824144343626517
77779 3 18413109454844306121
81228 2 17548392148690388218
9709674 26 18408608092821342811

> <PUBCHEM_SHAPE_MULTIPOLES>
358.23
8.38
2.62
0.85
0.08
0.29
0.1
-0.7
-0.51
-0.2
0.1
0.34
0.21
1.05

> <PUBCHEM_SHAPE_SELFOVERLAP>
776.487

> <PUBCHEM_SHAPE_VOLUME>
192.3

> <PUBCHEM_COORDINATE_TYPE>
2
5
10

$$$$
