135484485
  -OEChem-03292013293D

 34 36  0     1  0  0  0  0  0999 V2000
   -3.6312    0.4729    2.0578 O   0  0  0  0  0  0  0  0  0  0  0  0
   -4.1667    0.5042   -2.2896 O   0  0  0  0  0  0  0  0  0  0  0  0
    4.6332   -0.0355   -0.3325 O   0  0  0  0  0  0  0  0  0  0  0  0
    0.3403   -1.3936    0.0439 N   0  0  0  0  0  0  0  0  0  0  0  0
    2.4588   -2.0567   -0.2278 N   0  0  0  0  0  0  0  0  0  0  0  0
    0.6382    1.0055    0.1668 N   0  0  0  0  0  0  0  0  0  0  0  0
    2.9578    1.5662   -0.0477 N   0  0  0  0  0  0  0  0  0  0  0  0
    1.3349    3.2483    0.2360 N   0  0  0  0  0  0  0  0  0  0  0  0
   -1.1609   -1.4904    0.1995 C   0  0  2  0  0  0  0  0  0  0  0  0
   -3.1486   -0.1634   -0.2346 C   0  0  1  0  0  0  0  0  0  0  0  0
   -1.9191   -0.7534   -0.9227 C   0  0  0  0  0  0  0  0  0  0  0  0
   -2.5918    0.2636    1.1206 C   0  0  2  0  0  0  0  0  0  0  0  0
   -1.7056   -0.9128    1.5220 C   0  0  0  0  0  0  0  0  0  0  0  0
   -3.7781    0.9815   -1.0129 C   0  0  0  0  0  0  0  0  0  0  0  0
    1.0969   -0.2589    0.0355 C   0  0  0  0  0  0  0  0  0  0  0  0
    1.2046   -2.4488   -0.1177 C   0  0  0  0  0  0  0  0  0  0  0  0
    2.3879   -0.6983   -0.1324 C   0  0  0  0  0  0  0  0  0  0  0  0
    3.4547    0.2626   -0.1857 C   0  0  0  0  0  0  0  0  0  0  0  0
    1.5949    1.9072    0.1216 C   0  0  0  0  0  0  0  0  0  0  0  0
   -1.3769   -2.5656    0.1577 H   0  0  0  0  0  0  0  0  0  0  0  0
   -3.9020   -0.9532   -0.1061 H   0  0  0  0  0  0  0  0  0  0  0  0
   -2.2018   -1.4483   -1.7215 H   0  0  0  0  0  0  0  0  0  0  0  0
   -1.3146    0.0337   -1.3865 H   0  0  0  0  0  0  0  0  0  0  0  0
   -2.0049    1.1853    1.0365 H   0  0  0  0  0  0  0  0  0  0  0  0
   -2.3017   -1.6747    2.0404 H   0  0  0  0  0  0  0  0  0  0  0  0
   -0.9222   -0.6026    2.2214 H   0  0  0  0  0  0  0  0  0  0  0  0
   -3.0720    1.8073   -1.1505 H   0  0  0  0  0  0  0  0  0  0  0  0
   -4.6641    1.3620   -0.4947 H   0  0  0  0  0  0  0  0  0  0  0  0
   -3.2156    0.6503    2.9188 H   0  0  0  0  0  0  0  0  0  0  0  0
    0.8635   -3.4746   -0.1472 H   0  0  0  0  0  0  0  0  0  0  0  0
   -4.5672    1.2519   -2.7650 H   0  0  0  0  0  0  0  0  0  0  0  0
    3.6309    2.3268   -0.0714 H   0  0  0  0  0  0  0  0  0  0  0  0
    0.3883    3.5905    0.3602 H   0  0  0  0  0  0  0  0  0  0  0  0
    2.0790    3.9364    0.1999 H   0  0  0  0  0  0  0  0  0  0  0  0
  1 12  1  0  0  0  0
  1 29  1  0  0  0  0
  2 14  1  0  0  0  0
  2 31  1  0  0  0  0
  3 18  2  0  0  0  0
  4  9  1  0  0  0  0
  4 15  1  0  0  0  0
  4 16  1  0  0  0  0
  5 16  2  0  0  0  0
  5 17  1  0  0  0  0
  6 15  1  0  0  0  0
  6 19  2  0  0  0  0
  7 18  1  0  0  0  0
  7 19  1  0  0  0  0
  7 32  1  0  0  0  0
  8 19  1  0  0  0  0
  8 33  1  0  0  0  0
  8 34  1  0  0  0  0
  9 11  1  0  0  0  0
  9 13  1  0  0  0  0
  9 20  1  0  0  0  0
 10 11  1  0  0  0  0
 10 12  1  0  0  0  0
 10 14  1  0  0  0  0
 10 21  1  0  0  0  0
 11 22  1  0  0  0  0
 11 23  1  0  0  0  0
 12 13  1  0  0  0  0
 12 24  1  0  0  0  0
 13 25  1  0  0  0  0
 13 26  1  0  0  0  0
 14 27  1  0  0  0  0
 14 28  1  0  0  0  0
 15 17  2  0  0  0  0
 16 30  1  0  0  0  0
 17 18  1  0  0  0  0
M  END
> <PUBCHEM_COMPOUND_CID>
135484485

> <PUBCHEM_CONFORMER_RMSD>
0.6

> <PUBCHEM_CONFORMER_DIVERSEORDER>
1
5
9
11
10
4
2
12
8
7
3
6

> <PUBCHEM_MMFF94_PARTIAL_CHARGES>
22
1 -0.68
12 0.28
14 0.28
15 -0.03
16 0.04
17 0.14
18 0.72
19 0.56
2 -0.68
29 0.4
3 -0.57
30 0.15
31 0.4
32 0.37
33 0.4
34 0.4
4 0.05
5 -0.57
6 -0.58
7 -0.49
8 -0.85
9 0.26

> <PUBCHEM_EFFECTIVE_ROTOR_COUNT>
3

> <PUBCHEM_PHARMACOPHORE_FEATURES>
11
1 1 acceptor
1 1 donor
1 2 acceptor
1 2 donor
1 3 acceptor
1 7 donor
1 8 donor
3 4 5 16 cation
5 4 5 15 16 17 rings
5 9 10 11 12 13 rings
6 6 7 15 17 18 19 rings

> <PUBCHEM_HEAVY_ATOM_COUNT>
19

> <PUBCHEM_ATOM_DEF_STEREO_COUNT>
3

> <PUBCHEM_ATOM_UDEF_STEREO_COUNT>
0

> <PUBCHEM_BOND_DEF_STEREO_COUNT>
0

> <PUBCHEM_BOND_UDEF_STEREO_COUNT>
0

> <PUBCHEM_ISOTOPIC_ATOM_COUNT>
0

> <PUBCHEM_COMPONENT_COUNT>
1

> <PUBCHEM_CACTVS_TAUTO_COUNT>
-1

> <PUBCHEM_CONFORMER_ID>
0813544500000001

> <PUBCHEM_MMFF94_ENERGY>
43.9859

> <PUBCHEM_FEATURE_SELFOVERLAP>
56

> <PUBCHEM_SHAPE_FINGERPRINT>
104564 63 18125452920968148800
10608611 8 18261953054475860951
10967382 1 18411707569208545010
11471102 20 18410570661210995006
11543360 7 15554445232142530770
11640471 11 17345777191097507139
11725454 13 17314764387921371783
12077114 3 17749384879965588311
12236239 1 17632861902018975923
12654215 9 18334853914066488620
13009979 54 17416686839040837219
13134695 92 18338228254858840550
13140716 1 18267876162401349632
13294875 104 17605530211631491643
13464514 151 18189046517070369357
13764800 53 17022621949334423733
14957384 54 15285626690855977335
16945 1 18411706477980987706
18186145 218 18342186612825356236
18219364 16 18333737931075595651
19049666 15 17822858550564826947
192875 21 18200295646525482537
200 152 17917705820996012575
20233049 118 18259701199123188556
20645477 70 18264766571440336263
21524375 3 18264775543727042882
21639500 275 18412822508153015875
221357 26 18265881489690576141
231179 274 18186515501622759678
2334 1 17907582776205208256
23402539 116 16056883507236587010
23493267 7 17312820489543240056
23526113 38 18115297861490905835
23557571 272 17458633362912818611
23559900 14 18127991896035085604
23598291 2 17774161163359350519
238 59 18192684882962393181
25 1 18334853896496437111
2748010 2 18122631823080876376
350125 39 18050016785079591986
3524813 1 18041550369610424069
4072396 5 18263624226831178450
474 4 18341618156402101849
6049 1 17895209787358874011
63268167 104 18412826871692297091
633830 44 17986978369181791620
74978 22 18269276922887619010
77492 1 17632578210696923587
81228 2 17616536155711669642
9981440 41 17051312871911418656

> <PUBCHEM_SHAPE_MULTIPOLES>
348.5
7.18
2.38
1.32
1.05
0.77
-0.03
1.67
1.54
-1.79
-0.06
2.26
0.14
0.5

> <PUBCHEM_SHAPE_SELFOVERLAP>
754.021

> <PUBCHEM_SHAPE_VOLUME>
191.8

> <PUBCHEM_COORDINATE_TYPE>
2
5
10

$$$$
