135412725
  -OEChem-03292013293D

 44 43  0     0  0  0  0  0  0999 V2000
    2.8757    1.5905    1.4727 O   0  5  0  0  0  0  0  0  0  0  0  0
    3.2157    3.2135   -0.3659 O   0  0  0  0  0  0  0  0  0  0  0  0
    2.3274   -0.2529    0.0456 N   0  0  0  0  0  0  0  0  0  0  0  0
   -3.9230   -0.4877    0.2939 N   0  0  0  0  0  0  0  0  0  0  0  0
    2.7054    1.1965    0.2676 N   0  3  0  0  0  0  0  0  0  0  0  0
    7.0776   -1.3738   -0.6892 N   0  0  0  0  0  0  0  0  0  0  0  0
   -8.8409   -0.2828    0.0749 N   0  0  0  0  0  0  0  0  0  0  0  0
    2.8587    1.9219   -0.7698 N   0  0  0  0  0  0  0  0  0  0  0  0
   -0.1127   -0.1386   -0.1663 C   0  0  0  0  0  0  0  0  0  0  0  0
   -1.4466   -0.5920    0.4362 C   0  0  0  0  0  0  0  0  0  0  0  0
    1.0673   -0.7006    0.6266 C   0  0  0  0  0  0  0  0  0  0  0  0
   -2.6690   -0.0384   -0.2988 C   0  0  0  0  0  0  0  0  0  0  0  0
    3.3820   -1.2419    0.2914 C   0  0  0  0  0  0  0  0  0  0  0  0
    4.7184   -0.8187   -0.3224 C   0  0  0  0  0  0  0  0  0  0  0  0
   -5.0636    0.0649   -0.4229 C   0  0  0  0  0  0  0  0  0  0  0  0
   -6.3943   -0.3845    0.1848 C   0  0  0  0  0  0  0  0  0  0  0  0
    5.8308   -1.8439   -0.0954 C   0  0  0  0  0  0  0  0  0  0  0  0
   -7.6089    0.1685   -0.5629 C   0  0  0  0  0  0  0  0  0  0  0  0
   -0.0535   -0.4678   -1.2113 H   0  0  0  0  0  0  0  0  0  0  0  0
   -0.0786    0.9578   -0.1697 H   0  0  0  0  0  0  0  0  0  0  0  0
   -1.4872   -1.6889    0.4298 H   0  0  0  0  0  0  0  0  0  0  0  0
   -1.4894   -0.2809    1.4881 H   0  0  0  0  0  0  0  0  0  0  0  0
    1.0034   -0.4090    1.6818 H   0  0  0  0  0  0  0  0  0  0  0  0
    0.9895   -1.7953    0.5960 H   0  0  0  0  0  0  0  0  0  0  0  0
   -2.6213    1.0573   -0.2770 H   0  0  0  0  0  0  0  0  0  0  0  0
   -2.6192   -0.3496   -1.3497 H   0  0  0  0  0  0  0  0  0  0  0  0
    3.5158   -1.3837    1.3713 H   0  0  0  0  0  0  0  0  0  0  0  0
    3.0929   -2.2087   -0.1390 H   0  0  0  0  0  0  0  0  0  0  0  0
    5.0452    0.1367    0.1072 H   0  0  0  0  0  0  0  0  0  0  0  0
    4.5864   -0.6574   -1.4007 H   0  0  0  0  0  0  0  0  0  0  0  0
   -3.9657   -1.5062    0.2810 H   0  0  0  0  0  0  0  0  0  0  0  0
   -5.0219    1.1608   -0.4003 H   0  0  0  0  0  0  0  0  0  0  0  0
   -5.0319   -0.2456   -1.4747 H   0  0  0  0  0  0  0  0  0  0  0  0
   -6.4362   -0.0657    1.2349 H   0  0  0  0  0  0  0  0  0  0  0  0
   -6.4379   -1.4819    0.1857 H   0  0  0  0  0  0  0  0  0  0  0  0
    5.5545   -2.8059   -0.5405 H   0  0  0  0  0  0  0  0  0  0  0  0
    5.9821   -2.0024    0.9776 H   0  0  0  0  0  0  0  0  0  0  0  0
   -7.5944   -0.1649   -1.6062 H   0  0  0  0  0  0  0  0  0  0  0  0
   -7.5844    1.2633   -0.5608 H   0  0  0  0  0  0  0  0  0  0  0  0
    6.9545   -1.2503   -1.6934 H   0  0  0  0  0  0  0  0  0  0  0  0
    7.7959   -2.0876   -0.5752 H   0  0  0  0  0  0  0  0  0  0  0  0
   -8.8861   -1.3008    0.0526 H   0  0  0  0  0  0  0  0  0  0  0  0
   -9.6405    0.0504   -0.4621 H   0  0  0  0  0  0  0  0  0  0  0  0
    3.2264    3.1391    0.6017 H   0  0  0  0  0  0  0  0  0  0  0  0
  1  5  1  0  0  0  0
  2  8  1  0  0  0  0
  2 44  1  0  0  0  0
  3  5  1  0  0  0  0
  3 11  1  0  0  0  0
  3 13  1  0  0  0  0
  4 12  1  0  0  0  0
  4 15  1  0  0  0  0
  4 31  1  0  0  0  0
  5  8  2  0  0  0  0
  6 17  1  0  0  0  0
  6 40  1  0  0  0  0
  6 41  1  0  0  0  0
  7 18  1  0  0  0  0
  7 42  1  0  0  0  0
  7 43  1  0  0  0  0
  9 10  1  0  0  0  0
  9 11  1  0  0  0  0
  9 19  1  0  0  0  0
  9 20  1  0  0  0  0
 10 12  1  0  0  0  0
 10 21  1  0  0  0  0
 10 22  1  0  0  0  0
 11 23  1  0  0  0  0
 11 24  1  0  0  0  0
 12 25  1  0  0  0  0
 12 26  1  0  0  0  0
 13 14  1  0  0  0  0
 13 27  1  0  0  0  0
 13 28  1  0  0  0  0
 14 17  1  0  0  0  0
 14 29  1  0  0  0  0
 14 30  1  0  0  0  0
 15 16  1  0  0  0  0
 15 32  1  0  0  0  0
 15 33  1  0  0  0  0
 16 18  1  0  0  0  0
 16 34  1  0  0  0  0
 16 35  1  0  0  0  0
 17 36  1  0  0  0  0
 17 37  1  0  0  0  0
 18 38  1  0  0  0  0
 18 39  1  0  0  0  0
M  CHG  2   1  -1   5   1
M  END
> <PUBCHEM_COMPOUND_CID>
135412725

> <PUBCHEM_CONFORMER_RMSD>
1

> <PUBCHEM_CONFORMER_DIVERSEORDER>
1
28
2
152
84
48
43
115
91
147
181
52
141
155
73
121
180
118
182
13
136
156
170
103
75
151
142
185
68
110
114
127
8
106
102
179
60
24
29
112
34
31
164
133
116
27
11
131
25
94
96
98
53
122
128
176
26
30
67
146
4
150
124
167
177
44
119
105
97
62
23
88
143
76
50
157
117
69
99
174
130
148
90
57
171
15
162
149
92
46
42
17
139
78
132
83
169
33
51
134
21
39
95
19
159
86
35
79
80
173
74
22
125
59
3
172
77
70
41
66
100
109
175
163
160
10
82
184
183
64
89
144
87
129
154
36
37
113
93
81
126
120
9
49
140
45
16
65
47
12
168
108
7
38
135
161
111
107
158
153
71
104
85
20
54
56
63
32
101
18
61
58
123
178
40
55
6
138
145
137
5
72
165
166
14

> <PUBCHEM_MMFF94_PARTIAL_CHARGES>
20
1 -0.63
11 0.27
12 0.27
13 0.27
15 0.27
17 0.27
18 0.27
2 -0.34
3 -0.69
31 0.36
4 -0.9
40 0.36
41 0.36
42 0.36
43 0.36
44 0.4
5 0.99
6 -0.99
7 -0.99
8 -0.27

> <PUBCHEM_EFFECTIVE_ROTOR_COUNT>
12

> <PUBCHEM_PHARMACOPHORE_FEATURES>
6
1 4 cation
1 4 donor
1 6 cation
1 6 donor
1 7 cation
1 7 donor

> <PUBCHEM_HEAVY_ATOM_COUNT>
18

> <PUBCHEM_ATOM_DEF_STEREO_COUNT>
0

> <PUBCHEM_ATOM_UDEF_STEREO_COUNT>
0

> <PUBCHEM_BOND_DEF_STEREO_COUNT>
1

> <PUBCHEM_BOND_UDEF_STEREO_COUNT>
0

> <PUBCHEM_ISOTOPIC_ATOM_COUNT>
0

> <PUBCHEM_COMPONENT_COUNT>
1

> <PUBCHEM_CACTVS_TAUTO_COUNT>
-1

> <PUBCHEM_CONFORMER_ID>
08123BF500000001

> <PUBCHEM_MMFF94_ENERGY>
1.4798

> <PUBCHEM_FEATURE_SELFOVERLAP>
30.448

> <PUBCHEM_SHAPE_FINGERPRINT>
12616971 3 17989197170977662647
13836976 161 17989208144208173494
14123256 10 13045946798244542663
14170010 4 18413386553850761528
14251764 18 18131637776557770361
14251764 46 16732704934724618947
16120349 18 18272645784240860584
17834072 8 18260267434579034427
17834076 25 15719395018982871811
18335252 98 10015574026850798765
20612939 158 18409174328756944320
20735858 18 10807929350081435214
21150785 3 15574719084350990815
21267235 1 18410577262675702175
21315759 40 17632295675422460063
21315763 28 18411418411157632591
221357 26 18261110751344222796
22224240 67 9583225125127647846
23521765 1 18342457019914425391
23559900 14 18335137626373228466
29717793 49 18131354107216716335
3004659 81 18342171163764975123
33684 2 17385444297736484594
3545911 37 17822009801072230051
54446538 1 18413108343001826865
59682541 35 10591746693669163111
8209 1 17894632535391470143

> <PUBCHEM_SHAPE_MULTIPOLES>
328.81
21.87
1.9
0.83
36.39
1.89
-0.11
-6.62
3.49
-4.58
0.13
-0.37
0.15
0.49

> <PUBCHEM_SHAPE_SELFOVERLAP>
597.03

> <PUBCHEM_SHAPE_VOLUME>
210.1

> <PUBCHEM_COORDINATE_TYPE>
2
5
10

$$$$
