135454060
  -OEChem-03292013293D

 38 40  0     0  0  0  0  0  0999 V2000
    2.7643   -1.5959   -2.1137 O   0  0  0  0  0  0  0  0  0  0  0  0
   -6.2584   -2.3942    0.0995 O   0  0  0  0  0  0  0  0  0  0  0  0
   -7.0551   -0.5231    1.1148 O   0  0  0  0  0  0  0  0  0  0  0  0
   -1.1163    1.1140   -0.7091 N   0  0  0  0  0  0  0  0  0  0  0  0
    2.0247    0.7585   -0.9710 N   0  0  0  0  0  0  0  0  0  0  0  0
    3.3655    1.5052    1.3838 N   0  0  0  0  0  0  0  0  0  0  0  0
    4.3371   -1.9696   -0.4526 N   0  0  0  0  0  0  0  0  0  0  0  0
    4.6668   -0.4428    1.3128 N   0  0  0  0  0  0  0  0  0  0  0  0
    5.9413   -2.4082    1.1927 N   0  0  0  0  0  0  0  0  0  0  0  0
    0.6785    2.7755   -0.8945 C   0  0  0  0  0  0  0  0  0  0  0  0
   -0.7307    2.4640   -0.3684 C   0  0  0  0  0  0  0  0  0  0  0  0
    1.7402    1.9030   -0.3213 C   0  0  0  0  0  0  0  0  0  0  0  0
   -2.3525    0.5681   -0.4051 C   0  0  0  0  0  0  0  0  0  0  0  0
    2.9917    0.0044   -0.4132 C   0  0  0  0  0  0  0  0  0  0  0  0
    2.3978    2.2693    0.8337 C   0  0  0  0  0  0  0  0  0  0  0  0
    3.6616    0.3550    0.7439 C   0  0  0  0  0  0  0  0  0  0  0  0
   -3.3068    1.3319    0.2672 C   0  0  0  0  0  0  0  0  0  0  0  0
   -2.6426   -0.7462   -0.7710 C   0  0  0  0  0  0  0  0  0  0  0  0
    3.3356   -1.2518   -1.0868 C   0  0  0  0  0  0  0  0  0  0  0  0
   -4.8413   -0.5332    0.2074 C   0  0  0  0  0  0  0  0  0  0  0  0
   -4.5511    0.7812    0.5735 C   0  0  0  0  0  0  0  0  0  0  0  0
   -3.8870   -1.2969   -0.4646 C   0  0  0  0  0  0  0  0  0  0  0  0
    4.9755   -1.5616    0.7162 C   0  0  0  0  0  0  0  0  0  0  0  0
   -6.1392   -1.1067    0.5258 C   0  0  0  0  0  0  0  0  0  0  0  0
    0.6880    2.6695   -1.9875 H   0  0  0  0  0  0  0  0  0  0  0  0
    0.9140    3.8282   -0.6937 H   0  0  0  0  0  0  0  0  0  0  0  0
   -0.7487    2.6004    0.7199 H   0  0  0  0  0  0  0  0  0  0  0  0
   -1.4253    3.1826   -0.8195 H   0  0  0  0  0  0  0  0  0  0  0  0
   -0.4607    0.5312   -1.2184 H   0  0  0  0  0  0  0  0  0  0  0  0
    2.1736    3.1878    1.3638 H   0  0  0  0  0  0  0  0  0  0  0  0
   -3.1226    2.3578    0.5718 H   0  0  0  0  0  0  0  0  0  0  0  0
   -1.9076   -1.3524   -1.2948 H   0  0  0  0  0  0  0  0  0  0  0  0
   -5.2812    1.3922    1.0979 H   0  0  0  0  0  0  0  0  0  0  0  0
   -4.0710   -2.3237   -0.7679 H   0  0  0  0  0  0  0  0  0  0  0  0
    4.6233   -2.8511   -0.8684 H   0  0  0  0  0  0  0  0  0  0  0  0
    6.4582   -2.1923    2.0382 H   0  0  0  0  0  0  0  0  0  0  0  0
    6.1681   -3.2740    0.7159 H   0  0  0  0  0  0  0  0  0  0  0  0
   -7.1370   -2.7713    0.3189 H   0  0  0  0  0  0  0  0  0  0  0  0
  1 19  2  0  0  0  0
  2 24  1  0  0  0  0
  2 38  1  0  0  0  0
  3 24  2  0  0  0  0
  4 11  1  0  0  0  0
  4 13  1  0  0  0  0
  4 29  1  0  0  0  0
  5 12  1  0  0  0  0
  5 14  2  0  0  0  0
  6 15  1  0  0  0  0
  6 16  2  0  0  0  0
  7 19  1  0  0  0  0
  7 23  1  0  0  0  0
  7 35  1  0  0  0  0
  8 16  1  0  0  0  0
  8 23  2  0  0  0  0
  9 23  1  0  0  0  0
  9 36  1  0  0  0  0
  9 37  1  0  0  0  0
 10 11  1  0  0  0  0
 10 12  1  0  0  0  0
 10 25  1  0  0  0  0
 10 26  1  0  0  0  0
 11 27  1  0  0  0  0
 11 28  1  0  0  0  0
 12 15  2  0  0  0  0
 13 17  2  0  0  0  0
 13 18  1  0  0  0  0
 14 16  1  0  0  0  0
 14 19  1  0  0  0  0
 15 30  1  0  0  0  0
 17 21  1  0  0  0  0
 17 31  1  0  0  0  0
 18 22  2  0  0  0  0
 18 32  1  0  0  0  0
 20 21  2  0  0  0  0
 20 22  1  0  0  0  0
 20 24  1  0  0  0  0
 21 33  1  0  0  0  0
 22 34  1  0  0  0  0
M  END
> <PUBCHEM_COMPOUND_CID>
135454060

> <PUBCHEM_CONFORMER_RMSD>
0.8

> <PUBCHEM_CONFORMER_DIVERSEORDER>
1
11
18
7
39
9
12
28
14
8
30
19
17
21
15
37
29
13
31
23
6
34
27
35
10
25
3
4
36
33
22
24
16
32
26
2
20
38
5

> <PUBCHEM_MMFF94_PARTIAL_CHARGES>
34
1 -0.57
10 0.14
11 0.37
12 0.17
13 0.1
14 0.4
15 0.16
16 0.49
17 -0.15
18 -0.15
19 0.54
2 -0.65
20 0.09
21 -0.15
22 -0.15
23 0.56
24 0.63
29 0.4
3 -0.57
30 0.15
31 0.15
32 0.15
33 0.15
34 0.15
35 0.37
36 0.4
37 0.4
38 0.5
4 -0.87
5 -0.62
6 -0.62
7 -0.49
8 -0.63
9 -0.85

> <PUBCHEM_EFFECTIVE_ROTOR_COUNT>
5

> <PUBCHEM_PHARMACOPHORE_FEATURES>
13
1 1 acceptor
1 2 acceptor
1 3 acceptor
1 4 cation
1 4 donor
1 5 acceptor
1 7 donor
1 9 donor
3 2 3 24 anion
3 6 8 16 cation
6 13 17 18 20 21 22 rings
6 5 6 12 14 15 16 rings
6 7 8 14 16 19 23 rings

> <PUBCHEM_HEAVY_ATOM_COUNT>
24

> <PUBCHEM_ATOM_DEF_STEREO_COUNT>
0

> <PUBCHEM_ATOM_UDEF_STEREO_COUNT>
0

> <PUBCHEM_BOND_DEF_STEREO_COUNT>
0

> <PUBCHEM_BOND_UDEF_STEREO_COUNT>
0

> <PUBCHEM_ISOTOPIC_ATOM_COUNT>
0

> <PUBCHEM_COMPONENT_COUNT>
1

> <PUBCHEM_CACTVS_TAUTO_COUNT>
-1

> <PUBCHEM_CONFORMER_ID>
0812DD6C00000001

> <PUBCHEM_MMFF94_ENERGY>
73.931

> <PUBCHEM_FEATURE_SELFOVERLAP>
66.119

> <PUBCHEM_SHAPE_FINGERPRINT>
11211813 74 10375330886007201955
11796584 16 17826785937727691596
12107183 9 18339370639425931961
12166972 35 17312823762355993982
12363563 72 18187649080957728636
12633257 1 16415471696790142737
12892183 10 17489591121308767681
12925494 130 17627806210505944369
13533116 47 18337955713820644753
13551218 46 18411983594240976579
13782708 43 17677336164532923163
1420 369 18335137587665690497
14211702 104 18118690053096430547
14251740 57 18201166511068723143
14251751 18 18336543824446278912
14341114 328 16271919458672820392
14347424 109 18342459261877012729
14420673 8 18265899060142924275
14528608 73 8574440803182123761
14848178 96 9655579620968332004
15475509 84 17775569706252950256
16992610 120 17834963345614202588
1813 80 17894633668899099901
1979834 28 17703800205820153655
20397935 70 18201728392023550487
20403669 9 18408888425368199727
21792934 111 18272376352747879081
21859007 373 18265046947860292573
270888 7 10879982571520701162
2838139 119 8430015548331690760
3004659 81 18259994776842998980
316301 35 18335697247995962194
3421961 26 18410854399435374156
3472631 163 10015860990009704281
34797466 226 14851894715823047677
465052 167 18341046338195853722
50009960 94 18044918306844492603
5104073 3 18272651233905766497
56633871 153 18341608222528420247
57724786 102 12175618460941534248
59682541 52 12613025055685309648
6201460 15 16956455362052015650
6327066 14 10231457628320709714
636775 8 18054229831467919302
7808743 9 10807634710829203260
7970288 3 18187642475018712810
960060 61 14418130746914254365

> <PUBCHEM_SHAPE_MULTIPOLES>
446.41
15.68
2.87
1.27
14.69
0.6
0.13
-12.59
-5.88
-1.78
0.14
-1.23
-0.23
0.16

> <PUBCHEM_SHAPE_SELFOVERLAP>
973.563

> <PUBCHEM_SHAPE_VOLUME>
240.3

> <PUBCHEM_COORDINATE_TYPE>
2
5
10

$$$$
