135467113
  -OEChem-03292013293D

 42 46  0     1  0  0  0  0  0999 V2000
   -1.6074   -3.4168    1.0761 O   0  0  0  0  0  0  0  0  0  0  0  0
   -3.8754   -2.1676    0.0701 O   0  0  0  0  0  0  0  0  0  0  0  0
    0.5622    3.6359   -0.0738 O   0  0  0  0  0  0  0  0  0  0  0  0
    3.3204   -3.0906    0.1017 O   0  0  0  0  0  0  0  0  0  0  0  0
   -1.9345    4.0123    0.1216 O   0  0  0  0  0  0  0  0  0  0  0  0
   -4.8106    0.3317   -0.0024 O   0  0  0  0  0  0  0  0  0  0  0  0
    3.0074    3.2558   -0.0977 O   0  0  0  0  0  0  0  0  0  0  0  0
    0.0382   -0.5066   -0.0013 C   0  0  0  0  0  0  0  0  0  0  0  0
   -1.4958   -2.5436   -0.0553 C   0  0  2  0  0  0  0  0  0  0  0  0
   -0.1150   -1.9077    0.0042 C   0  0  0  0  0  0  0  0  0  0  0  0
   -1.0888    0.3558   -0.0005 C   0  0  0  0  0  0  0  0  0  0  0  0
    1.3509    0.0426   -0.0019 C   0  0  0  0  0  0  0  0  0  0  0  0
   -2.4617   -0.2076    0.0128 C   0  0  0  0  0  0  0  0  0  0  0  0
   -2.6383   -1.5469    0.0131 C   0  0  0  0  0  0  0  0  0  0  0  0
   -0.9242    1.7592    0.0051 C   0  0  0  0  0  0  0  0  0  0  0  0
    2.4879   -0.7999    0.0256 C   0  0  0  0  0  0  0  0  0  0  0  0
    1.4891    1.4367   -0.0336 C   0  0  0  0  0  0  0  0  0  0  0  0
    1.0222   -2.7287    0.0508 C   0  0  0  0  0  0  0  0  0  0  0  0
    0.3746    2.2810   -0.0391 C   0  0  0  0  0  0  0  0  0  0  0  0
   -1.6314   -3.3868   -1.3388 C   0  0  0  0  0  0  0  0  0  0  0  0
    2.3017   -2.1851    0.0611 C   0  0  0  0  0  0  0  0  0  0  0  0
    3.8479   -0.2060    0.0199 C   0  0  0  0  0  0  0  0  0  0  0  0
   -3.6448    0.7111    0.0153 C   0  0  0  0  0  0  0  0  0  0  0  0
   -2.1111    2.6414    0.0473 C   0  0  0  0  0  0  0  0  0  0  0  0
    2.8388    2.0435   -0.0550 C   0  0  0  0  0  0  0  0  0  0  0  0
    3.9974    1.1265   -0.0199 C   0  0  0  0  0  0  0  0  0  0  0  0
   -3.3567    2.1591    0.0388 C   0  0  0  0  0  0  0  0  0  0  0  0
    5.0569   -1.0986    0.0558 C   0  0  0  0  0  0  0  0  0  0  0  0
    0.8963   -3.8096    0.0753 H   0  0  0  0  0  0  0  0  0  0  0  0
   -2.6057   -3.8878   -1.3867 H   0  0  0  0  0  0  0  0  0  0  0  0
   -0.8900   -4.1931   -1.3774 H   0  0  0  0  0  0  0  0  0  0  0  0
   -1.5149   -2.7739   -2.2401 H   0  0  0  0  0  0  0  0  0  0  0  0
    4.9794    1.5888   -0.0275 H   0  0  0  0  0  0  0  0  0  0  0  0
   -4.2189    2.8183    0.0711 H   0  0  0  0  0  0  0  0  0  0  0  0
   -1.3251   -2.9299    1.8698 H   0  0  0  0  0  0  0  0  0  0  0  0
    5.1051   -1.7456   -0.8261 H   0  0  0  0  0  0  0  0  0  0  0  0
    5.0909   -1.6921    0.9752 H   0  0  0  0  0  0  0  0  0  0  0  0
    5.9831   -0.5105    0.0456 H   0  0  0  0  0  0  0  0  0  0  0  0
   -4.5712   -1.4956    0.1411 H   0  0  0  0  0  0  0  0  0  0  0  0
    1.3961    3.8489   -0.5209 H   0  0  0  0  0  0  0  0  0  0  0  0
    2.9672   -3.9961    0.1205 H   0  0  0  0  0  0  0  0  0  0  0  0
   -2.8065    4.4421    0.1480 H   0  0  0  0  0  0  0  0  0  0  0  0
  1  9  1  0  0  0  0
  1 35  1  0  0  0  0
  2 14  1  0  0  0  0
  2 39  1  0  0  0  0
  3 19  1  0  0  0  0
  3 40  1  0  0  0  0
  4 21  1  0  0  0  0
  4 41  1  0  0  0  0
  5 24  1  0  0  0  0
  5 42  1  0  0  0  0
  6 23  2  0  0  0  0
  7 25  2  0  0  0  0
  8 10  1  0  0  0  0
  8 11  1  0  0  0  0
  8 12  2  0  0  0  0
  9 10  1  0  0  0  0
  9 14  1  0  0  0  0
  9 20  1  0  0  0  0
 10 18  2  0  0  0  0
 11 13  1  0  0  0  0
 11 15  2  0  0  0  0
 12 16  1  0  0  0  0
 12 17  1  0  0  0  0
 13 14  2  0  0  0  0
 13 23  1  0  0  0  0
 15 19  1  0  0  0  0
 15 24  1  0  0  0  0
 16 21  2  0  0  0  0
 16 22  1  0  0  0  0
 17 19  2  0  0  0  0
 17 25  1  0  0  0  0
 18 21  1  0  0  0  0
 18 29  1  0  0  0  0
 20 30  1  0  0  0  0
 20 31  1  0  0  0  0
 20 32  1  0  0  0  0
 22 26  2  0  0  0  0
 22 28  1  0  0  0  0
 23 27  1  0  0  0  0
 24 27  2  0  0  0  0
 25 26  1  0  0  0  0
 26 33  1  0  0  0  0
 27 34  1  0  0  0  0
 28 36  1  0  0  0  0
 28 37  1  0  0  0  0
 28 38  1  0  0  0  0
M  END
> <PUBCHEM_COMPOUND_CID>
135467113

> <PUBCHEM_CONFORMER_RMSD>
0.6

> <PUBCHEM_CONFORMER_DIVERSEORDER>
2
1

> <PUBCHEM_MMFF94_PARTIAL_CHARGES>
33
1 -0.68
10 -0.14
11 0.03
13 -0.01
14 -0.06
15 0.03
16 0.03
17 0.09
18 -0.15
19 0.08
2 -0.53
21 0.08
22 -0.17
23 0.54
24 0.05
25 0.47
26 -0.14
27 -0.14
28 0.14
29 0.15
3 -0.53
33 0.15
34 0.15
35 0.4
39 0.45
4 -0.53
40 0.45
41 0.45
42 0.45
5 -0.53
6 -0.57
7 -0.57
9 0.56

> <PUBCHEM_EFFECTIVE_ROTOR_COUNT>
0.2

> <PUBCHEM_PHARMACOPHORE_FEATURES>
13
1 1 acceptor
1 1 donor
1 2 donor
1 3 donor
1 4 donor
1 5 donor
1 6 acceptor
1 7 acceptor
6 11 13 15 23 24 27 rings
6 12 16 17 22 25 26 rings
6 8 10 12 16 18 21 rings
6 8 11 12 15 17 19 rings
6 8 9 10 11 13 14 rings

> <PUBCHEM_HEAVY_ATOM_COUNT>
28

> <PUBCHEM_ATOM_DEF_STEREO_COUNT>
0

> <PUBCHEM_ATOM_UDEF_STEREO_COUNT>
1

> <PUBCHEM_BOND_DEF_STEREO_COUNT>
0

> <PUBCHEM_BOND_UDEF_STEREO_COUNT>
0

> <PUBCHEM_ISOTOPIC_ATOM_COUNT>
0

> <PUBCHEM_COMPONENT_COUNT>
1

> <PUBCHEM_CACTVS_TAUTO_COUNT>
-1

> <PUBCHEM_CONFORMER_ID>
0813106900000002

> <PUBCHEM_MMFF94_ENERGY>
101.7591

> <PUBCHEM_FEATURE_SELFOVERLAP>
66.149

> <PUBCHEM_SHAPE_FINGERPRINT>
10319926 262 18197472097336063346
10411042 1 18122625221870000102
10616163 171 18339081596141254182
10967382 1 18410575050308667264
1100329 8 18410292518791094488
11513181 2 18059009462955259439
11578080 2 17130130129923506082
12553582 1 18266737068043743307
12838862 33 18266157500899160300
13122387 1 18266741285685719277
13140716 1 18265329680602297074
13583140 156 17168143373716231441
138480 1 15960897993083318067
14117953 113 17546437886745926572
14178342 30 18338781382654767648
14223421 5 18411419535621574944
14790565 3 17691416213563447184
15196674 1 18338517546465007074
16728300 4 15874755719798308098
16945 1 18410575101874596608
19591789 44 18194120703118850596
19930381 70 16897081137161536283
20028762 73 18129370502636658287
20739085 24 16819414917816087491
20775438 99 16761925779721264455
20905425 154 18342182175934300630
21267235 1 18410582751185022514
2334 1 17834114521354073196
23559900 14 18341328977008663296
238 59 16744205607608433813
2748010 2 18194685860606243415
335352 9 18410575063393977692
34934 24 18410288116624046554
350125 39 18338239241485877977
5104073 3 18338517546565247810
9709674 26 18411986874995130374

> <PUBCHEM_SHAPE_MULTIPOLES>
535.14
7.38
4.96
0.69
2.15
0.59
-0.05
0.01
0.16
-1.05
-0.16
-0.13
-0.35
-0.26

> <PUBCHEM_SHAPE_SELFOVERLAP>
1243.448

> <PUBCHEM_SHAPE_VOLUME>
270.6

> <PUBCHEM_COORDINATE_TYPE>
2
5
10

$$$$
