135422933
  -OEChem-03292013293D

 32 33  0     0  0  0  0  0  0999 V2000
    4.8058    0.1508   -0.9643 P   0  0  0  0  0  0  0  0  0  0  0  0
    1.0489   -0.3870    1.0846 O   0  0  0  0  0  0  0  0  0  0  0  0
    3.6412   -0.3639    0.0315 O   0  0  0  0  0  0  0  0  0  0  0  0
   -4.7118   -0.5561   -1.8320 O   0  0  0  0  0  0  0  0  0  0  0  0
    6.0435    0.4742    0.0250 O   0  0  0  0  0  0  0  0  0  0  0  0
    4.2823    1.6184   -1.3970 O   0  0  0  0  0  0  0  0  0  0  0  0
    5.1206   -0.7717   -2.1055 O   0  0  0  0  0  0  0  0  0  0  0  0
   -1.1308   -1.1677    0.8546 N   0  0  0  0  0  0  0  0  0  0  0  0
   -2.5674   -2.1583   -0.5442 N   0  0  0  0  0  0  0  0  0  0  0  0
   -1.9509    1.1090    0.7942 N   0  0  0  0  0  0  0  0  0  0  0  0
   -3.8427    1.2717   -0.6668 N   0  0  0  0  0  0  0  0  0  0  0  0
   -3.0337    3.1686    0.4691 N   0  0  0  0  0  0  0  0  0  0  0  0
   -1.9839   -0.1920    0.4301 C   0  0  0  0  0  0  0  0  0  0  0  0
   -0.0259   -1.0221    1.7711 C   0  0  0  0  0  0  0  0  0  0  0  0
   -2.8505   -0.8299   -0.4242 C   0  0  0  0  0  0  0  0  0  0  0  0
   -1.5224   -2.3325    0.2411 C   0  0  0  0  0  0  0  0  0  0  0  0
    2.1831   -0.2213    1.9248 C   0  0  0  0  0  0  0  0  0  0  0  0
   -3.8951   -0.0737   -1.0578 C   0  0  0  0  0  0  0  0  0  0  0  0
    3.2872    0.4576    1.1374 C   0  0  0  0  0  0  0  0  0  0  0  0
   -2.8975    1.8260    0.2283 C   0  0  0  0  0  0  0  0  0  0  0  0
   -0.3615   -0.4150    2.6189 H   0  0  0  0  0  0  0  0  0  0  0  0
    0.2730   -2.0165    2.1201 H   0  0  0  0  0  0  0  0  0  0  0  0
   -1.0098   -3.2711    0.4033 H   0  0  0  0  0  0  0  0  0  0  0  0
    1.9152    0.3881    2.7948 H   0  0  0  0  0  0  0  0  0  0  0  0
    2.5210   -1.2080    2.2622 H   0  0  0  0  0  0  0  0  0  0  0  0
    4.1612    0.6141    1.7764 H   0  0  0  0  0  0  0  0  0  0  0  0
    2.9345    1.4228    0.7607 H   0  0  0  0  0  0  0  0  0  0  0  0
   -4.5401    1.8984   -1.0581 H   0  0  0  0  0  0  0  0  0  0  0  0
   -2.4035    3.6560    1.0966 H   0  0  0  0  0  0  0  0  0  0  0  0
   -3.7668    3.7133    0.0282 H   0  0  0  0  0  0  0  0  0  0  0  0
    6.9019    0.7482   -0.3628 H   0  0  0  0  0  0  0  0  0  0  0  0
    4.7767    2.1154   -2.0830 H   0  0  0  0  0  0  0  0  0  0  0  0
  1  3  1  0  0  0  0
  1  5  1  0  0  0  0
  1  6  1  0  0  0  0
  1  7  2  0  0  0  0
  2 14  1  0  0  0  0
  2 17  1  0  0  0  0
  3 19  1  0  0  0  0
  4 18  2  0  0  0  0
  5 31  1  0  0  0  0
  6 32  1  0  0  0  0
  8 13  1  0  0  0  0
  8 14  1  0  0  0  0
  8 16  1  0  0  0  0
  9 15  1  0  0  0  0
  9 16  2  0  0  0  0
 10 13  1  0  0  0  0
 10 20  2  0  0  0  0
 11 18  1  0  0  0  0
 11 20  1  0  0  0  0
 11 28  1  0  0  0  0
 12 20  1  0  0  0  0
 12 29  1  0  0  0  0
 12 30  1  0  0  0  0
 13 15  2  0  0  0  0
 14 21  1  0  0  0  0
 14 22  1  0  0  0  0
 15 18  1  0  0  0  0
 16 23  1  0  0  0  0
 17 19  1  0  0  0  0
 17 24  1  0  0  0  0
 17 25  1  0  0  0  0
 19 26  1  0  0  0  0
 19 27  1  0  0  0  0
M  END
> <PUBCHEM_COMPOUND_CID>
135422933

> <PUBCHEM_CONFORMER_RMSD>
0.8

> <PUBCHEM_CONFORMER_DIVERSEORDER>
1
26
80
27
39
29
23
92
42
81
16
11
99
10
106
31
103
86
76
7
82
79
44
111
5
91
33
6
15
9
108
110
70
3
119
25
43
47
17
20
109
40
60
19
84
74
71
8
24
18
4
59
49
118
30
62
120
88
112
53
61
104
28
95
67
46
66
21
35
93
36
87
2
73
41
50
13
12
34
107
77
85
113
14
96
37
90
101
48
51
121
56
68
116
58
117
65
94
72
75
32
100
45
38
114
64
97
63
115
54
22
78
98
57
83
55
102
52
105
89
69

> <PUBCHEM_MMFF94_PARTIAL_CHARGES>
26
1 1.51
10 -0.58
11 -0.49
12 -0.85
13 -0.03
14 0.54
15 0.14
16 0.04
17 0.28
18 0.72
19 0.28
2 -0.56
20 0.56
23 0.15
28 0.37
29 0.4
3 -0.55
30 0.4
31 0.5
32 0.5
4 -0.57
5 -0.77
6 -0.77
7 -0.7
8 0.05
9 -0.57

> <PUBCHEM_EFFECTIVE_ROTOR_COUNT>
6

> <PUBCHEM_PHARMACOPHORE_FEATURES>
11
1 11 donor
1 12 donor
1 2 acceptor
1 4 acceptor
1 5 acceptor
1 6 acceptor
1 7 acceptor
3 8 9 16 cation
4 1 5 6 7 anion
5 8 9 13 15 16 rings
6 10 11 13 15 18 20 rings

> <PUBCHEM_HEAVY_ATOM_COUNT>
20

> <PUBCHEM_ATOM_DEF_STEREO_COUNT>
0

> <PUBCHEM_ATOM_UDEF_STEREO_COUNT>
0

> <PUBCHEM_BOND_DEF_STEREO_COUNT>
0

> <PUBCHEM_BOND_UDEF_STEREO_COUNT>
0

> <PUBCHEM_ISOTOPIC_ATOM_COUNT>
0

> <PUBCHEM_COMPONENT_COUNT>
1

> <PUBCHEM_CACTVS_TAUTO_COUNT>
-1

> <PUBCHEM_CONFORMER_ID>
081263D500000001

> <PUBCHEM_MMFF94_ENERGY>
3.1782

> <PUBCHEM_FEATURE_SELFOVERLAP>
56.035

> <PUBCHEM_SHAPE_FINGERPRINT>
10498660 4 18260260888953670072
10670039 82 18261111829581545604
10730089 88 17988648466935045392
10871710 139 18188204291607273957
12363563 72 15841559565601121026
13828863 39 13263269716966197830
13887833 79 18202007599257450902
13994607 96 17676216757893542793
14123260 362 17821447962892605970
1420 369 13254799053330631452
14251764 38 18191310579760347092
14341114 328 8790592720202573286
14848178 5 15984548781014432718
15003188 33 18341059519381926606
15163728 17 17972587802336741157
15183329 4 17967532334251841170
15342168 16 16515678931556019643
15475509 35 12892503499832159335
15475509 8 17775558750777184117
17870717 6 18060704991452237790
200 152 15267344028520582802
20645477 70 16128649786923433266
20693207 138 17203038685873760530
20871999 31 18343582940805215104
22646028 28 14261354665317416722
23366157 5 17830160321655268547
235170 7 17775290503798591812
23557571 272 18052523650047403066
23559900 14 18129647729352590944
23596394 208 17775005674552675790
27216 239 14129055928489128091
312425 83 18340226136812823500
3459 110 13263264218906528084
351380 3 13038906655409112500
474 4 17313374609112596458

> <PUBCHEM_SHAPE_MULTIPOLES>
355.32
11.69
2.19
1.75
15.09
0.83
-0.16
3.12
-6.74
-2.7
0.18
1.2
-0.24
-0.78

> <PUBCHEM_SHAPE_SELFOVERLAP>
732.741

> <PUBCHEM_SHAPE_VOLUME>
206

> <PUBCHEM_COORDINATE_TYPE>
2
5
10

$$$$
