135483765
  -OEChem-03292013293D

 32 34  0     1  0  0  0  0  0999 V2000
   -2.0830    0.4910   -0.9951 O   0  0  0  0  0  0  0  0  0  0  0  0
   -1.2419   -2.2785    1.1233 O   0  0  0  0  0  0  0  0  0  0  0  0
   -3.5266   -2.1328   -0.3614 O   0  0  0  0  0  0  0  0  0  0  0  0
   -3.7956    2.6181   -0.3619 O   0  0  0  0  0  0  0  0  0  0  0  0
    4.6717    1.3409    0.4247 O   0  0  0  0  0  0  0  0  0  0  0  0
    1.7046    1.8693    0.3710 N   0  0  0  0  0  0  0  0  0  0  0  0
    1.8478   -1.5655   -0.5495 N   0  0  0  0  0  0  0  0  0  0  0  0
    4.1152   -0.8231   -0.1980 N   0  0  0  0  0  0  0  0  0  0  0  0
   -1.1054   -0.4088   -0.4332 C   0  0  2  0  0  0  0  0  0  0  0  0
   -1.7448   -0.9923    0.8217 C   0  0  1  0  0  0  0  0  0  0  0  0
   -3.2169   -1.0062    0.4587 C   0  0  1  0  0  0  0  0  0  0  0  0
   -3.3622    0.2689   -0.3618 C   0  0  1  0  0  0  0  0  0  0  0  0
    0.2028    0.2948   -0.1553 C   0  0  0  0  0  0  0  0  0  0  0  0
   -3.6926    1.4888    0.4874 C   0  0  0  0  0  0  0  0  0  0  0  0
    1.4969   -0.2488   -0.2163 C   0  0  0  0  0  0  0  0  0  0  0  0
    0.3602    1.6169    0.2132 C   0  0  0  0  0  0  0  0  0  0  0  0
    2.4100    0.7266    0.1082 C   0  0  0  0  0  0  0  0  0  0  0  0
    3.8262    0.4994    0.1406 C   0  0  0  0  0  0  0  0  0  0  0  0
    3.1336   -1.7589   -0.5164 C   0  0  0  0  0  0  0  0  0  0  0  0
   -0.9290   -1.1941   -1.1795 H   0  0  0  0  0  0  0  0  0  0  0  0
   -1.5771   -0.3392    1.6872 H   0  0  0  0  0  0  0  0  0  0  0  0
   -3.8693   -1.0523    1.3358 H   0  0  0  0  0  0  0  0  0  0  0  0
   -4.0978    0.1658   -1.1673 H   0  0  0  0  0  0  0  0  0  0  0  0
   -2.9051    1.6953    1.2189 H   0  0  0  0  0  0  0  0  0  0  0  0
   -4.6447    1.3544    1.0100 H   0  0  0  0  0  0  0  0  0  0  0  0
   -0.3605    2.4055    0.3799 H   0  0  0  0  0  0  0  0  0  0  0  0
   -1.7677   -2.6311    1.8612 H   0  0  0  0  0  0  0  0  0  0  0  0
   -4.4666   -2.0671   -0.6017 H   0  0  0  0  0  0  0  0  0  0  0  0
    2.1028    2.7591    0.6387 H   0  0  0  0  0  0  0  0  0  0  0  0
   -4.0089    3.3818    0.2010 H   0  0  0  0  0  0  0  0  0  0  0  0
    5.0885   -1.1138   -0.2120 H   0  0  0  0  0  0  0  0  0  0  0  0
    3.5587   -2.7464   -0.7554 H   0  0  0  0  0  0  0  0  0  0  0  0
  1  9  1  0  0  0  0
  1 12  1  0  0  0  0
  2 10  1  0  0  0  0
  2 27  1  0  0  0  0
  3 11  1  0  0  0  0
  3 28  1  0  0  0  0
  4 14  1  0  0  0  0
  4 30  1  0  0  0  0
  5 18  2  0  0  0  0
  6 16  1  0  0  0  0
  6 17  1  0  0  0  0
  6 29  1  0  0  0  0
  7 15  1  0  0  0  0
  7 19  2  0  0  0  0
  8 18  1  0  0  0  0
  8 19  1  0  0  0  0
  8 31  1  0  0  0  0
  9 10  1  0  0  0  0
  9 13  1  0  0  0  0
  9 20  1  0  0  0  0
 10 11  1  0  0  0  0
 10 21  1  0  0  0  0
 11 12  1  0  0  0  0
 11 22  1  0  0  0  0
 12 14  1  0  0  0  0
 12 23  1  0  0  0  0
 13 15  1  0  0  0  0
 13 16  2  0  0  0  0
 14 24  1  0  0  0  0
 14 25  1  0  0  0  0
 15 17  2  0  0  0  0
 16 26  1  0  0  0  0
 17 18  1  0  0  0  0
 19 32  1  0  0  0  0
M  END
> <PUBCHEM_COMPOUND_CID>
135483765

> <PUBCHEM_CONFORMER_RMSD>
0.6

> <PUBCHEM_CONFORMER_DIVERSEORDER>
1
11
14
6
7
8
4
2
12
13
5
10
15
9
3

> <PUBCHEM_MMFF94_PARTIAL_CHARGES>
26
1 -0.56
10 0.28
11 0.28
12 0.28
13 -0.18
14 0.28
15 0.12
16 -0.3
17 -0.24
18 0.71
19 0.45
2 -0.68
26 0.15
27 0.4
28 0.4
29 0.27
3 -0.68
30 0.4
31 0.37
32 0.06
4 -0.68
5 -0.57
6 0.03
7 -0.57
8 -0.49
9 0.46

> <PUBCHEM_EFFECTIVE_ROTOR_COUNT>
3

> <PUBCHEM_PHARMACOPHORE_FEATURES>
14
1 1 acceptor
1 2 acceptor
1 2 donor
1 3 acceptor
1 3 donor
1 4 acceptor
1 4 donor
1 5 acceptor
1 6 cation
1 6 donor
1 8 donor
5 1 9 10 11 12 rings
5 6 13 15 16 17 rings
6 7 8 15 17 18 19 rings

> <PUBCHEM_HEAVY_ATOM_COUNT>
19

> <PUBCHEM_ATOM_DEF_STEREO_COUNT>
4

> <PUBCHEM_ATOM_UDEF_STEREO_COUNT>
0

> <PUBCHEM_BOND_DEF_STEREO_COUNT>
0

> <PUBCHEM_BOND_UDEF_STEREO_COUNT>
0

> <PUBCHEM_ISOTOPIC_ATOM_COUNT>
0

> <PUBCHEM_COMPONENT_COUNT>
1

> <PUBCHEM_CACTVS_TAUTO_COUNT>
-1

> <PUBCHEM_CONFORMER_ID>
0813517500000001

> <PUBCHEM_MMFF94_ENERGY>
41.7503

> <PUBCHEM_FEATURE_SELFOVERLAP>
71.184

> <PUBCHEM_SHAPE_FINGERPRINT>
10366900 7 18194404617547379715
10608611 8 18411135865726886361
1100329 8 16535951409152606329
11471102 20 18342453734084784236
11578080 2 16700583849639233361
116883 192 17983865484407422404
12500047 106 18410571786254867657
13296908 3 18413109454907733134
13544592 145 18194128421354618366
13675066 3 18261404308042714545
14115302 16 18042421169987208286
15196674 1 18412263934966558478
15219456 202 18411139138613096870
15375358 24 18411417310944534242
15442244 35 18269559346883336056
16945 1 18120105123927628075
18186145 218 18187363169073748278
19049666 15 18409732858956727763
200 152 17917144013693978071
20201158 50 18409450318854787162
20279233 1 18335704970278640290
20510252 161 18410577305788983801
20645477 56 18408324376314808569
20645477 70 17846779560019604246
21421861 104 17752761338699096274
21501502 16 18335990868960792277
23402539 116 18187633747676172549
23559900 14 18268427941561870254
25 1 18263924337159192303
296302 2 18412827997226806192
335352 9 18195247715580504894
34934 24 18341045238098637544
4214541 1 18411982446857123501
495365 180 17845917551308732760
5104073 3 18411980252276386290
69090 78 18413386557924494415
8809292 202 18335706022360816658
9709674 26 18410579525786363734

> <PUBCHEM_SHAPE_MULTIPOLES>
346.72
8.23
2.32
0.82
2.05
0.03
0.04
1.21
0
-1.11
0.15
-0.27
-0.15
0.74

> <PUBCHEM_SHAPE_SELFOVERLAP>
757.345

> <PUBCHEM_SHAPE_VOLUME>
186.1

> <PUBCHEM_COORDINATE_TYPE>
2
5
10

$$$$
