135457360
  -OEChem-03292013293D

 37 39  0     0  0  0  0  0  0999 V2000
    1.2196    2.4194    0.1162 O   0  0  0  0  0  0  0  0  0  0  0  0
   -1.6779   -2.4135    0.0538 O   0  0  0  0  0  0  0  0  0  0  0  0
    1.0560   -2.3260    0.1875 O   0  0  0  0  0  0  0  0  0  0  0  0
   -1.5169    2.3333    0.0549 O   0  0  0  0  0  0  0  0  0  0  0  0
    5.5147   -0.0597   -2.1204 O   0  0  0  0  0  0  0  0  0  0  0  0
    6.8371   -0.0423    0.3242 O   0  0  0  0  0  0  0  0  0  0  0  0
   -7.2942    0.0405   -0.1976 O   0  0  0  0  0  0  0  0  0  0  0  0
    1.2142    0.0403    0.1547 C   0  0  0  0  0  0  0  0  0  0  0  0
   -1.6749   -0.0338    0.0528 C   0  0  0  0  0  0  0  0  0  0  0  0
    2.6876    0.0196    0.1956 C   0  0  0  0  0  0  0  0  0  0  0  0
    0.5526    1.2073    0.1178 C   0  0  0  0  0  0  0  0  0  0  0  0
   -1.0127   -1.2008    0.0834 C   0  0  0  0  0  0  0  0  0  0  0  0
    0.4694   -1.2475    0.1446 C   0  0  0  0  0  0  0  0  0  0  0  0
   -3.1480   -0.0129   -0.0130 C   0  0  0  0  0  0  0  0  0  0  0  0
   -0.9299    1.2543    0.0727 C   0  0  0  0  0  0  0  0  0  0  0  0
    3.4180   -0.0104   -0.9924 C   0  0  0  0  0  0  0  0  0  0  0  0
    3.3515    0.0292    1.4224 C   0  0  0  0  0  0  0  0  0  0  0  0
   -3.8985   -0.0019    1.1627 C   0  0  0  0  0  0  0  0  0  0  0  0
   -3.7909   -0.0053   -1.2508 C   0  0  0  0  0  0  0  0  0  0  0  0
    4.8122   -0.0305   -0.9536 C   0  0  0  0  0  0  0  0  0  0  0  0
    4.7456    0.0090    1.4611 C   0  0  0  0  0  0  0  0  0  0  0  0
    5.4759   -0.0208    0.2731 C   0  0  0  0  0  0  0  0  0  0  0  0
   -5.2918    0.0162    1.1006 C   0  0  0  0  0  0  0  0  0  0  0  0
   -5.1842    0.0128   -1.3130 C   0  0  0  0  0  0  0  0  0  0  0  0
   -5.9346    0.0236   -0.1373 C   0  0  0  0  0  0  0  0  0  0  0  0
    2.9014   -0.0188   -1.9499 H   0  0  0  0  0  0  0  0  0  0  0  0
    2.7959    0.0515    2.3568 H   0  0  0  0  0  0  0  0  0  0  0  0
   -3.4117   -0.0072    2.1350 H   0  0  0  0  0  0  0  0  0  0  0  0
   -3.2195   -0.0132   -2.1759 H   0  0  0  0  0  0  0  0  0  0  0  0
    5.2500    0.0163    2.4237 H   0  0  0  0  0  0  0  0  0  0  0  0
   -5.8710    0.0245    2.0199 H   0  0  0  0  0  0  0  0  0  0  0  0
   -5.6730    0.0183   -2.2835 H   0  0  0  0  0  0  0  0  0  0  0  0
    0.5484    3.1228    0.0847 H   0  0  0  0  0  0  0  0  0  0  0  0
   -1.0062   -3.1166    0.0819 H   0  0  0  0  0  0  0  0  0  0  0  0
    4.8907   -0.0623   -2.8665 H   0  0  0  0  0  0  0  0  0  0  0  0
    7.1194   -0.0318    1.2549 H   0  0  0  0  0  0  0  0  0  0  0  0
   -7.5681    0.0433   -1.1309 H   0  0  0  0  0  0  0  0  0  0  0  0
  1 11  1  0  0  0  0
  1 33  1  0  0  0  0
  2 12  1  0  0  0  0
  2 34  1  0  0  0  0
  3 13  2  0  0  0  0
  4 15  2  0  0  0  0
  5 20  1  0  0  0  0
  5 35  1  0  0  0  0
  6 22  1  0  0  0  0
  6 36  1  0  0  0  0
  7 25  1  0  0  0  0
  7 37  1  0  0  0  0
  8 10  1  0  0  0  0
  8 11  2  0  0  0  0
  8 13  1  0  0  0  0
  9 12  2  0  0  0  0
  9 14  1  0  0  0  0
  9 15  1  0  0  0  0
 10 16  2  0  0  0  0
 10 17  1  0  0  0  0
 11 15  1  0  0  0  0
 12 13  1  0  0  0  0
 14 18  2  0  0  0  0
 14 19  1  0  0  0  0
 16 20  1  0  0  0  0
 16 26  1  0  0  0  0
 17 21  2  0  0  0  0
 17 27  1  0  0  0  0
 18 23  1  0  0  0  0
 18 28  1  0  0  0  0
 19 24  2  0  0  0  0
 19 29  1  0  0  0  0
 20 22  2  0  0  0  0
 21 22  1  0  0  0  0
 21 30  1  0  0  0  0
 23 25  2  0  0  0  0
 23 31  1  0  0  0  0
 24 25  1  0  0  0  0
 24 32  1  0  0  0  0
M  END
> <PUBCHEM_COMPOUND_CID>
135457360

> <PUBCHEM_CONFORMER_RMSD>
0.6

> <PUBCHEM_CONFORMER_DIVERSEORDER>
1
4
2
3

> <PUBCHEM_MMFF94_PARTIAL_CHARGES>
37
1 -0.53
10 0.03
11 0.09
12 0.09
13 0.54
14 0.03
15 0.54
16 -0.15
17 -0.15
18 -0.15
19 -0.15
2 -0.53
20 0.08
21 -0.15
22 0.08
23 -0.15
24 -0.15
25 0.08
26 0.15
27 0.15
28 0.15
29 0.15
3 -0.57
30 0.15
31 0.15
32 0.15
33 0.45
34 0.45
35 0.45
36 0.45
37 0.45
4 -0.57
5 -0.53
6 -0.53
7 -0.53
8 -0.01
9 -0.01

> <PUBCHEM_EFFECTIVE_ROTOR_COUNT>
2

> <PUBCHEM_PHARMACOPHORE_FEATURES>
10
1 1 donor
1 2 donor
1 3 acceptor
1 4 acceptor
1 5 donor
1 6 donor
1 7 donor
6 10 16 17 20 21 22 rings
6 14 18 19 23 24 25 rings
6 8 9 11 12 13 15 rings

> <PUBCHEM_HEAVY_ATOM_COUNT>
25

> <PUBCHEM_ATOM_DEF_STEREO_COUNT>
0

> <PUBCHEM_ATOM_UDEF_STEREO_COUNT>
0

> <PUBCHEM_BOND_DEF_STEREO_COUNT>
0

> <PUBCHEM_BOND_UDEF_STEREO_COUNT>
0

> <PUBCHEM_ISOTOPIC_ATOM_COUNT>
0

> <PUBCHEM_COMPONENT_COUNT>
1

> <PUBCHEM_CACTVS_TAUTO_COUNT>
-1

> <PUBCHEM_CONFORMER_ID>
0812EA5000000001

> <PUBCHEM_MMFF94_ENERGY>
74.2367

> <PUBCHEM_FEATURE_SELFOVERLAP>
50.753

> <PUBCHEM_SHAPE_FINGERPRINT>
10595046 47 15697995262377514211
10670039 82 18261966128910425884
10906281 52 18341067271033069581
11646440 116 18202290220979919473
11796584 16 16515405162066760203
11963148 33 18261105301079217227
12011746 2 18410576180212048803
12236239 1 17530963584278814576
12390115 104 18057333798945286969
12516196 113 18131348622179859209
12553582 1 18410854364969757529
12788726 201 18187640258820778576
13140716 1 18266457796469535065
13533116 47 18339353068619648466
13583140 156 16515695463059000937
13862211 1 18410852161709472507
14294032 229 18046071454113869549
14341114 176 15574716884979283503
14790565 3 18410304604982877593
14933364 13 15646772284193880279
15048467 5 16008751320409991671
15099037 51 18410575106296216551
15475509 8 18057906687231322436
1601671 61 18407758140310310282
18222031 100 18342457045135603056
18681886 176 17489295426380758891
19141452 34 17561078141794221110
20771845 171 17749395827790545654
21236236 1 18339642231318773841
21267235 1 18410577283755081745
21641784 216 18042136383412040516
21781051 124 18187664512759912458
22956985 138 17828193299500757050
23402539 116 18273490187162983749
23559900 14 18270969054778240876
23569914 152 16761967071283296381
23569914 2 15000183739583513423
23569943 247 17629497301559467719
23576562 1 18043252542828155053
283562 15 18341614746583626065
314173 85 18272654545277967969
3178227 256 18335151907693096521
335352 9 18410572915720425519
34797466 226 16226052175673721630
404807 14 14974939747194621398
4072396 5 18334284353910745498
4073 2 17131544054943577598
4340502 62 16226047781901092490
5104073 3 18266456692552183657
5385378 56 18337958879106404307
59755656 215 18202003196452002231
7495541 125 17386011710234506649
9971528 1 17775284984438705344

> <PUBCHEM_SHAPE_MULTIPOLES>
473.4
15.4
1.55
1.26
2.12
0.01
0.21
-0.05
1.41
0.19
-0.09
-0.75
-0.01
0.04

> <PUBCHEM_SHAPE_SELFOVERLAP>
1054.322

> <PUBCHEM_SHAPE_VOLUME>
249.9

> <PUBCHEM_COORDINATE_TYPE>
2
5
10

$$$$
