135485620
  -OEChem-03292013293D

 56 58  0     1  0  0  0  0  0999 V2000
    2.4087    5.2670    0.5400 O   0  0  0  0  0  0  0  0  0  0  0  0
   -2.8392    1.9032   -2.3052 O   0  0  0  0  0  0  0  0  0  0  0  0
   -6.5610    1.0304    0.9806 O   0  0  0  0  0  0  0  0  0  0  0  0
    0.6315   -2.0391    1.4805 O   0  0  0  0  0  0  0  0  0  0  0  0
   -4.6528    1.5643    2.0869 O   0  0  0  0  0  0  0  0  0  0  0  0
   -3.8678   -3.9950    0.7414 O   0  0  0  0  0  0  0  0  0  0  0  0
   -4.8373   -3.4323   -1.2311 O   0  0  0  0  0  0  0  0  0  0  0  0
   -3.1338    1.2277   -0.1066 N   0  0  0  0  0  0  0  0  0  0  0  0
    3.8729   -3.4183   -0.5897 N   0  0  0  0  0  0  0  0  0  0  0  0
    1.7687   -3.7408    0.4120 N   0  0  0  0  0  0  0  0  0  0  0  0
    2.8449   -5.5243   -0.6463 N   0  0  0  0  0  0  0  0  0  0  0  0
    3.1343    3.0106   -0.0435 C   0  0  1  0  0  0  0  0  0  0  0  0
    3.7727    2.0602    1.0030 C   0  0  0  0  0  0  0  0  0  0  0  0
    1.6834    2.6764   -0.3383 C   0  0  0  0  0  0  0  0  0  0  0  0
    3.7853    0.6260    0.5929 C   0  0  0  0  0  0  0  0  0  0  0  0
   -4.5202    0.8397   -0.2346 C   0  0  1  0  0  0  0  0  0  0  0  0
   -4.6885   -0.6217   -0.6674 C   0  0  0  0  0  0  0  0  0  0  0  0
    2.7114   -0.2010    0.9174 C   0  0  0  0  0  0  0  0  0  0  0  0
    0.7374    2.7102    0.6862 C   0  0  0  0  0  0  0  0  0  0  0  0
    1.2962    2.3354   -1.6343 C   0  0  0  0  0  0  0  0  0  0  0  0
   -0.9831    2.0619   -0.8812 C   0  0  0  0  0  0  0  0  0  0  0  0
    4.8717    0.1145   -0.1154 C   0  0  0  0  0  0  0  0  0  0  0  0
    2.7342   -1.5436    0.5280 C   0  0  0  0  0  0  0  0  0  0  0  0
    3.3176    4.4552    0.3951 C   0  0  0  0  0  0  0  0  0  0  0  0
   -0.5958    2.4031    0.4147 C   0  0  0  0  0  0  0  0  0  0  0  0
   -0.0370    2.0283   -1.9056 C   0  0  0  0  0  0  0  0  0  0  0  0
    3.8189   -2.0724   -0.1841 C   0  0  0  0  0  0  0  0  0  0  0  0
   -2.3731    1.7410   -1.1635 C   0  0  0  0  0  0  0  0  0  0  0  0
   -4.1401   -1.6742    0.3044 C   0  0  0  0  0  0  0  0  0  0  0  0
    4.8878   -1.2273   -0.5015 C   0  0  0  0  0  0  0  0  0  0  0  0
    1.6095   -2.4397    0.8605 C   0  0  0  0  0  0  0  0  0  0  0  0
   -5.2128    1.1749    1.0703 C   0  0  0  0  0  0  0  0  0  0  0  0
    2.8750   -4.2017   -0.2917 C   0  0  0  0  0  0  0  0  0  0  0  0
   -4.3197   -3.0986   -0.1742 C   0  0  0  0  0  0  0  0  0  0  0  0
    3.7105    2.9231   -0.9753 H   0  0  0  0  0  0  0  0  0  0  0  0
    4.8038    2.3852    1.2019 H   0  0  0  0  0  0  0  0  0  0  0  0
    3.2688    2.1616    1.9741 H   0  0  0  0  0  0  0  0  0  0  0  0
   -4.9667    1.4855   -1.0013 H   0  0  0  0  0  0  0  0  0  0  0  0
   -5.7548   -0.8251   -0.8318 H   0  0  0  0  0  0  0  0  0  0  0  0
   -4.2021   -0.7609   -1.6420 H   0  0  0  0  0  0  0  0  0  0  0  0
    1.8725    0.1891    1.4858 H   0  0  0  0  0  0  0  0  0  0  0  0
    1.0178    2.9828    1.7000 H   0  0  0  0  0  0  0  0  0  0  0  0
    2.0218    2.3028   -2.4425 H   0  0  0  0  0  0  0  0  0  0  0  0
    5.7131    0.7512   -0.3760 H   0  0  0  0  0  0  0  0  0  0  0  0
    4.3647    4.7620    0.5657 H   0  0  0  0  0  0  0  0  0  0  0  0
   -1.3044    2.4724    1.2348 H   0  0  0  0  0  0  0  0  0  0  0  0
   -0.3173    1.7602   -2.9210 H   0  0  0  0  0  0  0  0  0  0  0  0
   -2.6900    1.0365    0.7858 H   0  0  0  0  0  0  0  0  0  0  0  0
   -4.6509   -1.5828    1.2693 H   0  0  0  0  0  0  0  0  0  0  0  0
   -3.0674   -1.5117    0.4573 H   0  0  0  0  0  0  0  0  0  0  0  0
    5.7427   -1.6100   -1.0539 H   0  0  0  0  0  0  0  0  0  0  0  0
    1.0244   -4.4024    0.6125 H   0  0  0  0  0  0  0  0  0  0  0  0
   -7.0100    1.2629    1.8212 H   0  0  0  0  0  0  0  0  0  0  0  0
    3.6094   -5.9474   -1.1613 H   0  0  0  0  0  0  0  0  0  0  0  0
    2.0597   -6.1191   -0.4053 H   0  0  0  0  0  0  0  0  0  0  0  0
   -3.9990   -4.9202    0.4426 H   0  0  0  0  0  0  0  0  0  0  0  0
  1 24  2  0  0  0  0
  2 28  2  0  0  0  0
  3 32  1  0  0  0  0
  3 53  1  0  0  0  0
  4 31  2  0  0  0  0
  5 32  2  0  0  0  0
  6 34  1  0  0  0  0
  6 56  1  0  0  0  0
  7 34  2  0  0  0  0
  8 16  1  0  0  0  0
  8 28  1  0  0  0  0
  8 48  1  0  0  0  0
  9 27  1  0  0  0  0
  9 33  2  0  0  0  0
 10 31  1  0  0  0  0
 10 33  1  0  0  0  0
 10 52  1  0  0  0  0
 11 33  1  0  0  0  0
 11 54  1  0  0  0  0
 11 55  1  0  0  0  0
 12 13  1  0  0  0  0
 12 14  1  0  0  0  0
 12 24  1  0  0  0  0
 12 35  1  0  0  0  0
 13 15  1  0  0  0  0
 13 36  1  0  0  0  0
 13 37  1  0  0  0  0
 14 19  2  0  0  0  0
 14 20  1  0  0  0  0
 15 18  2  0  0  0  0
 15 22  1  0  0  0  0
 16 17  1  0  0  0  0
 16 32  1  0  0  0  0
 16 38  1  0  0  0  0
 17 29  1  0  0  0  0
 17 39  1  0  0  0  0
 17 40  1  0  0  0  0
 18 23  1  0  0  0  0
 18 41  1  0  0  0  0
 19 25  1  0  0  0  0
 19 42  1  0  0  0  0
 20 26  2  0  0  0  0
 20 43  1  0  0  0  0
 21 25  2  0  0  0  0
 21 26  1  0  0  0  0
 21 28  1  0  0  0  0
 22 30  2  0  0  0  0
 22 44  1  0  0  0  0
 23 27  2  0  0  0  0
 23 31  1  0  0  0  0
 24 45  1  0  0  0  0
 25 46  1  0  0  0  0
 26 47  1  0  0  0  0
 27 30  1  0  0  0  0
 29 34  1  0  0  0  0
 29 49  1  0  0  0  0
 29 50  1  0  0  0  0
 30 51  1  0  0  0  0
M  END
> <PUBCHEM_COMPOUND_CID>
135485620

> <PUBCHEM_CONFORMER_RMSD>
1

> <PUBCHEM_CONFORMER_DIVERSEORDER>
1
82
44
72
57
115
59
38
129
75
13
114
123
136
98
132
43
127
89
126
101
93
70
7
121
34
138
143
135
117
94
62
91
39
111
86
112
78
109
140
139
124
133
76
128
81
71
104
131
84
142
61
10
74
25
77
6
100
56
83
9
137
37
48
134
69
63
51
4
5
80
45
107
20
65
102
116
30
125
73
68
54
85
87
95
103
49
19
120
119
64
21
96
11
66
22
55
26
110
141
52
53
14
46
105
60
50
130
88
15
118
42
3
2
67
90
17
29
36
92
16
58
32
106
12
27
18
108
79
28
35
24
122
8
113
40
33
31
23
41
47
99
97

> <PUBCHEM_MMFF94_PARTIAL_CHARGES>
47
1 -0.57
10 -0.49
11 -0.85
12 0.2
13 0.14
14 -0.14
15 -0.14
16 0.36
18 -0.15
19 -0.15
2 -0.57
20 -0.15
21 0.09
22 -0.15
23 0.09
24 0.45
25 -0.15
26 -0.15
27 0.18
28 0.54
29 0.06
3 -0.65
30 -0.15
31 0.54
32 0.66
33 0.56
34 0.66
4 -0.57
41 0.15
42 0.15
43 0.15
44 0.15
45 0.06
46 0.15
47 0.15
48 0.37
5 -0.57
51 0.15
52 0.37
53 0.5
54 0.4
55 0.4
56 0.5
6 -0.65
7 -0.57
8 -0.73
9 -0.63

> <PUBCHEM_EFFECTIVE_ROTOR_COUNT>
11

> <PUBCHEM_PHARMACOPHORE_FEATURES>
15
1 1 acceptor
1 10 donor
1 11 donor
1 2 acceptor
1 3 acceptor
1 4 acceptor
1 5 acceptor
1 6 acceptor
1 7 acceptor
1 8 donor
3 3 5 32 anion
3 6 7 34 anion
6 14 19 20 21 25 26 rings
6 15 18 22 23 27 30 rings
6 9 10 23 27 31 33 rings

> <PUBCHEM_HEAVY_ATOM_COUNT>
34

> <PUBCHEM_ATOM_DEF_STEREO_COUNT>
1

> <PUBCHEM_ATOM_UDEF_STEREO_COUNT>
1

> <PUBCHEM_BOND_DEF_STEREO_COUNT>
0

> <PUBCHEM_BOND_UDEF_STEREO_COUNT>
0

> <PUBCHEM_ISOTOPIC_ATOM_COUNT>
0

> <PUBCHEM_COMPONENT_COUNT>
1

> <PUBCHEM_CACTVS_TAUTO_COUNT>
-1

> <PUBCHEM_CONFORMER_ID>
081358B400000001

> <PUBCHEM_MMFF94_ENERGY>
82.9115

> <PUBCHEM_FEATURE_SELFOVERLAP>
76.316

> <PUBCHEM_SHAPE_FINGERPRINT>
10675989 125 14376191400465615234
10864689 126 17974845064784187623
10928967 22 18043531612101225691
11136131 41 18117543240956186274
11513181 2 18053671562099877390
12107183 9 18055646010343235849
13692114 37 17765699601488063208
14068700 686 18046612676006679253
15001296 14 18336259145845906857
15320467 1 18411136913920693043
15347590 135 17483674881526941449
15721738 15 16674403073126958877
16067690 210 16558759988082122001
19311894 1 16608290482647738098
20028762 73 18269265923798250910
20775438 99 17833505138699555079
20775530 9 18047748204965798854
21133410 38 18198632210472597115
21197605 99 17903915904895121762
23379529 103 17765433150112028598
3117164 225 18269560442675672129
3633792 109 18337942413019254533
3737641 26 18194122906743093508
463206 1 18335426742075445139
50080093 196 18192978533961391139
613672 6 17905300971913562320
86090 222 17749965383482114809

> <PUBCHEM_SHAPE_MULTIPOLES>
638.69
12.36
7.31
1.43
15.38
4.7
-0.27
3.97
1.8
-5.8
-0.36
1.06
-0.69
0.43

> <PUBCHEM_SHAPE_SELFOVERLAP>
1370.082

> <PUBCHEM_SHAPE_VOLUME>
347.7

> <PUBCHEM_COORDINATE_TYPE>
2
5
10

$$$$
