135419190
  -OEChem-03292013293D

 46 46  0     0  0  0  0  0  0999 V2000
    5.5607   -1.3938   -0.5362 S   0  0  0  0  0  0  0  0  0  0  0  0
   -3.3761    0.2698   -0.2208 O   0  0  0  0  0  0  0  0  0  0  0  0
    4.9192    0.0439    1.5967 N   0  0  0  0  0  0  0  0  0  0  0  0
    2.7300    1.2342   -2.2005 N   0  0  0  0  0  0  0  0  0  0  0  0
   -1.7631    2.6112    0.1496 C   0  0  0  0  0  0  0  0  0  0  0  0
   -2.4095   -2.4014   -0.1192 C   0  0  0  0  0  0  0  0  0  0  0  0
   -1.2088    1.1781    0.2091 C   0  0  0  0  0  0  0  0  0  0  0  0
   -1.5269   -1.2133    0.0791 C   0  0  0  0  0  0  0  0  0  0  0  0
   -2.0474    0.0795    0.0213 C   0  0  0  0  0  0  0  0  0  0  0  0
   -2.4132    2.9742   -1.2049 C   0  0  0  0  0  0  0  0  0  0  0  0
   -0.6201    3.6206    0.3918 C   0  0  0  0  0  0  0  0  0  0  0  0
   -2.8430    2.7963    1.2375 C   0  0  0  0  0  0  0  0  0  0  0  0
   -1.6000   -3.7296   -0.0085 C   0  0  0  0  0  0  0  0  0  0  0  0
   -3.5842   -2.5411    0.9040 C   0  0  0  0  0  0  0  0  0  0  0  0
   -3.0831   -2.3751   -1.5255 C   0  0  0  0  0  0  0  0  0  0  0  0
    0.1505    0.9840    0.4552 C   0  0  0  0  0  0  0  0  0  0  0  0
   -0.1677   -1.4073    0.3251 C   0  0  0  0  0  0  0  0  0  0  0  0
    0.6711   -0.3087    0.5131 C   0  0  0  0  0  0  0  0  0  0  0  0
    2.0881   -0.5118    0.7702 C   0  0  0  0  0  0  0  0  0  0  0  0
    3.1144   -0.0853   -0.0075 C   0  0  0  0  0  0  0  0  0  0  0  0
    4.5082   -0.4666    0.3876 C   0  0  0  0  0  0  0  0  0  0  0  0
    2.9011    0.6422   -1.2171 C   0  0  0  0  0  0  0  0  0  0  0  0
   -3.3560    2.4527   -1.3860 H   0  0  0  0  0  0  0  0  0  0  0  0
   -2.4642    2.4976    2.2224 H   0  0  0  0  0  0  0  0  0  0  0  0
   -3.7585    2.2286    1.0507 H   0  0  0  0  0  0  0  0  0  0  0  0
   -3.1414    3.8494    1.3101 H   0  0  0  0  0  0  0  0  0  0  0  0
    0.1551    3.5728   -0.3826 H   0  0  0  0  0  0  0  0  0  0  0  0
   -1.7386    2.7379   -2.0360 H   0  0  0  0  0  0  0  0  0  0  0  0
   -2.6413    4.0457   -1.2570 H   0  0  0  0  0  0  0  0  0  0  0  0
   -0.1640    3.5099    1.3830 H   0  0  0  0  0  0  0  0  0  0  0  0
   -1.0102    4.6467    0.3626 H   0  0  0  0  0  0  0  0  0  0  0  0
   -3.8713   -1.6242   -1.6184 H   0  0  0  0  0  0  0  0  0  0  0  0
   -4.2993   -1.7160    0.8404 H   0  0  0  0  0  0  0  0  0  0  0  0
   -2.3415   -2.1858   -2.3107 H   0  0  0  0  0  0  0  0  0  0  0  0
   -3.5544   -3.3404   -1.7478 H   0  0  0  0  0  0  0  0  0  0  0  0
   -3.1965   -2.5576    1.9294 H   0  0  0  0  0  0  0  0  0  0  0  0
   -1.1563   -3.8651    0.9852 H   0  0  0  0  0  0  0  0  0  0  0  0
   -0.8211   -3.8060   -0.7767 H   0  0  0  0  0  0  0  0  0  0  0  0
   -2.2595   -4.5931   -0.1662 H   0  0  0  0  0  0  0  0  0  0  0  0
   -4.1463   -3.4682    0.7417 H   0  0  0  0  0  0  0  0  0  0  0  0
    0.8474    1.7965    0.6228 H   0  0  0  0  0  0  0  0  0  0  0  0
    0.2994   -2.3839    0.3828 H   0  0  0  0  0  0  0  0  0  0  0  0
   -3.4619    0.4091   -1.1798 H   0  0  0  0  0  0  0  0  0  0  0  0
    2.3013   -1.1117    1.6536 H   0  0  0  0  0  0  0  0  0  0  0  0
    4.3218    0.6247    2.1768 H   0  0  0  0  0  0  0  0  0  0  0  0
    5.8509   -0.1444    1.9519 H   0  0  0  0  0  0  0  0  0  0  0  0
  1 21  2  0  0  0  0
  2  9  1  0  0  0  0
  2 43  1  0  0  0  0
  3 21  1  0  0  0  0
  3 45  1  0  0  0  0
  3 46  1  0  0  0  0
  4 22  3  0  0  0  0
  5  7  1  0  0  0  0
  5 10  1  0  0  0  0
  5 11  1  0  0  0  0
  5 12  1  0  0  0  0
  6  8  1  0  0  0  0
  6 13  1  0  0  0  0
  6 14  1  0  0  0  0
  6 15  1  0  0  0  0
  7  9  2  0  0  0  0
  7 16  1  0  0  0  0
  8  9  1  0  0  0  0
  8 17  2  0  0  0  0
 10 23  1  0  0  0  0
 10 28  1  0  0  0  0
 10 29  1  0  0  0  0
 11 27  1  0  0  0  0
 11 30  1  0  0  0  0
 11 31  1  0  0  0  0
 12 24  1  0  0  0  0
 12 25  1  0  0  0  0
 12 26  1  0  0  0  0
 13 37  1  0  0  0  0
 13 38  1  0  0  0  0
 13 39  1  0  0  0  0
 14 33  1  0  0  0  0
 14 36  1  0  0  0  0
 14 40  1  0  0  0  0
 15 32  1  0  0  0  0
 15 34  1  0  0  0  0
 15 35  1  0  0  0  0
 16 18  2  0  0  0  0
 16 41  1  0  0  0  0
 17 18  1  0  0  0  0
 17 42  1  0  0  0  0
 18 19  1  0  0  0  0
 19 20  2  0  0  0  0
 19 44  1  0  0  0  0
 20 21  1  0  0  0  0
 20 22  1  0  0  0  0
M  END
> <PUBCHEM_COMPOUND_CID>
135419190

> <PUBCHEM_CONFORMER_RMSD>
0.6

> <PUBCHEM_CONFORMER_DIVERSEORDER>
1
20
25
24
16
31
13
28
21
4
19
30
18
6
23
15
27
26
14
29
17
22
5
10
12
3
7
9
11
2
8

> <PUBCHEM_MMFF94_PARTIAL_CHARGES>
22
1 -0.38
16 -0.15
17 -0.15
18 0.03
19 -0.18
2 -0.53
20 0.08
21 0.43
22 0.49
3 -0.8
4 -0.56
41 0.15
42 0.15
43 0.45
44 0.15
45 0.37
46 0.37
5 0.14
6 0.14
7 -0.14
8 -0.14
9 0.08

> <PUBCHEM_EFFECTIVE_ROTOR_COUNT>
4

> <PUBCHEM_PHARMACOPHORE_FEATURES>
6
1 1 acceptor
1 2 donor
1 4 acceptor
4 5 10 11 12 hydrophobe
4 6 13 14 15 hydrophobe
6 7 8 9 16 17 18 rings

> <PUBCHEM_HEAVY_ATOM_COUNT>
22

> <PUBCHEM_ATOM_DEF_STEREO_COUNT>
0

> <PUBCHEM_ATOM_UDEF_STEREO_COUNT>
0

> <PUBCHEM_BOND_DEF_STEREO_COUNT>
1

> <PUBCHEM_BOND_UDEF_STEREO_COUNT>
0

> <PUBCHEM_ISOTOPIC_ATOM_COUNT>
0

> <PUBCHEM_COMPONENT_COUNT>
1

> <PUBCHEM_CACTVS_TAUTO_COUNT>
-1

> <PUBCHEM_CONFORMER_ID>
0812553600000001

> <PUBCHEM_MMFF94_ENERGY>
93.3387

> <PUBCHEM_FEATURE_SELFOVERLAP>
30.446

> <PUBCHEM_SHAPE_FINGERPRINT>
10319926 262 18198315439849936898
10411042 1 18267301130621171387
1100329 8 18411419553271248209
121448 382 18197759034456236165
12173636 292 18124595275775583229
12553582 1 18196381539502022415
12643181 29 18051981308492702430
12788726 201 18264227952634298070
13009979 54 18259990388003386020
13140716 1 18268148832848019313
13583140 156 17703496728474830722
14178342 30 18335128757935935154
14508225 48 18268977842919044709
14790565 3 18339934710323775113
15042514 8 18410019827407704139
15230672 131 17977676303997542814
16752209 62 18337376189134786355
16945 1 18413673513099698001
17492 89 18335425699026789162
1813 80 17985560085070893519
20510252 161 18199463281737177425
20600515 1 17914904368205418707
20642791 105 18187912959532353949
20671657 53 18053379091885465119
20775438 99 16687057872591449671
21033648 29 18051119303786479400
21041028 32 18266469891651412979
21065201 7 18341045230105101146
2132832 1 18114737248337576868
21524375 3 18117286852050306521
22224240 67 18128544765389124673
23184049 29 18339641251971044336
2334 1 18051125101780429113
23402539 116 18343292678620958743
23419403 2 17344320475603472033
23557571 272 18202287979007113692
23558518 356 18261680263707537827
23559900 14 18129659678911470058
23598288 3 18188510015573068649
23598291 2 17968106326186041406
25147074 1 18041011665274759732
2748010 2 18124297566270314969
3091708 16 9131314876316656753
312423 11 18041577930620913574
352729 6 18194398884198569323
5104073 3 18341887464654530378
559249 180 18120088391226277186
59755656 520 17984989193427516881
7164475 11 18336270123766432606
7364860 26 17332529476273993459
7615 1 18041003968482310172
81228 2 18341330071839955339
9709674 26 18201720588126294750
9862522 239 17752196189427487652

> <PUBCHEM_SHAPE_MULTIPOLES>
440.77
8.47
4.28
1.32
13.52
0.54
-0.42
-2.85
-0.01
-6.08
-0.13
0.46
0.3
-0.45

> <PUBCHEM_SHAPE_SELFOVERLAP>
903.252

> <PUBCHEM_SHAPE_VOLUME>
259.6

> <PUBCHEM_COORDINATE_TYPE>
2
5
10

$$$$
