135410909
  -OEChem-03292013293D

 26 27  0     0  0  0  0  0  0999 V2000
    4.1769   -2.6270    0.0777 Cl  0  0  0  0  0  0  0  0  0  0  0  0
    0.8462    2.0754   -0.0521 S   0  0  0  0  0  0  0  0  0  0  0  0
    3.1156    0.1491   -0.0138 S   0  0  0  0  0  0  0  0  0  0  0  0
    1.2266    2.5933   -1.3492 O   0  0  0  0  0  0  0  0  0  0  0  0
    1.2713    2.6934    1.1856 O   0  0  0  0  0  0  0  0  0  0  0  0
   -0.8323    1.7713   -0.0103 N   0  0  0  0  0  0  0  0  0  0  0  0
   -0.6685   -0.6800    0.0809 N   0  0  0  0  0  0  0  0  0  0  0  0
   -2.7527    0.4290    0.0729 N   0  0  0  0  0  0  0  0  0  0  0  0
    1.4526    0.4430    0.0019 C   0  0  0  0  0  0  0  0  0  0  0  0
    0.6895   -0.6909    0.0589 C   0  0  0  0  0  0  0  0  0  0  0  0
   -1.4545    0.4687    0.0495 C   0  0  0  0  0  0  0  0  0  0  0  0
   -3.3051   -0.9129    0.1341 C   0  0  0  0  0  0  0  0  0  0  0  0
    1.5006   -1.8588    0.0913 C   0  0  0  0  0  0  0  0  0  0  0  0
    2.8464   -1.5470    0.0568 C   0  0  0  0  0  0  0  0  0  0  0  0
   -4.6203   -0.8712    0.8981 C   0  0  0  0  0  0  0  0  0  0  0  0
   -3.4921   -1.4353   -1.2825 C   0  0  0  0  0  0  0  0  0  0  0  0
   -1.4581    2.5865   -0.0312 H   0  0  0  0  0  0  0  0  0  0  0  0
   -1.1041   -1.5931    0.0423 H   0  0  0  0  0  0  0  0  0  0  0  0
   -2.7247   -1.6226    0.7317 H   0  0  0  0  0  0  0  0  0  0  0  0
    1.1239   -2.8734    0.1373 H   0  0  0  0  0  0  0  0  0  0  0  0
   -5.3398   -0.2028    0.4119 H   0  0  0  0  0  0  0  0  0  0  0  0
   -5.0719   -1.8668    0.9622 H   0  0  0  0  0  0  0  0  0  0  0  0
   -4.4662   -0.5005    1.9175 H   0  0  0  0  0  0  0  0  0  0  0  0
   -4.1509   -0.7782   -1.8615 H   0  0  0  0  0  0  0  0  0  0  0  0
   -3.9405   -2.4344   -1.2715 H   0  0  0  0  0  0  0  0  0  0  0  0
   -2.5421   -1.5025   -1.8221 H   0  0  0  0  0  0  0  0  0  0  0  0
  1 14  1  0  0  0  0
  2  4  2  0  0  0  0
  2  5  2  0  0  0  0
  2  6  1  0  0  0  0
  2  9  1  0  0  0  0
  3  9  1  0  0  0  0
  3 14  1  0  0  0  0
  6 11  1  0  0  0  0
  6 17  1  0  0  0  0
  7 10  1  0  0  0  0
  7 11  1  0  0  0  0
  7 18  1  0  0  0  0
  8 11  2  0  0  0  0
  8 12  1  0  0  0  0
  9 10  2  0  0  0  0
 10 13  1  0  0  0  0
 12 15  1  0  0  0  0
 12 16  1  0  0  0  0
 12 19  1  0  0  0  0
 13 14  2  0  0  0  0
 13 20  1  0  0  0  0
 15 21  1  0  0  0  0
 15 22  1  0  0  0  0
 15 23  1  0  0  0  0
 16 24  1  0  0  0  0
 16 25  1  0  0  0  0
 16 26  1  0  0  0  0
M  END
> <PUBCHEM_COMPOUND_CID>
135410909

> <PUBCHEM_CONFORMER_RMSD>
0.6

> <PUBCHEM_CONFORMER_DIVERSEORDER>
1
2

> <PUBCHEM_MMFF94_PARTIAL_CHARGES>
17
1 -0.12
10 0.08
11 0.74
12 0.25
13 -0.15
14 0.16
17 0.42
18 0.4
2 1.5
20 0.15
3 -0.08
4 -0.65
5 -0.65
6 -0.79
7 -0.53
8 -0.7
9 -0.02

> <PUBCHEM_EFFECTIVE_ROTOR_COUNT>
1.4

> <PUBCHEM_PHARMACOPHORE_FEATURES>
7
1 4 acceptor
1 5 acceptor
1 6 donor
1 7 donor
3 12 15 16 hydrophobe
5 3 9 10 13 14 rings
6 2 6 7 9 10 11 rings

> <PUBCHEM_HEAVY_ATOM_COUNT>
16

> <PUBCHEM_ATOM_DEF_STEREO_COUNT>
0

> <PUBCHEM_ATOM_UDEF_STEREO_COUNT>
0

> <PUBCHEM_BOND_DEF_STEREO_COUNT>
0

> <PUBCHEM_BOND_UDEF_STEREO_COUNT>
0

> <PUBCHEM_ISOTOPIC_ATOM_COUNT>
0

> <PUBCHEM_COMPONENT_COUNT>
1

> <PUBCHEM_CACTVS_TAUTO_COUNT>
-1

> <PUBCHEM_CONFORMER_ID>
081234DD00000001

> <PUBCHEM_MMFF94_ENERGY>
29.9136

> <PUBCHEM_FEATURE_SELFOVERLAP>
35.612

> <PUBCHEM_SHAPE_FINGERPRINT>
10967382 1 18338236080357955306
10989021 7 18410294692023427659
11543360 7 15357994364047338570
11806522 49 18340763835967630838
12032990 46 18337675209179521138
12553582 1 18338792321362113267
13134695 92 18271232880948472213
13140716 1 17978508959866742922
13533116 47 18267872860273567123
14251717 144 18339073916713322775
14576447 43 18199177571875473959
15042514 8 17905612103254486106
15375462 189 18343305898408794539
15442244 35 18341334413951651609
15477762 27 18409167744155361143
15501101 241 18409164445620484373
16945 1 18337951302324501704
18186145 218 17676198096498024627
20291156 8 18339080389123718070
20559304 39 18412268366940284776
20645477 70 18262508321197273319
20671657 1 18198064878902843093
20671657 53 18335424547384248991
20708731 107 18262525904144452164
20871998 22 18410292488926802904
21029758 27 18335990774440045110
21041028 32 18342464690324972825
21267235 1 18338527343307118946
21296965 67 18337390439893997866
21634736 98 18126837420455412191
221490 88 18262245546038976435
2255824 54 18265338484937126676
2334 1 18338233765212327194
23402539 116 18263922142579077718
23419403 2 18123156118476833500
23526113 38 17676497167380682650
23557571 272 17983016648519575310
23598291 2 18201722907397857855
2748010 2 18266445530185498596
3071541 250 18410020930897683956
458136 41 17974866260706535309
54173680 148 17834394519352858882
5493415 88 18410007698045507128
6049 1 17967808375698796581
7364860 26 18270399511342956504
81228 2 17905622003349061362

> <PUBCHEM_SHAPE_MULTIPOLES>
312.16
7.17
2.96
0.92
4.42
1.34
0.13
-6.05
-0.52
-2.37
0.11
0.43
0.19
-0.26

> <PUBCHEM_SHAPE_SELFOVERLAP>
621.071

> <PUBCHEM_SHAPE_VOLUME>
185.6

> <PUBCHEM_COORDINATE_TYPE>
2
5
10

$$$$
