135430649
  -OEChem-03292013293D

 47 50  0     0  0  0  0  0  0999 V2000
    1.5469   -3.1454   -0.9899 O   0  0  0  0  0  0  0  0  0  0  0  0
   -4.8116   -2.2572    0.6648 O   0  0  0  0  0  0  0  0  0  0  0  0
   -4.9781    2.4307   -0.3014 O   0  0  0  0  0  0  0  0  0  0  0  0
   -6.2856    0.0403    0.1947 O   0  0  0  0  0  0  0  0  0  0  0  0
   -0.7000    0.2284    0.1451 N   0  0  0  0  0  0  0  0  0  0  0  0
    3.5068   -2.0108   -0.5905 N   0  0  0  0  0  0  0  0  0  0  0  0
    5.5152   -0.9982   -0.1327 N   0  0  0  0  0  0  0  0  0  0  0  0
    5.7007    1.4213    0.2193 N   0  0  0  0  0  0  0  0  0  0  0  0
    3.9735    2.9000   -0.1150 N   0  0  0  0  0  0  0  0  0  0  0  0
    7.4160   -0.0121    0.6338 N   0  0  0  0  0  0  0  0  0  0  0  0
    2.1512    0.3658    0.0593 C   0  0  0  0  0  0  0  0  0  0  0  0
    1.4238   -0.8818   -0.2446 C   0  0  0  0  0  0  0  0  0  0  0  0
    3.4990    0.3972   -0.0532 C   0  0  0  0  0  0  0  0  0  0  0  0
    0.0753   -0.8852   -0.2051 C   0  0  0  0  0  0  0  0  0  0  0  0
   -2.1350    0.1798    0.1563 C   0  0  0  0  0  0  0  0  0  0  0  0
    1.3325    1.5021    0.5072 C   0  0  0  0  0  0  0  0  0  0  0  0
   -0.0079    1.3851    0.5163 C   0  0  0  0  0  0  0  0  0  0  0  0
    4.2328   -0.8891   -0.2609 C   0  0  0  0  0  0  0  0  0  0  0  0
    2.1299   -2.1195   -0.6523 C   0  0  0  0  0  0  0  0  0  0  0  0
    4.4120    1.6059    0.0440 C   0  0  0  0  0  0  0  0  0  0  0  0
   -2.8742    1.3385   -0.0814 C   0  0  0  0  0  0  0  0  0  0  0  0
   -2.7899   -1.0261    0.4062 C   0  0  0  0  0  0  0  0  0  0  0  0
   -4.1839   -1.0734    0.4186 C   0  0  0  0  0  0  0  0  0  0  0  0
   -4.2683    1.2913   -0.0692 C   0  0  0  0  0  0  0  0  0  0  0  0
   -4.9231    0.0853    0.1810 C   0  0  0  0  0  0  0  0  0  0  0  0
    6.1910    0.1377    0.2439 C   0  0  0  0  0  0  0  0  0  0  0  0
   -3.9822   -3.3940    0.8976 C   0  0  0  0  0  0  0  0  0  0  0  0
   -4.2309    3.6203   -0.5485 C   0  0  0  0  0  0  0  0  0  0  0  0
   -6.9361   -0.2370   -1.0435 C   0  0  0  0  0  0  0  0  0  0  0  0
   -0.4811   -1.7676   -0.4966 H   0  0  0  0  0  0  0  0  0  0  0  0
    1.7762    2.4002    0.9125 H   0  0  0  0  0  0  0  0  0  0  0  0
   -0.6058    2.2005    0.9074 H   0  0  0  0  0  0  0  0  0  0  0  0
    4.0375   -2.8543   -0.7894 H   0  0  0  0  0  0  0  0  0  0  0  0
   -2.3374    2.2491   -0.3162 H   0  0  0  0  0  0  0  0  0  0  0  0
   -2.1930   -1.8985    0.6384 H   0  0  0  0  0  0  0  0  0  0  0  0
    3.0548    3.1275   -0.4758 H   0  0  0  0  0  0  0  0  0  0  0  0
    4.6291    3.6715   -0.0465 H   0  0  0  0  0  0  0  0  0  0  0  0
   -4.6478   -4.2482    1.0609 H   0  0  0  0  0  0  0  0  0  0  0  0
   -3.3867   -3.2798    1.8098 H   0  0  0  0  0  0  0  0  0  0  0  0
   -3.3690   -3.6352    0.0224 H   0  0  0  0  0  0  0  0  0  0  0  0
   -4.9549    4.4277   -0.7009 H   0  0  0  0  0  0  0  0  0  0  0  0
   -3.6444    3.5449   -1.4705 H   0  0  0  0  0  0  0  0  0  0  0  0
   -3.6207    3.9032    0.3162 H   0  0  0  0  0  0  0  0  0  0  0  0
   -6.7027    0.5355   -1.7830 H   0  0  0  0  0  0  0  0  0  0  0  0
   -6.6405   -1.2205   -1.4223 H   0  0  0  0  0  0  0  0  0  0  0  0
   -8.0156   -0.2397   -0.8700 H   0  0  0  0  0  0  0  0  0  0  0  0
    7.8004    0.9088    0.8724 H   0  0  0  0  0  0  0  0  0  0  0  0
  1 19  2  0  0  0  0
  2 23  1  0  0  0  0
  2 27  1  0  0  0  0
  3 24  1  0  0  0  0
  3 28  1  0  0  0  0
  4 25  1  0  0  0  0
  4 29  1  0  0  0  0
  5 14  1  0  0  0  0
  5 15  1  0  0  0  0
  5 17  1  0  0  0  0
  6 18  1  0  0  0  0
  6 19  1  0  0  0  0
  6 33  1  0  0  0  0
  7 18  2  0  0  0  0
  7 26  1  0  0  0  0
  8 20  2  0  0  0  0
  8 26  1  0  0  0  0
  9 20  1  0  0  0  0
  9 36  1  0  0  0  0
  9 37  1  0  0  0  0
 10 26  2  0  0  0  0
 10 47  1  0  0  0  0
 11 12  1  0  0  0  0
 11 13  2  0  0  0  0
 11 16  1  0  0  0  0
 12 14  2  0  0  0  0
 12 19  1  0  0  0  0
 13 18  1  0  0  0  0
 13 20  1  0  0  0  0
 14 30  1  0  0  0  0
 15 21  2  0  0  0  0
 15 22  1  0  0  0  0
 16 17  2  0  0  0  0
 16 31  1  0  0  0  0
 17 32  1  0  0  0  0
 21 24  1  0  0  0  0
 21 34  1  0  0  0  0
 22 23  2  0  0  0  0
 22 35  1  0  0  0  0
 23 25  1  0  0  0  0
 24 25  2  0  0  0  0
 27 38  1  0  0  0  0
 27 39  1  0  0  0  0
 27 40  1  0  0  0  0
 28 41  1  0  0  0  0
 28 42  1  0  0  0  0
 28 43  1  0  0  0  0
 29 44  1  0  0  0  0
 29 45  1  0  0  0  0
 29 46  1  0  0  0  0
M  END
> <PUBCHEM_COMPOUND_CID>
135430649

> <PUBCHEM_CONFORMER_RMSD>
0.8

> <PUBCHEM_CONFORMER_DIVERSEORDER>
1
4
3
5
2

> <PUBCHEM_MMFF94_PARTIAL_CHARGES>
37
1 -0.57
10 -0.85
12 0.01
13 0.03
14 -0.05
15 0.1
16 -0.15
17 -0.05
18 0.5
19 0.62
2 -0.36
20 0.49
21 -0.15
22 -0.15
23 0.08
24 0.08
25 0.08
26 0.87
27 0.28
28 0.28
29 0.28
3 -0.36
30 0.15
31 0.15
32 0.15
33 0.37
34 0.15
35 0.15
36 0.4
37 0.4
4 -0.36
47 0.4
5 -0.3
6 -0.49
7 -0.66
8 -0.66
9 -0.85

> <PUBCHEM_EFFECTIVE_ROTOR_COUNT>
4

> <PUBCHEM_PHARMACOPHORE_FEATURES>
13
1 1 acceptor
1 10 donor
1 2 acceptor
1 3 acceptor
1 4 acceptor
1 5 cation
1 6 donor
1 9 donor
4 7 8 10 26 cation
6 15 21 22 23 24 25 rings
6 5 11 12 14 16 17 rings
6 6 11 12 13 18 19 rings
6 7 8 13 18 20 26 rings

> <PUBCHEM_HEAVY_ATOM_COUNT>
29

> <PUBCHEM_ATOM_DEF_STEREO_COUNT>
0

> <PUBCHEM_ATOM_UDEF_STEREO_COUNT>
0

> <PUBCHEM_BOND_DEF_STEREO_COUNT>
0

> <PUBCHEM_BOND_UDEF_STEREO_COUNT>
0

> <PUBCHEM_ISOTOPIC_ATOM_COUNT>
0

> <PUBCHEM_COMPONENT_COUNT>
1

> <PUBCHEM_CACTVS_TAUTO_COUNT>
-1

> <PUBCHEM_CONFORMER_ID>
081281F900000001

> <PUBCHEM_MMFF94_ENERGY>
138.0135

> <PUBCHEM_FEATURE_SELFOVERLAP>
66.038

> <PUBCHEM_SHAPE_FINGERPRINT>
10 15 18341604958943508608
10411042 1 18047194331233510979
10675989 125 17473825026957861361
10835480 77 18340201869778355565
11315181 36 17894634768468404977
11578080 2 16952232236583245183
11719270 70 18343297046908952470
12107183 9 17756134601190841208
12236239 1 17203612557807741514
12516196 113 17846777399239857249
13402501 40 18411140250936046443
14790565 3 18340770463560981180
15183329 4 18334010583894295864
15196674 1 18411703192457450810
17844677 252 18408892836252503657
18608769 82 18337394933205685107
18681886 176 18342171194357279976
21236236 1 18411418380761110729
21267235 1 18342746204947814838
21279426 13 18268150846807833852
21315763 129 18408041827390610540
23559900 14 18196655086100999422
23569943 247 15121854378227587782
239999 70 18202291260510146286
3004659 81 18334858303607649584
335352 9 18342177774631974510
34797466 226 17989214741145629476
350125 39 18412546548357619820
3545911 37 18411983555143230809
4073 2 18113904900596901602
4144715 1 18336838497973716682
4214541 1 18409450263262857353
4325135 7 18272366481947545341
5104073 3 18337398132143645387
5283173 99 18335983064973963185
59755656 215 18408885122432828119
9709674 26 18340211795743097727
9995097 60 18411982442414489128

> <PUBCHEM_SHAPE_MULTIPOLES>
543.44
17.19
3.27
0.79
3.04
0.01
0.04
-1.9
-0.04
-2.55
0.21
-0.32
0.22
1.62

> <PUBCHEM_SHAPE_SELFOVERLAP>
1199.204

> <PUBCHEM_SHAPE_VOLUME>
291.8

> <PUBCHEM_COORDINATE_TYPE>
2
5
10

$$$$
