135449337
  -OEChem-03292013293D

 36 38  0     1  0  0  0  0  0999 V2000
   -3.5382    2.0065   -0.1892 P   0  0  0  0  0  0  0  0  0  0  0  0
   -0.7495   -1.1498   -1.0406 O   0  0  0  0  0  0  0  0  0  0  0  0
   -0.0458   -1.6025    1.8567 O   0  0  0  0  0  0  0  0  0  0  0  0
   -1.7999   -3.9775   -0.2061 O   0  0  0  0  0  0  0  0  0  0  0  0
   -2.8712    0.6203   -0.6941 O   0  0  0  0  0  0  0  0  0  0  0  0
   -4.8655    1.5068    0.5879 O   0  0  0  0  0  0  0  0  0  0  0  0
   -2.5644    2.4868    1.0091 O   0  0  0  0  0  0  0  0  0  0  0  0
    4.8347    1.9549    0.1245 O   0  0  0  0  0  0  0  0  0  0  0  0
   -3.7794    3.0230   -1.2665 O   0  0  0  0  0  0  0  0  0  0  0  0
    1.6210   -1.1822   -0.4105 N   0  0  0  0  0  0  0  0  0  0  0  0
    3.8229   -0.7857   -0.4191 N   0  0  0  0  0  0  0  0  0  0  0  0
    0.7755    1.0306    0.1027 N   0  0  0  0  0  0  0  0  0  0  0  0
    2.5975    2.5802    0.3580 N   0  0  0  0  0  0  0  0  0  0  0  0
   -0.1826   -2.5392    0.7942 C   0  0  1  0  0  0  0  0  0  0  0  0
   -1.6530   -2.7434    0.4926 C   0  0  1  0  0  0  0  0  0  0  0  0
    0.3273   -1.9511   -0.5211 C   0  0  1  0  0  0  0  0  0  0  0  0
   -1.9892   -1.5863   -0.4481 C   0  0  1  0  0  0  0  0  0  0  0  0
   -2.6109   -0.3924    0.2624 C   0  0  0  0  0  0  0  0  0  0  0  0
    1.7704    0.1441   -0.1312 C   0  0  0  0  0  0  0  0  0  0  0  0
    2.8835   -1.6980   -0.5752 C   0  0  0  0  0  0  0  0  0  0  0  0
    3.1301    0.3562   -0.1437 C   0  0  0  0  0  0  0  0  0  0  0  0
    3.6421    1.6769    0.1187 C   0  0  0  0  0  0  0  0  0  0  0  0
    1.2447    2.2218    0.3388 C   0  0  0  0  0  0  0  0  0  0  0  0
    0.3571   -3.4536    1.0602 H   0  0  0  0  0  0  0  0  0  0  0  0
   -2.2899   -2.7740    1.3821 H   0  0  0  0  0  0  0  0  0  0  0  0
    0.5216   -2.7402   -1.2586 H   0  0  0  0  0  0  0  0  0  0  0  0
   -2.6377   -1.9020   -1.2735 H   0  0  0  0  0  0  0  0  0  0  0  0
   -1.9304    0.0114    1.0172 H   0  0  0  0  0  0  0  0  0  0  0  0
   -3.5465   -0.6883    0.7469 H   0  0  0  0  0  0  0  0  0  0  0  0
   -0.4367   -2.0046    2.6511 H   0  0  0  0  0  0  0  0  0  0  0  0
   -2.7410   -4.0729   -0.4318 H   0  0  0  0  0  0  0  0  0  0  0  0
    3.0524   -2.7411   -0.8055 H   0  0  0  0  0  0  0  0  0  0  0  0
    0.5767    3.0712    0.5503 H   0  0  0  0  0  0  0  0  0  0  0  0
    2.8387    3.5472    0.5552 H   0  0  0  0  0  0  0  0  0  0  0  0
   -2.7274    3.3558    1.4340 H   0  0  0  0  0  0  0  0  0  0  0  0
   -5.5031    2.1758    0.9165 H   0  0  0  0  0  0  0  0  0  0  0  0
  1  5  1  0  0  0  0
  1  6  1  0  0  0  0
  1  7  1  0  0  0  0
  1  9  2  0  0  0  0
  2 16  1  0  0  0  0
  2 17  1  0  0  0  0
  3 14  1  0  0  0  0
  3 30  1  0  0  0  0
  4 15  1  0  0  0  0
  4 31  1  0  0  0  0
  5 18  1  0  0  0  0
  6 36  1  0  0  0  0
  7 35  1  0  0  0  0
  8 22  2  0  0  0  0
 10 16  1  0  0  0  0
 10 19  1  0  0  0  0
 10 20  1  0  0  0  0
 11 20  2  0  0  0  0
 11 21  1  0  0  0  0
 12 19  1  0  0  0  0
 12 23  2  0  0  0  0
 13 22  1  0  0  0  0
 13 23  1  0  0  0  0
 13 34  1  0  0  0  0
 14 15  1  0  0  0  0
 14 16  1  0  0  0  0
 14 24  1  0  0  0  0
 15 17  1  0  0  0  0
 15 25  1  0  0  0  0
 16 26  1  0  0  0  0
 17 18  1  0  0  0  0
 17 27  1  0  0  0  0
 18 28  1  0  0  0  0
 18 29  1  0  0  0  0
 19 21  2  0  0  0  0
 20 32  1  0  0  0  0
 21 22  1  0  0  0  0
 23 33  1  0  0  0  0
M  END
> <PUBCHEM_COMPOUND_CID>
135449337

> <PUBCHEM_CONFORMER_RMSD>
0.8

> <PUBCHEM_CONFORMER_DIVERSEORDER>
1
46
51
27
40
36
7
43
20
15
21
28
5
31
33
39
52
45
23
25
50
26
22
32
35
2
37
48
44
34
38
14
8
11
41
10
42
24
53
29
12
49
16
18
17
47
9
30
13
6
4
19
3

> <PUBCHEM_MMFF94_PARTIAL_CHARGES>
30
1 1.51
10 0.05
11 -0.57
12 -0.58
13 -0.49
14 0.28
15 0.28
16 0.54
17 0.28
18 0.28
19 -0.03
2 -0.56
20 0.04
21 0.14
22 0.72
23 0.45
3 -0.68
30 0.4
31 0.4
32 0.15
33 0.06
34 0.37
35 0.5
36 0.5
4 -0.68
5 -0.55
6 -0.77
7 -0.77
8 -0.57
9 -0.7

> <PUBCHEM_EFFECTIVE_ROTOR_COUNT>
5

> <PUBCHEM_PHARMACOPHORE_FEATURES>
15
1 13 donor
1 2 acceptor
1 3 acceptor
1 3 donor
1 4 acceptor
1 4 donor
1 6 acceptor
1 7 acceptor
1 8 acceptor
1 9 acceptor
3 10 11 20 cation
4 1 6 7 9 anion
5 10 11 19 20 21 rings
5 2 14 15 16 17 rings
6 12 13 19 21 22 23 rings

> <PUBCHEM_HEAVY_ATOM_COUNT>
23

> <PUBCHEM_ATOM_DEF_STEREO_COUNT>
4

> <PUBCHEM_ATOM_UDEF_STEREO_COUNT>
0

> <PUBCHEM_BOND_DEF_STEREO_COUNT>
0

> <PUBCHEM_BOND_UDEF_STEREO_COUNT>
0

> <PUBCHEM_ISOTOPIC_ATOM_COUNT>
0

> <PUBCHEM_COMPONENT_COUNT>
1

> <PUBCHEM_CACTVS_TAUTO_COUNT>
-1

> <PUBCHEM_CONFORMER_ID>
0812CAF900000001

> <PUBCHEM_MMFF94_ENERGY>
18.8606

> <PUBCHEM_FEATURE_SELFOVERLAP>
76.303

> <PUBCHEM_SHAPE_FINGERPRINT>
10608611 8 18267867357708011814
10670039 82 17832717042841100996
10906281 52 18198920119415467790
1100329 8 18265328400855478346
11221954 11 18341336664266607942
11370993 70 18410286974226224757
12403259 226 17623570152538166994
12788726 201 18119798355846852931
13140716 1 18409165494019928466
13464514 151 18411138048071172854
138480 1 17402048899137592647
14466204 15 17976814286073127378
14955137 171 17756697538291925019
15196674 1 18413108359485266381
18219364 16 18264781952229503825
19049666 15 18337112383906790874
19591789 44 18194122902126385964
20510252 161 18265332996227794451
21279426 13 18342185458175590300
21524375 3 18261960639662840967
22182937 141 18340774827015664857
23227448 37 18341333383259883263
23558518 356 18189335834631326463
238 59 17540497298789321621
23845131 108 18261961735438521723
25 1 18336828572087913863
335352 9 18339925918493279454
3524813 1 18189617142368063613
474 4 18197216945607162937
5939293 188 17690838961083463469
7832392 63 18413105052524232118
81228 2 17824825778709444319
9709674 26 18342741870429222574

> <PUBCHEM_SHAPE_MULTIPOLES>
410.3
7.61
4.23
0.97
0.28
0.81
-0.15
-6.54
0.49
-2.51
-0.18
-0.41
0.11
0.72

> <PUBCHEM_SHAPE_SELFOVERLAP>
869.013

> <PUBCHEM_SHAPE_VOLUME>
231.5

> <PUBCHEM_COORDINATE_TYPE>
2
5
10

$$$$
