135424854
  -OEChem-03292013293D

 33 35  0     0  0  0  0  0  0999 V2000
   -4.0799    3.8914    0.5508 Cl  0  0  0  0  0  0  0  0  0  0  0  0
    6.5462   -0.7016    0.1207 Cl  0  0  0  0  0  0  0  0  0  0  0  0
   -2.5695   -2.8132   -0.2485 P   0  0  0  0  0  0  0  0  0  0  0  0
   -1.7179   -1.4425   -0.1350 O   0  0  0  0  0  0  0  0  0  0  0  0
    2.7370    2.8422   -1.1435 O   0  0  0  0  0  0  0  0  0  0  0  0
   -3.3416   -2.6832   -1.6639 O   0  0  0  0  0  0  0  0  0  0  0  0
   -1.4277   -3.9171   -0.5593 O   0  0  0  0  0  0  0  0  0  0  0  0
   -3.4337   -3.1315    0.9368 O   0  0  0  0  0  0  0  0  0  0  0  0
    0.7393    1.8716   -0.5147 N   0  0  0  0  0  0  0  0  0  0  0  0
    0.6360   -0.2780    0.4547 N   0  0  0  0  0  0  0  0  0  0  0  0
   -1.4307    0.9264    0.1116 C   0  0  0  0  0  0  0  0  0  0  0  0
    0.0468    0.7993    0.0340 C   0  0  0  0  0  0  0  0  0  0  0  0
    2.8092    0.6917   -0.1721 C   0  0  0  0  0  0  0  0  0  0  0  0
    2.0374   -0.3496    0.3608 C   0  0  0  0  0  0  0  0  0  0  0  0
   -2.2512   -0.1983    0.0235 C   0  0  0  0  0  0  0  0  0  0  0  0
    2.1176    1.9035   -0.6566 C   0  0  0  0  0  0  0  0  0  0  0  0
   -1.9961    2.1912    0.2739 C   0  0  0  0  0  0  0  0  0  0  0  0
    4.2013    0.5906   -0.2499 C   0  0  0  0  0  0  0  0  0  0  0  0
    2.6878   -1.5011    0.8173 C   0  0  0  0  0  0  0  0  0  0  0  0
   -3.6370   -0.0580    0.0978 C   0  0  0  0  0  0  0  0  0  0  0  0
   -3.3819    2.3314    0.3484 C   0  0  0  0  0  0  0  0  0  0  0  0
   -4.2024    1.2067    0.2605 C   0  0  0  0  0  0  0  0  0  0  0  0
    4.8328   -0.5638    0.2101 C   0  0  0  0  0  0  0  0  0  0  0  0
    4.0781   -1.6080    0.7426 C   0  0  0  0  0  0  0  0  0  0  0  0
    0.2340    2.6797   -0.8646 H   0  0  0  0  0  0  0  0  0  0  0  0
   -1.3772    3.0790    0.3751 H   0  0  0  0  0  0  0  0  0  0  0  0
    4.7924    1.4029   -0.6652 H   0  0  0  0  0  0  0  0  0  0  0  0
    2.1136   -2.3246    1.2354 H   0  0  0  0  0  0  0  0  0  0  0  0
   -4.3185   -0.8980    0.0303 H   0  0  0  0  0  0  0  0  0  0  0  0
   -5.2839    1.3017    0.3163 H   0  0  0  0  0  0  0  0  0  0  0  0
    4.5588   -2.5135    1.1043 H   0  0  0  0  0  0  0  0  0  0  0  0
   -3.9771   -3.3837   -1.9236 H   0  0  0  0  0  0  0  0  0  0  0  0
   -1.6772   -4.8656   -0.5748 H   0  0  0  0  0  0  0  0  0  0  0  0
  1 21  1  0  0  0  0
  2 23  1  0  0  0  0
  3  4  1  0  0  0  0
  3  6  1  0  0  0  0
  3  7  1  0  0  0  0
  3  8  2  0  0  0  0
  4 15  1  0  0  0  0
  5 16  2  0  0  0  0
  6 32  1  0  0  0  0
  7 33  1  0  0  0  0
  9 12  1  0  0  0  0
  9 16  1  0  0  0  0
  9 25  1  0  0  0  0
 10 12  2  0  0  0  0
 10 14  1  0  0  0  0
 11 12  1  0  0  0  0
 11 15  2  0  0  0  0
 11 17  1  0  0  0  0
 13 14  2  0  0  0  0
 13 16  1  0  0  0  0
 13 18  1  0  0  0  0
 14 19  1  0  0  0  0
 15 20  1  0  0  0  0
 17 21  2  0  0  0  0
 17 26  1  0  0  0  0
 18 23  2  0  0  0  0
 18 27  1  0  0  0  0
 19 24  2  0  0  0  0
 19 28  1  0  0  0  0
 20 22  2  0  0  0  0
 20 29  1  0  0  0  0
 21 22  1  0  0  0  0
 22 30  1  0  0  0  0
 23 24  1  0  0  0  0
 24 31  1  0  0  0  0
M  END
> <PUBCHEM_COMPOUND_CID>
135424854

> <PUBCHEM_CONFORMER_RMSD>
0.6

> <PUBCHEM_CONFORMER_DIVERSEORDER>
3
24
2
8
25
22
14
21
19
1
13
17
20
23
6
16
5
7
9
10
4
15
11
12
18

> <PUBCHEM_MMFF94_PARTIAL_CHARGES>
33
1 -0.18
10 -0.63
11 0.09
12 0.42
13 0.09
14 0.18
15 0.08
16 0.54
17 -0.15
18 -0.15
19 -0.15
2 -0.18
20 -0.15
21 0.18
22 -0.15
23 0.18
24 -0.15
25 0.37
26 0.15
27 0.15
28 0.15
29 0.15
3 1.51
30 0.15
31 0.15
32 0.5
33 0.5
4 -0.35
5 -0.57
6 -0.77
7 -0.77
8 -0.7
9 -0.49

> <PUBCHEM_EFFECTIVE_ROTOR_COUNT>
3

> <PUBCHEM_PHARMACOPHORE_FEATURES>
9
1 5 acceptor
1 6 acceptor
1 7 acceptor
1 8 acceptor
1 9 donor
4 3 6 7 8 anion
6 11 15 17 20 21 22 rings
6 13 14 18 19 23 24 rings
6 9 10 12 13 14 16 rings

> <PUBCHEM_HEAVY_ATOM_COUNT>
24

> <PUBCHEM_ATOM_DEF_STEREO_COUNT>
0

> <PUBCHEM_ATOM_UDEF_STEREO_COUNT>
0

> <PUBCHEM_BOND_DEF_STEREO_COUNT>
0

> <PUBCHEM_BOND_UDEF_STEREO_COUNT>
0

> <PUBCHEM_ISOTOPIC_ATOM_COUNT>
0

> <PUBCHEM_COMPONENT_COUNT>
1

> <PUBCHEM_CACTVS_TAUTO_COUNT>
-1

> <PUBCHEM_CONFORMER_ID>
08126B5600000003

> <PUBCHEM_MMFF94_ENERGY>
33.01

> <PUBCHEM_FEATURE_SELFOVERLAP>
45.737

> <PUBCHEM_SHAPE_FINGERPRINT>
10411042 1 18123748914411500995
10616163 171 18411140263742008798
10906281 52 17969242070448102456
10940486 97 18408890637656451636
11045977 3 17917417710564160744
11524674 6 17345743089521998294
11578080 2 17774151456611806737
12107183 9 18048312241598531650
12236239 1 18338518526382546352
12553582 1 18115294584673504210
12788726 201 18341885317002186675
13140716 1 18339646749702925547
13583140 156 17632285822413983936
138480 1 16898493408676909683
14178342 30 18337092549768488760
14790565 3 18194406576200757368
15042514 8 18338240470426416283
15099037 8 18336826510466441492
15196674 1 18335703883994597920
15442244 35 18408040710593293768
17492 89 18263365961404366370
1813 80 16951138248853149900
19141452 34 18337671902270786100
20681677 155 18339641136106712736
20775438 99 16329021727964297471
21033648 29 18128238005022148592
21033650 10 16987174724825993248
21133410 171 17403396127316347150
21133410 221 14732480725811666731
21267235 1 18335430049105434456
21634736 98 18262514935272907130
221490 88 18188778386979112146
23402539 116 18200867362402342045
23557571 272 18060138726158772728
23558518 356 18188779473331492440
23559900 14 18341602759256114784
23598288 3 18271247217754619109
23622692 118 18269828873234681734
23728640 28 18413108351412491443
25147074 1 18114748230706024604
312423 11 18189342431864259806
335352 9 18336265660852521421
34934 24 18116149974623481464
350125 39 18337674118680087561
352729 6 18341618092557834303
4017518 198 17986951843490691870
4214541 1 18410012109077354784
5104073 3 18410853291813425360
532947 4 17837495150727827823
5364581 5 18056739135406981328
53777708 50 18263934395883325036
5385378 56 17766005995870540713
5486654 36 18260271866763660226
559249 180 18336543811476747120
7164475 11 18266178520463520548
9709674 26 18342743991858418527

> <PUBCHEM_SHAPE_MULTIPOLES>
462.19
11.03
4.23
0.9
11.17
1.97
0.13
-1.18
-1.19
-6.08
0.58
-0.1
0.21
-1.77

> <PUBCHEM_SHAPE_SELFOVERLAP>
981.975

> <PUBCHEM_SHAPE_VOLUME>
258.5

> <PUBCHEM_COORDINATE_TYPE>
2
5
10

$$$$
