135426515
  -OEChem-03292013293D

 29 32  0     0  0  0  0  0  0999 V2000
    0.7211   -2.3250   -0.0010 O   0  0  0  0  0  0  0  0  0  0  0  0
   -0.3918    2.5151   -0.0004 O   0  0  0  0  0  0  0  0  0  0  0  0
   -3.5595   -2.1589    0.0009 O   0  0  0  0  0  0  0  0  0  0  0  0
   -1.3138   -3.5001   -0.0011 O   0  0  0  0  0  0  0  0  0  0  0  0
    1.6730    3.6644    0.0004 O   0  0  0  0  0  0  0  0  0  0  0  0
   -4.8028    0.3356    0.0016 O   0  0  0  0  0  0  0  0  0  0  0  0
    5.1192   -0.0945    0.0005 O   0  0  0  0  0  0  0  0  0  0  0  0
   -3.1543    2.5726    0.0003 O   0  0  0  0  0  0  0  0  0  0  0  0
    3.4935   -2.3621    0.0028 O   0  0  0  0  0  0  0  0  0  0  0  0
   -0.5684    0.1151   -0.0007 C   0  0  0  0  0  0  0  0  0  0  0  0
    0.8809    0.0673   -0.0008 C   0  0  0  0  0  0  0  0  0  0  0  0
   -1.3731   -1.1090   -0.0006 C   0  0  0  0  0  0  0  0  0  0  0  0
    1.6814    1.2845   -0.0005 C   0  0  0  0  0  0  0  0  0  0  0  0
   -1.1332    1.3364   -0.0004 C   0  0  0  0  0  0  0  0  0  0  0  0
    1.4564   -1.1466   -0.0007 C   0  0  0  0  0  0  0  0  0  0  0  0
   -2.8310   -0.9870    0.0002 C   0  0  0  0  0  0  0  0  0  0  0  0
   -0.6774   -2.2755   -0.0009 C   0  0  0  0  0  0  0  0  0  0  0  0
    1.0056    2.4558   -0.0002 C   0  0  0  0  0  0  0  0  0  0  0  0
   -2.6163    1.4696    0.0001 C   0  0  0  0  0  0  0  0  0  0  0  0
    3.1303    1.1913   -0.0004 C   0  0  0  0  0  0  0  0  0  0  0  0
    2.9441   -1.2649    0.0005 C   0  0  0  0  0  0  0  0  0  0  0  0
   -3.4281    0.2169    0.0005 C   0  0  0  0  0  0  0  0  0  0  0  0
    3.7440   -0.0009    0.0000 C   0  0  0  0  0  0  0  0  0  0  0  0
    3.7198    2.1029   -0.0005 H   0  0  0  0  0  0  0  0  0  0  0  0
   -4.5038   -1.9238    0.0015 H   0  0  0  0  0  0  0  0  0  0  0  0
   -0.6033   -4.1649   -0.0014 H   0  0  0  0  0  0  0  0  0  0  0  0
    0.9793    4.3468    0.0005 H   0  0  0  0  0  0  0  0  0  0  0  0
   -5.0128    1.2855    0.0018 H   0  0  0  0  0  0  0  0  0  0  0  0
    5.3458   -1.0407    0.0010 H   0  0  0  0  0  0  0  0  0  0  0  0
  1 15  1  0  0  0  0
  1 17  1  0  0  0  0
  2 14  1  0  0  0  0
  2 18  1  0  0  0  0
  3 16  1  0  0  0  0
  3 25  1  0  0  0  0
  4 17  1  0  0  0  0
  4 26  1  0  0  0  0
  5 18  1  0  0  0  0
  5 27  1  0  0  0  0
  6 22  1  0  0  0  0
  6 28  1  0  0  0  0
  7 23  1  0  0  0  0
  7 29  1  0  0  0  0
  8 19  2  0  0  0  0
  9 21  2  0  0  0  0
 10 11  1  0  0  0  0
 10 12  1  0  0  0  0
 10 14  2  0  0  0  0
 11 13  1  0  0  0  0
 11 15  2  0  0  0  0
 12 16  1  0  0  0  0
 12 17  2  0  0  0  0
 13 18  2  0  0  0  0
 13 20  1  0  0  0  0
 14 19  1  0  0  0  0
 15 21  1  0  0  0  0
 16 22  2  0  0  0  0
 19 22  1  0  0  0  0
 20 23  2  0  0  0  0
 20 24  1  0  0  0  0
 21 23  1  0  0  0  0
M  END
> <PUBCHEM_COMPOUND_CID>
135426515

> <PUBCHEM_CONFORMER_RMSD>
0.6

> <PUBCHEM_CONFORMER_DIVERSEORDER>
1

> <PUBCHEM_MMFF94_PARTIAL_CHARGES>
25
1 -0.15
14 0.09
15 0.09
16 0.08
17 0.15
18 0.15
19 0.54
2 -0.15
20 -0.15
21 0.54
22 0.09
23 0.09
24 0.15
25 0.45
26 0.45
27 0.45
28 0.45
29 0.45
3 -0.53
4 -0.53
5 -0.53
6 -0.53
7 -0.53
8 -0.57
9 -0.57

> <PUBCHEM_EFFECTIVE_ROTOR_COUNT>
0

> <PUBCHEM_PHARMACOPHORE_FEATURES>
13
1 1 acceptor
1 2 acceptor
1 3 donor
1 4 donor
1 5 donor
1 6 donor
1 7 donor
1 8 acceptor
1 9 acceptor
6 1 10 11 12 15 17 rings
6 10 12 14 16 19 22 rings
6 11 13 15 20 21 23 rings
6 2 10 11 13 14 18 rings

> <PUBCHEM_HEAVY_ATOM_COUNT>
23

> <PUBCHEM_ATOM_DEF_STEREO_COUNT>
0

> <PUBCHEM_ATOM_UDEF_STEREO_COUNT>
0

> <PUBCHEM_BOND_DEF_STEREO_COUNT>
0

> <PUBCHEM_BOND_UDEF_STEREO_COUNT>
0

> <PUBCHEM_ISOTOPIC_ATOM_COUNT>
0

> <PUBCHEM_COMPONENT_COUNT>
1

> <PUBCHEM_CACTVS_TAUTO_COUNT>
-1

> <PUBCHEM_CONFORMER_ID>
081271D300000001

> <PUBCHEM_MMFF94_ENERGY>
67.532

> <PUBCHEM_FEATURE_SELFOVERLAP>
66.12

> <PUBCHEM_SHAPE_FINGERPRINT>
10411042 1 17762056940407782338
10493431 412 18198351662944948417
10616163 171 18339082699953344934
10693767 8 18057581210863479695
10967382 1 18410856533933360774
1100329 8 18338799017173176385
11578080 2 17315321908761870156
11680986 33 18120936371581565489
12011746 2 18410573976572098900
12403259 226 18339076111531288201
12553582 1 18410567401399168038
12838862 33 18338215112106394912
13132413 78 18412825767980673612
13140716 1 17977665634311238034
13583140 156 14189581814510274303
14178342 30 18195510705286953480
14223421 5 18193840563882178915
14790565 3 18051704239160588776
15196674 1 18338798888318863044
15230672 131 13291089036683211603
15442244 35 18338796822592555002
15536298 74 18342738481726314978
16945 1 18266458887285745732
17804303 29 18339084894570636012
193761 8 18122343755033915204
19591789 44 18266459797813641686
20028762 73 18201717397166567423
20510252 161 18271243798839559440
20739085 24 17977132087678155528
20905425 154 17837219542328108492
21267235 1 18410583868008570150
221490 88 18264213667414731649
2334 1 18410855434411112034
23366157 5 17898002684475400892
23402539 116 18342730827989306662
23463225 33 18409167684252451428
23558518 356 17827918751878052082
23559900 14 18269550697246833696
2748010 2 18339079285242925764
335352 9 18410575097595486493
34934 24 18337103445805262032
350125 39 18410016546232323561
5104073 3 18339080367637988754
7364860 26 18196371639934584568
7832392 63 18339920527977162478
9709674 26 18340210794593887046
9981440 41 17471570405208641272

> <PUBCHEM_SHAPE_MULTIPOLES>
420.51
7.12
3.62
0.58
0.74
0.3
0
-0.52
0
-0.24
0
0.01
0.01
0

> <PUBCHEM_SHAPE_SELFOVERLAP>
966.4

> <PUBCHEM_SHAPE_VOLUME>
212.2

> <PUBCHEM_COORDINATE_TYPE>
2
5
10

$$$$
