135433410
  -OEChem-03292013293D

 29 30  0     0  0  0  0  0  0999 V2000
    6.1377   -0.6391    0.3915 O   0  0  0  0  0  0  0  0  0  0  0  0
   -4.1128    0.7998    0.7744 O   0  0  0  0  0  0  0  0  0  0  0  0
    0.2135    1.0278   -0.5087 N   0  0  0  0  0  0  0  0  0  0  0  0
   -1.5748    2.2055    0.1366 N   0  0  0  0  0  0  0  0  0  0  0  0
   -0.6859   -1.2185   -0.4404 N   0  0  0  0  0  0  0  0  0  0  0  0
   -2.9784   -1.1742    0.2545 N   0  0  0  0  0  0  0  0  0  0  0  0
   -1.9139   -3.2126   -0.2507 N   0  0  0  0  0  0  0  0  0  0  0  0
    1.5630    0.7548   -0.9405 C   0  0  0  0  0  0  0  0  0  0  0  0
    2.4815    0.2507    0.1781 C   0  0  0  0  0  0  0  0  0  0  0  0
    3.9294    0.0590   -0.2761 C   0  0  0  0  0  0  0  0  0  0  0  0
   -0.7817    0.1211   -0.2906 C   0  0  0  0  0  0  0  0  0  0  0  0
   -1.8622    0.8730    0.1030 C   0  0  0  0  0  0  0  0  0  0  0  0
   -0.3122    2.2676   -0.2384 C   0  0  0  0  0  0  0  0  0  0  0  0
    4.8021   -0.4790    0.8510 C   0  0  0  0  0  0  0  0  0  0  0  0
   -3.0995    0.2131    0.4162 C   0  0  0  0  0  0  0  0  0  0  0  0
   -1.8058   -1.8491   -0.1599 C   0  0  0  0  0  0  0  0  0  0  0  0
    1.5073    0.0202   -1.7525 H   0  0  0  0  0  0  0  0  0  0  0  0
    1.9657    1.6795   -1.3707 H   0  0  0  0  0  0  0  0  0  0  0  0
    2.0927   -0.6984    0.5678 H   0  0  0  0  0  0  0  0  0  0  0  0
    2.4564    0.9610    1.0146 H   0  0  0  0  0  0  0  0  0  0  0  0
    4.3423    1.0089   -0.6374 H   0  0  0  0  0  0  0  0  0  0  0  0
    3.9703   -0.6306   -1.1283 H   0  0  0  0  0  0  0  0  0  0  0  0
    0.2704    3.1742   -0.3307 H   0  0  0  0  0  0  0  0  0  0  0  0
    4.4361   -1.4522    1.1936 H   0  0  0  0  0  0  0  0  0  0  0  0
    4.8097    0.2136    1.6989 H   0  0  0  0  0  0  0  0  0  0  0  0
   -3.7992   -1.7400    0.4507 H   0  0  0  0  0  0  0  0  0  0  0  0
    6.6571   -0.9822    1.1385 H   0  0  0  0  0  0  0  0  0  0  0  0
   -1.1270   -3.7835   -0.5394 H   0  0  0  0  0  0  0  0  0  0  0  0
   -2.7816   -3.6901   -0.0324 H   0  0  0  0  0  0  0  0  0  0  0  0
  1 14  1  0  0  0  0
  1 27  1  0  0  0  0
  2 15  2  0  0  0  0
  3  8  1  0  0  0  0
  3 11  1  0  0  0  0
  3 13  1  0  0  0  0
  4 12  1  0  0  0  0
  4 13  2  0  0  0  0
  5 11  1  0  0  0  0
  5 16  2  0  0  0  0
  6 15  1  0  0  0  0
  6 16  1  0  0  0  0
  6 26  1  0  0  0  0
  7 16  1  0  0  0  0
  7 28  1  0  0  0  0
  7 29  1  0  0  0  0
  8  9  1  0  0  0  0
  8 17  1  0  0  0  0
  8 18  1  0  0  0  0
  9 10  1  0  0  0  0
  9 19  1  0  0  0  0
  9 20  1  0  0  0  0
 10 14  1  0  0  0  0
 10 21  1  0  0  0  0
 10 22  1  0  0  0  0
 11 12  2  0  0  0  0
 12 15  1  0  0  0  0
 13 23  1  0  0  0  0
 14 24  1  0  0  0  0
 14 25  1  0  0  0  0
M  END
> <PUBCHEM_COMPOUND_CID>
135433410

> <PUBCHEM_CONFORMER_RMSD>
0.6

> <PUBCHEM_CONFORMER_DIVERSEORDER>
1
30
23
14
17
33
16
22
18
36
26
15
7
32
31
24
6
10
21
3
34
11
27
35
25
4
2
9
20
12
8
19
28
29
13
5

> <PUBCHEM_MMFF94_PARTIAL_CHARGES>
19
1 -0.68
11 -0.03
12 0.14
13 0.04
14 0.28
15 0.72
16 0.56
2 -0.57
23 0.15
26 0.37
27 0.4
28 0.4
29 0.4
3 0.05
4 -0.57
5 -0.58
6 -0.49
7 -0.85
8 0.26

> <PUBCHEM_EFFECTIVE_ROTOR_COUNT>
4

> <PUBCHEM_PHARMACOPHORE_FEATURES>
8
1 1 acceptor
1 1 donor
1 2 acceptor
1 6 donor
1 7 donor
3 3 4 13 cation
5 3 4 11 12 13 rings
6 5 6 11 12 15 16 rings

> <PUBCHEM_HEAVY_ATOM_COUNT>
16

> <PUBCHEM_ATOM_DEF_STEREO_COUNT>
0

> <PUBCHEM_ATOM_UDEF_STEREO_COUNT>
0

> <PUBCHEM_BOND_DEF_STEREO_COUNT>
0

> <PUBCHEM_BOND_UDEF_STEREO_COUNT>
0

> <PUBCHEM_ISOTOPIC_ATOM_COUNT>
0

> <PUBCHEM_COMPONENT_COUNT>
1

> <PUBCHEM_CACTVS_TAUTO_COUNT>
-1

> <PUBCHEM_CONFORMER_ID>
08128CC200000001

> <PUBCHEM_MMFF94_ENERGY>
22.8105

> <PUBCHEM_FEATURE_SELFOVERLAP>
40.774

> <PUBCHEM_SHAPE_FINGERPRINT>
10616163 171 18410011044479665006
11132069 177 18272097079860172365
12251169 10 18411981347683105924
12633257 1 18060145348992964920
13140716 1 18340491191375187073
13551218 46 18263925441098169594
13862211 1 18411138078289236535
14123260 362 11743837014945874546
14420673 8 18050570647674135722
15042514 8 18409736192041610675
15375462 189 18040432200760433768
16945 1 18269857413877951885
17804303 29 18342179985654070584
17977361 122 18261106391920931154
1813 80 17168717332267016070
193761 8 17545615457024052405
200 152 15719391711974026968
20281475 54 18263925604311727300
20510252 161 18129103312061907792
21501502 16 18123479542325082885
21637258 2 16153995754620730649
21650355 55 18412823603222379592
22959321 94 18335135397675331850
2297311 6 18271255937134543116
232386 152 18337397152906743884
23366157 5 17901108838661529716
23402539 116 18272362058221193541
23552423 10 17543642280212658005
23559900 14 18341891922704209368
23728640 28 18411139155782910491
2748010 2 17977685125326572917
2838139 119 14403799574834324193
351380 3 17749106673981379234
43471831 8 18191310372878684795
474 4 13398623970774578188
5104073 3 18340213002132952000
559249 180 17896591792039285034
58807428 26 18267601108506254451
5924683 9 17988069106070264230

> <PUBCHEM_SHAPE_MULTIPOLES>
292.63
8.65
2.37
0.79
14.73
0.99
0
2.36
-2.73
-2.32
0.24
0.2
-0.04
-0.59

> <PUBCHEM_SHAPE_SELFOVERLAP>
616.284

> <PUBCHEM_SHAPE_VOLUME>
164.1

> <PUBCHEM_COORDINATE_TYPE>
2
5
10

$$$$
