135405023
  -OEChem-03292013293D

 53 55  0     1  0  0  0  0  0999 V2000
    6.7262    2.8415   -1.3363 O   0  0  0  0  0  0  0  0  0  0  0  0
    2.7153    1.7175    1.5027 O   0  0  0  0  0  0  0  0  0  0  0  0
    5.2753    1.5513   -2.5113 O   0  0  0  0  0  0  0  0  0  0  0  0
    8.0606   -2.2869    0.7814 O   0  0  0  0  0  0  0  0  0  0  0  0
    7.9132   -0.6930    2.3890 O   0  0  0  0  0  0  0  0  0  0  0  0
   -2.8945   -3.4783   -2.4773 O   0  0  0  0  0  0  0  0  0  0  0  0
   -4.1524    1.4956   -1.9733 O   0  0  0  0  0  0  0  0  0  0  0  0
    3.8964    0.8742   -0.3064 N   0  0  0  0  0  0  0  0  0  0  0  0
   -1.6460   -2.2893   -0.8165 N   0  0  0  0  0  0  0  0  0  0  0  0
   -3.7445   -0.6449   -0.3459 N   0  0  0  0  0  0  0  0  0  0  0  0
   -5.3388   -0.8086    1.9631 N   0  0  0  0  0  0  0  0  0  0  0  0
   -5.8098    2.3116   -0.5732 N   0  0  0  0  0  0  0  0  0  0  0  0
   -6.4309    1.1882    1.4039 N   0  0  0  0  0  0  0  0  0  0  0  0
   -7.4907    3.1906    0.7961 N   0  0  0  0  0  0  0  0  0  0  0  0
    5.1073    1.6225   -0.0827 C   0  0  1  0  0  0  0  0  0  0  0  0
    6.0881    0.8978    0.8469 C   0  0  0  0  0  0  0  0  0  0  0  0
    6.6213   -0.4475    0.3383 C   0  0  0  0  0  0  0  0  0  0  0  0
    1.6251    0.1278    0.1677 C   0  0  0  0  0  0  0  0  0  0  0  0
   -0.5552   -1.4843   -0.4881 C   0  0  0  0  0  0  0  0  0  0  0  0
    2.7854    0.9867    0.5181 C   0  0  0  0  0  0  0  0  0  0  0  0
   -2.6066   -2.7205    0.2335 C   0  0  0  0  0  0  0  0  0  0  0  0
    5.6902    1.9678   -1.4376 C   0  0  0  0  0  0  0  0  0  0  0  0
    0.7299   -0.2721    1.1599 C   0  0  0  0  0  0  0  0  0  0  0  0
    1.4299   -0.2782   -1.1524 C   0  0  0  0  0  0  0  0  0  0  0  0
   -0.3603   -1.0781    0.8321 C   0  0  0  0  0  0  0  0  0  0  0  0
    0.3399   -1.0843   -1.4803 C   0  0  0  0  0  0  0  0  0  0  0  0
   -3.6282   -1.6610    0.5299 C   0  0  0  0  0  0  0  0  0  0  0  0
    7.5749   -1.1275    1.2969 C   0  0  0  0  0  0  0  0  0  0  0  0
   -4.6741    0.2796   -0.0357 C   0  0  0  0  0  0  0  0  0  0  0  0
   -4.4102   -1.7413    1.6624 C   0  0  0  0  0  0  0  0  0  0  0  0
   -1.9559   -2.7697   -2.1205 C   0  0  0  0  0  0  0  0  0  0  0  0
   -5.4669    0.2159    1.0947 C   0  0  0  0  0  0  0  0  0  0  0  0
   -4.8363    1.4051   -0.9615 C   0  0  0  0  0  0  0  0  0  0  0  0
   -6.5780    2.1917    0.5824 C   0  0  0  0  0  0  0  0  0  0  0  0
    4.8212    2.5734    0.3849 H   0  0  0  0  0  0  0  0  0  0  0  0
    6.9441    1.5558    1.0459 H   0  0  0  0  0  0  0  0  0  0  0  0
    5.6021    0.7351    1.8182 H   0  0  0  0  0  0  0  0  0  0  0  0
    7.1546   -0.2961   -0.6067 H   0  0  0  0  0  0  0  0  0  0  0  0
    5.7851   -1.1337    0.1646 H   0  0  0  0  0  0  0  0  0  0  0  0
    3.9110    0.1887   -1.0545 H   0  0  0  0  0  0  0  0  0  0  0  0
   -2.0663   -3.0470    1.1287 H   0  0  0  0  0  0  0  0  0  0  0  0
   -3.1490   -3.6076   -0.1163 H   0  0  0  0  0  0  0  0  0  0  0  0
    0.8666    0.0326    2.1942 H   0  0  0  0  0  0  0  0  0  0  0  0
    2.0852    0.0373   -1.9590 H   0  0  0  0  0  0  0  0  0  0  0  0
   -1.0211   -1.3439    1.6493 H   0  0  0  0  0  0  0  0  0  0  0  0
    0.2534   -1.3501   -2.5258 H   0  0  0  0  0  0  0  0  0  0  0  0
   -4.3217   -2.5567    2.3709 H   0  0  0  0  0  0  0  0  0  0  0  0
   -1.2432   -2.4468   -2.8842 H   0  0  0  0  0  0  0  0  0  0  0  0
    7.0929    3.0768   -2.2152 H   0  0  0  0  0  0  0  0  0  0  0  0
   -5.9727    3.1162   -1.1715 H   0  0  0  0  0  0  0  0  0  0  0  0
    8.6933   -2.7216    1.3922 H   0  0  0  0  0  0  0  0  0  0  0  0
   -8.0932    3.1857    1.6119 H   0  0  0  0  0  0  0  0  0  0  0  0
   -7.5914    3.9630    0.1468 H   0  0  0  0  0  0  0  0  0  0  0  0
  1 22  1  0  0  0  0
  1 49  1  0  0  0  0
  2 20  2  0  0  0  0
  3 22  2  0  0  0  0
  4 28  1  0  0  0  0
  4 51  1  0  0  0  0
  5 28  2  0  0  0  0
  6 31  2  0  0  0  0
  7 33  2  0  0  0  0
  8 15  1  0  0  0  0
  8 20  1  0  0  0  0
  8 40  1  0  0  0  0
  9 19  1  0  0  0  0
  9 21  1  0  0  0  0
  9 31  1  0  0  0  0
 10 27  1  0  0  0  0
 10 29  2  0  0  0  0
 11 30  1  0  0  0  0
 11 32  2  0  0  0  0
 12 33  1  0  0  0  0
 12 34  1  0  0  0  0
 12 50  1  0  0  0  0
 13 32  1  0  0  0  0
 13 34  2  0  0  0  0
 14 34  1  0  0  0  0
 14 52  1  0  0  0  0
 14 53  1  0  0  0  0
 15 16  1  0  0  0  0
 15 22  1  0  0  0  0
 15 35  1  0  0  0  0
 16 17  1  0  0  0  0
 16 36  1  0  0  0  0
 16 37  1  0  0  0  0
 17 28  1  0  0  0  0
 17 38  1  0  0  0  0
 17 39  1  0  0  0  0
 18 20  1  0  0  0  0
 18 23  2  0  0  0  0
 18 24  1  0  0  0  0
 19 25  2  0  0  0  0
 19 26  1  0  0  0  0
 21 27  1  0  0  0  0
 21 41  1  0  0  0  0
 21 42  1  0  0  0  0
 23 25  1  0  0  0  0
 23 43  1  0  0  0  0
 24 26  2  0  0  0  0
 24 44  1  0  0  0  0
 25 45  1  0  0  0  0
 26 46  1  0  0  0  0
 27 30  2  0  0  0  0
 29 32  1  0  0  0  0
 29 33  1  0  0  0  0
 30 47  1  0  0  0  0
 31 48  1  0  0  0  0
M  END
> <PUBCHEM_COMPOUND_CID>
135405023

> <PUBCHEM_CONFORMER_RMSD>
1

> <PUBCHEM_CONFORMER_DIVERSEORDER>
6
187
202
222
175
7
77
100
102
174
152
34
189
53
163
154
20
71
27
149
212
210
85
73
62
87
76
48
139
128
148
166
52
121
167
153
130
97
19
198
30
79
83
209
16
104
195
170
22
165
59
143
117
91
223
13
193
31
196
214
157
150
213
35
164
8
14
125
114
51
146
186
82
126
192
229
29
183
135
200
182
132
43
216
89
88
191
178
108
133
224
94
161
160
109
39
134
172
159
173
123
155
115
122
18
127
42
215
179
3
23
199
67
162
74
33
103
99
124
9
151
185
136
204
1
176
36
24
142
217
15
96
181
78
207
219
17
138
69
118
120
25
63
145
218
75
230
80
107
144
60
40
129
81
32
206
86
226
55
156
201
41
171
101
221
10
64
66
194
38
54
188
47
49
140
44
28
203
211
26
95
5
225
90
4
84
45
105
106
177
208
92
37
58
197
21
2
180
184
46
147
205
111
113
169
50
11
168
93
61
119
12
190
65
68
56
57
220
72
228
141
98
158
227
131
70
110
137
116
112

> <PUBCHEM_MMFF94_PARTIAL_CHARGES>
45
1 -0.65
10 -0.62
11 -0.62
12 -0.49
13 -0.63
14 -0.85
15 0.36
17 0.06
18 0.09
19 0.12
2 -0.57
20 0.54
21 0.44
22 0.66
23 -0.15
24 -0.15
25 -0.15
26 -0.15
27 0.17
28 0.66
29 0.4
3 -0.57
30 0.16
31 0.57
32 0.49
33 0.54
34 0.56
4 -0.65
40 0.37
43 0.15
44 0.15
45 0.15
46 0.15
47 0.15
48 0.06
49 0.5
5 -0.57
50 0.37
51 0.5
52 0.4
53 0.4
6 -0.57
7 -0.57
8 -0.73
9 -0.48

> <PUBCHEM_EFFECTIVE_ROTOR_COUNT>
11

> <PUBCHEM_PHARMACOPHORE_FEATURES>
17
1 1 acceptor
1 10 acceptor
1 12 donor
1 14 donor
1 2 acceptor
1 3 acceptor
1 4 acceptor
1 5 acceptor
1 6 acceptor
1 7 acceptor
1 8 donor
3 1 3 22 anion
3 11 13 32 cation
3 4 5 28 anion
6 10 11 27 29 30 32 rings
6 12 13 29 32 33 34 rings
6 18 19 23 24 25 26 rings

> <PUBCHEM_HEAVY_ATOM_COUNT>
34

> <PUBCHEM_ATOM_DEF_STEREO_COUNT>
1

> <PUBCHEM_ATOM_UDEF_STEREO_COUNT>
0

> <PUBCHEM_BOND_DEF_STEREO_COUNT>
0

> <PUBCHEM_BOND_UDEF_STEREO_COUNT>
0

> <PUBCHEM_ISOTOPIC_ATOM_COUNT>
0

> <PUBCHEM_COMPONENT_COUNT>
1

> <PUBCHEM_CACTVS_TAUTO_COUNT>
-1

> <PUBCHEM_CONFORMER_ID>
08121DDF00000006

> <PUBCHEM_MMFF94_ENERGY>
91.9197

> <PUBCHEM_FEATURE_SELFOVERLAP>
86.486

> <PUBCHEM_SHAPE_FINGERPRINT>
10165383 225 17845672442601358891
10190108 129 16805888381825533152
105312 117 18060423542778211191
10577160 103 12607102050391312338
10577160 183 18271790307584876970
10580692 12 18186521003739753194
11475781 23 17203892963944439004
12106331 60 12179840597944625466
12373685 5 14692566590513321862
14856354 85 17605565546464962147
15183329 4 17917720123274044344
15328829 1 18336823105322248466
1577012 14 18260551160361305428
16110190 28 17967538990955440613
20609170 114 13900179415642155566
21756936 100 18188494695678074131
21796203 349 11963974524404684317
21814621 53 18335983164200745546
23081809 10 18338231699971517470
23522609 53 17968956308677494532
23559900 14 16558201535149459978
2747138 104 13045944629069410108
2838139 119 18272926137671970033
397638 26 18341890770829775457
4015057 19 14836122225137632267
4098825 35 17967532402923598348
5080951 261 14619938469704219535
6086070 43 17489011764901724074

> <PUBCHEM_SHAPE_MULTIPOLES>
623.75
23.15
3.36
2.08
23.63
0.29
0.59
-11.39
-8.09
-3.03
1.29
0.57
0.56
-3

> <PUBCHEM_SHAPE_SELFOVERLAP>
1337.651

> <PUBCHEM_SHAPE_VOLUME>
338.4

> <PUBCHEM_COORDINATE_TYPE>
2
5
10

$$$$
