135440430
  -OEChem-03292013293D

 60 65  0     1  0  0  0  0  0999 V2000
    3.7174    1.6596    0.0865 O   0  0  0  0  0  0  0  0  0  0  0  0
    2.2937    4.1196    1.2419 O   0  0  0  0  0  0  0  0  0  0  0  0
    6.0329    1.1890    1.5816 O   0  0  0  0  0  0  0  0  0  0  0  0
    1.8979   -4.4111   -1.1461 O   0  0  0  0  0  0  0  0  0  0  0  0
   -0.2766    2.7593   -2.5676 O   0  0  0  0  0  0  0  0  0  0  0  0
    1.9496    0.0468   -0.4139 N   0  0  0  0  0  0  0  0  0  0  0  0
   -0.1333    0.6248   -1.6063 N   0  0  0  0  0  0  0  0  0  0  0  0
    0.8376   -1.6454   -1.3635 N   0  0  0  0  0  0  0  0  0  0  0  0
    3.8241   -1.1408    0.5531 N   0  0  0  0  0  0  0  0  0  0  0  0
    3.6552   -3.4838    0.0815 N   0  0  0  0  0  0  0  0  0  0  0  0
    5.4636   -2.6363    1.3271 N   0  0  0  0  0  0  0  0  0  0  0  0
    2.2945    1.4500    0.0174 C   0  0  1  0  0  0  0  0  0  0  0  0
    1.7410    1.8060    1.3928 C   0  0  0  0  0  0  0  0  0  0  0  0
    2.6917    2.8901    1.8439 C   0  0  1  0  0  0  0  0  0  0  0  0
    4.0245    2.4416    1.2585 C   0  0  1  0  0  0  0  0  0  0  0  0
    4.8215    1.5635    2.2137 C   0  0  0  0  0  0  0  0  0  0  0  0
    0.8565   -0.3447   -1.1479 C   0  0  0  0  0  0  0  0  0  0  0  0
    2.6700   -1.0801   -0.1474 C   0  0  0  0  0  0  0  0  0  0  0  0
    1.9637   -2.0978   -0.7416 C   0  0  0  0  0  0  0  0  0  0  0  0
   -1.4591    0.4856   -1.1929 C   0  0  0  0  0  0  0  0  0  0  0  0
   -3.0645   -0.2114    0.4234 C   0  0  0  0  0  0  0  0  0  0  0  0
   -4.1125    0.2332   -0.4137 C   0  0  0  0  0  0  0  0  0  0  0  0
   -3.6214   -0.7950    1.7050 C   0  0  0  0  0  0  0  0  0  0  0  0
   -1.7382   -0.0918    0.0471 C   0  0  0  0  0  0  0  0  0  0  0  0
   -5.3735   -0.0246    0.2476 C   0  0  0  0  0  0  0  0  0  0  0  0
   -5.1123   -0.6299    1.4974 C   0  0  0  0  0  0  0  0  0  0  0  0
    2.4589   -3.4432   -0.6482 C   0  0  0  0  0  0  0  0  0  0  0  0
   -2.4971    0.9301   -2.0298 C   0  0  0  0  0  0  0  0  0  0  0  0
   -3.8353    0.8057   -1.6439 C   0  0  0  0  0  0  0  0  0  0  0  0
    0.2657    1.6505   -2.5227 C   0  0  0  0  0  0  0  0  0  0  0  0
    4.3008   -2.3626    0.6547 C   0  0  0  0  0  0  0  0  0  0  0  0
   -6.6749    0.2251   -0.1548 C   0  0  0  0  0  0  0  0  0  0  0  0
   -6.1372   -0.9906    2.3544 C   0  0  0  0  0  0  0  0  0  0  0  0
    1.4395    1.3842   -3.4421 C   0  0  0  0  0  0  0  0  0  0  0  0
   -7.7152   -0.1369    0.7065 C   0  0  0  0  0  0  0  0  0  0  0  0
   -7.4490   -0.7386    1.9485 C   0  0  0  0  0  0  0  0  0  0  0  0
    1.9188    2.1361   -0.7406 H   0  0  0  0  0  0  0  0  0  0  0  0
    1.8015    0.9462    2.0704 H   0  0  0  0  0  0  0  0  0  0  0  0
    0.6963    2.1268    1.3341 H   0  0  0  0  0  0  0  0  0  0  0  0
    2.7020    3.0324    2.9283 H   0  0  0  0  0  0  0  0  0  0  0  0
    4.6390    3.2851    0.9243 H   0  0  0  0  0  0  0  0  0  0  0  0
    4.2792    0.6524    2.4809 H   0  0  0  0  0  0  0  0  0  0  0  0
    5.0634    2.1119    3.1297 H   0  0  0  0  0  0  0  0  0  0  0  0
    2.9442    4.7939    1.5024 H   0  0  0  0  0  0  0  0  0  0  0  0
   -3.2844   -0.2187    2.5715 H   0  0  0  0  0  0  0  0  0  0  0  0
   -3.3574   -1.8527    1.7957 H   0  0  0  0  0  0  0  0  0  0  0  0
   -0.9633   -0.4299    0.7271 H   0  0  0  0  0  0  0  0  0  0  0  0
    6.5240    0.6325    2.2099 H   0  0  0  0  0  0  0  0  0  0  0  0
   -2.2985    1.3511   -3.0122 H   0  0  0  0  0  0  0  0  0  0  0  0
   -4.6263    1.1465   -2.3036 H   0  0  0  0  0  0  0  0  0  0  0  0
    4.0935   -4.3915    0.2085 H   0  0  0  0  0  0  0  0  0  0  0  0
   -6.8962    0.6889   -1.1103 H   0  0  0  0  0  0  0  0  0  0  0  0
   -5.9334   -1.4548    3.3129 H   0  0  0  0  0  0  0  0  0  0  0  0
    1.2944    1.9381   -4.3745 H   0  0  0  0  0  0  0  0  0  0  0  0
    2.3694    1.7135   -2.9742 H   0  0  0  0  0  0  0  0  0  0  0  0
    1.5083    0.3226   -3.6926 H   0  0  0  0  0  0  0  0  0  0  0  0
   -8.7451    0.0491    0.4127 H   0  0  0  0  0  0  0  0  0  0  0  0
   -8.2758   -1.0103    2.5995 H   0  0  0  0  0  0  0  0  0  0  0  0
    5.9981   -1.8983    1.7723 H   0  0  0  0  0  0  0  0  0  0  0  0
    5.8229   -3.5818    1.3997 H   0  0  0  0  0  0  0  0  0  0  0  0
  1 12  1  0  0  0  0
  1 15  1  0  0  0  0
  2 14  1  0  0  0  0
  2 44  1  0  0  0  0
  3 16  1  0  0  0  0
  3 48  1  0  0  0  0
  4 27  2  0  0  0  0
  5 30  2  0  0  0  0
  6 12  1  0  0  0  0
  6 17  1  0  0  0  0
  6 18  1  0  0  0  0
  7 17  1  0  0  0  0
  7 20  1  0  0  0  0
  7 30  1  0  0  0  0
  8 17  2  0  0  0  0
  8 19  1  0  0  0  0
  9 18  1  0  0  0  0
  9 31  2  0  0  0  0
 10 27  1  0  0  0  0
 10 31  1  0  0  0  0
 10 51  1  0  0  0  0
 11 31  1  0  0  0  0
 11 59  1  0  0  0  0
 11 60  1  0  0  0  0
 12 13  1  0  0  0  0
 12 37  1  0  0  0  0
 13 14  1  0  0  0  0
 13 38  1  0  0  0  0
 13 39  1  0  0  0  0
 14 15  1  0  0  0  0
 14 40  1  0  0  0  0
 15 16  1  0  0  0  0
 15 41  1  0  0  0  0
 16 42  1  0  0  0  0
 16 43  1  0  0  0  0
 18 19  2  0  0  0  0
 19 27  1  0  0  0  0
 20 24  2  0  0  0  0
 20 28  1  0  0  0  0
 21 22  2  0  0  0  0
 21 23  1  0  0  0  0
 21 24  1  0  0  0  0
 22 25  1  0  0  0  0
 22 29  1  0  0  0  0
 23 26  1  0  0  0  0
 23 45  1  0  0  0  0
 23 46  1  0  0  0  0
 24 47  1  0  0  0  0
 25 26  1  0  0  0  0
 25 32  2  0  0  0  0
 26 33  2  0  0  0  0
 28 29  2  0  0  0  0
 28 49  1  0  0  0  0
 29 50  1  0  0  0  0
 30 34  1  0  0  0  0
 32 35  1  0  0  0  0
 32 52  1  0  0  0  0
 33 36  1  0  0  0  0
 33 53  1  0  0  0  0
 34 54  1  0  0  0  0
 34 55  1  0  0  0  0
 34 56  1  0  0  0  0
 35 36  2  0  0  0  0
 35 57  1  0  0  0  0
 36 58  1  0  0  0  0
M  END
> <PUBCHEM_COMPOUND_CID>
135440430

> <PUBCHEM_CONFORMER_RMSD>
1

> <PUBCHEM_CONFORMER_DIVERSEORDER>
1
8
30
36
20
26
21
9
48
31
47
28
45
3
52
18
42
38
50
34
7
43
24
44
40
33
53
6
16
27
49
23
29
12
11
39
37
15
4
5
10
35
25
13
19
46
17
51
41
22
32
14
2

> <PUBCHEM_MMFF94_PARTIAL_CHARGES>
45
1 -0.56
10 -0.49
11 -0.85
12 0.54
14 0.28
15 0.28
16 0.28
17 0.25
18 -0.03
19 0.14
2 -0.68
20 0.12
21 -0.14
23 0.29
24 -0.15
26 -0.14
27 0.72
28 -0.15
29 -0.15
3 -0.68
30 0.57
31 0.56
32 -0.15
33 -0.15
34 0.06
35 -0.15
36 -0.15
4 -0.57
44 0.4
47 0.15
48 0.4
49 0.15
5 -0.57
50 0.15
51 0.37
52 0.15
53 0.15
57 0.15
58 0.15
59 0.4
6 0.05
60 0.4
7 -0.24
8 -0.57
9 -0.58

> <PUBCHEM_EFFECTIVE_ROTOR_COUNT>
6.2

> <PUBCHEM_PHARMACOPHORE_FEATURES>
15
1 1 acceptor
1 10 donor
1 11 donor
1 2 acceptor
1 2 donor
1 3 acceptor
1 3 donor
1 4 acceptor
1 5 acceptor
5 1 12 13 14 15 rings
5 21 22 23 25 26 rings
5 6 8 17 18 19 rings
6 20 21 22 24 28 29 rings
6 25 26 32 33 35 36 rings
6 9 10 18 19 27 31 rings

> <PUBCHEM_HEAVY_ATOM_COUNT>
36

> <PUBCHEM_ATOM_DEF_STEREO_COUNT>
3

> <PUBCHEM_ATOM_UDEF_STEREO_COUNT>
0

> <PUBCHEM_BOND_DEF_STEREO_COUNT>
0

> <PUBCHEM_BOND_UDEF_STEREO_COUNT>
0

> <PUBCHEM_ISOTOPIC_ATOM_COUNT>
0

> <PUBCHEM_COMPONENT_COUNT>
1

> <PUBCHEM_CACTVS_TAUTO_COUNT>
-1

> <PUBCHEM_CONFORMER_ID>
0812A82E00000001

> <PUBCHEM_MMFF94_ENERGY>
140.8284

> <PUBCHEM_FEATURE_SELFOVERLAP>
76.474

> <PUBCHEM_SHAPE_FINGERPRINT>
10165383 225 18337677529058103244
10190108 129 18272938215505336704
11135609 12 17676490553341971743
12128747 34 18267018358864965725
12342043 65 18116434743444969495
12373685 5 18131061667948595959
12633257 1 17989481914050211919
12758862 65 18261395499144737714
13533116 47 18341342119613857411
13636023 51 18041284352299898914
13782708 43 18187082811195268739
14068700 675 14057264382406627996
14341114 328 17346877866840806823
14705955 166 18260539014220815985
15324884 4 17897134997775073748
15664458 162 18119814870739657422
19319366 153 17775564281639786643
1979834 28 18334862748476716925
21033648 29 18335410262766374429
21792934 111 18260834770675201553
21814621 53 18336559223001171401
21927370 108 17984421829160637114
22122407 14 17845357865652613385
23559900 14 17749398074632590559
244849 19 18262222327904444237
3004659 81 15791740702389642527
3178227 256 18411415151125020320
3380486 145 18263901363506026413
437795 51 18411987957954376654
50009960 94 16879630612477275459
5104073 3 18338519638816070977
563151 74 18202561817326302747
57816373 69 18130236935043006055
58260988 521 18261103081207534120
6823239 73 17458632202649039263
86090 222 18114191795654106667
8988823 20 18272094890138994747
9896288 288 16527809049093184332

> <PUBCHEM_SHAPE_MULTIPOLES>
681.63
15.65
3.81
2.7
25.35
1.86
-1.05
3.25
12.15
-8.19
0.07
-0.14
-1.67
2.95

> <PUBCHEM_SHAPE_SELFOVERLAP>
1524.728

> <PUBCHEM_SHAPE_VOLUME>
357.1

> <PUBCHEM_COORDINATE_TYPE>
2
5
10

$$$$
