135478895
  -OEChem-03292013293D

 37 39  0     1  0  0  0  0  0999 V2000
    1.9765   -0.3124    1.0021 O   0  0  0  0  0  0  0  0  0  0  0  0
    1.6995   -1.3228   -2.4003 O   0  0  0  0  0  0  0  0  0  0  0  0
    4.3421    0.1270   -1.6494 O   0  0  0  0  0  0  0  0  0  0  0  0
    4.1537    0.1657    2.7476 O   0  0  0  0  0  0  0  0  0  0  0  0
    0.8246    2.3536   -0.2996 O   0  0  0  0  0  0  0  0  0  0  0  0
   -4.4544    1.3216    0.1621 O   0  0  0  0  0  0  0  0  0  0  0  0
   -0.0401    0.1399   -0.0908 N   0  0  0  0  0  0  0  0  0  0  0  0
   -1.5000    1.8571   -0.0935 N   0  0  0  0  0  0  0  0  0  0  0  0
   -1.6448   -1.6823    0.1476 N   0  0  0  0  0  0  0  0  0  0  0  0
   -3.8930   -0.9303    0.2670 N   0  0  0  0  0  0  0  0  0  0  0  0
   -3.4028   -3.2201    0.3793 N   0  0  0  0  0  0  0  0  0  0  0  0
    1.1571   -0.6511   -0.1287 C   0  0  1  0  0  0  0  0  0  0  0  0
    1.9854   -0.3874   -1.3764 C   0  0  1  0  0  0  0  0  0  0  0  0
    3.3954   -0.5674   -0.8606 C   0  0  2  0  0  0  0  0  0  0  0  0
    3.2849    0.0409    0.5259 C   0  0  2  0  0  0  0  0  0  0  0  0
    4.3378   -0.4693    1.4929 C   0  0  0  0  0  0  0  0  0  0  0  0
   -1.3206   -0.3609    0.0375 C   0  0  0  0  0  0  0  0  0  0  0  0
   -0.1025    1.5665   -0.1790 C   0  0  0  0  0  0  0  0  0  0  0  0
   -2.1759    0.6702    0.0343 C   0  0  0  0  0  0  0  0  0  0  0  0
   -3.6160    0.4301    0.1576 C   0  0  0  0  0  0  0  0  0  0  0  0
   -2.0833    3.1733   -0.1357 C   0  0  0  0  0  0  0  0  0  0  0  0
   -2.9234   -1.9418    0.2602 C   0  0  0  0  0  0  0  0  0  0  0  0
    0.9035   -1.7135   -0.0375 H   0  0  0  0  0  0  0  0  0  0  0  0
    1.8466    0.6097   -1.8044 H   0  0  0  0  0  0  0  0  0  0  0  0
    3.6787   -1.6259   -0.8302 H   0  0  0  0  0  0  0  0  0  0  0  0
    3.3303    1.1371    0.4914 H   0  0  0  0  0  0  0  0  0  0  0  0
    5.3464   -0.2478    1.1308 H   0  0  0  0  0  0  0  0  0  0  0  0
    4.2362   -1.5484    1.6487 H   0  0  0  0  0  0  0  0  0  0  0  0
    1.8357   -2.2180   -2.0462 H   0  0  0  0  0  0  0  0  0  0  0  0
    4.0891    1.0652   -1.6783 H   0  0  0  0  0  0  0  0  0  0  0  0
   -2.6299    3.3561    0.7937 H   0  0  0  0  0  0  0  0  0  0  0  0
   -2.7630    3.2399   -0.9899 H   0  0  0  0  0  0  0  0  0  0  0  0
   -1.2997    3.9283   -0.2434 H   0  0  0  0  0  0  0  0  0  0  0  0
    4.8387   -0.1785    3.3459 H   0  0  0  0  0  0  0  0  0  0  0  0
   -4.8661   -1.2074    0.3578 H   0  0  0  0  0  0  0  0  0  0  0  0
   -2.7762   -4.0175    0.3843 H   0  0  0  0  0  0  0  0  0  0  0  0
   -4.3959   -3.4067    0.4658 H   0  0  0  0  0  0  0  0  0  0  0  0
  1 12  1  0  0  0  0
  1 15  1  0  0  0  0
  2 13  1  0  0  0  0
  2 29  1  0  0  0  0
  3 14  1  0  0  0  0
  3 30  1  0  0  0  0
  4 16  1  0  0  0  0
  4 34  1  0  0  0  0
  5 18  2  0  0  0  0
  6 20  2  0  0  0  0
  7 12  1  0  0  0  0
  7 17  1  0  0  0  0
  7 18  1  0  0  0  0
  8 18  1  0  0  0  0
  8 19  1  0  0  0  0
  8 21  1  0  0  0  0
  9 17  1  0  0  0  0
  9 22  2  0  0  0  0
 10 20  1  0  0  0  0
 10 22  1  0  0  0  0
 10 35  1  0  0  0  0
 11 22  1  0  0  0  0
 11 36  1  0  0  0  0
 11 37  1  0  0  0  0
 12 13  1  0  0  0  0
 12 23  1  0  0  0  0
 13 14  1  0  0  0  0
 13 24  1  0  0  0  0
 14 15  1  0  0  0  0
 14 25  1  0  0  0  0
 15 16  1  0  0  0  0
 15 26  1  0  0  0  0
 16 27  1  0  0  0  0
 16 28  1  0  0  0  0
 17 19  2  0  0  0  0
 19 20  1  0  0  0  0
 21 31  1  0  0  0  0
 21 32  1  0  0  0  0
 21 33  1  0  0  0  0
M  END
> <PUBCHEM_COMPOUND_CID>
135478895

> <PUBCHEM_CONFORMER_RMSD>
0.6

> <PUBCHEM_CONFORMER_DIVERSEORDER>
2
122
50
36
69
52
89
73
103
111
62
100
101
54
15
88
64
32
116
97
115
59
86
112
120
109
25
67
114
72
44
65
117
13
66
1
76
85
118
19
93
105
5
17
11
74
121
81
53
83
92
102
113
49
18
46
27
31
61
79
104
107
84
9
28
7
68
48
95
14
24
82
71
40
57
39
6
4
45
119
70
55
96
34
35
29
99
37
90
38
75
20
22
33
12
3
8
21
58
16
108
106
56
30
63
42
98
77
10
80
91
43
26
60
110
23
41
51
87
78
47
94

> <PUBCHEM_MMFF94_PARTIAL_CHARGES>
28
1 -0.56
10 -0.49
11 -0.85
12 0.58
13 0.28
14 0.28
15 0.28
16 0.28
17 0.28
18 0.69
19 0.12
2 -0.68
20 0.62
21 0.3
22 0.56
29 0.4
3 -0.68
30 0.4
34 0.4
35 0.37
36 0.4
37 0.4
4 -0.68
5 -0.57
6 -0.57
7 -0.47
8 -0.47
9 -0.62

> <PUBCHEM_EFFECTIVE_ROTOR_COUNT>
3

> <PUBCHEM_PHARMACOPHORE_FEATURES>
14
1 1 acceptor
1 10 donor
1 11 donor
1 2 acceptor
1 2 donor
1 3 acceptor
1 3 donor
1 4 acceptor
1 4 donor
1 5 acceptor
1 6 acceptor
5 1 12 13 14 15 rings
5 7 8 17 18 19 rings
6 9 10 17 19 20 22 rings

> <PUBCHEM_HEAVY_ATOM_COUNT>
22

> <PUBCHEM_ATOM_DEF_STEREO_COUNT>
0

> <PUBCHEM_ATOM_UDEF_STEREO_COUNT>
4

> <PUBCHEM_BOND_DEF_STEREO_COUNT>
0

> <PUBCHEM_BOND_UDEF_STEREO_COUNT>
0

> <PUBCHEM_ISOTOPIC_ATOM_COUNT>
0

> <PUBCHEM_COMPONENT_COUNT>
1

> <PUBCHEM_CACTVS_TAUTO_COUNT>
-1

> <PUBCHEM_CONFORMER_ID>
08133E6F00000002

> <PUBCHEM_MMFF94_ENERGY>
68.3762

> <PUBCHEM_FEATURE_SELFOVERLAP>
71.21

> <PUBCHEM_SHAPE_FINGERPRINT>
10062212 137 17894345588225407147
10319926 262 18269252618342957634
10366900 7 17703515393590257604
11132069 177 18341895173461273857
11582403 64 17119676806748840548
12173636 292 18049438141585092909
12236239 1 17530970159573168238
12363563 72 18264492969433974235
12553582 1 18335990869103639275
12788726 201 18260841383859324593
13083527 12 17838036458093176439
13140716 1 18337674225906089905
13538477 17 18114185224163452959
13544592 145 17986686869629950063
13583140 156 18127098963216343722
14081887 123 18341040852673271651
14178342 30 18410290289814214555
14790565 3 18122084017510273229
15099037 37 18341603849903104834
15342168 16 16558171839534748064
15375358 24 18202280282146008111
15375462 189 17894347787069100363
16752209 62 18262520273906615677
16945 1 18336835199728684725
18186145 218 12035440627719488998
19049666 15 17700701666041152652
200 152 16081084849106832856
20510252 161 18127131875187164609
20600515 1 18410001148215469961
21065201 7 18412548678345101918
22112679 90 17749391408479629564
23184049 29 18264208196006295459
232386 152 18187082875139366202
2334 1 18121788485104543853
23366157 5 17752487826228378629
23402539 116 18339627967673764061
23419403 2 17758923259390606333
23557571 272 18271813358942918940
23559900 14 18341622460497662718
2748010 2 18267024036927184389
2838139 119 15050625777639926753
474 4 14332253413013227794
49207404 50 17846492660515074592
495365 180 16987705801741980346
5104073 3 18337392746349712313
573450 72 18114175341428088674
5902787 121 18335422429938855323
6049 1 17918281926508101488
633830 44 14476689662557385946
7097593 13 17825934941355523362
7364860 26 17983024632705672069
7615 1 17676204650433417708
77492 1 17458350710629641950
81228 2 18268447758102994321
9709674 26 18272098149444426367

> <PUBCHEM_SHAPE_MULTIPOLES>
392.63
8.34
2.56
1.5
2.46
0.42
0.11
-1.59
2.09
-3.64
-0.04
2.9
-0.33
0.44

> <PUBCHEM_SHAPE_SELFOVERLAP>
849.662

> <PUBCHEM_SHAPE_VOLUME>
212.4

> <PUBCHEM_COORDINATE_TYPE>
2
5
10

$$$$
