135403792
  -OEChem-03292013293D

 33 34  0     0  0  0  0  0  0999 V2000
    4.5055   -2.7260    0.1536 Cl  0  0  0  0  0  0  0  0  0  0  0  0
    0.2481    1.5020    0.7065 O   0  0  0  0  0  0  0  0  0  0  0  0
   -0.0392   -0.6066   -0.2613 N   0  0  0  0  0  0  0  0  0  0  0  0
    2.6408   -0.9425    0.1755 N   0  0  0  0  0  0  0  0  0  0  0  0
    4.3655    1.2476   -0.1337 N   0  0  0  0  0  0  0  0  0  0  0  0
   -2.1613    0.2667    0.1439 N   0  0  0  0  0  0  0  0  0  0  0  0
    2.4892    2.7039   -0.0852 N   0  0  0  0  0  0  0  0  0  0  0  0
   -1.8811   -1.9024   -0.8513 N   0  0  0  0  0  0  0  0  0  0  0  0
    6.2156   -0.2352   -0.1790 N   0  0  0  0  0  0  0  0  0  0  0  0
    2.1831    0.3238    0.1187 C   0  0  0  0  0  0  0  0  0  0  0  0
    3.0301    1.3996   -0.0331 C   0  0  0  0  0  0  0  0  0  0  0  0
    0.7092    0.4683    0.2309 C   0  0  0  0  0  0  0  0  0  0  0  0
   -3.5549    0.1607    0.0990 C   0  0  0  0  0  0  0  0  0  0  0  0
   -1.4345   -0.7183   -0.3099 C   0  0  0  0  0  0  0  0  0  0  0  0
    4.8233   -0.0188   -0.0770 C   0  0  0  0  0  0  0  0  0  0  0  0
    3.9763   -1.0946    0.0748 C   0  0  0  0  0  0  0  0  0  0  0  0
   -4.2470   -0.3958    1.1745 C   0  0  0  0  0  0  0  0  0  0  0  0
   -4.2530    0.6120   -1.0211 C   0  0  0  0  0  0  0  0  0  0  0  0
   -5.6372   -0.5013    1.1300 C   0  0  0  0  0  0  0  0  0  0  0  0
   -5.6431    0.5067   -1.0657 C   0  0  0  0  0  0  0  0  0  0  0  0
   -6.3353   -0.0499    0.0099 C   0  0  0  0  0  0  0  0  0  0  0  0
    0.4801   -1.3986   -0.6321 H   0  0  0  0  0  0  0  0  0  0  0  0
   -3.7120   -0.7499    2.0519 H   0  0  0  0  0  0  0  0  0  0  0  0
   -3.7227    1.0476   -1.8639 H   0  0  0  0  0  0  0  0  0  0  0  0
   -6.1761   -0.9347    1.9674 H   0  0  0  0  0  0  0  0  0  0  0  0
   -6.1867    0.8581   -1.9378 H   0  0  0  0  0  0  0  0  0  0  0  0
   -7.4177   -0.1320   -0.0249 H   0  0  0  0  0  0  0  0  0  0  0  0
    1.5614    2.8301   -0.4703 H   0  0  0  0  0  0  0  0  0  0  0  0
    3.1486    3.4652   -0.1925 H   0  0  0  0  0  0  0  0  0  0  0  0
   -2.8681   -2.1144   -0.9461 H   0  0  0  0  0  0  0  0  0  0  0  0
   -1.2289   -2.6081   -1.1760 H   0  0  0  0  0  0  0  0  0  0  0  0
    6.6075   -1.0618    0.2548 H   0  0  0  0  0  0  0  0  0  0  0  0
    6.8058    0.5809   -0.2817 H   0  0  0  0  0  0  0  0  0  0  0  0
  1 16  1  0  0  0  0
  2 12  2  0  0  0  0
  3 12  1  0  0  0  0
  3 14  1  0  0  0  0
  3 22  1  0  0  0  0
  4 10  1  0  0  0  0
  4 16  2  0  0  0  0
  5 11  1  0  0  0  0
  5 15  2  0  0  0  0
  6 13  1  0  0  0  0
  6 14  2  0  0  0  0
  7 11  1  0  0  0  0
  7 28  1  0  0  0  0
  7 29  1  0  0  0  0
  8 14  1  0  0  0  0
  8 30  1  0  0  0  0
  8 31  1  0  0  0  0
  9 15  1  0  0  0  0
  9 32  1  0  0  0  0
  9 33  1  0  0  0  0
 10 11  2  0  0  0  0
 10 12  1  0  0  0  0
 13 17  2  0  0  0  0
 13 18  1  0  0  0  0
 15 16  1  0  0  0  0
 17 19  1  0  0  0  0
 17 23  1  0  0  0  0
 18 20  2  0  0  0  0
 18 24  1  0  0  0  0
 19 21  2  0  0  0  0
 19 25  1  0  0  0  0
 20 21  1  0  0  0  0
 20 26  1  0  0  0  0
 21 27  1  0  0  0  0
M  END
> <PUBCHEM_COMPOUND_CID>
135403792

> <PUBCHEM_CONFORMER_RMSD>
0.6

> <PUBCHEM_CONFORMER_DIVERSEORDER>
2
27
26
8
14
17
22
21
25
13
9
4
30
6
32
31
5
29
15
20
10
24
28
23
11
7
18
16
12
3
19
1

> <PUBCHEM_MMFF94_PARTIAL_CHARGES>
33
1 -0.18
10 0.4
11 0.41
12 0.54
13 0.18
14 0.56
15 0.41
16 0.49
17 -0.15
18 -0.15
19 -0.15
2 -0.57
20 -0.15
21 -0.15
22 0.37
23 0.15
24 0.15
25 0.15
26 0.15
27 0.15
28 0.4
29 0.4
3 -0.49
30 0.4
31 0.4
32 0.4
33 0.4
4 -0.62
5 -0.62
6 -0.63
7 -0.9
8 -0.85
9 -0.9

> <PUBCHEM_EFFECTIVE_ROTOR_COUNT>
4

> <PUBCHEM_PHARMACOPHORE_FEATURES>
10
1 2 acceptor
1 3 donor
1 4 acceptor
1 7 cation
1 7 donor
1 8 donor
1 9 donor
3 5 9 15 cation
6 13 17 18 19 20 21 rings
6 4 5 10 11 15 16 rings

> <PUBCHEM_HEAVY_ATOM_COUNT>
21

> <PUBCHEM_ATOM_DEF_STEREO_COUNT>
0

> <PUBCHEM_ATOM_UDEF_STEREO_COUNT>
0

> <PUBCHEM_BOND_DEF_STEREO_COUNT>
0

> <PUBCHEM_BOND_UDEF_STEREO_COUNT>
0

> <PUBCHEM_ISOTOPIC_ATOM_COUNT>
0

> <PUBCHEM_COMPONENT_COUNT>
1

> <PUBCHEM_CACTVS_TAUTO_COUNT>
-1

> <PUBCHEM_CONFORMER_ID>
0812191000000002

> <PUBCHEM_MMFF94_ENERGY>
74.7072

> <PUBCHEM_FEATURE_SELFOVERLAP>
50.791

> <PUBCHEM_SHAPE_FINGERPRINT>
10 15 18187357792413516952
10366900 7 13912321304845453261
10673678 19 17387717096399434124
10763959 59 18259698995847657781
11045977 3 17967536813401168489
11089746 13 17131832092434669960
11287383 113 17603589646459295689
12107183 9 17765159371299234387
12166972 35 17989203759099272897
12236239 1 17561083613972861401
13073987 5 18340487768344372016
13167372 99 18272375213964678961
13533116 47 17274824606499259782
13583140 156 18260552251235434939
13675066 3 18113337543917070973
13760787 5 18273495689190409929
14251764 18 17846495958601532318
14341114 176 18187090559416029521
14573314 32 17749107764538951743
15183329 4 18201717345072181695
15475509 35 14907626615620928046
15788980 27 18334573559923254853
17349148 13 17418096507399256249
17834072 8 18411138034811692268
17844677 252 18333456439130486645
19489759 90 16950281811163046173
20567600 75 18113617859458600135
20645477 70 18409448051233471506
21033648 144 18058716043954085669
21033648 29 18261375768338941285
21033650 10 15768402480898739329
21236236 1 18270400482538997561
21267235 1 18340776957773169622
21279426 13 18118118078561333519
21682296 61 18197502831051537295
220451 1 18201721768894037527
22061861 79 18333730195918824759
221357 26 18335414647648525925
2297311 6 17168148919188767565
2303208 19 17822021895446863403
23402539 116 16917067750762744345
23536379 177 17022901229050070184
23559900 14 17821728351633071681
239999 70 17967253105051987378
29717793 49 17561370582397587612
300161 21 18272926154962323118
3004659 81 18114744833408148266
3014965 18 18335415721163366495
335352 9 18412826902542974054
345986 75 17986947462602275186
34797466 226 16950576488389307135
3545911 37 18410293631393339318
4073 2 17967820504053892723
46194498 28 17676490545200573508
465052 167 18341618096563112710
90127 26 17822012017027395969

> <PUBCHEM_SHAPE_MULTIPOLES>
393.3
15.76
1.9
0.9
6.86
0.15
0.03
2.04
-0.13
-3.05
-0.04
1.26
0.06
0.4

> <PUBCHEM_SHAPE_SELFOVERLAP>
834.174

> <PUBCHEM_SHAPE_VOLUME>
218.6

> <PUBCHEM_COORDINATE_TYPE>
2
5
10

$$$$
