135464322
  -OEChem-03292013293D

 48 51  0     1  0  0  0  0  0999 V2000
    2.1520    1.4965    1.0440 O   0  0  0  0  0  0  0  0  0  0  0  0
    3.6503    4.0243    0.3065 O   0  0  0  0  0  0  0  0  0  0  0  0
    4.9993    2.0721   -1.0870 O   0  0  0  0  0  0  0  0  0  0  0  0
   -1.8257    1.3399   -1.7452 O   0  0  0  0  0  0  0  0  0  0  0  0
    2.8803   -4.8053   -0.2260 O   0  0  0  0  0  0  0  0  0  0  0  0
   -7.4629   -1.0126    0.0970 O   0  0  0  0  0  0  0  0  0  0  0  0
   -6.5283   -0.5482   -1.9223 O   0  0  0  0  0  0  0  0  0  0  0  0
    3.5777   -0.3833    0.4185 N   0  0  0  0  0  0  0  0  0  0  0  0
    4.5250   -2.4100    0.3967 N   0  0  0  0  0  0  0  0  0  0  0  0
    1.2911   -0.9583   -0.1433 N   0  0  0  0  0  0  0  0  0  0  0  0
    1.0819   -3.3343   -0.4548 N   0  0  0  0  0  0  0  0  0  0  0  0
    1.6937    2.6571    0.3151 C   0  0  1  0  0  0  0  0  0  0  0  0
    2.8800    3.1420   -0.5085 C   0  0  2  0  0  0  0  0  0  0  0  0
    3.6412    1.8557   -0.7601 C   0  0  2  0  0  0  0  0  0  0  0  0
    3.4567    1.1154    0.5606 C   0  0  1  0  0  0  0  0  0  0  0  0
    0.5030    2.2439   -0.5391 C   0  0  0  0  0  0  0  0  0  0  0  0
   -0.6474    1.7251    0.3219 C   0  0  0  0  0  0  0  0  0  0  0  0
    2.5856   -1.2643    0.1040 C   0  0  0  0  0  0  0  0  0  0  0  0
    4.7252   -1.1202    0.5848 C   0  0  0  0  0  0  0  0  0  0  0  0
    3.1971   -2.4972    0.0987 C   0  0  0  0  0  0  0  0  0  0  0  0
   -1.8359    1.2813   -0.5177 C   0  0  0  0  0  0  0  0  0  0  0  0
   -3.0499    0.7600    0.1773 C   0  0  0  0  0  0  0  0  0  0  0  0
    2.4186   -3.6713   -0.2022 C   0  0  0  0  0  0  0  0  0  0  0  0
    0.5932   -2.0233   -0.4142 C   0  0  0  0  0  0  0  0  0  0  0  0
   -4.1558    0.3467   -0.5656 C   0  0  0  0  0  0  0  0  0  0  0  0
   -3.0786    0.6873    1.5701 C   0  0  0  0  0  0  0  0  0  0  0  0
   -5.2904   -0.1394    0.0840 C   0  0  0  0  0  0  0  0  0  0  0  0
   -4.2133    0.2014    2.2198 C   0  0  0  0  0  0  0  0  0  0  0  0
   -5.3191   -0.2121    1.4768 C   0  0  0  0  0  0  0  0  0  0  0  0
   -6.4444   -0.5687   -0.6898 C   0  0  0  0  0  0  0  0  0  0  0  0
    1.3814    3.4043    1.0538 H   0  0  0  0  0  0  0  0  0  0  0  0
    2.6155    3.6764   -1.4254 H   0  0  0  0  0  0  0  0  0  0  0  0
    3.1759    1.2970   -1.5813 H   0  0  0  0  0  0  0  0  0  0  0  0
    4.2051    1.3948    1.3123 H   0  0  0  0  0  0  0  0  0  0  0  0
    0.1606    3.1025   -1.1302 H   0  0  0  0  0  0  0  0  0  0  0  0
    0.7927    1.4664   -1.2553 H   0  0  0  0  0  0  0  0  0  0  0  0
   -0.3164    0.8764    0.9272 H   0  0  0  0  0  0  0  0  0  0  0  0
   -0.9774    2.5324    0.9860 H   0  0  0  0  0  0  0  0  0  0  0  0
    3.1110    4.8177    0.4664 H   0  0  0  0  0  0  0  0  0  0  0  0
    5.0220    2.6396   -1.8762 H   0  0  0  0  0  0  0  0  0  0  0  0
    5.6706   -0.6614    0.8401 H   0  0  0  0  0  0  0  0  0  0  0  0
   -0.4826   -1.9631   -0.6410 H   0  0  0  0  0  0  0  0  0  0  0  0
    0.4347   -4.0847   -0.6788 H   0  0  0  0  0  0  0  0  0  0  0  0
   -4.1375    0.4022   -1.6514 H   0  0  0  0  0  0  0  0  0  0  0  0
   -2.2429    0.9975    2.1888 H   0  0  0  0  0  0  0  0  0  0  0  0
   -4.2358    0.1450    3.3043 H   0  0  0  0  0  0  0  0  0  0  0  0
   -6.1814   -0.5836    2.0233 H   0  0  0  0  0  0  0  0  0  0  0  0
   -8.2360   -1.2998   -0.4344 H   0  0  0  0  0  0  0  0  0  0  0  0
  1 12  1  0  0  0  0
  1 15  1  0  0  0  0
  2 13  1  0  0  0  0
  2 39  1  0  0  0  0
  3 14  1  0  0  0  0
  3 40  1  0  0  0  0
  4 21  2  0  0  0  0
  5 23  2  0  0  0  0
  6 30  1  0  0  0  0
  6 48  1  0  0  0  0
  7 30  2  0  0  0  0
  8 15  1  0  0  0  0
  8 18  1  0  0  0  0
  8 19  1  0  0  0  0
  9 19  2  0  0  0  0
  9 20  1  0  0  0  0
 10 18  1  0  0  0  0
 10 24  2  0  0  0  0
 11 23  1  0  0  0  0
 11 24  1  0  0  0  0
 11 43  1  0  0  0  0
 12 13  1  0  0  0  0
 12 16  1  0  0  0  0
 12 31  1  0  0  0  0
 13 14  1  0  0  0  0
 13 32  1  0  0  0  0
 14 15  1  0  0  0  0
 14 33  1  0  0  0  0
 15 34  1  0  0  0  0
 16 17  1  0  0  0  0
 16 35  1  0  0  0  0
 16 36  1  0  0  0  0
 17 21  1  0  0  0  0
 17 37  1  0  0  0  0
 17 38  1  0  0  0  0
 18 20  2  0  0  0  0
 19 41  1  0  0  0  0
 20 23  1  0  0  0  0
 21 22  1  0  0  0  0
 22 25  2  0  0  0  0
 22 26  1  0  0  0  0
 24 42  1  0  0  0  0
 25 27  1  0  0  0  0
 25 44  1  0  0  0  0
 26 28  2  0  0  0  0
 26 45  1  0  0  0  0
 27 29  2  0  0  0  0
 27 30  1  0  0  0  0
 28 29  1  0  0  0  0
 28 46  1  0  0  0  0
 29 47  1  0  0  0  0
M  END
> <PUBCHEM_COMPOUND_CID>
135464322

> <PUBCHEM_CONFORMER_RMSD>
1.2

> <PUBCHEM_CONFORMER_DIVERSEORDER>
2
57
69
40
95
104
60
12
64
15
111
66
55
16
46
49
35
21
79
5
41
115
34
24
59
91
82
100
42
78
87
72
26
101
23
121
103
102
44
88
9
94
52
75
3
17
43
56
48
45
8
6
73
18
61
13
50
81
53
7
98
70
105
109
22
83
116
117
37
27
112
62
86
85
54
119
30
10
113
114
92
76
38
25
58
33
19
47
20
28
39
120
67
65
106
96
118
36
93
63
1
89
32
108
110
68
97
29
74
14
84
11
80
71
31
107
4
51
99
77
90

> <PUBCHEM_MMFF94_PARTIAL_CHARGES>
39
1 -0.56
10 -0.58
11 -0.49
12 0.28
13 0.28
14 0.28
15 0.54
17 0.06
18 -0.03
19 0.04
2 -0.68
20 0.14
21 0.42
22 0.09
23 0.72
24 0.45
25 -0.15
26 -0.15
27 0.09
28 -0.15
29 -0.15
3 -0.68
30 0.63
39 0.4
4 -0.57
40 0.4
41 0.15
42 0.06
43 0.37
44 0.15
45 0.15
46 0.15
47 0.15
48 0.5
5 -0.57
6 -0.65
7 -0.57
8 0.05
9 -0.57

> <PUBCHEM_EFFECTIVE_ROTOR_COUNT>
7

> <PUBCHEM_PHARMACOPHORE_FEATURES>
16
1 1 acceptor
1 11 donor
1 2 acceptor
1 2 donor
1 3 acceptor
1 3 donor
1 4 acceptor
1 5 acceptor
1 6 acceptor
1 7 acceptor
3 6 7 30 anion
3 8 9 19 cation
5 1 12 13 14 15 rings
5 8 9 18 19 20 rings
6 10 11 18 20 23 24 rings
6 22 25 26 27 28 29 rings

> <PUBCHEM_HEAVY_ATOM_COUNT>
30

> <PUBCHEM_ATOM_DEF_STEREO_COUNT>
4

> <PUBCHEM_ATOM_UDEF_STEREO_COUNT>
0

> <PUBCHEM_BOND_DEF_STEREO_COUNT>
0

> <PUBCHEM_BOND_UDEF_STEREO_COUNT>
0

> <PUBCHEM_ISOTOPIC_ATOM_COUNT>
0

> <PUBCHEM_COMPONENT_COUNT>
1

> <PUBCHEM_CACTVS_TAUTO_COUNT>
-1

> <PUBCHEM_CONFORMER_ID>
0813058200000002

> <PUBCHEM_MMFF94_ENERGY>
78.9675

> <PUBCHEM_FEATURE_SELFOVERLAP>
81.41

> <PUBCHEM_SHAPE_FINGERPRINT>
11014199 57 17908708328399008890
11136131 41 18261664983052292250
12107183 9 17982743969937002889
12596602 18 17132111347002992113
13402501 40 18187368713850342219
13533116 47 18343018921948489881
1361 2 18337669836217391553
13989917 61 18410295852372473243
14784336 7 17916578894945622225
14790565 3 17976548534930106516
14863182 85 18409451389029637524
15119646 104 18342459240855193929
15250474 111 18273213110575948211
15361156 5 18042980787231091877
15483637 11 17976821209640458595
17138139 8 17485911241106620919
19315092 285 18060416915554165161
19319366 153 18200027498780186900
1979834 28 18262236728270761456
20028762 73 18202561765634266614
20645477 70 18333723628682019233
20775530 9 17901681362181092570
21197605 99 18192156112406770635
21285901 2 17749100106713009973
21315764 119 14924218266714722747
21344244 181 18128840637237895822
23559900 14 18265885861893436297
23572383 38 17968383441787037387
23845131 108 18191303982162767690
239999 70 17676204718852811832
255183 451 18056766416601778510
345986 75 17846218817521676337
34797466 226 16732988673734650893
3633792 109 18411692159704637509
397830 11 10807646857756723157
4015057 19 18408323289946377257
404807 14 17834960772542553027
4098825 35 18409441476667066365
46194498 28 17967245412228068636
5283384 97 18412820292145076599
5309563 4 18266740177906033746
9555976 147 17417257516483904593

> <PUBCHEM_SHAPE_MULTIPOLES>
556.38
14.42
4.58
1.31
24.14
2.46
0.19
3.15
-0.62
-9.24
-0.64
1.93
-0.26
-0.63

> <PUBCHEM_SHAPE_SELFOVERLAP>
1218.856

> <PUBCHEM_SHAPE_VOLUME>
297.4

> <PUBCHEM_COORDINATE_TYPE>
2
5
10

$$$$
