135499520
  -OEChem-03292013293D

 33 35  0     1  0  0  0  0  0999 V2000
    1.7360   -0.1216   -1.0499 O   0  0  0  0  0  0  0  0  0  0  0  0
    1.3950    0.4755    1.8864 O   0  0  0  0  0  0  0  0  0  0  0  0
    4.2394    1.4861   -0.0784 O   0  0  0  0  0  0  0  0  0  0  0  0
    2.4023   -2.8190   -0.8634 O   0  0  0  0  0  0  0  0  0  0  0  0
   -4.6149    0.5860    0.0782 O   0  0  0  0  0  0  0  0  0  0  0  0
   -0.1684    1.2607   -0.3573 N   0  0  0  0  0  0  0  0  0  0  0  0
   -2.1801    2.2377   -0.3317 N   0  0  0  0  0  0  0  0  0  0  0  0
   -0.7927   -1.0504    0.0005 N   0  0  0  0  0  0  0  0  0  0  0  0
   -3.1714   -1.2450    0.2112 N   0  0  0  0  0  0  0  0  0  0  0  0
   -1.7913   -3.1469    0.3581 N   0  0  0  0  0  0  0  0  0  0  0  0
    2.0719    1.2165    0.8776 C   0  0  2  0  0  0  0  0  0  0  0  0
    1.3312    1.1255   -0.4562 C   0  0  1  0  0  0  0  0  0  0  0  0
    3.3842    0.5343    0.5502 C   0  0  1  0  0  0  0  0  0  0  0  0
    2.9866   -0.5370   -0.4653 C   0  0  1  0  0  0  0  0  0  0  0  0
    2.7758   -1.9098    0.1574 C   0  0  0  0  0  0  0  0  0  0  0  0
   -1.0747    0.2622   -0.1532 C   0  0  0  0  0  0  0  0  0  0  0  0
   -0.8817    2.4302   -0.4584 C   0  0  0  0  0  0  0  0  0  0  0  0
   -2.2956    0.8923   -0.1426 C   0  0  0  0  0  0  0  0  0  0  0  0
   -3.4860    0.1121    0.0541 C   0  0  0  0  0  0  0  0  0  0  0  0
   -1.8656   -1.7894    0.1827 C   0  0  0  0  0  0  0  0  0  0  0  0
    2.1710    2.2544    1.2108 H   0  0  0  0  0  0  0  0  0  0  0  0
    1.6493    1.9222   -1.1407 H   0  0  0  0  0  0  0  0  0  0  0  0
    3.9046    0.1278    1.4230 H   0  0  0  0  0  0  0  0  0  0  0  0
    3.7077   -0.6123   -1.2875 H   0  0  0  0  0  0  0  0  0  0  0  0
    1.9714   -1.8989    0.8985 H   0  0  0  0  0  0  0  0  0  0  0  0
    3.6954   -2.2697    0.6290 H   0  0  0  0  0  0  0  0  0  0  0  0
    1.9369    0.5195    2.6926 H   0  0  0  0  0  0  0  0  0  0  0  0
    5.0590    1.0232   -0.3225 H   0  0  0  0  0  0  0  0  0  0  0  0
   -0.4005    3.3847   -0.6223 H   0  0  0  0  0  0  0  0  0  0  0  0
    2.2755   -3.6864   -0.4426 H   0  0  0  0  0  0  0  0  0  0  0  0
   -3.9436   -1.8889    0.3573 H   0  0  0  0  0  0  0  0  0  0  0  0
   -0.8987   -3.6284    0.3532 H   0  0  0  0  0  0  0  0  0  0  0  0
   -2.6239   -3.7087    0.4979 H   0  0  0  0  0  0  0  0  0  0  0  0
  1 12  1  0  0  0  0
  1 14  1  0  0  0  0
  2 11  1  0  0  0  0
  2 27  1  0  0  0  0
  3 13  1  0  0  0  0
  3 28  1  0  0  0  0
  4 15  1  0  0  0  0
  4 30  1  0  0  0  0
  5 19  2  0  0  0  0
  6 12  1  0  0  0  0
  6 16  1  0  0  0  0
  6 17  1  0  0  0  0
  7 17  2  0  0  0  0
  7 18  1  0  0  0  0
  8 16  1  0  0  0  0
  8 20  2  0  0  0  0
  9 19  1  0  0  0  0
  9 20  1  0  0  0  0
  9 31  1  0  0  0  0
 10 20  1  0  0  0  0
 10 32  1  0  0  0  0
 10 33  1  0  0  0  0
 11 12  1  0  0  0  0
 11 13  1  0  0  0  0
 11 21  1  0  0  0  0
 12 22  1  0  0  0  0
 13 14  1  0  0  0  0
 13 23  1  0  0  0  0
 14 15  1  0  0  0  0
 14 24  1  0  0  0  0
 15 25  1  0  0  0  0
 15 26  1  0  0  0  0
 16 18  2  0  0  0  0
 17 29  1  0  0  0  0
 18 19  1  0  0  0  0
M  END
> <PUBCHEM_COMPOUND_CID>
135499520

> <PUBCHEM_CONFORMER_RMSD>
0.6

> <PUBCHEM_CONFORMER_DIVERSEORDER>
1
5
13
12
8
2
16
9
6
14
7
15
3
4
11
10

> <PUBCHEM_MMFF94_PARTIAL_CHARGES>
27
1 -0.56
10 -0.85
11 0.28
12 0.54
13 0.28
14 0.28
15 0.28
16 -0.03
17 0.04
18 0.14
19 0.72
2 -0.68
20 0.56
27 0.4
28 0.4
29 0.15
3 -0.68
30 0.4
31 0.37
32 0.4
33 0.4
4 -0.68
5 -0.57
6 0.05
7 -0.57
8 -0.58
9 -0.49

> <PUBCHEM_EFFECTIVE_ROTOR_COUNT>
3

> <PUBCHEM_PHARMACOPHORE_FEATURES>
14
1 1 acceptor
1 10 donor
1 2 acceptor
1 2 donor
1 3 acceptor
1 3 donor
1 4 acceptor
1 4 donor
1 5 acceptor
1 9 donor
3 6 7 17 cation
5 1 11 12 13 14 rings
5 6 7 16 17 18 rings
6 8 9 16 18 19 20 rings

> <PUBCHEM_HEAVY_ATOM_COUNT>
20

> <PUBCHEM_ATOM_DEF_STEREO_COUNT>
4

> <PUBCHEM_ATOM_UDEF_STEREO_COUNT>
0

> <PUBCHEM_BOND_DEF_STEREO_COUNT>
0

> <PUBCHEM_BOND_UDEF_STEREO_COUNT>
0

> <PUBCHEM_ISOTOPIC_ATOM_COUNT>
0

> <PUBCHEM_COMPONENT_COUNT>
1

> <PUBCHEM_CACTVS_TAUTO_COUNT>
-1

> <PUBCHEM_CONFORMER_ID>
08138F0000000001

> <PUBCHEM_MMFF94_ENERGY>
48.8075

> <PUBCHEM_FEATURE_SELFOVERLAP>
71.233

> <PUBCHEM_SHAPE_FINGERPRINT>
10366900 7 18059285560601045144
10616163 171 18337675342297010118
10618630 7 18335139790962794941
10967382 1 18409731750717969767
12382932 28 18338517555060333475
12500047 106 18340482356785513267
12553582 1 17975428124033581519
13140716 1 18122063366821457457
14178342 30 18266731579133730499
14251745 187 18411697733622843066
15196674 1 18409730651533545431
15375358 24 18410851096462605020
15536298 74 18340768147988292902
16752209 62 18115292402872517181
16945 1 18409173233171077325
17804303 29 18194969539101760622
17834074 16 18412265017124159278
19049666 15 18200026227406135072
19591789 44 18193559961306133659
19784866 170 18339361984633806624
20510252 161 18341048515249043993
20645477 70 18060419079779585558
20905425 154 17618504285651979727
21501502 16 18340765953544704844
2334 1 17760650664976938261
23402539 116 18337378430959853028
23557571 272 18268436908873023842
23559900 14 18411417298239227428
2748010 2 18190738631364390709
34934 24 18336542810802134165
350125 39 18121505656849423893
474 4 16806741766205534508
495365 180 17560784542203876993
598444 67 18267307530169285063
69090 78 18341889693209611255
7364860 26 18341895156561070486
81228 2 18333733533076875641
8809292 202 18410296891379278374
9709674 26 18411983542105634118

> <PUBCHEM_SHAPE_MULTIPOLES>
357.34
6.72
2.82
0.91
0.58
1.56
0.22
0.01
0.25
0.24
-0.26
-0.53
-0.06
0.72

> <PUBCHEM_SHAPE_SELFOVERLAP>
777.489

> <PUBCHEM_SHAPE_VOLUME>
193.8

> <PUBCHEM_COORDINATE_TYPE>
2
5
10

$$$$
