135452319
  -OEChem-03292013293D

 34 36  0     1  0  0  0  0  0999 V2000
   -3.4219    0.4564    2.0867 O   0  0  0  0  0  0  0  0  0  0  0  0
   -3.6830    1.2583   -2.2008 O   0  0  0  0  0  0  0  0  0  0  0  0
    4.6088    0.0757   -0.2536 O   0  0  0  0  0  0  0  0  0  0  0  0
    0.3505   -1.4240   -0.0735 N   0  0  0  0  0  0  0  0  0  0  0  0
    2.4933   -2.0079   -0.3372 N   0  0  0  0  0  0  0  0  0  0  0  0
    0.5747    0.9686    0.2165 N   0  0  0  0  0  0  0  0  0  0  0  0
    2.8809    1.6071    0.0965 N   0  0  0  0  0  0  0  0  0  0  0  0
    1.2033    3.2202    0.4524 N   0  0  0  0  0  0  0  0  0  0  0  0
   -1.1504   -1.5730    0.0384 C   0  0  2  0  0  0  0  0  0  0  0  0
   -2.7683    0.2441   -0.2411 C   0  0  2  0  0  0  0  0  0  0  0  0
   -1.9522   -0.7876   -1.0234 C   0  0  0  0  0  0  0  0  0  0  0  0
   -3.0355   -0.4639    1.0841 C   0  0  1  0  0  0  0  0  0  0  0  0
   -1.6883   -1.1011    1.4009 C   0  0  0  0  0  0  0  0  0  0  0  0
   -4.0384    0.6730   -0.9600 C   0  0  0  0  0  0  0  0  0  0  0  0
    1.0733   -0.2707    0.0123 C   0  0  0  0  0  0  0  0  0  0  0  0
    1.2490   -2.4414   -0.2842 C   0  0  0  0  0  0  0  0  0  0  0  0
    2.3800   -0.6616   -0.1530 C   0  0  0  0  0  0  0  0  0  0  0  0
    3.4190    0.3302   -0.1160 C   0  0  0  0  0  0  0  0  0  0  0  0
    1.5051    1.8977    0.2551 C   0  0  0  0  0  0  0  0  0  0  0  0
   -1.3343   -2.6474   -0.0894 H   0  0  0  0  0  0  0  0  0  0  0  0
   -2.1537    1.1387   -0.0743 H   0  0  0  0  0  0  0  0  0  0  0  0
   -2.6195   -1.4842   -1.5468 H   0  0  0  0  0  0  0  0  0  0  0  0
   -1.3184   -0.3147   -1.7809 H   0  0  0  0  0  0  0  0  0  0  0  0
   -3.8153   -1.2279    0.9794 H   0  0  0  0  0  0  0  0  0  0  0  0
   -1.8045   -1.9410    2.0952 H   0  0  0  0  0  0  0  0  0  0  0  0
   -1.0281   -0.3843    1.9019 H   0  0  0  0  0  0  0  0  0  0  0  0
   -4.5881    1.4121   -0.3685 H   0  0  0  0  0  0  0  0  0  0  0  0
   -4.6972   -0.1804   -1.1524 H   0  0  0  0  0  0  0  0  0  0  0  0
   -3.4814   -0.0336    2.9245 H   0  0  0  0  0  0  0  0  0  0  0  0
    0.9391   -3.4720   -0.3904 H   0  0  0  0  0  0  0  0  0  0  0  0
   -4.5092    1.5257   -2.6383 H   0  0  0  0  0  0  0  0  0  0  0  0
    3.5317    2.3861    0.1401 H   0  0  0  0  0  0  0  0  0  0  0  0
    0.2445    3.5268    0.5760 H   0  0  0  0  0  0  0  0  0  0  0  0
    1.9274    3.9297    0.4805 H   0  0  0  0  0  0  0  0  0  0  0  0
  1 12  1  0  0  0  0
  1 29  1  0  0  0  0
  2 14  1  0  0  0  0
  2 31  1  0  0  0  0
  3 18  2  0  0  0  0
  4  9  1  0  0  0  0
  4 15  1  0  0  0  0
  4 16  1  0  0  0  0
  5 16  2  0  0  0  0
  5 17  1  0  0  0  0
  6 15  1  0  0  0  0
  6 19  2  0  0  0  0
  7 18  1  0  0  0  0
  7 19  1  0  0  0  0
  7 32  1  0  0  0  0
  8 19  1  0  0  0  0
  8 33  1  0  0  0  0
  8 34  1  0  0  0  0
  9 11  1  0  0  0  0
  9 13  1  0  0  0  0
  9 20  1  0  0  0  0
 10 11  1  0  0  0  0
 10 12  1  0  0  0  0
 10 14  1  0  0  0  0
 10 21  1  0  0  0  0
 11 22  1  0  0  0  0
 11 23  1  0  0  0  0
 12 13  1  0  0  0  0
 12 24  1  0  0  0  0
 13 25  1  0  0  0  0
 13 26  1  0  0  0  0
 14 27  1  0  0  0  0
 14 28  1  0  0  0  0
 15 17  2  0  0  0  0
 16 30  1  0  0  0  0
 17 18  1  0  0  0  0
M  END
> <PUBCHEM_COMPOUND_CID>
135452319

> <PUBCHEM_CONFORMER_RMSD>
0.6

> <PUBCHEM_CONFORMER_DIVERSEORDER>
1
6
84
76
48
85
69
28
71
2
73
50
7
90
23
11
65
4
35
15
41
5
18
29
62
21
67
22
78
58
82
3
32
77
81
27
51
88
19
40
9
75
79
26
56
31
52
13
39
68
14
70
46
12
20
60
54
10
55
57
8
45
30
59
80
25
83
44
33
17
47
43
64
36
49
38
24
61
34
66
42
86
63
53
37
89
16
87
74
72

> <PUBCHEM_MMFF94_PARTIAL_CHARGES>
22
1 -0.68
12 0.28
14 0.28
15 -0.03
16 0.04
17 0.14
18 0.72
19 0.56
2 -0.68
29 0.4
3 -0.57
30 0.15
31 0.4
32 0.37
33 0.4
34 0.4
4 0.05
5 -0.57
6 -0.58
7 -0.49
8 -0.85
9 0.26

> <PUBCHEM_EFFECTIVE_ROTOR_COUNT>
3

> <PUBCHEM_PHARMACOPHORE_FEATURES>
11
1 1 acceptor
1 1 donor
1 2 acceptor
1 2 donor
1 3 acceptor
1 7 donor
1 8 donor
3 4 5 16 cation
5 4 5 15 16 17 rings
5 9 10 11 12 13 rings
6 6 7 15 17 18 19 rings

> <PUBCHEM_HEAVY_ATOM_COUNT>
19

> <PUBCHEM_ATOM_DEF_STEREO_COUNT>
0

> <PUBCHEM_ATOM_UDEF_STEREO_COUNT>
3

> <PUBCHEM_BOND_DEF_STEREO_COUNT>
0

> <PUBCHEM_BOND_UDEF_STEREO_COUNT>
0

> <PUBCHEM_ISOTOPIC_ATOM_COUNT>
0

> <PUBCHEM_COMPONENT_COUNT>
1

> <PUBCHEM_CACTVS_TAUTO_COUNT>
-1

> <PUBCHEM_CONFORMER_ID>
0812D69F00000001

> <PUBCHEM_MMFF94_ENERGY>
43.9251

> <PUBCHEM_FEATURE_SELFOVERLAP>
56

> <PUBCHEM_SHAPE_FINGERPRINT>
10366900 7 17968670435327237819
104564 63 18127423250057866752
10608611 8 18334291015425860471
10967382 1 18412830174854372522
11471102 20 18411979135548160254
11543360 7 15051730932353633530
11640471 11 17131011792483669387
12077114 3 17967526891699712207
12236239 1 17346320380006716603
12654215 9 18408317770543960910
13134695 92 18340760434453655508
13140716 1 18197222657596928560
13294875 104 17606934266631867059
13464514 151 18261947432226540005
13764800 53 17312822650333627109
14289901 80 16878230869248933154
14790565 3 18268451173077313408
15219456 202 18187368705297466855
15653759 3 17458348562887589723
16945 1 18413394228350761786
18186145 218 18200039567795881580
18219364 16 18335707156411465971
19049666 15 17968380022607856547
200 152 18060135492359726071
20233049 118 18260826003787009908
20645477 70 18339920390158745591
21524375 3 18266181823415080106
21639500 275 18342733039939375999
221357 26 18267007385318308173
231179 274 18261387841127584646
2334 1 17908705381845741584
23493267 7 17530961393228458152
23503958 8 15647057083496565889
23526113 38 18189045413527674307
23557571 272 17603871160945429947
23559900 14 18041278743468703698
23598291 2 17559678339217936095
238 59 18193806376211730173
25 1 18336260167589187175
2748010 2 18123472945128423168
350125 39 17979644746630376402
3524813 1 18187074040713587013
6049 1 18041294192128008943
63268167 104 18342457036592978867
633830 44 17916888905289492708
6438718 38 17415290429393296897
77492 1 17418375757709839355
81228 2 17617660960391341210

> <PUBCHEM_SHAPE_MULTIPOLES>
348.5
7.02
2.44
1.3
0.64
0.77
-0.06
1.74
1.02
-1.52
-0.02
2.05
0.23
0.92

> <PUBCHEM_SHAPE_SELFOVERLAP>
754.004

> <PUBCHEM_SHAPE_VOLUME>
191.6

> <PUBCHEM_COORDINATE_TYPE>
2
5
10

$$$$
