135488899
  -OEChem-03292013293D

 34 34  0     0  0  0  0  0  0999 V2000
    1.7869    3.4752   -0.3040 P   0  0  0  0  0  0  0  0  0  0  0  0
    1.8221    1.8632   -0.4175 O   0  0  0  0  0  0  0  0  0  0  0  0
   -0.2388   -3.0865   -0.6264 O   0  0  0  0  0  0  0  0  0  0  0  0
   -2.6657    0.0058   -0.0056 O   0  0  0  0  0  0  0  0  0  0  0  0
    3.0890    3.8273    0.5879 O   0  0  0  0  0  0  0  0  0  0  0  0
    0.5575    3.7340    0.7143 O   0  0  0  0  0  0  0  0  0  0  0  0
    1.6896    4.2031   -1.6129 O   0  0  0  0  0  0  0  0  0  0  0  0
   -6.2227   -0.3279    0.2348 O   0  0  0  0  0  0  0  0  0  0  0  0
   -4.9337    1.4944   -0.2184 O   0  0  0  0  0  0  0  0  0  0  0  0
    3.2307   -2.3769    0.2462 N   0  0  0  0  0  0  0  0  0  0  0  0
   -1.6311   -0.9248    0.1629 N   0  0  0  0  0  0  0  0  0  0  0  0
    1.9316   -0.3483    0.4508 C   0  0  0  0  0  0  0  0  0  0  0  0
    0.7868   -1.0332    0.0586 C   0  0  0  0  0  0  0  0  0  0  0  0
    1.9136    1.1042    0.7824 C   0  0  0  0  0  0  0  0  0  0  0  0
    0.8625   -2.3890   -0.2399 C   0  0  0  0  0  0  0  0  0  0  0  0
    2.0969   -3.0090   -0.1314 C   0  0  0  0  0  0  0  0  0  0  0  0
    3.1182   -1.0595    0.5283 C   0  0  0  0  0  0  0  0  0  0  0  0
   -0.4903   -0.3353   -0.0405 C   0  0  0  0  0  0  0  0  0  0  0  0
    2.2339   -4.4642   -0.4400 C   0  0  0  0  0  0  0  0  0  0  0  0
   -3.8990   -0.6596    0.2211 C   0  0  0  0  0  0  0  0  0  0  0  0
   -5.0379    0.3068    0.0495 C   0  0  0  0  0  0  0  0  0  0  0  0
    1.0765    1.3373    1.4497 H   0  0  0  0  0  0  0  0  0  0  0  0
    2.8293    1.3865    1.3138 H   0  0  0  0  0  0  0  0  0  0  0  0
    4.0476   -0.5836    0.8258 H   0  0  0  0  0  0  0  0  0  0  0  0
   -0.4758    0.7433   -0.2728 H   0  0  0  0  0  0  0  0  0  0  0  0
    1.9606   -4.6684   -1.4802 H   0  0  0  0  0  0  0  0  0  0  0  0
    3.2703   -4.7928   -0.3043 H   0  0  0  0  0  0  0  0  0  0  0  0
    1.6110   -5.0643    0.2311 H   0  0  0  0  0  0  0  0  0  0  0  0
   -0.0263   -4.0167   -0.7981 H   0  0  0  0  0  0  0  0  0  0  0  0
   -4.0133   -1.4705   -0.5064 H   0  0  0  0  0  0  0  0  0  0  0  0
   -3.9207   -1.0496    1.2443 H   0  0  0  0  0  0  0  0  0  0  0  0
    3.3174    4.7685    0.7433 H   0  0  0  0  0  0  0  0  0  0  0  0
    0.2656    4.6554    0.8814 H   0  0  0  0  0  0  0  0  0  0  0  0
   -6.9847    0.2807    0.1282 H   0  0  0  0  0  0  0  0  0  0  0  0
  1  2  1  0  0  0  0
  1  5  1  0  0  0  0
  1  6  1  0  0  0  0
  1  7  2  0  0  0  0
  2 14  1  0  0  0  0
  3 15  1  0  0  0  0
  3 29  1  0  0  0  0
  4 11  1  0  0  0  0
  4 20  1  0  0  0  0
  5 32  1  0  0  0  0
  6 33  1  0  0  0  0
  8 21  1  0  0  0  0
  8 34  1  0  0  0  0
  9 21  2  0  0  0  0
 10 16  2  0  0  0  0
 10 17  1  0  0  0  0
 11 18  2  0  0  0  0
 12 13  1  0  0  0  0
 12 14  1  0  0  0  0
 12 17  2  0  0  0  0
 13 15  2  0  0  0  0
 13 18  1  0  0  0  0
 14 22  1  0  0  0  0
 14 23  1  0  0  0  0
 15 16  1  0  0  0  0
 16 19  1  0  0  0  0
 17 24  1  0  0  0  0
 18 25  1  0  0  0  0
 19 26  1  0  0  0  0
 19 27  1  0  0  0  0
 19 28  1  0  0  0  0
 20 21  1  0  0  0  0
 20 30  1  0  0  0  0
 20 31  1  0  0  0  0
M  END
> <PUBCHEM_COMPOUND_CID>
135488899

> <PUBCHEM_CONFORMER_RMSD>
0.8

> <PUBCHEM_CONFORMER_DIVERSEORDER>
1
40
42
38
44
15
11
37
52
61
34
46
16
51
41
50
12
9
23
14
20
5
58
54
25
22
45
24
33
35
36
2
3
56
17
28
39
10
62
47
4
21
49
31
30
53
59
55
63
57
19
27
26
8
43
48
6
18
60
29
32
13
7

> <PUBCHEM_MMFF94_PARTIAL_CHARGES>
27
1 1.51
10 -0.62
11 -0.51
12 -0.14
13 0.09
14 0.42
15 0.08
16 0.17
17 0.16
18 0.3
19 0.14
2 -0.55
20 0.34
21 0.66
24 0.15
25 0.06
29 0.45
3 -0.53
32 0.5
33 0.5
34 0.5
4 -0.22
5 -0.77
6 -0.77
7 -0.7
8 -0.65
9 -0.57

> <PUBCHEM_EFFECTIVE_ROTOR_COUNT>
7

> <PUBCHEM_PHARMACOPHORE_FEATURES>
11
1 10 acceptor
1 11 acceptor
1 3 donor
1 5 acceptor
1 6 acceptor
1 7 acceptor
1 8 acceptor
1 9 acceptor
3 8 9 21 anion
4 1 5 6 7 anion
6 10 12 13 15 16 17 rings

> <PUBCHEM_HEAVY_ATOM_COUNT>
21

> <PUBCHEM_ATOM_DEF_STEREO_COUNT>
0

> <PUBCHEM_ATOM_UDEF_STEREO_COUNT>
0

> <PUBCHEM_BOND_DEF_STEREO_COUNT>
1

> <PUBCHEM_BOND_UDEF_STEREO_COUNT>
0

> <PUBCHEM_ISOTOPIC_ATOM_COUNT>
0

> <PUBCHEM_COMPONENT_COUNT>
1

> <PUBCHEM_CACTVS_TAUTO_COUNT>
-1

> <PUBCHEM_CONFORMER_ID>
0813658300000001

> <PUBCHEM_MMFF94_ENERGY>
10.2366

> <PUBCHEM_FEATURE_SELFOVERLAP>
55.918

> <PUBCHEM_SHAPE_FINGERPRINT>
10411042 1 18051412868362878731
10688039 33 18047192938455571447
10937287 8 17905611351756827341
12107183 9 17904744920169204048
12173636 292 17619343655241599732
12403259 327 17240751917542368154
13134695 92 18264486191685404975
138480 1 18339360760309748929
13955234 65 18410862070579066835
14178000 15 18339644412739523801
15081414 286 18340207371277565970
15420108 30 18122887983800224872
17134986 127 18193283116014050412
18785283 64 18334857255234507681
19427546 20 17186175171687830366
20739085 24 18409721855577634624
21049683 271 18334870385287233086
21065198 57 18410856526208868955
21478907 32 17689997834403696691
21524375 3 17756695704625043616
21641784 216 17975156253046376582
21709351 56 18340476808089090151
2255824 54 18412263964662356742
23558518 356 17831288768419396346
23559900 14 18338793421611686899
4409770 3 17038949438839517021
474 4 18339920519413283611
6443956 14 18265616485448857551
7164475 11 17760657966854371454
9709674 26 18409170992005705611
9981440 41 18049718817655058801

> <PUBCHEM_SHAPE_MULTIPOLES>
379.1
8.39
6.1
0.82
20.43
4.57
0.12
-1.57
-0.74
-8.11
1.45
-0.35
0.52
0.13

> <PUBCHEM_SHAPE_SELFOVERLAP>
765.807

> <PUBCHEM_SHAPE_VOLUME>
223.4

> <PUBCHEM_COORDINATE_TYPE>
2
5
10

$$$$
