135435181
  -OEChem-03292013293D

 48 52  0     0  0  0  0  0  0999 V2000
   -3.5115   -1.7587    0.7609 S   0  0  0  0  0  0  0  0  0  0  0  0
    5.2691   -3.2076   -1.3689 F   0  0  0  0  0  0  0  0  0  0  0  0
    0.0613    1.5635    1.5565 O   0  0  0  0  0  0  0  0  0  0  0  0
    0.3855   -2.4571   -0.9913 O   0  0  0  0  0  0  0  0  0  0  0  0
   -3.9765   -1.7215    2.1356 O   0  0  0  0  0  0  0  0  0  0  0  0
   -3.8370   -2.8836   -0.0970 O   0  0  0  0  0  0  0  0  0  0  0  0
    2.1747    0.7381    1.0795 N   0  0  0  0  0  0  0  0  0  0  0  0
   -2.0122    0.5885   -0.3695 N   0  0  0  0  0  0  0  0  0  0  0  0
   -1.8999   -1.5338    0.7448 N   0  0  0  0  0  0  0  0  0  0  0  0
    2.3231    3.5108   -0.0117 C   0  0  0  0  0  0  0  0  0  0  0  0
    2.6959    4.2281   -1.2797 C   0  0  0  0  0  0  0  0  0  0  0  0
    1.9788    2.9087   -1.3458 C   0  0  0  0  0  0  0  0  0  0  0  0
    3.3854    2.8900    0.8451 C   0  0  0  0  0  0  0  0  0  0  0  0
    2.8361    1.8300    1.7924 C   0  0  0  0  0  0  0  0  0  0  0  0
    2.9772   -0.2664    0.4565 C   0  0  0  0  0  0  0  0  0  0  0  0
    0.7808    0.7115    1.0301 C   0  0  0  0  0  0  0  0  0  0  0  0
    2.3493   -1.3187   -0.2280 C   0  0  0  0  0  0  0  0  0  0  0  0
    0.1294   -0.4212    0.2919 C   0  0  0  0  0  0  0  0  0  0  0  0
    0.8785   -1.3730   -0.2947 C   0  0  0  0  0  0  0  0  0  0  0  0
    4.3834   -0.2285    0.5111 C   0  0  0  0  0  0  0  0  0  0  0  0
   -1.3452   -0.4691    0.2241 C   0  0  0  0  0  0  0  0  0  0  0  0
    3.1430   -2.3076   -0.8412 C   0  0  0  0  0  0  0  0  0  0  0  0
    5.1546   -1.2161   -0.1020 C   0  0  0  0  0  0  0  0  0  0  0  0
    4.5345   -2.2562   -0.7784 C   0  0  0  0  0  0  0  0  0  0  0  0
   -3.4025    0.6619   -0.4933 C   0  0  0  0  0  0  0  0  0  0  0  0
   -4.2317   -0.3509   -0.0167 C   0  0  0  0  0  0  0  0  0  0  0  0
   -4.0057    1.7678   -1.1052 C   0  0  0  0  0  0  0  0  0  0  0  0
   -5.6210   -0.2909   -0.1322 C   0  0  0  0  0  0  0  0  0  0  0  0
   -5.3958    1.8453   -1.2294 C   0  0  0  0  0  0  0  0  0  0  0  0
   -6.2018    0.8164   -0.7435 C   0  0  0  0  0  0  0  0  0  0  0  0
    1.5208    3.9443    0.5743 H   0  0  0  0  0  0  0  0  0  0  0  0
    3.7374    4.2505   -1.5758 H   0  0  0  0  0  0  0  0  0  0  0  0
    0.9377    2.9130   -1.6446 H   0  0  0  0  0  0  0  0  0  0  0  0
    2.5423    2.0546   -1.6999 H   0  0  0  0  0  0  0  0  0  0  0  0
    2.1365    5.1187   -1.5384 H   0  0  0  0  0  0  0  0  0  0  0  0
    4.1831    2.4885    0.2119 H   0  0  0  0  0  0  0  0  0  0  0  0
    3.8462    3.6840    1.4453 H   0  0  0  0  0  0  0  0  0  0  0  0
    3.6136    1.4326    2.4542 H   0  0  0  0  0  0  0  0  0  0  0  0
    2.1119    2.3078    2.4638 H   0  0  0  0  0  0  0  0  0  0  0  0
    4.9292    0.5481    1.0363 H   0  0  0  0  0  0  0  0  0  0  0  0
    2.7092   -3.1342   -1.3974 H   0  0  0  0  0  0  0  0  0  0  0  0
    6.2382   -1.1720   -0.0467 H   0  0  0  0  0  0  0  0  0  0  0  0
   -1.4843    1.3692   -0.7468 H   0  0  0  0  0  0  0  0  0  0  0  0
    0.8351   -3.2573   -0.6716 H   0  0  0  0  0  0  0  0  0  0  0  0
   -3.3963    2.5818   -1.4913 H   0  0  0  0  0  0  0  0  0  0  0  0
   -6.2521   -1.0898    0.2453 H   0  0  0  0  0  0  0  0  0  0  0  0
   -5.8490    2.7097   -1.7063 H   0  0  0  0  0  0  0  0  0  0  0  0
   -7.2815    0.8798   -0.8419 H   0  0  0  0  0  0  0  0  0  0  0  0
  1  5  2  0  0  0  0
  1  6  2  0  0  0  0
  1  9  1  0  0  0  0
  1 26  1  0  0  0  0
  2 24  1  0  0  0  0
  3 16  2  0  0  0  0
  4 19  1  0  0  0  0
  4 44  1  0  0  0  0
  7 14  1  0  0  0  0
  7 15  1  0  0  0  0
  7 16  1  0  0  0  0
  8 21  1  0  0  0  0
  8 25  1  0  0  0  0
  8 43  1  0  0  0  0
  9 21  2  0  0  0  0
 10 11  1  0  0  0  0
 10 12  1  0  0  0  0
 10 13  1  0  0  0  0
 10 31  1  0  0  0  0
 11 12  1  0  0  0  0
 11 32  1  0  0  0  0
 11 35  1  0  0  0  0
 12 33  1  0  0  0  0
 12 34  1  0  0  0  0
 13 14  1  0  0  0  0
 13 36  1  0  0  0  0
 13 37  1  0  0  0  0
 14 38  1  0  0  0  0
 14 39  1  0  0  0  0
 15 17  2  0  0  0  0
 15 20  1  0  0  0  0
 16 18  1  0  0  0  0
 17 19  1  0  0  0  0
 17 22  1  0  0  0  0
 18 19  2  0  0  0  0
 18 21  1  0  0  0  0
 20 23  2  0  0  0  0
 20 40  1  0  0  0  0
 22 24  2  0  0  0  0
 22 41  1  0  0  0  0
 23 24  1  0  0  0  0
 23 42  1  0  0  0  0
 25 26  1  0  0  0  0
 25 27  2  0  0  0  0
 26 28  2  0  0  0  0
 27 29  1  0  0  0  0
 27 45  1  0  0  0  0
 28 30  1  0  0  0  0
 28 46  1  0  0  0  0
 29 30  2  0  0  0  0
 29 47  1  0  0  0  0
 30 48  1  0  0  0  0
M  END
> <PUBCHEM_COMPOUND_CID>
135435181

> <PUBCHEM_CONFORMER_RMSD>
0.8

> <PUBCHEM_CONFORMER_DIVERSEORDER>
1
22
6
20
15
16
13
18
2
23
7
14
3
24
4
5
12
21
17
19
8
10
11
9

> <PUBCHEM_MMFF94_PARTIAL_CHARGES>
44
1 1.5
10 -0.19
11 -0.2
12 -0.2
13 0.09
14 0.3
15 0.12
16 0.62
17 0.03
18 0.03
19 0.05
2 -0.19
20 -0.15
21 0.49
22 -0.15
23 -0.15
24 0.19
25 0.1
26 -0.01
27 -0.15
28 -0.15
29 -0.15
3 -0.57
30 -0.15
31 0.1
32 0.1
33 0.1
34 0.1
35 0.1
4 -0.53
40 0.15
41 0.15
42 0.15
43 0.4
44 0.45
45 0.15
46 0.15
47 0.15
48 0.15
5 -0.65
6 -0.65
7 -0.48
8 -0.55
9 -0.64

> <PUBCHEM_EFFECTIVE_ROTOR_COUNT>
4.8

> <PUBCHEM_PHARMACOPHORE_FEATURES>
10
1 3 acceptor
1 4 donor
1 5 acceptor
1 6 acceptor
1 8 donor
1 9 donor
6 1 8 9 21 25 26 rings
6 15 17 20 22 23 24 rings
6 25 26 27 28 29 30 rings
6 7 15 16 17 18 19 rings

> <PUBCHEM_HEAVY_ATOM_COUNT>
30

> <PUBCHEM_ATOM_DEF_STEREO_COUNT>
0

> <PUBCHEM_ATOM_UDEF_STEREO_COUNT>
0

> <PUBCHEM_BOND_DEF_STEREO_COUNT>
0

> <PUBCHEM_BOND_UDEF_STEREO_COUNT>
0

> <PUBCHEM_ISOTOPIC_ATOM_COUNT>
0

> <PUBCHEM_COMPONENT_COUNT>
1

> <PUBCHEM_CACTVS_TAUTO_COUNT>
-1

> <PUBCHEM_CONFORMER_ID>
081293AD00000001

> <PUBCHEM_MMFF94_ENERGY>
86.5923

> <PUBCHEM_FEATURE_SELFOVERLAP>
50.837

> <PUBCHEM_SHAPE_FINGERPRINT>
10673678 19 18188787166472709372
10763959 59 18411699876468365692
10930396 42 18194093276618872418
11421498 54 14129340624691369900
11513181 2 18264490770225583439
12166972 35 18271807886938195377
12236239 1 15984816022073943459
12403259 118 17972861820733715721
12422481 6 18122033616332292888
12788726 201 17754457855255539082
13383665 225 17970925564462835357
13402501 40 18338513032860665151
13782708 43 18409451401714566923
140371 6 18270410390373687555
14251764 38 18261105339880783989
14790565 3 17475795828388714464
15003188 100 18411407407003118695
15082195 135 18123449834526881277
15961568 22 17678734763938688333
16988056 13 18410849950165955364
17349148 13 15769770256447606023
17844677 252 18334860549796235763
21033648 29 18200858613495314587
21133410 127 17823973644382680525
21792961 116 18265907869675392638
221357 26 18200021842561062861
22149856 69 18271812380539480971
22393880 68 18409722955026634307
23559900 14 18410851058055773835
3298306 158 18197217168291568428
4015057 19 18201146724813636833
44802255 64 17180277885490659548
460360 51 18271262576600192457
46194498 28 18334293197169332069
5081480 168 18194430877004171724
508706 21 18041550365684637437
6086070 43 18116410623071957251
6287921 2 18263082282792681708
633830 44 18114731754763025883
6823239 73 18260546723169581952
9709674 26 18408881871638431171

> <PUBCHEM_SHAPE_MULTIPOLES>
575.54
12.7
4.22
1.42
11.35
2.64
-0.31
-2.03
2.62
-4.78
1.43
-0.29
0.28
2.64

> <PUBCHEM_SHAPE_SELFOVERLAP>
1260.815

> <PUBCHEM_SHAPE_VOLUME>
313.9

> <PUBCHEM_COORDINATE_TYPE>
2
5
10

$$$$
