135449020
  -OEChem-03292013293D

 22 23  0     0  0  0  0  0  0999 V2000
   -1.5505    2.7159   -0.0004 O   0  0  0  0  0  0  0  0  0  0  0  0
    3.4121    1.1947    0.0004 O   0  0  0  0  0  0  0  0  0  0  0  0
    3.3357   -1.5561    0.0001 O   0  0  0  0  0  0  0  0  0  0  0  0
   -3.9822   -1.3530   -0.0010 O   0  0  0  0  0  0  0  0  0  0  0  0
    1.0381    2.5580   -0.0012 O   0  0  0  0  0  0  0  0  0  0  0  0
    0.8648   -2.7834   -0.0011 O   0  0  0  0  0  0  0  0  0  0  0  0
   -0.3268    0.6210    0.0004 C   0  0  0  0  0  0  0  0  0  0  0  0
   -0.3650   -0.7740    0.0004 C   0  0  0  0  0  0  0  0  0  0  0  0
   -1.5201    1.3528    0.0005 C   0  0  0  0  0  0  0  0  0  0  0  0
    0.9635    1.3347   -0.0001 C   0  0  0  0  0  0  0  0  0  0  0  0
    0.8843   -1.5580    0.0006 C   0  0  0  0  0  0  0  0  0  0  0  0
   -1.5969   -1.4388    0.0003 C   0  0  0  0  0  0  0  0  0  0  0  0
    2.2047    0.5219   -0.0001 C   0  0  0  0  0  0  0  0  0  0  0  0
    2.1686   -0.8165    0.0002 C   0  0  0  0  0  0  0  0  0  0  0  0
   -2.7843   -0.7062    0.0004 C   0  0  0  0  0  0  0  0  0  0  0  0
   -2.7460    0.6868    0.0007 C   0  0  0  0  0  0  0  0  0  0  0  0
   -1.6392   -2.5252    0.0000 H   0  0  0  0  0  0  0  0  0  0  0  0
   -3.6739    1.2537    0.0005 H   0  0  0  0  0  0  0  0  0  0  0  0
   -0.6524    3.0796   -0.0002 H   0  0  0  0  0  0  0  0  0  0  0  0
    3.2152    2.1475    0.0004 H   0  0  0  0  0  0  0  0  0  0  0  0
    3.0855   -2.4962    0.0002 H   0  0  0  0  0  0  0  0  0  0  0  0
   -3.8233   -2.3125   -0.0014 H   0  0  0  0  0  0  0  0  0  0  0  0
  1  9  1  0  0  0  0
  1 19  1  0  0  0  0
  2 13  1  0  0  0  0
  2 20  1  0  0  0  0
  3 14  1  0  0  0  0
  3 21  1  0  0  0  0
  4 15  1  0  0  0  0
  4 22  1  0  0  0  0
  5 10  2  0  0  0  0
  6 11  2  0  0  0  0
  7  8  2  0  0  0  0
  7  9  1  0  0  0  0
  7 10  1  0  0  0  0
  8 11  1  0  0  0  0
  8 12  1  0  0  0  0
  9 16  2  0  0  0  0
 10 13  1  0  0  0  0
 11 14  1  0  0  0  0
 12 15  2  0  0  0  0
 12 17  1  0  0  0  0
 13 14  2  0  0  0  0
 15 16  1  0  0  0  0
 16 18  1  0  0  0  0
M  END
> <PUBCHEM_COMPOUND_CID>
135449020

> <PUBCHEM_CONFORMER_RMSD>
0.4

> <PUBCHEM_CONFORMER_DIVERSEORDER>
1

> <PUBCHEM_MMFF94_PARTIAL_CHARGES>
22
1 -0.53
10 0.47
11 0.47
12 -0.15
13 0.09
14 0.09
15 0.08
16 -0.15
17 0.15
18 0.15
19 0.45
2 -0.53
20 0.45
21 0.45
22 0.45
3 -0.53
4 -0.53
5 -0.57
6 -0.57
7 0.09
8 0.09
9 0.08

> <PUBCHEM_EFFECTIVE_ROTOR_COUNT>
0

> <PUBCHEM_PHARMACOPHORE_FEATURES>
8
1 1 donor
1 2 donor
1 3 donor
1 4 donor
1 5 acceptor
1 6 acceptor
6 7 8 10 11 13 14 rings
6 7 8 9 12 15 16 rings

> <PUBCHEM_HEAVY_ATOM_COUNT>
16

> <PUBCHEM_ATOM_DEF_STEREO_COUNT>
0

> <PUBCHEM_ATOM_UDEF_STEREO_COUNT>
0

> <PUBCHEM_BOND_DEF_STEREO_COUNT>
0

> <PUBCHEM_BOND_UDEF_STEREO_COUNT>
0

> <PUBCHEM_ISOTOPIC_ATOM_COUNT>
0

> <PUBCHEM_COMPONENT_COUNT>
1

> <PUBCHEM_CACTVS_TAUTO_COUNT>
-1

> <PUBCHEM_CONFORMER_ID>
0812C9BC00000001

> <PUBCHEM_MMFF94_ENERGY>
41.5497

> <PUBCHEM_FEATURE_SELFOVERLAP>
40.624

> <PUBCHEM_SHAPE_FINGERPRINT>
10608611 8 18338513045355364988
10967382 1 18266741466058508455
11132069 177 18410567353790563608
11471102 20 18410287034619088871
12032990 46 18411986819202597550
12382932 28 18124308311930284626
13140716 1 18267298738460901216
13380535 76 18265894851080255402
14178342 30 18339634530141569736
14251717 144 18267579290135960351
14790565 3 18049460410748208533
15196674 1 18410575080394498375
15536298 74 18343584044991572462
16945 1 18410293584117031047
193761 8 18194402195190969445
19591789 44 16533716754917087757
20510252 161 18343865528157668320
20645477 70 18264480853737271239
21267235 1 18411146817867338242
21501502 16 18410295770113057417
22721475 48 18410580578110886323
2334 1 18410855460465823884
23402539 116 18198895001649992934
23463225 33 18336262354012338378
23552423 10 18335423443593328655
23559900 14 17910391685587620750
2748010 2 18411133602537356972
2897 32 18409731767871569100
335352 9 18266741273038253101
43471831 8 18408037416453845098
5104073 3 18410856551324201547
528886 8 18267298909927302915
53812653 166 18199183065433719648
7364860 26 18270400623908499064
8809292 202 18260554406997937147

> <PUBCHEM_SHAPE_MULTIPOLES>
294.06
4.94
2.72
0.58
0.58
0.44
0
-0.98
0
-0.26
0
0.02
-0.01
0

> <PUBCHEM_SHAPE_SELFOVERLAP>
654.99

> <PUBCHEM_SHAPE_VOLUME>
154.6

> <PUBCHEM_COORDINATE_TYPE>
2
5
10

$$$$
