135413555
  -OEChem-03292013293D

 29 31  0     0  0  0  0  0  0999 V2000
   -2.5171   -3.9275   -0.1252 Br  0  0  0  0  0  0  0  0  0  0  0  0
   -4.0337    1.4368    0.2044 O   0  0  0  0  0  0  0  0  0  0  0  0
    1.2717   -2.0684    0.4210 O   0  0  0  0  0  0  0  0  0  0  0  0
   -2.1026    2.5918    0.2761 N   0  0  0  0  0  0  0  0  0  0  0  0
   -2.7966   -1.0458    0.0471 N   0  0  0  0  0  0  0  0  0  0  0  0
    2.7755    1.0381   -0.2449 N   0  0  0  0  0  0  0  0  0  0  0  0
    3.3766   -1.0422    0.3224 N   0  0  0  0  0  0  0  0  0  0  0  0
    5.0938    0.5516    0.0517 N   0  0  0  0  0  0  0  0  0  0  0  0
    0.3861    0.6517   -0.3281 C   0  0  0  0  0  0  0  0  0  0  0  0
    0.0948    2.0747   -0.7244 C   0  0  0  0  0  0  0  0  0  0  0  0
   -0.7535   -0.2141   -0.1978 C   0  0  0  0  0  0  0  0  0  0  0  0
   -0.6716    2.7993    0.3677 C   0  0  0  0  0  0  0  0  0  0  0  0
   -2.0854    0.1442    0.0099 C   0  0  0  0  0  0  0  0  0  0  0  0
    1.6573    0.2570   -0.1332 C   0  0  0  0  0  0  0  0  0  0  0  0
   -2.7996    1.4033    0.1672 C   0  0  0  0  0  0  0  0  0  0  0  0
   -0.7013   -1.6413   -0.2706 C   0  0  0  0  0  0  0  0  0  0  0  0
   -1.9759   -2.1211   -0.1145 C   0  0  0  0  0  0  0  0  0  0  0  0
    2.0148   -1.1245    0.2404 C   0  0  0  0  0  0  0  0  0  0  0  0
    3.7668    0.2363    0.0309 C   0  0  0  0  0  0  0  0  0  0  0  0
    1.0227    2.6301   -0.9058 H   0  0  0  0  0  0  0  0  0  0  0  0
   -0.4500    2.0981   -1.6777 H   0  0  0  0  0  0  0  0  0  0  0  0
   -0.3478    2.5078    1.3733 H   0  0  0  0  0  0  0  0  0  0  0  0
   -0.5164    3.8795    0.2686 H   0  0  0  0  0  0  0  0  0  0  0  0
   -2.6754    3.4226    0.3911 H   0  0  0  0  0  0  0  0  0  0  0  0
   -0.0469   -2.2544   -0.8840 H   0  0  0  0  0  0  0  0  0  0  0  0
   -3.7962   -1.1040    0.1819 H   0  0  0  0  0  0  0  0  0  0  0  0
    3.9978   -1.8063    0.5609 H   0  0  0  0  0  0  0  0  0  0  0  0
    5.4158    1.4898   -0.1595 H   0  0  0  0  0  0  0  0  0  0  0  0
    5.7975   -0.1425    0.2788 H   0  0  0  0  0  0  0  0  0  0  0  0
  1 17  1  0  0  0  0
  2 15  2  0  0  0  0
  3 18  2  0  0  0  0
  4 12  1  0  0  0  0
  4 15  1  0  0  0  0
  4 24  1  0  0  0  0
  5 13  1  0  0  0  0
  5 17  1  0  0  0  0
  5 26  1  0  0  0  0
  6 14  1  0  0  0  0
  6 19  2  0  0  0  0
  7 18  1  0  0  0  0
  7 19  1  0  0  0  0
  7 27  1  0  0  0  0
  8 19  1  0  0  0  0
  8 28  1  0  0  0  0
  8 29  1  0  0  0  0
  9 10  1  0  0  0  0
  9 11  1  0  0  0  0
  9 14  2  0  0  0  0
 10 12  1  0  0  0  0
 10 20  1  0  0  0  0
 10 21  1  0  0  0  0
 11 13  2  0  0  0  0
 11 16  1  0  0  0  0
 12 22  1  0  0  0  0
 12 23  1  0  0  0  0
 13 15  1  0  0  0  0
 14 18  1  0  0  0  0
 16 17  2  0  0  0  0
 16 25  1  0  0  0  0
M  END
> <PUBCHEM_COMPOUND_CID>
135413555

> <PUBCHEM_CONFORMER_RMSD>
0.6

> <PUBCHEM_CONFORMER_DIVERSEORDER>
1

> <PUBCHEM_MMFF94_PARTIAL_CHARGES>
25
1 -0.06
10 0.14
11 -0.05
12 0.3
13 -0.24
14 0.19
15 0.71
16 -0.15
17 -0.09
18 0.62
19 0.56
2 -0.57
24 0.37
25 0.15
26 0.27
27 0.37
28 0.4
29 0.4
3 -0.57
4 -0.73
5 0.03
6 -0.62
7 -0.49
8 -0.85
9 -0.09

> <PUBCHEM_EFFECTIVE_ROTOR_COUNT>
0.8

> <PUBCHEM_PHARMACOPHORE_FEATURES>
11
1 1 hydrophobe
1 2 acceptor
1 3 acceptor
1 4 donor
1 5 cation
1 5 donor
1 7 donor
1 8 donor
5 5 11 13 16 17 rings
5 6 7 14 18 19 rings
7 4 9 10 11 12 13 15 rings

> <PUBCHEM_HEAVY_ATOM_COUNT>
19

> <PUBCHEM_ATOM_DEF_STEREO_COUNT>
0

> <PUBCHEM_ATOM_UDEF_STEREO_COUNT>
0

> <PUBCHEM_BOND_DEF_STEREO_COUNT>
1

> <PUBCHEM_BOND_UDEF_STEREO_COUNT>
0

> <PUBCHEM_ISOTOPIC_ATOM_COUNT>
0

> <PUBCHEM_COMPONENT_COUNT>
1

> <PUBCHEM_CACTVS_TAUTO_COUNT>
-1

> <PUBCHEM_CONFORMER_ID>
08123F3300000001

> <PUBCHEM_MMFF94_ENERGY>
78.0058

> <PUBCHEM_FEATURE_SELFOVERLAP>
55.894

> <PUBCHEM_SHAPE_FINGERPRINT>
10319926 262 18198601351553939066
10411042 1 17978791542755962502
10493431 412 18339930324765929393
10616163 171 18411421739077350774
10967382 1 18266178335742847509
1100329 8 18339365270384164425
11132069 177 18410008819422458928
11578080 2 17129010866368766339
12173636 292 18339920390184697021
12251169 10 18409167671383646644
12382932 28 18411139112711326906
12403814 3 17530963562145004757
12553582 1 18050575332681375079
13027679 85 18339077219690931405
13132413 78 18410858805934481668
13140716 1 18268433606017150433
138480 1 16753531587836049163
14081887 123 18270666641324311680
14178342 30 18337376240821827402
14787075 74 17756423025999603454
14790565 3 18268719303274260825
15042514 8 18410296925644175171
15196674 1 18337953393920736386
15309172 13 18194970634339682409
15442244 35 18121495752839442794
16945 1 18411137995967101844
193761 8 18122907796378865941
19591789 44 17690003332046380950
20510252 161 18128538154574508569
20739085 24 17832737598232449049
20905425 154 17837783583208848565
21029758 11 18049999192798718862
21041028 32 18049449437333107395
21267235 1 18337118954842704918
221490 88 17469884849335137139
23184049 29 18123474036113478543
2334 1 18122063366752710188
23402539 116 18272079496839108253
23557571 272 18201165433263988214
23559900 14 18343584019738649036
257057 1 18051971721354498711
2748010 2 18124304162870726069
3091708 16 8912613226249551451
3312278 4 18409729577575268192
335352 9 18265895744523202094
34934 24 18334008367701681297
43471831 8 17977668602502858939
5104073 3 18410849984862570346
54173680 148 18411138069092452087
57005193 9 18335413530703561349
58807428 26 17980206288150886697
69090 78 18338513032723599209
7097593 13 17899959561796094194
7364860 26 17547290467871791695
7471813 234 17768799115902464511
9709674 26 18343304747442319278

> <PUBCHEM_SHAPE_MULTIPOLES>
360.31
6.51
3.72
0.67
5.92
0.91
0.03
1.29
-0.4
-4.19
-0.15
-0.01
-0.04
-0.5

> <PUBCHEM_SHAPE_SELFOVERLAP>
790.64

> <PUBCHEM_SHAPE_VOLUME>
196.8

> <PUBCHEM_COORDINATE_TYPE>
2
5
10

$$$$
