135418368
  -OEChem-03292013293D

 31 33  0     0  0  0  0  0  0999 V2000
    4.9852   -1.2100   -0.3085 S   0  0  0  0  0  0  0  0  0  0  0  0
    1.3952    2.0295    0.2337 O   0  0  0  0  0  0  0  0  0  0  0  0
    0.2758   -2.5135    0.5618 O   0  0  0  0  0  0  0  0  0  0  0  0
   -6.8259    0.6003   -0.0423 O   0  0  0  0  0  0  0  0  0  0  0  0
    0.8261   -0.2404    0.3983 N   0  0  0  0  0  0  0  0  0  0  0  0
    2.4669   -1.9513    0.1577 N   0  0  0  0  0  0  0  0  0  0  0  0
    5.3895    0.4098   -0.4283 N   0  0  0  0  0  0  0  0  0  0  0  0
   -0.4746    0.1000    0.6190 N   0  0  0  0  0  0  0  0  0  0  0  0
    3.0706    0.4052   -0.0171 C   0  0  0  0  0  0  0  0  0  0  0  0
    3.3531   -0.9311   -0.0283 C   0  0  0  0  0  0  0  0  0  0  0  0
    4.2753    1.1276   -0.2517 C   0  0  0  0  0  0  0  0  0  0  0  0
    1.7121    0.8441    0.2108 C   0  0  0  0  0  0  0  0  0  0  0  0
    1.1244   -1.6352    0.3859 C   0  0  0  0  0  0  0  0  0  0  0  0
    4.3987    2.6001   -0.3169 C   0  0  0  0  0  0  0  0  0  0  0  0
   -2.7409   -0.1187   -0.2067 C   0  0  0  0  0  0  0  0  0  0  0  0
   -1.2905   -0.3728   -0.2659 C   0  0  0  0  0  0  0  0  0  0  0  0
   -3.5826   -0.6497   -1.1841 C   0  0  0  0  0  0  0  0  0  0  0  0
   -3.2721    0.6540    0.8262 C   0  0  0  0  0  0  0  0  0  0  0  0
   -4.9552   -0.4081   -1.1288 C   0  0  0  0  0  0  0  0  0  0  0  0
   -4.6447    0.8957    0.8814 C   0  0  0  0  0  0  0  0  0  0  0  0
   -5.4862    0.3646   -0.0961 C   0  0  0  0  0  0  0  0  0  0  0  0
    2.7899   -2.9123    0.1284 H   0  0  0  0  0  0  0  0  0  0  0  0
    4.0828    3.0537    0.6282 H   0  0  0  0  0  0  0  0  0  0  0  0
    5.4292    2.9179   -0.5093 H   0  0  0  0  0  0  0  0  0  0  0  0
    3.7723    3.0023   -1.1198 H   0  0  0  0  0  0  0  0  0  0  0  0
   -0.9421   -0.9648   -1.1336 H   0  0  0  0  0  0  0  0  0  0  0  0
   -3.1832   -1.2537   -1.9946 H   0  0  0  0  0  0  0  0  0  0  0  0
   -2.6403    1.0803    1.6007 H   0  0  0  0  0  0  0  0  0  0  0  0
   -5.6059   -0.8245   -1.8931 H   0  0  0  0  0  0  0  0  0  0  0  0
   -5.0463    1.4993    1.6910 H   0  0  0  0  0  0  0  0  0  0  0  0
   -7.0177    1.1515    0.7359 H   0  0  0  0  0  0  0  0  0  0  0  0
  1  7  1  0  0  0  0
  1 10  1  0  0  0  0
  2 12  2  0  0  0  0
  3 13  2  0  0  0  0
  4 21  1  0  0  0  0
  4 31  1  0  0  0  0
  5  8  1  0  0  0  0
  5 12  1  0  0  0  0
  5 13  1  0  0  0  0
  6 10  1  0  0  0  0
  6 13  1  0  0  0  0
  6 22  1  0  0  0  0
  7 11  2  0  0  0  0
  8 16  2  0  0  0  0
  9 10  2  0  0  0  0
  9 11  1  0  0  0  0
  9 12  1  0  0  0  0
 11 14  1  0  0  0  0
 14 23  1  0  0  0  0
 14 24  1  0  0  0  0
 14 25  1  0  0  0  0
 15 16  1  0  0  0  0
 15 17  2  0  0  0  0
 15 18  1  0  0  0  0
 16 26  1  0  0  0  0
 17 19  1  0  0  0  0
 17 27  1  0  0  0  0
 18 20  2  0  0  0  0
 18 28  1  0  0  0  0
 19 21  2  0  0  0  0
 19 29  1  0  0  0  0
 20 21  1  0  0  0  0
 20 30  1  0  0  0  0
M  END
> <PUBCHEM_COMPOUND_CID>
135418368

> <PUBCHEM_CONFORMER_RMSD>
0.6

> <PUBCHEM_CONFORMER_DIVERSEORDER>
1
4
2
3

> <PUBCHEM_MMFF94_PARTIAL_CHARGES>
28
1 0.18
10 0.1
11 0.11
12 0.72
13 0.69
14 0.18
15 0.09
16 0.3
17 -0.15
18 -0.15
19 -0.15
2 -0.57
20 -0.15
21 0.08
22 0.37
26 0.06
27 0.15
28 0.15
29 0.15
3 -0.57
30 0.15
31 0.45
4 -0.53
5 -0.06
6 -0.49
7 -0.51
8 -0.51
9 -0.09

> <PUBCHEM_EFFECTIVE_ROTOR_COUNT>
2

> <PUBCHEM_PHARMACOPHORE_FEATURES>
9
1 2 acceptor
1 3 acceptor
1 4 donor
1 6 donor
1 7 acceptor
1 8 acceptor
5 1 7 9 10 11 rings
6 15 17 18 19 20 21 rings
6 5 6 9 10 12 13 rings

> <PUBCHEM_HEAVY_ATOM_COUNT>
21

> <PUBCHEM_ATOM_DEF_STEREO_COUNT>
0

> <PUBCHEM_ATOM_UDEF_STEREO_COUNT>
0

> <PUBCHEM_BOND_DEF_STEREO_COUNT>
1

> <PUBCHEM_BOND_UDEF_STEREO_COUNT>
0

> <PUBCHEM_ISOTOPIC_ATOM_COUNT>
0

> <PUBCHEM_COMPONENT_COUNT>
1

> <PUBCHEM_CACTVS_TAUTO_COUNT>
-1

> <PUBCHEM_CONFORMER_ID>
0812520000000001

> <PUBCHEM_MMFF94_ENERGY>
54.6476

> <PUBCHEM_FEATURE_SELFOVERLAP>
45.756

> <PUBCHEM_SHAPE_FINGERPRINT>
10411042 1 17904480702281313386
10595046 47 18272368693940182925
10693767 8 18130230329414998686
11471102 20 18409167710264822354
11796584 16 14979955882406905791
12107183 9 17551520938034181499
12236239 1 18131913750024155513
12403259 415 17821721724065835821
12730499 353 18113904852998956699
12788726 201 17489314032004785241
13167823 11 18202561782987565631
13540713 4 18120392088590266802
13955234 65 18041835121731792218
14528608 73 18412543232057181629
15183329 4 17917436414439631901
15196674 1 18410012182102367722
15788980 27 15554443007302096133
17834072 33 18273493477081571647
200 152 18201999928350856155
20612939 158 18410577283929142012
20645477 70 18411700942011061094
21033648 29 17240750792377221149
21267235 1 18342464698735481026
21641784 216 17896336735222556764
221357 26 18410571760380043269
2297311 6 16056882434064455849
23402539 116 17989204836930069004
23402655 69 18342736351216983430
23557571 272 14548747174774632145
23558518 356 17537718085681536378
23559900 14 16343407497445597491
29717793 49 17846782888281732732
300161 21 18202275905611263125
3004659 81 17988928842980455294
335352 9 18409453588253074166
34797466 226 15697998578224415040
3545911 37 18409167719049929307
4073 2 18114187483332400130
42630746 31 18410573968441294746
4340502 62 16442779124938839626
474 4 18335985345516792009
5104073 3 18261108625372315666
542803 24 18202001023593922693
543368 44 18200874080073746457
54446538 1 18342176639695309433
633830 44 18411135848631458990
8272917 22 18340771455118561222
9981440 41 17121958684081356936
9999458 23 17967816055174531870

> <PUBCHEM_SHAPE_MULTIPOLES>
398.49
14.17
1.99
0.88
11.28
0.09
0.08
3.42
2.28
-2.76
-0.13
0.74
-0.05
-0.83

> <PUBCHEM_SHAPE_SELFOVERLAP>
864.183

> <PUBCHEM_SHAPE_VOLUME>
218.4

> <PUBCHEM_COORDINATE_TYPE>
2
5
10

$$$$
