135494270
  -OEChem-03292013293D

 34 35  0     0  0  0  0  0  0999 V2000
    3.3776    1.0484    0.5764 S   0  0  0  0  0  0  0  0  0  0  0  0
   -5.6473    1.6030   -0.2714 O   0  0  0  0  0  0  0  0  0  0  0  0
    5.9324    2.0227   -0.8542 O   0  0  0  0  0  0  0  0  0  0  0  0
    2.2043   -1.3076    0.2883 N   0  0  0  0  0  0  0  0  0  0  0  0
    1.4150   -3.5231    0.0481 N   0  0  0  0  0  0  0  0  0  0  0  0
    0.2398    3.1061    0.4189 N   0  0  0  0  0  0  0  0  0  0  0  0
   -2.1066   -3.3966   -0.2892 N   0  0  0  0  0  0  0  0  0  0  0  0
   -0.4092   -0.3335    0.1026 C   0  0  0  0  0  0  0  0  0  0  0  0
   -1.7623    0.1686    0.0063 C   0  0  0  0  0  0  0  0  0  0  0  0
    0.6536    0.5471    0.2717 C   0  0  0  0  0  0  0  0  0  0  0  0
   -0.1668   -1.7005    0.0261 C   0  0  0  0  0  0  0  0  0  0  0  0
    1.9298    0.0142    0.3582 C   0  0  0  0  0  0  0  0  0  0  0  0
    1.1460   -2.1328    0.1236 C   0  0  0  0  0  0  0  0  0  0  0  0
   -2.5331    0.3229    1.1586 C   0  0  0  0  0  0  0  0  0  0  0  0
   -2.2971    0.4970   -1.2395 C   0  0  0  0  0  0  0  0  0  0  0  0
   -3.8385    0.8051    1.0652 C   0  0  0  0  0  0  0  0  0  0  0  0
   -3.6025    0.9793   -1.3330 C   0  0  0  0  0  0  0  0  0  0  0  0
    4.6487    0.0676   -0.2658 C   0  0  0  0  0  0  0  0  0  0  0  0
   -4.3732    1.1333   -0.1806 C   0  0  0  0  0  0  0  0  0  0  0  0
    6.0043    0.7548   -0.2152 C   0  0  0  0  0  0  0  0  0  0  0  0
    0.4247    1.9624    0.3530 C   0  0  0  0  0  0  0  0  0  0  0  0
   -1.2395   -2.6384   -0.1483 C   0  0  0  0  0  0  0  0  0  0  0  0
   -2.1320    0.0714    2.1377 H   0  0  0  0  0  0  0  0  0  0  0  0
   -1.7101    0.3826   -2.1478 H   0  0  0  0  0  0  0  0  0  0  0  0
   -4.4341    0.9228    1.9664 H   0  0  0  0  0  0  0  0  0  0  0  0
   -4.0075    1.2312   -2.3094 H   0  0  0  0  0  0  0  0  0  0  0  0
    4.7361   -0.9177    0.2026 H   0  0  0  0  0  0  0  0  0  0  0  0
    4.3409   -0.0628   -1.3088 H   0  0  0  0  0  0  0  0  0  0  0  0
    6.7491    0.1481   -0.7404 H   0  0  0  0  0  0  0  0  0  0  0  0
    6.3415    0.8973    0.8172 H   0  0  0  0  0  0  0  0  0  0  0  0
    2.3886   -3.7951    0.1143 H   0  0  0  0  0  0  0  0  0  0  0  0
    0.7262   -4.1719    0.4083 H   0  0  0  0  0  0  0  0  0  0  0  0
   -5.8526    1.7783   -1.2059 H   0  0  0  0  0  0  0  0  0  0  0  0
    6.8199    2.4171   -0.8056 H   0  0  0  0  0  0  0  0  0  0  0  0
  1 12  1  0  0  0  0
  1 18  1  0  0  0  0
  2 19  1  0  0  0  0
  2 33  1  0  0  0  0
  3 20  1  0  0  0  0
  3 34  1  0  0  0  0
  4 12  1  0  0  0  0
  4 13  2  0  0  0  0
  5 13  1  0  0  0  0
  5 31  1  0  0  0  0
  5 32  1  0  0  0  0
  6 21  3  0  0  0  0
  7 22  3  0  0  0  0
  8  9  1  0  0  0  0
  8 10  1  0  0  0  0
  8 11  2  0  0  0  0
  9 14  2  0  0  0  0
  9 15  1  0  0  0  0
 10 12  2  0  0  0  0
 10 21  1  0  0  0  0
 11 13  1  0  0  0  0
 11 22  1  0  0  0  0
 14 16  1  0  0  0  0
 14 23  1  0  0  0  0
 15 17  2  0  0  0  0
 15 24  1  0  0  0  0
 16 19  2  0  0  0  0
 16 25  1  0  0  0  0
 17 19  1  0  0  0  0
 17 26  1  0  0  0  0
 18 20  1  0  0  0  0
 18 27  1  0  0  0  0
 18 28  1  0  0  0  0
 20 29  1  0  0  0  0
 20 30  1  0  0  0  0
M  END
> <PUBCHEM_COMPOUND_CID>
135494270

> <PUBCHEM_CONFORMER_RMSD>
0.6

> <PUBCHEM_CONFORMER_DIVERSEORDER>
2
15
8
6
12
14
9
4
13
1
7
10
11
3
5

> <PUBCHEM_MMFF94_PARTIAL_CHARGES>
28
1 -0.33
10 0.07
11 0.07
12 0.41
13 0.41
14 -0.15
15 -0.15
16 -0.15
17 -0.15
18 0.23
19 0.08
2 -0.53
20 0.28
21 0.48
22 0.48
23 0.15
24 0.15
25 0.15
26 0.15
3 -0.68
31 0.4
32 0.4
33 0.45
34 0.4
4 -0.62
5 -0.9
6 -0.56
7 -0.56

> <PUBCHEM_EFFECTIVE_ROTOR_COUNT>
4

> <PUBCHEM_PHARMACOPHORE_FEATURES>
9
1 2 donor
1 3 acceptor
1 3 donor
1 5 donor
1 6 acceptor
1 7 acceptor
3 4 5 13 cation
6 4 8 10 11 12 13 rings
6 9 14 15 16 17 19 rings

> <PUBCHEM_HEAVY_ATOM_COUNT>
22

> <PUBCHEM_ATOM_DEF_STEREO_COUNT>
0

> <PUBCHEM_ATOM_UDEF_STEREO_COUNT>
0

> <PUBCHEM_BOND_DEF_STEREO_COUNT>
0

> <PUBCHEM_BOND_UDEF_STEREO_COUNT>
0

> <PUBCHEM_ISOTOPIC_ATOM_COUNT>
0

> <PUBCHEM_COMPONENT_COUNT>
1

> <PUBCHEM_CACTVS_TAUTO_COUNT>
-1

> <PUBCHEM_CONFORMER_ID>
08137A7E00000002

> <PUBCHEM_MMFF94_ENERGY>
64.929

> <PUBCHEM_FEATURE_SELFOVERLAP>
45.671

> <PUBCHEM_SHAPE_FINGERPRINT>
10165383 225 18408886230750954237
10411042 1 17545602713413830962
10967382 1 18339919312205856363
1100329 8 18340488971056820016
11796584 16 14261344752322168020
12236239 1 17632290121818632777
12788726 201 18131071472784024160
12969540 114 18337098030078504756
13140716 1 18410844465492569130
13583140 156 16588290696749974436
13911987 19 18408880732966033812
14790565 3 18340213994487311208
16945 1 18268142068026965234
17492 54 18264749061295936111
1813 80 17340409220427889742
19591789 44 18193841659114689658
19784866 34 18410011022613951342
204376 136 18408885126843956818
20600515 1 18200327609936700796
20602899 9 15339117969885740567
20739085 24 18050026405985865177
20871999 31 18266176317746541494
21236236 1 18338799038748668206
21756936 100 17489043599051557883
22182313 1 18129119933875617086
2334 1 18267577082443765874
23402539 116 18272930540282337508
23558518 356 17974000957665850219
23559900 14 17755573845987339347
25 1 18410283692612163051
25147074 1 18336808854283935234
266924 87 18195243313239656212
2748010 2 18341611576892441050
293599 30 18409730655696786796
335352 9 18411418393814376254
34934 24 18407757028024550714
350125 39 18193843866901953115
3759504 43 18113621222349479578
474 4 18342172258955281225
5104073 3 18263637519981508136
59755656 215 18341337674523068934
77492 1 17416672571659866739
8272917 22 18126848188787001757

> <PUBCHEM_SHAPE_MULTIPOLES>
424.94
10.13
3.28
0.96
8.15
2.72
0.07
-7.28
1.97
0
0.06
-0.59
-0.28
-0.24

> <PUBCHEM_SHAPE_SELFOVERLAP>
901.249

> <PUBCHEM_SHAPE_VOLUME>
237.9

> <PUBCHEM_COORDINATE_TYPE>
2
5
10

$$$$
