135409548
  -OEChem-03292013293D

 37 39  0     0  0  0  0  0  0999 V2000
    0.3758   -2.9878   -1.2664 O   0  0  0  0  0  0  0  0  0  0  0  0
    1.9724    3.7100    0.5689 O   0  0  0  0  0  0  0  0  0  0  0  0
   -5.3352    1.4973    0.9546 O   0  0  0  0  0  0  0  0  0  0  0  0
   -5.6813    0.5705   -1.0919 O   0  0  0  0  0  0  0  0  0  0  0  0
    2.9852   -0.6939    0.3819 N   0  0  0  0  0  0  0  0  0  0  0  0
    2.8569    1.1087    1.7008 N   0  0  0  0  0  0  0  0  0  0  0  0
    0.0846   -1.7157    0.6882 N   0  0  0  0  0  0  0  0  0  0  0  0
    2.2677    0.2524   -1.7309 N   0  0  0  0  0  0  0  0  0  0  0  0
    1.7664    2.5903   -1.4693 N   0  0  0  0  0  0  0  0  0  0  0  0
    3.2234   -2.0617   -0.0109 C   0  0  0  0  0  0  0  0  0  0  0  0
    2.0959   -3.0143    0.3912 C   0  0  0  0  0  0  0  0  0  0  0  0
    2.5555    0.3286   -0.4112 C   0  0  0  0  0  0  0  0  0  0  0  0
    2.4870    1.4192    0.4254 C   0  0  0  0  0  0  0  0  0  0  0  0
    3.1522   -0.1752    1.6430 C   0  0  0  0  0  0  0  0  0  0  0  0
    0.7571   -2.5697   -0.1767 C   0  0  0  0  0  0  0  0  0  0  0  0
    2.0592    2.6895   -0.1024 C   0  0  0  0  0  0  0  0  0  0  0  0
   -1.1783   -1.1096    0.4931 C   0  0  0  0  0  0  0  0  0  0  0  0
    1.8821    1.4032   -2.2017 C   0  0  0  0  0  0  0  0  0  0  0  0
   -1.8933   -1.3493   -0.6804 C   0  0  0  0  0  0  0  0  0  0  0  0
   -1.7081   -0.2710    1.4738 C   0  0  0  0  0  0  0  0  0  0  0  0
   -3.6681    0.0882    0.1076 C   0  0  0  0  0  0  0  0  0  0  0  0
   -3.1382   -0.7504   -0.8731 C   0  0  0  0  0  0  0  0  0  0  0  0
   -2.9529    0.3280    1.2810 C   0  0  0  0  0  0  0  0  0  0  0  0
   -4.9658    0.7125   -0.0947 C   0  0  0  0  0  0  0  0  0  0  0  0
    3.3700   -2.0833   -1.0967 H   0  0  0  0  0  0  0  0  0  0  0  0
    4.1662   -2.3771    0.4505 H   0  0  0  0  0  0  0  0  0  0  0  0
    2.3097   -4.0231    0.0201 H   0  0  0  0  0  0  0  0  0  0  0  0
    2.0263   -3.0880    1.4832 H   0  0  0  0  0  0  0  0  0  0  0  0
    3.4887   -0.7801    2.4741 H   0  0  0  0  0  0  0  0  0  0  0  0
    0.5356   -1.4871    1.5711 H   0  0  0  0  0  0  0  0  0  0  0  0
    1.4536    3.4277   -1.9522 H   0  0  0  0  0  0  0  0  0  0  0  0
    1.6064    1.5284   -3.2602 H   0  0  0  0  0  0  0  0  0  0  0  0
   -1.5476   -1.9830   -1.4848 H   0  0  0  0  0  0  0  0  0  0  0  0
   -1.1598   -0.0752    2.3919 H   0  0  0  0  0  0  0  0  0  0  0  0
   -3.6801   -0.9485   -1.7944 H   0  0  0  0  0  0  0  0  0  0  0  0
   -3.3278    0.9743    2.0697 H   0  0  0  0  0  0  0  0  0  0  0  0
   -6.2115    1.9134    0.8083 H   0  0  0  0  0  0  0  0  0  0  0  0
  1 15  2  0  0  0  0
  2 16  2  0  0  0  0
  3 24  1  0  0  0  0
  3 37  1  0  0  0  0
  4 24  2  0  0  0  0
  5 10  1  0  0  0  0
  5 12  1  0  0  0  0
  5 14  1  0  0  0  0
  6 13  1  0  0  0  0
  6 14  2  0  0  0  0
  7 15  1  0  0  0  0
  7 17  1  0  0  0  0
  7 30  1  0  0  0  0
  8 12  1  0  0  0  0
  8 18  2  0  0  0  0
  9 16  1  0  0  0  0
  9 18  1  0  0  0  0
  9 31  1  0  0  0  0
 10 11  1  0  0  0  0
 10 25  1  0  0  0  0
 10 26  1  0  0  0  0
 11 15  1  0  0  0  0
 11 27  1  0  0  0  0
 11 28  1  0  0  0  0
 12 13  2  0  0  0  0
 13 16  1  0  0  0  0
 14 29  1  0  0  0  0
 17 19  2  0  0  0  0
 17 20  1  0  0  0  0
 18 32  1  0  0  0  0
 19 22  1  0  0  0  0
 19 33  1  0  0  0  0
 20 23  2  0  0  0  0
 20 34  1  0  0  0  0
 21 22  2  0  0  0  0
 21 23  1  0  0  0  0
 21 24  1  0  0  0  0
 22 35  1  0  0  0  0
 23 36  1  0  0  0  0
M  END
> <PUBCHEM_COMPOUND_CID>
135409548

> <PUBCHEM_CONFORMER_RMSD>
0.8

> <PUBCHEM_CONFORMER_DIVERSEORDER>
3
6
29
10
13
4
1
28
36
17
30
38
33
40
16
41
27
21
31
2
39
14
23
8
15
22
11
20
25
5
24
7
18
19
35
12
9
34
32
26
37

> <PUBCHEM_MMFF94_PARTIAL_CHARGES>
33
1 -0.57
10 0.26
11 0.06
12 -0.03
13 0.14
14 0.04
15 0.57
16 0.72
17 0.12
18 0.45
19 -0.15
2 -0.57
20 -0.15
21 0.09
22 -0.15
23 -0.15
24 0.63
29 0.15
3 -0.65
30 0.37
31 0.37
32 0.06
33 0.15
34 0.15
35 0.15
36 0.15
37 0.5
4 -0.57
5 0.05
6 -0.57
7 -0.55
8 -0.58
9 -0.49

> <PUBCHEM_EFFECTIVE_ROTOR_COUNT>
6

> <PUBCHEM_PHARMACOPHORE_FEATURES>
11
1 1 acceptor
1 2 acceptor
1 3 acceptor
1 4 acceptor
1 7 donor
1 9 donor
3 3 4 24 anion
3 5 6 14 cation
5 5 6 12 13 14 rings
6 17 19 20 21 22 23 rings
6 8 9 12 13 16 18 rings

> <PUBCHEM_HEAVY_ATOM_COUNT>
24

> <PUBCHEM_ATOM_DEF_STEREO_COUNT>
0

> <PUBCHEM_ATOM_UDEF_STEREO_COUNT>
0

> <PUBCHEM_BOND_DEF_STEREO_COUNT>
0

> <PUBCHEM_BOND_UDEF_STEREO_COUNT>
0

> <PUBCHEM_ISOTOPIC_ATOM_COUNT>
0

> <PUBCHEM_COMPONENT_COUNT>
1

> <PUBCHEM_CACTVS_TAUTO_COUNT>
-1

> <PUBCHEM_CONFORMER_ID>
08122F8C00000003

> <PUBCHEM_MMFF94_ENERGY>
58.4087

> <PUBCHEM_FEATURE_SELFOVERLAP>
56.02

> <PUBCHEM_SHAPE_FINGERPRINT>
104564 63 17906182746101112790
11578080 2 12504613716536569198
11640471 11 17902503019705378838
12156800 1 11738998158397440072
12403259 327 16950556683904877938
12633257 1 17095795598649890115
128993 33 17905075846712420994
13134695 92 18336262328285089834
13583140 156 18114186298591729243
13965767 371 18116134740216525524
15420108 30 18127946764086378210
15664445 248 13686291405020024451
18981168 100 18050024464755495354
20567600 299 18340482275245029249
20567600 347 11167928157165546566
21475661 188 17604418601624337157
21860390 5 18341056207302973231
22289505 5 18116992182981301543
22749437 52 18339075020482981555
23558518 356 18190455159102222450
23559900 14 18261118413729896547
238 59 18270419280972080986
3060560 45 18130508535451844774
328310 1195 18116693155116941261
4409770 3 15247950456089230511
474 4 18409164415872308987
495365 180 18337387244465041173
5048184 11 18267307718963366205
508706 21 17243289423551394477
513532 50 17917714565380590142
550186 7 16757205670766368428
58260988 114 15942841985769509050
6443956 14 18266178335827334468
9981440 41 17908129233536824848

> <PUBCHEM_SHAPE_MULTIPOLES>
445.53
8.71
3.46
1.64
14.08
0.36
0.25
3.15
-0.49
-3.58
0.44
-0.62
0.49
-0.52

> <PUBCHEM_SHAPE_SELFOVERLAP>
974.092

> <PUBCHEM_SHAPE_VOLUME>
237.5

> <PUBCHEM_COORDINATE_TYPE>
2
5
10

$$$$
