135409360
  -OEChem-03292013293D

 33 32  0     1  0  0  0  0  0999 V2000
   -2.4540    1.8829   -0.7775 O   0  0  0  0  0  0  0  0  0  0  0  0
   -4.0652    0.3674   -1.2829 O   0  0  0  0  0  0  0  0  0  0  0  0
   -3.8213   -0.9276    1.0220 N   0  0  0  0  0  0  0  0  0  0  0  0
    1.2277   -0.8326   -0.2446 N   0  0  0  0  0  0  0  0  0  0  0  0
    3.4681   -0.1767   -0.4735 N   0  0  0  0  0  0  0  0  0  0  0  0
    3.0529   -2.3675   -0.0040 N   0  0  0  0  0  0  0  0  0  0  0  0
   -1.4486   -0.3082    0.9445 C   0  0  0  0  0  0  0  0  0  0  0  0
   -1.1456   -1.4080   -0.0836 C   0  0  0  0  0  0  0  0  0  0  0  0
   -2.8981    0.1914    0.8491 C   0  0  1  0  0  0  0  0  0  0  0  0
    0.2867   -1.9222    0.0200 C   0  0  0  0  0  0  0  0  0  0  0  0
   -3.2144    0.7883   -0.5099 C   0  0  0  0  0  0  0  0  0  0  0  0
    2.4908   -1.1292   -0.2360 C   0  0  0  0  0  0  0  0  0  0  0  0
    3.2089    1.2161   -0.7501 C   0  0  0  0  0  0  0  0  0  0  0  0
    3.1849    1.9685    0.5414 C   0  0  0  0  0  0  0  0  0  0  0  0
    2.1273    2.6574    0.9851 C   0  0  0  0  0  0  0  0  0  0  0  0
   -0.7670    0.5378    0.7966 H   0  0  0  0  0  0  0  0  0  0  0  0
   -1.2606   -0.6929    1.9550 H   0  0  0  0  0  0  0  0  0  0  0  0
   -1.8192   -2.2611    0.0548 H   0  0  0  0  0  0  0  0  0  0  0  0
   -1.3097   -1.0262   -1.0984 H   0  0  0  0  0  0  0  0  0  0  0  0
   -3.0969    0.9473    1.6164 H   0  0  0  0  0  0  0  0  0  0  0  0
    0.4508   -2.3360    1.0223 H   0  0  0  0  0  0  0  0  0  0  0  0
    0.4176   -2.7256   -0.7150 H   0  0  0  0  0  0  0  0  0  0  0  0
   -4.7795   -0.5807    1.0539 H   0  0  0  0  0  0  0  0  0  0  0  0
   -3.6526   -1.3742    1.9227 H   0  0  0  0  0  0  0  0  0  0  0  0
    4.4438   -0.4586   -0.4343 H   0  0  0  0  0  0  0  0  0  0  0  0
    4.0210    1.6116   -1.3701 H   0  0  0  0  0  0  0  0  0  0  0  0
    2.2847    1.3435   -1.3253 H   0  0  0  0  0  0  0  0  0  0  0  0
   -2.6685    2.2716   -1.6522 H   0  0  0  0  0  0  0  0  0  0  0  0
    2.4916   -3.1886    0.1918 H   0  0  0  0  0  0  0  0  0  0  0  0
    4.0588   -2.4971   -0.0200 H   0  0  0  0  0  0  0  0  0  0  0  0
    4.0899    1.9631    1.1441 H   0  0  0  0  0  0  0  0  0  0  0  0
    2.1746    3.1894    1.9289 H   0  0  0  0  0  0  0  0  0  0  0  0
    1.2020    2.7008    0.4213 H   0  0  0  0  0  0  0  0  0  0  0  0
  1 11  1  0  0  0  0
  1 28  1  0  0  0  0
  2 11  2  0  0  0  0
  3  9  1  0  0  0  0
  3 23  1  0  0  0  0
  3 24  1  0  0  0  0
  4 10  1  0  0  0  0
  4 12  2  0  0  0  0
  5 12  1  0  0  0  0
  5 13  1  0  0  0  0
  5 25  1  0  0  0  0
  6 12  1  0  0  0  0
  6 29  1  0  0  0  0
  6 30  1  0  0  0  0
  7  8  1  0  0  0  0
  7  9  1  0  0  0  0
  7 16  1  0  0  0  0
  7 17  1  0  0  0  0
  8 10  1  0  0  0  0
  8 18  1  0  0  0  0
  8 19  1  0  0  0  0
  9 11  1  0  0  0  0
  9 20  1  0  0  0  0
 10 21  1  0  0  0  0
 10 22  1  0  0  0  0
 13 14  1  0  0  0  0
 13 26  1  0  0  0  0
 13 27  1  0  0  0  0
 14 15  2  0  0  0  0
 14 31  1  0  0  0  0
 15 32  1  0  0  0  0
 15 33  1  0  0  0  0
M  END
> <PUBCHEM_COMPOUND_CID>
135409360

> <PUBCHEM_CONFORMER_RMSD>
0.8

> <PUBCHEM_CONFORMER_DIVERSEORDER>
1
49
56
92
60
85
104
9
113
91
109
86
29
15
117
30
51
79
41
57
110
63
114
115
66
46
50
38
39
78
106
36
77
40
42
107
116
4
24
27
23
14
28
99
34
76
6
55
71
37
97
93
58
48
11
61
8
64
26
101
105
83
73
103
13
69
10
20
54
62
16
32
33
43
67
112
65
17
89
59
5
52
75
84
87
2
96
44
53
12
21
108
68
25
70
45
90
102
95
7
81
111
80
19
100
82
118
18
74
94
35
31
3
22
47
88
72
98

> <PUBCHEM_MMFF94_PARTIAL_CHARGES>
22
1 -0.65
10 0.25
11 0.66
12 0.55
13 0.51
14 -0.29
15 -0.3
2 -0.57
23 0.36
24 0.36
25 0.4
28 0.5
29 0.4
3 -0.99
30 0.4
31 0.15
32 0.15
33 0.15
4 -0.7
5 -0.82
6 -0.85
9 0.33

> <PUBCHEM_EFFECTIVE_ROTOR_COUNT>
8

> <PUBCHEM_PHARMACOPHORE_FEATURES>
9
1 1 acceptor
1 15 hydrophobe
1 2 acceptor
1 3 cation
1 3 donor
1 5 donor
1 6 donor
3 1 2 11 anion
4 4 5 6 12 cation

> <PUBCHEM_HEAVY_ATOM_COUNT>
15

> <PUBCHEM_ATOM_DEF_STEREO_COUNT>
1

> <PUBCHEM_ATOM_UDEF_STEREO_COUNT>
0

> <PUBCHEM_BOND_DEF_STEREO_COUNT>
0

> <PUBCHEM_BOND_UDEF_STEREO_COUNT>
0

> <PUBCHEM_ISOTOPIC_ATOM_COUNT>
0

> <PUBCHEM_COMPONENT_COUNT>
1

> <PUBCHEM_CACTVS_TAUTO_COUNT>
-1

> <PUBCHEM_CONFORMER_ID>
08122ED000000001

> <PUBCHEM_MMFF94_ENERGY>
19.0736

> <PUBCHEM_FEATURE_SELFOVERLAP>
45.785

> <PUBCHEM_SHAPE_FINGERPRINT>
10608611 8 18335141977127567699
11615756 256 18334586719434557197
11615756 56 18410005529076758880
11715629 250 18339643459483708882
13922767 16 18335699399869685130
17802600 8 18409728452309706356
18186145 218 18273222997068430674
18219364 16 18268440194544195672
192875 21 18129374917319303610
20233049 118 18408327662186043972
20621476 13 18338226154541562372
20681677 76 18335139799763946947
21249577 43 18408041835727344085
21524375 3 18338806705413101538
21639500 275 18343579646554619286
22096605 113 18341324561064611391
23557571 272 17822299011152821331
23559900 14 17894913992502437918
23590187 86 18335134237522985372
3524813 1 18335417958920572556
8050 44 18269834383872901168

> <PUBCHEM_SHAPE_MULTIPOLES>
277.03
7.86
2.67
1.05
2.47
0.37
0
2.1
0.78
-2.5
-0.29
0.63
0.33
1.05

> <PUBCHEM_SHAPE_SELFOVERLAP>
526.123

> <PUBCHEM_SHAPE_VOLUME>
169.5

> <PUBCHEM_COORDINATE_TYPE>
2
5
10

$$$$
