135413509
  -OEChem-03292013293D

 56 57  0     1  0  0  0  0  0999 V2000
    2.6381    2.5490   -0.2943 O   0  0  0  0  0  0  0  0  0  0  0  0
    4.1177   -0.9750   -2.1981 O   0  0  0  0  0  0  0  0  0  0  0  0
    5.1136   -2.5941   -0.9583 O   0  0  0  0  0  0  0  0  0  0  0  0
    3.7340    1.7162    1.5443 O   0  0  0  0  0  0  0  0  0  0  0  0
   -3.0988   -1.8356   -1.8628 O   0  0  0  0  0  0  0  0  0  0  0  0
   -2.6068    2.4464   -0.4921 N   0  0  0  0  0  0  0  0  0  0  0  0
    3.2699    0.3918   -0.3039 N   0  0  0  0  0  0  0  0  0  0  0  0
   -2.4896    1.0488   -2.2353 N   0  0  0  0  0  0  0  0  0  0  0  0
   -3.2688    0.9101    1.2619 N   0  0  0  0  0  0  0  0  0  0  0  0
   -3.4893   -1.3167    0.3797 N   0  0  0  0  0  0  0  0  0  0  0  0
   -0.4893   -3.3354    0.1427 N   0  0  0  0  0  0  0  0  0  0  0  0
   -1.4337   -4.5086    2.0140 N   0  0  0  0  0  0  0  0  0  0  0  0
   -2.5138   -4.4558    0.0074 N   0  0  0  0  0  0  0  0  0  0  0  0
   -1.2579    3.8880    1.1181 C   0  0  0  0  0  0  0  0  0  0  0  0
    0.0203    3.7628    0.2823 C   0  0  0  0  0  0  0  0  0  0  0  0
   -2.5360    3.7362    0.2858 C   0  0  0  0  0  0  0  0  0  0  0  0
    1.2694    3.9237    1.1547 C   0  0  0  0  0  0  0  0  0  0  0  0
    2.8493   -1.7019    0.9410 C   0  0  0  0  0  0  0  0  0  0  0  0
    3.8512   -0.8395    0.1681 C   0  0  1  0  0  0  0  0  0  0  0  0
    2.5554    3.8290    0.3426 C   0  0  0  0  0  0  0  0  0  0  0  0
    1.6279   -2.1348    0.1211 C   0  0  0  0  0  0  0  0  0  0  0  0
   -2.9376    1.2127   -0.0144 C   0  0  0  0  0  0  0  0  0  0  0  0
   -2.3462    2.2964   -1.8324 C   0  0  0  0  0  0  0  0  0  0  0  0
   -2.8563    0.3784   -1.1058 C   0  0  0  0  0  0  0  0  0  0  0  0
    0.6576   -2.9519    0.9675 C   0  0  0  0  0  0  0  0  0  0  0  0
    3.2597    1.5659    0.4230 C   0  0  0  0  0  0  0  0  0  0  0  0
    4.4454   -1.5703   -1.0213 C   0  0  0  0  0  0  0  0  0  0  0  0
   -3.1491   -1.0233   -0.9478 C   0  0  0  0  0  0  0  0  0  0  0  0
   -3.5319   -0.3576    1.3982 C   0  0  0  0  0  0  0  0  0  0  0  0
   -1.4044   -4.0548    0.7141 C   0  0  0  0  0  0  0  0  0  0  0  0
   -1.2474    3.1222    1.9035 H   0  0  0  0  0  0  0  0  0  0  0  0
   -1.2793    4.8620    1.6210 H   0  0  0  0  0  0  0  0  0  0  0  0
    0.0189    4.5245   -0.5065 H   0  0  0  0  0  0  0  0  0  0  0  0
    0.0531    2.7838   -0.2075 H   0  0  0  0  0  0  0  0  0  0  0  0
   -3.4297    3.7503    0.9190 H   0  0  0  0  0  0  0  0  0  0  0  0
   -2.6232    4.5365   -0.4575 H   0  0  0  0  0  0  0  0  0  0  0  0
    1.2641    3.1457    1.9275 H   0  0  0  0  0  0  0  0  0  0  0  0
    1.2403    4.8937    1.6643 H   0  0  0  0  0  0  0  0  0  0  0  0
    3.3612   -2.5985    1.3131 H   0  0  0  0  0  0  0  0  0  0  0  0
    2.5063   -1.1445    1.8221 H   0  0  0  0  0  0  0  0  0  0  0  0
    4.6879   -0.5793    0.8278 H   0  0  0  0  0  0  0  0  0  0  0  0
    2.5586    4.5853   -0.4499 H   0  0  0  0  0  0  0  0  0  0  0  0
    3.4336    4.0251    0.9687 H   0  0  0  0  0  0  0  0  0  0  0  0
    1.9438   -2.7292   -0.7445 H   0  0  0  0  0  0  0  0  0  0  0  0
    1.1056   -1.2551   -0.2744 H   0  0  0  0  0  0  0  0  0  0  0  0
   -2.0561    3.1289   -2.4589 H   0  0  0  0  0  0  0  0  0  0  0  0
    2.8222    0.4013   -1.2159 H   0  0  0  0  0  0  0  0  0  0  0  0
    0.3252   -2.3485    1.8210 H   0  0  0  0  0  0  0  0  0  0  0  0
    1.1720   -3.8442    1.3445 H   0  0  0  0  0  0  0  0  0  0  0  0
   -3.7194   -2.2785    0.6120 H   0  0  0  0  0  0  0  0  0  0  0  0
   -3.8201   -0.7842    2.3714 H   0  0  0  0  0  0  0  0  0  0  0  0
    4.4871   -1.4586   -2.9675 H   0  0  0  0  0  0  0  0  0  0  0  0
   -2.6365   -4.1972   -0.9656 H   0  0  0  0  0  0  0  0  0  0  0  0
   -3.2426   -5.0152    0.4367 H   0  0  0  0  0  0  0  0  0  0  0  0
   -0.6938   -4.3030    2.6757 H   0  0  0  0  0  0  0  0  0  0  0  0
   -2.2082   -5.0681    2.3546 H   0  0  0  0  0  0  0  0  0  0  0  0
  1 20  1  0  0  0  0
  1 26  1  0  0  0  0
  2 27  1  0  0  0  0
  2 52  1  0  0  0  0
  3 27  2  0  0  0  0
  4 26  2  0  0  0  0
  5 28  2  0  0  0  0
  6 16  1  0  0  0  0
  6 22  1  0  0  0  0
  6 23  1  0  0  0  0
  7 19  1  0  0  0  0
  7 26  1  0  0  0  0
  7 47  1  0  0  0  0
  8 23  2  0  0  0  0
  8 24  1  0  0  0  0
  9 22  1  0  0  0  0
  9 29  2  0  0  0  0
 10 28  1  0  0  0  0
 10 29  1  0  0  0  0
 10 50  1  0  0  0  0
 11 25  1  0  0  0  0
 11 30  2  0  0  0  0
 12 30  1  0  0  0  0
 12 55  1  0  0  0  0
 12 56  1  0  0  0  0
 13 30  1  0  0  0  0
 13 53  1  0  0  0  0
 13 54  1  0  0  0  0
 14 15  1  0  0  0  0
 14 16  1  0  0  0  0
 14 31  1  0  0  0  0
 14 32  1  0  0  0  0
 15 17  1  0  0  0  0
 15 33  1  0  0  0  0
 15 34  1  0  0  0  0
 16 35  1  0  0  0  0
 16 36  1  0  0  0  0
 17 20  1  0  0  0  0
 17 37  1  0  0  0  0
 17 38  1  0  0  0  0
 18 19  1  0  0  0  0
 18 21  1  0  0  0  0
 18 39  1  0  0  0  0
 18 40  1  0  0  0  0
 19 27  1  0  0  0  0
 19 41  1  0  0  0  0
 20 42  1  0  0  0  0
 20 43  1  0  0  0  0
 21 25  1  0  0  0  0
 21 44  1  0  0  0  0
 21 45  1  0  0  0  0
 22 24  2  0  0  0  0
 23 46  1  0  0  0  0
 24 28  1  0  0  0  0
 25 48  1  0  0  0  0
 25 49  1  0  0  0  0
 29 51  1  0  0  0  0
M  END
> <PUBCHEM_COMPOUND_CID>
135413509

> <PUBCHEM_CONFORMER_RMSD>
1.4

> <PUBCHEM_CONFORMER_DIVERSEORDER>
1
135
60
86
48
87
25
73
97
15
68
131
93
136
148
102
156
119
85
115
138
37
150
125
12
155
29
91
62
144
41
134
9
132
142
103
18
28
141
154
88
100
6
124
95
51
64
127
117
114
151
94
121
106
84
7
17
130
120
123
33
26
110
34
149
111
44
47
82
75
78
72
3
104
143
147
128
122
22
35
116
8
98
90
133
113
99
137
112
81
49
42
92
50
61
59
13
5
65
10
36
58
129
96
140
39
157
153
89
74
69
27
146
107
53
139
108
80
24
55
40
31
20
19
70
126
14
109
2
67
152
21
145
45
83
79
101
63
16
43
71
57
77
52
46
118
54
32
76
38
105
23
56
11
4
30
66

> <PUBCHEM_MMFF94_PARTIAL_CHARGES>
34
1 -0.43
10 -0.49
11 -0.7
12 -0.85
13 -0.85
16 0.26
19 0.36
2 -0.65
20 0.28
22 -0.03
23 0.04
24 0.14
25 0.25
26 0.78
27 0.66
28 0.72
29 0.45
3 -0.57
30 0.55
4 -0.57
46 0.15
47 0.37
5 -0.57
50 0.37
51 0.06
52 0.5
53 0.4
54 0.4
55 0.4
56 0.4
6 0.05
7 -0.73
8 -0.57
9 -0.58

> <PUBCHEM_EFFECTIVE_ROTOR_COUNT>
14

> <PUBCHEM_PHARMACOPHORE_FEATURES>
13
1 10 donor
1 12 donor
1 13 donor
1 2 acceptor
1 3 acceptor
1 4 acceptor
1 5 acceptor
1 7 donor
3 2 3 27 anion
3 6 8 23 cation
4 11 12 13 30 cation
5 6 8 22 23 24 rings
6 9 10 22 24 28 29 rings

> <PUBCHEM_HEAVY_ATOM_COUNT>
30

> <PUBCHEM_ATOM_DEF_STEREO_COUNT>
1

> <PUBCHEM_ATOM_UDEF_STEREO_COUNT>
0

> <PUBCHEM_BOND_DEF_STEREO_COUNT>
0

> <PUBCHEM_BOND_UDEF_STEREO_COUNT>
0

> <PUBCHEM_ISOTOPIC_ATOM_COUNT>
0

> <PUBCHEM_COMPONENT_COUNT>
1

> <PUBCHEM_CACTVS_TAUTO_COUNT>
-1

> <PUBCHEM_CONFORMER_ID>
08123F0500000001

> <PUBCHEM_MMFF94_ENERGY>
47.8474

> <PUBCHEM_FEATURE_SELFOVERLAP>
66.227

> <PUBCHEM_SHAPE_FINGERPRINT>
11513181 2 16181593779740118860
12553582 1 18051686642816382856
13122387 1 18338509858584674480
14251757 5 18265917820824058094
14279260 333 17832715574083604630
19311894 1 18125720093319285398
19930381 70 17978789331063381601
20764821 26 18265046929777908016
21315764 21 16669915983116977812
463206 1 18266737072476283217

> <PUBCHEM_SHAPE_MULTIPOLES>
548.19
8.61
7.33
1.73
7.24
1.14
0.54
1.06
2.46
-1.68
-3.1
-0.49
0.35
1.16

> <PUBCHEM_SHAPE_SELFOVERLAP>
1125.453

> <PUBCHEM_SHAPE_VOLUME>
310.3

> <PUBCHEM_COORDINATE_TYPE>
2
5
10

$$$$
