135407854
  -OEChem-03292013293D

 37 39  0     1  0  0  0  0  0999 V2000
    4.4977    1.6104    0.0549 P   0  0  0  0  0  0  0  0  0  0  0  0
    1.0523   -0.7729    1.0825 O   0  0  0  0  0  0  0  0  0  0  0  0
   -0.7555   -2.8368   -1.2524 O   0  0  0  0  0  0  0  0  0  0  0  0
    1.2661   -3.7158    0.3949 O   0  0  0  0  0  0  0  0  0  0  0  0
    3.5373    0.4387    0.6261 O   0  0  0  0  0  0  0  0  0  0  0  0
   -4.7806    2.6474   -0.3736 O   0  0  0  0  0  0  0  0  0  0  0  0
    5.6419    0.7861   -0.7365 O   0  0  0  0  0  0  0  0  0  0  0  0
    3.6269    2.2741   -1.1353 O   0  0  0  0  0  0  0  0  0  0  0  0
    5.0088    2.5710    1.0885 O   0  0  0  0  0  0  0  0  0  0  0  0
   -1.0825    0.0112    0.1962 N   0  0  0  0  0  0  0  0  0  0  0  0
   -3.1960   -1.1025    0.4524 N   0  0  0  0  0  0  0  0  0  0  0  0
   -5.0470    0.3891    0.1294 N   0  0  0  0  0  0  0  0  0  0  0  0
    0.2181   -1.9080   -0.8194 C   0  0  1  0  0  0  0  0  0  0  0  0
   -0.1836   -1.1744    0.4561 C   0  0  1  0  0  0  0  0  0  0  0  0
    1.5210   -2.5639   -0.4077 C   0  0  1  0  0  0  0  0  0  0  0  0
    2.1485   -1.4996    0.4836 C   0  0  1  0  0  0  0  0  0  0  0  0
    3.0125   -0.5100   -0.2859 C   0  0  0  0  0  0  0  0  0  0  0  0
   -2.4500    0.0028    0.2039 C   0  0  0  0  0  0  0  0  0  0  0  0
   -0.6401    1.2811   -0.0873 C   0  0  0  0  0  0  0  0  0  0  0  0
   -2.8815    1.2841   -0.0788 C   0  0  0  0  0  0  0  0  0  0  0  0
   -1.7410    2.0949   -0.2635 C   0  0  0  0  0  0  0  0  0  0  0  0
   -4.3028    1.5454   -0.1302 C   0  0  0  0  0  0  0  0  0  0  0  0
   -4.4706   -0.8523    0.4021 C   0  0  0  0  0  0  0  0  0  0  0  0
    0.3968   -1.1939   -1.6326 H   0  0  0  0  0  0  0  0  0  0  0  0
   -0.7314   -1.8137    1.1585 H   0  0  0  0  0  0  0  0  0  0  0  0
    2.1378   -2.8750   -1.2557 H   0  0  0  0  0  0  0  0  0  0  0  0
    2.7259   -1.9316    1.3089 H   0  0  0  0  0  0  0  0  0  0  0  0
    2.4210    0.0207   -1.0381 H   0  0  0  0  0  0  0  0  0  0  0  0
    3.8344   -1.0350   -0.7824 H   0  0  0  0  0  0  0  0  0  0  0  0
    0.4160    1.5069   -0.1458 H   0  0  0  0  0  0  0  0  0  0  0  0
   -0.3748   -3.3317   -1.9977 H   0  0  0  0  0  0  0  0  0  0  0  0
    2.1272   -4.0795    0.6632 H   0  0  0  0  0  0  0  0  0  0  0  0
   -1.7131    3.1496   -0.4986 H   0  0  0  0  0  0  0  0  0  0  0  0
   -5.2189   -1.6401    0.5799 H   0  0  0  0  0  0  0  0  0  0  0  0
   -6.0603    0.4607    0.1177 H   0  0  0  0  0  0  0  0  0  0  0  0
    3.9783    3.0655   -1.5959 H   0  0  0  0  0  0  0  0  0  0  0  0
    6.4091    1.2739   -1.1050 H   0  0  0  0  0  0  0  0  0  0  0  0
  1  5  1  0  0  0  0
  1  7  1  0  0  0  0
  1  8  1  0  0  0  0
  1  9  2  0  0  0  0
  2 14  1  0  0  0  0
  2 16  1  0  0  0  0
  3 13  1  0  0  0  0
  3 31  1  0  0  0  0
  4 15  1  0  0  0  0
  4 32  1  0  0  0  0
  5 17  1  0  0  0  0
  6 22  2  0  0  0  0
  7 37  1  0  0  0  0
  8 36  1  0  0  0  0
 10 14  1  0  0  0  0
 10 18  1  0  0  0  0
 10 19  1  0  0  0  0
 11 18  1  0  0  0  0
 11 23  2  0  0  0  0
 12 22  1  0  0  0  0
 12 23  1  0  0  0  0
 12 35  1  0  0  0  0
 13 14  1  0  0  0  0
 13 15  1  0  0  0  0
 13 24  1  0  0  0  0
 14 25  1  0  0  0  0
 15 16  1  0  0  0  0
 15 26  1  0  0  0  0
 16 17  1  0  0  0  0
 16 27  1  0  0  0  0
 17 28  1  0  0  0  0
 17 29  1  0  0  0  0
 18 20  2  0  0  0  0
 19 21  2  0  0  0  0
 19 30  1  0  0  0  0
 20 21  1  0  0  0  0
 20 22  1  0  0  0  0
 21 33  1  0  0  0  0
 23 34  1  0  0  0  0
M  END
> <PUBCHEM_COMPOUND_CID>
135407854

> <PUBCHEM_CONFORMER_RMSD>
0.8

> <PUBCHEM_CONFORMER_DIVERSEORDER>
1
39
51
17
22
48
43
8
46
6
37
16
41
56
36
29
54
12
52
24
35
5
55
2
30
47
20
25
7
3
15
44
4
45
11
32
28
27
58
42
14
26
53
10
23
9
33
40
49
21
57
13
38
31
18
34
19
50

> <PUBCHEM_MMFF94_PARTIAL_CHARGES>
31
1 1.51
10 0.05
11 -0.58
12 -0.49
13 0.28
14 0.54
15 0.28
16 0.28
17 0.28
18 -0.03
19 -0.3
2 -0.56
20 -0.09
21 -0.15
22 0.72
23 0.45
3 -0.68
30 0.15
31 0.4
32 0.4
33 0.15
34 0.06
35 0.37
36 0.5
37 0.5
4 -0.68
5 -0.55
6 -0.57
7 -0.77
8 -0.77
9 -0.7

> <PUBCHEM_EFFECTIVE_ROTOR_COUNT>
5

> <PUBCHEM_PHARMACOPHORE_FEATURES>
15
1 10 cation
1 12 donor
1 2 acceptor
1 3 acceptor
1 3 donor
1 4 acceptor
1 4 donor
1 6 acceptor
1 7 acceptor
1 8 acceptor
1 9 acceptor
4 1 7 8 9 anion
5 10 18 19 20 21 rings
5 2 13 14 15 16 rings
6 11 12 18 20 22 23 rings

> <PUBCHEM_HEAVY_ATOM_COUNT>
23

> <PUBCHEM_ATOM_DEF_STEREO_COUNT>
4

> <PUBCHEM_ATOM_UDEF_STEREO_COUNT>
0

> <PUBCHEM_BOND_DEF_STEREO_COUNT>
0

> <PUBCHEM_BOND_UDEF_STEREO_COUNT>
0

> <PUBCHEM_ISOTOPIC_ATOM_COUNT>
0

> <PUBCHEM_COMPONENT_COUNT>
1

> <PUBCHEM_CACTVS_TAUTO_COUNT>
-1

> <PUBCHEM_CONFORMER_ID>
081228EE00000001

> <PUBCHEM_MMFF94_ENERGY>
17.5289

> <PUBCHEM_FEATURE_SELFOVERLAP>
76.293

> <PUBCHEM_SHAPE_FINGERPRINT>
10090160 65 18260824925433804703
10498660 4 18411984641548663936
10871710 139 18196647625684634967
10906281 52 18336560360871922993
11578080 2 16516790465034225287
11796584 16 10735887140030610560
12403259 118 18335405855696931712
12788726 201 17248941273995136490
13583140 156 17242708928044482514
14341114 328 17313100882399396720
14528608 73 18413385427983877925
1454969 45 18340486794099153575
14787075 74 18271804678776960331
14790565 3 18339928211436648593
15196674 1 18408886213343932761
15375358 24 18266175033667429307
19591789 44 18123189262602014337
19784866 170 18408326583663884483
21524375 3 18412267250855631234
22113638 7 18263081187977545516
22620623 9 16915653902899551846
23227448 37 18127126596671954916
23559900 14 18122620548771125619
2838139 119 18412819209903307108
34934 24 18408600332384735167
350125 39 18337108969729316546
474 4 18113343015747798980
5104073 3 18189058607941456569
6442390 28 18411136974197863346
67856867 119 18263637386015114794
7288768 16 16446726556693936624
7808743 9 18194679504835919496
9709674 26 17981325582746609671
9981440 41 18333452070700347874

> <PUBCHEM_SHAPE_MULTIPOLES>
415.28
10.58
3.5
0.89
2.16
1.32
0.05
-8.65
-0.22
1.63
0.41
0.5
0.07
0.39

> <PUBCHEM_SHAPE_SELFOVERLAP>
878.813

> <PUBCHEM_SHAPE_VOLUME>
234.6

> <PUBCHEM_COORDINATE_TYPE>
2
5
10

$$$$
