135402036
  -OEChem-03292013293D

 36 38  0     1  0  0  0  0  0999 V2000
   -5.1445   -1.3730    0.3113 P   0  0  0  0  0  0  0  0  0  0  0  0
   -1.0068   -0.0758    0.1404 O   0  0  0  0  0  0  0  0  0  0  0  0
    0.6912    3.0547    0.2991 O   0  0  0  0  0  0  0  0  0  0  0  0
   -1.9381    3.0546   -1.3408 O   0  0  0  0  0  0  0  0  0  0  0  0
   -3.7043   -0.8451   -0.2048 O   0  0  0  0  0  0  0  0  0  0  0  0
   -5.1202   -1.0048    1.8857 O   0  0  0  0  0  0  0  0  0  0  0  0
   -6.1891   -0.3032   -0.3048 O   0  0  0  0  0  0  0  0  0  0  0  0
    5.4957   -1.8968   -0.8361 O   0  0  0  0  0  0  0  0  0  0  0  0
   -5.4412   -2.8112    0.0012 O   0  0  0  0  0  0  0  0  0  0  0  0
    1.4037   -0.0939   -0.1575 N   0  0  0  0  0  0  0  0  0  0  0  0
    2.6094   -1.4955   -1.4175 N   0  0  0  0  0  0  0  0  0  0  0  0
    3.0967    0.6659    1.4018 N   0  0  0  0  0  0  0  0  0  0  0  0
    5.2078   -0.3785    0.9139 N   0  0  0  0  0  0  0  0  0  0  0  0
    0.0155    2.0111   -0.3810 C   0  0  2  0  0  0  0  0  0  0  0  0
   -1.4856    2.1889   -0.3174 C   0  0  2  0  0  0  0  0  0  0  0  0
    0.2060    0.6796    0.3394 C   0  0  1  0  0  0  0  0  0  0  0  0
   -1.9667    0.7633   -0.5231 C   0  0  2  0  0  0  0  0  0  0  0  0
   -3.3486    0.5041    0.0495 C   0  0  0  0  0  0  0  0  0  0  0  0
    2.6700   -0.0671    0.3476 C   0  0  0  0  0  0  0  0  0  0  0  0
    1.4175   -0.9676   -1.2176 C   0  0  0  0  0  0  0  0  0  0  0  0
    3.3847   -0.9354   -0.4454 C   0  0  0  0  0  0  0  0  0  0  0  0
    4.7849   -1.1458   -0.1801 C   0  0  0  0  0  0  0  0  0  0  0  0
    4.3623    0.4715    1.6362 C   0  0  0  0  0  0  0  0  0  0  0  0
    0.3802    1.9876   -1.4143 H   0  0  0  0  0  0  0  0  0  0  0  0
   -1.7986    2.6004    0.6490 H   0  0  0  0  0  0  0  0  0  0  0  0
    0.3596    0.7912    1.4192 H   0  0  0  0  0  0  0  0  0  0  0  0
   -1.9571    0.4837   -1.5845 H   0  0  0  0  0  0  0  0  0  0  0  0
   -4.0829    1.1712   -0.4123 H   0  0  0  0  0  0  0  0  0  0  0  0
   -3.3448    0.6662    1.1323 H   0  0  0  0  0  0  0  0  0  0  0  0
    0.3700    3.0812    1.2164 H   0  0  0  0  0  0  0  0  0  0  0  0
   -1.6701    2.6828   -2.1982 H   0  0  0  0  0  0  0  0  0  0  0  0
    0.5351   -1.1757   -1.8073 H   0  0  0  0  0  0  0  0  0  0  0  0
    4.8808    0.9874    2.4592 H   0  0  0  0  0  0  0  0  0  0  0  0
    6.1818   -0.4448    1.1952 H   0  0  0  0  0  0  0  0  0  0  0  0
   -7.1505   -0.4533   -0.1809 H   0  0  0  0  0  0  0  0  0  0  0  0
   -5.8581   -1.3093    2.4557 H   0  0  0  0  0  0  0  0  0  0  0  0
  1  5  1  0  0  0  0
  1  6  1  0  0  0  0
  1  7  1  0  0  0  0
  1  9  2  0  0  0  0
  2 16  1  0  0  0  0
  2 17  1  0  0  0  0
  3 14  1  0  0  0  0
  3 30  1  0  0  0  0
  4 15  1  0  0  0  0
  4 31  1  0  0  0  0
  5 18  1  0  0  0  0
  6 36  1  0  0  0  0
  7 35  1  0  0  0  0
  8 22  2  0  0  0  0
 10 16  1  0  0  0  0
 10 19  1  0  0  0  0
 10 20  1  0  0  0  0
 11 20  2  0  0  0  0
 11 21  1  0  0  0  0
 12 19  1  0  0  0  0
 12 23  2  0  0  0  0
 13 22  1  0  0  0  0
 13 23  1  0  0  0  0
 13 34  1  0  0  0  0
 14 15  1  0  0  0  0
 14 16  1  0  0  0  0
 14 24  1  0  0  0  0
 15 17  1  0  0  0  0
 15 25  1  0  0  0  0
 16 26  1  0  0  0  0
 17 18  1  0  0  0  0
 17 27  1  0  0  0  0
 18 28  1  0  0  0  0
 18 29  1  0  0  0  0
 19 21  2  0  0  0  0
 20 32  1  0  0  0  0
 21 22  1  0  0  0  0
 23 33  1  0  0  0  0
M  END
> <PUBCHEM_COMPOUND_CID>
135402036

> <PUBCHEM_CONFORMER_RMSD>
0.8

> <PUBCHEM_CONFORMER_DIVERSEORDER>
1
313
87
169
235
228
231
80
112
182
141
70
240
238
185
126
247
246
15
46
96
179
171
210
148
306
103
266
27
106
293
37
42
305
287
108
190
263
59
280
250
312
295
110
43
286
309
135
268
100
9
105
261
133
242
98
131
123
76
303
258
107
167
4
160
122
17
68
300
137
153
259
113
236
310
217
203
307
168
302
150
10
2
12
52
281
95
77
173
271
7
278
82
119
147
56
78
58
188
201
256
166
117
14
53
47
296
225
85
226
62
277
40
118
26
212
183
6
79
297
209
73
34
18
114
272
276
164
36
180
253
151
24
144
216
21
204
49
146
89
197
265
205
308
154
130
13
161
275
60
65
251
186
5
44
176
88
218
120
121
92
91
41
199
220
294
8
84
152
311
245
11
38
125
142
248
172
232
143
129
69
81
244
54
22
252
101
16
140
224
237
184
63
257
239
30
227
249
243
193
219
285
177
264
128
170
29
127
45
111
262
83
304
233
50
214
116
138
208
139
213
74
260
71
104
192
35
99
187
57
241
162
3
175
20
25
19
301
234
222
200
223
115
124
254
211
94
132
102
279
274
51
159
221
291
158
174
75
23
273
207
195
283
270
157
191
48
86
66
230
31
149
255
269
67
39
181
189
136
202
196
145
298
292
97
61
284
215
156
165
33
229
163
288
206
267
282
32
64
72
28
155
290
194
198
90
299
289
134
55
109
178
93

> <PUBCHEM_MMFF94_PARTIAL_CHARGES>
30
1 1.51
10 0.05
11 -0.57
12 -0.58
13 -0.49
14 0.28
15 0.28
16 0.54
17 0.28
18 0.28
19 -0.03
2 -0.56
20 0.04
21 0.14
22 0.72
23 0.45
3 -0.68
30 0.4
31 0.4
32 0.15
33 0.06
34 0.37
35 0.5
36 0.5
4 -0.68
5 -0.55
6 -0.77
7 -0.77
8 -0.57
9 -0.7

> <PUBCHEM_EFFECTIVE_ROTOR_COUNT>
5

> <PUBCHEM_PHARMACOPHORE_FEATURES>
15
1 13 donor
1 2 acceptor
1 3 acceptor
1 3 donor
1 4 acceptor
1 4 donor
1 6 acceptor
1 7 acceptor
1 8 acceptor
1 9 acceptor
3 10 11 20 cation
4 1 6 7 9 anion
5 10 11 19 20 21 rings
5 2 14 15 16 17 rings
6 12 13 19 21 22 23 rings

> <PUBCHEM_HEAVY_ATOM_COUNT>
23

> <PUBCHEM_ATOM_DEF_STEREO_COUNT>
0

> <PUBCHEM_ATOM_UDEF_STEREO_COUNT>
4

> <PUBCHEM_BOND_DEF_STEREO_COUNT>
0

> <PUBCHEM_BOND_UDEF_STEREO_COUNT>
0

> <PUBCHEM_ISOTOPIC_ATOM_COUNT>
0

> <PUBCHEM_COMPONENT_COUNT>
1

> <PUBCHEM_CACTVS_TAUTO_COUNT>
-1

> <PUBCHEM_CONFORMER_ID>
0812123400000001

> <PUBCHEM_MMFF94_ENERGY>
17.4962

> <PUBCHEM_FEATURE_SELFOVERLAP>
76.302

> <PUBCHEM_SHAPE_FINGERPRINT>
11796584 16 17168142351793765483
12236239 1 16805603634035984258
12363563 72 18187936100916202857
12403259 415 18131341978572093584
12616971 3 15769766936690885806
12892183 10 17203337706240183795
13544653 18 18131069346642829993
13740256 8 18409169939305480199
14252887 29 18272373070195391955
14790565 3 17257651651790950796
15099037 37 18410004403774144021
15183329 4 14490465383665328147
17138139 8 16878504669135125419
17349148 13 17168148909876276402
1813 80 18333734645510354693
18222031 100 18408887355815692009
19141452 34 18131066069809877191
193927 3 18260272975218364513
200 152 15430040928587722741
20028762 73 18200592635183627423
20374829 77 18260265266000091711
21065201 7 18189890912405248168
21521239 73 12685089315343766673
21728266 224 17822560612862205408
22182313 1 18201433610779416132
23402539 116 18186799145373208759
23557571 272 18339080363322344100
23559900 14 18050843322140654366
2838139 119 8142094134657532747
3004659 81 17748829635225934663
314173 85 18408889538292217633
465052 167 18272934916959734526
5104073 3 18058159541083686082
59682541 52 13479397384410948283
7495541 125 18343865490135575250

> <PUBCHEM_SHAPE_MULTIPOLES>
410.3
13.02
2.61
1.24
7.41
1.37
-0.27
-10.07
-2.83
1.86
0.67
-0.55
-0.04
1.84

> <PUBCHEM_SHAPE_SELFOVERLAP>
866.958

> <PUBCHEM_SHAPE_VOLUME>
232.5

> <PUBCHEM_COORDINATE_TYPE>
2
5
10

$$$$
