135434162
  -OEChem-03292013293D

 36 37  0     1  0  0  0  0  0999 V2000
    2.7731    2.0115   -0.2976 P   0  0  0  0  0  0  0  0  0  0  0  0
    1.0543   -1.5888    0.1901 O   0  0  0  0  0  0  0  0  0  0  0  0
    2.8746    0.5251    0.3279 O   0  0  0  0  0  0  0  0  0  0  0  0
    2.7466   -3.5609    1.6380 O   0  0  0  0  0  0  0  0  0  0  0  0
   -5.0345    0.3713    0.3952 O   0  0  0  0  0  0  0  0  0  0  0  0
    1.6351    1.8730   -1.4383 O   0  0  0  0  0  0  0  0  0  0  0  0
    4.1416    2.1326   -1.1504 O   0  0  0  0  0  0  0  0  0  0  0  0
    2.5497    3.1087    0.7017 O   0  0  0  0  0  0  0  0  0  0  0  0
   -1.0560   -1.4222   -0.7754 N   0  0  0  0  0  0  0  0  0  0  0  0
   -3.2642   -1.7618   -0.6727 N   0  0  0  0  0  0  0  0  0  0  0  0
   -0.9091    0.8191    0.1266 N   0  0  0  0  0  0  0  0  0  0  0  0
   -3.0903    1.6293    0.6974 N   0  0  0  0  0  0  0  0  0  0  0  0
   -1.1833    2.9677    1.0371 N   0  0  0  0  0  0  0  0  0  0  0  0
    2.4433   -1.8277    0.0075 C   0  0  1  0  0  0  0  0  0  0  0  0
    0.3376   -1.6896   -1.0370 C   0  0  0  0  0  0  0  0  0  0  0  0
    3.0862   -0.5674   -0.5604 C   0  0  0  0  0  0  0  0  0  0  0  0
   -1.5929   -0.2839   -0.2503 C   0  0  0  0  0  0  0  0  0  0  0  0
    3.0388   -2.1955    1.3602 C   0  0  0  0  0  0  0  0  0  0  0  0
   -2.9449   -0.5231   -0.2003 C   0  0  0  0  0  0  0  0  0  0  0  0
   -2.1010   -2.2816   -1.0129 C   0  0  0  0  0  0  0  0  0  0  0  0
   -3.8191    0.4951    0.3127 C   0  0  0  0  0  0  0  0  0  0  0  0
   -1.6856    1.7691    0.6008 C   0  0  0  0  0  0  0  0  0  0  0  0
    2.5906   -2.6666   -0.6852 H   0  0  0  0  0  0  0  0  0  0  0  0
    0.4271   -2.7001   -1.4500 H   0  0  0  0  0  0  0  0  0  0  0  0
    0.6670   -0.9520   -1.7740 H   0  0  0  0  0  0  0  0  0  0  0  0
    2.6936   -0.3350   -1.5532 H   0  0  0  0  0  0  0  0  0  0  0  0
    4.1671   -0.7096   -0.6673 H   0  0  0  0  0  0  0  0  0  0  0  0
    2.6183   -1.5875    2.1680 H   0  0  0  0  0  0  0  0  0  0  0  0
    4.1285   -2.0916    1.3541 H   0  0  0  0  0  0  0  0  0  0  0  0
   -1.9544   -3.2676   -1.4326 H   0  0  0  0  0  0  0  0  0  0  0  0
   -3.6135    2.4136    1.0760 H   0  0  0  0  0  0  0  0  0  0  0  0
    3.1406   -3.7665    2.5030 H   0  0  0  0  0  0  0  0  0  0  0  0
   -0.1883    3.1617    1.0067 H   0  0  0  0  0  0  0  0  0  0  0  0
   -1.7897    3.6944    1.4012 H   0  0  0  0  0  0  0  0  0  0  0  0
    1.3468    2.6764   -1.9214 H   0  0  0  0  0  0  0  0  0  0  0  0
    4.3685    2.9926   -1.5639 H   0  0  0  0  0  0  0  0  0  0  0  0
  1  3  1  0  0  0  0
  1  6  1  0  0  0  0
  1  7  1  0  0  0  0
  1  8  2  0  0  0  0
  2 14  1  0  0  0  0
  2 15  1  0  0  0  0
  3 16  1  0  0  0  0
  4 18  1  0  0  0  0
  4 32  1  0  0  0  0
  5 21  2  0  0  0  0
  6 35  1  0  0  0  0
  7 36  1  0  0  0  0
  9 15  1  0  0  0  0
  9 17  1  0  0  0  0
  9 20  1  0  0  0  0
 10 19  1  0  0  0  0
 10 20  2  0  0  0  0
 11 17  1  0  0  0  0
 11 22  2  0  0  0  0
 12 21  1  0  0  0  0
 12 22  1  0  0  0  0
 12 31  1  0  0  0  0
 13 22  1  0  0  0  0
 13 33  1  0  0  0  0
 13 34  1  0  0  0  0
 14 16  1  0  0  0  0
 14 18  1  0  0  0  0
 14 23  1  0  0  0  0
 15 24  1  0  0  0  0
 15 25  1  0  0  0  0
 16 26  1  0  0  0  0
 16 27  1  0  0  0  0
 17 19  2  0  0  0  0
 18 28  1  0  0  0  0
 18 29  1  0  0  0  0
 19 21  1  0  0  0  0
 20 30  1  0  0  0  0
M  END
> <PUBCHEM_COMPOUND_CID>
135434162

> <PUBCHEM_CONFORMER_RMSD>
0.8

> <PUBCHEM_CONFORMER_DIVERSEORDER>
1
121
21
120
143
104
15
108
103
53
48
100
95
20
180
94
192
146
74
77
173
70
25
126
98
170
157
43
40
61
188
193
16
148
136
30
31
154
202
164
88
168
187
57
177
65
68
83
42
141
194
24
147
82
191
165
156
174
152
149
200
85
46
118
195
34
36
178
190
67
127
93
52
60
92
138
112
37
106
144
55
135
161
203
122
99
181
41
198
66
28
97
22
49
115
73
75
4
64
119
186
86
159
50
58
72
80
172
79
169
6
183
32
123
128
125
91
9
176
39
133
38
196
78
124
59
151
96
158
69
84
44
131
162
81
110
35
155
54
129
18
17
62
171
132
101
29
51
201
27
150
130
47
33
116
56
76
71
102
184
167
45
199
7
63
107
8
3
166
13
23
111
26
113
10
153
140
182
5
185
117
87
160
139
90
137
145
19
14
109
105
179
12
197
134
2
114
175
142
189
163
11
89

> <PUBCHEM_MMFF94_PARTIAL_CHARGES>
29
1 1.51
10 -0.57
11 -0.58
12 -0.49
13 -0.85
14 0.28
15 0.54
16 0.28
17 -0.03
18 0.28
19 0.14
2 -0.56
20 0.04
21 0.72
22 0.56
3 -0.55
30 0.15
31 0.37
32 0.4
33 0.4
34 0.4
35 0.5
36 0.5
4 -0.68
5 -0.57
6 -0.77
7 -0.77
8 -0.7
9 0.05

> <PUBCHEM_EFFECTIVE_ROTOR_COUNT>
7

> <PUBCHEM_PHARMACOPHORE_FEATURES>
13
1 12 donor
1 13 donor
1 2 acceptor
1 4 acceptor
1 4 donor
1 5 acceptor
1 6 acceptor
1 7 acceptor
1 8 acceptor
3 9 10 20 cation
4 1 6 7 8 anion
5 9 10 17 19 20 rings
6 11 12 17 19 21 22 rings

> <PUBCHEM_HEAVY_ATOM_COUNT>
22

> <PUBCHEM_ATOM_DEF_STEREO_COUNT>
0

> <PUBCHEM_ATOM_UDEF_STEREO_COUNT>
1

> <PUBCHEM_BOND_DEF_STEREO_COUNT>
0

> <PUBCHEM_BOND_UDEF_STEREO_COUNT>
0

> <PUBCHEM_ISOTOPIC_ATOM_COUNT>
0

> <PUBCHEM_COMPONENT_COUNT>
1

> <PUBCHEM_CACTVS_TAUTO_COUNT>
-1

> <PUBCHEM_CONFORMER_ID>
08128FB200000001

> <PUBCHEM_MMFF94_ENERGY>
10.0855

> <PUBCHEM_FEATURE_SELFOVERLAP>
66.188

> <PUBCHEM_SHAPE_FINGERPRINT>
10382601 240 18113897182888589468
10498660 4 18272092759107534245
10759866 29 18408610257642849020
11578080 2 17677039149219414829
12788726 201 17703243840273591425
13140716 1 18413106173758700635
13583140 156 17895196528916228563
13965767 371 16830378667198254786
14787075 74 17686339080597753759
14790565 3 18129675110560659961
17980427 23 17843936248678099046
192875 21 18125418840154449583
20715895 44 17906447732830678213
2255824 54 18333450928766638426
23557571 272 16199856379771979038
23559900 14 17988086564985761167
4409770 3 16817976198007681998
44154327 71 18342463642410844653
474 4 18042127720472812812
7064713 232 17771343067744019073
7097593 13 18264759961638719938
90316 7 17613710419397218282
9981440 41 18047183331178097034

> <PUBCHEM_SHAPE_MULTIPOLES>
390.61
7.62
3.83
1.19
2.41
0.43
-0.08
0.89
-0.62
-3.02
-0.88
-0.73
-0.34
-2.4

> <PUBCHEM_SHAPE_SELFOVERLAP>
805.799

> <PUBCHEM_SHAPE_VOLUME>
226.4

> <PUBCHEM_COORDINATE_TYPE>
2
5
10

$$$$
