135413558
  -OEChem-03292013293D

 28 29  0     1  0  0  0  0  0999 V2000
   -1.0481   -1.9226   -0.8027 S   0  0  0  0  0  0  0  0  0  0  0  0
   -4.4352    0.3892   -0.7792 O   0  0  0  0  0  0  0  0  0  0  0  0
   -2.5298    1.5984   -1.1005 O   0  0  0  0  0  0  0  0  0  0  0  0
    0.8267    2.0386    0.2402 O   0  0  0  0  0  0  0  0  0  0  0  0
    5.2352    0.2569   -0.0637 O   0  0  0  0  0  0  0  0  0  0  0  0
   -1.1543    0.2069    0.6847 N   0  0  0  0  0  0  0  0  0  0  0  0
   -2.5555   -0.2192    0.5034 C   0  0  1  0  0  0  0  0  0  0  0  0
   -2.6072   -1.6826    0.0729 C   0  0  0  0  0  0  0  0  0  0  0  0
   -3.3026   -0.0003    1.8166 C   0  0  0  0  0  0  0  0  0  0  0  0
   -0.3373   -0.5634    0.0403 C   0  0  0  0  0  0  0  0  0  0  0  0
   -3.1369    0.6973   -0.5411 C   0  0  0  0  0  0  0  0  0  0  0  0
    1.1269   -0.3308    0.0145 C   0  0  0  0  0  0  0  0  0  0  0  0
    1.6489    0.9589    0.1155 C   0  0  0  0  0  0  0  0  0  0  0  0
    1.9855   -1.4228   -0.1127 C   0  0  0  0  0  0  0  0  0  0  0  0
    3.0296    1.1563    0.0892 C   0  0  0  0  0  0  0  0  0  0  0  0
    3.3660   -1.2253   -0.1392 C   0  0  0  0  0  0  0  0  0  0  0  0
    3.8881    0.0644   -0.0382 C   0  0  0  0  0  0  0  0  0  0  0  0
   -2.6120   -2.3569    0.9358 H   0  0  0  0  0  0  0  0  0  0  0  0
   -3.4535   -1.9354   -0.5714 H   0  0  0  0  0  0  0  0  0  0  0  0
   -2.8199   -0.5414    2.6386 H   0  0  0  0  0  0  0  0  0  0  0  0
   -4.3421   -0.3413    1.7547 H   0  0  0  0  0  0  0  0  0  0  0  0
   -3.3185    1.0609    2.0922 H   0  0  0  0  0  0  0  0  0  0  0  0
    1.6220   -2.4443   -0.1715 H   0  0  0  0  0  0  0  0  0  0  0  0
    3.4380    2.1611    0.1679 H   0  0  0  0  0  0  0  0  0  0  0  0
    4.0304   -2.0800   -0.2337 H   0  0  0  0  0  0  0  0  0  0  0  0
   -4.8329    0.9763   -1.4570 H   0  0  0  0  0  0  0  0  0  0  0  0
    1.3668    2.8454    0.2967 H   0  0  0  0  0  0  0  0  0  0  0  0
    5.4197    1.2085    0.0173 H   0  0  0  0  0  0  0  0  0  0  0  0
  1  8  1  0  0  0  0
  1 10  1  0  0  0  0
  2 11  1  0  0  0  0
  2 26  1  0  0  0  0
  3 11  2  0  0  0  0
  4 13  1  0  0  0  0
  4 27  1  0  0  0  0
  5 17  1  0  0  0  0
  5 28  1  0  0  0  0
  6  7  1  0  0  0  0
  6 10  2  0  0  0  0
  7  8  1  0  0  0  0
  7  9  1  0  0  0  0
  7 11  1  0  0  0  0
  8 18  1  0  0  0  0
  8 19  1  0  0  0  0
  9 20  1  0  0  0  0
  9 21  1  0  0  0  0
  9 22  1  0  0  0  0
 10 12  1  0  0  0  0
 12 13  2  0  0  0  0
 12 14  1  0  0  0  0
 13 15  1  0  0  0  0
 14 16  2  0  0  0  0
 14 23  1  0  0  0  0
 15 17  2  0  0  0  0
 15 24  1  0  0  0  0
 16 17  1  0  0  0  0
 16 25  1  0  0  0  0
M  END
> <PUBCHEM_COMPOUND_CID>
135413558

> <PUBCHEM_CONFORMER_RMSD>
0.6

> <PUBCHEM_CONFORMER_DIVERSEORDER>
1
4
7
8
6
5
9
10
2
3

> <PUBCHEM_MMFF94_PARTIAL_CHARGES>
22
1 -0.37
10 0.5
11 0.66
12 0.09
13 0.08
14 -0.15
15 -0.15
16 -0.15
17 0.08
2 -0.65
23 0.15
24 0.15
25 0.15
26 0.5
27 0.45
28 0.45
3 -0.57
4 -0.53
5 -0.53
6 -0.7
7 0.31
8 0.23

> <PUBCHEM_EFFECTIVE_ROTOR_COUNT>
2.6

> <PUBCHEM_PHARMACOPHORE_FEATURES>
8
1 2 acceptor
1 3 acceptor
1 4 donor
1 5 donor
1 6 acceptor
3 2 3 11 anion
5 1 6 7 8 10 rings
6 12 13 14 15 16 17 rings

> <PUBCHEM_HEAVY_ATOM_COUNT>
17

> <PUBCHEM_ATOM_DEF_STEREO_COUNT>
1

> <PUBCHEM_ATOM_UDEF_STEREO_COUNT>
0

> <PUBCHEM_BOND_DEF_STEREO_COUNT>
0

> <PUBCHEM_BOND_UDEF_STEREO_COUNT>
0

> <PUBCHEM_ISOTOPIC_ATOM_COUNT>
0

> <PUBCHEM_COMPONENT_COUNT>
1

> <PUBCHEM_CACTVS_TAUTO_COUNT>
-1

> <PUBCHEM_CONFORMER_ID>
08123F3600000001

> <PUBCHEM_MMFF94_ENERGY>
45.6722

> <PUBCHEM_FEATURE_SELFOVERLAP>
40.661

> <PUBCHEM_SHAPE_FINGERPRINT>
10608611 8 18337105760771574492
10922523 26 18334295366138086628
10980938 120 18410857655342065058
11132069 177 18341608239871234874
11401426 45 18413102879750373480
11471102 20 18411980248208252006
11543360 7 14620505761937608602
12077114 3 18187078442964972095
12236239 1 17275105007485635289
12251169 10 18342189894191167019
124424 183 18260545610777878946
12500047 106 18260543437429819315
12932764 1 18334862722612110394
13214271 11 17676489462283277591
13296908 3 18333734598075660778
13571099 22 18342174445024887494
13583140 156 17894914031304700659
13675066 3 18259987089405179826
14004511 7 18202006533572830874
14144814 61 18272938219251268138
14289901 80 17458635544012516858
14993402 34 18130786754716133654
15196674 1 18340205293004011606
15219456 202 18334296444016596207
15309172 13 18343591737067249963
15653759 3 17749115491000488025
15775835 57 18409730668549877879
16945 1 18270970050429834274
17802600 8 18339074990407537535
17844478 74 18041007249420456313
18186145 218 18271535234008991914
18219364 16 18411144623470963371
200 152 17847055606194679471
20279233 1 18334297556408020002
20645477 56 18260828189846138221
20645477 70 18339357449132836326
21267235 1 18342468079165140214
2306618 200 18413673513305543497
23402539 116 16487259846249662200
23402655 69 18270672078731744245
23559900 14 17917713535453433066
2748010 2 18052544270327627110
34934 24 18411411809234008818
4028521 119 17822842101082754629
4175511 318 18410855464613195935
5104073 3 18341613767388968922
57005193 9 18343577434994894298
58051976 100 18341613775641331703
69090 78 18413101767042932375
74978 22 18130222765169565122

> <PUBCHEM_SHAPE_MULTIPOLES>
325.24
8.11
1.78
0.99
3.6
0.2
-0.21
-0.97
0.09
-0.08
0.32
-1.16
-0.1
0.28

> <PUBCHEM_SHAPE_SELFOVERLAP>
688.093

> <PUBCHEM_SHAPE_VOLUME>
184.1

> <PUBCHEM_COORDINATE_TYPE>
2
5
10

$$$$
