135433653
  -OEChem-03292013293D

 33 35  0     1  0  0  0  0  0999 V2000
   -1.2154   -0.2249    1.0373 O   0  0  0  0  0  0  0  0  0  0  0  0
   -1.4042   -2.9942    0.7415 O   0  0  0  0  0  0  0  0  0  0  0  0
    5.0319    0.8825   -0.2245 O   0  0  0  0  0  0  0  0  0  0  0  0
    0.5583    1.2701    0.2776 N   0  0  0  0  0  0  0  0  0  0  0  0
   -3.8950    1.0186    0.0021 N   0  0  0  0  0  0  0  0  0  0  0  0
    2.4980    2.3791    0.1802 N   0  0  0  0  0  0  0  0  0  0  0  0
    1.3320   -1.0044   -0.0177 N   0  0  0  0  0  0  0  0  0  0  0  0
    3.7143   -1.0450   -0.2695 N   0  0  0  0  0  0  0  0  0  0  0  0
   -5.0680    0.6427   -0.1561 N   0  3  0  0  0  0  0  0  0  0  0  0
    2.4645   -3.0395   -0.3273 N   0  0  0  0  0  0  0  0  0  0  0  0
   -6.1493    0.3068   -0.2947 N   0  5  0  0  0  0  0  0  0  0  0  0
   -0.9256    1.0377    0.4106 C   0  0  1  0  0  0  0  0  0  0  0  0
   -2.8693    0.1808   -0.6321 C   0  0  1  0  0  0  0  0  0  0  0  0
   -1.6528    1.0271   -0.9281 C   0  0  0  0  0  0  0  0  0  0  0  0
   -2.3479   -0.8291    0.3833 C   0  0  1  0  0  0  0  0  0  0  0  0
   -1.8796   -2.1234   -0.2696 C   0  0  0  0  0  0  0  0  0  0  0  0
    1.5266    0.3288    0.0878 C   0  0  0  0  0  0  0  0  0  0  0  0
    1.1920    2.4878    0.3266 C   0  0  0  0  0  0  0  0  0  0  0  0
    2.7015    1.0389    0.0326 C   0  0  0  0  0  0  0  0  0  0  0  0
    3.9386    0.3347   -0.1625 C   0  0  0  0  0  0  0  0  0  0  0  0
    2.4493   -1.6751   -0.1973 C   0  0  0  0  0  0  0  0  0  0  0  0
   -1.2927    1.8326    1.0709 H   0  0  0  0  0  0  0  0  0  0  0  0
   -3.2670   -0.2848   -1.5420 H   0  0  0  0  0  0  0  0  0  0  0  0
   -1.0400    0.5362   -1.6943 H   0  0  0  0  0  0  0  0  0  0  0  0
   -1.8826    2.0372   -1.2820 H   0  0  0  0  0  0  0  0  0  0  0  0
   -3.0822   -1.0638    1.1627 H   0  0  0  0  0  0  0  0  0  0  0  0
   -1.0642   -1.9476   -0.9773 H   0  0  0  0  0  0  0  0  0  0  0  0
   -2.7059   -2.6150   -0.7927 H   0  0  0  0  0  0  0  0  0  0  0  0
    0.6500    3.4126    0.4693 H   0  0  0  0  0  0  0  0  0  0  0  0
   -1.1100   -3.8102    0.3022 H   0  0  0  0  0  0  0  0  0  0  0  0
    4.5259   -1.6399   -0.4101 H   0  0  0  0  0  0  0  0  0  0  0  0
    1.6069   -3.5796   -0.2893 H   0  0  0  0  0  0  0  0  0  0  0  0
    3.3308   -3.5483   -0.4654 H   0  0  0  0  0  0  0  0  0  0  0  0
  1 12  1  0  0  0  0
  1 15  1  0  0  0  0
  2 16  1  0  0  0  0
  2 30  1  0  0  0  0
  3 20  2  0  0  0  0
  4 12  1  0  0  0  0
  4 17  1  0  0  0  0
  4 18  1  0  0  0  0
  5  9  2  0  0  0  0
  5 13  1  0  0  0  0
  6 18  2  0  0  0  0
  6 19  1  0  0  0  0
  7 17  1  0  0  0  0
  7 21  2  0  0  0  0
  8 20  1  0  0  0  0
  8 21  1  0  0  0  0
  8 31  1  0  0  0  0
  9 11  2  0  0  0  0
 10 21  1  0  0  0  0
 10 32  1  0  0  0  0
 10 33  1  0  0  0  0
 12 14  1  0  0  0  0
 12 22  1  0  0  0  0
 13 14  1  0  0  0  0
 13 15  1  0  0  0  0
 13 23  1  0  0  0  0
 14 24  1  0  0  0  0
 14 25  1  0  0  0  0
 15 16  1  0  0  0  0
 15 26  1  0  0  0  0
 16 27  1  0  0  0  0
 16 28  1  0  0  0  0
 17 19  2  0  0  0  0
 18 29  1  0  0  0  0
 19 20  1  0  0  0  0
M  CHG  2   9   1  11  -1
M  END
> <PUBCHEM_COMPOUND_CID>
135433653

> <PUBCHEM_CONFORMER_RMSD>
0.6

> <PUBCHEM_CONFORMER_DIVERSEORDER>
1
8
64
7
60
52
47
46
17
24
2
22
58
11
37
35
12
16
18
68
50
6
32
54
57
38
28
9
42
3
53
48
36
62
19
23
4
29
20
39
21
59
31
33
56
10
44
25
14
51
67
13
43
15
41
30
26
5
61
34
69
27
45
66
40
49
55
65
63

> <PUBCHEM_MMFF94_PARTIAL_CHARGES>
25
1 -0.56
10 -0.85
11 -0.37
12 0.54
13 0.25
15 0.28
16 0.28
17 -0.03
18 0.04
19 0.14
2 -0.68
20 0.72
21 0.56
29 0.15
3 -0.57
30 0.4
31 0.37
32 0.4
33 0.4
4 0.05
5 -0.56
6 -0.57
7 -0.58
8 -0.49
9 0.69

> <PUBCHEM_EFFECTIVE_ROTOR_COUNT>
4

> <PUBCHEM_PHARMACOPHORE_FEATURES>
10
1 1 acceptor
1 10 donor
1 2 acceptor
1 2 donor
1 3 acceptor
1 8 donor
3 4 6 18 cation
5 1 12 13 14 15 rings
5 4 6 17 18 19 rings
6 7 8 17 19 20 21 rings

> <PUBCHEM_HEAVY_ATOM_COUNT>
21

> <PUBCHEM_ATOM_DEF_STEREO_COUNT>
3

> <PUBCHEM_ATOM_UDEF_STEREO_COUNT>
0

> <PUBCHEM_BOND_DEF_STEREO_COUNT>
0

> <PUBCHEM_BOND_UDEF_STEREO_COUNT>
0

> <PUBCHEM_ISOTOPIC_ATOM_COUNT>
0

> <PUBCHEM_COMPONENT_COUNT>
1

> <PUBCHEM_CACTVS_TAUTO_COUNT>
-1

> <PUBCHEM_CONFORMER_ID>
08128DB500000001

> <PUBCHEM_MMFF94_ENERGY>
40.7043

> <PUBCHEM_FEATURE_SELFOVERLAP>
50.928

> <PUBCHEM_SHAPE_FINGERPRINT>
10616163 171 18339081621816320374
10967382 1 18411420570851163578
11471102 20 18411982455462901836
11578080 2 16915082170033220867
12011746 2 18341337721076534766
12236239 1 17489871522786078497
12500047 106 18336262435405610055
12553582 1 18340475695381161404
12633257 1 18335126609829430898
12788726 201 17703799063422305809
12969540 114 17895736462419427535
13140716 1 18267574887720551184
14115302 16 18261683643856868604
15099037 51 18410292506317733549
15196674 1 18411138069271956054
15375358 24 18411418414598103042
15635459 17 18341055120866073046
16945 1 18411989052817544224
18186145 218 18336532872738655533
19591789 44 18193274088140610485
19930381 70 18123188996351432967
200 152 17989486329287219257
20645477 56 18260827133273815733
20645477 70 18271808973612329414
21267235 1 18341620252768369142
21285901 2 18114741525586855829
221490 88 18193846061941464706
2334 1 17979638162793417864
23559900 14 18341888657885609936
2748010 2 18122907796378677616
2871803 45 18340210700505026460
3004659 81 18188492363727175238
335352 9 18410855469124285166
33824 294 18411417289538379938
34934 24 18411978074817767082
4072396 5 18337095814323480744
495365 180 17988066902519731505
5104073 3 18338232790191532865
57005193 9 18413103953033423978
59755656 215 18339086995632778238
69090 78 18408881845926474205
8272917 22 18343023267869584149
8809292 202 18335140942256668914
9709674 26 18339645636953409543

> <PUBCHEM_SHAPE_MULTIPOLES>
374.71
9.08
2.76
0.75
6.88
1.56
0
-1.49
-1.26
-1.36
0.2
0.22
0.02
0.49

> <PUBCHEM_SHAPE_SELFOVERLAP>
810.874

> <PUBCHEM_SHAPE_VOLUME>
203.1

> <PUBCHEM_COORDINATE_TYPE>
2
5
10

$$$$
