135429737
  -OEChem-03292013293D

 53 56  0     0  0  0  0  0  0999 V2000
   -3.5707   -2.6312   -0.8085 S   0  0  0  0  0  0  0  0  0  0  0  0
   -5.0773   -0.5033    2.5238 S   0  0  0  0  0  0  0  0  0  0  0  0
   -0.2797    3.2967    0.2885 O   0  0  0  0  0  0  0  0  0  0  0  0
   -4.7628   -3.0712   -1.4957 O   0  0  0  0  0  0  0  0  0  0  0  0
   -2.5786   -3.5073   -0.2295 O   0  0  0  0  0  0  0  0  0  0  0  0
    4.6536   -0.6969    0.3275 N   0  0  0  0  0  0  0  0  0  0  0  0
   -2.8425   -1.2688   -1.5953 N   0  0  0  0  0  0  0  0  0  0  0  0
   -2.5827    1.1233   -1.2167 N   0  0  0  0  0  0  0  0  0  0  0  0
    5.9149   -1.2944    0.7882 C   0  0  0  0  0  0  0  0  0  0  0  0
    4.2484   -1.2483   -0.9732 C   0  0  0  0  0  0  0  0  0  0  0  0
    4.0692   -2.7652   -0.8977 C   0  0  0  0  0  0  0  0  0  0  0  0
    5.7900   -2.8130    0.9213 C   0  0  0  0  0  0  0  0  0  0  0  0
    5.3326   -3.4484   -0.3867 C   0  0  0  0  0  0  0  0  0  0  0  0
    4.7750    0.7587    0.2507 C   0  0  0  0  0  0  0  0  0  0  0  0
    3.4297    1.4348    0.2606 C   0  0  0  0  0  0  0  0  0  0  0  0
    3.0540    2.2570   -0.8017 C   0  0  0  0  0  0  0  0  0  0  0  0
    2.5588    1.2383    1.3323 C   0  0  0  0  0  0  0  0  0  0  0  0
   -4.1412   -1.6869    0.5010 C   0  0  0  0  0  0  0  0  0  0  0  0
   -3.7674   -0.3279    0.3253 C   0  0  0  0  0  0  0  0  0  0  0  0
   -3.0118   -0.0350   -0.8768 C   0  0  0  0  0  0  0  0  0  0  0  0
    1.8076    2.8830   -0.7921 C   0  0  0  0  0  0  0  0  0  0  0  0
    1.3124    1.8643    1.3420 C   0  0  0  0  0  0  0  0  0  0  0  0
    0.9368    2.6866    0.2798 C   0  0  0  0  0  0  0  0  0  0  0  0
   -2.4021    3.5254   -0.8075 C   0  0  0  0  0  0  0  0  0  0  0  0
   -2.9139    2.1942   -0.2755 C   0  0  0  0  0  0  0  0  0  0  0  0
   -0.8879    3.5504   -0.9771 C   0  0  0  0  0  0  0  0  0  0  0  0
   -4.8507   -1.9626    1.6294 C   0  0  0  0  0  0  0  0  0  0  0  0
   -4.2138    0.4478    1.3636 C   0  0  0  0  0  0  0  0  0  0  0  0
    6.7359   -1.0500    0.1012 H   0  0  0  0  0  0  0  0  0  0  0  0
    3.2917   -0.8201   -1.2941 H   0  0  0  0  0  0  0  0  0  0  0  0
    4.9882   -1.0073   -1.7483 H   0  0  0  0  0  0  0  0  0  0  0  0
    6.1817   -0.8909    1.7726 H   0  0  0  0  0  0  0  0  0  0  0  0
    5.0720   -3.0543    1.7155 H   0  0  0  0  0  0  0  0  0  0  0  0
    6.7539   -3.2389    1.2218 H   0  0  0  0  0  0  0  0  0  0  0  0
    3.8123   -3.1576   -1.8882 H   0  0  0  0  0  0  0  0  0  0  0  0
    3.2299   -3.0032   -0.2318 H   0  0  0  0  0  0  0  0  0  0  0  0
    6.1278   -3.3557   -1.1365 H   0  0  0  0  0  0  0  0  0  0  0  0
    5.1493   -4.5186   -0.2414 H   0  0  0  0  0  0  0  0  0  0  0  0
    5.3722    1.0653   -0.6186 H   0  0  0  0  0  0  0  0  0  0  0  0
    5.3114    1.1441    1.1292 H   0  0  0  0  0  0  0  0  0  0  0  0
    3.7246    2.4227   -1.6406 H   0  0  0  0  0  0  0  0  0  0  0  0
    2.8394    0.6047    2.1696 H   0  0  0  0  0  0  0  0  0  0  0  0
    1.5661    3.5372   -1.6246 H   0  0  0  0  0  0  0  0  0  0  0  0
    0.6379    1.7078    2.1794 H   0  0  0  0  0  0  0  0  0  0  0  0
   -2.3400   -1.3446   -2.4858 H   0  0  0  0  0  0  0  0  0  0  0  0
   -2.6977    4.3137   -0.1042 H   0  0  0  0  0  0  0  0  0  0  0  0
   -2.8723    3.7503   -1.7722 H   0  0  0  0  0  0  0  0  0  0  0  0
   -2.4275    2.0394    0.6927 H   0  0  0  0  0  0  0  0  0  0  0  0
   -3.9988    2.3342   -0.2170 H   0  0  0  0  0  0  0  0  0  0  0  0
   -0.6068    2.8032   -1.7298 H   0  0  0  0  0  0  0  0  0  0  0  0
   -0.5782    4.5419   -1.3269 H   0  0  0  0  0  0  0  0  0  0  0  0
   -5.2438   -2.9054    1.9819 H   0  0  0  0  0  0  0  0  0  0  0  0
   -4.1511    1.4910    1.6190 H   0  0  0  0  0  0  0  0  0  0  0  0
  1  4  2  0  0  0  0
  1  5  2  0  0  0  0
  1  7  1  0  0  0  0
  1 18  1  0  0  0  0
  2 27  1  0  0  0  0
  2 28  1  0  0  0  0
  3 23  1  0  0  0  0
  3 26  1  0  0  0  0
  6  9  1  0  0  0  0
  6 10  1  0  0  0  0
  6 14  1  0  0  0  0
  7 20  1  0  0  0  0
  7 45  1  0  0  0  0
  8 20  2  0  0  0  0
  8 25  1  0  0  0  0
  9 12  1  0  0  0  0
  9 29  1  0  0  0  0
  9 32  1  0  0  0  0
 10 11  1  0  0  0  0
 10 30  1  0  0  0  0
 10 31  1  0  0  0  0
 11 13  1  0  0  0  0
 11 35  1  0  0  0  0
 11 36  1  0  0  0  0
 12 13  1  0  0  0  0
 12 33  1  0  0  0  0
 12 34  1  0  0  0  0
 13 37  1  0  0  0  0
 13 38  1  0  0  0  0
 14 15  1  0  0  0  0
 14 39  1  0  0  0  0
 14 40  1  0  0  0  0
 15 16  2  0  0  0  0
 15 17  1  0  0  0  0
 16 21  1  0  0  0  0
 16 41  1  0  0  0  0
 17 22  2  0  0  0  0
 17 42  1  0  0  0  0
 18 19  1  0  0  0  0
 18 27  2  0  0  0  0
 19 20  1  0  0  0  0
 19 28  2  0  0  0  0
 21 23  2  0  0  0  0
 21 43  1  0  0  0  0
 22 23  1  0  0  0  0
 22 44  1  0  0  0  0
 24 25  1  0  0  0  0
 24 26  1  0  0  0  0
 24 46  1  0  0  0  0
 24 47  1  0  0  0  0
 25 48  1  0  0  0  0
 25 49  1  0  0  0  0
 26 50  1  0  0  0  0
 26 51  1  0  0  0  0
 27 52  1  0  0  0  0
 28 53  1  0  0  0  0
M  END
> <PUBCHEM_COMPOUND_CID>
135429737

> <PUBCHEM_CONFORMER_RMSD>
1

> <PUBCHEM_CONFORMER_DIVERSEORDER>
1
70
108
24
23
113
88
47
55
85
86
116
41
111
59
29
98
101
118
13
89
69
102
73
90
4
65
110
61
5
54
109
96
114
58
79
2
80
21
93
76
42
87
8
71
25
99
40
6
66
104
115
49
28
68
92
14
51
78
120
57
119
64
16
95
75
45
3
63
11
35
22
62
77
36
106
103
30
112
34
20
74
60
105
31
50
83
10
100
94
15
33
91
7
12
26
56
43
9
72
38
117
17
97
37
44
48
46
32
27
52
82
53
81
84
18
19
67
39
107

> <PUBCHEM_MMFF94_PARTIAL_CHARGES>
31
1 1.5
10 0.27
14 0.41
15 -0.14
16 -0.15
17 -0.15
18 -0.06
19 -0.09
2 -0.08
20 0.77
21 -0.15
22 -0.15
23 0.08
25 0.25
26 0.28
27 -0.11
28 -0.11
3 -0.36
4 -0.65
41 0.15
42 0.15
43 0.15
44 0.15
45 0.42
5 -0.65
52 0.15
53 0.15
6 -0.81
7 -0.79
8 -0.7
9 0.27

> <PUBCHEM_EFFECTIVE_ROTOR_COUNT>
8.4

> <PUBCHEM_PHARMACOPHORE_FEATURES>
10
1 3 acceptor
1 4 acceptor
1 5 acceptor
1 6 cation
1 7 donor
1 8 acceptor
5 1 7 18 19 20 rings
5 2 18 19 27 28 rings
6 15 16 17 21 22 23 rings
6 6 9 10 11 12 13 rings

> <PUBCHEM_HEAVY_ATOM_COUNT>
28

> <PUBCHEM_ATOM_DEF_STEREO_COUNT>
0

> <PUBCHEM_ATOM_UDEF_STEREO_COUNT>
0

> <PUBCHEM_BOND_DEF_STEREO_COUNT>
0

> <PUBCHEM_BOND_UDEF_STEREO_COUNT>
0

> <PUBCHEM_ISOTOPIC_ATOM_COUNT>
0

> <PUBCHEM_COMPONENT_COUNT>
1

> <PUBCHEM_CACTVS_TAUTO_COUNT>
-1

> <PUBCHEM_CONFORMER_ID>
08127E6900000001

> <PUBCHEM_MMFF94_ENERGY>
78.5238

> <PUBCHEM_FEATURE_SELFOVERLAP>
50.924

> <PUBCHEM_SHAPE_FINGERPRINT>
10169797 241 18413113858151304530
10928967 22 18198065974140603318
11135609 12 18335986389400047736
11135609 99 17903630784478296226
117089 54 18261688050588675795
12107183 9 18271261464673349809
12422481 6 17845383167035175294
12633257 1 17203055183081144641
13103583 49 17917440855657693321
14251751 18 18336548218677669240
14251764 30 18187375367039280187
14480069 147 17967822630252322378
14950920 106 17489868275558792369
15274700 232 16970551007317104686
15320291 9 17618778506524398922
15684393 108 17314250898742895362
15728490 83 18189903010954042906
16728300 4 18339098072516497659
17909252 39 18335427910871708488
19315092 285 16412066590940964767
20775530 9 18411702093035565492
21315759 227 18188202122663885998
23379529 103 18408605829700703168
23424784 1240 18268717121752049514
3383291 50 18197204868285746773
3737641 26 18410017658312225256
404807 14 18411129273785901127
437795 150 17980781341908562134
437795 96 18126563410284855894
44062 13 18262518066029856796
50080093 196 18125147480064280438
513202 73 18261401031483944809
5365585 94 18187369826199321144
56633871 153 18340772632614567035
6201320 221 17477199905424089503
6422251 121 18186804656085970467
6431902 208 18409160000925211062
7970288 3 18192992844912857235

> <PUBCHEM_SHAPE_MULTIPOLES>
551.37
14.75
5.46
1.68
9.24
0.46
0.5
-14.92
3.54
0.71
-1.67
-1.99
-0.44
0.23

> <PUBCHEM_SHAPE_SELFOVERLAP>
1149.825

> <PUBCHEM_SHAPE_VOLUME>
314.5

> <PUBCHEM_COORDINATE_TYPE>
2
5
10

$$$$
