135512730
  -OEChem-03292013293D

 32 33  0     0  0  0  0  0  0999 V2000
   -1.1627    1.7179    0.4335 O   0  0  0  0  0  0  0  0  0  0  0  0
    1.2896    2.3653   -0.1642 O   0  0  0  0  0  0  0  0  0  0  0  0
   -2.4282   -0.1498    0.9691 N   0  0  0  0  0  0  0  0  0  0  0  0
    1.2321   -2.1715    0.4205 N   0  0  0  0  0  0  0  0  0  0  0  0
    3.2492    1.1406   -0.4418 N   0  0  0  0  0  0  0  0  0  0  0  0
    3.3596   -1.2302   -0.1672 N   0  0  0  0  0  0  0  0  0  0  0  0
   -5.6204   -0.6194   -1.9436 N   0  0  0  0  0  0  0  0  0  0  0  0
    5.2790   -0.0061   -0.7448 N   0  0  0  0  0  0  0  0  0  0  0  0
    1.2635    0.0287    0.1354 C   0  0  0  0  0  0  0  0  0  0  0  0
   -0.0542   -0.3480    0.4728 C   0  0  0  0  0  0  0  0  0  0  0  0
   -3.6864    0.5419    1.1345 C   0  0  0  0  0  0  0  0  0  0  0  0
    2.0385   -1.1116    0.1088 C   0  0  0  0  0  0  0  0  0  0  0  0
   -4.4842    0.6259   -0.1636 C   0  0  0  0  0  0  0  0  0  0  0  0
   -1.2158    0.4794    0.6231 C   0  0  0  0  0  0  0  0  0  0  0  0
   -0.0456   -1.7175    0.6443 C   0  0  0  0  0  0  0  0  0  0  0  0
    1.8865    1.2951   -0.1611 C   0  0  0  0  0  0  0  0  0  0  0  0
   -4.8455   -0.7543   -0.7152 C   0  0  0  0  0  0  0  0  0  0  0  0
    3.9450   -0.0865   -0.4404 C   0  0  0  0  0  0  0  0  0  0  0  0
   -4.2554    0.0036    1.8999 H   0  0  0  0  0  0  0  0  0  0  0  0
   -3.4884    1.5515    1.5104 H   0  0  0  0  0  0  0  0  0  0  0  0
   -5.4000    1.2006    0.0232 H   0  0  0  0  0  0  0  0  0  0  0  0
   -3.9034    1.1805   -0.9118 H   0  0  0  0  0  0  0  0  0  0  0  0
   -0.8162   -2.4297    0.9036 H   0  0  0  0  0  0  0  0  0  0  0  0
   -2.4512   -1.1533    1.1114 H   0  0  0  0  0  0  0  0  0  0  0  0
    1.5278   -3.1363    0.4774 H   0  0  0  0  0  0  0  0  0  0  0  0
   -3.9429   -1.3363   -0.9291 H   0  0  0  0  0  0  0  0  0  0  0  0
   -5.4356   -1.3105    0.0210 H   0  0  0  0  0  0  0  0  0  0  0  0
    3.7780    1.9791   -0.6640 H   0  0  0  0  0  0  0  0  0  0  0  0
   -5.8121   -1.5446   -2.3254 H   0  0  0  0  0  0  0  0  0  0  0  0
   -5.0679   -0.1293   -2.6460 H   0  0  0  0  0  0  0  0  0  0  0  0
    5.8628   -0.8349   -0.7691 H   0  0  0  0  0  0  0  0  0  0  0  0
    5.7211    0.8822   -0.9543 H   0  0  0  0  0  0  0  0  0  0  0  0
  1 14  2  0  0  0  0
  2 16  2  0  0  0  0
  3 11  1  0  0  0  0
  3 14  1  0  0  0  0
  3 24  1  0  0  0  0
  4 12  1  0  0  0  0
  4 15  1  0  0  0  0
  4 25  1  0  0  0  0
  5 16  1  0  0  0  0
  5 18  1  0  0  0  0
  5 28  1  0  0  0  0
  6 12  1  0  0  0  0
  6 18  2  0  0  0  0
  7 17  1  0  0  0  0
  7 29  1  0  0  0  0
  7 30  1  0  0  0  0
  8 18  1  0  0  0  0
  8 31  1  0  0  0  0
  8 32  1  0  0  0  0
  9 10  1  0  0  0  0
  9 12  2  0  0  0  0
  9 16  1  0  0  0  0
 10 14  1  0  0  0  0
 10 15  2  0  0  0  0
 11 13  1  0  0  0  0
 11 19  1  0  0  0  0
 11 20  1  0  0  0  0
 13 17  1  0  0  0  0
 13 21  1  0  0  0  0
 13 22  1  0  0  0  0
 15 23  1  0  0  0  0
 17 26  1  0  0  0  0
 17 27  1  0  0  0  0
M  END
> <PUBCHEM_COMPOUND_CID>
135512730

> <PUBCHEM_CONFORMER_RMSD>
0.6

> <PUBCHEM_CONFORMER_DIVERSEORDER>
1
63
42
39
57
27
19
5
31
9
7
13
62
36
8
12
18
16
34
53
46
29
14
30
17
23
61
35
41
40
50
2
56
49
11
55
25
28
47
44
59
60
43
10
3
15
51
20
45
54
26
4
48
6
22
21
58
37
52
24
32
33
38

> <PUBCHEM_MMFF94_PARTIAL_CHARGES>
25
1 -0.57
10 -0.09
11 0.3
12 -0.03
14 0.72
15 -0.3
16 0.72
17 0.27
18 0.56
2 -0.57
23 0.15
24 0.37
25 0.27
28 0.37
29 0.36
3 -0.73
30 0.36
31 0.4
32 0.4
4 0.03
5 -0.49
6 -0.58
7 -0.99
8 -0.85
9 -0.09

> <PUBCHEM_EFFECTIVE_ROTOR_COUNT>
5

> <PUBCHEM_PHARMACOPHORE_FEATURES>
11
1 1 acceptor
1 2 acceptor
1 3 donor
1 4 cation
1 4 donor
1 5 donor
1 7 cation
1 7 donor
1 8 donor
5 4 9 10 12 15 rings
6 5 6 9 12 16 18 rings

> <PUBCHEM_HEAVY_ATOM_COUNT>
18

> <PUBCHEM_ATOM_DEF_STEREO_COUNT>
0

> <PUBCHEM_ATOM_UDEF_STEREO_COUNT>
0

> <PUBCHEM_BOND_DEF_STEREO_COUNT>
0

> <PUBCHEM_BOND_UDEF_STEREO_COUNT>
0

> <PUBCHEM_ISOTOPIC_ATOM_COUNT>
0

> <PUBCHEM_COMPONENT_COUNT>
1

> <PUBCHEM_CACTVS_TAUTO_COUNT>
-1

> <PUBCHEM_CONFORMER_ID>
0813C29A00000001

> <PUBCHEM_MMFF94_ENERGY>
21.9833

> <PUBCHEM_FEATURE_SELFOVERLAP>
55.994

> <PUBCHEM_SHAPE_FINGERPRINT>
10967382 1 18336277764523808186
11089746 13 13262678175125121871
11471102 20 18334861610421023168
11796584 16 15553620486436032076
11806522 49 18342459222678461600
12236239 1 17989489610425708740
12500047 106 16226053318345902763
13583140 156 16443350913840062457
13862211 1 18337392647987515322
14251717 144 18409168805201953523
14576447 43 18272643559030991783
14911166 2 18408329890899472038
15048467 5 12973606655419086182
16945 1 18264509372150895954
17357779 13 17822006493609951989
18186145 218 17603307038317984057
18915474 69 18060413651584501287
200 152 18342740702335183513
20645477 70 18187087200335314787
21054139 6 18201711877479230343
21709351 56 18410856547219546901
221490 88 18192720153281508211
231179 274 17240482519987312761
23402539 116 18272092668971100164
23402655 69 18338517422428193033
23557571 272 15051183263867647329
23559900 14 18270130127569953312
2748010 2 18048897469531388802
3060560 45 18408038520086256398
33382 64 15697731332516489454
351380 3 17632289121460667855
4072396 5 18113888343708725242
4990 188 17846227630709579894
57096353 35 18412270527667465909
602551 16 15769766992414808463
69090 78 18201443579688562422

> <PUBCHEM_SHAPE_MULTIPOLES>
328.81
10.14
1.8
1.05
7.43
0.12
0.25
-0.6
4.79
-0.83
-0.13
1.41
-0.13
-0.8

> <PUBCHEM_SHAPE_SELFOVERLAP>
700.1

> <PUBCHEM_SHAPE_VOLUME>
182.3

> <PUBCHEM_COORDINATE_TYPE>
2
5
10

$$$$
