135565816
  -OEChem-03292013293D

 42 43  0     1  0  0  0  0  0999 V2000
    2.6593    1.3237   -0.8825 O   0  0  0  0  0  0  0  0  0  0  0  0
    0.1756    1.2896    1.9402 O   0  0  0  0  0  0  0  0  0  0  0  0
   -1.5493   -0.9362   -2.8083 O   0  0  0  0  0  0  0  0  0  0  0  0
   -2.3094    1.5947    2.6043 O   0  0  0  0  0  0  0  0  0  0  0  0
   -3.9923   -0.5598   -1.9855 O   0  0  0  0  0  0  0  0  0  0  0  0
    4.2360    2.0290    0.6515 O   0  0  0  0  0  0  0  0  0  0  0  0
    2.1101    0.4265    0.0843 C   0  0  1  0  0  0  0  0  0  0  0  0
    0.6232    0.3062   -0.1659 C   0  0  0  0  0  0  0  0  0  0  0  0
    2.8484   -0.9188   -0.0008 C   0  0  0  0  0  0  0  0  0  0  0  0
   -0.3008    0.7471    0.7821 C   0  0  0  0  0  0  0  0  0  0  0  0
   -1.6715    0.6253    0.5290 C   0  0  0  0  0  0  0  0  0  0  0  0
   -2.1123    0.0622   -0.6715 C   0  0  0  0  0  0  0  0  0  0  0  0
    0.1835   -0.2553   -1.3636 C   0  0  0  0  0  0  0  0  0  0  0  0
   -1.1824   -0.3788   -1.6196 C   0  0  0  0  0  0  0  0  0  0  0  0
    2.3559   -1.9139    1.0131 C   0  0  0  0  0  0  0  0  0  0  0  0
   -2.6425    1.0945    1.5370 C   0  0  0  0  0  0  0  0  0  0  0  0
   -3.5557   -0.0728   -0.9499 C   0  0  0  0  0  0  0  0  0  0  0  0
    1.8098   -3.1243    0.7905 C   0  0  0  0  0  0  0  0  0  0  0  0
   -4.0789    0.9445    1.2261 C   0  0  0  0  0  0  0  0  0  0  0  0
   -4.4997    0.4067    0.0803 C   0  0  0  0  0  0  0  0  0  0  0  0
    3.7235    2.0652   -0.4589 C   0  0  0  0  0  0  0  0  0  0  0  0
    1.3363   -4.0742    1.8540 C   0  0  0  0  0  0  0  0  0  0  0  0
    1.6417   -3.6359   -0.6155 C   0  0  0  0  0  0  0  0  0  0  0  0
    4.1913    2.9549   -1.5705 C   0  0  0  0  0  0  0  0  0  0  0  0
    2.2727    0.8307    1.0906 H   0  0  0  0  0  0  0  0  0  0  0  0
    3.9118   -0.7435    0.2130 H   0  0  0  0  0  0  0  0  0  0  0  0
    2.8565   -1.2852   -1.0291 H   0  0  0  0  0  0  0  0  0  0  0  0
    0.8950   -0.5901   -2.1144 H   0  0  0  0  0  0  0  0  0  0  0  0
    2.4660   -1.5981    2.0500 H   0  0  0  0  0  0  0  0  0  0  0  0
   -4.7905    1.2898    1.9683 H   0  0  0  0  0  0  0  0  0  0  0  0
   -5.5597    0.3066   -0.1265 H   0  0  0  0  0  0  0  0  0  0  0  0
   -0.5500    1.5521    2.5256 H   0  0  0  0  0  0  0  0  0  0  0  0
    2.2832   -4.5108   -0.7680 H   0  0  0  0  0  0  0  0  0  0  0  0
    0.6029   -3.9514   -0.7676 H   0  0  0  0  0  0  0  0  0  0  0  0
    1.4924   -3.6643    2.8573 H   0  0  0  0  0  0  0  0  0  0  0  0
    1.8812   -5.0214    1.7906 H   0  0  0  0  0  0  0  0  0  0  0  0
    0.2666   -4.2755    1.7378 H   0  0  0  0  0  0  0  0  0  0  0  0
    1.8621   -2.9284   -1.4130 H   0  0  0  0  0  0  0  0  0  0  0  0
   -2.5144   -0.9756   -2.8854 H   0  0  0  0  0  0  0  0  0  0  0  0
    4.5093    2.3479   -2.4219 H   0  0  0  0  0  0  0  0  0  0  0  0
    5.0443    3.5470   -1.2267 H   0  0  0  0  0  0  0  0  0  0  0  0
    3.3886    3.6371   -1.8617 H   0  0  0  0  0  0  0  0  0  0  0  0
  1  7  1  0  0  0  0
  1 21  1  0  0  0  0
  2 10  1  0  0  0  0
  2 32  1  0  0  0  0
  3 14  1  0  0  0  0
  3 39  1  0  0  0  0
  4 16  2  0  0  0  0
  5 17  2  0  0  0  0
  6 21  2  0  0  0  0
  7  8  1  0  0  0  0
  7  9  1  0  0  0  0
  7 25  1  0  0  0  0
  8 10  1  0  0  0  0
  8 13  2  0  0  0  0
  9 15  1  0  0  0  0
  9 26  1  0  0  0  0
  9 27  1  0  0  0  0
 10 11  2  0  0  0  0
 11 12  1  0  0  0  0
 11 16  1  0  0  0  0
 12 14  2  0  0  0  0
 12 17  1  0  0  0  0
 13 14  1  0  0  0  0
 13 28  1  0  0  0  0
 15 18  2  0  0  0  0
 15 29  1  0  0  0  0
 16 19  1  0  0  0  0
 17 20  1  0  0  0  0
 18 22  1  0  0  0  0
 18 23  1  0  0  0  0
 19 20  2  0  0  0  0
 19 30  1  0  0  0  0
 20 31  1  0  0  0  0
 21 24  1  0  0  0  0
 22 35  1  0  0  0  0
 22 36  1  0  0  0  0
 22 37  1  0  0  0  0
 23 33  1  0  0  0  0
 23 34  1  0  0  0  0
 23 38  1  0  0  0  0
 24 40  1  0  0  0  0
 24 41  1  0  0  0  0
 24 42  1  0  0  0  0
M  END
> <PUBCHEM_COMPOUND_CID>
135565816

> <PUBCHEM_CONFORMER_RMSD>
0.8

> <PUBCHEM_CONFORMER_DIVERSEORDER>
1
32
9
44
38
43
20
49
36
50
41
2
19
33
25
27
55
22
16
30
53
37
17
48
6
52
10
11
45
5
54
42
18
4
12
26
40
13
34
29
23
7
28
39
24
8
15
47
35
46
14
51
31
21
3

> <PUBCHEM_MMFF94_PARTIAL_CHARGES>
30
1 -0.43
10 0.08
11 0.09
12 0.09
13 -0.15
14 0.08
15 -0.29
16 0.47
17 0.47
18 -0.28
19 -0.14
2 -0.53
20 -0.14
21 0.66
22 0.14
23 0.14
24 0.06
28 0.15
29 0.15
3 -0.53
30 0.15
31 0.15
32 0.45
39 0.45
4 -0.57
5 -0.57
6 -0.57
7 0.42
8 -0.14
9 0.14

> <PUBCHEM_EFFECTIVE_ROTOR_COUNT>
5

> <PUBCHEM_PHARMACOPHORE_FEATURES>
8
1 2 donor
1 3 donor
1 4 acceptor
1 5 acceptor
1 6 acceptor
3 18 22 23 hydrophobe
6 11 12 16 17 19 20 rings
6 8 10 11 12 13 14 rings

> <PUBCHEM_HEAVY_ATOM_COUNT>
24

> <PUBCHEM_ATOM_DEF_STEREO_COUNT>
1

> <PUBCHEM_ATOM_UDEF_STEREO_COUNT>
0

> <PUBCHEM_BOND_DEF_STEREO_COUNT>
0

> <PUBCHEM_BOND_UDEF_STEREO_COUNT>
0

> <PUBCHEM_ISOTOPIC_ATOM_COUNT>
0

> <PUBCHEM_COMPONENT_COUNT>
1

> <PUBCHEM_CACTVS_TAUTO_COUNT>
-1

> <PUBCHEM_CONFORMER_ID>
081491F800000001

> <PUBCHEM_MMFF94_ENERGY>
59.6981

> <PUBCHEM_FEATURE_SELFOVERLAP>
40.618

> <PUBCHEM_SHAPE_FINGERPRINT>
10090160 65 18409167735797619800
10759866 29 18272938193660864181
11370993 70 18187650253225143122
121448 382 18122896796925052578
12236239 1 18201999941420738116
12363563 72 17463962458911806978
12553582 1 17903639575284496154
12788726 201 17775282790253579875
13533116 47 18117011996319325731
13583140 156 18119549655923638673
13911987 19 17970072342585925116
14022347 108 17060047211867015559
14787075 74 17910395326917612263
14844126 61 13668498330512321713
16752209 62 17131826547890502973
17138139 8 17766814484287158871
1813 80 17980484464719808126
18915476 22 17968088694670090310
19765921 60 18343023336905766704
204376 136 18115875259814687084
20600515 1 16415184664194076504
20645477 70 18040995107373941218
20739085 24 18054504699824494766
21120745 212 11803700041178924970
21756936 100 18125743407113677340
2255824 54 18337958896312179110
229495 10 18336823083383752573
23419403 2 15683734592671355198
23557571 272 15719683069179771503
23598291 2 18200883872319515556
266924 78 18335410245238112350
2748010 2 13915181203593449457
283562 15 17035290819094873442
394222 165 18272098166534501018
4340502 62 18335146431282915099
474 4 18336833086541815852
59755656 520 18264221377577548732
6034566 193 17681006385094815044
633830 44 18269014071036979028
7097593 13 17840868482071171523
8272917 22 18336552624718041853
84936 31 18113624460490933574

> <PUBCHEM_SHAPE_MULTIPOLES>
458.69
7.68
3.68
2.18
2.66
3.78
-0.19
-4.49
-0.33
-6.57
0.75
1.72
-0.01
-1.98

> <PUBCHEM_SHAPE_SELFOVERLAP>
979.309

> <PUBCHEM_SHAPE_VOLUME>
252.9

> <PUBCHEM_COORDINATE_TYPE>
2
5
10

$$$$
