135511704
  -OEChem-03292013293D

 45 46  0     1  0  0  0  0  0999 V2000
   -3.5880    1.4321   -1.5691 S   0  0  0  0  0  0  0  0  0  0  0  0
   -6.9118    1.6737    0.8207 O   0  0  0  0  0  0  0  0  0  0  0  0
    2.2980   -1.2515    0.1427 O   0  0  0  0  0  0  0  0  0  0  0  0
   -5.0036    1.2294    1.9857 O   0  0  0  0  0  0  0  0  0  0  0  0
   -2.2956   -2.5169    0.1518 O   0  0  0  0  0  0  0  0  0  0  0  0
    5.6012    0.2677    0.0061 O   0  0  0  0  0  0  0  0  0  0  0  0
    9.2222    0.4765    0.2118 O   0  0  0  0  0  0  0  0  0  0  0  0
   -4.0853   -0.4494    0.1545 N   0  0  0  0  0  0  0  0  0  0  0  0
   -5.3935    0.1599   -0.1544 C   0  0  1  0  0  0  0  0  0  0  0  0
   -5.3171    0.9261   -1.4722 C   0  0  0  0  0  0  0  0  0  0  0  0
   -6.4417   -0.9483   -0.2169 C   0  0  0  0  0  0  0  0  0  0  0  0
   -3.1246    0.1440   -0.4786 C   0  0  0  0  0  0  0  0  0  0  0  0
   -5.7156    1.0639    1.0064 C   0  0  0  0  0  0  0  0  0  0  0  0
   -1.7020   -0.2393   -0.3117 C   0  0  0  0  0  0  0  0  0  0  0  0
   -1.3454   -1.5524   -0.0039 C   0  0  0  0  0  0  0  0  0  0  0  0
   -0.7143    0.7334   -0.4670 C   0  0  0  0  0  0  0  0  0  0  0  0
    0.9864   -0.9196   -0.0062 C   0  0  0  0  0  0  0  0  0  0  0  0
   -0.0013   -1.8925    0.1488 C   0  0  0  0  0  0  0  0  0  0  0  0
    0.6298    0.3934   -0.3139 C   0  0  0  0  0  0  0  0  0  0  0  0
    3.2552   -0.2074   -0.0299 C   0  0  0  0  0  0  0  0  0  0  0  0
    4.6456   -0.7684    0.1982 C   0  0  0  0  0  0  0  0  0  0  0  0
    6.9266   -0.2027    0.2078 C   0  0  0  0  0  0  0  0  0  0  0  0
    7.8966    0.9425   -0.0102 C   0  0  0  0  0  0  0  0  0  0  0  0
   10.1781    1.5058   -0.0006 C   0  0  0  0  0  0  0  0  0  0  0  0
   -5.5226    0.2760   -2.3291 H   0  0  0  0  0  0  0  0  0  0  0  0
   -5.9766    1.7962   -1.5290 H   0  0  0  0  0  0  0  0  0  0  0  0
   -6.1659   -1.7090   -0.9562 H   0  0  0  0  0  0  0  0  0  0  0  0
   -7.4294   -0.5589   -0.4879 H   0  0  0  0  0  0  0  0  0  0  0  0
   -6.5404   -1.4565    0.7498 H   0  0  0  0  0  0  0  0  0  0  0  0
   -0.9517    1.7705   -0.6850 H   0  0  0  0  0  0  0  0  0  0  0  0
    0.2852   -2.9135    0.3886 H   0  0  0  0  0  0  0  0  0  0  0  0
    1.3420    1.2006   -0.4457 H   0  0  0  0  0  0  0  0  0  0  0  0
    3.2099    0.2004   -1.0480 H   0  0  0  0  0  0  0  0  0  0  0  0
    3.0922    0.6000    0.6957 H   0  0  0  0  0  0  0  0  0  0  0  0
   -7.1405    2.2670    1.5676 H   0  0  0  0  0  0  0  0  0  0  0  0
    4.8354   -1.5915   -0.5014 H   0  0  0  0  0  0  0  0  0  0  0  0
    4.7235   -1.1718    1.2151 H   0  0  0  0  0  0  0  0  0  0  0  0
   -1.8606   -3.3610    0.3619 H   0  0  0  0  0  0  0  0  0  0  0  0
    7.0374   -0.5965    1.2255 H   0  0  0  0  0  0  0  0  0  0  0  0
    7.1499   -1.0185   -0.4905 H   0  0  0  0  0  0  0  0  0  0  0  0
    7.6662    1.7645    0.6784 H   0  0  0  0  0  0  0  0  0  0  0  0
    7.7962    1.3267   -1.0326 H   0  0  0  0  0  0  0  0  0  0  0  0
   11.1739    1.0949    0.1859 H   0  0  0  0  0  0  0  0  0  0  0  0
   10.1355    1.8617   -1.0345 H   0  0  0  0  0  0  0  0  0  0  0  0
   10.0080    2.3363    0.6915 H   0  0  0  0  0  0  0  0  0  0  0  0
  1 10  1  0  0  0  0
  1 12  1  0  0  0  0
  2 13  1  0  0  0  0
  2 35  1  0  0  0  0
  3 17  1  0  0  0  0
  3 20  1  0  0  0  0
  4 13  2  0  0  0  0
  5 15  1  0  0  0  0
  5 38  1  0  0  0  0
  6 21  1  0  0  0  0
  6 22  1  0  0  0  0
  7 23  1  0  0  0  0
  7 24  1  0  0  0  0
  8  9  1  0  0  0  0
  8 12  2  0  0  0  0
  9 10  1  0  0  0  0
  9 11  1  0  0  0  0
  9 13  1  0  0  0  0
 10 25  1  0  0  0  0
 10 26  1  0  0  0  0
 11 27  1  0  0  0  0
 11 28  1  0  0  0  0
 11 29  1  0  0  0  0
 12 14  1  0  0  0  0
 14 15  2  0  0  0  0
 14 16  1  0  0  0  0
 15 18  1  0  0  0  0
 16 19  2  0  0  0  0
 16 30  1  0  0  0  0
 17 18  2  0  0  0  0
 17 19  1  0  0  0  0
 18 31  1  0  0  0  0
 19 32  1  0  0  0  0
 20 21  1  0  0  0  0
 20 33  1  0  0  0  0
 20 34  1  0  0  0  0
 21 36  1  0  0  0  0
 21 37  1  0  0  0  0
 22 23  1  0  0  0  0
 22 39  1  0  0  0  0
 22 40  1  0  0  0  0
 23 41  1  0  0  0  0
 23 42  1  0  0  0  0
 24 43  1  0  0  0  0
 24 44  1  0  0  0  0
 24 45  1  0  0  0  0
M  END
> <PUBCHEM_COMPOUND_CID>
135511704

> <PUBCHEM_CONFORMER_RMSD>
1

> <PUBCHEM_CONFORMER_DIVERSEORDER>
6
8
34
13
29
33
20
26
23
50
37
47
31
51
7
43
10
41
18
27
48
40
24
32
36
2
35
49
19
12
16
5
46
28
4
17
45
15
39
1
11
14
44
9
25
42
21
22
38
3
30

> <PUBCHEM_MMFF94_PARTIAL_CHARGES>
28
1 -0.37
10 0.23
12 0.5
13 0.66
14 0.09
15 0.08
16 -0.15
17 0.08
18 -0.15
19 -0.15
2 -0.65
20 0.28
21 0.28
22 0.28
23 0.28
24 0.28
3 -0.36
30 0.15
31 0.15
32 0.15
35 0.5
38 0.45
4 -0.57
5 -0.53
6 -0.56
7 -0.56
8 -0.7
9 0.31

> <PUBCHEM_EFFECTIVE_ROTOR_COUNT>
9.6

> <PUBCHEM_PHARMACOPHORE_FEATURES>
10
1 2 acceptor
1 3 acceptor
1 4 acceptor
1 5 donor
1 6 acceptor
1 7 acceptor
1 8 acceptor
3 2 4 13 anion
5 1 8 9 10 12 rings
6 14 15 16 17 18 19 rings

> <PUBCHEM_HEAVY_ATOM_COUNT>
24

> <PUBCHEM_ATOM_DEF_STEREO_COUNT>
1

> <PUBCHEM_ATOM_UDEF_STEREO_COUNT>
0

> <PUBCHEM_BOND_DEF_STEREO_COUNT>
0

> <PUBCHEM_BOND_UDEF_STEREO_COUNT>
0

> <PUBCHEM_ISOTOPIC_ATOM_COUNT>
0

> <PUBCHEM_COMPONENT_COUNT>
1

> <PUBCHEM_CACTVS_TAUTO_COUNT>
-1

> <PUBCHEM_CONFORMER_ID>
0813BE9800000006

> <PUBCHEM_MMFF94_ENERGY>
70.8643

> <PUBCHEM_FEATURE_SELFOVERLAP>
50.814

> <PUBCHEM_SHAPE_FINGERPRINT>
10 15 17749387062135957490
10369192 42 18131349700274374549
106641 1 18187089459930697939
11315181 36 18342174471511908125
11408170 108 11746927660111281152
12082328 90 17418093217391101886
12091667 2 17385722487373930655
12236239 1 17845651444468831431
13533116 47 17988076678641140026
13964095 4 14836403623057651220
14251764 18 18410289220731166138
14251764 46 18412261748422029543
14849402 71 18342178911612300753
14856354 85 16773787130772519877
15183329 4 14261351327769151022
15690457 1 8358260333419940400
15706992 2 17703522034216417697
15716309 27 11314029071941941490
17093844 174 16515400755746883285
20281389 69 18186516593103433684
20721686 146 17773601521111573789
22224240 67 16805603685823681082
23198884 109 17275384296229261199
23559900 14 18272643593575073800
335352 9 18410007771513508692
44280117 145 17985543592850352830
5470011 282 13973964342726731344
5758199 1 18411138022095868322
59682541 35 17967821556563284873
636775 72 18343866601936870432
9953998 17 15936129664133083889

> <PUBCHEM_SHAPE_MULTIPOLES>
457.56
25.99
1.76
1.05
68
0.52
-0.16
-13.78
-3.81
-0.94
0.04
-2.15
-0.52
-0.29

> <PUBCHEM_SHAPE_SELFOVERLAP>
936.618

> <PUBCHEM_SHAPE_VOLUME>
266.6

> <PUBCHEM_COORDINATE_TYPE>
2
5
10

$$$$
