135562703
  -OEChem-03292013293D

 58 64  0     1  0  0  0  0  0999 V2000
    3.6418   -1.8059    1.1418 O   0  0  0  0  0  0  0  0  0  0  0  0
    2.1399   -4.3760    0.3988 O   0  0  0  0  0  0  0  0  0  0  0  0
    6.3813   -2.2457    0.7952 O   0  0  0  0  0  0  0  0  0  0  0  0
    3.2371    4.3445   -0.7669 O   0  0  0  0  0  0  0  0  0  0  0  0
    2.3261    0.0255    0.1974 N   0  0  0  0  0  0  0  0  0  0  0  0
   -0.0531    0.2047    0.4303 N   0  0  0  0  0  0  0  0  0  0  0  0
    1.4536    2.0616   -0.1104 N   0  0  0  0  0  0  0  0  0  0  0  0
    4.6745    0.4900   -0.1602 N   0  0  0  0  0  0  0  0  0  0  0  0
    4.9953    2.8113   -0.6593 N   0  0  0  0  0  0  0  0  0  0  0  0
    6.8277    1.3353   -0.5717 N   0  0  0  0  0  0  0  0  0  0  0  0
    2.4108   -1.4527    0.4835 C   0  0  1  0  0  0  0  0  0  0  0  0
    2.3356   -2.3107   -0.7747 C   0  0  0  0  0  0  0  0  0  0  0  0
    3.0520   -3.5683   -0.3415 C   0  0  1  0  0  0  0  0  0  0  0  0
    4.1382   -3.0408    0.5869 C   0  0  1  0  0  0  0  0  0  0  0  0
    5.4403   -2.7383   -0.1424 C   0  0  0  0  0  0  0  0  0  0  0  0
    1.1921    0.8001    0.1708 C   0  0  0  0  0  0  0  0  0  0  0  0
    3.3743    0.8506   -0.0855 C   0  0  0  0  0  0  0  0  0  0  0  0
    2.8077    2.0889   -0.2685 C   0  0  0  0  0  0  0  0  0  0  0  0
   -1.3702    0.7238    0.4756 C   0  0  0  0  0  0  0  0  0  0  0  0
   -3.7764    0.5052    0.2095 C   0  0  0  0  0  0  0  0  0  0  0  0
   -2.4830   -0.0636    0.1462 C   0  0  0  0  0  0  0  0  0  0  0  0
   -4.9110   -0.2772   -0.1202 C   0  0  0  0  0  0  0  0  0  0  0  0
   -3.9380    1.8544    0.6016 C   0  0  0  0  0  0  0  0  0  0  0  0
    3.6523    3.2068   -0.5867 C   0  0  0  0  0  0  0  0  0  0  0  0
   -4.7494   -1.6265   -0.5123 C   0  0  0  0  0  0  0  0  0  0  0  0
   -1.5313    2.0534    0.8618 C   0  0  0  0  0  0  0  0  0  0  0  0
   -6.2044    0.2916   -0.0571 C   0  0  0  0  0  0  0  0  0  0  0  0
   -2.3423   -1.4020   -0.2443 C   0  0  0  0  0  0  0  0  0  0  0  0
   -2.8052    2.6157    0.9246 C   0  0  0  0  0  0  0  0  0  0  0  0
   -3.4603   -2.1729   -0.5692 C   0  0  0  0  0  0  0  0  0  0  0  0
    5.4717    1.4953   -0.4505 C   0  0  0  0  0  0  0  0  0  0  0  0
   -5.2271    2.4009    0.6584 C   0  0  0  0  0  0  0  0  0  0  0  0
   -6.3451    1.6299    0.3335 C   0  0  0  0  0  0  0  0  0  0  0  0
   -5.8821   -2.3878   -0.8355 C   0  0  0  0  0  0  0  0  0  0  0  0
   -7.3172   -0.4959   -0.3864 C   0  0  0  0  0  0  0  0  0  0  0  0
   -7.1561   -1.8255   -0.7727 C   0  0  0  0  0  0  0  0  0  0  0  0
    1.6128   -1.6869    1.1945 H   0  0  0  0  0  0  0  0  0  0  0  0
    2.8761   -1.8358   -1.6019 H   0  0  0  0  0  0  0  0  0  0  0  0
    1.2995   -2.4741   -1.0870 H   0  0  0  0  0  0  0  0  0  0  0  0
    3.4266   -4.1629   -1.1796 H   0  0  0  0  0  0  0  0  0  0  0  0
    4.3292   -3.7131    1.4309 H   0  0  0  0  0  0  0  0  0  0  0  0
    5.3070   -1.9838   -0.9225 H   0  0  0  0  0  0  0  0  0  0  0  0
    5.8470   -3.6474   -0.5966 H   0  0  0  0  0  0  0  0  0  0  0  0
    2.6305   -5.1554    0.7113 H   0  0  0  0  0  0  0  0  0  0  0  0
   -0.0453   -0.7977    0.5814 H   0  0  0  0  0  0  0  0  0  0  0  0
    7.2029   -2.0632    0.3081 H   0  0  0  0  0  0  0  0  0  0  0  0
   -0.6869    2.6758    1.1430 H   0  0  0  0  0  0  0  0  0  0  0  0
   -1.3764   -1.8918   -0.3271 H   0  0  0  0  0  0  0  0  0  0  0  0
   -2.9060    3.6541    1.2335 H   0  0  0  0  0  0  0  0  0  0  0  0
   -3.3119   -3.2078   -0.8714 H   0  0  0  0  0  0  0  0  0  0  0  0
   -5.3759    3.4366    0.9573 H   0  0  0  0  0  0  0  0  0  0  0  0
   -7.3302    2.0889    0.3894 H   0  0  0  0  0  0  0  0  0  0  0  0
    5.6812    3.5277   -0.8796 H   0  0  0  0  0  0  0  0  0  0  0  0
   -5.7823   -3.4276   -1.1397 H   0  0  0  0  0  0  0  0  0  0  0  0
   -8.3217   -0.0800   -0.3451 H   0  0  0  0  0  0  0  0  0  0  0  0
   -8.0258   -2.4252   -1.0254 H   0  0  0  0  0  0  0  0  0  0  0  0
    7.2626    0.4285   -0.4405 H   0  0  0  0  0  0  0  0  0  0  0  0
    7.4347    2.1160   -0.7959 H   0  0  0  0  0  0  0  0  0  0  0  0
  1 11  1  0  0  0  0
  1 14  1  0  0  0  0
  2 13  1  0  0  0  0
  2 44  1  0  0  0  0
  3 15  1  0  0  0  0
  3 46  1  0  0  0  0
  4 24  2  0  0  0  0
  5 11  1  0  0  0  0
  5 16  1  0  0  0  0
  5 17  1  0  0  0  0
  6 16  1  0  0  0  0
  6 19  1  0  0  0  0
  6 45  1  0  0  0  0
  7 16  2  0  0  0  0
  7 18  1  0  0  0  0
  8 17  1  0  0  0  0
  8 31  2  0  0  0  0
  9 24  1  0  0  0  0
  9 31  1  0  0  0  0
  9 53  1  0  0  0  0
 10 31  1  0  0  0  0
 10 57  1  0  0  0  0
 10 58  1  0  0  0  0
 11 12  1  0  0  0  0
 11 37  1  0  0  0  0
 12 13  1  0  0  0  0
 12 38  1  0  0  0  0
 12 39  1  0  0  0  0
 13 14  1  0  0  0  0
 13 40  1  0  0  0  0
 14 15  1  0  0  0  0
 14 41  1  0  0  0  0
 15 42  1  0  0  0  0
 15 43  1  0  0  0  0
 17 18  2  0  0  0  0
 18 24  1  0  0  0  0
 19 21  2  0  0  0  0
 19 26  1  0  0  0  0
 20 21  1  0  0  0  0
 20 22  1  0  0  0  0
 20 23  2  0  0  0  0
 21 28  1  0  0  0  0
 22 25  1  0  0  0  0
 22 27  2  0  0  0  0
 23 29  1  0  0  0  0
 23 32  1  0  0  0  0
 25 30  1  0  0  0  0
 25 34  2  0  0  0  0
 26 29  2  0  0  0  0
 26 47  1  0  0  0  0
 27 33  1  0  0  0  0
 27 35  1  0  0  0  0
 28 30  2  0  0  0  0
 28 48  1  0  0  0  0
 29 49  1  0  0  0  0
 30 50  1  0  0  0  0
 32 33  2  0  0  0  0
 32 51  1  0  0  0  0
 33 52  1  0  0  0  0
 34 36  1  0  0  0  0
 34 54  1  0  0  0  0
 35 36  2  0  0  0  0
 35 55  1  0  0  0  0
 36 56  1  0  0  0  0
M  END
> <PUBCHEM_COMPOUND_CID>
135562703

> <PUBCHEM_CONFORMER_RMSD>
0.8

> <PUBCHEM_CONFORMER_DIVERSEORDER>
1
23
45
81
34
40
60
84
76
13
32
48
96
59
65
6
19
83
68
61
27
18
51
91
82
28
87
20
71
36
75
62
70
67
49
77
24
43
93
74
94
41
79
5
21
88
95
97
58
2
69
46
55
90
29
14
22
7
44
86
9
57
25
72
89
92
50
15
64
3
35
42
66
26
38
54
30
4
78
33
85
56
11
12
63
73
39
80
52
16
10
47
8
37
17
31
53

> <PUBCHEM_MMFF94_PARTIAL_CHARGES>
44
1 -0.56
10 -0.85
11 0.54
13 0.28
14 0.28
15 0.28
16 0.27
17 -0.03
18 0.14
19 0.1
2 -0.68
24 0.72
26 -0.15
28 -0.15
29 -0.15
3 -0.68
30 -0.15
31 0.56
32 -0.15
33 -0.15
34 -0.15
35 -0.15
36 -0.15
4 -0.57
44 0.4
45 0.4
46 0.4
47 0.15
48 0.15
49 0.15
5 0.05
50 0.15
51 0.15
52 0.15
53 0.37
54 0.15
55 0.15
56 0.15
57 0.4
58 0.4
6 -0.58
7 -0.57
8 -0.58
9 -0.49

> <PUBCHEM_EFFECTIVE_ROTOR_COUNT>
5

> <PUBCHEM_PHARMACOPHORE_FEATURES>
17
1 1 acceptor
1 10 donor
1 2 acceptor
1 2 donor
1 3 acceptor
1 3 donor
1 4 acceptor
1 6 donor
1 9 donor
4 5 6 7 16 cation
5 1 11 12 13 14 rings
5 5 7 16 17 18 rings
6 19 20 21 23 26 29 rings
6 20 21 22 25 28 30 rings
6 20 22 23 27 32 33 rings
6 22 25 27 34 35 36 rings
6 8 9 17 18 24 31 rings

> <PUBCHEM_HEAVY_ATOM_COUNT>
36

> <PUBCHEM_ATOM_DEF_STEREO_COUNT>
3

> <PUBCHEM_ATOM_UDEF_STEREO_COUNT>
0

> <PUBCHEM_BOND_DEF_STEREO_COUNT>
0

> <PUBCHEM_BOND_UDEF_STEREO_COUNT>
0

> <PUBCHEM_ISOTOPIC_ATOM_COUNT>
0

> <PUBCHEM_COMPONENT_COUNT>
1

> <PUBCHEM_CACTVS_TAUTO_COUNT>
-1

> <PUBCHEM_CONFORMER_ID>
081485CF00000001

> <PUBCHEM_MMFF94_ENERGY>
120.0151

> <PUBCHEM_FEATURE_SELFOVERLAP>
86.591

> <PUBCHEM_SHAPE_FINGERPRINT>
10595046 47 18412263973769320953
10622 236 18270102553310356959
10693767 8 18199762362702868942
11135926 11 18410005572026347821
11443803 9 18189611813252756688
11719270 70 18338512045234347856
11756154 67 17765439742475650734
12107183 9 18052261696172131097
12107698 1 18411697647576225995
12788726 201 17632022966178628025
13533116 47 18412823594890583195
1361 2 18408323285451111986
13692114 37 18267013046148312762
14068700 675 18269552746093576514
14347332 77 18339077095405794653
15001296 14 18337106873147239094
15119646 104 18410291406579362986
15183329 4 18412543237001047197
15250474 111 18342168977843080943
15320467 1 17835238226865826943
15361156 5 18115040592833986781
15448158 6 17979636737197254222
1577012 14 18341895169715225073
16993438 75 17755868862980532771
17492 89 18341049627666477519
18681886 176 18271242832999795760
19319366 153 18197493150205256156
19958102 18 18334850603047734407
20028762 73 18342179999066649492
21781055 127 16915959365859135913
23522609 53 17986137256262834913
23559900 14 18271516507946047273
24771293 8 18341322320183797394
255183 451 18270405962980519254
3004659 81 18409163290432641387
4073 2 18187932853446206050
4098825 35 18261106353476923365
4149490 64 18187085091849134243
513532 50 18201168672370703006
67856867 119 18412261727021176072
99344 41 18411417336836040516

> <PUBCHEM_SHAPE_MULTIPOLES>
687.5
18.92
4.83
0.88
8.85
0.85
0.03
2.92
-2.39
-5.94
-0.3
-0.06
-0.01
-3.29

> <PUBCHEM_SHAPE_SELFOVERLAP>
1574.566

> <PUBCHEM_SHAPE_VOLUME>
351.4

> <PUBCHEM_COORDINATE_TYPE>
2
5
10

$$$$
