135565884
  -OEChem-03292013293D

 64 68  0     1  0  0  0  0  0999 V2000
    7.5334    2.6626    0.1871 O   0  0  0  0  0  0  0  0  0  0  0  0
   -0.8290   -4.1202   -1.9082 O   0  0  0  0  0  0  0  0  0  0  0  0
   -5.2792    1.2578    1.5254 O   0  0  0  0  0  0  0  0  0  0  0  0
    1.6351   -1.6988    0.5107 N   0  0  0  0  0  0  0  0  0  0  0  0
    5.2945    2.0432    0.3158 N   0  0  0  0  0  0  0  0  0  0  0  0
    1.9264   -3.5883   -0.8820 N   0  0  0  0  0  0  0  0  0  0  0  0
    0.6996   -0.8767    1.0218 N   0  0  0  0  0  0  0  0  0  0  0  0
   -2.5119   -2.7479   -1.1714 N   0  0  0  0  0  0  0  0  0  0  0  0
    3.5184   -0.1488    1.0274 C   0  0  0  0  0  0  0  0  0  0  0  0
    3.0413   -1.5923    0.8868 C   0  0  2  0  0  0  0  0  0  0  0  0
    4.9758   -0.0990    1.5054 C   0  0  0  0  0  0  0  0  0  0  0  0
    3.3771    0.6059   -0.3013 C   0  0  0  0  0  0  0  0  0  0  0  0
    3.9054   -2.3398   -0.1465 C   0  0  0  0  0  0  0  0  0  0  0  0
    5.4745    1.3405    1.5887 C   0  0  0  0  0  0  0  0  0  0  0  0
    3.9177    2.0328   -0.2006 C   0  0  0  0  0  0  0  0  0  0  0  0
    3.3119   -3.7149   -0.4594 C   0  0  0  0  0  0  0  0  0  0  0  0
    1.1246   -2.6576   -0.3245 C   0  0  0  0  0  0  0  0  0  0  0  0
   -0.2228   -2.4063   -0.4106 C   0  0  0  0  0  0  0  0  0  0  0  0
   -0.4271   -1.3025    0.4423 C   0  0  0  0  0  0  0  0  0  0  0  0
    6.3897    2.6724   -0.2715 C   0  0  0  0  0  0  0  0  0  0  0  0
   -1.6771   -0.6422    0.7230 C   0  0  0  0  0  0  0  0  0  0  0  0
   -1.1662   -3.1383   -1.2040 C   0  0  0  0  0  0  0  0  0  0  0  0
    6.1663    3.4094   -1.5315 C   0  0  0  0  0  0  0  0  0  0  0  0
   -2.4711   -1.0733    1.7858 C   0  0  0  0  0  0  0  0  0  0  0  0
   -2.0937    0.4271   -0.0698 C   0  0  0  0  0  0  0  0  0  0  0  0
    7.1647    3.4962   -2.4128 C   0  0  0  0  0  0  0  0  0  0  0  0
   -3.6818   -0.4352    2.0556 C   0  0  0  0  0  0  0  0  0  0  0  0
   -3.3044    1.0652    0.1998 C   0  0  0  0  0  0  0  0  0  0  0  0
   -4.0983    0.6341    1.2625 C   0  0  0  0  0  0  0  0  0  0  0  0
   -6.1112    1.5391    0.4546 C   0  0  0  0  0  0  0  0  0  0  0  0
   -6.3424    0.5706   -0.5222 C   0  0  0  0  0  0  0  0  0  0  0  0
   -6.7177    2.7910    0.3528 C   0  0  0  0  0  0  0  0  0  0  0  0
   -7.1801    0.8540   -1.6009 C   0  0  0  0  0  0  0  0  0  0  0  0
   -7.5555    3.0744   -0.7258 C   0  0  0  0  0  0  0  0  0  0  0  0
   -7.7866    2.1058   -1.7027 C   0  0  0  0  0  0  0  0  0  0  0  0
    2.9040    0.3647    1.7799 H   0  0  0  0  0  0  0  0  0  0  0  0
    3.1136   -2.1033    1.8563 H   0  0  0  0  0  0  0  0  0  0  0  0
    5.0701   -0.5787    2.4864 H   0  0  0  0  0  0  0  0  0  0  0  0
    2.3321    0.6528   -0.6253 H   0  0  0  0  0  0  0  0  0  0  0  0
    3.9422    0.1297   -1.1067 H   0  0  0  0  0  0  0  0  0  0  0  0
    5.6419   -0.6283    0.8162 H   0  0  0  0  0  0  0  0  0  0  0  0
    4.9233   -2.4954    0.2242 H   0  0  0  0  0  0  0  0  0  0  0  0
    3.9791   -1.8161   -1.1025 H   0  0  0  0  0  0  0  0  0  0  0  0
    3.8417    2.5023   -1.1820 H   0  0  0  0  0  0  0  0  0  0  0  0
    3.3082    2.6233    0.4936 H   0  0  0  0  0  0  0  0  0  0  0  0
    4.9121    1.8963    2.3486 H   0  0  0  0  0  0  0  0  0  0  0  0
    6.5255    1.3480    1.8949 H   0  0  0  0  0  0  0  0  0  0  0  0
    3.8909   -4.2018   -1.2515 H   0  0  0  0  0  0  0  0  0  0  0  0
    3.3623   -4.3590    0.4264 H   0  0  0  0  0  0  0  0  0  0  0  0
    1.5607   -4.3042   -1.5031 H   0  0  0  0  0  0  0  0  0  0  0  0
    5.2285    3.9141   -1.7205 H   0  0  0  0  0  0  0  0  0  0  0  0
   -2.1611   -1.9060    2.4127 H   0  0  0  0  0  0  0  0  0  0  0  0
   -1.4840    0.7779   -0.8992 H   0  0  0  0  0  0  0  0  0  0  0  0
   -2.9032   -1.9837   -0.6439 H   0  0  0  0  0  0  0  0  0  0  0  0
   -3.1871   -3.2657   -1.7255 H   0  0  0  0  0  0  0  0  0  0  0  0
    7.0269    4.0549   -3.3329 H   0  0  0  0  0  0  0  0  0  0  0  0
    8.1275    3.0205   -2.2610 H   0  0  0  0  0  0  0  0  0  0  0  0
   -4.2965   -0.7757    2.8843 H   0  0  0  0  0  0  0  0  0  0  0  0
   -3.5924    1.9100   -0.4202 H   0  0  0  0  0  0  0  0  0  0  0  0
   -5.9002   -0.4200   -0.4563 H   0  0  0  0  0  0  0  0  0  0  0  0
   -6.5407    3.5492    1.1106 H   0  0  0  0  0  0  0  0  0  0  0  0
   -7.3641    0.0983   -2.3591 H   0  0  0  0  0  0  0  0  0  0  0  0
   -8.0279    4.0491   -0.8050 H   0  0  0  0  0  0  0  0  0  0  0  0
   -8.4398    2.3262   -2.5419 H   0  0  0  0  0  0  0  0  0  0  0  0
  1 20  2  0  0  0  0
  2 22  2  0  0  0  0
  3 29  1  0  0  0  0
  3 30  1  0  0  0  0
  4  7  1  0  0  0  0
  4 10  1  0  0  0  0
  4 17  1  0  0  0  0
  5 14  1  0  0  0  0
  5 15  1  0  0  0  0
  5 20  1  0  0  0  0
  6 16  1  0  0  0  0
  6 17  1  0  0  0  0
  6 50  1  0  0  0  0
  7 19  2  0  0  0  0
  8 22  1  0  0  0  0
  8 54  1  0  0  0  0
  8 55  1  0  0  0  0
  9 10  1  0  0  0  0
  9 11  1  0  0  0  0
  9 12  1  0  0  0  0
  9 36  1  0  0  0  0
 10 13  1  0  0  0  0
 10 37  1  0  0  0  0
 11 14  1  0  0  0  0
 11 38  1  0  0  0  0
 11 41  1  0  0  0  0
 12 15  1  0  0  0  0
 12 39  1  0  0  0  0
 12 40  1  0  0  0  0
 13 16  1  0  0  0  0
 13 42  1  0  0  0  0
 13 43  1  0  0  0  0
 14 46  1  0  0  0  0
 14 47  1  0  0  0  0
 15 44  1  0  0  0  0
 15 45  1  0  0  0  0
 16 48  1  0  0  0  0
 16 49  1  0  0  0  0
 17 18  2  0  0  0  0
 18 19  1  0  0  0  0
 18 22  1  0  0  0  0
 19 21  1  0  0  0  0
 20 23  1  0  0  0  0
 21 24  2  0  0  0  0
 21 25  1  0  0  0  0
 23 26  2  0  0  0  0
 23 51  1  0  0  0  0
 24 27  1  0  0  0  0
 24 52  1  0  0  0  0
 25 28  2  0  0  0  0
 25 53  1  0  0  0  0
 26 56  1  0  0  0  0
 26 57  1  0  0  0  0
 27 29  2  0  0  0  0
 27 58  1  0  0  0  0
 28 29  1  0  0  0  0
 28 59  1  0  0  0  0
 30 31  2  0  0  0  0
 30 32  1  0  0  0  0
 31 33  1  0  0  0  0
 31 60  1  0  0  0  0
 32 34  2  0  0  0  0
 32 61  1  0  0  0  0
 33 35  2  0  0  0  0
 33 62  1  0  0  0  0
 34 35  1  0  0  0  0
 34 63  1  0  0  0  0
 35 64  1  0  0  0  0
M  END
> <PUBCHEM_COMPOUND_CID>
135565884

> <PUBCHEM_CONFORMER_RMSD>
1

> <PUBCHEM_CONFORMER_DIVERSEORDER>
3
46
33
26
52
35
16
41
57
7
29
59
2
28
50
5
39
23
55
42
17
60
30
31
47
32
24
43
19
44
51
40
13
38
1
25
11
53
49
58
36
6
4
45
15
9
48
21
22
14
54
56
18
27
10
8
12
34
37
20

> <PUBCHEM_MMFF94_PARTIAL_CHARGES>
46
1 -0.57
10 0.26
14 0.3
15 0.3
16 0.37
17 -0.07
18 -0.09
19 0.23
2 -0.57
20 0.62
21 0.05
22 0.72
23 -0.14
24 -0.15
25 -0.15
26 -0.3
27 -0.15
28 -0.15
29 0.08
3 -0.17
30 0.08
31 -0.15
32 -0.15
33 -0.15
34 -0.15
35 -0.15
4 0.31
5 -0.66
50 0.4
51 0.15
52 0.15
53 0.15
54 0.37
55 0.37
56 0.15
57 0.15
58 0.15
59 0.15
6 -0.85
60 0.15
61 0.15
62 0.15
63 0.15
64 0.15
7 -0.71
8 -0.8

> <PUBCHEM_EFFECTIVE_ROTOR_COUNT>
9

> <PUBCHEM_PHARMACOPHORE_FEATURES>
13
1 1 acceptor
1 2 acceptor
1 26 hydrophobe
1 3 acceptor
1 6 cation
1 6 donor
1 7 acceptor
1 8 donor
5 4 7 17 18 19 rings
6 21 24 25 27 28 29 rings
6 30 31 32 33 34 35 rings
6 4 6 10 13 16 17 rings
6 5 9 11 12 14 15 rings

> <PUBCHEM_HEAVY_ATOM_COUNT>
35

> <PUBCHEM_ATOM_DEF_STEREO_COUNT>
1

> <PUBCHEM_ATOM_UDEF_STEREO_COUNT>
0

> <PUBCHEM_BOND_DEF_STEREO_COUNT>
0

> <PUBCHEM_BOND_UDEF_STEREO_COUNT>
0

> <PUBCHEM_ISOTOPIC_ATOM_COUNT>
0

> <PUBCHEM_COMPONENT_COUNT>
1

> <PUBCHEM_CACTVS_TAUTO_COUNT>
-1

> <PUBCHEM_CONFORMER_ID>
0814923C00000003

> <PUBCHEM_MMFF94_ENERGY>
103.5292

> <PUBCHEM_FEATURE_SELFOVERLAP>
66.088

> <PUBCHEM_SHAPE_FINGERPRINT>
10280341 67 18197210572319879736
10864689 126 18341899627870887576
11135609 187 18129929127473135593
11297010 23 18059860550360199494
11374522 174 18337686259877407076
11374522 72 18186802474168698461
11621639 179 18260841419253233204
11828042 200 17911504704887900879
12061779 8 17533509069820528924
13540713 5 18268974519142748522
1361 2 18270954640688433043
13878862 14 18337662006238738454
13911987 19 18131071528697323913
13947947 140 9943541699230468585
14117953 113 18341894061782389824
14294032 229 18198911490130162715
14747282 540 18260550009384872356
14931854 50 17917999377537028816
15082195 135 18199470952685644915
15131766 46 18043244841936396860
15198563 99 17550670349758376110
15274700 147 17397274197180985661
15350500 55 18113898273288627816
15352257 5 11455593414695970349
15705408 1 16909489701739287007
15803439 3 17275111651473210214
15950262 2 17822016453486371056
16120349 189 18336549407803576148
19053607 189 18410288129694013592
20691028 202 18115869779727165292
21033648 29 17385730175407588619
21033650 10 15410355272757865762
23559900 14 17606141514543593475
23569943 247 10375874070046561781
23576562 1 18342185440241990518
25025965 108 13970357819849537916
27425 322 18259980478997513154
3388396 114 16754942883866963196
3411729 13 18260269638071116568
3552219 110 16884708260169384050
397830 11 18114195133428478627
4169191 19 18261114067418327353
4258327 124 18410856598848376739
44880568 143 18192424179191947893
45377200 153 15050870049932036693
4756326 101 16443608144544045453
504843 32 18338234968378813203
5104073 3 13190927298071811433
57527295 17 14979414884490821922
6058803 2 16984909654454186115
6201320 77 12462448205408757429
6201460 15 11381628094912074468
6327066 14 18411417340840740584

> <PUBCHEM_SHAPE_MULTIPOLES>
677.77
21.88
5.21
1.82
12.86
1.32
-0.16
-32.35
-5.41
-6.01
-3.45
0.15
-0.19
-1.33

> <PUBCHEM_SHAPE_SELFOVERLAP>
1479.918

> <PUBCHEM_SHAPE_VOLUME>
364.3

> <PUBCHEM_COORDINATE_TYPE>
2
5
10

$$$$
