135562692
  -OEChem-03292013293D

 55 60  0     1  0  0  0  0  0999 V2000
    3.9493   -1.5469    0.9367 O   0  0  0  0  0  0  0  0  0  0  0  0
    3.4911   -4.3292   -0.2724 O   0  0  0  0  0  0  0  0  0  0  0  0
    6.6800   -0.9596    0.8055 O   0  0  0  0  0  0  0  0  0  0  0  0
    1.4817    4.3061   -0.1982 O   0  0  0  0  0  0  0  0  0  0  0  0
    2.1156   -0.1567    0.1110 N   0  0  0  0  0  0  0  0  0  0  0  0
   -0.1826   -0.8458    0.1319 N   0  0  0  0  0  0  0  0  0  0  0  0
    0.5939    1.4772   -0.0169 N   0  0  0  0  0  0  0  0  0  0  0  0
    4.1613    1.1356    0.0468 N   0  0  0  0  0  0  0  0  0  0  0  0
    3.6619    3.4732   -0.1171 N   0  0  0  0  0  0  0  0  0  0  0  0
    5.8921    2.7219   -0.0410 N   0  0  0  0  0  0  0  0  0  0  0  0
    2.7050   -1.5411    0.2122 C   0  0  1  0  0  0  0  0  0  0  0  0
    2.9968   -2.1676   -1.1469 C   0  0  0  0  0  0  0  0  0  0  0  0
    4.0914   -3.1534   -0.8107 C   0  0  1  0  0  0  0  0  0  0  0  0
    4.8761   -2.4347    0.2792 C   0  0  1  0  0  0  0  0  0  0  0  0
    6.0189   -1.5946   -0.2748 C   0  0  0  0  0  0  0  0  0  0  0  0
    0.7833    0.1754    0.0735 C   0  0  0  0  0  0  0  0  0  0  0  0
    2.8157    1.0115    0.0399 C   0  0  0  0  0  0  0  0  0  0  0  0
    1.8563    1.9921   -0.0374 C   0  0  0  0  0  0  0  0  0  0  0  0
   -3.6524    0.3692    0.0081 C   0  0  0  0  0  0  0  0  0  0  0  0
   -1.5950   -0.8272    0.1150 C   0  0  0  0  0  0  0  0  0  0  0  0
   -4.3716   -0.8447    0.0821 C   0  0  0  0  0  0  0  0  0  0  0  0
   -4.6035    1.5441   -0.0846 C   0  0  0  0  0  0  0  0  0  0  0  0
   -5.7872   -0.5465    0.0441 C   0  0  0  0  0  0  0  0  0  0  0  0
   -5.9509    0.8536   -0.0540 C   0  0  0  0  0  0  0  0  0  0  0  0
   -2.2688    0.3922    0.0237 C   0  0  0  0  0  0  0  0  0  0  0  0
    2.2641    3.3670   -0.1258 C   0  0  0  0  0  0  0  0  0  0  0  0
   -2.3049   -2.0381    0.1886 C   0  0  0  0  0  0  0  0  0  0  0  0
   -3.7030   -2.0541    0.1729 C   0  0  0  0  0  0  0  0  0  0  0  0
    4.5633    2.3855   -0.0332 C   0  0  0  0  0  0  0  0  0  0  0  0
   -6.8904   -1.3825    0.0871 C   0  0  0  0  0  0  0  0  0  0  0  0
   -7.2066    1.4324   -0.1099 C   0  0  0  0  0  0  0  0  0  0  0  0
   -8.3185    0.5895   -0.0666 C   0  0  0  0  0  0  0  0  0  0  0  0
   -8.1621   -0.8040    0.0311 C   0  0  0  0  0  0  0  0  0  0  0  0
    2.0093   -2.1417    0.8058 H   0  0  0  0  0  0  0  0  0  0  0  0
    3.3718   -1.4144   -1.8497 H   0  0  0  0  0  0  0  0  0  0  0  0
    2.1013   -2.6268   -1.5770 H   0  0  0  0  0  0  0  0  0  0  0  0
    4.6907   -3.4463   -1.6775 H   0  0  0  0  0  0  0  0  0  0  0  0
    5.2535   -3.1220    1.0446 H   0  0  0  0  0  0  0  0  0  0  0  0
    5.6634   -0.8212   -0.9610 H   0  0  0  0  0  0  0  0  0  0  0  0
    6.7418   -2.2271   -0.7999 H   0  0  0  0  0  0  0  0  0  0  0  0
    4.2108   -4.9308   -0.0160 H   0  0  0  0  0  0  0  0  0  0  0  0
    0.1613   -1.8020    0.1684 H   0  0  0  0  0  0  0  0  0  0  0  0
   -4.4647    2.0815   -1.0272 H   0  0  0  0  0  0  0  0  0  0  0  0
   -4.4873    2.2056    0.7787 H   0  0  0  0  0  0  0  0  0  0  0  0
   -1.7690    1.3495   -0.0357 H   0  0  0  0  0  0  0  0  0  0  0  0
    7.4053   -0.4332    0.4283 H   0  0  0  0  0  0  0  0  0  0  0  0
   -1.7718   -2.9838    0.2593 H   0  0  0  0  0  0  0  0  0  0  0  0
   -4.2371   -2.9967    0.2306 H   0  0  0  0  0  0  0  0  0  0  0  0
    4.0591    4.4065   -0.1757 H   0  0  0  0  0  0  0  0  0  0  0  0
   -7.3289    2.5072   -0.1853 H   0  0  0  0  0  0  0  0  0  0  0  0
   -6.7856   -2.4596    0.1622 H   0  0  0  0  0  0  0  0  0  0  0  0
   -9.3181    1.0140   -0.1087 H   0  0  0  0  0  0  0  0  0  0  0  0
   -9.0433   -1.4396    0.0632 H   0  0  0  0  0  0  0  0  0  0  0  0
    6.6134    2.0111    0.0147 H   0  0  0  0  0  0  0  0  0  0  0  0
    6.1929    3.6884   -0.1031 H   0  0  0  0  0  0  0  0  0  0  0  0
  1 11  1  0  0  0  0
  1 14  1  0  0  0  0
  2 13  1  0  0  0  0
  2 41  1  0  0  0  0
  3 15  1  0  0  0  0
  3 46  1  0  0  0  0
  4 26  2  0  0  0  0
  5 11  1  0  0  0  0
  5 16  1  0  0  0  0
  5 17  1  0  0  0  0
  6 16  1  0  0  0  0
  6 20  1  0  0  0  0
  6 42  1  0  0  0  0
  7 16  2  0  0  0  0
  7 18  1  0  0  0  0
  8 17  1  0  0  0  0
  8 29  2  0  0  0  0
  9 26  1  0  0  0  0
  9 29  1  0  0  0  0
  9 49  1  0  0  0  0
 10 29  1  0  0  0  0
 10 54  1  0  0  0  0
 10 55  1  0  0  0  0
 11 12  1  0  0  0  0
 11 34  1  0  0  0  0
 12 13  1  0  0  0  0
 12 35  1  0  0  0  0
 12 36  1  0  0  0  0
 13 14  1  0  0  0  0
 13 37  1  0  0  0  0
 14 15  1  0  0  0  0
 14 38  1  0  0  0  0
 15 39  1  0  0  0  0
 15 40  1  0  0  0  0
 17 18  2  0  0  0  0
 18 26  1  0  0  0  0
 19 21  2  0  0  0  0
 19 22  1  0  0  0  0
 19 25  1  0  0  0  0
 20 25  2  0  0  0  0
 20 27  1  0  0  0  0
 21 23  1  0  0  0  0
 21 28  1  0  0  0  0
 22 24  1  0  0  0  0
 22 43  1  0  0  0  0
 22 44  1  0  0  0  0
 23 24  1  0  0  0  0
 23 30  2  0  0  0  0
 24 31  2  0  0  0  0
 25 45  1  0  0  0  0
 27 28  2  0  0  0  0
 27 47  1  0  0  0  0
 28 48  1  0  0  0  0
 30 33  1  0  0  0  0
 30 51  1  0  0  0  0
 31 32  1  0  0  0  0
 31 50  1  0  0  0  0
 32 33  2  0  0  0  0
 32 52  1  0  0  0  0
 33 53  1  0  0  0  0
M  END
> <PUBCHEM_COMPOUND_CID>
135562692

> <PUBCHEM_CONFORMER_RMSD>
0.8

> <PUBCHEM_CONFORMER_DIVERSEORDER>
1
61
81
58
82
17
41
50
70
3
59
11
19
78
91
85
16
69
45
74
26
76
2
28
25
65
39
9
90
34
44
73
67
92
35
89
62
80
51
86
60
84
38
71
47
37
52
36
57
23
20
87
43
72
48
15
18
63
66
88
5
40
24
8
77
33
31
7
64
6
12
53
30
13
27
79
54
21
55
56
4
42
29
75
32
10
68
83
14
46
49
22

> <PUBCHEM_MMFF94_PARTIAL_CHARGES>
43
1 -0.56
10 -0.85
11 0.54
13 0.28
14 0.28
15 0.28
16 0.27
17 -0.03
18 0.14
19 -0.14
2 -0.68
20 0.1
22 0.29
24 -0.14
25 -0.15
26 0.72
27 -0.15
28 -0.15
29 0.56
3 -0.68
30 -0.15
31 -0.15
32 -0.15
33 -0.15
4 -0.57
41 0.4
42 0.4
45 0.15
46 0.4
47 0.15
48 0.15
49 0.37
5 0.05
50 0.15
51 0.15
52 0.15
53 0.15
54 0.4
55 0.4
6 -0.58
7 -0.57
8 -0.58
9 -0.49

> <PUBCHEM_EFFECTIVE_ROTOR_COUNT>
5.2

> <PUBCHEM_PHARMACOPHORE_FEATURES>
16
1 1 acceptor
1 10 donor
1 2 acceptor
1 2 donor
1 3 acceptor
1 3 donor
1 4 acceptor
1 6 donor
1 9 donor
4 5 6 7 16 cation
5 1 11 12 13 14 rings
5 19 21 22 23 24 rings
5 5 7 16 17 18 rings
6 19 20 21 25 27 28 rings
6 23 24 30 31 32 33 rings
6 8 9 17 18 26 29 rings

> <PUBCHEM_HEAVY_ATOM_COUNT>
33

> <PUBCHEM_ATOM_DEF_STEREO_COUNT>
3

> <PUBCHEM_ATOM_UDEF_STEREO_COUNT>
0

> <PUBCHEM_BOND_DEF_STEREO_COUNT>
0

> <PUBCHEM_BOND_UDEF_STEREO_COUNT>
0

> <PUBCHEM_ISOTOPIC_ATOM_COUNT>
0

> <PUBCHEM_COMPONENT_COUNT>
1

> <PUBCHEM_CACTVS_TAUTO_COUNT>
-1

> <PUBCHEM_CONFORMER_ID>
081485C400000001

> <PUBCHEM_MMFF94_ENERGY>
105.1717

> <PUBCHEM_FEATURE_SELFOVERLAP>
81.548

> <PUBCHEM_SHAPE_FINGERPRINT>
10050765 1 18265615562348049579
10411042 1 18194683653906338886
10595046 47 18270399512065513093
11135609 187 18193564591698350656
11135926 11 18339068410739719348
11719270 70 18341047506221145672
12107183 9 18126012559713041897
12166972 35 18201436944101123873
12516196 113 18338797814851787414
12788726 201 17489318477459882705
13533116 47 18273213093132166307
13782708 43 17968096379047448051
13785724 45 18055361240583049518
14117953 113 18343305834543935478
15183329 4 18340774758491470787
15361156 5 18114190773630802431
15439362 3 18263928924685768604
15484559 13 18341905104101604206
1577012 14 18131359596802463073
17844677 252 18411424982109546321
18335252 98 18337114596490149403
18681886 176 18412819170990346843
19301679 30 18048589319073128346
20157964 124 18412265055942395257
20721686 56 18334297591585462177
21033648 29 17841700014095583208
21133410 127 17824254028648733461
21315764 268 18335136480318645413
21344244 78 18201145581983311896
21781055 127 16629703781236741011
21859007 373 17677597693243356453
23559900 14 18411695483234027195
24771750 20 18189347929781394380
249057 25 17846505807990281689
249057 3 18411699880990576119
255183 451 18128827352419200614
3004659 81 18335421248722726211
3103668 31 17828484669923576389
335352 9 18409730655469771422
3411729 13 18335137648454589656
3633792 109 18341050731720479601
4073 2 18041564762067003427
4098825 35 18409728474164318603
4144715 1 18260838124574791211
4149490 64 18335703896790265011
5104073 3 18335147509868196619
59755656 215 18337958986174436572
6695519 79 17550690128028974785
9658208 31 17095814299475795107
9962374 69 18340479054526011527

> <PUBCHEM_SHAPE_MULTIPOLES>
625.76
20.97
4.3
0.7
29.58
1.45
0.04
-2.27
-0.26
-8.56
0.51
-0.36
-0.22
0.41

> <PUBCHEM_SHAPE_SELFOVERLAP>
1406.178

> <PUBCHEM_SHAPE_VOLUME>
326.2

> <PUBCHEM_COORDINATE_TYPE>
2
5
10

$$$$
