135554419
  -OEChem-03292013293D

 40 42  0     1  0  0  0  0  0999 V2000
    2.2147    0.8399    1.0359 O   0  0  0  0  0  0  0  0  0  0  0  0
    1.4256   -2.2415   -0.6558 O   0  0  0  0  0  0  0  0  0  0  0  0
    3.6197   -1.8431    0.9567 O   0  0  0  0  0  0  0  0  0  0  0  0
    3.9879    2.8093    0.1256 O   0  0  0  0  0  0  0  0  0  0  0  0
   -0.0484    0.4827    0.1944 N   0  0  0  0  0  0  0  0  0  0  0  0
   -1.6274   -1.2205    0.8158 N   0  0  0  0  0  0  0  0  0  0  0  0
   -1.4561    2.0056   -0.6412 N   0  0  0  0  0  0  0  0  0  0  0  0
   -3.9700   -0.5454    0.2555 N   0  0  0  0  0  0  0  0  0  0  0  0
   -4.2903    1.6472   -0.7626 N   0  0  0  0  0  0  0  0  0  0  0  0
    1.9305   -0.9292   -0.5103 C   0  0  1  0  0  0  0  0  0  0  0  0
    1.2556   -0.1523    0.6154 C   0  0  1  0  0  0  0  0  0  0  0  0
    3.3852   -0.8977   -0.0859 C   0  0  1  0  0  0  0  0  0  0  0  0
    3.5161    0.4990    0.5081 C   0  0  1  0  0  0  0  0  0  0  0  0
    3.9035    1.5517   -0.5214 C   0  0  0  0  0  0  0  0  0  0  0  0
   -1.3006   -0.0315    0.3042 C   0  0  0  0  0  0  0  0  0  0  0  0
   -0.1935    1.7199   -0.3840 C   0  0  0  0  0  0  0  0  0  0  0  0
   -2.1515    0.9064   -0.2104 C   0  0  0  0  0  0  0  0  0  0  0  0
   -3.0481   -1.5528    0.8451 C   0  0  0  0  0  0  0  0  0  0  0  0
   -3.5772    0.6949   -0.2602 C   0  0  0  0  0  0  0  0  0  0  0  0
    1.8056   -2.8205   -1.9002 C   0  0  0  0  0  0  0  0  0  0  0  0
   -5.3815   -0.9221    0.2752 C   0  0  0  0  0  0  0  0  0  0  0  0
    1.8046   -0.3734   -1.4501 H   0  0  0  0  0  0  0  0  0  0  0  0
    1.0132   -0.7810    1.4800 H   0  0  0  0  0  0  0  0  0  0  0  0
    4.0871   -1.1098   -0.8973 H   0  0  0  0  0  0  0  0  0  0  0  0
    4.2144    0.5316    1.3522 H   0  0  0  0  0  0  0  0  0  0  0  0
    3.1526    1.6369   -1.3130 H   0  0  0  0  0  0  0  0  0  0  0  0
    4.8752    1.3209   -0.9688 H   0  0  0  0  0  0  0  0  0  0  0  0
    0.6489    2.3638   -0.5962 H   0  0  0  0  0  0  0  0  0  0  0  0
    4.5522   -1.7604    1.2200 H   0  0  0  0  0  0  0  0  0  0  0  0
   -0.9603   -1.8924    1.1809 H   0  0  0  0  0  0  0  0  0  0  0  0
   -3.1832   -2.5022    0.3140 H   0  0  0  0  0  0  0  0  0  0  0  0
   -3.3363   -1.7171    1.8899 H   0  0  0  0  0  0  0  0  0  0  0  0
    1.3768   -3.8250   -1.9519 H   0  0  0  0  0  0  0  0  0  0  0  0
    2.8931   -2.9060   -1.9770 H   0  0  0  0  0  0  0  0  0  0  0  0
    1.4103   -2.2334   -2.7349 H   0  0  0  0  0  0  0  0  0  0  0  0
    4.2389    3.4628   -0.5492 H   0  0  0  0  0  0  0  0  0  0  0  0
   -5.7901   -0.9151   -0.7404 H   0  0  0  0  0  0  0  0  0  0  0  0
   -5.5297   -1.9264    0.6864 H   0  0  0  0  0  0  0  0  0  0  0  0
   -5.9515   -0.2205    0.8928 H   0  0  0  0  0  0  0  0  0  0  0  0
   -5.2813    1.3891   -0.7483 H   0  0  0  0  0  0  0  0  0  0  0  0
  1 11  1  0  0  0  0
  1 13  1  0  0  0  0
  2 10  1  0  0  0  0
  2 20  1  0  0  0  0
  3 12  1  0  0  0  0
  3 29  1  0  0  0  0
  4 14  1  0  0  0  0
  4 36  1  0  0  0  0
  5 11  1  0  0  0  0
  5 15  1  0  0  0  0
  5 16  1  0  0  0  0
  6 15  1  0  0  0  0
  6 18  1  0  0  0  0
  6 30  1  0  0  0  0
  7 16  2  0  0  0  0
  7 17  1  0  0  0  0
  8 18  1  0  0  0  0
  8 19  1  0  0  0  0
  8 21  1  0  0  0  0
  9 19  2  0  0  0  0
  9 40  1  0  0  0  0
 10 11  1  0  0  0  0
 10 12  1  0  0  0  0
 10 22  1  0  0  0  0
 11 23  1  0  0  0  0
 12 13  1  0  0  0  0
 12 24  1  0  0  0  0
 13 14  1  0  0  0  0
 13 25  1  0  0  0  0
 14 26  1  0  0  0  0
 14 27  1  0  0  0  0
 15 17  2  0  0  0  0
 16 28  1  0  0  0  0
 17 19  1  0  0  0  0
 18 31  1  0  0  0  0
 18 32  1  0  0  0  0
 20 33  1  0  0  0  0
 20 34  1  0  0  0  0
 20 35  1  0  0  0  0
 21 37  1  0  0  0  0
 21 38  1  0  0  0  0
 21 39  1  0  0  0  0
M  END
> <PUBCHEM_COMPOUND_CID>
135554419

> <PUBCHEM_CONFORMER_RMSD>
0.8

> <PUBCHEM_CONFORMER_DIVERSEORDER>
1
5
6
10
9
7
8
2
11
3
4

> <PUBCHEM_MMFF94_PARTIAL_CHARGES>
26
1 -0.56
10 0.28
11 0.54
12 0.28
13 0.28
14 0.28
15 -0.07
16 0.04
17 0.14
18 0.74
19 0.59
2 -0.56
20 0.28
21 0.37
28 0.15
29 0.4
3 -0.68
30 0.4
36 0.4
4 -0.68
40 0.4
5 0.05
6 -0.85
7 -0.57
8 -0.79
9 -0.85

> <PUBCHEM_EFFECTIVE_ROTOR_COUNT>
4.6

> <PUBCHEM_PHARMACOPHORE_FEATURES>
14
1 1 acceptor
1 2 acceptor
1 3 acceptor
1 3 donor
1 4 acceptor
1 4 donor
1 6 cation
1 6 donor
1 9 donor
3 5 7 16 cation
3 8 9 19 cation
5 1 10 11 12 13 rings
5 5 7 15 16 17 rings
6 6 8 15 17 18 19 rings

> <PUBCHEM_HEAVY_ATOM_COUNT>
21

> <PUBCHEM_ATOM_DEF_STEREO_COUNT>
4

> <PUBCHEM_ATOM_UDEF_STEREO_COUNT>
0

> <PUBCHEM_BOND_DEF_STEREO_COUNT>
0

> <PUBCHEM_BOND_UDEF_STEREO_COUNT>
0

> <PUBCHEM_ISOTOPIC_ATOM_COUNT>
0

> <PUBCHEM_COMPONENT_COUNT>
1

> <PUBCHEM_CACTVS_TAUTO_COUNT>
-1

> <PUBCHEM_CONFORMER_ID>
0814657300000001

> <PUBCHEM_MMFF94_ENERGY>
56.5312

> <PUBCHEM_FEATURE_SELFOVERLAP>
71.18

> <PUBCHEM_SHAPE_FINGERPRINT>
10366900 7 17918276484678951889
10608611 8 18335698312889576816
10616163 171 18338518641692418502
10871710 139 17328870305998634916
10906281 52 18116732870399841401
12403259 226 18116707409780748812
12633257 1 18265616472553315576
13224815 77 18413394223892043334
13296908 3 18334294253868072993
13544592 145 18051136895707876575
14115302 16 16226054417884105363
14178342 30 17841432531952750994
15196674 1 18334010584310922993
15219456 202 18411417302053886849
15375358 24 18408039615471520355
15635459 17 18340776965767518431
15961568 22 17676773170849387100
18186145 218 17240758458693279865
19141452 34 18342460370410980883
200 152 17703501104413405283
20645477 70 18342458118998661910
21267235 1 18261399944139755051
23402539 116 18187355485287675751
23557571 272 18260556610178626605
23558518 356 17983024349179756753
23559900 14 18336823074893667802
3060560 45 18273218586827913372
44154327 71 18339364179430355092
474 4 16588314959373950188
495365 180 17916564506119488904
5104073 3 18333731299630682913
58051976 378 18339357474849288316
6669772 16 17988371464147983782
7364860 26 18192436483529309077
81228 2 18043548135072495681
9709674 26 18339645521041884215

> <PUBCHEM_SHAPE_MULTIPOLES>
383.79
9.17
2.65
1.06
5.26
0.31
-0.21
-0.76
0.53
-1.95
-0.89
-0.38
0.54
1.13

> <PUBCHEM_SHAPE_SELFOVERLAP>
814.788

> <PUBCHEM_SHAPE_VOLUME>
214

> <PUBCHEM_COORDINATE_TYPE>
2
5
10

$$$$
