135508868
  -OEChem-03292013293D

 33 35  0     1  0  0  0  0  0999 V2000
    3.5402   -1.1897   -0.2938 P   0  0  0  0  0  0  0  0  0  0  0  0
    1.6058    0.4782   -0.5280 O   0  0  0  0  0  0  0  0  0  0  0  0
    3.7457    1.3699   -0.1558 O   0  0  0  0  0  0  0  0  0  0  0  0
    2.7472   -2.2283   -1.2425 O   0  0  0  0  0  0  0  0  0  0  0  0
    5.0608   -1.2716   -0.8308 O   0  0  0  0  0  0  0  0  0  0  0  0
    3.3667   -1.4037    1.1781 O   0  0  0  0  0  0  0  0  0  0  0  0
   -4.8410   -0.1313   -1.2292 O   0  0  0  0  0  0  0  0  0  0  0  0
   -0.9789    1.4363    0.5148 N   0  0  0  0  0  0  0  0  0  0  0  0
   -2.8255    1.9670   -0.6299 N   0  0  0  0  0  0  0  0  0  0  0  0
   -1.3497   -0.9268    0.8850 N   0  0  0  0  0  0  0  0  0  0  0  0
   -3.4286   -1.6046   -0.0942 N   0  0  0  0  0  0  0  0  0  0  0  0
   -2.0664   -3.1595    1.0327 N   0  0  0  0  0  0  0  0  0  0  0  0
    1.4975    1.6938    0.2168 C   0  0  1  0  0  0  0  0  0  0  0  0
    0.3519    1.6143    1.2032 C   0  0  0  0  0  0  0  0  0  0  0  0
    2.8559    1.8258    0.8638 C   0  0  0  0  0  0  0  0  0  0  0  0
    2.9859    0.4025   -0.8787 C   0  0  1  0  0  0  0  0  0  0  0  0
   -1.6995    0.2844    0.3983 C   0  0  0  0  0  0  0  0  0  0  0  0
   -1.6973    2.4204   -0.1195 C   0  0  0  0  0  0  0  0  0  0  0  0
   -2.8231    0.6422   -0.3068 C   0  0  0  0  0  0  0  0  0  0  0  0
   -3.8106   -0.3571   -0.6074 C   0  0  0  0  0  0  0  0  0  0  0  0
   -2.2369   -1.8622    0.6240 C   0  0  0  0  0  0  0  0  0  0  0  0
    1.3392    2.5017   -0.5089 H   0  0  0  0  0  0  0  0  0  0  0  0
    0.2537    2.5294    1.7971 H   0  0  0  0  0  0  0  0  0  0  0  0
    0.4495    0.7575    1.8786 H   0  0  0  0  0  0  0  0  0  0  0  0
    3.0970    2.8539    1.1472 H   0  0  0  0  0  0  0  0  0  0  0  0
    2.9708    1.1802    1.7406 H   0  0  0  0  0  0  0  0  0  0  0  0
    3.1212    0.5382   -1.9554 H   0  0  0  0  0  0  0  0  0  0  0  0
   -1.3472    3.4420   -0.1754 H   0  0  0  0  0  0  0  0  0  0  0  0
    5.6029   -2.0575   -0.6059 H   0  0  0  0  0  0  0  0  0  0  0  0
    2.8615   -3.1910   -1.0935 H   0  0  0  0  0  0  0  0  0  0  0  0
   -4.0585   -2.3861   -0.2510 H   0  0  0  0  0  0  0  0  0  0  0  0
   -1.2434   -3.4418    1.5537 H   0  0  0  0  0  0  0  0  0  0  0  0
   -2.7560   -3.8740    0.8267 H   0  0  0  0  0  0  0  0  0  0  0  0
  1  4  1  0  0  0  0
  1  5  1  0  0  0  0
  1  6  2  0  0  0  0
  1 16  1  0  0  0  0
  2 13  1  0  0  0  0
  2 16  1  0  0  0  0
  3 15  1  0  0  0  0
  3 16  1  0  0  0  0
  4 30  1  0  0  0  0
  5 29  1  0  0  0  0
  7 20  2  0  0  0  0
  8 14  1  0  0  0  0
  8 17  1  0  0  0  0
  8 18  1  0  0  0  0
  9 18  2  0  0  0  0
  9 19  1  0  0  0  0
 10 17  1  0  0  0  0
 10 21  2  0  0  0  0
 11 20  1  0  0  0  0
 11 21  1  0  0  0  0
 11 31  1  0  0  0  0
 12 21  1  0  0  0  0
 12 32  1  0  0  0  0
 12 33  1  0  0  0  0
 13 14  1  0  0  0  0
 13 15  1  0  0  0  0
 13 22  1  0  0  0  0
 14 23  1  0  0  0  0
 14 24  1  0  0  0  0
 15 25  1  0  0  0  0
 15 26  1  0  0  0  0
 16 27  1  0  0  0  0
 17 19  2  0  0  0  0
 18 28  1  0  0  0  0
 19 20  1  0  0  0  0
M  END
> <PUBCHEM_COMPOUND_CID>
135508868

> <PUBCHEM_CONFORMER_RMSD>
0.6

> <PUBCHEM_CONFORMER_DIVERSEORDER>
1
3
14
35
4
32
25
39
27
17
23
13
40
44
6
11
20
2
33
28
22
43
8
36
10
9
29
19
21
7
12
42
30
18
31
38
41
5
24
34
26
37
16
15

> <PUBCHEM_MMFF94_PARTIAL_CHARGES>
27
1 1.24
10 -0.58
11 -0.49
12 -0.85
13 0.28
14 0.26
15 0.28
16 0.56
17 -0.03
18 0.04
19 0.14
2 -0.56
20 0.72
21 0.56
28 0.15
29 0.5
3 -0.56
30 0.5
31 0.37
32 0.4
33 0.4
4 -0.77
5 -0.77
6 -0.7
7 -0.57
8 0.05
9 -0.57

> <PUBCHEM_EFFECTIVE_ROTOR_COUNT>
4

> <PUBCHEM_PHARMACOPHORE_FEATURES>
13
1 11 donor
1 12 donor
1 2 acceptor
1 3 acceptor
1 4 acceptor
1 5 acceptor
1 6 acceptor
1 7 acceptor
3 8 9 18 cation
4 1 4 5 6 anion
5 2 3 13 15 16 rings
5 8 9 17 18 19 rings
6 10 11 17 19 20 21 rings

> <PUBCHEM_HEAVY_ATOM_COUNT>
21

> <PUBCHEM_ATOM_DEF_STEREO_COUNT>
2

> <PUBCHEM_ATOM_UDEF_STEREO_COUNT>
0

> <PUBCHEM_BOND_DEF_STEREO_COUNT>
0

> <PUBCHEM_BOND_UDEF_STEREO_COUNT>
0

> <PUBCHEM_ISOTOPIC_ATOM_COUNT>
0

> <PUBCHEM_COMPONENT_COUNT>
1

> <PUBCHEM_CACTVS_TAUTO_COUNT>
-1

> <PUBCHEM_CONFORMER_ID>
0813B38400000001

> <PUBCHEM_MMFF94_ENERGY>
7.6302

> <PUBCHEM_FEATURE_SELFOVERLAP>
66.229

> <PUBCHEM_SHAPE_FINGERPRINT>
10366900 7 18200876278754123560
10616163 171 18265900331273798318
10693767 8 18128509709876604247
12363563 72 17918280830996249940
12553582 1 18341347633766153680
12596602 18 15051442851596090742
13544592 145 18410570700013471501
14341114 328 12247382515170565918
14931854 50 18263645073948715070
15163728 17 15938080082397814591
15635459 17 18271529779300188814
15880784 105 16558741313401027766
16752209 62 18262786377153026801
200 152 17632295691948156029
20645477 70 18343016739598369852
20693207 138 18412547604613983796
21665056 4 18262805043007055017
221490 88 18340214080686564208
23557571 272 18043247053295571073
23559900 14 18338230565715302008
2748010 2 17686888832775531313
2871803 45 18410574015564492340
3004659 81 18335698321526744012
4280585 95 18049733923751845054
463206 1 18130497643340818879
4921388 177 17240776119730585883
58051976 378 18335701706335896276
8809292 202 18411706452227014536
9709674 26 18411418444610256480

> <PUBCHEM_SHAPE_MULTIPOLES>
375.9
8.69
2.91
1.11
2.51
0.81
-0.05
3
2.65
-0.23
-0.52
0.13
0.22
1.14

> <PUBCHEM_SHAPE_SELFOVERLAP>
796.999

> <PUBCHEM_SHAPE_VOLUME>
212.8

> <PUBCHEM_COORDINATE_TYPE>
2
5
10

$$$$
