135539077
  -OEChem-03292013293D

 65 68  0     0  0  0  0  0  0999 V2000
   -6.6739    1.5929    0.1717 O   0  0  0  0  0  0  0  0  0  0  0  0
    3.5156   -1.4277    0.1194 O   0  0  0  0  0  0  0  0  0  0  0  0
   -1.2703   -5.4653   -0.4770 O   0  0  0  0  0  0  0  0  0  0  0  0
    2.5171   -3.0958   -2.0992 O   0  0  0  0  0  0  0  0  0  0  0  0
    3.0228    3.0448   -0.0524 O   0  0  0  0  0  0  0  0  0  0  0  0
   -3.9731    2.4132   -0.1960 N   0  0  0  0  0  0  0  0  0  0  0  0
    4.2629   -0.2594    0.2059 N   0  0  0  0  0  0  0  0  0  0  0  0
    5.2008    2.3241    0.2851 N   0  0  0  0  0  0  0  0  0  0  0  0
   -4.5021    1.2011   -0.8367 C   0  0  0  0  0  0  0  0  0  0  0  0
   -5.0530    3.3900    0.0021 C   0  0  0  0  0  0  0  0  0  0  0  0
   -2.8909    2.9902   -0.9908 C   0  0  0  0  0  0  0  0  0  0  0  0
   -6.1750    2.7616    0.8235 C   0  0  0  0  0  0  0  0  0  0  0  0
   -5.6379    0.6244    0.0036 C   0  0  0  0  0  0  0  0  0  0  0  0
   -1.5873    2.2705   -0.7690 C   0  0  0  0  0  0  0  0  0  0  0  0
    0.8279    0.9360   -0.3580 C   0  0  0  0  0  0  0  0  0  0  0  0
    2.0714    0.2498   -0.1475 C   0  0  0  0  0  0  0  0  0  0  0  0
   -0.8567    2.4941    0.3981 C   0  0  0  0  0  0  0  0  0  0  0  0
   -1.1103    1.3795   -1.7305 C   0  0  0  0  0  0  0  0  0  0  0  0
   -1.7209   -3.5605    1.6027 C   0  0  0  0  0  0  0  0  0  0  0  0
   -0.6018   -3.4426    0.6213 C   0  0  0  0  0  0  0  0  0  0  0  0
    2.2123   -1.1116   -0.0910 C   0  0  0  0  0  0  0  0  0  0  0  0
    1.3228   -2.2344   -0.1992 C   0  0  0  0  0  0  0  0  0  0  0  0
    0.3508    1.8267    0.6036 C   0  0  0  0  0  0  0  0  0  0  0  0
    0.0971    0.7123   -1.5250 C   0  0  0  0  0  0  0  0  0  0  0  0
    0.2725   -2.3593    0.7100 C   0  0  0  0  0  0  0  0  0  0  0  0
    3.3788    0.7292    0.0434 C   0  0  0  0  0  0  0  0  0  0  0  0
   -0.4257   -4.4011   -0.3767 C   0  0  0  0  0  0  0  0  0  0  0  0
    1.4988   -3.1929   -1.1973 C   0  0  0  0  0  0  0  0  0  0  0  0
   -1.2189   -3.7119    3.0504 C   0  0  0  0  0  0  0  0  0  0  0  0
   -2.7087   -2.3828    1.5110 C   0  0  0  0  0  0  0  0  0  0  0  0
    0.6246   -4.2762   -1.2861 C   0  0  0  0  0  0  0  0  0  0  0  0
    3.8271    2.0921    0.0773 C   0  0  0  0  0  0  0  0  0  0  0  0
    5.8010    3.6363    0.3669 C   0  0  0  0  0  0  0  0  0  0  0  0
    5.6023    4.2526    1.7363 C   0  0  0  0  0  0  0  0  0  0  0  0
   -5.4486    3.7198   -0.9674 H   0  0  0  0  0  0  0  0  0  0  0  0
   -3.7270    0.4333   -0.9310 H   0  0  0  0  0  0  0  0  0  0  0  0
   -4.8777    1.4322   -1.8421 H   0  0  0  0  0  0  0  0  0  0  0  0
   -4.6786    4.2714    0.5353 H   0  0  0  0  0  0  0  0  0  0  0  0
   -3.1433    3.0316   -2.0592 H   0  0  0  0  0  0  0  0  0  0  0  0
   -2.7198    4.0363   -0.6990 H   0  0  0  0  0  0  0  0  0  0  0  0
   -6.0729   -0.2432   -0.5028 H   0  0  0  0  0  0  0  0  0  0  0  0
   -5.2845    0.2911    0.9871 H   0  0  0  0  0  0  0  0  0  0  0  0
   -5.8396    2.5017    1.8350 H   0  0  0  0  0  0  0  0  0  0  0  0
   -7.0057    3.4679    0.9215 H   0  0  0  0  0  0  0  0  0  0  0  0
   -1.2190    3.1839    1.1558 H   0  0  0  0  0  0  0  0  0  0  0  0
   -1.6691    1.1968   -2.6445 H   0  0  0  0  0  0  0  0  0  0  0  0
   -2.3092   -4.4623    1.3932 H   0  0  0  0  0  0  0  0  0  0  0  0
    0.9002    2.0072    1.5246 H   0  0  0  0  0  0  0  0  0  0  0  0
    0.4539    0.0281   -2.2912 H   0  0  0  0  0  0  0  0  0  0  0  0
    0.1409   -1.6128    1.4902 H   0  0  0  0  0  0  0  0  0  0  0  0
   -2.2437   -1.4323    1.7943 H   0  0  0  0  0  0  0  0  0  0  0  0
   -3.5636   -2.5454    2.1764 H   0  0  0  0  0  0  0  0  0  0  0  0
   -0.6936   -2.8164    3.3993 H   0  0  0  0  0  0  0  0  0  0  0  0
   -3.0933   -2.2756    0.4905 H   0  0  0  0  0  0  0  0  0  0  0  0
   -0.5306   -4.5601    3.1367 H   0  0  0  0  0  0  0  0  0  0  0  0
   -2.0586   -3.8903    3.7309 H   0  0  0  0  0  0  0  0  0  0  0  0
    0.7612   -5.0238   -2.0638 H   0  0  0  0  0  0  0  0  0  0  0  0
    5.8133    1.5213    0.3981 H   0  0  0  0  0  0  0  0  0  0  0  0
   -0.9937   -6.0215   -1.2253 H   0  0  0  0  0  0  0  0  0  0  0  0
    2.4749   -3.8503   -2.7113 H   0  0  0  0  0  0  0  0  0  0  0  0
    6.8676    3.5250    0.1490 H   0  0  0  0  0  0  0  0  0  0  0  0
    5.3543    4.2754   -0.4018 H   0  0  0  0  0  0  0  0  0  0  0  0
    6.0364    3.6190    2.5170 H   0  0  0  0  0  0  0  0  0  0  0  0
    6.0820    5.2349    1.7859 H   0  0  0  0  0  0  0  0  0  0  0  0
    4.5394    4.3803    1.9655 H   0  0  0  0  0  0  0  0  0  0  0  0
  1 12  1  0  0  0  0
  1 13  1  0  0  0  0
  2  7  1  0  0  0  0
  2 21  1  0  0  0  0
  3 27  1  0  0  0  0
  3 59  1  0  0  0  0
  4 28  1  0  0  0  0
  4 60  1  0  0  0  0
  5 32  2  0  0  0  0
  6  9  1  0  0  0  0
  6 10  1  0  0  0  0
  6 11  1  0  0  0  0
  7 26  2  0  0  0  0
  8 32  1  0  0  0  0
  8 33  1  0  0  0  0
  8 58  1  0  0  0  0
  9 13  1  0  0  0  0
  9 36  1  0  0  0  0
  9 37  1  0  0  0  0
 10 12  1  0  0  0  0
 10 35  1  0  0  0  0
 10 38  1  0  0  0  0
 11 14  1  0  0  0  0
 11 39  1  0  0  0  0
 11 40  1  0  0  0  0
 12 43  1  0  0  0  0
 12 44  1  0  0  0  0
 13 41  1  0  0  0  0
 13 42  1  0  0  0  0
 14 17  2  0  0  0  0
 14 18  1  0  0  0  0
 15 16  1  0  0  0  0
 15 23  2  0  0  0  0
 15 24  1  0  0  0  0
 16 21  2  0  0  0  0
 16 26  1  0  0  0  0
 17 23  1  0  0  0  0
 17 45  1  0  0  0  0
 18 24  2  0  0  0  0
 18 46  1  0  0  0  0
 19 20  1  0  0  0  0
 19 29  1  0  0  0  0
 19 30  1  0  0  0  0
 19 47  1  0  0  0  0
 20 25  1  0  0  0  0
 20 27  2  0  0  0  0
 21 22  1  0  0  0  0
 22 25  2  0  0  0  0
 22 28  1  0  0  0  0
 23 48  1  0  0  0  0
 24 49  1  0  0  0  0
 25 50  1  0  0  0  0
 26 32  1  0  0  0  0
 27 31  1  0  0  0  0
 28 31  2  0  0  0  0
 29 53  1  0  0  0  0
 29 55  1  0  0  0  0
 29 56  1  0  0  0  0
 30 51  1  0  0  0  0
 30 52  1  0  0  0  0
 30 54  1  0  0  0  0
 31 57  1  0  0  0  0
 33 34  1  0  0  0  0
 33 61  1  0  0  0  0
 33 62  1  0  0  0  0
 34 63  1  0  0  0  0
 34 64  1  0  0  0  0
 34 65  1  0  0  0  0
M  END
> <PUBCHEM_COMPOUND_CID>
135539077

> <PUBCHEM_CONFORMER_RMSD>
1

> <PUBCHEM_CONFORMER_DIVERSEORDER>
2
17
137
174
149
49
153
129
181
64
144
82
74
105
131
97
173
177
155
99
150
90
179
156
113
109
44
1
183
71
40
146
158
70
66
128
91
180
140
86
163
124
51
46
35
22
138
170
98
132
130
88
139
126
68
73
81
52
39
111
92
167
151
142
175
141
94
162
114
127
182
3
96
76
19
171
10
65
108
101
118
112
84
11
9
43
120
148
161
110
75
87
172
164
107
80
166
178
104
26
93
143
121
165
159
31
169
72
79
15
157
13
106
56
168
57
38
47
83
67
63
95
69
176
20
134
136
77
42
78
23
160
36
152
7
6
135
41
89
117
133
103
123
54
33
116
119
8
115
60
145
34
61
58
85
100
154
37
147
18
45
29
5
30
55
14
102
27
28
16
125
25
48
50
24
62
59
53
12
122
32
4
21

> <PUBCHEM_MMFF94_PARTIAL_CHARGES>
40
1 -0.56
10 0.27
11 0.41
12 0.28
13 0.28
14 -0.14
15 0.05
16 -0.05
17 -0.15
18 -0.15
19 0.14
2 -0.02
20 -0.14
21 0.09
22 0.05
23 -0.15
24 -0.15
25 -0.15
26 0.2
27 0.08
28 0.08
3 -0.53
31 -0.15
32 0.72
33 0.3
4 -0.53
45 0.15
46 0.15
48 0.15
49 0.15
5 -0.57
50 0.15
57 0.15
58 0.37
59 0.45
6 -0.81
60 0.45
7 -0.41
8 -0.73
9 0.27

> <PUBCHEM_EFFECTIVE_ROTOR_COUNT>
9.2

> <PUBCHEM_PHARMACOPHORE_FEATURES>
12
1 1 acceptor
1 3 donor
1 4 donor
1 5 acceptor
1 6 cation
1 7 acceptor
1 8 donor
3 19 29 30 hydrophobe
5 2 7 16 21 26 rings
6 1 6 9 10 12 13 rings
6 14 15 17 18 23 24 rings
6 20 22 25 27 28 31 rings

> <PUBCHEM_HEAVY_ATOM_COUNT>
34

> <PUBCHEM_ATOM_DEF_STEREO_COUNT>
0

> <PUBCHEM_ATOM_UDEF_STEREO_COUNT>
0

> <PUBCHEM_BOND_DEF_STEREO_COUNT>
0

> <PUBCHEM_BOND_UDEF_STEREO_COUNT>
0

> <PUBCHEM_ISOTOPIC_ATOM_COUNT>
0

> <PUBCHEM_COMPONENT_COUNT>
1

> <PUBCHEM_CACTVS_TAUTO_COUNT>
-1

> <PUBCHEM_CONFORMER_ID>
0814298500000002

> <PUBCHEM_MMFF94_ENERGY>
75.033

> <PUBCHEM_FEATURE_SELFOVERLAP>
60.896

> <PUBCHEM_SHAPE_FINGERPRINT>
10074138 170 17972296659088200792
10169797 241 18190479168306510763
10675989 125 18195245516663536729
11421498 54 17772744970638939728
114674 6 17973169422317903195
11513181 2 18342744039261743655
12107183 9 17047680678505214465
12597179 24 18408884061676444769
12741549 16 16741393508026013806
12788726 201 17612855399479223024
13583140 156 17832413212221699541
13590594 115 17472418132894120746
13692114 37 18340477928595369610
14068700 686 18262513694028086693
14294032 229 18050016790129589316
14790565 3 18341326768641547604
15001296 14 18266456500370541207
15400415 2 18411417285339196221
15927050 60 18340201986000799134
16114785 44 17913760889113172884
16993438 75 18193837274026875297
19319366 153 18200300048635463189
19427546 62 18411135827362733876
20587220 17 17912956923587652369
21133410 38 18272095977272558195
21197605 99 18410016542169497363
21703447 108 18048590418278586373
23559900 14 17906445537569399757
23845131 108 18411692214358135508
239999 70 18055635010324439159
3178227 256 18267300929184248800
463206 1 16748752019627903083
5047190 48 18263656219541627213
5776283 40 18267321849796323294
613672 6 16823593585655330439
653340 110 18123463053908697264
6609424 69 17686103665520414067
7399639 24 18114732725136238356
86090 222 17535781519651343435
9658208 31 18339929315886763692
9777508 108 18196363943258381176

> <PUBCHEM_SHAPE_MULTIPOLES>
655.41
11.44
7.96
1.66
4.78
6.92
0.57
-19.52
2.98
-0.14
1.06
0.14
1.48
3.31

> <PUBCHEM_SHAPE_SELFOVERLAP>
1410.73

> <PUBCHEM_SHAPE_VOLUME>
361

> <PUBCHEM_COORDINATE_TYPE>
2
5
10

$$$$
