135581705
  -OEChem-03292013293D

 31 32  0     0  0  0  0  0  0999 V2000
    2.2806    1.4592    1.5852 O   0  0  0  0  0  0  0  0  0  0  0  0
   -3.5195   -0.0720   -2.1355 O   0  0  0  0  0  0  0  0  0  0  0  0
    1.1683    1.6241   -0.4437 N   0  0  0  0  0  0  0  0  0  0  0  0
    3.7203   -0.8346    0.7025 N   0  0  0  0  0  0  0  0  0  0  0  0
   -3.4160   -1.4904   -0.2725 N   0  0  0  0  0  0  0  0  0  0  0  0
   -2.1289   -0.2633    1.0871 N   0  0  0  0  0  0  0  0  0  0  0  0
   -2.9113   -2.3858    1.8502 N   0  0  0  0  0  0  0  0  0  0  0  0
   -0.9506    2.4379    0.5091 C   0  0  0  0  0  0  0  0  0  0  0  0
    0.3936    2.7914   -0.1202 C   0  0  0  0  0  0  0  0  0  0  0  0
   -1.8134    1.6200   -0.4081 C   0  0  0  0  0  0  0  0  0  0  0  0
   -2.3108    0.4188   -0.0933 C   0  0  0  0  0  0  0  0  0  0  0  0
    2.8054   -0.1413   -0.0461 C   0  0  0  0  0  0  0  0  0  0  0  0
    2.0618    1.0453    0.4498 C   0  0  0  0  0  0  0  0  0  0  0  0
   -3.1605   -0.3712   -1.0142 C   0  0  0  0  0  0  0  0  0  0  0  0
    2.7252   -0.7463   -1.2808 C   0  0  0  0  0  0  0  0  0  0  0  0
   -2.7928   -1.3765    0.9402 C   0  0  0  0  0  0  0  0  0  0  0  0
    4.2249   -1.8734   -0.0356 C   0  0  0  0  0  0  0  0  0  0  0  0
    3.6235   -1.8420   -1.2743 C   0  0  0  0  0  0  0  0  0  0  0  0
   -0.7812    1.9239    1.4626 H   0  0  0  0  0  0  0  0  0  0  0  0
   -1.4853    3.3660    0.7441 H   0  0  0  0  0  0  0  0  0  0  0  0
    0.9658    3.4254    0.5663 H   0  0  0  0  0  0  0  0  0  0  0  0
    0.2497    3.3532   -1.0500 H   0  0  0  0  0  0  0  0  0  0  0  0
   -2.0413    2.0578   -1.3772 H   0  0  0  0  0  0  0  0  0  0  0  0
    1.0391    1.2264   -1.3678 H   0  0  0  0  0  0  0  0  0  0  0  0
    3.9832   -0.6158    1.6537 H   0  0  0  0  0  0  0  0  0  0  0  0
    2.0979   -0.4520   -2.1104 H   0  0  0  0  0  0  0  0  0  0  0  0
   -3.9771   -2.2788   -0.5730 H   0  0  0  0  0  0  0  0  0  0  0  0
    4.9645   -2.5399    0.3852 H   0  0  0  0  0  0  0  0  0  0  0  0
    3.8116   -2.5336   -2.0835 H   0  0  0  0  0  0  0  0  0  0  0  0
   -2.4618   -2.3322    2.7577 H   0  0  0  0  0  0  0  0  0  0  0  0
   -3.4519   -3.2192    1.6463 H   0  0  0  0  0  0  0  0  0  0  0  0
  1 13  2  0  0  0  0
  2 14  2  0  0  0  0
  3  9  1  0  0  0  0
  3 13  1  0  0  0  0
  3 24  1  0  0  0  0
  4 12  1  0  0  0  0
  4 17  1  0  0  0  0
  4 25  1  0  0  0  0
  5 14  1  0  0  0  0
  5 16  1  0  0  0  0
  5 27  1  0  0  0  0
  6 11  1  0  0  0  0
  6 16  2  0  0  0  0
  7 16  1  0  0  0  0
  7 30  1  0  0  0  0
  7 31  1  0  0  0  0
  8  9  1  0  0  0  0
  8 10  1  0  0  0  0
  8 19  1  0  0  0  0
  8 20  1  0  0  0  0
  9 21  1  0  0  0  0
  9 22  1  0  0  0  0
 10 11  2  0  0  0  0
 10 23  1  0  0  0  0
 11 14  1  0  0  0  0
 12 13  1  0  0  0  0
 12 15  2  0  0  0  0
 15 18  1  0  0  0  0
 15 26  1  0  0  0  0
 17 18  2  0  0  0  0
 17 28  1  0  0  0  0
 18 29  1  0  0  0  0
M  END
> <PUBCHEM_COMPOUND_CID>
135581705

> <PUBCHEM_CONFORMER_RMSD>
0.8

> <PUBCHEM_CONFORMER_DIVERSEORDER>
1
28
23
47
10
21
17
46
41
50
6
54
5
29
51
32
19
26
4
55
38
16
7
24
35
44
14
18
31
2
30
40
56
3
8
42
53
25
13
52
15
22
20
12
11
45
39
27
48
9
37
43
33
49
34
36

> <PUBCHEM_MMFF94_PARTIAL_CHARGES>
27
1 -0.57
10 -0.29
11 0.19
12 -0.24
13 0.71
14 0.62
15 -0.15
16 0.56
17 -0.3
18 -0.15
2 -0.57
23 0.15
24 0.37
25 0.27
26 0.15
27 0.37
28 0.15
29 0.15
3 -0.73
30 0.4
31 0.4
4 0.03
5 -0.49
6 -0.62
7 -0.85
8 0.14
9 0.3

> <PUBCHEM_EFFECTIVE_ROTOR_COUNT>
5.2

> <PUBCHEM_PHARMACOPHORE_FEATURES>
9
1 1 acceptor
1 2 acceptor
1 3 donor
1 4 cation
1 4 donor
1 5 donor
1 7 donor
5 4 12 15 17 18 rings
5 5 6 11 14 16 rings

> <PUBCHEM_HEAVY_ATOM_COUNT>
18

> <PUBCHEM_ATOM_DEF_STEREO_COUNT>
0

> <PUBCHEM_ATOM_UDEF_STEREO_COUNT>
0

> <PUBCHEM_BOND_DEF_STEREO_COUNT>
1

> <PUBCHEM_BOND_UDEF_STEREO_COUNT>
0

> <PUBCHEM_ISOTOPIC_ATOM_COUNT>
0

> <PUBCHEM_COMPONENT_COUNT>
1

> <PUBCHEM_CACTVS_TAUTO_COUNT>
-1

> <PUBCHEM_CONFORMER_ID>
0814D00900000001

> <PUBCHEM_MMFF94_ENERGY>
21.5282

> <PUBCHEM_FEATURE_SELFOVERLAP>
45.71

> <PUBCHEM_SHAPE_FINGERPRINT>
10968037 57 17774726359316722487
11127187 94 17967814938113503309
11137873 295 18409727391800898469
117890 22 18273215291986558246
12363563 72 18413107251441661526
12553582 1 18263368005660612600
12596599 1 16773802484584433094
12633257 1 16415489237267514835
128993 33 8430322350208299973
13533116 47 18052553346348352803
14251705 54 18337399360351213138
14251764 30 16879941718475169571
14957384 54 11527390316707930390
15415430 2 18334856065497139297
15422964 175 18265901452397679185
15635459 17 18192146212237426179
15664445 248 16013550891151118095
17357779 13 18341323418777377756
19766037 51 18261688046271861829
20603629 256 17346593101977118016
20645477 70 18121488322640797445
23559900 14 18335131003950700872
5262128 65 18334018332057690464
7987 15 18264229043435074947
81228 2 18338790122618601665
8809292 202 18196093244385959164
9709674 26 18410845581825220021

> <PUBCHEM_SHAPE_MULTIPOLES>
333.79
8.04
2.87
1.5
3.18
1.01
-0.09
-6.01
-1.02
-0.25
0.6
-0.81
-0.57
1.34

> <PUBCHEM_SHAPE_SELFOVERLAP>
708.872

> <PUBCHEM_SHAPE_VOLUME>
185.4

> <PUBCHEM_COORDINATE_TYPE>
2
5
10

$$$$
