135565113
  -OEChem-03292013293D

 29 30  0     1  0  0  0  0  0999 V2000
    2.6299   -0.5294   -2.0319 O   0  0  0  0  0  0  0  0  0  0  0  0
    3.5069    1.2406    1.0518 O   0  0  0  0  0  0  0  0  0  0  0  0
    4.0530   -1.3671    1.8902 O   0  0  0  0  0  0  0  0  0  0  0  0
   -1.4319   -2.5565   -0.5339 O   0  0  0  0  0  0  0  0  0  0  0  0
    0.2970   -0.4595   -0.6330 N   0  0  0  0  0  0  0  0  0  0  0  0
   -0.7350    2.0711    0.0231 N   0  0  0  0  0  0  0  0  0  0  0  0
   -3.1672   -1.1641    0.1166 N   0  0  0  0  0  0  0  0  0  0  0  0
   -2.8581    1.1549    0.4054 N   0  0  0  0  0  0  0  0  0  0  0  0
   -4.9617    0.1851    0.7741 N   0  0  0  0  0  0  0  0  0  0  0  0
    2.4935    0.4918   -1.0287 C   0  0  2  0  0  0  0  0  0  0  0  0
    3.4701    0.1518    0.1268 C   0  0  2  0  0  0  0  0  0  0  0  0
    1.0624    0.6481   -0.6483 C   0  0  0  0  0  0  0  0  0  0  0  0
    3.0869   -1.1239    0.8722 C   0  0  0  0  0  0  0  0  0  0  0  0
   -0.9894   -0.2661   -0.2827 C   0  0  0  0  0  0  0  0  0  0  0  0
    0.5563    1.8894   -0.3264 C   0  0  0  0  0  0  0  0  0  0  0  0
   -1.5145    0.9703    0.0429 C   0  0  0  0  0  0  0  0  0  0  0  0
   -1.8611   -1.4448   -0.2520 C   0  0  0  0  0  0  0  0  0  0  0  0
   -3.6371    0.1082    0.4336 C   0  0  0  0  0  0  0  0  0  0  0  0
    2.8317    1.4228   -1.5012 H   0  0  0  0  0  0  0  0  0  0  0  0
    4.4840    0.0375   -0.2762 H   0  0  0  0  0  0  0  0  0  0  0  0
    3.0596   -1.9889    0.2031 H   0  0  0  0  0  0  0  0  0  0  0  0
    2.1215   -1.0185    1.3761 H   0  0  0  0  0  0  0  0  0  0  0  0
    1.1649    2.7862   -0.3345 H   0  0  0  0  0  0  0  0  0  0  0  0
    1.8530   -0.4896   -2.6154 H   0  0  0  0  0  0  0  0  0  0  0  0
    4.1221    0.9964    1.7642 H   0  0  0  0  0  0  0  0  0  0  0  0
   -3.8239   -1.9379    0.1577 H   0  0  0  0  0  0  0  0  0  0  0  0
    3.7856   -2.1825    2.3475 H   0  0  0  0  0  0  0  0  0  0  0  0
   -5.3902    1.0708    1.0199 H   0  0  0  0  0  0  0  0  0  0  0  0
   -5.5523   -0.6391    0.7907 H   0  0  0  0  0  0  0  0  0  0  0  0
  1 10  1  0  0  0  0
  1 24  1  0  0  0  0
  2 11  1  0  0  0  0
  2 25  1  0  0  0  0
  3 13  1  0  0  0  0
  3 27  1  0  0  0  0
  4 17  2  0  0  0  0
  5 12  1  0  0  0  0
  5 14  2  0  0  0  0
  6 15  1  0  0  0  0
  6 16  2  0  0  0  0
  7 17  1  0  0  0  0
  7 18  1  0  0  0  0
  7 26  1  0  0  0  0
  8 16  1  0  0  0  0
  8 18  2  0  0  0  0
  9 18  1  0  0  0  0
  9 28  1  0  0  0  0
  9 29  1  0  0  0  0
 10 11  1  0  0  0  0
 10 12  1  0  0  0  0
 10 19  1  0  0  0  0
 11 13  1  0  0  0  0
 11 20  1  0  0  0  0
 12 15  2  0  0  0  0
 13 21  1  0  0  0  0
 13 22  1  0  0  0  0
 14 16  1  0  0  0  0
 14 17  1  0  0  0  0
 15 23  1  0  0  0  0
M  END
> <PUBCHEM_COMPOUND_CID>
135565113

> <PUBCHEM_CONFORMER_RMSD>
0.6

> <PUBCHEM_CONFORMER_DIVERSEORDER>
1
31
28
20
25
7
27
23
4
19
22
16
17
6
11
9
12
30
26
3
5
8
24
15
29
13
10
2
18
14
21

> <PUBCHEM_MMFF94_PARTIAL_CHARGES>
25
1 -0.68
10 0.42
11 0.28
12 0.17
13 0.28
14 0.4
15 0.16
16 0.49
17 0.54
18 0.56
2 -0.68
23 0.15
24 0.4
25 0.4
26 0.37
27 0.4
28 0.4
29 0.4
3 -0.68
4 -0.57
5 -0.62
6 -0.62
7 -0.49
8 -0.63
9 -0.85

> <PUBCHEM_EFFECTIVE_ROTOR_COUNT>
3

> <PUBCHEM_PHARMACOPHORE_FEATURES>
13
1 1 acceptor
1 1 donor
1 2 acceptor
1 2 donor
1 3 acceptor
1 3 donor
1 4 acceptor
1 5 acceptor
1 7 donor
1 9 donor
3 6 8 16 cation
6 5 6 12 14 15 16 rings
6 7 8 14 16 17 18 rings

> <PUBCHEM_HEAVY_ATOM_COUNT>
18

> <PUBCHEM_ATOM_DEF_STEREO_COUNT>
2

> <PUBCHEM_ATOM_UDEF_STEREO_COUNT>
0

> <PUBCHEM_BOND_DEF_STEREO_COUNT>
0

> <PUBCHEM_BOND_UDEF_STEREO_COUNT>
0

> <PUBCHEM_ISOTOPIC_ATOM_COUNT>
0

> <PUBCHEM_COMPONENT_COUNT>
1

> <PUBCHEM_CACTVS_TAUTO_COUNT>
-1

> <PUBCHEM_CONFORMER_ID>
08148F3900000001

> <PUBCHEM_MMFF94_ENERGY>
46.0682

> <PUBCHEM_FEATURE_SELFOVERLAP>
66.078

> <PUBCHEM_SHAPE_FINGERPRINT>
10130415 120 18409173246224647789
11132069 177 18273221893641436045
11578080 2 17750489893626618508
12251169 10 18413386561960803920
12382932 28 18272373100286465254
12553582 1 18408041822915840734
12592029 89 18335151856159120915
12633257 1 17988066851396654242
13083527 12 16840195583931938263
13140716 1 18268716189311369881
13675066 3 17894344479991852241
14022347 108 18265360380696219589
14144814 61 18410862070241137951
15342168 16 14835823136937396848
15375462 189 18187085087221376184
16945 1 18412271627047433005
17804303 29 18268712710635857886
1813 80 17241330136774984558
20361792 2 16298943144323736822
20510252 161 18059584533485737441
20559304 39 18186807971921535012
20645476 183 17532959257343240711
21501502 16 18053106404437982205
21501925 9 18269273624384416773
22445834 79 18260260833282567074
2255824 54 17751371787798264124
22892500 29 15841557362066574540
22959321 94 18409167705489852580
23184049 29 18052257598425099367
232386 152 18335701667453954198
23366157 5 17901106635596436413
23402539 116 18201714055559970517
23419403 2 16909129379652085533
23463225 33 18334579039974496461
23557571 272 16845019038490376895
23559900 14 18130802152406096292
2748010 2 18051708641706983869
3286 77 13045932525967588260
34934 24 18339647861746261140
4072396 5 18337952286531265667
465052 167 18041296438775667915
495365 180 16630249099684514279
5104073 3 18268721657268884169
5374978 207 18342176656785404089
58807428 26 18269003003111920723
5902787 121 18339082712637461901
69090 78 17846501443807558599
90316 7 18334857177873056949

> <PUBCHEM_SHAPE_MULTIPOLES>
322.05
7.54
1.94
1.21
1.43
0.24
-0.06
1.29
2.95
0.19
0.05
-1.41
0.3
-0.78

> <PUBCHEM_SHAPE_SELFOVERLAP>
687.892

> <PUBCHEM_SHAPE_VOLUME>
177.2

> <PUBCHEM_COORDINATE_TYPE>
2
5
10

$$$$
