135566455
  -OEChem-03292013293D

 37 38  0     0  0  0  0  0  0999 V2000
    3.0557    1.2150   -0.7416 P   0  0  0  0  0  0  0  0  0  0  0  0
    4.8573   -0.2260   -0.0022 F   0  0  0  0  0  0  0  0  0  0  0  0
    3.4537    0.4545    1.5216 F   0  0  0  0  0  0  0  0  0  0  0  0
    3.4473    0.7039   -2.2248 O   0  0  0  0  0  0  0  0  0  0  0  0
    4.1519    2.3692   -0.4536 O   0  0  0  0  0  0  0  0  0  0  0  0
    1.6320    1.6613   -0.5874 O   0  0  0  0  0  0  0  0  0  0  0  0
   -4.0416    1.5911   -1.7625 O   0  0  0  0  0  0  0  0  0  0  0  0
   -2.7424   -1.1274   -1.7238 N   0  0  0  0  0  0  0  0  0  0  0  0
   -1.8630    0.1496    1.4771 N   0  0  0  0  0  0  0  0  0  0  0  0
   -3.1688    1.8348    0.3732 N   0  0  0  0  0  0  0  0  0  0  0  0
   -2.3341    2.1858    2.5336 N   0  0  0  0  0  0  0  0  0  0  0  0
    0.7463   -2.7798    0.5747 C   0  0  0  0  0  0  0  0  0  0  0  0
    1.3800   -1.3843    0.5813 C   0  0  0  0  0  0  0  0  0  0  0  0
   -0.7449   -2.7628    0.9293 C   0  0  0  0  0  0  0  0  0  0  0  0
    2.8701   -1.4532    0.2494 C   0  0  0  0  0  0  0  0  0  0  0  0
   -1.5753   -1.8822    0.0299 C   0  0  0  0  0  0  0  0  0  0  0  0
    3.5449   -0.1075    0.2985 C   0  0  0  0  0  0  0  0  0  0  0  0
   -2.0568   -0.5908    0.3042 C   0  0  0  0  0  0  0  0  0  0  0  0
   -2.7702   -0.1395   -0.7777 C   0  0  0  0  0  0  0  0  0  0  0  0
   -2.0168   -2.1935   -1.2414 C   0  0  0  0  0  0  0  0  0  0  0  0
   -3.3960    1.1465   -0.8196 C   0  0  0  0  0  0  0  0  0  0  0  0
   -2.4293    1.3352    1.4617 C   0  0  0  0  0  0  0  0  0  0  0  0
    1.2697   -3.4266    1.2893 H   0  0  0  0  0  0  0  0  0  0  0  0
    0.8785   -3.2296   -0.4175 H   0  0  0  0  0  0  0  0  0  0  0  0
    0.8834   -0.7530   -0.1608 H   0  0  0  0  0  0  0  0  0  0  0  0
    1.2375   -0.9188    1.5636 H   0  0  0  0  0  0  0  0  0  0  0  0
   -1.1349   -3.7872    0.8798 H   0  0  0  0  0  0  0  0  0  0  0  0
   -0.8657   -2.4382    1.9703 H   0  0  0  0  0  0  0  0  0  0  0  0
    3.0074   -1.8898   -0.7467 H   0  0  0  0  0  0  0  0  0  0  0  0
    3.3708   -2.1228    0.9587 H   0  0  0  0  0  0  0  0  0  0  0  0
   -1.8814   -3.0770   -1.8497 H   0  0  0  0  0  0  0  0  0  0  0  0
   -3.1826   -1.0856   -2.6329 H   0  0  0  0  0  0  0  0  0  0  0  0
   -3.5668    2.7653    0.4611 H   0  0  0  0  0  0  0  0  0  0  0  0
    4.0592    3.2346   -0.9060 H   0  0  0  0  0  0  0  0  0  0  0  0
    3.2289    1.2706   -2.9950 H   0  0  0  0  0  0  0  0  0  0  0  0
   -1.8227    1.9222    3.3688 H   0  0  0  0  0  0  0  0  0  0  0  0
   -2.7704    3.1012    2.5231 H   0  0  0  0  0  0  0  0  0  0  0  0
  1  4  1  0  0  0  0
  1  5  1  0  0  0  0
  1  6  2  0  0  0  0
  1 17  1  0  0  0  0
  2 17  1  0  0  0  0
  3 17  1  0  0  0  0
  4 35  1  0  0  0  0
  5 34  1  0  0  0  0
  7 21  2  0  0  0  0
  8 19  1  0  0  0  0
  8 20  1  0  0  0  0
  8 32  1  0  0  0  0
  9 18  1  0  0  0  0
  9 22  2  0  0  0  0
 10 21  1  0  0  0  0
 10 22  1  0  0  0  0
 10 33  1  0  0  0  0
 11 22  1  0  0  0  0
 11 36  1  0  0  0  0
 11 37  1  0  0  0  0
 12 13  1  0  0  0  0
 12 14  1  0  0  0  0
 12 23  1  0  0  0  0
 12 24  1  0  0  0  0
 13 15  1  0  0  0  0
 13 25  1  0  0  0  0
 13 26  1  0  0  0  0
 14 16  1  0  0  0  0
 14 27  1  0  0  0  0
 14 28  1  0  0  0  0
 15 17  1  0  0  0  0
 15 29  1  0  0  0  0
 15 30  1  0  0  0  0
 16 18  1  0  0  0  0
 16 20  2  0  0  0  0
 18 19  2  0  0  0  0
 19 21  1  0  0  0  0
 20 31  1  0  0  0  0
M  END
> <PUBCHEM_COMPOUND_CID>
135566455

> <PUBCHEM_CONFORMER_RMSD>
0.8

> <PUBCHEM_CONFORMER_DIVERSEORDER>
1
27
100
29
62
101
11
108
44
63
111
102
13
17
74
22
52
99
26
112
96
98
15
104
12
9
79
114
66
5
78
106
56
68
23
40
18
4
25
95
39
55
41
8
14
32
33
36
84
92
16
21
37
10
3
110
109
43
58
67
20
48
24
2
72
87
64
86
57
53
89
88
7
6
83
71
69
94
30
73
107
47
97
82
38
105
113
51
90
70
31
19
80
117
81
60
50
34
103
35
115
42
77
61
54
46
76
28
85
65
49
75
45
116
93
59
91

> <PUBCHEM_MMFF94_PARTIAL_CHARGES>
26
1 1.24
10 -0.49
11 -0.85
14 0.18
16 -0.18
17 0.68
18 0.12
19 -0.24
2 -0.34
20 -0.3
21 0.71
22 0.56
3 -0.34
31 0.15
32 0.27
33 0.37
34 0.5
35 0.5
36 0.4
37 0.4
4 -0.77
5 -0.77
6 -0.7
7 -0.57
8 0.03
9 -0.57

> <PUBCHEM_EFFECTIVE_ROTOR_COUNT>
6

> <PUBCHEM_PHARMACOPHORE_FEATURES>
12
1 10 donor
1 11 donor
1 4 acceptor
1 5 acceptor
1 6 acceptor
1 7 acceptor
1 8 cation
1 8 donor
4 1 4 5 6 anion
4 12 13 14 15 hydrophobe
5 8 16 18 19 20 rings
6 9 10 18 19 21 22 rings

> <PUBCHEM_HEAVY_ATOM_COUNT>
22

> <PUBCHEM_ATOM_DEF_STEREO_COUNT>
0

> <PUBCHEM_ATOM_UDEF_STEREO_COUNT>
0

> <PUBCHEM_BOND_DEF_STEREO_COUNT>
0

> <PUBCHEM_BOND_UDEF_STEREO_COUNT>
0

> <PUBCHEM_ISOTOPIC_ATOM_COUNT>
0

> <PUBCHEM_COMPONENT_COUNT>
1

> <PUBCHEM_CACTVS_TAUTO_COUNT>
-1

> <PUBCHEM_CONFORMER_ID>
0814947700000001

> <PUBCHEM_MMFF94_ENERGY>
-0.603

> <PUBCHEM_FEATURE_SELFOVERLAP>
61.091

> <PUBCHEM_SHAPE_FINGERPRINT>
10673678 19 17979620257608329901
11370993 144 15285636547821706256
11640471 11 18338509751236865755
12539773 59 18272368715341270949
12592029 89 18187643553693170553
12596599 1 18272378576659963980
12633257 1 14345802616991310991
13583140 156 15936404563535989554
14123250 116 18272100408459982913
14468879 13 17676483913507570421
18219364 16 18040721329115762003
18981168 100 18263104174251869746
192875 21 18265314283044515366
20449540 30 18410008832465733299
20510252 161 18119532291033517066
21095088 737 18194680608056588036
21475661 188 16590541255713887485
21864079 5 18187930616169132294
22182937 141 18335146413829083587
22749437 52 18336540620658931010
23227448 37 18334289864696774999
23557571 272 17632007662693342959
27216 239 17530968003251841259
469060 322 17101736431799764688
474 4 18261669281533781155
5048184 11 18334861636170013892
513202 73 16601508738067492786
5262128 65 16271913943850378115
6328613 192 18260828229339600912
9981440 41 18265597961598373770

> <PUBCHEM_SHAPE_MULTIPOLES>
398.65
8.22
3.06
1.81
6.34
0.9
-0.15
-4.69
1.89
-0.56
-0.4
-1.1
-0.8
-1.34

> <PUBCHEM_SHAPE_SELFOVERLAP>
828.738

> <PUBCHEM_SHAPE_VOLUME>
229.5

> <PUBCHEM_COORDINATE_TYPE>
2
5
10

$$$$
