135596626
  -OEChem-03292013293D

 37 39  0     1  0  0  0  0  0999 V2000
   -2.7952   -0.1703   -0.9274 O   0  0  0  0  0  0  0  0  0  0  0  0
   -3.0311   -2.9964    0.2437 O   0  0  0  0  0  0  0  0  0  0  0  0
   -5.3027    1.0597   -0.7923 O   0  0  0  0  0  0  0  0  0  0  0  0
    2.8168    3.5674    0.2466 O   0  0  0  0  0  0  0  0  0  0  0  0
    2.3450   -2.8666   -0.2574 O   0  0  0  0  0  0  0  0  0  0  0  0
   -0.6833    0.7227   -0.0797 N   0  0  0  0  0  0  0  0  0  0  0  0
   -0.0663    2.8653    0.1026 N   0  0  0  0  0  0  0  0  0  0  0  0
    1.4829   -0.3628   -0.0936 N   0  0  0  0  0  0  0  0  0  0  0  0
    3.2355    1.2767    0.0861 N   0  0  0  0  0  0  0  0  0  0  0  0
    3.7248   -0.9961   -0.0716 N   0  0  0  0  0  0  0  0  0  0  0  0
   -1.5902   -0.4759   -0.2010 C   0  0  1  0  0  0  0  0  0  0  0  0
   -3.3310   -1.7172    0.7973 C   0  0  1  0  0  0  0  0  0  0  0  0
   -2.0319   -1.0308    1.1488 C   0  0  0  0  0  0  0  0  0  0  0  0
   -3.9129   -0.8155   -0.2838 C   0  0  1  0  0  0  0  0  0  0  0  0
   -4.8206    0.2692    0.2801 C   0  0  0  0  0  0  0  0  0  0  0  0
    0.6796    0.7242   -0.0364 C   0  0  0  0  0  0  0  0  0  0  0  0
   -1.0851    2.0334    0.0070 C   0  0  0  0  0  0  0  0  0  0  0  0
    1.0272    2.0508    0.0753 C   0  0  0  0  0  0  0  0  0  0  0  0
    2.4188    2.4138    0.1467 C   0  0  0  0  0  0  0  0  0  0  0  0
    2.7446   -0.0367   -0.0291 C   0  0  0  0  0  0  0  0  0  0  0  0
    3.4559   -2.3480   -0.1830 C   0  0  0  0  0  0  0  0  0  0  0  0
    4.7192   -3.1668   -0.1788 C   0  0  0  0  0  0  0  0  0  0  0  0
   -1.0322   -1.2173   -0.7852 H   0  0  0  0  0  0  0  0  0  0  0  0
   -3.9877   -1.8674    1.6590 H   0  0  0  0  0  0  0  0  0  0  0  0
   -2.2162   -0.2180    1.8612 H   0  0  0  0  0  0  0  0  0  0  0  0
   -1.2763   -1.6987    1.5740 H   0  0  0  0  0  0  0  0  0  0  0  0
   -4.4420   -1.3808   -1.0591 H   0  0  0  0  0  0  0  0  0  0  0  0
   -4.2781    0.9310    0.9627 H   0  0  0  0  0  0  0  0  0  0  0  0
   -5.6750   -0.1696    0.8046 H   0  0  0  0  0  0  0  0  0  0  0  0
   -2.1277    2.3205   -0.0014 H   0  0  0  0  0  0  0  0  0  0  0  0
   -3.8740   -3.4022   -0.0220 H   0  0  0  0  0  0  0  0  0  0  0  0
   -5.8798    1.7419   -0.4089 H   0  0  0  0  0  0  0  0  0  0  0  0
    4.2413    1.4121    0.1280 H   0  0  0  0  0  0  0  0  0  0  0  0
    4.6918   -0.6889   -0.0136 H   0  0  0  0  0  0  0  0  0  0  0  0
    5.1905   -3.1098    0.8063 H   0  0  0  0  0  0  0  0  0  0  0  0
    4.4821   -4.2106   -0.4025 H   0  0  0  0  0  0  0  0  0  0  0  0
    5.4129   -2.7945   -0.9381 H   0  0  0  0  0  0  0  0  0  0  0  0
  1 11  1  0  0  0  0
  1 14  1  0  0  0  0
  2 12  1  0  0  0  0
  2 31  1  0  0  0  0
  3 15  1  0  0  0  0
  3 32  1  0  0  0  0
  4 19  2  0  0  0  0
  5 21  2  0  0  0  0
  6 11  1  0  0  0  0
  6 16  1  0  0  0  0
  6 17  1  0  0  0  0
  7 17  2  0  0  0  0
  7 18  1  0  0  0  0
  8 16  1  0  0  0  0
  8 20  2  0  0  0  0
  9 19  1  0  0  0  0
  9 20  1  0  0  0  0
  9 33  1  0  0  0  0
 10 20  1  0  0  0  0
 10 21  1  0  0  0  0
 10 34  1  0  0  0  0
 11 13  1  0  0  0  0
 11 23  1  0  0  0  0
 12 13  1  0  0  0  0
 12 14  1  0  0  0  0
 12 24  1  0  0  0  0
 13 25  1  0  0  0  0
 13 26  1  0  0  0  0
 14 15  1  0  0  0  0
 14 27  1  0  0  0  0
 15 28  1  0  0  0  0
 15 29  1  0  0  0  0
 16 18  2  0  0  0  0
 17 30  1  0  0  0  0
 18 19  1  0  0  0  0
 21 22  1  0  0  0  0
 22 35  1  0  0  0  0
 22 36  1  0  0  0  0
 22 37  1  0  0  0  0
M  END
> <PUBCHEM_COMPOUND_CID>
135596626

> <PUBCHEM_CONFORMER_RMSD>
0.8

> <PUBCHEM_CONFORMER_DIVERSEORDER>
1
19
9
23
33
10
14
31
20
15
12
17
29
18
7
6
13
26
22
11
4
30
28
8
24
16
3
25
27
32
2
21
5

> <PUBCHEM_MMFF94_PARTIAL_CHARGES>
26
1 -0.56
10 -0.49
11 0.54
12 0.28
14 0.28
15 0.28
16 -0.03
17 0.04
18 0.14
19 0.72
2 -0.68
20 0.57
21 0.57
22 0.06
3 -0.68
30 0.15
31 0.4
32 0.4
33 0.37
34 0.37
4 -0.57
5 -0.57
6 0.05
7 -0.57
8 -0.58
9 -0.49

> <PUBCHEM_EFFECTIVE_ROTOR_COUNT>
5

> <PUBCHEM_PHARMACOPHORE_FEATURES>
13
1 1 acceptor
1 10 donor
1 2 acceptor
1 2 donor
1 3 acceptor
1 3 donor
1 4 acceptor
1 5 acceptor
1 9 donor
3 6 7 17 cation
5 1 11 12 13 14 rings
5 6 7 16 17 18 rings
6 8 9 16 18 19 20 rings

> <PUBCHEM_HEAVY_ATOM_COUNT>
22

> <PUBCHEM_ATOM_DEF_STEREO_COUNT>
3

> <PUBCHEM_ATOM_UDEF_STEREO_COUNT>
0

> <PUBCHEM_BOND_DEF_STEREO_COUNT>
0

> <PUBCHEM_BOND_UDEF_STEREO_COUNT>
0

> <PUBCHEM_ISOTOPIC_ATOM_COUNT>
0

> <PUBCHEM_COMPONENT_COUNT>
1

> <PUBCHEM_CACTVS_TAUTO_COUNT>
-1

> <PUBCHEM_CONFORMER_ID>
08150A5200000001

> <PUBCHEM_MMFF94_ENERGY>
49.0894

> <PUBCHEM_FEATURE_SELFOVERLAP>
66.163

> <PUBCHEM_SHAPE_FINGERPRINT>
10411042 1 18267585711048868182
1100329 8 16822767843774653667
11265709 11 18267586810554909346
116883 192 18339080371938424704
12107183 9 18198916807816133577
12363563 72 18339088073221351686
12553582 1 18268168477854818626
12760667 363 18268709398757507038
12788726 201 17973726878865981898
13533116 47 18271523221502527211
13544592 145 18260264114632248079
13583140 156 17701815720887206969
138480 1 18411139138934850202
14178342 30 17696733829303412650
14790565 3 17114669515180296416
14863182 85 17902242444065982364
14866123 147 17835806296393047209
15042514 8 17835522618277487354
15352361 1 18338798901610472998
15442244 35 18341055129445698417
15927050 60 17837491118396965580
17492 89 18339361997688085283
18186145 218 17749097916168398957
19591789 44 17402054392248127841
20645477 70 18336539520899539239
20681651 13 17701547427170818427
20832881 197 18262520269384691411
21065198 57 18410012178139410997
21279426 13 18263638468884872197
21478907 32 18194682553618783360
221490 88 18336552693785788698
23559900 14 18410569596011580784
3004659 81 18041283158473472942
314173 41 18337957792321195142
3178227 256 17833566595872591441
335352 9 18338235938908845557
33824 294 18194403522631373626
3421961 26 18412262839702340938
5104073 3 18337107998771432937
6443956 14 18409451353994354198
7364860 26 18411981394917157672
9709674 26 18408321116207641179

> <PUBCHEM_SHAPE_MULTIPOLES>
398.5
9.3
3.99
0.75
4.13
0.25
-0.05
-5.31
0.77
-4.33
-0.22
0.48
-0.11
0.91

> <PUBCHEM_SHAPE_SELFOVERLAP>
858.492

> <PUBCHEM_SHAPE_VOLUME>
217.8

> <PUBCHEM_COORDINATE_TYPE>
2
5
10

$$$$
