135565888
  -OEChem-03292013293D

 49 52  0     1  0  0  0  0  0999 V2000
    5.1986   -1.6835    0.3783 S   0  0  0  0  0  0  0  0  0  0  0  0
    4.2527   -0.3578    0.4955 O   0  0  0  0  0  0  0  0  0  0  0  0
   -2.2764   -2.2548   -1.6007 O   0  0  0  0  0  0  0  0  0  0  0  0
    5.7116   -1.9251    1.9078 O   0  0  0  0  0  0  0  0  0  0  0  0
    4.3410   -2.7991    0.0237 O   0  0  0  0  0  0  0  0  0  0  0  0
    6.3571   -1.3671   -0.4362 O   0  0  0  0  0  0  0  0  0  0  0  0
   -4.9826   -1.5990    2.5506 O   0  0  0  0  0  0  0  0  0  0  0  0
   -6.6512    1.2605   -0.6705 O   0  0  0  0  0  0  0  0  0  0  0  0
    1.1695    0.9667   -0.0011 N   0  0  0  0  0  0  0  0  0  0  0  0
    0.1119    2.8157    0.5361 N   0  0  0  0  0  0  0  0  0  0  0  0
   -1.2239    0.9409   -0.1346 N   0  0  0  0  0  0  0  0  0  0  0  0
   -3.7572   -1.1934    0.6463 N   0  0  0  0  0  0  0  0  0  0  0  0
   -5.8379   -0.1675    0.9573 N   0  0  0  0  0  0  0  0  0  0  0  0
    2.2251    1.7965    0.5649 C   0  0  1  0  0  0  0  0  0  0  0  0
    1.4126   -0.3765   -0.4703 C   0  0  2  0  0  0  0  0  0  0  0  0
    3.4588    1.7859   -0.3473 C   0  0  2  0  0  0  0  0  0  0  0  0
    3.8550    0.3315   -0.6869 C   0  0  2  0  0  0  0  0  0  0  0  0
    2.6775   -0.4060   -1.3413 C   0  0  0  0  0  0  0  0  0  0  0  0
    0.1741   -0.8079   -1.2720 C   0  0  0  0  0  0  0  0  0  0  0  0
    1.5164    3.1653    0.6914 C   0  0  0  0  0  0  0  0  0  0  0  0
   -0.0936    1.5179    0.1096 C   0  0  0  0  0  0  0  0  0  0  0  0
   -1.1140   -0.4929   -0.4904 C   0  0  2  0  0  0  0  0  0  0  0  0
    4.6185    2.5459    0.2989 C   0  0  0  0  0  0  0  0  0  0  0  0
   -2.3463   -0.8639   -1.3088 C   0  0  2  0  0  0  0  0  0  0  0  0
   -3.6067   -0.5676   -0.5690 C   0  0  0  0  0  0  0  0  0  0  0  0
   -4.5488    0.2584   -1.0436 C   0  0  0  0  0  0  0  0  0  0  0  0
   -4.8649   -1.0302    1.4646 C   0  0  0  0  0  0  0  0  0  0  0  0
   -5.7769    0.5072   -0.2523 C   0  0  0  0  0  0  0  0  0  0  0  0
    2.4722    1.4197    1.5659 H   0  0  0  0  0  0  0  0  0  0  0  0
    1.5396   -1.0389    0.3946 H   0  0  0  0  0  0  0  0  0  0  0  0
    3.2100    2.2890   -1.2922 H   0  0  0  0  0  0  0  0  0  0  0  0
    4.6952    0.3587   -1.3915 H   0  0  0  0  0  0  0  0  0  0  0  0
    2.9322   -1.4447   -1.5718 H   0  0  0  0  0  0  0  0  0  0  0  0
    2.4707    0.0821   -2.3034 H   0  0  0  0  0  0  0  0  0  0  0  0
    0.1487   -0.2758   -2.2330 H   0  0  0  0  0  0  0  0  0  0  0  0
    0.2472   -1.8778   -1.4989 H   0  0  0  0  0  0  0  0  0  0  0  0
    1.7067    3.6280    1.6642 H   0  0  0  0  0  0  0  0  0  0  0  0
    1.8111    3.8608   -0.1007 H   0  0  0  0  0  0  0  0  0  0  0  0
   -1.0807   -1.0789    0.4381 H   0  0  0  0  0  0  0  0  0  0  0  0
   -0.6305    3.4865    0.6955 H   0  0  0  0  0  0  0  0  0  0  0  0
    4.8909    2.1186    1.2697 H   0  0  0  0  0  0  0  0  0  0  0  0
    4.3578    3.5974    0.4568 H   0  0  0  0  0  0  0  0  0  0  0  0
    5.5046    2.5168   -0.3439 H   0  0  0  0  0  0  0  0  0  0  0  0
   -2.3254   -0.3287   -2.2670 H   0  0  0  0  0  0  0  0  0  0  0  0
   -3.0529   -2.4840   -2.1398 H   0  0  0  0  0  0  0  0  0  0  0  0
   -3.0253   -1.8245    0.9580 H   0  0  0  0  0  0  0  0  0  0  0  0
   -4.4523    0.7634   -1.9978 H   0  0  0  0  0  0  0  0  0  0  0  0
    6.3090   -2.6992    2.0349 H   0  0  0  0  0  0  0  0  0  0  0  0
   -6.6661   -0.0211    1.5274 H   0  0  0  0  0  0  0  0  0  0  0  0
  1  2  1  0  0  0  0
  1  4  1  0  0  0  0
  1  5  2  0  0  0  0
  1  6  2  0  0  0  0
  2 17  1  0  0  0  0
  3 24  1  0  0  0  0
  3 45  1  0  0  0  0
  4 48  1  0  0  0  0
  7 27  2  0  0  0  0
  8 28  2  0  0  0  0
  9 14  1  0  0  0  0
  9 15  1  0  0  0  0
  9 21  1  0  0  0  0
 10 20  1  0  0  0  0
 10 21  1  0  0  0  0
 10 40  1  0  0  0  0
 11 21  2  0  0  0  0
 11 22  1  0  0  0  0
 12 25  1  0  0  0  0
 12 27  1  0  0  0  0
 12 46  1  0  0  0  0
 13 27  1  0  0  0  0
 13 28  1  0  0  0  0
 13 49  1  0  0  0  0
 14 16  1  0  0  0  0
 14 20  1  0  0  0  0
 14 29  1  0  0  0  0
 15 18  1  0  0  0  0
 15 19  1  0  0  0  0
 15 30  1  0  0  0  0
 16 17  1  0  0  0  0
 16 23  1  0  0  0  0
 16 31  1  0  0  0  0
 17 18  1  0  0  0  0
 17 32  1  0  0  0  0
 18 33  1  0  0  0  0
 18 34  1  0  0  0  0
 19 22  1  0  0  0  0
 19 35  1  0  0  0  0
 19 36  1  0  0  0  0
 20 37  1  0  0  0  0
 20 38  1  0  0  0  0
 22 24  1  0  0  0  0
 22 39  1  0  0  0  0
 23 41  1  0  0  0  0
 23 42  1  0  0  0  0
 23 43  1  0  0  0  0
 24 25  1  0  0  0  0
 24 44  1  0  0  0  0
 25 26  2  0  0  0  0
 26 28  1  0  0  0  0
 26 47  1  0  0  0  0
M  END
> <PUBCHEM_COMPOUND_CID>
135565888

> <PUBCHEM_CONFORMER_RMSD>
0.8

> <PUBCHEM_CONFORMER_DIVERSEORDER>
1
13
14
12
22
29
28
40
34
10
15
20
36
27
16
41
39
31
37
6
30
5
19
11
18
35
38
33
7
24
21
32
17
26
44
23
9
2
3
25
8
43
4
42

> <PUBCHEM_MMFF94_PARTIAL_CHARGES>
30
1 1.67
10 -0.82
11 -0.7
12 -0.54
13 -0.49
14 0.37
15 0.37
17 0.28
2 -0.46
20 0.37
21 0.55
22 0.25
24 0.42
25 -0.03
26 -0.14
27 0.69
28 0.62
3 -0.68
4 -0.68
40 0.4
45 0.4
46 0.37
47 0.15
48 0.5
49 0.37
5 -0.65
6 -0.65
7 -0.57
8 -0.57
9 -0.79

> <PUBCHEM_EFFECTIVE_ROTOR_COUNT>
5.4

> <PUBCHEM_PHARMACOPHORE_FEATURES>
16
1 10 donor
1 12 donor
1 13 donor
1 3 acceptor
1 3 donor
1 4 acceptor
1 5 acceptor
1 6 acceptor
1 7 acceptor
1 8 acceptor
4 1 4 5 6 anion
4 9 10 11 21 cation
5 9 10 14 20 21 rings
6 12 13 25 26 27 28 rings
6 9 11 15 19 21 22 rings
6 9 14 15 16 17 18 rings

> <PUBCHEM_HEAVY_ATOM_COUNT>
28

> <PUBCHEM_ATOM_DEF_STEREO_COUNT>
6

> <PUBCHEM_ATOM_UDEF_STEREO_COUNT>
0

> <PUBCHEM_BOND_DEF_STEREO_COUNT>
0

> <PUBCHEM_BOND_UDEF_STEREO_COUNT>
0

> <PUBCHEM_ISOTOPIC_ATOM_COUNT>
0

> <PUBCHEM_COMPONENT_COUNT>
1

> <PUBCHEM_CACTVS_TAUTO_COUNT>
-1

> <PUBCHEM_CONFORMER_ID>
0814924000000001

> <PUBCHEM_MMFF94_ENERGY>
67.901

> <PUBCHEM_FEATURE_SELFOVERLAP>
81.532

> <PUBCHEM_SHAPE_FINGERPRINT>
10622 236 17486463139566495007
10673678 19 17534361212522009684
11089746 13 15698283317191355066
11135926 11 18266446785007474532
11370993 144 18261955241009782013
11405975 8 18271241733086909863
11456790 92 18271254859366686985
11545043 162 17894917360463413579
11796584 16 17749107772701917619
12107183 9 18273217469772373627
12236239 1 16845581933068055165
12422481 6 17846501374761020876
12553582 1 18201445761584761894
12616971 3 18273209819987317863
12633257 1 18131070458564762495
12788726 201 18059869358753132400
13140716 1 18059008518056840951
13150687 139 11386660568775265730
13540713 5 17772744116019094847
13583140 156 18335704988001893507
13782708 43 18041282157883353691
14117953 113 17989207001915152092
14251764 30 17603588542858493963
14341114 176 18260552251166914909
14739800 52 16055742347327046368
14790565 3 17620188072120821900
15042514 8 18126566713499476940
15081414 286 17987252173030829220
15142383 8 18261105245058999380
15183329 4 17989210356321942157
15348495 7 18260270788974697699
15475509 84 17775008951417973472
15537594 2 18341619277868555660
15961568 22 12823294611103794818
1601671 61 17917155017041754156
20832881 197 18408319973645945056
21033648 29 18339916117536600377
21033650 10 16153705362928442653
21267235 1 18341898442691177990
21279426 13 18260828181277218169
21315759 148 17677057970103715393
21344244 181 14057287416221226872
21421861 104 18412538834775561440
22182313 1 17701826483811617676
23559900 14 17749107798840609453
25147074 1 17774150344336518023
3004659 81 18335701624878645868
335352 9 18272647948112964069
34797466 226 16515692190167321101
3680242 22 18272090500244776350
4072396 5 17917706885862974758
4098825 35 17385727989285280484
4144715 1 17749679588174946525
5104073 3 18059292196547115731
79837 15 17552649045312459224
8863177 126 18115035224009167035

> <PUBCHEM_SHAPE_MULTIPOLES>
514.09
15.17
2.86
1.45
7.77
1.13
-0.55
-5.06
-3.82
-3.76
-0.63
1.23
-0.83
0.29

> <PUBCHEM_SHAPE_SELFOVERLAP>
1091.311

> <PUBCHEM_SHAPE_VOLUME>
287.3

> <PUBCHEM_COORDINATE_TYPE>
2
5
10

$$$$
