135511888
  -OEChem-03292013293D

 34 36  0     1  0  0  0  0  0999 V2000
    4.0103    2.0812    0.7290 S   0  0  0  0  0  0  0  0  0  0  0  0
    1.8304   -0.0596    1.0347 O   0  0  0  0  0  0  0  0  0  0  0  0
    0.5983   -2.5613   -1.2463 O   0  0  0  0  0  0  0  0  0  0  0  0
    2.8083   -2.8486    0.3681 O   0  0  0  0  0  0  0  0  0  0  0  0
   -4.5657    1.9038   -0.3881 O   0  0  0  0  0  0  0  0  0  0  0  0
   -0.4506    0.1165    0.1841 N   0  0  0  0  0  0  0  0  0  0  0  0
   -1.5968    1.9792   -0.2870 N   0  0  0  0  0  0  0  0  0  0  0  0
   -2.2691   -1.4596    0.4753 N   0  0  0  0  0  0  0  0  0  0  0  0
   -4.3836   -0.3627    0.1415 N   0  0  0  0  0  0  0  0  0  0  0  0
    1.2967   -1.4011   -0.8406 C   0  0  2  0  0  0  0  0  0  0  0  0
    2.7339   -1.6813   -0.4491 C   0  0  1  0  0  0  0  0  0  0  0  0
    0.7356   -0.7838    0.4362 C   0  0  1  0  0  0  0  0  0  0  0  0
    3.0703   -0.4766    0.4205 C   0  0  1  0  0  0  0  0  0  0  0  0
    3.6267    0.6967   -0.3743 C   0  0  0  0  0  0  0  0  0  0  0  0
   -1.7691   -0.2301    0.2125 C   0  0  0  0  0  0  0  0  0  0  0  0
   -0.3982    1.4550   -0.1202 C   0  0  0  0  0  0  0  0  0  0  0  0
   -2.4457    0.9321   -0.0802 C   0  0  0  0  0  0  0  0  0  0  0  0
   -3.8852    0.9182   -0.1328 C   0  0  0  0  0  0  0  0  0  0  0  0
    4.6231    3.2473   -0.5093 C   0  0  0  0  0  0  0  0  0  0  0  0
   -3.5698   -1.4654    0.4260 C   0  0  0  0  0  0  0  0  0  0  0  0
    1.2650   -0.6761   -1.6630 H   0  0  0  0  0  0  0  0  0  0  0  0
    0.3851   -1.5359    1.1531 H   0  0  0  0  0  0  0  0  0  0  0  0
    3.3965   -1.8287   -1.3067 H   0  0  0  0  0  0  0  0  0  0  0  0
    3.7610   -0.7534    1.2265 H   0  0  0  0  0  0  0  0  0  0  0  0
    2.8966    1.0496   -1.1097 H   0  0  0  0  0  0  0  0  0  0  0  0
    4.5392    0.3962   -0.8990 H   0  0  0  0  0  0  0  0  0  0  0  0
    1.0845   -2.9471   -1.9948 H   0  0  0  0  0  0  0  0  0  0  0  0
    3.7407   -2.9717    0.6154 H   0  0  0  0  0  0  0  0  0  0  0  0
    0.5357    1.9923   -0.2108 H   0  0  0  0  0  0  0  0  0  0  0  0
    4.9158    4.1771   -0.0145 H   0  0  0  0  0  0  0  0  0  0  0  0
    3.8415    3.4736   -1.2392 H   0  0  0  0  0  0  0  0  0  0  0  0
    5.4974    2.8360   -1.0206 H   0  0  0  0  0  0  0  0  0  0  0  0
   -4.1485   -2.3831    0.6139 H   0  0  0  0  0  0  0  0  0  0  0  0
   -5.3909   -0.4949    0.1321 H   0  0  0  0  0  0  0  0  0  0  0  0
  1 14  1  0  0  0  0
  1 19  1  0  0  0  0
  2 12  1  0  0  0  0
  2 13  1  0  0  0  0
  3 10  1  0  0  0  0
  3 27  1  0  0  0  0
  4 11  1  0  0  0  0
  4 28  1  0  0  0  0
  5 18  2  0  0  0  0
  6 12  1  0  0  0  0
  6 15  1  0  0  0  0
  6 16  1  0  0  0  0
  7 16  2  0  0  0  0
  7 17  1  0  0  0  0
  8 15  1  0  0  0  0
  8 20  2  0  0  0  0
  9 18  1  0  0  0  0
  9 20  1  0  0  0  0
  9 34  1  0  0  0  0
 10 11  1  0  0  0  0
 10 12  1  0  0  0  0
 10 21  1  0  0  0  0
 11 13  1  0  0  0  0
 11 23  1  0  0  0  0
 12 22  1  0  0  0  0
 13 14  1  0  0  0  0
 13 24  1  0  0  0  0
 14 25  1  0  0  0  0
 14 26  1  0  0  0  0
 15 17  2  0  0  0  0
 16 29  1  0  0  0  0
 17 18  1  0  0  0  0
 19 30  1  0  0  0  0
 19 31  1  0  0  0  0
 19 32  1  0  0  0  0
 20 33  1  0  0  0  0
M  END
> <PUBCHEM_COMPOUND_CID>
135511888

> <PUBCHEM_CONFORMER_RMSD>
0.6

> <PUBCHEM_CONFORMER_DIVERSEORDER>
1
26
50
43
38
5
66
49
27
56
64
11
24
62
47
7
23
61
34
22
4
36
54
10
6
40
60
15
21
16
20
2
13
67
9
57
41
52
65
30
19
39
63
12
37
42
53
58
45
18
32
25
55
8
46
3
59
17
14
48
31
29
28
35
51
33
44

> <PUBCHEM_MMFF94_PARTIAL_CHARGES>
25
1 -0.46
10 0.28
11 0.28
12 0.54
13 0.28
14 0.23
15 -0.03
16 0.04
17 0.14
18 0.72
19 0.23
2 -0.56
20 0.45
27 0.4
28 0.4
29 0.15
3 -0.68
33 0.06
34 0.37
4 -0.68
5 -0.57
6 0.05
7 -0.57
8 -0.58
9 -0.49

> <PUBCHEM_EFFECTIVE_ROTOR_COUNT>
4

> <PUBCHEM_PHARMACOPHORE_FEATURES>
12
1 19 hydrophobe
1 2 acceptor
1 3 acceptor
1 3 donor
1 4 acceptor
1 4 donor
1 5 acceptor
1 9 donor
3 6 7 16 cation
5 2 10 11 12 13 rings
5 6 7 15 16 17 rings
6 8 9 15 17 18 20 rings

> <PUBCHEM_HEAVY_ATOM_COUNT>
20

> <PUBCHEM_ATOM_DEF_STEREO_COUNT>
4

> <PUBCHEM_ATOM_UDEF_STEREO_COUNT>
0

> <PUBCHEM_BOND_DEF_STEREO_COUNT>
0

> <PUBCHEM_BOND_UDEF_STEREO_COUNT>
0

> <PUBCHEM_ISOTOPIC_ATOM_COUNT>
0

> <PUBCHEM_COMPONENT_COUNT>
1

> <PUBCHEM_CACTVS_TAUTO_COUNT>
-1

> <PUBCHEM_CONFORMER_ID>
0813BF5000000001

> <PUBCHEM_MMFF94_ENERGY>
47.9197

> <PUBCHEM_FEATURE_SELFOVERLAP>
61.047

> <PUBCHEM_SHAPE_FINGERPRINT>
10498660 4 18410579517476121028
10608611 8 18338514131987261705
10871710 139 17836082656179733438
11578080 2 16661741324865364756
12403259 118 18263911280696281944
13583140 156 17460564014894169786
14790565 3 18194407920641812276
15196674 1 18409730672623136593
15219456 202 18341331111063992987
15375358 24 18410853231509705031
15375462 6 18409731751018864406
15536298 74 18410295804578466236
18186145 218 17603866646343905943
19591789 44 17836083746753649968
200 152 17202187531130899551
20645477 56 18187365377140872277
20645477 70 18201154330663057143
21524375 3 18270120240375376810
221490 88 18338524049425834162
22620623 9 16699209597696239894
23227448 37 17839181058657150980
23402539 116 18262511490308261199
23557571 272 18262532458311960143
23558518 356 18195815059217307601
23559900 14 18266175041761803578
296302 2 18413671305570864745
350125 39 18410293601940530436
4409770 3 16673018775630057526
44154327 71 18341611551175209420
474 4 17458917036512040092
495365 180 17773575179364081841
5104073 3 18334860485324312745
58051976 378 18343582911041046156
67856867 119 18334851715206769986
7364860 26 18340205190098863354
7808743 9 17978508964753300656
9709674 26 18197500632218010439

> <PUBCHEM_SHAPE_MULTIPOLES>
372.04
9.08
3.08
0.86
1.18
0.02
0.03
5.44
-0.15
-2.76
0.53
-0.39
-0.15
0.4

> <PUBCHEM_SHAPE_SELFOVERLAP>
785.215

> <PUBCHEM_SHAPE_VOLUME>
212.6

> <PUBCHEM_COORDINATE_TYPE>
2
5
10

$$$$
