135543624
  -OEChem-03292013293D

 37 39  0     0  0  0  0  0  0999 V2000
    2.8826    0.1093   -2.1562 S   0  0  0  0  0  0  0  0  0  0  0  0
   -5.5809    1.9896    0.5475 O   0  0  0  0  0  0  0  0  0  0  0  0
    1.7373   -1.8791   -0.8352 N   0  0  0  0  0  0  0  0  0  0  0  0
    3.3805    0.1606    1.4843 N   0  0  0  0  0  0  0  0  0  0  0  0
    0.9550   -3.7965    0.3053 N   0  0  0  0  0  0  0  0  0  0  0  0
    3.7475    2.1253    0.5165 N   0  0  0  0  0  0  0  0  0  0  0  0
   -0.0252    2.4781   -1.9604 N   0  0  0  0  0  0  0  0  0  0  0  0
   -2.3491   -3.1454    1.3963 N   0  0  0  0  0  0  0  0  0  0  0  0
   -0.6985   -0.5864   -0.3769 C   0  0  0  0  0  0  0  0  0  0  0  0
   -1.9596    0.0808   -0.1386 C   0  0  0  0  0  0  0  0  0  0  0  0
    0.3158    0.0619   -1.0730 C   0  0  0  0  0  0  0  0  0  0  0  0
   -0.4963   -1.8803    0.0903 C   0  0  0  0  0  0  0  0  0  0  0  0
    1.5041   -0.6218   -1.2739 C   0  0  0  0  0  0  0  0  0  0  0  0
    0.7283   -2.4772   -0.1627 C   0  0  0  0  0  0  0  0  0  0  0  0
   -2.1380    0.8448    1.0147 C   0  0  0  0  0  0  0  0  0  0  0  0
   -2.9982   -0.0413   -1.0618 C   0  0  0  0  0  0  0  0  0  0  0  0
    4.1780    0.0756   -0.8881 C   0  0  0  0  0  0  0  0  0  0  0  0
    3.7752    0.8212    0.3543 C   0  0  0  0  0  0  0  0  0  0  0  0
   -3.3548    1.4864    1.2451 C   0  0  0  0  0  0  0  0  0  0  0  0
   -4.2150    0.6003   -0.8315 C   0  0  0  0  0  0  0  0  0  0  0  0
   -4.3934    1.3641    0.3219 C   0  0  0  0  0  0  0  0  0  0  0  0
    0.1272    1.3982   -1.5639 C   0  0  0  0  0  0  0  0  0  0  0  0
    3.0821    1.1036    2.4270 C   0  0  0  0  0  0  0  0  0  0  0  0
   -1.5209   -2.5799    0.8124 C   0  0  0  0  0  0  0  0  0  0  0  0
    3.3162    2.3081    1.8066 C   0  0  0  0  0  0  0  0  0  0  0  0
    5.0756    0.5428   -1.3065 H   0  0  0  0  0  0  0  0  0  0  0  0
    4.4344   -0.9634   -0.6544 H   0  0  0  0  0  0  0  0  0  0  0  0
   -1.3387    0.9505    1.7446 H   0  0  0  0  0  0  0  0  0  0  0  0
   -2.8761   -0.6331   -1.9660 H   0  0  0  0  0  0  0  0  0  0  0  0
   -3.4878    2.0799    2.1455 H   0  0  0  0  0  0  0  0  0  0  0  0
   -5.0163    0.4971   -1.5582 H   0  0  0  0  0  0  0  0  0  0  0  0
    3.3164   -0.8419    1.6024 H   0  0  0  0  0  0  0  0  0  0  0  0
    2.7411    0.8391    3.4174 H   0  0  0  0  0  0  0  0  0  0  0  0
    0.5085   -4.0908    1.1649 H   0  0  0  0  0  0  0  0  0  0  0  0
    1.8600   -4.1983    0.0909 H   0  0  0  0  0  0  0  0  0  0  0  0
    3.1955    3.2975    2.2228 H   0  0  0  0  0  0  0  0  0  0  0  0
   -6.1836    1.7971   -0.1913 H   0  0  0  0  0  0  0  0  0  0  0  0
  1 13  1  0  0  0  0
  1 17  1  0  0  0  0
  2 21  1  0  0  0  0
  2 37  1  0  0  0  0
  3 13  1  0  0  0  0
  3 14  2  0  0  0  0
  4 18  1  0  0  0  0
  4 23  1  0  0  0  0
  4 32  1  0  0  0  0
  5 14  1  0  0  0  0
  5 34  1  0  0  0  0
  5 35  1  0  0  0  0
  6 18  2  0  0  0  0
  6 25  1  0  0  0  0
  7 22  3  0  0  0  0
  8 24  3  0  0  0  0
  9 10  1  0  0  0  0
  9 11  1  0  0  0  0
  9 12  2  0  0  0  0
 10 15  2  0  0  0  0
 10 16  1  0  0  0  0
 11 13  2  0  0  0  0
 11 22  1  0  0  0  0
 12 14  1  0  0  0  0
 12 24  1  0  0  0  0
 15 19  1  0  0  0  0
 15 28  1  0  0  0  0
 16 20  2  0  0  0  0
 16 29  1  0  0  0  0
 17 18  1  0  0  0  0
 17 26  1  0  0  0  0
 17 27  1  0  0  0  0
 19 21  2  0  0  0  0
 19 30  1  0  0  0  0
 20 21  1  0  0  0  0
 20 31  1  0  0  0  0
 23 25  2  0  0  0  0
 23 33  1  0  0  0  0
 25 36  1  0  0  0  0
M  END
> <PUBCHEM_COMPOUND_CID>
135543624

> <PUBCHEM_CONFORMER_RMSD>
0.8

> <PUBCHEM_CONFORMER_DIVERSEORDER>
1
7
12
5
9
11
3
14
6
8
10
2
13
4

> <PUBCHEM_MMFF94_PARTIAL_CHARGES>
33
1 -0.33
11 0.07
12 0.07
13 0.41
14 0.41
15 -0.15
16 -0.15
17 0.41
18 0.01
19 -0.15
2 -0.53
20 -0.15
21 0.08
22 0.48
23 -0.3
24 0.48
25 0.08
28 0.15
29 0.15
3 -0.62
30 0.15
31 0.15
32 0.27
33 0.15
34 0.4
35 0.4
36 0.15
37 0.45
4 0.03
5 -0.9
6 -0.57
7 -0.56
8 -0.56

> <PUBCHEM_EFFECTIVE_ROTOR_COUNT>
4

> <PUBCHEM_PHARMACOPHORE_FEATURES>
10
1 2 donor
1 4 donor
1 5 donor
1 7 acceptor
1 8 acceptor
3 3 5 14 cation
3 4 6 18 cation
5 4 6 18 23 25 rings
6 10 15 16 19 20 21 rings
6 3 9 11 12 13 14 rings

> <PUBCHEM_HEAVY_ATOM_COUNT>
25

> <PUBCHEM_ATOM_DEF_STEREO_COUNT>
0

> <PUBCHEM_ATOM_UDEF_STEREO_COUNT>
0

> <PUBCHEM_BOND_DEF_STEREO_COUNT>
0

> <PUBCHEM_BOND_UDEF_STEREO_COUNT>
0

> <PUBCHEM_ISOTOPIC_ATOM_COUNT>
0

> <PUBCHEM_COMPONENT_COUNT>
1

> <PUBCHEM_CACTVS_TAUTO_COUNT>
-1

> <PUBCHEM_CONFORMER_ID>
08143B4800000001

> <PUBCHEM_MMFF94_ENERGY>
64.3507

> <PUBCHEM_FEATURE_SELFOVERLAP>
50.746

> <PUBCHEM_SHAPE_FINGERPRINT>
10165383 225 18337964406918685540
11578080 2 17773057429910526811
11725454 13 18130782356458593940
12633257 1 18337375090039676088
12788726 201 17613444758258164554
13140716 1 18189067536698481628
13692114 37 18337676429704945083
13965767 371 18187636990672191712
14178342 30 18334864947642643863
14468879 13 17416106520397225368
14787075 74 18058719342852328979
14848178 96 18272651242279390248
15295992 7 18273212015285343914
15475509 84 17331692240750506425
16752209 62 18117001198139293910
17349148 13 18262512710400480071
1813 80 9151169865838856435
20600515 1 18336558187223560524
20691752 17 18336257960049895629
21033648 29 18200876296097153232
212916 134 18335419050158529865
21475661 188 17989200456390851728
23559900 14 18411430509626955342
238 59 16630245930578859416
25222932 49 15866359114774710049
2748010 2 18263386770331336582
392239 28 18201449085973754243
4340502 62 18409733946300780867
474 4 18343862212490290841
633830 44 18131623500113112100
7288768 16 17770751771328379504
84936 182 18126009260634313049
90316 7 17676752262768669932
9981440 41 18058996401991249850

> <PUBCHEM_SHAPE_MULTIPOLES>
482.58
8.38
3.3
2.01
3.65
2.57
0.04
-6.21
1.82
0.35
1.26
-1.57
-0.79
1.27

> <PUBCHEM_SHAPE_SELFOVERLAP>
1046.842

> <PUBCHEM_SHAPE_VOLUME>
265.2

> <PUBCHEM_COORDINATE_TYPE>
2
5
10

$$$$
