135518
  -OEChem-03292013323D

 35 36  0     1  0  0  0  0  0999 V2000
    3.3120    2.6887   -0.4733 S   0  0  0  0  0  0  0  0  0  0  0  0
    1.1667   -0.8240    0.9270 O   0  0  0  0  0  0  0  0  0  0  0  0
    2.3370   -3.4855   -0.0315 O   0  0  0  0  0  0  0  0  0  0  0  0
    2.9437    1.2390    0.2635 O   0  0  0  0  0  0  0  0  0  0  0  0
   -2.6467   -2.3688    0.6338 O   0  0  0  0  0  0  0  0  0  0  0  0
   -4.1536    1.8827   -0.2622 O   0  0  0  0  0  0  0  0  0  0  0  0
   -1.0596   -0.7082    0.2165 N   0  0  0  0  0  0  0  0  0  0  0  0
   -3.3845   -0.2440    0.1848 N   0  0  0  0  0  0  0  0  0  0  0  0
    2.0431   -2.2769   -0.7288 C   0  0  1  0  0  0  0  0  0  0  0  0
    0.0745   -1.5712    0.3731 C   0  0  1  0  0  0  0  0  0  0  0  0
    0.5516   -2.1626   -0.9433 C   0  0  0  0  0  0  0  0  0  0  0  0
    2.3569   -1.0787    0.1563 C   0  0  1  0  0  0  0  0  0  0  0  0
    2.6769    0.1793   -0.6407 C   0  0  0  0  0  0  0  0  0  0  0  0
   -0.8374    0.6288   -0.0872 C   0  0  0  0  0  0  0  0  0  0  0  0
   -2.3754   -1.1966    0.3651 C   0  0  0  0  0  0  0  0  0  0  0  0
   -1.8052    1.5377   -0.2592 C   0  0  0  0  0  0  0  0  0  0  0  0
   -3.2191    1.0990   -0.1179 C   0  0  0  0  0  0  0  0  0  0  0  0
   -1.5438    2.9729   -0.5859 C   0  0  0  0  0  0  0  0  0  0  0  0
    3.5627    3.6883    1.0100 C   0  0  0  0  0  0  0  0  0  0  0  0
    2.6159   -2.2867   -1.6609 H   0  0  0  0  0  0  0  0  0  0  0  0
   -0.1641   -2.3729    1.0822 H   0  0  0  0  0  0  0  0  0  0  0  0
    0.3497   -1.4812   -1.7787 H   0  0  0  0  0  0  0  0  0  0  0  0
    0.0558   -3.1143   -1.1587 H   0  0  0  0  0  0  0  0  0  0  0  0
    3.1613   -1.2880    0.8702 H   0  0  0  0  0  0  0  0  0  0  0  0
    1.8619    0.4514   -1.3194 H   0  0  0  0  0  0  0  0  0  0  0  0
    3.5715   -0.0071   -1.2491 H   0  0  0  0  0  0  0  0  0  0  0  0
    2.0691   -4.2242   -0.6045 H   0  0  0  0  0  0  0  0  0  0  0  0
    0.1845    0.9574   -0.1826 H   0  0  0  0  0  0  0  0  0  0  0  0
   -4.3405   -0.5729    0.2874 H   0  0  0  0  0  0  0  0  0  0  0  0
   -2.0078    3.2381   -1.5413 H   0  0  0  0  0  0  0  0  0  0  0  0
   -0.4726    3.1865   -0.6663 H   0  0  0  0  0  0  0  0  0  0  0  0
   -1.9545    3.6233    0.1932 H   0  0  0  0  0  0  0  0  0  0  0  0
    3.8224    4.7106    0.7243 H   0  0  0  0  0  0  0  0  0  0  0  0
    4.3746    3.2712    1.6113 H   0  0  0  0  0  0  0  0  0  0  0  0
    2.6474    3.7090    1.6073 H   0  0  0  0  0  0  0  0  0  0  0  0
  1  4  1  0  0  0  0
  1 19  1  0  0  0  0
  2 10  1  0  0  0  0
  2 12  1  0  0  0  0
  3  9  1  0  0  0  0
  3 27  1  0  0  0  0
  4 13  1  0  0  0  0
  5 15  2  0  0  0  0
  6 17  2  0  0  0  0
  7 10  1  0  0  0  0
  7 14  1  0  0  0  0
  7 15  1  0  0  0  0
  8 15  1  0  0  0  0
  8 17  1  0  0  0  0
  8 29  1  0  0  0  0
  9 11  1  0  0  0  0
  9 12  1  0  0  0  0
  9 20  1  0  0  0  0
 10 11  1  0  0  0  0
 10 21  1  0  0  0  0
 11 22  1  0  0  0  0
 11 23  1  0  0  0  0
 12 13  1  0  0  0  0
 12 24  1  0  0  0  0
 13 25  1  0  0  0  0
 13 26  1  0  0  0  0
 14 16  2  0  0  0  0
 14 28  1  0  0  0  0
 16 17  1  0  0  0  0
 16 18  1  0  0  0  0
 18 30  1  0  0  0  0
 18 31  1  0  0  0  0
 18 32  1  0  0  0  0
 19 33  1  0  0  0  0
 19 34  1  0  0  0  0
 19 35  1  0  0  0  0
M  END
> <PUBCHEM_COMPOUND_CID>
135518

> <PUBCHEM_CONFORMER_RMSD>
0.6

> <PUBCHEM_CONFORMER_DIVERSEORDER>
1
76
96
86
53
25
27
99
93
5
95
55
19
98
89
36
8
60
15
49
91
70
69
28
44
51
77
17
12
57
38
39
56
71
73
92
26
64
43
40
52
84
94
31
2
81
48
11
47
78
61
16
68
65
50
74
54
88
32
34
30
63
80
42
85
33
10
90
22
66
3
97
62
20
79
59
67
14
46
41
7
72
29
13
37
6
24
82
35
75
45
83
18
87
58
21
4
23
9

> <PUBCHEM_MMFF94_PARTIAL_CHARGES>
21
1 -0.22
10 0.58
12 0.28
13 0.28
14 -0.04
15 0.69
16 -0.12
17 0.62
18 0.14
19 0.23
2 -0.56
27 0.4
28 0.15
29 0.37
3 -0.68
4 -0.29
5 -0.57
6 -0.57
7 -0.47
8 -0.49
9 0.28

> <PUBCHEM_EFFECTIVE_ROTOR_COUNT>
5

> <PUBCHEM_PHARMACOPHORE_FEATURES>
8
1 2 acceptor
1 3 acceptor
1 3 donor
1 5 acceptor
1 6 acceptor
1 8 donor
5 2 9 10 11 12 rings
6 7 8 14 15 16 17 rings

> <PUBCHEM_HEAVY_ATOM_COUNT>
19

> <PUBCHEM_ATOM_DEF_STEREO_COUNT>
3

> <PUBCHEM_ATOM_UDEF_STEREO_COUNT>
0

> <PUBCHEM_BOND_DEF_STEREO_COUNT>
0

> <PUBCHEM_BOND_UDEF_STEREO_COUNT>
0

> <PUBCHEM_ISOTOPIC_ATOM_COUNT>
0

> <PUBCHEM_COMPONENT_COUNT>
1

> <PUBCHEM_CACTVS_TAUTO_COUNT>
3

> <PUBCHEM_CONFORMER_ID>
0002115E00000001

> <PUBCHEM_MMFF94_ENERGY>
41.7025

> <PUBCHEM_FEATURE_SELFOVERLAP>
40.598

> <PUBCHEM_SHAPE_FINGERPRINT>
10411042 1 16321186685640158606
10498660 4 18336549433573542236
10608611 8 18337111159561198919
10871710 139 17908140232652702860
12173636 292 18051691345952654668
12403259 226 17901105222503924317
13140716 1 18408885152471147680
13897977 150 18410293605586852701
14026960 21 18337955691965636120
14223421 5 18408328782423356839
14250199 8 18268710506995745325
14466204 15 18409725133101853128
14648413 74 18338519621150826754
14787075 74 16957322206700108938
15375462 6 18410298020655243879
16945 1 18192153702734639499
17859628 97 13150644996917721680
17980427 23 18052502592186773282
18186145 218 17907578030466669743
19591789 44 18051133893198974536
21501502 16 18339923719043002375
21524375 3 18339364192542077666
23402539 116 17547841963195342814
23559900 14 18267579122183855755
238 59 17976785780080370028
2748010 2 18337117872616084231
3084891 72 17112127443774274998
3524813 1 17840308049237786776
5262128 65 17771073695826580996
5939293 188 18049715218530811084
7097593 13 17752183034042887218
7364860 26 18339924801500919868
7832392 63 17547007425179640805
9709674 26 18338801113434111167
9981440 41 18264483069612887754

> <PUBCHEM_SHAPE_MULTIPOLES>
355.55
6.57
4.45
0.87
0.18
0.5
0
5
-0.5
-2.95
0.11
-0.35
0.05
1.22

> <PUBCHEM_SHAPE_SELFOVERLAP>
722.04

> <PUBCHEM_SHAPE_VOLUME>
209.8

> <PUBCHEM_COORDINATE_TYPE>
2
5
10

$$$$
