135532321
  -OEChem-03292013293D

 27 29  0     0  0  0  0  0  0999 V2000
    3.6374   -2.1258    0.0271 O   0  0  0  0  0  0  0  0  0  0  0  0
   -3.6229   -2.7728   -0.0528 O   0  0  0  0  0  0  0  0  0  0  0  0
   -3.7170    2.0936    0.5880 O   0  0  0  0  0  0  0  0  0  0  0  0
   -1.8909    2.8672   -0.5227 O   0  0  0  0  0  0  0  0  0  0  0  0
    0.2022    1.1824   -0.0015 N   0  0  0  0  0  0  0  0  0  0  0  0
    0.9563   -1.4666   -0.0002 N   0  0  0  0  0  0  0  0  0  0  0  0
   -0.7266    0.2132   -0.0139 C   0  0  0  0  0  0  0  0  0  0  0  0
   -0.3436   -1.1319   -0.0132 C   0  0  0  0  0  0  0  0  0  0  0  0
    1.8852   -0.4974    0.0123 C   0  0  0  0  0  0  0  0  0  0  0  0
    1.5022    0.8478    0.0115 C   0  0  0  0  0  0  0  0  0  0  0  0
   -2.0824    0.5342   -0.0275 C   0  0  0  0  0  0  0  0  0  0  0  0
   -1.3272   -2.1188   -0.0263 C   0  0  0  0  0  0  0  0  0  0  0  0
   -3.0614   -0.4576   -0.0405 C   0  0  0  0  0  0  0  0  0  0  0  0
    3.2410   -0.8183    0.0261 C   0  0  0  0  0  0  0  0  0  0  0  0
   -2.6816   -1.7914   -0.0400 C   0  0  0  0  0  0  0  0  0  0  0  0
    2.4857    1.8347    0.0246 C   0  0  0  0  0  0  0  0  0  0  0  0
    4.2200    0.1735    0.0391 C   0  0  0  0  0  0  0  0  0  0  0  0
    3.8403    1.5072    0.0382 C   0  0  0  0  0  0  0  0  0  0  0  0
   -2.5166    1.9268   -0.0284 C   0  0  0  0  0  0  0  0  0  0  0  0
   -1.0275   -3.1656   -0.0258 H   0  0  0  0  0  0  0  0  0  0  0  0
   -4.1208   -0.2159   -0.0656 H   0  0  0  0  0  0  0  0  0  0  0  0
    2.1997    2.8847    0.0241 H   0  0  0  0  0  0  0  0  0  0  0  0
    5.2758   -0.0820    0.0499 H   0  0  0  0  0  0  0  0  0  0  0  0
    4.5912    2.2912    0.0482 H   0  0  0  0  0  0  0  0  0  0  0  0
    4.6092   -2.1643    0.0375 H   0  0  0  0  0  0  0  0  0  0  0  0
   -3.1776   -3.6375   -0.0503 H   0  0  0  0  0  0  0  0  0  0  0  0
   -4.0029    3.0320    0.5833 H   0  0  0  0  0  0  0  0  0  0  0  0
  1 14  1  0  0  0  0
  1 25  1  0  0  0  0
  2 15  1  0  0  0  0
  2 26  1  0  0  0  0
  3 19  1  0  0  0  0
  3 27  1  0  0  0  0
  4 19  2  0  0  0  0
  5  7  1  0  0  0  0
  5 10  2  0  0  0  0
  6  8  1  0  0  0  0
  6  9  2  0  0  0  0
  7  8  1  0  0  0  0
  7 11  2  0  0  0  0
  8 12  2  0  0  0  0
  9 10  1  0  0  0  0
  9 14  1  0  0  0  0
 10 16  1  0  0  0  0
 11 13  1  0  0  0  0
 11 19  1  0  0  0  0
 12 15  1  0  0  0  0
 12 20  1  0  0  0  0
 13 15  2  0  0  0  0
 13 21  1  0  0  0  0
 14 17  2  0  0  0  0
 16 18  2  0  0  0  0
 16 22  1  0  0  0  0
 17 18  1  0  0  0  0
 17 23  1  0  0  0  0
 18 24  1  0  0  0  0
M  END
> <PUBCHEM_COMPOUND_CID>
135532321

> <PUBCHEM_CONFORMER_RMSD>
0.6

> <PUBCHEM_CONFORMER_DIVERSEORDER>
1

> <PUBCHEM_MMFF94_PARTIAL_CHARGES>
27
1 -0.53
10 0.31
11 0.09
12 -0.15
13 -0.15
14 0.08
15 0.08
16 -0.15
17 -0.15
18 -0.15
19 0.63
2 -0.53
20 0.15
21 0.15
22 0.15
23 0.15
24 0.15
25 0.45
26 0.45
27 0.5
3 -0.65
4 -0.57
5 -0.62
6 -0.62
7 0.31
8 0.31
9 0.31

> <PUBCHEM_EFFECTIVE_ROTOR_COUNT>
1

> <PUBCHEM_PHARMACOPHORE_FEATURES>
10
1 1 donor
1 2 donor
1 3 acceptor
1 4 acceptor
1 5 acceptor
1 6 acceptor
3 3 4 19 anion
6 5 6 7 8 9 10 rings
6 7 8 11 12 13 15 rings
6 9 10 14 16 17 18 rings

> <PUBCHEM_HEAVY_ATOM_COUNT>
19

> <PUBCHEM_ATOM_DEF_STEREO_COUNT>
0

> <PUBCHEM_ATOM_UDEF_STEREO_COUNT>
0

> <PUBCHEM_BOND_DEF_STEREO_COUNT>
0

> <PUBCHEM_BOND_UDEF_STEREO_COUNT>
0

> <PUBCHEM_ISOTOPIC_ATOM_COUNT>
0

> <PUBCHEM_COMPONENT_COUNT>
1

> <PUBCHEM_CACTVS_TAUTO_COUNT>
-1

> <PUBCHEM_CONFORMER_ID>
08140F2100000001

> <PUBCHEM_MMFF94_ENERGY>
62.3492

> <PUBCHEM_FEATURE_SELFOVERLAP>
50.886

> <PUBCHEM_SHAPE_FINGERPRINT>
10608611 8 18412260649227016688
10616163 171 18412266168154562118
10967382 1 18122343467381863182
1100329 8 15889405543938200280
11578080 2 17273677922896895827
12173636 292 18411133623817060405
12403259 226 18341608286799695352
12553582 1 18051968422440294455
12730499 353 17684644325948878909
13140716 1 18339636755197853304
138480 1 16609415283300636029
14178342 30 18337092537062902368
14223421 5 18340203098064876240
14790565 3 16967182691877715077
14965852 173 18410572868470503684
15196674 1 18411138048134372362
15375462 6 18266458883228207366
15442244 35 18337669720406287810
15536298 74 18342176687440908138
16945 1 18264480685468239767
17492 89 18410291423854989666
17804303 29 18339085886866161622
18186145 218 18271248205697583364
19591789 44 17402053296983799614
200 152 18130218389088786999
20510252 161 18342176716962224249
21029758 11 18123181575006303815
21267235 1 18338243768534362734
21501502 16 18409730672881586452
21524375 3 18045224838854689881
221490 88 18410581699540813058
2334 1 18410854395139913148
23366157 5 18113337510158712714
23402539 116 18270674406830995431
23463225 33 18409729586397395854
23557571 272 18272101538104849516
23558518 356 18333736831384899147
23559900 14 18199748051702922334
238 59 16743639367599560357
2748010 2 18411699889390203996
335352 9 18194965132612982126
350125 39 18411422846830506632
4214541 1 18411419492814326808
5104073 3 18411415120732701792
69090 78 18338795615881064985
7097593 13 17898554389982791930
74978 22 18338514145093612216
7832392 63 18410572838817234752
81228 2 18188770677338826953
9709674 26 18342178843087541478

> <PUBCHEM_SHAPE_MULTIPOLES>
357.57
7.31
2.94
0.61
2.87
0.28
0
-0.21
0.27
-2.09
-0.08
-0.05
0.07
-0.11

> <PUBCHEM_SHAPE_SELFOVERLAP>
814.678

> <PUBCHEM_SHAPE_VOLUME>
184.5

> <PUBCHEM_COORDINATE_TYPE>
2
5
10

$$$$
