135596554
  -OEChem-03292013293D

 40 42  0     1  0  0  0  0  0999 V2000
    2.4432   -0.2166   -1.0791 O   0  0  0  0  0  0  0  0  0  0  0  0
    1.6166    2.0676    1.5815 O   0  0  0  0  0  0  0  0  0  0  0  0
    3.8870    2.2039    0.0325 O   0  0  0  0  0  0  0  0  0  0  0  0
    4.1315   -2.4433   -0.8709 O   0  0  0  0  0  0  0  0  0  0  0  0
   -4.3384   -1.0711   -0.0069 O   0  0  0  0  0  0  0  0  0  0  0  0
    0.1445   -0.1092   -0.2655 N   0  3  0  0  0  0  0  0  0  0  0  0
   -1.3250   -1.6854   -0.1047 N   0  0  0  0  0  0  0  0  0  0  0  0
   -1.3429    1.8477   -0.3157 N   0  0  0  0  0  0  0  0  0  0  0  0
   -3.6231    1.1196   -0.1697 N   0  0  0  0  0  0  0  0  0  0  0  0
   -3.0978    3.4018   -0.3306 N   0  0  0  0  0  0  0  0  0  0  0  0
    1.4799    0.5888   -0.3689 C   0  0  1  0  0  0  0  0  0  0  0  0
    2.1064    0.8804    0.9907 C   0  0  1  0  0  0  0  0  0  0  0  0
    3.5810    0.9536    0.6483 C   0  0  1  0  0  0  0  0  0  0  0  0
    3.7199   -0.1363   -0.4068 C   0  0  1  0  0  0  0  0  0  0  0  0
    4.0337   -1.5036    0.1850 C   0  0  0  0  0  0  0  0  0  0  0  0
   -1.0872    0.5151   -0.2470 C   0  0  0  0  0  0  0  0  0  0  0  0
   -0.0141   -1.4342   -0.1790 C   0  0  0  0  0  0  0  0  0  0  0  0
   -2.0165   -0.4991   -0.1444 C   0  0  0  0  0  0  0  0  0  0  0  0
   -1.9009   -3.0101    0.0015 C   0  0  0  0  0  0  0  0  0  0  0  0
   -3.4146   -0.2664   -0.0961 C   0  0  0  0  0  0  0  0  0  0  0  0
   -2.6277    2.1146   -0.2743 C   0  0  0  0  0  0  0  0  0  0  0  0
   -2.3556   -3.3177    1.4201 C   0  0  0  0  0  0  0  0  0  0  0  0
    1.3223    1.5065   -0.9487 H   0  0  0  0  0  0  0  0  0  0  0  0
    1.9137    0.0477    1.6775 H   0  0  0  0  0  0  0  0  0  0  0  0
    4.2351    0.8377    1.5172 H   0  0  0  0  0  0  0  0  0  0  0  0
    4.4619    0.1147   -1.1733 H   0  0  0  0  0  0  0  0  0  0  0  0
    3.2391   -1.8428    0.8569 H   0  0  0  0  0  0  0  0  0  0  0  0
    4.9834   -1.4853    0.7284 H   0  0  0  0  0  0  0  0  0  0  0  0
    0.7737   -2.1704   -0.1666 H   0  0  0  0  0  0  0  0  0  0  0  0
    2.1403    2.2307    2.3844 H   0  0  0  0  0  0  0  0  0  0  0  0
    4.8311    2.1898   -0.2004 H   0  0  0  0  0  0  0  0  0  0  0  0
   -2.7378   -3.0936   -0.7000 H   0  0  0  0  0  0  0  0  0  0  0  0
   -1.1487   -3.7437   -0.3105 H   0  0  0  0  0  0  0  0  0  0  0  0
    4.3340   -3.3055   -0.4697 H   0  0  0  0  0  0  0  0  0  0  0  0
   -4.5882    1.4369   -0.1455 H   0  0  0  0  0  0  0  0  0  0  0  0
   -1.5115   -3.2547    2.1146 H   0  0  0  0  0  0  0  0  0  0  0  0
   -2.7720   -4.3279    1.4754 H   0  0  0  0  0  0  0  0  0  0  0  0
   -3.1179   -2.6136    1.7641 H   0  0  0  0  0  0  0  0  0  0  0  0
   -2.4632    4.1892   -0.4064 H   0  0  0  0  0  0  0  0  0  0  0  0
   -4.0909    3.6045   -0.2982 H   0  0  0  0  0  0  0  0  0  0  0  0
  1 11  1  0  0  0  0
  1 14  1  0  0  0  0
  2 12  1  0  0  0  0
  2 30  1  0  0  0  0
  3 13  1  0  0  0  0
  3 31  1  0  0  0  0
  4 15  1  0  0  0  0
  4 34  1  0  0  0  0
  5 20  2  0  0  0  0
  6 11  1  0  0  0  0
  6 16  1  0  0  0  0
  6 17  2  0  0  0  0
  7 17  1  0  0  0  0
  7 18  1  0  0  0  0
  7 19  1  0  0  0  0
  8 16  1  0  0  0  0
  8 21  2  0  0  0  0
  9 20  1  0  0  0  0
  9 21  1  0  0  0  0
  9 35  1  0  0  0  0
 10 21  1  0  0  0  0
 10 39  1  0  0  0  0
 10 40  1  0  0  0  0
 11 12  1  0  0  0  0
 11 23  1  0  0  0  0
 12 13  1  0  0  0  0
 12 24  1  0  0  0  0
 13 14  1  0  0  0  0
 13 25  1  0  0  0  0
 14 15  1  0  0  0  0
 14 26  1  0  0  0  0
 15 27  1  0  0  0  0
 15 28  1  0  0  0  0
 16 18  2  0  0  0  0
 17 29  1  0  0  0  0
 18 20  1  0  0  0  0
 19 22  1  0  0  0  0
 19 32  1  0  0  0  0
 19 33  1  0  0  0  0
 22 36  1  0  0  0  0
 22 37  1  0  0  0  0
 22 38  1  0  0  0  0
M  CHG  1   6   1
M  END
> <PUBCHEM_COMPOUND_CID>
135596554

> <PUBCHEM_CONFORMER_RMSD>
0.6

> <PUBCHEM_CONFORMER_DIVERSEORDER>
1
28
37
24
2
27
12
35
25
9
8
39
10
7
26
33
6
14
32
16
4
41
31
17
15
11
13
34
30
20
23
21
29
22
40
5
18
38
3
19
36

> <PUBCHEM_MMFF94_PARTIAL_CHARGES>
28
1 -0.56
10 -0.85
11 0.79
12 0.28
13 0.28
14 0.28
15 0.28
16 0.49
17 0.65
18 0.28
19 0.51
2 -0.68
20 0.7
21 0.56
29 0.15
3 -0.68
30 0.4
31 0.4
34 0.4
35 0.37
39 0.4
4 -0.68
40 0.4
5 -0.57
6 -0.76
7 -0.76
8 -0.59
9 -0.49

> <PUBCHEM_EFFECTIVE_ROTOR_COUNT>
4

> <PUBCHEM_PHARMACOPHORE_FEATURES>
14
1 1 acceptor
1 10 donor
1 2 acceptor
1 2 donor
1 3 acceptor
1 3 donor
1 4 acceptor
1 4 donor
1 5 acceptor
1 9 donor
3 6 7 17 cation
5 1 11 12 13 14 rings
5 6 7 16 17 18 rings
6 8 9 16 18 20 21 rings

> <PUBCHEM_HEAVY_ATOM_COUNT>
22

> <PUBCHEM_ATOM_DEF_STEREO_COUNT>
4

> <PUBCHEM_ATOM_UDEF_STEREO_COUNT>
0

> <PUBCHEM_BOND_DEF_STEREO_COUNT>
0

> <PUBCHEM_BOND_UDEF_STEREO_COUNT>
0

> <PUBCHEM_ISOTOPIC_ATOM_COUNT>
0

> <PUBCHEM_COMPONENT_COUNT>
1

> <PUBCHEM_CACTVS_TAUTO_COUNT>
-1

> <PUBCHEM_CONFORMER_ID>
08150A0A00000001

> <PUBCHEM_MMFF94_ENERGY>
45.3981

> <PUBCHEM_FEATURE_SELFOVERLAP>
71.238

> <PUBCHEM_SHAPE_FINGERPRINT>
10366900 7 18128528460843409408
10608611 8 18342452668780141204
10616163 171 18338517572709876478
1100329 8 16325133240329312578
11552529 35 17628928016813698683
12173636 292 18336822005410044141
12403259 226 18342733027123240737
12403260 363 18341038632285910231
12553582 1 17615981335789136703
13140716 1 18047757280547946609
14178342 30 18261100924749063410
14223421 5 18268706289343102848
14866123 147 16760580578678681262
15042514 8 18262526991525857443
15196674 1 18412261718436542093
15295992 7 18131634495408413409
16752209 62 18262223457301150083
16945 1 18335422408838467807
17804303 29 18411422769763688558
18186145 218 18130794403979236060
19049666 15 18342453751195964682
19591789 44 18337671901980778699
20510252 161 18413388743978387217
20645477 70 17632584855338242222
21524375 3 18268144245807116237
23402539 116 18341604971633484895
23557571 272 18191301782917348668
23559900 14 18411698816197077636
2748010 2 18052254291558445367
3004659 81 18045793287068695534
3084891 72 18054223224620248632
3091708 16 9272056711527203587
335352 9 18124032330248569692
350125 39 18265337209801389949
4214541 1 18410573959772148036
5104073 3 18412545392351866168
59755656 215 18264487300446214055
7364860 26 17690557486264989031
81228 2 18262511628073826917
8809292 202 18412546487557982810
9709674 26 18412546517960792974

> <PUBCHEM_SHAPE_MULTIPOLES>
398.5
8.07
3.54
0.95
3.76
0.63
-0.26
0.19
0.27
-2.43
-0.53
0.39
0.13
1.48

> <PUBCHEM_SHAPE_SELFOVERLAP>
855.577

> <PUBCHEM_SHAPE_VOLUME>
219.4

> <PUBCHEM_COORDINATE_TYPE>
2
5
10

$$$$
