135513783
  -OEChem-03292013293D

 30 32  0     1  0  0  0  0  0999 V2000
    2.1911    0.2255    0.8231 O   0  0  0  0  0  0  0  0  0  0  0  0
    2.1001   -2.7253   -0.4724 O   0  0  0  0  0  0  0  0  0  0  0  0
    4.5569    1.7167    1.1853 O   0  0  0  0  0  0  0  0  0  0  0  0
   -4.3680    1.5382   -0.4846 O   0  0  0  0  0  0  0  0  0  0  0  0
   -0.1114    0.1144    0.0725 N   0  0  0  0  0  0  0  0  0  0  0  0
   -1.4109    1.8151   -0.5792 N   0  0  0  0  0  0  0  0  0  0  0  0
   -1.7948   -1.5163    0.6907 N   0  0  0  0  0  0  0  0  0  0  0  0
   -3.9969   -0.6140    0.3405 N   0  0  0  0  0  0  0  0  0  0  0  0
    1.1491   -0.6649    0.3727 C   0  0  1  0  0  0  0  0  0  0  0  0
    1.6903   -1.4118   -0.8484 C   0  0  1  0  0  0  0  0  0  0  0  0
    2.8928   -0.5959   -1.2711 C   0  0  0  0  0  0  0  0  0  0  0  0
    3.3744   -0.0219    0.0504 C   0  0  1  0  0  0  0  0  0  0  0  0
    4.1666    1.2624   -0.1011 C   0  0  0  0  0  0  0  0  0  0  0  0
   -1.3985   -0.3074    0.2302 C   0  0  0  0  0  0  0  0  0  0  0  0
   -0.1708    1.3968   -0.4163 C   0  0  0  0  0  0  0  0  0  0  0  0
   -2.1708    0.7563   -0.1776 C   0  0  0  0  0  0  0  0  0  0  0  0
   -3.6064    0.6438   -0.1384 C   0  0  0  0  0  0  0  0  0  0  0  0
   -3.0927   -1.6115    0.7235 C   0  0  0  0  0  0  0  0  0  0  0  0
    0.8906   -1.3288    1.2053 H   0  0  0  0  0  0  0  0  0  0  0  0
    0.9625   -1.5200   -1.6589 H   0  0  0  0  0  0  0  0  0  0  0  0
    3.6719   -1.1781   -1.7716 H   0  0  0  0  0  0  0  0  0  0  0  0
    2.5675    0.2106   -1.9389 H   0  0  0  0  0  0  0  0  0  0  0  0
    3.9621   -0.7633    0.6061 H   0  0  0  0  0  0  0  0  0  0  0  0
    3.5558    2.0482   -0.5577 H   0  0  0  0  0  0  0  0  0  0  0  0
    5.0636    1.1019   -0.7069 H   0  0  0  0  0  0  0  0  0  0  0  0
    0.7165    1.9738   -0.6380 H   0  0  0  0  0  0  0  0  0  0  0  0
    1.3077   -3.1996   -0.1674 H   0  0  0  0  0  0  0  0  0  0  0  0
    5.0610    2.5383    1.0577 H   0  0  0  0  0  0  0  0  0  0  0  0
   -3.5936   -2.5280    1.0719 H   0  0  0  0  0  0  0  0  0  0  0  0
   -4.9913   -0.8097    0.4119 H   0  0  0  0  0  0  0  0  0  0  0  0
  1  9  1  0  0  0  0
  1 12  1  0  0  0  0
  2 10  1  0  0  0  0
  2 27  1  0  0  0  0
  3 13  1  0  0  0  0
  3 28  1  0  0  0  0
  4 17  2  0  0  0  0
  5  9  1  0  0  0  0
  5 14  1  0  0  0  0
  5 15  1  0  0  0  0
  6 15  2  0  0  0  0
  6 16  1  0  0  0  0
  7 14  1  0  0  0  0
  7 18  2  0  0  0  0
  8 17  1  0  0  0  0
  8 18  1  0  0  0  0
  8 30  1  0  0  0  0
  9 10  1  0  0  0  0
  9 19  1  0  0  0  0
 10 11  1  0  0  0  0
 10 20  1  0  0  0  0
 11 12  1  0  0  0  0
 11 21  1  0  0  0  0
 11 22  1  0  0  0  0
 12 13  1  0  0  0  0
 12 23  1  0  0  0  0
 13 24  1  0  0  0  0
 13 25  1  0  0  0  0
 14 16  2  0  0  0  0
 15 26  1  0  0  0  0
 16 17  1  0  0  0  0
 18 29  1  0  0  0  0
M  END
> <PUBCHEM_COMPOUND_CID>
135513783

> <PUBCHEM_CONFORMER_RMSD>
0.6

> <PUBCHEM_CONFORMER_DIVERSEORDER>
1
12
9
14
4
15
7
3
6
11
13
2
5
16
8
10

> <PUBCHEM_MMFF94_PARTIAL_CHARGES>
22
1 -0.56
10 0.28
12 0.28
13 0.28
14 -0.03
15 0.04
16 0.14
17 0.72
18 0.45
2 -0.68
26 0.15
27 0.4
28 0.4
29 0.06
3 -0.68
30 0.37
4 -0.57
5 0.05
6 -0.57
7 -0.58
8 -0.49
9 0.54

> <PUBCHEM_EFFECTIVE_ROTOR_COUNT>
3

> <PUBCHEM_PHARMACOPHORE_FEATURES>
11
1 1 acceptor
1 2 acceptor
1 2 donor
1 3 acceptor
1 3 donor
1 4 acceptor
1 8 donor
3 5 6 15 cation
5 1 9 10 11 12 rings
5 5 6 14 15 16 rings
6 7 8 14 16 17 18 rings

> <PUBCHEM_HEAVY_ATOM_COUNT>
18

> <PUBCHEM_ATOM_DEF_STEREO_COUNT>
3

> <PUBCHEM_ATOM_UDEF_STEREO_COUNT>
0

> <PUBCHEM_BOND_DEF_STEREO_COUNT>
0

> <PUBCHEM_BOND_UDEF_STEREO_COUNT>
0

> <PUBCHEM_ISOTOPIC_ATOM_COUNT>
0

> <PUBCHEM_COMPONENT_COUNT>
1

> <PUBCHEM_CACTVS_TAUTO_COUNT>
-1

> <PUBCHEM_CONFORMER_ID>
0813C6B700000001

> <PUBCHEM_MMFF94_ENERGY>
37.5269

> <PUBCHEM_FEATURE_SELFOVERLAP>
55.966

> <PUBCHEM_SHAPE_FINGERPRINT>
10608611 8 18338516343990423180
107287 299 18060702784213665374
10871710 139 16392684619459104788
11132069 177 18333452062083811332
12173636 292 18115867404482981533
13214271 11 18410007779718360165
13296908 3 18410863135535699031
13544592 145 18194692470761625631
15099037 37 18190179164302515763
15219456 202 18413110550003002734
15375358 24 18409727365635475221
16945 1 18261117331339452645
17980427 23 17749390437785294876
18175812 5 18412547604497464854
18186145 218 17969506996277355973
19784866 170 18409732884789834832
200 152 17560797689088337191
20279233 1 18411141320356334355
20510252 161 18339081480525615361
20645477 56 18260552173899643253
20645477 70 17846217700629355382
23402539 116 18187639228392175574
23557571 272 18335153015293634918
23559900 14 18335425612894925710
2748010 2 18336278855145223599
296302 2 18342458153363421605
34934 24 18335414664933376727
449060 50 18273218620470252529
495365 180 17916006989336399051
5104073 3 18336268955234628923
7364860 26 18267302032922726666
77492 1 14764349318743210395
81228 2 18041857098910464553
9709674 26 18409736127390358391

> <PUBCHEM_SHAPE_MULTIPOLES>
327.03
8.23
2.07
0.94
0.54
0.51
0.02
-2.41
-0.76
0.28
0.12
0.57
0.03
1.43

> <PUBCHEM_SHAPE_SELFOVERLAP>
709.613

> <PUBCHEM_SHAPE_VOLUME>
176.7

> <PUBCHEM_COORDINATE_TYPE>
2
5
10

$$$$
