135566108
  -OEChem-03292013293D

 29 30  0     1  0  0  0  0  0999 V2000
    2.6947    0.5285    2.1875 O   0  0  0  0  0  0  0  0  0  0  0  0
    2.9356   -1.5317    0.2734 O   0  0  0  0  0  0  0  0  0  0  0  0
    4.1163   -0.9305   -2.1853 O   0  0  0  0  0  0  0  0  0  0  0  0
   -1.2424   -2.4726    0.7449 O   0  0  0  0  0  0  0  0  0  0  0  0
    0.3696   -0.2889    0.5735 N   0  0  0  0  0  0  0  0  0  0  0  0
   -0.8244    2.1091   -0.2774 N   0  0  0  0  0  0  0  0  0  0  0  0
   -3.0742   -1.2423    0.0350 N   0  0  0  0  0  0  0  0  0  0  0  0
   -2.9050    1.0504   -0.4859 N   0  0  0  0  0  0  0  0  0  0  0  0
   -4.9626   -0.0592   -0.6771 N   0  0  0  0  0  0  0  0  0  0  0  0
    2.5223    0.8094    0.7878 C   0  0  1  0  0  0  0  0  0  0  0  0
    3.3710   -0.2035   -0.0239 C   0  0  2  0  0  0  0  0  0  0  0  0
    1.0722    0.8533    0.4527 C   0  0  0  0  0  0  0  0  0  0  0  0
    3.2863    0.0243   -1.5308 C   0  0  0  0  0  0  0  0  0  0  0  0
   -0.9371   -0.1976    0.2590 C   0  0  0  0  0  0  0  0  0  0  0  0
    0.4865    2.0296    0.0354 C   0  0  0  0  0  0  0  0  0  0  0  0
   -1.5415    0.9723   -0.1612 C   0  0  0  0  0  0  0  0  0  0  0  0
   -1.7424   -1.4174    0.3759 C   0  0  0  0  0  0  0  0  0  0  0  0
   -3.6249   -0.0332   -0.3833 C   0  0  0  0  0  0  0  0  0  0  0  0
    2.9632    1.8015    0.6289 H   0  0  0  0  0  0  0  0  0  0  0  0
    4.4145   -0.1509    0.3093 H   0  0  0  0  0  0  0  0  0  0  0  0
    3.6272    1.0292   -1.7977 H   0  0  0  0  0  0  0  0  0  0  0  0
    2.2683   -0.1281   -1.9026 H   0  0  0  0  0  0  0  0  0  0  0  0
    1.0419    2.9547   -0.0657 H   0  0  0  0  0  0  0  0  0  0  0  0
    1.9888    0.9824    2.6787 H   0  0  0  0  0  0  0  0  0  0  0  0
    3.4802   -2.1415   -0.2533 H   0  0  0  0  0  0  0  0  0  0  0  0
   -3.6878   -2.0496    0.0942 H   0  0  0  0  0  0  0  0  0  0  0  0
    4.0464   -0.7610   -3.1403 H   0  0  0  0  0  0  0  0  0  0  0  0
   -5.4480    0.7747   -0.9894 H   0  0  0  0  0  0  0  0  0  0  0  0
   -5.5066   -0.9108   -0.5916 H   0  0  0  0  0  0  0  0  0  0  0  0
  1 10  1  0  0  0  0
  1 24  1  0  0  0  0
  2 11  1  0  0  0  0
  2 25  1  0  0  0  0
  3 13  1  0  0  0  0
  3 27  1  0  0  0  0
  4 17  2  0  0  0  0
  5 12  1  0  0  0  0
  5 14  2  0  0  0  0
  6 15  1  0  0  0  0
  6 16  2  0  0  0  0
  7 17  1  0  0  0  0
  7 18  1  0  0  0  0
  7 26  1  0  0  0  0
  8 16  1  0  0  0  0
  8 18  2  0  0  0  0
  9 18  1  0  0  0  0
  9 28  1  0  0  0  0
  9 29  1  0  0  0  0
 10 11  1  0  0  0  0
 10 12  1  0  0  0  0
 10 19  1  0  0  0  0
 11 13  1  0  0  0  0
 11 20  1  0  0  0  0
 12 15  2  0  0  0  0
 13 21  1  0  0  0  0
 13 22  1  0  0  0  0
 14 16  1  0  0  0  0
 14 17  1  0  0  0  0
 15 23  1  0  0  0  0
M  END
> <PUBCHEM_COMPOUND_CID>
135566108

> <PUBCHEM_CONFORMER_RMSD>
0.6

> <PUBCHEM_CONFORMER_DIVERSEORDER>
1
9
30
12
25
14
4
28
13
16
11
5
24
27
29
15
26
3
23
20
2
18
21
7
8
19
6
31
10
22
17

> <PUBCHEM_MMFF94_PARTIAL_CHARGES>
25
1 -0.68
10 0.42
11 0.28
12 0.17
13 0.28
14 0.4
15 0.16
16 0.49
17 0.54
18 0.56
2 -0.68
23 0.15
24 0.4
25 0.4
26 0.37
27 0.4
28 0.4
29 0.4
3 -0.68
4 -0.57
5 -0.62
6 -0.62
7 -0.49
8 -0.63
9 -0.85

> <PUBCHEM_EFFECTIVE_ROTOR_COUNT>
3

> <PUBCHEM_PHARMACOPHORE_FEATURES>
13
1 1 acceptor
1 1 donor
1 2 acceptor
1 2 donor
1 3 acceptor
1 3 donor
1 4 acceptor
1 5 acceptor
1 7 donor
1 9 donor
3 6 8 16 cation
6 5 6 12 14 15 16 rings
6 7 8 14 16 17 18 rings

> <PUBCHEM_HEAVY_ATOM_COUNT>
18

> <PUBCHEM_ATOM_DEF_STEREO_COUNT>
2

> <PUBCHEM_ATOM_UDEF_STEREO_COUNT>
0

> <PUBCHEM_BOND_DEF_STEREO_COUNT>
0

> <PUBCHEM_BOND_UDEF_STEREO_COUNT>
0

> <PUBCHEM_ISOTOPIC_ATOM_COUNT>
0

> <PUBCHEM_COMPONENT_COUNT>
1

> <PUBCHEM_CACTVS_TAUTO_COUNT>
-1

> <PUBCHEM_CONFORMER_ID>
0814931C00000001

> <PUBCHEM_MMFF94_ENERGY>
45.9304

> <PUBCHEM_FEATURE_SELFOVERLAP>
66.082

> <PUBCHEM_SHAPE_FINGERPRINT>
10465860 71 18334587853490260572
10751810 167 17894634772520428379
11543360 7 15213018280210529113
12032990 46 18409165537027259889
12236239 1 17167573882654101736
13296908 3 18343017826145954864
13533116 47 16702304576778396743
13544592 145 18201722846688047158
13583140 156 15481813740348297779
14022347 108 18334575741529563473
14115302 16 17749102297040322370
14252887 29 17632574955338313248
14289901 80 16199860765080943473
14911166 2 18334855030684223525
15342168 16 13696167227013511422
15375358 24 18340475781232937264
15375462 175 18335134254776246472
15848700 24 18340756122280356757
16752209 62 18261385599144229937
16945 1 18334853926672101545
18186145 218 18272367547141827385
20279233 1 18341889723189960450
20510252 161 18341317921304375657
20523700 14 18259990391992658118
20645476 183 17095245851563216523
20645477 70 17775844627303796876
20871999 31 18337122189142911820
21069387 34 16988850509558454263
22713019 99 18273498961760336975
23557571 272 18341894070129978072
23559900 14 18410290324806669536
23598291 2 16806723954812217672
2748010 2 18046623688064682377
3286 77 17132116822980948260
474 4 14619359010286596906
7364860 26 18123468546940201896
74978 22 18261955279311222305
77492 1 17095517387927386960
81228 2 18411984619958069192
9709674 26 18269270347218959183

> <PUBCHEM_SHAPE_MULTIPOLES>
322.05
7.39
1.9
1.31
1.68
0.13
-0.15
1.71
-2.72
0.39
0.18
-1.84
0.15
0.91

> <PUBCHEM_SHAPE_SELFOVERLAP>
687.772

> <PUBCHEM_SHAPE_VOLUME>
177.2

> <PUBCHEM_COORDINATE_TYPE>
2
5
10

$$$$
