135565962
  -OEChem-03292013293D

 52 55  0     0  0  0  0  0  0999 V2000
    5.1076   -0.9891    0.7585 P   0  0  0  0  0  0  0  0  0  0  0  0
    3.9149   -0.9151   -0.3324 O   0  0  0  0  0  0  0  0  0  0  0  0
    1.4740    2.4180    2.0252 O   0  0  0  0  0  0  0  0  0  0  0  0
   -3.8442    3.3243   -0.0367 O   0  0  0  0  0  0  0  0  0  0  0  0
    6.0207   -2.2057    0.2062 O   0  0  0  0  0  0  0  0  0  0  0  0
    4.4064   -1.6288    2.0682 O   0  0  0  0  0  0  0  0  0  0  0  0
    5.8532    0.2944    0.9814 O   0  0  0  0  0  0  0  0  0  0  0  0
   -1.8663    2.0162    0.0003 N   0  0  0  0  0  0  0  0  0  0  0  0
   -3.7600   -3.1736    0.4120 N   0  0  0  0  0  0  0  0  0  0  0  0
   -0.4327    3.7506    0.0824 N   0  0  0  0  0  0  0  0  0  0  0  0
   -1.7015    4.2267    0.0409 N   0  0  0  0  0  0  0  0  0  0  0  0
    1.9743   -1.0179   -2.4267 C   0  0  0  0  0  0  0  0  0  0  0  0
    1.8494   -0.1120   -1.2464 C   0  0  0  0  0  0  0  0  0  0  0  0
    0.6085    1.5809   -0.0498 C   0  0  0  0  0  0  0  0  0  0  0  0
   -0.5652    2.4549    0.0376 C   0  0  0  0  0  0  0  0  0  0  0  0
    0.7407    0.7287   -1.1462 C   0  0  0  0  0  0  0  0  0  0  0  0
   -2.4021    0.7027    0.0692 C   0  0  0  0  0  0  0  0  0  0  0  0
   -2.2585   -1.5843    0.8552 C   0  0  0  0  0  0  0  0  0  0  0  0
   -3.4597   -1.8480    0.1935 C   0  0  0  0  0  0  0  0  0  0  0  0
    2.8261   -0.1000   -0.2505 C   0  0  0  0  0  0  0  0  0  0  0  0
   -1.7205   -0.2837    0.7913 C   0  0  0  0  0  0  0  0  0  0  0  0
    1.5852    1.5929    0.9460 C   0  0  0  0  0  0  0  0  0  0  0  0
    0.8267   -2.0416   -2.5055 C   0  0  0  0  0  0  0  0  0  0  0  0
    2.0772   -0.2430   -3.7534 C   0  0  0  0  0  0  0  0  0  0  0  0
    2.6940    0.7525    0.8456 C   0  0  0  0  0  0  0  0  0  0  0  0
   -3.5993    0.4108   -0.5813 C   0  0  0  0  0  0  0  0  0  0  0  0
   -4.1524   -0.8720   -0.5317 C   0  0  0  0  0  0  0  0  0  0  0  0
   -2.6298    3.1803   -0.0216 C   0  0  0  0  0  0  0  0  0  0  0  0
   -1.8495   -2.7968    1.4774 C   0  0  0  0  0  0  0  0  0  0  0  0
   -2.7928   -3.7555    1.1867 C   0  0  0  0  0  0  0  0  0  0  0  0
   -4.9243   -3.8670   -0.0954 C   0  0  0  0  0  0  0  0  0  0  0  0
    2.8969   -1.6064   -2.3503 H   0  0  0  0  0  0  0  0  0  0  0  0
   -0.0193    0.7316   -1.9238 H   0  0  0  0  0  0  0  0  0  0  0  0
   -0.8184   -0.0748    1.3538 H   0  0  0  0  0  0  0  0  0  0  0  0
    1.1594    0.3108   -3.9785 H   0  0  0  0  0  0  0  0  0  0  0  0
    0.9972   -2.7475   -3.3256 H   0  0  0  0  0  0  0  0  0  0  0  0
    2.9037    0.4756   -3.7209 H   0  0  0  0  0  0  0  0  0  0  0  0
    2.2625   -0.9305   -4.5858 H   0  0  0  0  0  0  0  0  0  0  0  0
    0.7547   -2.6172   -1.5758 H   0  0  0  0  0  0  0  0  0  0  0  0
   -0.1424   -1.5606   -2.6768 H   0  0  0  0  0  0  0  0  0  0  0  0
    3.4303    0.7853    1.6407 H   0  0  0  0  0  0  0  0  0  0  0  0
   -4.1223    1.1583   -1.1718 H   0  0  0  0  0  0  0  0  0  0  0  0
   -5.0810   -1.0949   -1.0464 H   0  0  0  0  0  0  0  0  0  0  0  0
   -0.9606   -2.9525    2.0733 H   0  0  0  0  0  0  0  0  0  0  0  0
   -2.8492   -4.7982    1.4694 H   0  0  0  0  0  0  0  0  0  0  0  0
   -1.8801    5.2226    0.0634 H   0  0  0  0  0  0  0  0  0  0  0  0
   -5.8175   -3.3714    0.2935 H   0  0  0  0  0  0  0  0  0  0  0  0
   -4.9017   -3.8254   -1.1873 H   0  0  0  0  0  0  0  0  0  0  0  0
   -4.9054   -4.9085    0.2357 H   0  0  0  0  0  0  0  0  0  0  0  0
    2.2413    2.2881    2.6083 H   0  0  0  0  0  0  0  0  0  0  0  0
    4.9307   -1.7146    2.8927 H   0  0  0  0  0  0  0  0  0  0  0  0
    6.8783   -2.3914    0.6446 H   0  0  0  0  0  0  0  0  0  0  0  0
  1  2  1  0  0  0  0
  1  5  1  0  0  0  0
  1  6  1  0  0  0  0
  1  7  2  0  0  0  0
  2 20  1  0  0  0  0
  3 22  1  0  0  0  0
  3 50  1  0  0  0  0
  4 28  2  0  0  0  0
  5 52  1  0  0  0  0
  6 51  1  0  0  0  0
  8 15  1  0  0  0  0
  8 17  1  0  0  0  0
  8 28  1  0  0  0  0
  9 19  1  0  0  0  0
  9 30  1  0  0  0  0
  9 31  1  0  0  0  0
 10 11  1  0  0  0  0
 10 15  2  0  0  0  0
 11 28  1  0  0  0  0
 11 46  1  0  0  0  0
 12 13  1  0  0  0  0
 12 23  1  0  0  0  0
 12 24  1  0  0  0  0
 12 32  1  0  0  0  0
 13 16  1  0  0  0  0
 13 20  2  0  0  0  0
 14 15  1  0  0  0  0
 14 16  2  0  0  0  0
 14 22  1  0  0  0  0
 16 33  1  0  0  0  0
 17 21  2  0  0  0  0
 17 26  1  0  0  0  0
 18 19  2  0  0  0  0
 18 21  1  0  0  0  0
 18 29  1  0  0  0  0
 19 27  1  0  0  0  0
 20 25  1  0  0  0  0
 21 34  1  0  0  0  0
 22 25  2  0  0  0  0
 23 36  1  0  0  0  0
 23 39  1  0  0  0  0
 23 40  1  0  0  0  0
 24 35  1  0  0  0  0
 24 37  1  0  0  0  0
 24 38  1  0  0  0  0
 25 41  1  0  0  0  0
 26 27  2  0  0  0  0
 26 42  1  0  0  0  0
 27 43  1  0  0  0  0
 29 30  2  0  0  0  0
 29 44  1  0  0  0  0
 30 45  1  0  0  0  0
 31 47  1  0  0  0  0
 31 48  1  0  0  0  0
 31 49  1  0  0  0  0
M  END
> <PUBCHEM_COMPOUND_CID>
135565962

> <PUBCHEM_CONFORMER_RMSD>
0.8

> <PUBCHEM_CONFORMER_DIVERSEORDER>
1
9
32
37
34
44
28
33
27
42
21
17
10
22
13
31
40
35
41
7
20
46
4
11
18
16
2
5
15
30
23
24
6
29
12
3
25
36
39
26
45
14
8
43
19
38

> <PUBCHEM_MMFF94_PARTIAL_CHARGES>
39
1 1.51
10 -0.51
11 -0.37
12 0.14
13 -0.14
14 0.09
15 0.42
16 -0.15
17 0.12
19 -0.15
2 -0.35
20 0.08
21 -0.15
22 0.08
25 -0.15
26 -0.15
27 -0.15
28 0.69
29 -0.15
3 -0.53
30 -0.3
31 0.26
33 0.15
34 0.15
4 -0.57
41 0.15
42 0.15
43 0.15
44 0.15
45 0.15
46 0.37
5 -0.77
50 0.45
51 0.5
52 0.5
6 -0.77
7 -0.7
8 -0.24
9 0.05

> <PUBCHEM_EFFECTIVE_ROTOR_COUNT>
5

> <PUBCHEM_PHARMACOPHORE_FEATURES>
13
1 11 donor
1 3 donor
1 4 acceptor
1 5 acceptor
1 6 acceptor
1 7 acceptor
1 9 cation
3 12 23 24 hydrophobe
4 1 5 6 7 anion
5 8 10 11 15 28 rings
5 9 18 19 29 30 rings
6 13 14 16 20 22 25 rings
6 17 18 19 21 26 27 rings

> <PUBCHEM_HEAVY_ATOM_COUNT>
31

> <PUBCHEM_ATOM_DEF_STEREO_COUNT>
0

> <PUBCHEM_ATOM_UDEF_STEREO_COUNT>
0

> <PUBCHEM_BOND_DEF_STEREO_COUNT>
0

> <PUBCHEM_BOND_UDEF_STEREO_COUNT>
0

> <PUBCHEM_ISOTOPIC_ATOM_COUNT>
0

> <PUBCHEM_COMPONENT_COUNT>
1

> <PUBCHEM_CACTVS_TAUTO_COUNT>
-1

> <PUBCHEM_CONFORMER_ID>
0814928A00000001

> <PUBCHEM_MMFF94_ENERGY>
66.9358

> <PUBCHEM_FEATURE_SELFOVERLAP>
66.098

> <PUBCHEM_SHAPE_FINGERPRINT>
10906281 52 17845097264222275408
11828532 37 17971192775806767859
12160290 23 18047222711585761369
12166972 35 17603863472363633183
12202916 173 18199731618767710423
12293681 25 17916035559316505766
12363563 72 18265342883274021819
12553582 1 18194149462610313335
12633257 1 18342747303372772827
12788726 201 18190207670527648581
13009979 54 17895490188446269054
13140716 1 18341899631780102873
13383661 66 11117159461673230403
13726171 33 18125473936338716932
14725015 67 18411415142387457099
14844126 61 18334014947733900377
14866123 147 18410575059858561801
15250474 111 18042957693466222370
15927050 60 17835795306036161437
17980427 26 16899038770370541700
20600515 1 18410300172497318828
20642791 13 18272369720680590005
21133410 32 17046333973823127366
21133410 52 17047941799805300414
23559900 14 18336815489665249952
3380486 145 17346594157964319821
463206 1 18043813306158900107
563151 74 15841000970644414795
6669772 16 17837204883989784253

> <PUBCHEM_SHAPE_MULTIPOLES>
586.68
9.85
4.99
2.13
7.15
2.31
-2
-8.86
2.8
-6.15
1.25
2.47
-1.1
0.83

> <PUBCHEM_SHAPE_SELFOVERLAP>
1278.291

> <PUBCHEM_SHAPE_VOLUME>
323.4

> <PUBCHEM_COORDINATE_TYPE>
2
5
10

$$$$
