135525717
  -OEChem-03292013293D

 29 31  0     0  0  0  0  0  0999 V2000
   -4.3371   -0.4058    0.2466 O   0  0  0  0  0  0  0  0  0  0  0  0
    2.2700   -2.3984   -0.4233 O   0  0  0  0  0  0  0  0  0  0  0  0
   -2.6075   -1.8395    0.3930 N   0  0  0  0  0  0  0  0  0  0  0  0
   -2.7314    1.8450   -0.0262 N   0  0  0  0  0  0  0  0  0  0  0  0
    2.0717    1.0582    0.1841 N   0  0  0  0  0  0  0  0  0  0  0  0
    3.6248   -0.5497    0.0668 N   0  0  0  0  0  0  0  0  0  0  0  0
    4.3583    1.6394    0.5483 N   0  0  0  0  0  0  0  0  0  0  0  0
    0.1513   -0.3398   -0.2880 C   0  0  0  0  0  0  0  0  0  0  0  0
   -0.3559   -1.7195   -0.6140 C   0  0  0  0  0  0  0  0  0  0  0  0
   -0.8412    0.6969   -0.2114 C   0  0  0  0  0  0  0  0  0  0  0  0
   -1.2256   -2.2602    0.5069 C   0  0  0  0  0  0  0  0  0  0  0  0
   -2.2125    0.5595    0.0030 C   0  0  0  0  0  0  0  0  0  0  0  0
    1.4679   -0.1363   -0.1018 C   0  0  0  0  0  0  0  0  0  0  0  0
   -3.1126   -0.5649    0.2181 C   0  0  0  0  0  0  0  0  0  0  0  0
   -0.5691    2.0935   -0.3557 C   0  0  0  0  0  0  0  0  0  0  0  0
   -1.7545    2.7714   -0.2347 C   0  0  0  0  0  0  0  0  0  0  0  0
    2.4625   -1.2224   -0.1871 C   0  0  0  0  0  0  0  0  0  0  0  0
    3.3411    0.7725    0.2755 C   0  0  0  0  0  0  0  0  0  0  0  0
   -0.9601   -1.6360   -1.5319 H   0  0  0  0  0  0  0  0  0  0  0  0
    0.3482   -2.4869   -0.9012 H   0  0  0  0  0  0  0  0  0  0  0  0
   -1.2403   -3.3551    0.4642 H   0  0  0  0  0  0  0  0  0  0  0  0
   -0.8586   -1.9743    1.4991 H   0  0  0  0  0  0  0  0  0  0  0  0
   -3.3017   -2.5650    0.5454 H   0  0  0  0  0  0  0  0  0  0  0  0
    0.3698    2.5858   -0.5622 H   0  0  0  0  0  0  0  0  0  0  0  0
   -3.7106    2.0623    0.0955 H   0  0  0  0  0  0  0  0  0  0  0  0
   -1.9884    3.8251   -0.2896 H   0  0  0  0  0  0  0  0  0  0  0  0
    4.5489   -0.9641    0.0958 H   0  0  0  0  0  0  0  0  0  0  0  0
    4.1817    2.6253    0.7077 H   0  0  0  0  0  0  0  0  0  0  0  0
    5.3208    1.3241    0.5996 H   0  0  0  0  0  0  0  0  0  0  0  0
  1 14  2  0  0  0  0
  2 17  2  0  0  0  0
  3 11  1  0  0  0  0
  3 14  1  0  0  0  0
  3 23  1  0  0  0  0
  4 12  1  0  0  0  0
  4 16  1  0  0  0  0
  4 25  1  0  0  0  0
  5 13  1  0  0  0  0
  5 18  2  0  0  0  0
  6 17  1  0  0  0  0
  6 18  1  0  0  0  0
  6 27  1  0  0  0  0
  7 18  1  0  0  0  0
  7 28  1  0  0  0  0
  7 29  1  0  0  0  0
  8  9  1  0  0  0  0
  8 10  1  0  0  0  0
  8 13  2  3  0  0  0
  9 11  1  0  0  0  0
  9 19  1  0  0  0  0
  9 20  1  0  0  0  0
 10 12  2  0  0  0  0
 10 15  1  0  0  0  0
 11 21  1  0  0  0  0
 11 22  1  0  0  0  0
 12 14  1  0  0  0  0
 13 17  1  0  0  0  0
 15 16  2  0  0  0  0
 15 24  1  0  0  0  0
 16 26  1  0  0  0  0
M  END
> <PUBCHEM_COMPOUND_CID>
135525717

> <PUBCHEM_CONFORMER_RMSD>
0.6

> <PUBCHEM_CONFORMER_DIVERSEORDER>
1
2

> <PUBCHEM_MMFF94_PARTIAL_CHARGES>
25
1 -0.57
10 -0.05
11 0.3
12 -0.24
13 0.19
14 0.71
15 -0.15
16 -0.3
17 0.62
18 0.56
2 -0.57
23 0.37
24 0.15
25 0.27
26 0.15
27 0.37
28 0.4
29 0.4
3 -0.73
4 0.03
5 -0.62
6 -0.49
7 -0.85
8 -0.09
9 0.14

> <PUBCHEM_EFFECTIVE_ROTOR_COUNT>
0.8

> <PUBCHEM_PHARMACOPHORE_FEATURES>
10
1 1 acceptor
1 2 acceptor
1 3 donor
1 4 cation
1 4 donor
1 6 donor
1 7 donor
5 4 10 12 15 16 rings
5 5 6 13 17 18 rings
7 3 8 9 10 11 12 14 rings

> <PUBCHEM_HEAVY_ATOM_COUNT>
18

> <PUBCHEM_ATOM_DEF_STEREO_COUNT>
0

> <PUBCHEM_ATOM_UDEF_STEREO_COUNT>
0

> <PUBCHEM_BOND_DEF_STEREO_COUNT>
0

> <PUBCHEM_BOND_UDEF_STEREO_COUNT>
1

> <PUBCHEM_ISOTOPIC_ATOM_COUNT>
0

> <PUBCHEM_COMPONENT_COUNT>
1

> <PUBCHEM_CACTVS_TAUTO_COUNT>
-1

> <PUBCHEM_CONFORMER_ID>
0813F55500000001

> <PUBCHEM_MMFF94_ENERGY>
48.4966

> <PUBCHEM_FEATURE_SELFOVERLAP>
50.819

> <PUBCHEM_SHAPE_FINGERPRINT>
10608611 8 18340203003623035964
10616163 171 18337956791577607598
10967382 1 18410294743652686503
11132069 177 18410292561772435393
12011746 2 18412545444049865149
12382932 28 18337393858487745906
12553582 1 18192446361932406319
13140716 1 18050287273450805817
14223421 5 18411139108590504278
14787075 74 17680152059937517443
14790565 3 17543924858564284917
15196674 1 18410856542866089299
15219456 202 18341895147459380966
15375462 6 18411420600689042486
15442244 35 18192991526500445674
16945 1 18336557108737706605
17804303 29 18194127313342902046
18186145 218 18058173808548246192
19049666 15 18268712710282449350
19784866 170 18338521962034304826
20510252 161 18341332210617968481
20871998 184 18342177795104588455
21029758 11 18340761637551166669
21267235 1 18409740555496261742
21501502 16 18339081471465818294
2334 1 18338516339605759189
23402539 116 18340477950492212503
23558518 356 18261117322411817099
23559900 14 18268424629894002754
238 59 17108154955692325941
2748010 2 18337676291357993853
335352 9 17906453221001518311
34934 24 18337665421001716567
350125 39 18338805498600572772
3524813 1 18130499850937957432
43471831 8 18188207581309395731
5104073 3 18410575041766160920
69090 78 18342735230362543759
7097593 13 17825649072664341674
7364860 26 18271527507679467614
81228 2 18188221935084427721
8809292 202 18193845833786140406
9709674 26 18340771451013640846

> <PUBCHEM_SHAPE_MULTIPOLES>
333.79
6.45
2.8
0.68
2.58
0.31
-0.02
0.71
1.08
-0.75
-0.09
0.03
-0.06
0.69

> <PUBCHEM_SHAPE_SELFOVERLAP>
745.343

> <PUBCHEM_SHAPE_VOLUME>
176.2

> <PUBCHEM_COORDINATE_TYPE>
2
5
10

$$$$
