135517487
  -OEChem-03292013293D

 59 62  0     0  0  0  0  0  0999 V2000
   -3.5490    1.9268   -1.7280 O   0  0  0  0  0  0  0  0  0  0  0  0
   -5.6351    2.4637    0.0290 O   0  0  0  0  0  0  0  0  0  0  0  0
    3.8891    3.1341    1.5874 O   0  0  0  0  0  0  0  0  0  0  0  0
    0.4730   -0.0254   -0.6859 O   0  0  0  0  0  0  0  0  0  0  0  0
    4.4337    0.5294   -2.9937 O   0  0  0  0  0  0  0  0  0  0  0  0
    0.5009   -2.2438    1.1555 N   0  0  0  0  0  0  0  0  0  0  0  0
   -0.6757   -2.6423   -0.6854 N   0  0  0  0  0  0  0  0  0  0  0  0
    1.7704   -2.5914   -0.8528 N   0  0  0  0  0  0  0  0  0  0  0  0
    2.3705    0.6985   -1.8893 N   0  0  0  0  0  0  0  0  0  0  0  0
    3.3809   -1.2975   -2.0208 N   0  0  0  0  0  0  0  0  0  0  0  0
    1.6308   -2.0360    2.0315 C   0  0  0  0  0  0  0  0  0  0  0  0
   -1.5180   -2.4632    0.3834 C   0  0  0  0  0  0  0  0  0  0  0  0
   -2.9759   -2.5475    0.2096 C   0  0  0  0  0  0  0  0  0  0  0  0
   -0.8112   -2.2148    1.5363 C   0  0  0  0  0  0  0  0  0  0  0  0
    0.5325   -2.5035   -0.1864 C   0  0  0  0  0  0  0  0  0  0  0  0
   -3.6887   -1.2013    0.1582 C   0  0  0  0  0  0  0  0  0  0  0  0
    2.2333   -0.6581    1.9135 C   0  0  0  0  0  0  0  0  0  0  0  0
   -3.2930   -0.2380   -0.7698 C   0  0  0  0  0  0  0  0  0  0  0  0
   -4.7359   -0.9320    1.0394 C   0  0  0  0  0  0  0  0  0  0  0  0
    1.4411    0.4698    2.1282 C   0  0  0  0  0  0  0  0  0  0  0  0
    3.5820   -0.5113    1.5892 C   0  0  0  0  0  0  0  0  0  0  0  0
    2.2261   -1.4954   -1.3400 C   0  0  0  0  0  0  0  0  0  0  0  0
   -3.9446    0.9942   -0.8170 C   0  0  0  0  0  0  0  0  0  0  0  0
   -5.3877    0.3002    0.9923 C   0  0  0  0  0  0  0  0  0  0  0  0
   -4.9921    1.2634    0.0641 C   0  0  0  0  0  0  0  0  0  0  0  0
    1.9975    1.7441    2.0191 C   0  0  0  0  0  0  0  0  0  0  0  0
    4.1385    0.7629    1.4799 C   0  0  0  0  0  0  0  0  0  0  0  0
    1.5390   -0.1713   -1.2435 C   0  0  0  0  0  0  0  0  0  0  0  0
    3.3463    1.8906    1.6949 C   0  0  0  0  0  0  0  0  0  0  0  0
    3.4992    0.0388   -2.3720 C   0  0  0  0  0  0  0  0  0  0  0  0
    2.1140    2.1147   -2.0507 C   0  0  0  0  0  0  0  0  0  0  0  0
   -2.4708    1.5720   -2.5916 C   0  0  0  0  0  0  0  0  0  0  0  0
   -6.6949    2.6586    0.9636 C   0  0  0  0  0  0  0  0  0  0  0  0
    5.2740    3.2110    1.2520 C   0  0  0  0  0  0  0  0  0  0  0  0
    2.3656   -2.8187    1.8081 H   0  0  0  0  0  0  0  0  0  0  0  0
    1.3020   -2.2003    3.0650 H   0  0  0  0  0  0  0  0  0  0  0  0
   -3.3952   -3.1567    1.0208 H   0  0  0  0  0  0  0  0  0  0  0  0
   -3.2142   -3.0850   -0.7175 H   0  0  0  0  0  0  0  0  0  0  0  0
   -1.1194   -2.0265    2.5556 H   0  0  0  0  0  0  0  0  0  0  0  0
   -2.4815   -0.5034   -1.4384 H   0  0  0  0  0  0  0  0  0  0  0  0
   -5.0540   -1.6734    1.7675 H   0  0  0  0  0  0  0  0  0  0  0  0
    0.3913    0.3769    2.3916 H   0  0  0  0  0  0  0  0  0  0  0  0
    4.2100   -1.3816    1.4183 H   0  0  0  0  0  0  0  0  0  0  0  0
   -6.1916    0.4395    1.7068 H   0  0  0  0  0  0  0  0  0  0  0  0
    1.3757    2.6189    2.1883 H   0  0  0  0  0  0  0  0  0  0  0  0
    5.1914    0.8043    1.2231 H   0  0  0  0  0  0  0  0  0  0  0  0
    4.0603   -2.0160   -2.2417 H   0  0  0  0  0  0  0  0  0  0  0  0
    2.9847    2.6740   -1.6970 H   0  0  0  0  0  0  0  0  0  0  0  0
    1.2199    2.4125   -1.4976 H   0  0  0  0  0  0  0  0  0  0  0  0
    1.9817    2.3224   -3.1163 H   0  0  0  0  0  0  0  0  0  0  0  0
   -2.2914    2.4282   -3.2503 H   0  0  0  0  0  0  0  0  0  0  0  0
   -2.7300    0.7255   -3.2365 H   0  0  0  0  0  0  0  0  0  0  0  0
   -1.5446    1.4045   -2.0324 H   0  0  0  0  0  0  0  0  0  0  0  0
   -7.5189    1.9579    0.7914 H   0  0  0  0  0  0  0  0  0  0  0  0
   -6.3321    2.6303    1.9968 H   0  0  0  0  0  0  0  0  0  0  0  0
   -7.0928    3.6646    0.7942 H   0  0  0  0  0  0  0  0  0  0  0  0
    5.5376    4.2728    1.2088 H   0  0  0  0  0  0  0  0  0  0  0  0
    5.4706    2.7921    0.2591 H   0  0  0  0  0  0  0  0  0  0  0  0
    5.9015    2.7567    2.0263 H   0  0  0  0  0  0  0  0  0  0  0  0
  1 23  1  0  0  0  0
  1 32  1  0  0  0  0
  2 25  1  0  0  0  0
  2 33  1  0  0  0  0
  3 29  1  0  0  0  0
  3 34  1  0  0  0  0
  4 28  2  0  0  0  0
  5 30  2  0  0  0  0
  6 11  1  0  0  0  0
  6 14  1  0  0  0  0
  6 15  1  0  0  0  0
  7 12  1  0  0  0  0
  7 15  2  0  0  0  0
  8 15  1  0  0  0  0
  8 22  2  0  0  0  0
  9 28  1  0  0  0  0
  9 30  1  0  0  0  0
  9 31  1  0  0  0  0
 10 22  1  0  0  0  0
 10 30  1  0  0  0  0
 10 47  1  0  0  0  0
 11 17  1  0  0  0  0
 11 35  1  0  0  0  0
 11 36  1  0  0  0  0
 12 13  1  0  0  0  0
 12 14  2  0  0  0  0
 13 16  1  0  0  0  0
 13 37  1  0  0  0  0
 13 38  1  0  0  0  0
 14 39  1  0  0  0  0
 16 18  2  0  0  0  0
 16 19  1  0  0  0  0
 17 20  2  0  0  0  0
 17 21  1  0  0  0  0
 18 23  1  0  0  0  0
 18 40  1  0  0  0  0
 19 24  2  0  0  0  0
 19 41  1  0  0  0  0
 20 26  1  0  0  0  0
 20 42  1  0  0  0  0
 21 27  2  0  0  0  0
 21 43  1  0  0  0  0
 22 28  1  0  0  0  0
 23 25  2  0  0  0  0
 24 25  1  0  0  0  0
 24 44  1  0  0  0  0
 26 29  2  0  0  0  0
 26 45  1  0  0  0  0
 27 29  1  0  0  0  0
 27 46  1  0  0  0  0
 31 48  1  0  0  0  0
 31 49  1  0  0  0  0
 31 50  1  0  0  0  0
 32 51  1  0  0  0  0
 32 52  1  0  0  0  0
 32 53  1  0  0  0  0
 33 54  1  0  0  0  0
 33 55  1  0  0  0  0
 33 56  1  0  0  0  0
 34 57  1  0  0  0  0
 34 58  1  0  0  0  0
 34 59  1  0  0  0  0
M  END
> <PUBCHEM_COMPOUND_CID>
135517487

> <PUBCHEM_CONFORMER_RMSD>
1.2

> <PUBCHEM_CONFORMER_DIVERSEORDER>
2
102
162
7
108
87
155
99
90
113
97
160
171
79
70
13
139
136
137
78
174
101
4
89
93
58
107
85
146
56
165
138
30
71
115
74
32
131
26
14
152
151
163
168
95
31
80
123
172
66
8
55
33
21
118
144
117
164
84
121
91
140
44
109
83
5
23
76
35
65
142
158
1
94
128
81
106
86
104
105
24
116
119
133
59
47
132
63
38
39
161
73
135
124
122
42
67
166
153
50
159
145
49
120
167
103
98
156
54
19
130
126
72
96
88
45
111
69
157
154
169
53
170
60
148
3
27
127
68
77
134
82
147
37
34
110
29
129
62
125
6
143
141
46
149
57
11
51
40
173
92
52
100
41
75
61
28
64
22
18
9
114
15
150
48
10
16
43
12
25
17
36
112
20

> <PUBCHEM_MMFF94_PARTIAL_CHARGES>
43
1 -0.36
10 -0.49
11 0.4
12 0.05
13 0.32
14 -0.3
15 0.31
16 -0.14
17 -0.14
18 -0.15
19 -0.15
2 -0.36
20 -0.15
21 -0.15
22 0.51
23 0.08
24 -0.15
25 0.08
26 -0.15
27 -0.15
28 0.63
29 0.08
3 -0.36
30 0.69
31 0.3
32 0.28
33 0.28
34 0.28
39 0.15
4 -0.57
40 0.15
41 0.15
42 0.15
43 0.15
44 0.15
45 0.15
46 0.15
47 0.37
5 -0.57
6 0.05
7 -0.57
8 -0.58
9 -0.42

> <PUBCHEM_EFFECTIVE_ROTOR_COUNT>
8.4

> <PUBCHEM_PHARMACOPHORE_FEATURES>
11
1 1 acceptor
1 10 donor
1 2 acceptor
1 3 acceptor
1 4 acceptor
1 5 acceptor
4 6 7 8 15 cation
5 6 7 12 14 15 rings
5 9 10 22 28 30 rings
6 16 18 19 23 24 25 rings
6 17 20 21 26 27 29 rings

> <PUBCHEM_HEAVY_ATOM_COUNT>
34

> <PUBCHEM_ATOM_DEF_STEREO_COUNT>
0

> <PUBCHEM_ATOM_UDEF_STEREO_COUNT>
0

> <PUBCHEM_BOND_DEF_STEREO_COUNT>
1

> <PUBCHEM_BOND_UDEF_STEREO_COUNT>
0

> <PUBCHEM_ISOTOPIC_ATOM_COUNT>
0

> <PUBCHEM_COMPONENT_COUNT>
1

> <PUBCHEM_CACTVS_TAUTO_COUNT>
-1

> <PUBCHEM_CONFORMER_ID>
0813D52F00000002

> <PUBCHEM_MMFF94_ENERGY>
113.0837

> <PUBCHEM_FEATURE_SELFOVERLAP>
55.828

> <PUBCHEM_SHAPE_FINGERPRINT>
10369192 42 17341814774271118200
10674148 151 17241339092372193036
10764073 3 18195221388000946010
11578080 2 17916034640615438766
11595378 159 17385441055120124335
11720765 8 17843411691622024718
12047536 79 14418125206860292863
12422481 6 17458610190693753364
12655387 17 14708047633124590365
13257819 101 17773028885784535768
13726171 33 18043555947502436909
14955137 171 16951114076851054074
15163728 17 18058164101985707914
15297060 5 18191052069456005047
15484559 13 15613350253135183122
15975801 100 17385724725052659476
21223535 225 17202219408183148449
238 59 16486689307025900874
44802255 64 16839942731430191080
46194498 28 17346329240519415743
469060 322 13625511643724727399
5081480 168 17345778329074143677
5252454 2 18335144146724414351
5895379 119 18187085104512164526
7808743 9 18187379739485331311
9849439 229 18408882932758922289

> <PUBCHEM_SHAPE_MULTIPOLES>
645.45
12.03
3.7
2.84
13.6
0.31
1.13
10.86
-2.31
0.18
-0.82
-3.52
0.94
1.52

> <PUBCHEM_SHAPE_SELFOVERLAP>
1409.817

> <PUBCHEM_SHAPE_VOLUME>
350.1

> <PUBCHEM_COORDINATE_TYPE>
2
5
10

$$$$
