135528754
  -OEChem-03292013293D

 44 46  0     1  0  0  0  0  0999 V2000
    5.3261    1.1982    0.2097 P   0  0  0  0  0  0  0  0  0  0  0  0
    1.5930   -0.7951    1.0450 O   0  0  0  0  0  0  0  0  0  0  0  0
   -0.3524   -2.5707   -1.4130 O   0  0  0  0  0  0  0  0  0  0  0  0
    1.4917   -3.7231    0.2735 O   0  0  0  0  0  0  0  0  0  0  0  0
    4.2164    0.1312    0.7112 O   0  0  0  0  0  0  0  0  0  0  0  0
   -3.5095    3.4726   -0.5313 O   0  0  0  0  0  0  0  0  0  0  0  0
    6.3964    0.2682   -0.5679 O   0  0  0  0  0  0  0  0  0  0  0  0
    4.5826    1.9907   -0.9880 O   0  0  0  0  0  0  0  0  0  0  0  0
    5.9057    2.0645    1.2895 O   0  0  0  0  0  0  0  0  0  0  0  0
   -0.4026    0.2557    0.1119 N   0  0  0  0  0  0  0  0  0  0  0  0
   -0.7382    2.4268   -0.3074 N   0  0  0  0  0  0  0  0  0  0  0  0
   -2.6884   -0.5296    0.2435 N   0  0  0  0  0  0  0  0  0  0  0  0
   -4.2118    1.2842   -0.1171 N   0  0  0  0  0  0  0  0  0  0  0  0
   -5.0093   -0.8926    0.2936 N   0  0  0  0  0  0  0  0  0  0  0  0
    0.7050   -1.7735   -0.9185 C   0  0  2  0  0  0  0  0  0  0  0  0
    1.9074   -2.5874   -0.4836 C   0  0  1  0  0  0  0  0  0  0  0  0
    0.3433   -1.0330    0.3649 C   0  0  1  0  0  0  0  0  0  0  0  0
    2.6197   -1.6279    0.4613 C   0  0  1  0  0  0  0  0  0  0  0  0
    3.6201   -0.7250   -0.2473 C   0  0  0  0  0  0  0  0  0  0  0  0
   -1.7543    0.4309    0.0670 C   0  0  0  0  0  0  0  0  0  0  0  0
    0.1653    1.4849   -0.1192 C   0  0  0  0  0  0  0  0  0  0  0  0
   -1.9271    1.7692   -0.1911 C   0  0  0  0  0  0  0  0  0  0  0  0
   -3.2592    2.2959   -0.3033 C   0  0  0  0  0  0  0  0  0  0  0  0
   -3.9190   -0.0749    0.1461 C   0  0  0  0  0  0  0  0  0  0  0  0
   -6.1647   -0.4509    1.0425 C   0  0  0  0  0  0  0  0  0  0  0  0
   -4.9364   -2.2898   -0.0719 C   0  0  0  0  0  0  0  0  0  0  0  0
    0.9949   -1.0630   -1.7023 H   0  0  0  0  0  0  0  0  0  0  0  0
   -0.3043   -1.6210    1.0262 H   0  0  0  0  0  0  0  0  0  0  0  0
    2.5154   -2.9450   -1.3195 H   0  0  0  0  0  0  0  0  0  0  0  0
    3.1123   -2.1463    1.2918 H   0  0  0  0  0  0  0  0  0  0  0  0
    3.1216   -0.1086   -1.0016 H   0  0  0  0  0  0  0  0  0  0  0  0
    4.3938   -1.3281   -0.7322 H   0  0  0  0  0  0  0  0  0  0  0  0
   -0.0038   -3.0861   -2.1602 H   0  0  0  0  0  0  0  0  0  0  0  0
    2.2945   -4.1916    0.5594 H   0  0  0  0  0  0  0  0  0  0  0  0
    1.2363    1.6331   -0.1420 H   0  0  0  0  0  0  0  0  0  0  0  0
   -5.1872    1.5569   -0.1895 H   0  0  0  0  0  0  0  0  0  0  0  0
   -6.8740    0.0578    0.3817 H   0  0  0  0  0  0  0  0  0  0  0  0
   -6.6861   -1.2951    1.5073 H   0  0  0  0  0  0  0  0  0  0  0  0
   -5.8825    0.2339    1.8500 H   0  0  0  0  0  0  0  0  0  0  0  0
   -5.9293   -2.6852   -0.3121 H   0  0  0  0  0  0  0  0  0  0  0  0
   -4.3081   -2.4367   -0.9573 H   0  0  0  0  0  0  0  0  0  0  0  0
   -4.5207   -2.8789    0.7520 H   0  0  0  0  0  0  0  0  0  0  0  0
    5.0398    2.7481   -1.4116 H   0  0  0  0  0  0  0  0  0  0  0  0
    7.2278    0.6732   -0.8946 H   0  0  0  0  0  0  0  0  0  0  0  0
  1  5  1  0  0  0  0
  1  7  1  0  0  0  0
  1  8  1  0  0  0  0
  1  9  2  0  0  0  0
  2 17  1  0  0  0  0
  2 18  1  0  0  0  0
  3 15  1  0  0  0  0
  3 33  1  0  0  0  0
  4 16  1  0  0  0  0
  4 34  1  0  0  0  0
  5 19  1  0  0  0  0
  6 23  2  0  0  0  0
  7 44  1  0  0  0  0
  8 43  1  0  0  0  0
 10 17  1  0  0  0  0
 10 20  1  0  0  0  0
 10 21  1  0  0  0  0
 11 21  2  0  0  0  0
 11 22  1  0  0  0  0
 12 20  1  0  0  0  0
 12 24  2  0  0  0  0
 13 23  1  0  0  0  0
 13 24  1  0  0  0  0
 13 36  1  0  0  0  0
 14 24  1  0  0  0  0
 14 25  1  0  0  0  0
 14 26  1  0  0  0  0
 15 16  1  0  0  0  0
 15 17  1  0  0  0  0
 15 27  1  0  0  0  0
 16 18  1  0  0  0  0
 16 29  1  0  0  0  0
 17 28  1  0  0  0  0
 18 19  1  0  0  0  0
 18 30  1  0  0  0  0
 19 31  1  0  0  0  0
 19 32  1  0  0  0  0
 20 22  2  0  0  0  0
 21 35  1  0  0  0  0
 22 23  1  0  0  0  0
 25 37  1  0  0  0  0
 25 38  1  0  0  0  0
 25 39  1  0  0  0  0
 26 40  1  0  0  0  0
 26 41  1  0  0  0  0
 26 42  1  0  0  0  0
M  END
> <PUBCHEM_COMPOUND_CID>
135528754

> <PUBCHEM_CONFORMER_RMSD>
0.8

> <PUBCHEM_CONFORMER_DIVERSEORDER>
1
44
13
40
34
68
78
61
54
89
96
9
52
56
67
47
63
31
7
57
43
23
41
75
55
65
8
5
93
46
36
38
39
90
18
74
82
80
2
19
32
91
17
87
95
92
45
24
59
3
29
58
28
83
16
37
60
20
42
88
73
86
10
14
22
66
81
30
72
79
64
6
53
84
4
49
76
85
48
26
21
94
62
77
51
11
70
35
33
27
25
15
71
50
12
69

> <PUBCHEM_MMFF94_PARTIAL_CHARGES>
32
1 1.51
10 0.05
11 -0.57
12 -0.58
13 -0.49
14 -0.79
15 0.28
16 0.28
17 0.54
18 0.28
19 0.28
2 -0.56
20 -0.03
21 0.04
22 0.14
23 0.72
24 0.56
25 0.37
26 0.37
3 -0.68
33 0.4
34 0.4
35 0.15
36 0.37
4 -0.68
43 0.5
44 0.5
5 -0.55
6 -0.57
7 -0.77
8 -0.77
9 -0.7

> <PUBCHEM_EFFECTIVE_ROTOR_COUNT>
6

> <PUBCHEM_PHARMACOPHORE_FEATURES>
15
1 13 donor
1 2 acceptor
1 3 acceptor
1 3 donor
1 4 acceptor
1 4 donor
1 6 acceptor
1 7 acceptor
1 8 acceptor
1 9 acceptor
3 10 11 21 cation
4 1 7 8 9 anion
5 10 11 20 21 22 rings
5 2 15 16 17 18 rings
6 12 13 20 22 23 24 rings

> <PUBCHEM_HEAVY_ATOM_COUNT>
26

> <PUBCHEM_ATOM_DEF_STEREO_COUNT>
4

> <PUBCHEM_ATOM_UDEF_STEREO_COUNT>
0

> <PUBCHEM_BOND_DEF_STEREO_COUNT>
0

> <PUBCHEM_BOND_UDEF_STEREO_COUNT>
0

> <PUBCHEM_ISOTOPIC_ATOM_COUNT>
0

> <PUBCHEM_COMPONENT_COUNT>
1

> <PUBCHEM_CACTVS_TAUTO_COUNT>
-1

> <PUBCHEM_CONFORMER_ID>
0814013200000001

> <PUBCHEM_MMFF94_ENERGY>
32.7862

> <PUBCHEM_FEATURE_SELFOVERLAP>
76.31

> <PUBCHEM_SHAPE_FINGERPRINT>
10090160 65 18259701228834765342
10906281 52 18262256489921056155
1100329 8 18123189266638304398
11488393 25 17559692637301637366
12403259 118 18263349331454046040
12925494 130 18268705017981218297
13140716 1 18124035891129775187
13590594 115 17546166767158166170
1454969 45 18341327898760973111
14787075 74 18259984915603329323
14790565 3 18340208608402460864
14840074 17 18201716276031650087
15183329 4 10591770882623825802
15196674 1 18337108965012284680
15927050 60 17475522053998319052
15961568 22 18187087234895526412
17492 89 18191587445741225243
17980427 23 17749400251405836029
19591789 44 18268145542428693169
21065198 57 18049721815405281979
23227448 37 18199743812374879652
23557571 272 18267031569930751383
23559900 14 17907009586881363898
2747138 104 18261968447633395179
350125 39 18339924917138599897
4325135 7 18333452049209218687
4461854 278 17843698896328857983
474229 33 18410293644194117994
5104073 3 18263925436480981753
5486654 2 18337114561122835614
550186 72 18409164445948227357
6442390 28 18413103979188752330
67856867 119 18190173491199441466
9709674 26 17838052603213001959

> <PUBCHEM_SHAPE_MULTIPOLES>
467.06
13.16
3.58
0.92
5.03
0.38
-0.01
-3.86
-2.35
-0.42
0.67
0.37
0.1
0.76

> <PUBCHEM_SHAPE_SELFOVERLAP>
979.478

> <PUBCHEM_SHAPE_VOLUME>
267.8

> <PUBCHEM_COORDINATE_TYPE>
2
5
10

$$$$
