135564841
  -OEChem-03292013293D

 59 62  0     1  0  0  0  0  0999 V2000
    5.5095   -2.1827   -2.2755 F   0  0  0  0  0  0  0  0  0  0  0  0
    0.1629    4.7410   -1.5814 O   0  0  0  0  0  0  0  0  0  0  0  0
   -4.7157   -2.0168    0.1190 O   0  0  0  0  0  0  0  0  0  0  0  0
   -3.3868   -4.4408   -0.1605 O   0  0  0  0  0  0  0  0  0  0  0  0
    3.0900   -0.0929    2.1909 O   0  0  0  0  0  0  0  0  0  0  0  0
   -0.4603    4.1471    2.3594 N   0  0  0  0  0  0  0  0  0  0  0  0
   -1.0328    1.4559    0.3645 N   0  0  0  0  0  0  0  0  0  0  0  0
    0.9189    0.2042    0.1882 N   0  0  0  0  0  0  0  0  0  0  0  0
    0.8088   -2.1915   -0.0471 N   0  0  0  0  0  0  0  0  0  0  0  0
   -1.2219    3.8883    0.1843 C   0  0  2  0  0  0  0  0  0  0  0  0
   -0.3027    2.6977    0.4683 C   0  0  1  0  0  0  0  0  0  0  0  0
   -1.1770    4.3552   -1.2625 C   0  0  0  0  0  0  0  0  0  0  0  0
   -0.7255    4.9418    1.1630 C   0  0  0  0  0  0  0  0  0  0  0  0
    0.2044    2.9267    1.8937 C   0  0  0  0  0  0  0  0  0  0  0  0
   -2.0644    5.5844   -1.4657 C   0  0  0  0  0  0  0  0  0  0  0  0
   -1.5947    3.2344   -2.2173 C   0  0  0  0  0  0  0  0  0  0  0  0
   -0.4270    0.2181    0.2257 C   0  0  0  0  0  0  0  0  0  0  0  0
   -1.2185   -0.9233    0.1334 C   0  0  0  0  0  0  0  0  0  0  0  0
   -0.5341   -2.1417   -0.0061 C   0  0  0  0  0  0  0  0  0  0  0  0
   -2.6230   -0.8832    0.1752 C   0  0  0  0  0  0  0  0  0  0  0  0
    1.4623   -1.0161    0.0523 C   0  0  0  0  0  0  0  0  0  0  0  0
   -1.2926   -3.3059   -0.1015 C   0  0  0  0  0  0  0  0  0  0  0  0
   -3.3559   -2.0618    0.0776 C   0  0  0  0  0  0  0  0  0  0  0  0
   -2.6896   -3.2743   -0.0608 C   0  0  0  0  0  0  0  0  0  0  0  0
    2.9000   -1.0772    0.0060 C   0  0  0  0  0  0  0  0  0  0  0  0
    3.6706   -0.6158    1.0732 C   0  0  0  0  0  0  0  0  0  0  0  0
    3.5211   -1.6067   -1.1251 C   0  0  0  0  0  0  0  0  0  0  0  0
    5.0624   -0.6837    1.0092 C   0  0  0  0  0  0  0  0  0  0  0  0
    4.9128   -1.6749   -1.1891 C   0  0  0  0  0  0  0  0  0  0  0  0
   -5.3983   -1.8699   -1.1253 C   0  0  0  0  0  0  0  0  0  0  0  0
    5.6835   -1.2135   -0.1219 C   0  0  0  0  0  0  0  0  0  0  0  0
   -3.6865   -5.1221    1.0561 C   0  0  0  0  0  0  0  0  0  0  0  0
   -2.2602    3.6327    0.4462 H   0  0  0  0  0  0  0  0  0  0  0  0
    0.5532    2.6997   -0.2183 H   0  0  0  0  0  0  0  0  0  0  0  0
    0.1938    5.4377    0.8314 H   0  0  0  0  0  0  0  0  0  0  0  0
   -1.4802    5.7059    1.3709 H   0  0  0  0  0  0  0  0  0  0  0  0
   -0.0034    2.0976    2.5775 H   0  0  0  0  0  0  0  0  0  0  0  0
    1.2895    3.0848    1.8778 H   0  0  0  0  0  0  0  0  0  0  0  0
    0.1318    4.6560    3.0132 H   0  0  0  0  0  0  0  0  0  0  0  0
   -1.9341    1.4623    0.8291 H   0  0  0  0  0  0  0  0  0  0  0  0
   -2.0597    5.8973   -2.5167 H   0  0  0  0  0  0  0  0  0  0  0  0
   -2.5796    2.8302   -1.9617 H   0  0  0  0  0  0  0  0  0  0  0  0
   -3.1014    5.3855   -1.1757 H   0  0  0  0  0  0  0  0  0  0  0  0
   -1.6990    6.4475   -0.8990 H   0  0  0  0  0  0  0  0  0  0  0  0
   -0.8653    2.4179   -2.2327 H   0  0  0  0  0  0  0  0  0  0  0  0
   -1.6389    3.6038   -3.2489 H   0  0  0  0  0  0  0  0  0  0  0  0
    0.1813    5.0245   -2.5115 H   0  0  0  0  0  0  0  0  0  0  0  0
   -3.1776    0.0459    0.2696 H   0  0  0  0  0  0  0  0  0  0  0  0
   -0.7878   -4.2645   -0.2116 H   0  0  0  0  0  0  0  0  0  0  0  0
    2.9387   -1.9684   -1.9693 H   0  0  0  0  0  0  0  0  0  0  0  0
    5.6760   -0.3280    1.8326 H   0  0  0  0  0  0  0  0  0  0  0  0
   -6.4734   -1.8566   -0.9266 H   0  0  0  0  0  0  0  0  0  0  0  0
   -5.1752   -2.7114   -1.7888 H   0  0  0  0  0  0  0  0  0  0  0  0
   -5.1191   -0.9272   -1.6064 H   0  0  0  0  0  0  0  0  0  0  0  0
    6.7670   -1.2666   -0.1723 H   0  0  0  0  0  0  0  0  0  0  0  0
   -4.2487   -6.0276    0.8121 H   0  0  0  0  0  0  0  0  0  0  0  0
   -4.3010   -4.4938    1.7086 H   0  0  0  0  0  0  0  0  0  0  0  0
   -2.7646   -5.4104    1.5712 H   0  0  0  0  0  0  0  0  0  0  0  0
    3.7852    0.1731    2.8168 H   0  0  0  0  0  0  0  0  0  0  0  0
  1 29  1  0  0  0  0
  2 12  1  0  0  0  0
  2 47  1  0  0  0  0
  3 23  1  0  0  0  0
  3 30  1  0  0  0  0
  4 24  1  0  0  0  0
  4 32  1  0  0  0  0
  5 26  1  0  0  0  0
  5 59  1  0  0  0  0
  6 13  1  0  0  0  0
  6 14  1  0  0  0  0
  6 39  1  0  0  0  0
  7 11  1  0  0  0  0
  7 17  1  0  0  0  0
  7 40  1  0  0  0  0
  8 17  2  0  0  0  0
  8 21  1  0  0  0  0
  9 19  1  0  0  0  0
  9 21  2  0  0  0  0
 10 11  1  0  0  0  0
 10 12  1  0  0  0  0
 10 13  1  0  0  0  0
 10 33  1  0  0  0  0
 11 14  1  0  0  0  0
 11 34  1  0  0  0  0
 12 15  1  0  0  0  0
 12 16  1  0  0  0  0
 13 35  1  0  0  0  0
 13 36  1  0  0  0  0
 14 37  1  0  0  0  0
 14 38  1  0  0  0  0
 15 41  1  0  0  0  0
 15 43  1  0  0  0  0
 15 44  1  0  0  0  0
 16 42  1  0  0  0  0
 16 45  1  0  0  0  0
 16 46  1  0  0  0  0
 17 18  1  0  0  0  0
 18 19  1  0  0  0  0
 18 20  2  0  0  0  0
 19 22  2  0  0  0  0
 20 23  1  0  0  0  0
 20 48  1  0  0  0  0
 21 25  1  0  0  0  0
 22 24  1  0  0  0  0
 22 49  1  0  0  0  0
 23 24  2  0  0  0  0
 25 26  2  0  0  0  0
 25 27  1  0  0  0  0
 26 28  1  0  0  0  0
 27 29  2  0  0  0  0
 27 50  1  0  0  0  0
 28 31  2  0  0  0  0
 28 51  1  0  0  0  0
 29 31  1  0  0  0  0
 30 52  1  0  0  0  0
 30 53  1  0  0  0  0
 30 54  1  0  0  0  0
 31 55  1  0  0  0  0
 32 56  1  0  0  0  0
 32 57  1  0  0  0  0
 32 58  1  0  0  0  0
M  END
> <PUBCHEM_COMPOUND_CID>
135564841

> <PUBCHEM_CONFORMER_RMSD>
1

> <PUBCHEM_CONFORMER_DIVERSEORDER>
1
53
27
54
22
40
41
19
46
15
37
49
12
52
38
23
35
13
50
17
42
33
9
26
20
39
44
18
24
6
32
3
21
8
14
48
31
45
47
16
25
4
36
34
7
10
2
29
11
28
51
43
30
5

> <PUBCHEM_MMFF94_PARTIAL_CHARGES>
36
1 -0.19
11 0.37
12 0.28
13 0.27
14 0.27
17 0.41
19 0.31
2 -0.68
20 -0.15
21 0.62
22 -0.15
23 0.08
24 0.08
26 0.08
27 -0.15
28 -0.15
29 0.19
3 -0.36
30 0.28
31 -0.15
32 0.28
39 0.36
4 -0.36
40 0.4
47 0.4
48 0.15
49 0.15
5 -0.53
50 0.15
51 0.15
55 0.15
59 0.45
6 -0.9
7 -0.87
8 -0.62
9 -0.62

> <PUBCHEM_EFFECTIVE_ROTOR_COUNT>
7

> <PUBCHEM_PHARMACOPHORE_FEATURES>
15
1 2 acceptor
1 2 donor
1 3 acceptor
1 4 acceptor
1 5 donor
1 6 cation
1 6 donor
1 7 donor
3 12 15 16 hydrophobe
3 7 8 17 cation
3 8 9 21 cation
5 6 10 11 13 14 rings
6 18 19 20 22 23 24 rings
6 25 26 27 28 29 31 rings
6 8 9 17 18 19 21 rings

> <PUBCHEM_HEAVY_ATOM_COUNT>
32

> <PUBCHEM_ATOM_DEF_STEREO_COUNT>
2

> <PUBCHEM_ATOM_UDEF_STEREO_COUNT>
0

> <PUBCHEM_BOND_DEF_STEREO_COUNT>
0

> <PUBCHEM_BOND_UDEF_STEREO_COUNT>
0

> <PUBCHEM_ISOTOPIC_ATOM_COUNT>
0

> <PUBCHEM_COMPONENT_COUNT>
1

> <PUBCHEM_CACTVS_TAUTO_COUNT>
-1

> <PUBCHEM_CONFORMER_ID>
08148E2900000001

> <PUBCHEM_MMFF94_ENERGY>
125.3396

> <PUBCHEM_FEATURE_SELFOVERLAP>
76.304

> <PUBCHEM_SHAPE_FINGERPRINT>
10050765 1 17832425672592198491
10165383 225 17548441214750257520
102385 1 17617099552490298563
11045515 52 18336267932794956770
11062273 23 18337955571516901779
12160290 23 18126545852378791386
12788726 201 18260542290805654698
131258 43 17913517854468236822
133893 2 17760950818998580259
13540713 4 17829316240723595791
13540713 5 17624989618341247203
14114211 68 17546446670134232997
14955137 171 18266199377279008107
15419009 47 16246876191924568316
15961568 22 18193555791209653780
16988056 13 18194384805665317933
20600515 1 18340785804999832239
21033650 10 18117300094342120686
21049683 271 17976546336201801692
23366157 5 17614272690635296835
23559900 14 18053374681244345619
23929065 36 18267846329891074354
24771750 20 17254001260190361924
24893989 43 16399914668536497173
283562 15 18338518534487340170
3103668 31 18335978663307497645
4409770 3 18263912255442529929
469060 322 18046642113643999321
5385378 56 17402622238928490675
57527358 35 15070857835221000125
59755656 520 17767135202606294936

> <PUBCHEM_SHAPE_MULTIPOLES>
607.87
9.17
8.78
1.74
14.42
4.5
-0.03
-7.25
-2.99
-15.15
-0.12
0.6
1.96
1.82

> <PUBCHEM_SHAPE_SELFOVERLAP>
1326.38

> <PUBCHEM_SHAPE_VOLUME>
334.2

> <PUBCHEM_COORDINATE_TYPE>
2
5
10

$$$$
