135565596
  -OEChem-03292013293D

 63 67  0     0  0  0  0  0  0999 V2000
    5.4001    3.6421    1.2890 O   0  0  0  0  0  0  0  0  0  0  0  0
    3.3074   -1.5369   -1.2265 O   0  0  0  0  0  0  0  0  0  0  0  0
    1.3925    0.2840   -0.2653 O   0  0  0  0  0  0  0  0  0  0  0  0
   -1.8979    1.4056    1.9576 O   0  0  0  0  0  0  0  0  0  0  0  0
    5.1699    1.1753   -0.1122 N   0  0  0  0  0  0  0  0  0  0  0  0
   -2.6554   -2.5474    0.6186 N   0  0  0  0  0  0  0  0  0  0  0  0
   -2.2495   -4.7027    0.1099 N   0  0  0  0  0  0  0  0  0  0  0  0
   -1.1420   -0.7021    0.4239 N   0  0  0  0  0  0  0  0  0  0  0  0
   -3.2458   -0.3297    1.2000 N   0  0  0  0  0  0  0  0  0  0  0  0
   -5.4236    2.3802   -1.0719 N   0  0  0  0  0  0  0  0  0  0  0  0
   -4.0315    4.1872   -0.2948 N   0  0  0  0  0  0  0  0  0  0  0  0
   -5.7947    4.5825   -1.7917 N   0  0  0  0  0  0  0  0  0  0  0  0
    5.5904    0.2242   -1.1390 C   0  0  0  0  0  0  0  0  0  0  0  0
   -1.7116   -3.4450    0.1444 C   0  0  0  0  0  0  0  0  0  0  0  0
   -3.9131   -3.2304    0.9270 C   0  0  0  0  0  0  0  0  0  0  0  0
    4.7488    2.4458   -0.7188 C   0  0  0  0  0  0  0  0  0  0  0  0
    6.2518    1.4127    0.8535 C   0  0  0  0  0  0  0  0  0  0  0  0
   -3.6261   -4.7189    0.5728 C   0  0  0  0  0  0  0  0  0  0  0  0
   -0.4801   -3.0333   -0.2017 C   0  0  0  0  0  0  0  0  0  0  0  0
    5.5834   -1.1952   -0.5806 C   0  0  0  0  0  0  0  0  0  0  0  0
    4.3268    3.4260    0.3719 C   0  0  0  0  0  0  0  0  0  0  0  0
    5.7936    2.4165    1.9075 C   0  0  0  0  0  0  0  0  0  0  0  0
   -0.2542   -1.5473   -0.0223 C   0  0  0  0  0  0  0  0  0  0  0  0
   -2.3890   -1.2016    0.7602 C   0  0  0  0  0  0  0  0  0  0  0  0
    4.1911   -1.6091   -0.1238 C   0  0  0  0  0  0  0  0  0  0  0  0
    1.1129   -1.0601   -0.4012 C   0  0  0  0  0  0  0  0  0  0  0  0
    0.5856   -3.8651   -0.7058 C   0  0  0  0  0  0  0  0  0  0  0  0
    2.0357   -1.9218   -0.8622 C   0  0  0  0  0  0  0  0  0  0  0  0
    1.7760   -3.3367   -1.0180 C   0  0  0  0  0  0  0  0  0  0  0  0
   -2.8318    0.9777    1.2845 C   0  0  0  0  0  0  0  0  0  0  0  0
    1.0750    0.9853   -1.4518 C   0  0  0  0  0  0  0  0  0  0  0  0
   -3.6231    1.9395    0.4634 C   0  0  0  0  0  0  0  0  0  0  0  0
   -4.6874    1.5379   -0.3178 C   0  0  0  0  0  0  0  0  0  0  0  0
   -3.3380    3.2893    0.4355 C   0  0  0  0  0  0  0  0  0  0  0  0
   -5.0463    3.6717   -1.0143 C   0  0  0  0  0  0  0  0  0  0  0  0
    4.9082    0.2633   -1.9980 H   0  0  0  0  0  0  0  0  0  0  0  0
    6.5857    0.4694   -1.5316 H   0  0  0  0  0  0  0  0  0  0  0  0
   -4.7348   -2.8377    0.3186 H   0  0  0  0  0  0  0  0  0  0  0  0
   -4.1695   -3.1258    1.9865 H   0  0  0  0  0  0  0  0  0  0  0  0
    7.1404    1.8061    0.3425 H   0  0  0  0  0  0  0  0  0  0  0  0
    3.9030    2.2854   -1.3963 H   0  0  0  0  0  0  0  0  0  0  0  0
    5.5729    2.8788   -1.3008 H   0  0  0  0  0  0  0  0  0  0  0  0
    6.5384    0.4925    1.3714 H   0  0  0  0  0  0  0  0  0  0  0  0
   -3.7355   -5.3603    1.4527 H   0  0  0  0  0  0  0  0  0  0  0  0
   -4.2993   -5.0722   -0.2144 H   0  0  0  0  0  0  0  0  0  0  0  0
    5.9045   -1.8689   -1.3855 H   0  0  0  0  0  0  0  0  0  0  0  0
    6.3013   -1.3219    0.2357 H   0  0  0  0  0  0  0  0  0  0  0  0
   -1.7389   -5.5163   -0.2034 H   0  0  0  0  0  0  0  0  0  0  0  0
    3.4449    3.0682    0.9174 H   0  0  0  0  0  0  0  0  0  0  0  0
    4.9618    2.0243    2.5055 H   0  0  0  0  0  0  0  0  0  0  0  0
    4.0706    4.3923   -0.0741 H   0  0  0  0  0  0  0  0  0  0  0  0
    6.6175    2.6400    2.5928 H   0  0  0  0  0  0  0  0  0  0  0  0
    3.8465   -0.9725    0.7007 H   0  0  0  0  0  0  0  0  0  0  0  0
    4.2462   -2.6402    0.2492 H   0  0  0  0  0  0  0  0  0  0  0  0
    0.4185   -4.9291   -0.8340 H   0  0  0  0  0  0  0  0  0  0  0  0
    2.5692   -3.9715   -1.4000 H   0  0  0  0  0  0  0  0  0  0  0  0
    1.2647    2.0489   -1.2789 H   0  0  0  0  0  0  0  0  0  0  0  0
    0.0180    0.8724   -1.7172 H   0  0  0  0  0  0  0  0  0  0  0  0
    1.7077    0.6623   -2.2858 H   0  0  0  0  0  0  0  0  0  0  0  0
   -5.0095    0.5036   -0.3802 H   0  0  0  0  0  0  0  0  0  0  0  0
   -2.5225    3.7161    1.0107 H   0  0  0  0  0  0  0  0  0  0  0  0
   -6.5663    4.2431   -2.3491 H   0  0  0  0  0  0  0  0  0  0  0  0
   -5.5497    5.5629   -1.7817 H   0  0  0  0  0  0  0  0  0  0  0  0
  1 21  1  0  0  0  0
  1 22  1  0  0  0  0
  2 25  1  0  0  0  0
  2 28  1  0  0  0  0
  3 26  1  0  0  0  0
  3 31  1  0  0  0  0
  4 30  2  0  0  0  0
  5 13  1  0  0  0  0
  5 16  1  0  0  0  0
  5 17  1  0  0  0  0
  6 14  1  0  0  0  0
  6 15  1  0  0  0  0
  6 24  1  0  0  0  0
  7 14  1  0  0  0  0
  7 18  1  0  0  0  0
  7 48  1  0  0  0  0
  8 23  2  0  0  0  0
  8 24  1  0  0  0  0
  9 24  2  0  0  0  0
  9 30  1  0  0  0  0
 10 33  2  0  0  0  0
 10 35  1  0  0  0  0
 11 34  1  0  0  0  0
 11 35  2  0  0  0  0
 12 35  1  0  0  0  0
 12 62  1  0  0  0  0
 12 63  1  0  0  0  0
 13 20  1  0  0  0  0
 13 36  1  0  0  0  0
 13 37  1  0  0  0  0
 14 19  2  0  0  0  0
 15 18  1  0  0  0  0
 15 38  1  0  0  0  0
 15 39  1  0  0  0  0
 16 21  1  0  0  0  0
 16 41  1  0  0  0  0
 16 42  1  0  0  0  0
 17 22  1  0  0  0  0
 17 40  1  0  0  0  0
 17 43  1  0  0  0  0
 18 44  1  0  0  0  0
 18 45  1  0  0  0  0
 19 23  1  0  0  0  0
 19 27  1  0  0  0  0
 20 25  1  0  0  0  0
 20 46  1  0  0  0  0
 20 47  1  0  0  0  0
 21 49  1  0  0  0  0
 21 51  1  0  0  0  0
 22 50  1  0  0  0  0
 22 52  1  0  0  0  0
 23 26  1  0  0  0  0
 25 53  1  0  0  0  0
 25 54  1  0  0  0  0
 26 28  2  0  0  0  0
 27 29  2  0  0  0  0
 27 55  1  0  0  0  0
 28 29  1  0  0  0  0
 29 56  1  0  0  0  0
 30 32  1  0  0  0  0
 31 57  1  0  0  0  0
 31 58  1  0  0  0  0
 31 59  1  0  0  0  0
 32 33  1  0  0  0  0
 32 34  2  0  0  0  0
 33 60  1  0  0  0  0
 34 61  1  0  0  0  0
M  END
> <PUBCHEM_COMPOUND_CID>
135565596

> <PUBCHEM_CONFORMER_RMSD>
1

> <PUBCHEM_CONFORMER_DIVERSEORDER>
1
56
93
109
92
66
100
34
13
117
33
86
32
111
105
27
89
69
50
75
90
110
116
126
43
55
57
113
39
17
125
9
87
62
31
22
45
68
10
112
128
42
64
11
26
94
103
18
120
36
119
71
102
67
104
106
47
35
74
84
58
127
88
81
98
44
115
76
25
96
51
24
60
108
99
123
95
53
23
59
72
40
65
79
77
118
61
16
97
21
29
8
122
52
82
19
91
121
15
78
2
124
73
107
30
63
37
101
20
85
70
83
28
12
38
5
3
7
80
114
41
48
14
6
4
46
54
49

> <PUBCHEM_MMFF94_PARTIAL_CHARGES>
41
1 -0.56
10 -0.62
11 -0.62
12 -0.9
13 0.27
14 0.2
15 0.37
16 0.27
17 0.27
18 0.37
19 0.01
2 -0.36
21 0.28
22 0.28
23 0.42
24 0.71
25 0.28
26 0.09
27 -0.15
28 0.08
29 -0.15
3 -0.36
30 0.69
31 0.28
32 0.09
33 0.16
34 0.16
35 0.72
4 -0.57
48 0.4
5 -0.81
55 0.15
56 0.15
6 -0.52
60 0.15
61 0.15
62 0.4
63 0.4
7 -0.87
8 -0.66
9 -0.66

> <PUBCHEM_EFFECTIVE_ROTOR_COUNT>
9.8

> <PUBCHEM_PHARMACOPHORE_FEATURES>
17
1 1 acceptor
1 10 acceptor
1 12 donor
1 2 acceptor
1 3 acceptor
1 4 acceptor
1 5 cation
1 7 cation
1 7 donor
1 8 acceptor
1 9 donor
4 10 11 12 35 cation
5 6 7 14 15 18 rings
6 1 5 16 17 21 22 rings
6 10 11 32 33 34 35 rings
6 19 23 26 27 28 29 rings
6 6 8 14 19 23 24 rings

> <PUBCHEM_HEAVY_ATOM_COUNT>
35

> <PUBCHEM_ATOM_DEF_STEREO_COUNT>
0

> <PUBCHEM_ATOM_UDEF_STEREO_COUNT>
0

> <PUBCHEM_BOND_DEF_STEREO_COUNT>
0

> <PUBCHEM_BOND_UDEF_STEREO_COUNT>
0

> <PUBCHEM_ISOTOPIC_ATOM_COUNT>
0

> <PUBCHEM_COMPONENT_COUNT>
1

> <PUBCHEM_CACTVS_TAUTO_COUNT>
-1

> <PUBCHEM_CONFORMER_ID>
0814911C00000001

> <PUBCHEM_MMFF94_ENERGY>
117.6199

> <PUBCHEM_FEATURE_SELFOVERLAP>
86.411

> <PUBCHEM_SHAPE_FINGERPRINT>
10258939 38 18266185121823720946
10675989 125 17689156708440633297
12107183 9 18117273654286310370
12422481 6 17894917304418108932
12925494 130 18412258428966236720
13617811 41 17764020663853188098
13692114 37 18337660941124058573
15082195 135 18128245697476522509
15324884 4 17755900466045812563
15336146 87 18268441307483868972
15419008 145 18267294517336367520
16067690 210 17831288772845869490
19246450 95 18267846373357744922
21133410 127 18120935264415018308
23559900 14 17987535727631651942
23569914 2 17698964592821710624
376196 1 18339365153971979166
4144715 1 18336838571727184722
437795 96 18410011035452023568
550186 72 18123754411451954183
57527585 21 16558484022978797746
6086070 43 18198912418444673774
6371009 1 18126561215983374224
6371380 46 18339927009699802606
653340 110 18338803437074325702
9961470 85 18341886369263964880
9981440 41 18335424543596041537

> <PUBCHEM_SHAPE_MULTIPOLES>
656.96
14.75
7.46
1.41
12.68
0.46
-0.15
-16.68
-0.22
-9.17
0.7
0.17
-0.92
4.88

> <PUBCHEM_SHAPE_SELFOVERLAP>
1420.309

> <PUBCHEM_SHAPE_VOLUME>
357.8

> <PUBCHEM_COORDINATE_TYPE>
2
5
10

$$$$
