135565010
  -OEChem-03292013293D

 29 31  0     0  0  0  0  0  0999 V2000
    1.1341    2.1359   -0.5453 S   0  0  0  0  0  0  0  0  0  0  0  0
   -3.2045   -1.0432   -2.3495 F   0  0  0  0  0  0  0  0  0  0  0  0
    1.2873   -1.4992   -2.1505 F   0  0  0  0  0  0  0  0  0  0  0  0
    3.4587    0.8838    1.3367 F   0  0  0  0  0  0  0  0  0  0  0  0
    0.9065    3.1171   -1.6165 O   0  0  0  0  0  0  0  0  0  0  0  0
    1.6747    2.6419    0.7250 O   0  0  0  0  0  0  0  0  0  0  0  0
   -2.6541    0.4246    2.8446 O   0  0  0  0  0  0  0  0  0  0  0  0
   -1.9428    0.4214    0.6922 N   0  0  0  0  0  0  0  0  0  0  0  0
    2.2250    0.9451   -1.1707 N   0  0  0  0  0  0  0  0  0  0  0  0
   -0.8570    1.1761    0.9505 N   0  0  0  0  0  0  0  0  0  0  0  0
   -0.9722    0.6251   -1.2706 N   0  0  0  0  0  0  0  0  0  0  0  0
   -3.8688   -0.7148    1.1809 N   0  0  0  0  0  0  0  0  0  0  0  0
   -0.3094    1.2679   -0.2635 C   0  0  0  0  0  0  0  0  0  0  0  0
   -2.0011    0.0965   -0.6466 C   0  0  0  0  0  0  0  0  0  0  0  0
    2.3687   -0.2765   -0.4255 C   0  0  0  0  0  0  0  0  0  0  0  0
   -2.8394    0.0588    1.6949 C   0  0  0  0  0  0  0  0  0  0  0  0
   -3.0910   -0.6930   -1.0546 C   0  0  0  0  0  0  0  0  0  0  0  0
   -3.9904   -1.0771   -0.1431 C   0  0  0  0  0  0  0  0  0  0  0  0
    1.8858   -1.4750   -0.9510 C   0  0  0  0  0  0  0  0  0  0  0  0
    2.9903   -0.2626    0.8233 C   0  0  0  0  0  0  0  0  0  0  0  0
    2.0245   -2.6598   -0.2279 C   0  0  0  0  0  0  0  0  0  0  0  0
    3.1289   -1.4473    1.5465 C   0  0  0  0  0  0  0  0  0  0  0  0
    2.6462   -2.6460    1.0208 C   0  0  0  0  0  0  0  0  0  0  0  0
    2.1220    0.7775   -2.1813 H   0  0  0  0  0  0  0  0  0  0  0  0
   -4.5900   -1.0431    1.8167 H   0  0  0  0  0  0  0  0  0  0  0  0
   -4.8513   -1.6848   -0.3911 H   0  0  0  0  0  0  0  0  0  0  0  0
    1.6481   -3.5926   -0.6372 H   0  0  0  0  0  0  0  0  0  0  0  0
    3.6127   -1.4363    2.5186 H   0  0  0  0  0  0  0  0  0  0  0  0
    2.7541   -3.5684    1.5839 H   0  0  0  0  0  0  0  0  0  0  0  0
  1  5  2  0  0  0  0
  1  6  2  0  0  0  0
  1  9  1  0  0  0  0
  1 13  1  0  0  0  0
  2 17  1  0  0  0  0
  3 19  1  0  0  0  0
  4 20  1  0  0  0  0
  7 16  2  0  0  0  0
  8 10  1  0  0  0  0
  8 14  1  0  0  0  0
  8 16  1  0  0  0  0
  9 15  1  0  0  0  0
  9 24  1  0  0  0  0
 10 13  2  0  0  0  0
 11 13  1  0  0  0  0
 11 14  2  0  0  0  0
 12 16  1  0  0  0  0
 12 18  1  0  0  0  0
 12 25  1  0  0  0  0
 14 17  1  0  0  0  0
 15 19  2  0  0  0  0
 15 20  1  0  0  0  0
 17 18  2  0  0  0  0
 18 26  1  0  0  0  0
 19 21  1  0  0  0  0
 20 22  2  0  0  0  0
 21 23  2  0  0  0  0
 21 27  1  0  0  0  0
 22 23  1  0  0  0  0
 22 28  1  0  0  0  0
 23 29  1  0  0  0  0
M  END
> <PUBCHEM_COMPOUND_CID>
135565010

> <PUBCHEM_CONFORMER_RMSD>
0.6

> <PUBCHEM_CONFORMER_DIVERSEORDER>
1
28
45
20
74
52
72
55
2
35
15
23
68
21
66
61
78
70
53
44
37
12
27
13
63
30
69
46
3
58
57
39
16
29
17
48
19
65
64
54
24
6
18
79
67
22
51
25
60
31
4
14
26
8
10
47
41
77
76
73
38
62
32
49
80
50
34
71
40
75
43
11
7
36
42
9
59
33
5
56

> <PUBCHEM_MMFF94_PARTIAL_CHARGES>
29
1 1.5
10 -0.71
11 -0.57
12 -0.54
13 0.45
14 0.14
15 0.2
16 0.64
17 0.19
18 -0.04
19 0.19
2 -0.15
20 0.19
21 -0.15
22 -0.15
23 -0.15
24 0.42
25 0.37
26 0.15
27 0.15
28 0.15
29 0.15
3 -0.19
4 -0.19
5 -0.65
6 -0.65
7 -0.57
8 0.56
9 -0.76

> <PUBCHEM_EFFECTIVE_ROTOR_COUNT>
3

> <PUBCHEM_PHARMACOPHORE_FEATURES>
9
1 12 donor
1 5 acceptor
1 6 acceptor
1 7 acceptor
1 9 donor
3 10 11 13 cation
5 8 10 11 13 14 rings
6 15 19 20 21 22 23 rings
6 8 12 14 16 17 18 rings

> <PUBCHEM_HEAVY_ATOM_COUNT>
23

> <PUBCHEM_ATOM_DEF_STEREO_COUNT>
0

> <PUBCHEM_ATOM_UDEF_STEREO_COUNT>
0

> <PUBCHEM_BOND_DEF_STEREO_COUNT>
0

> <PUBCHEM_BOND_UDEF_STEREO_COUNT>
0

> <PUBCHEM_ISOTOPIC_ATOM_COUNT>
0

> <PUBCHEM_COMPONENT_COUNT>
1

> <PUBCHEM_CACTVS_TAUTO_COUNT>
-1

> <PUBCHEM_CONFORMER_ID>
08148ED200000001

> <PUBCHEM_MMFF94_ENERGY>
50.2155

> <PUBCHEM_FEATURE_SELFOVERLAP>
45.834

> <PUBCHEM_SHAPE_FINGERPRINT>
11578080 2 17986928852567705217
11582403 64 15804044413302820901
12202030 40 17313397741895869595
12363563 72 18041274366237275962
12400797 245 18339630158202251398
12553582 1 18335992986226746742
12596599 1 18059295357543039375
128993 33 10663516245414063610
13583140 156 18197802070677246289
14178342 30 17560802095856846631
14341114 328 17059763533440402010
14386348 128 11527649921542345210
14787075 74 16911405441540677840
14848160 33 18186517700535498923
15635459 17 17894914057048247635
15664445 248 14204536418647239135
16945 1 18335423512217996460
17138139 8 16977566449219050839
17349148 13 17203051773356821745
18981168 100 11455592280064565734
20645477 70 18114460175343264893
21731516 1 18263656056211264574
2255824 54 18191598642525384356
23419403 2 15005210505193594520
23559900 14 16153705470185989143
23728640 28 16818541337956769418
238 59 17969777669221614327
3797600 57 17769949196153364799
392239 28 17056368323069993898
5161694 15 16877932811651418847
5262128 65 14707792643891966263
5845 1 18126567816941978020
6287921 2 17489872622229388398
6442390 28 11095016332412993645
7097593 13 17702959036532974499
7399639 24 17463694543594865805
81228 2 17754451257716670180

> <PUBCHEM_SHAPE_MULTIPOLES>
412.84
6.58
2.79
2.07
3.5
1.04
-0.25
-3.55
-1.49
-2.57
0.39
1.13
-0.28
-0.33

> <PUBCHEM_SHAPE_SELFOVERLAP>
899.428

> <PUBCHEM_SHAPE_VOLUME>
225.7

> <PUBCHEM_COORDINATE_TYPE>
2
5
10

$$$$
