135554438
  -OEChem-03292013293D

 25 26  0     0  0  0  0  0  0999 V2000
   -0.0353   -1.9979   -0.5935 O   0  0  0  0  0  0  0  0  0  0  0  0
   -4.6074   -0.8109    1.2910 O   0  0  0  0  0  0  0  0  0  0  0  0
   -4.3776   -0.2888   -0.9079 O   0  0  0  0  0  0  0  0  0  0  0  0
   -0.3953    1.0004   -0.3269 N   0  0  0  0  0  0  0  0  0  0  0  0
    1.2968    2.3684    0.1608 N   0  0  0  0  0  0  0  0  0  0  0  0
    2.1882   -1.5665   -0.1099 N   0  0  0  0  0  0  0  0  0  0  0  0
    3.0571    0.6313    0.3094 N   0  0  0  0  0  0  0  0  0  0  0  0
    4.4563   -1.2446    0.3719 N   0  0  0  0  0  0  0  0  0  0  0  0
   -1.7406    0.5818   -0.6392 C   0  0  0  0  0  0  0  0  0  0  0  0
    0.7096    0.2105   -0.1988 C   0  0  0  0  0  0  0  0  0  0  0  0
    1.7382    1.0729    0.1008 C   0  0  0  0  0  0  0  0  0  0  0  0
   -2.4781   -0.0112    0.5585 C   0  0  0  0  0  0  0  0  0  0  0  0
    0.0086    2.2906   -0.1017 C   0  0  0  0  0  0  0  0  0  0  0  0
    0.8602   -1.2029   -0.3290 C   0  0  0  0  0  0  0  0  0  0  0  0
    3.2249   -0.6664    0.1953 C   0  0  0  0  0  0  0  0  0  0  0  0
   -3.9055   -0.3667    0.2192 C   0  0  0  0  0  0  0  0  0  0  0  0
   -1.6855   -0.1343   -1.4673 H   0  0  0  0  0  0  0  0  0  0  0  0
   -2.2791    1.4575   -1.0227 H   0  0  0  0  0  0  0  0  0  0  0  0
   -1.9763   -0.9166    0.9147 H   0  0  0  0  0  0  0  0  0  0  0  0
   -2.4960    0.7173    1.3775 H   0  0  0  0  0  0  0  0  0  0  0  0
   -0.6754    3.1277   -0.1402 H   0  0  0  0  0  0  0  0  0  0  0  0
    2.4227   -2.5528   -0.1753 H   0  0  0  0  0  0  0  0  0  0  0  0
    5.2717   -0.6845    0.5955 H   0  0  0  0  0  0  0  0  0  0  0  0
    4.5880   -2.2463    0.2844 H   0  0  0  0  0  0  0  0  0  0  0  0
   -5.5283   -1.0499    1.0523 H   0  0  0  0  0  0  0  0  0  0  0  0
  1 14  2  0  0  0  0
  2 16  1  0  0  0  0
  2 25  1  0  0  0  0
  3 16  2  0  0  0  0
  4  9  1  0  0  0  0
  4 10  1  0  0  0  0
  4 13  1  0  0  0  0
  5 11  1  0  0  0  0
  5 13  2  0  0  0  0
  6 14  1  0  0  0  0
  6 15  1  0  0  0  0
  6 22  1  0  0  0  0
  7 11  1  0  0  0  0
  7 15  2  0  0  0  0
  8 15  1  0  0  0  0
  8 23  1  0  0  0  0
  8 24  1  0  0  0  0
  9 12  1  0  0  0  0
  9 17  1  0  0  0  0
  9 18  1  0  0  0  0
 10 11  2  0  0  0  0
 10 14  1  0  0  0  0
 12 16  1  0  0  0  0
 12 19  1  0  0  0  0
 12 20  1  0  0  0  0
 13 21  1  0  0  0  0
M  END
> <PUBCHEM_COMPOUND_CID>
135554438

> <PUBCHEM_CONFORMER_RMSD>
0.6

> <PUBCHEM_CONFORMER_DIVERSEORDER>
1
8
11
12
4
10
3
5
6
7
9
2

> <PUBCHEM_MMFF94_PARTIAL_CHARGES>
21
1 -0.57
10 -0.24
11 0.35
12 0.06
13 0.04
14 0.71
15 0.56
16 0.66
2 -0.65
21 0.15
22 0.37
23 0.4
24 0.4
25 0.5
3 -0.57
4 0.05
5 -0.57
6 -0.49
7 -0.57
8 -0.85
9 0.26

> <PUBCHEM_EFFECTIVE_ROTOR_COUNT>
3

> <PUBCHEM_PHARMACOPHORE_FEATURES>
9
1 1 acceptor
1 2 acceptor
1 3 acceptor
1 6 donor
1 8 donor
3 2 3 16 anion
3 4 5 13 cation
5 4 5 10 11 13 rings
6 6 7 10 11 14 15 rings

> <PUBCHEM_HEAVY_ATOM_COUNT>
16

> <PUBCHEM_ATOM_DEF_STEREO_COUNT>
0

> <PUBCHEM_ATOM_UDEF_STEREO_COUNT>
0

> <PUBCHEM_BOND_DEF_STEREO_COUNT>
0

> <PUBCHEM_BOND_UDEF_STEREO_COUNT>
0

> <PUBCHEM_ISOTOPIC_ATOM_COUNT>
0

> <PUBCHEM_COMPONENT_COUNT>
1

> <PUBCHEM_CACTVS_TAUTO_COUNT>
-1

> <PUBCHEM_CONFORMER_ID>
0814658600000001

> <PUBCHEM_MMFF94_ENERGY>
25.5182

> <PUBCHEM_FEATURE_SELFOVERLAP>
45.898

> <PUBCHEM_SHAPE_FINGERPRINT>
10219947 1 18412825797923962781
108231 29 18412260610614424792
11132069 177 18272077310199834654
11471102 20 18410849988398005069
11471102 22 18410301323695655921
11543360 7 15791742900864038174
11796584 16 16878215368722687291
12032990 46 18338798914494913774
12251169 10 18343304781833439403
13140716 1 18268982267073034570
13862211 1 18411974737681289470
14251717 144 18413385458301746151
14252887 29 18131073693033845038
15501101 241 18335422395737691013
16945 1 18341881983901615948
193761 8 17907291410040069286
200 152 18130776863997327317
20028762 73 18130503149658288743
20201158 50 18334013878513928779
20645477 70 18335973264306402077
20871998 22 18199760141217981990
21029758 27 18334860502472682196
21501925 9 18411133628038271792
221490 88 18191028004722882427
23184049 59 18342457062278152627
23402539 116 18270952462454445670
2748010 2 18125428714585079948
77492 1 17489305338991178965
8809292 202 18114186358341008315

> <PUBCHEM_SHAPE_MULTIPOLES>
286.76
7.4
2.04
0.81
5.13
0.73
-0.05
-3.3
-1.54
-1.15
0.09
0.63
-0.11
0.25

> <PUBCHEM_SHAPE_SELFOVERLAP>
615.593

> <PUBCHEM_SHAPE_VOLUME>
157.3

> <PUBCHEM_COORDINATE_TYPE>
2
5
10

$$$$
