135509123
  -OEChem-03292013293D

 32 34  0     1  0  0  0  0  0999 V2000
    2.3905    0.7133    1.1070 O   0  0  0  0  0  0  0  0  0  0  0  0
    1.6435   -1.8138   -1.3496 O   0  0  0  0  0  0  0  0  0  0  0  0
    3.8358   -1.8284    0.3136 O   0  0  0  0  0  0  0  0  0  0  0  0
   -4.2103    1.6636   -0.3968 O   0  0  0  0  0  0  0  0  0  0  0  0
    0.1307    0.5599    0.1974 N   0  0  0  0  0  0  0  0  0  0  0  0
   -1.3010    2.2310   -0.2024 N   0  0  0  0  0  0  0  0  0  0  0  0
   -1.3991   -1.3106    0.3407 N   0  0  0  0  0  0  0  0  0  0  0  0
   -3.6523   -0.5681    0.0059 N   0  0  0  0  0  0  0  0  0  0  0  0
   -3.1815   -2.8400    0.4058 N   0  0  0  0  0  0  0  0  0  0  0  0
    1.4454   -0.1446    0.4347 C   0  0  1  0  0  0  0  0  0  0  0  0
    2.1288   -0.5809   -0.8571 C   0  0  1  0  0  0  0  0  0  0  0  0
    3.5841   -0.6419   -0.4379 C   0  0  1  0  0  0  0  0  0  0  0  0
    3.6954    0.5465    0.5088 C   0  0  1  0  0  0  0  0  0  0  0  0
    4.0638    1.8423   -0.2004 C   0  0  0  0  0  0  0  0  0  0  0  0
   -1.1116   -0.0019    0.1644 C   0  0  0  0  0  0  0  0  0  0  0  0
   -0.0352    1.9046   -0.0285 C   0  0  0  0  0  0  0  0  0  0  0  0
   -1.9651    1.0461   -0.0821 C   0  0  0  0  0  0  0  0  0  0  0  0
   -3.3762    0.7938   -0.1798 C   0  0  0  0  0  0  0  0  0  0  0  0
   -2.6858   -1.5708    0.2563 C   0  0  0  0  0  0  0  0  0  0  0  0
    1.2109   -0.9869    1.0964 H   0  0  0  0  0  0  0  0  0  0  0  0
    1.9933    0.1777   -1.6377 H   0  0  0  0  0  0  0  0  0  0  0  0
    4.2802   -0.6238   -1.2813 H   0  0  0  0  0  0  0  0  0  0  0  0
    4.4075    0.3617    1.3206 H   0  0  0  0  0  0  0  0  0  0  0  0
    3.3286    2.1065   -0.9676 H   0  0  0  0  0  0  0  0  0  0  0  0
    5.0493    1.7680   -0.6699 H   0  0  0  0  0  0  0  0  0  0  0  0
    4.0789    2.6728    0.5137 H   0  0  0  0  0  0  0  0  0  0  0  0
    2.2032   -2.0670   -2.1034 H   0  0  0  0  0  0  0  0  0  0  0  0
    0.7975    2.5938   -0.0586 H   0  0  0  0  0  0  0  0  0  0  0  0
    4.7685   -1.8063    0.5883 H   0  0  0  0  0  0  0  0  0  0  0  0
   -4.6249   -0.8578   -0.0436 H   0  0  0  0  0  0  0  0  0  0  0  0
   -2.5666   -3.6257    0.5880 H   0  0  0  0  0  0  0  0  0  0  0  0
   -4.1752   -3.0311    0.3390 H   0  0  0  0  0  0  0  0  0  0  0  0
  1 10  1  0  0  0  0
  1 13  1  0  0  0  0
  2 11  1  0  0  0  0
  2 27  1  0  0  0  0
  3 12  1  0  0  0  0
  3 29  1  0  0  0  0
  4 18  2  0  0  0  0
  5 10  1  0  0  0  0
  5 15  1  0  0  0  0
  5 16  1  0  0  0  0
  6 16  2  0  0  0  0
  6 17  1  0  0  0  0
  7 15  1  0  0  0  0
  7 19  2  0  0  0  0
  8 18  1  0  0  0  0
  8 19  1  0  0  0  0
  8 30  1  0  0  0  0
  9 19  1  0  0  0  0
  9 31  1  0  0  0  0
  9 32  1  0  0  0  0
 10 11  1  0  0  0  0
 10 20  1  0  0  0  0
 11 12  1  0  0  0  0
 11 21  1  0  0  0  0
 12 13  1  0  0  0  0
 12 22  1  0  0  0  0
 13 14  1  0  0  0  0
 13 23  1  0  0  0  0
 14 24  1  0  0  0  0
 14 25  1  0  0  0  0
 14 26  1  0  0  0  0
 15 17  2  0  0  0  0
 16 28  1  0  0  0  0
 17 18  1  0  0  0  0
M  END
> <PUBCHEM_COMPOUND_CID>
135509123

> <PUBCHEM_CONFORMER_RMSD>
0.6

> <PUBCHEM_CONFORMER_DIVERSEORDER>
1
4
7
11
12
5
6
10
9
3
2
8

> <PUBCHEM_MMFF94_PARTIAL_CHARGES>
24
1 -0.56
10 0.54
11 0.28
12 0.28
13 0.28
15 -0.03
16 0.04
17 0.14
18 0.72
19 0.56
2 -0.68
27 0.4
28 0.15
29 0.4
3 -0.68
30 0.37
31 0.4
32 0.4
4 -0.57
5 0.05
6 -0.57
7 -0.58
8 -0.49
9 -0.85

> <PUBCHEM_EFFECTIVE_ROTOR_COUNT>
2

> <PUBCHEM_PHARMACOPHORE_FEATURES>
12
1 1 acceptor
1 2 acceptor
1 2 donor
1 3 acceptor
1 3 donor
1 4 acceptor
1 8 donor
1 9 donor
3 5 6 16 cation
5 1 10 11 12 13 rings
5 5 6 15 16 17 rings
6 7 8 15 17 18 19 rings

> <PUBCHEM_HEAVY_ATOM_COUNT>
19

> <PUBCHEM_ATOM_DEF_STEREO_COUNT>
4

> <PUBCHEM_ATOM_UDEF_STEREO_COUNT>
0

> <PUBCHEM_BOND_DEF_STEREO_COUNT>
0

> <PUBCHEM_BOND_UDEF_STEREO_COUNT>
0

> <PUBCHEM_ISOTOPIC_ATOM_COUNT>
0

> <PUBCHEM_COMPONENT_COUNT>
1

> <PUBCHEM_CACTVS_TAUTO_COUNT>
-1

> <PUBCHEM_CONFORMER_ID>
0813B48300000001

> <PUBCHEM_MMFF94_ENERGY>
45.3125

> <PUBCHEM_FEATURE_SELFOVERLAP>
61.086

> <PUBCHEM_SHAPE_FINGERPRINT>
10366900 7 17775280556142735465
10608611 8 18413105043976469480
10616163 171 18412265060005539902
10759866 29 18334863831420483206
11132069 177 18409725166507056096
12633257 1 18198910214566632218
13214271 11 18341607161275410877
13296908 3 18410575110485773250
13544592 145 18198914603954578431
14115302 16 18260838050732256500
14289901 80 18334579074719350360
15196674 1 18410292514480263787
15219456 202 18343864415702687176
15309172 13 16845574222842045318
15375358 24 18341609304632838101
15375462 6 18410575119645290068
16945 1 18267595614836913521
17492 89 18335139804223016410
18175812 5 18342455937244725580
18186145 218 17095520690825718288
19141452 34 18272376429672648867
200 152 17131542852093901165
20201158 50 18129944477195861598
20279233 1 18343866593277532055
20281475 54 18411703209384158041
20510252 161 18270399365625935209
20645477 70 17703789176333302094
20871999 31 18334013929995455591
21501502 16 18342181020852010832
221490 88 18411989061613297934
22213442 358 18266459982708257977
23402539 116 18337380557110887996
23557571 272 18339090375033113390
23559900 14 18411416173073593370
2748010 2 18341051903882671207
296302 2 18272370884025487157
335352 9 18265613178155117884
474 4 16951137312598096492
495365 180 17416945305724256088
5104073 3 18411981364419649968
67856867 119 18187643639914659488
69090 78 18341888546326684199
7364860 26 18052258698031886945
77492 1 17095239220059566026
81228 2 18263660492976038385
8809292 202 18410576149883780554
9709674 26 18270685259743886470

> <PUBCHEM_SHAPE_MULTIPOLES>
342.63
7.96
2.43
0.82
1.09
0.47
0.07
0.25
0.03
-1.05
0.1
0.42
0.15
0.69

> <PUBCHEM_SHAPE_SELFOVERLAP>
745.909

> <PUBCHEM_SHAPE_VOLUME>
186.6

> <PUBCHEM_COORDINATE_TYPE>
2
5
10

$$$$
