135532687
  -OEChem-03292013293D

 27 28  0     1  0  0  0  0  0999 V2000
   -2.8804   -2.6883    0.0315 Cl  0  0  0  0  0  0  0  0  0  0  0  0
    3.6801   -0.0562   -1.2756 O   0  0  0  0  0  0  0  0  0  0  0  0
    3.8186    0.1134    1.5343 O   0  0  0  0  0  0  0  0  0  0  0  0
   -2.5460    2.3708    0.1772 O   0  0  0  0  0  0  0  0  0  0  0  0
    0.3799    2.2005   -0.1217 N   0  0  0  0  0  0  0  0  0  0  0  0
    0.1296   -2.3711   -0.2593 N   0  0  0  0  0  0  0  0  0  0  0  0
   -4.0695    0.1169    0.2502 N   0  0  0  0  0  0  0  0  0  0  0  0
    1.5272    0.3058   -0.3035 C   0  0  0  0  0  0  0  0  0  0  0  0
    0.1495   -0.0139   -0.1770 C   0  0  0  0  0  0  0  0  0  0  0  0
   -0.5320    1.1801   -0.0664 C   0  0  0  0  0  0  0  0  0  0  0  0
    2.6555   -0.6360   -0.4500 C   0  0  2  0  0  0  0  0  0  0  0  0
    1.6387    1.6791   -0.2660 C   0  0  0  0  0  0  0  0  0  0  0  0
   -0.5487   -1.2797   -0.1522 C   0  0  0  0  0  0  0  0  0  0  0  0
   -1.9570    1.2980    0.0803 C   0  0  0  0  0  0  0  0  0  0  0  0
    3.3067   -1.0430    0.8875 C   0  0  0  0  0  0  0  0  0  0  0  0
   -2.7153   -0.0068    0.1101 C   0  0  0  0  0  0  0  0  0  0  0  0
   -2.0369   -1.1696    0.0007 C   0  0  0  0  0  0  0  0  0  0  0  0
    2.3442   -1.5454   -0.9716 H   0  0  0  0  0  0  0  0  0  0  0  0
    2.4966    2.3344   -0.3269 H   0  0  0  0  0  0  0  0  0  0  0  0
    0.1601    3.1855   -0.0644 H   0  0  0  0  0  0  0  0  0  0  0  0
    2.5802   -1.5241    1.5500 H   0  0  0  0  0  0  0  0  0  0  0  0
    4.1451   -1.7239    0.7081 H   0  0  0  0  0  0  0  0  0  0  0  0
    3.2981    0.0844   -2.1593 H   0  0  0  0  0  0  0  0  0  0  0  0
   -0.4976   -3.1820   -0.2254 H   0  0  0  0  0  0  0  0  0  0  0  0
   -4.4891    1.0351    0.3248 H   0  0  0  0  0  0  0  0  0  0  0  0
   -4.6495   -0.7123    0.2788 H   0  0  0  0  0  0  0  0  0  0  0  0
    4.2217   -0.1811    2.3688 H   0  0  0  0  0  0  0  0  0  0  0  0
  1 17  1  0  0  0  0
  2 11  1  0  0  0  0
  2 23  1  0  0  0  0
  3 15  1  0  0  0  0
  3 27  1  0  0  0  0
  4 14  2  0  0  0  0
  5 10  1  0  0  0  0
  5 12  1  0  0  0  0
  5 20  1  0  0  0  0
  6 13  2  0  0  0  0
  6 24  1  0  0  0  0
  7 16  1  0  0  0  0
  7 25  1  0  0  0  0
  7 26  1  0  0  0  0
  8  9  1  0  0  0  0
  8 11  1  0  0  0  0
  8 12  2  0  0  0  0
  9 10  2  0  0  0  0
  9 13  1  0  0  0  0
 10 14  1  0  0  0  0
 11 15  1  0  0  0  0
 11 18  1  0  0  0  0
 12 19  1  0  0  0  0
 13 17  1  0  0  0  0
 14 16  1  0  0  0  0
 15 21  1  0  0  0  0
 15 22  1  0  0  0  0
 16 17  2  0  0  0  0
M  END
> <PUBCHEM_COMPOUND_CID>
135532687

> <PUBCHEM_CONFORMER_RMSD>
0.6

> <PUBCHEM_CONFORMER_DIVERSEORDER>
1
7
2
6
5
4
3

> <PUBCHEM_MMFF94_PARTIAL_CHARGES>
24
1 -0.14
10 -0.24
11 0.46
12 -0.3
13 0.52
14 0.64
15 0.28
16 0.11
17 0.15
19 0.15
2 -0.68
20 0.27
23 0.4
24 0.4
25 0.4
26 0.4
27 0.4
3 -0.68
4 -0.57
5 0.03
6 -0.85
7 -0.9
8 -0.18
9 -0.09

> <PUBCHEM_EFFECTIVE_ROTOR_COUNT>
2

> <PUBCHEM_PHARMACOPHORE_FEATURES>
13
1 2 acceptor
1 2 donor
1 3 acceptor
1 3 donor
1 4 acceptor
1 5 cation
1 5 donor
1 6 acceptor
1 6 donor
1 7 cation
1 7 donor
5 5 8 9 10 12 rings
6 9 10 13 14 16 17 rings

> <PUBCHEM_HEAVY_ATOM_COUNT>
17

> <PUBCHEM_ATOM_DEF_STEREO_COUNT>
0

> <PUBCHEM_ATOM_UDEF_STEREO_COUNT>
1

> <PUBCHEM_BOND_DEF_STEREO_COUNT>
0

> <PUBCHEM_BOND_UDEF_STEREO_COUNT>
0

> <PUBCHEM_ISOTOPIC_ATOM_COUNT>
0

> <PUBCHEM_COMPONENT_COUNT>
1

> <PUBCHEM_CACTVS_TAUTO_COUNT>
-1

> <PUBCHEM_CONFORMER_ID>
0814108F00000001

> <PUBCHEM_MMFF94_ENERGY>
31.4541

> <PUBCHEM_FEATURE_SELFOVERLAP>
66.063

> <PUBCHEM_SHAPE_FINGERPRINT>
10130415 120 18333731333773713850
10967382 1 18338803320962645391
11132069 177 18411697673261062091
11769659 78 18261951967801772671
12236239 1 17749393650700289486
12251169 10 18409163307464473144
12382932 28 18267862783351343008
12553582 1 18337116777399923787
13140716 1 18339363092903914579
13172582 1 18409727327033517080
13380535 76 18339359639771339831
13538477 17 18260831522603655334
14144814 61 18409169900397566896
14178342 30 18338224990773535394
15375462 189 18040431096895926930
16752209 62 18410579456966218703
16945 1 18411422786980311951
17804303 29 18413394236787507641
1813 80 16951967238056318458
193761 8 18051134984073058637
20510252 161 18202002079686873289
20645476 183 17677350414126407942
21501502 16 18265899244626057941
21501925 9 18267857466113414522
23184049 29 18338795735791729796
2334 1 18051133889215003295
23402539 116 18342163459015333983
23419403 2 16762474345111259437
23463225 33 18262237712039259558
23552423 10 18044944716376024197
23559900 14 18199475377177160934
2748010 2 18195528327527134679
4072396 5 18263629685359857227
43471831 8 18263925427865081979
58807428 26 18049161068907071763
7364860 26 18055359295120859724
77492 1 17749112175544204766
8809292 202 18334584580883494755
90316 7 17969774186230354212

> <PUBCHEM_SHAPE_MULTIPOLES>
319.17
6.1
2.53
0.86
1.51
0.16
-0.1
1.3
-0.9
-1.69
0.02
0.88
0.09
-0.29

> <PUBCHEM_SHAPE_SELFOVERLAP>
684.91

> <PUBCHEM_SHAPE_VOLUME>
177.9

> <PUBCHEM_COORDINATE_TYPE>
2
5
10

$$$$
