135538664
  -OEChem-03292013293D

 27 28  0     0  0  0  0  0  0999 V2000
   -4.0203   -0.2790    0.8726 O   0  0  0  0  0  0  0  0  0  0  0  0
    5.5740    0.6445    0.4180 O   0  0  0  0  0  0  0  0  0  0  0  0
    0.1575   -1.3109   -0.5047 N   0  0  0  0  0  0  0  0  0  0  0  0
   -1.7780   -2.1290    0.2610 N   0  0  0  0  0  0  0  0  0  0  0  0
   -0.3506    1.0552   -0.5579 N   0  0  0  0  0  0  0  0  0  0  0  0
   -2.5915    1.4405    0.1973 N   0  0  0  0  0  0  0  0  0  0  0  0
   -1.2200    3.2360   -0.4647 N   0  0  0  0  0  0  0  0  0  0  0  0
   -0.6635   -0.2377   -0.3198 C   0  0  0  0  0  0  0  0  0  0  0  0
    1.5174   -1.2959   -0.9870 C   0  0  0  0  0  0  0  0  0  0  0  0
   -1.8396   -0.7714    0.1490 C   0  0  0  0  0  0  0  0  0  0  0  0
   -0.5579   -2.4257   -0.1416 C   0  0  0  0  0  0  0  0  0  0  0  0
   -2.9369    0.1056    0.4511 C   0  0  0  0  0  0  0  0  0  0  0  0
    2.4904   -0.8335    0.0587 C   0  0  0  0  0  0  0  0  0  0  0  0
   -1.3383    1.8816   -0.2896 C   0  0  0  0  0  0  0  0  0  0  0  0
    3.2992    0.2256   -0.0937 C   0  0  0  0  0  0  0  0  0  0  0  0
    4.2581    0.6939    0.9514 C   0  0  0  0  0  0  0  0  0  0  0  0
    1.5406   -0.6643   -1.8826 H   0  0  0  0  0  0  0  0  0  0  0  0
    1.7775   -2.3134   -1.3004 H   0  0  0  0  0  0  0  0  0  0  0  0
   -0.1392   -3.4219   -0.1903 H   0  0  0  0  0  0  0  0  0  0  0  0
    2.5316   -1.4077    0.9813 H   0  0  0  0  0  0  0  0  0  0  0  0
   -3.2984    2.1475    0.3779 H   0  0  0  0  0  0  0  0  0  0  0  0
    3.2608    0.7988   -1.0167 H   0  0  0  0  0  0  0  0  0  0  0  0
    4.2239    0.0732    1.8524 H   0  0  0  0  0  0  0  0  0  0  0  0
    4.0299    1.7280    1.2274 H   0  0  0  0  0  0  0  0  0  0  0  0
   -0.3596    3.6475   -0.8094 H   0  0  0  0  0  0  0  0  0  0  0  0
   -1.9870    3.8655   -0.2551 H   0  0  0  0  0  0  0  0  0  0  0  0
    6.1744    0.9732    1.1087 H   0  0  0  0  0  0  0  0  0  0  0  0
  1 12  2  0  0  0  0
  2 16  1  0  0  0  0
  2 27  1  0  0  0  0
  3  8  1  0  0  0  0
  3  9  1  0  0  0  0
  3 11  1  0  0  0  0
  4 10  1  0  0  0  0
  4 11  2  0  0  0  0
  5  8  1  0  0  0  0
  5 14  2  0  0  0  0
  6 12  1  0  0  0  0
  6 14  1  0  0  0  0
  6 21  1  0  0  0  0
  7 14  1  0  0  0  0
  7 25  1  0  0  0  0
  7 26  1  0  0  0  0
  8 10  2  0  0  0  0
  9 13  1  0  0  0  0
  9 17  1  0  0  0  0
  9 18  1  0  0  0  0
 10 12  1  0  0  0  0
 11 19  1  0  0  0  0
 13 15  2  0  0  0  0
 13 20  1  0  0  0  0
 15 16  1  0  0  0  0
 15 22  1  0  0  0  0
 16 23  1  0  0  0  0
 16 24  1  0  0  0  0
M  END
> <PUBCHEM_COMPOUND_CID>
135538664

> <PUBCHEM_CONFORMER_RMSD>
0.6

> <PUBCHEM_CONFORMER_DIVERSEORDER>
2
17
4
13
18
9
5
10
15
6
16
8
1
3
14
12
11
7

> <PUBCHEM_MMFF94_PARTIAL_CHARGES>
23
1 -0.57
10 0.14
11 0.04
12 0.72
13 -0.29
14 0.56
15 -0.29
16 0.42
19 0.15
2 -0.68
20 0.15
21 0.37
22 0.15
25 0.4
26 0.4
27 0.4
3 0.05
4 -0.57
5 -0.58
6 -0.49
7 -0.85
8 -0.03
9 0.39

> <PUBCHEM_EFFECTIVE_ROTOR_COUNT>
3

> <PUBCHEM_PHARMACOPHORE_FEATURES>
8
1 1 acceptor
1 2 acceptor
1 2 donor
1 6 donor
1 7 donor
3 3 4 11 cation
5 3 4 8 10 11 rings
6 5 6 8 10 12 14 rings

> <PUBCHEM_HEAVY_ATOM_COUNT>
16

> <PUBCHEM_ATOM_DEF_STEREO_COUNT>
0

> <PUBCHEM_ATOM_UDEF_STEREO_COUNT>
0

> <PUBCHEM_BOND_DEF_STEREO_COUNT>
1

> <PUBCHEM_BOND_UDEF_STEREO_COUNT>
0

> <PUBCHEM_ISOTOPIC_ATOM_COUNT>
0

> <PUBCHEM_COMPONENT_COUNT>
1

> <PUBCHEM_CACTVS_TAUTO_COUNT>
-1

> <PUBCHEM_CONFORMER_ID>
081427E800000002

> <PUBCHEM_MMFF94_ENERGY>
23.1551

> <PUBCHEM_FEATURE_SELFOVERLAP>
40.774

> <PUBCHEM_SHAPE_FINGERPRINT>
10608611 8 18269274565145654998
11132069 177 18341899605593255670
12251169 10 18334858342146109198
12390115 104 18128835065716428456
13140716 1 18194405717090623576
13214271 11 18342457088037796903
13897977 58 18335142046448372788
14420673 8 18047183056781199258
16945 1 18190762876597318287
17846911 113 18411699880768633718
193761 8 17762070126368051799
20388701 513 18335989691960268775
20510252 161 18341615858594871281
20645477 56 18272088314528266314
21650355 55 18262797509386751290
21652331 79 18410009949141178696
23402539 116 18341885346676775911
23557571 272 18129116674011049414
23559900 14 18192730967851105734
27216 239 18200866392023829370
2748010 2 17975711493253932695
3524813 1 18130498712961508520
57003041 12 18125735486834891617
7097593 13 18042668539087791338
90316 7 18260821626967525644

> <PUBCHEM_SHAPE_MULTIPOLES>
292.63
7.22
2.57
0.83
9.73
0.86
0.01
2.12
2.67
-1.57
-0.44
0.15
-0.01
0.64

> <PUBCHEM_SHAPE_SELFOVERLAP>
622.532

> <PUBCHEM_SHAPE_VOLUME>
162.1

> <PUBCHEM_COORDINATE_TYPE>
2
5
10

$$$$
