135566026
  -OEChem-03292013293D

 52 56  0     1  0  0  0  0  0999 V2000
   -3.1057    1.0792   -0.8075 O   0  0  0  0  0  0  0  0  0  0  0  0
    1.8931   -3.6340   -1.5805 O   0  0  0  0  0  0  0  0  0  0  0  0
    0.2369    3.7234   -0.6195 O   0  0  0  0  0  0  0  0  0  0  0  0
    3.0380    4.0399   -0.2728 O   0  0  0  0  0  0  0  0  0  0  0  0
   -6.5304   -1.2500    0.1481 O   0  0  0  0  0  0  0  0  0  0  0  0
   -5.6496    0.6549    1.0293 O   0  0  0  0  0  0  0  0  0  0  0  0
    1.3837   -1.4009    0.3261 N   0  0  0  0  0  0  0  0  0  0  0  0
    0.9096   -2.7773    0.4364 C   0  0  2  0  0  0  0  0  0  0  0  0
    2.7628   -1.3167    0.5060 C   0  0  0  0  0  0  0  0  0  0  0  0
    0.8354   -0.1694    0.1139 C   0  0  0  0  0  0  0  0  0  0  0  0
    2.0967   -3.4620    1.1607 C   0  0  0  0  0  0  0  0  0  0  0  0
    3.3511   -2.6414    0.7853 C   0  0  0  0  0  0  0  0  0  0  0  0
    1.9145    0.6770    0.1089 C   0  0  0  0  0  0  0  0  0  0  0  0
    3.1231   -0.0094    0.3550 C   0  0  0  0  0  0  0  0  0  0  0  0
   -0.5310    0.1980   -0.0736 C   0  0  0  0  0  0  0  0  0  0  0  0
    0.6491   -3.4042   -0.9279 C   0  0  2  0  0  0  0  0  0  0  0  0
   -0.7461    1.5274   -0.2982 C   0  0  0  0  0  0  0  0  0  0  0  0
   -1.7201   -0.7351   -0.0454 C   0  0  0  0  0  0  0  0  0  0  0  0
    1.7471    2.0203   -0.1144 C   0  0  0  0  0  0  0  0  0  0  0  0
   -3.0513   -0.0018    0.1216 C   0  0  2  0  0  0  0  0  0  0  0  0
   -2.1293    2.0994   -0.5474 C   0  0  2  0  0  0  0  0  0  0  0  0
    0.3999    2.5380   -0.3647 C   0  0  0  0  0  0  0  0  0  0  0  0
    4.3710    0.5967    0.4150 C   0  0  0  0  0  0  0  0  0  0  0  0
   -0.1061   -4.7181   -0.8104 C   0  0  0  0  0  0  0  0  0  0  0  0
    2.9829    2.6879   -0.0711 C   0  0  0  0  0  0  0  0  0  0  0  0
    4.2348    1.9983    0.1853 C   0  0  0  0  0  0  0  0  0  0  0  0
   -4.2279   -0.9267   -0.1616 C   0  0  0  0  0  0  0  0  0  0  0  0
   -2.6199    2.9981    0.5904 C   0  0  0  0  0  0  0  0  0  0  0  0
   -5.5125   -0.3913    0.4131 C   0  0  0  0  0  0  0  0  0  0  0  0
    0.0218   -2.7819    1.0735 H   0  0  0  0  0  0  0  0  0  0  0  0
    2.2162   -4.5271    0.9423 H   0  0  0  0  0  0  0  0  0  0  0  0
    1.9382   -3.3778    2.2451 H   0  0  0  0  0  0  0  0  0  0  0  0
    3.8533   -3.0449   -0.0985 H   0  0  0  0  0  0  0  0  0  0  0  0
    4.0644   -2.6156    1.6140 H   0  0  0  0  0  0  0  0  0  0  0  0
    0.0724   -2.7199   -1.5592 H   0  0  0  0  0  0  0  0  0  0  0  0
   -1.7232   -1.3011   -0.9849 H   0  0  0  0  0  0  0  0  0  0  0  0
   -1.6268   -1.4486    0.7784 H   0  0  0  0  0  0  0  0  0  0  0  0
   -3.1262    0.3823    1.1464 H   0  0  0  0  0  0  0  0  0  0  0  0
   -2.0990    2.7004   -1.4640 H   0  0  0  0  0  0  0  0  0  0  0  0
    5.3158    0.1087    0.6017 H   0  0  0  0  0  0  0  0  0  0  0  0
    0.4743   -5.4732   -0.2708 H   0  0  0  0  0  0  0  0  0  0  0  0
   -0.3013   -5.1335   -1.8052 H   0  0  0  0  0  0  0  0  0  0  0  0
   -1.0653   -4.5809   -0.3017 H   0  0  0  0  0  0  0  0  0  0  0  0
    5.1468    2.5979    0.2028 H   0  0  0  0  0  0  0  0  0  0  0  0
   -4.3664   -1.0531   -1.2415 H   0  0  0  0  0  0  0  0  0  0  0  0
   -4.0545   -1.9047    0.3024 H   0  0  0  0  0  0  0  0  0  0  0  0
   -3.6667    3.2785    0.4302 H   0  0  0  0  0  0  0  0  0  0  0  0
   -2.0278    3.9149    0.6663 H   0  0  0  0  0  0  0  0  0  0  0  0
   -2.5706    2.4923    1.5605 H   0  0  0  0  0  0  0  0  0  0  0  0
    1.7017   -4.0215   -2.4515 H   0  0  0  0  0  0  0  0  0  0  0  0
    2.1404    4.3779   -0.4281 H   0  0  0  0  0  0  0  0  0  0  0  0
   -7.3835   -0.9287    0.5103 H   0  0  0  0  0  0  0  0  0  0  0  0
  1 20  1  0  0  0  0
  1 21  1  0  0  0  0
  2 16  1  0  0  0  0
  2 50  1  0  0  0  0
  3 22  2  0  0  0  0
  4 25  1  0  0  0  0
  4 51  1  0  0  0  0
  5 29  1  0  0  0  0
  5 52  1  0  0  0  0
  6 29  2  0  0  0  0
  7  8  1  0  0  0  0
  7  9  1  0  0  0  0
  7 10  1  0  0  0  0
  8 11  1  0  0  0  0
  8 16  1  0  0  0  0
  8 30  1  0  0  0  0
  9 12  1  0  0  0  0
  9 14  2  0  0  0  0
 10 13  2  0  0  0  0
 10 15  1  0  0  0  0
 11 12  1  0  0  0  0
 11 31  1  0  0  0  0
 11 32  1  0  0  0  0
 12 33  1  0  0  0  0
 12 34  1  0  0  0  0
 13 14  1  0  0  0  0
 13 19  1  0  0  0  0
 14 23  1  0  0  0  0
 15 17  2  0  0  0  0
 15 18  1  0  0  0  0
 16 24  1  0  0  0  0
 16 35  1  0  0  0  0
 17 21  1  0  0  0  0
 17 22  1  0  0  0  0
 18 20  1  0  0  0  0
 18 36  1  0  0  0  0
 18 37  1  0  0  0  0
 19 22  1  0  0  0  0
 19 25  2  0  0  0  0
 20 27  1  0  0  0  0
 20 38  1  0  0  0  0
 21 28  1  0  0  0  0
 21 39  1  0  0  0  0
 23 26  2  0  0  0  0
 23 40  1  0  0  0  0
 24 41  1  0  0  0  0
 24 42  1  0  0  0  0
 24 43  1  0  0  0  0
 25 26  1  0  0  0  0
 26 44  1  0  0  0  0
 27 29  1  0  0  0  0
 27 45  1  0  0  0  0
 27 46  1  0  0  0  0
 28 47  1  0  0  0  0
 28 48  1  0  0  0  0
 28 49  1  0  0  0  0
M  END
> <PUBCHEM_COMPOUND_CID>
135566026

> <PUBCHEM_CONFORMER_RMSD>
0.8

> <PUBCHEM_CONFORMER_DIVERSEORDER>
1
13
24
28
8
10
29
21
26
16
9
23
19
14
3
7
30
32
31
18
20
25
17
11
22
4
12
27
15
6
5
2

> <PUBCHEM_MMFF94_PARTIAL_CHARGES>
29
1 -0.56
10 -0.2
12 0.18
15 -0.09
16 0.28
17 -0.12
18 0.14
19 0.09
2 -0.68
20 0.28
21 0.42
22 0.47
23 -0.15
25 0.08
26 -0.15
27 0.06
29 0.66
3 -0.57
4 -0.53
40 0.15
44 0.15
5 -0.65
50 0.4
51 0.45
52 0.5
6 -0.57
7 0.05
8 0.26
9 -0.33

> <PUBCHEM_EFFECTIVE_ROTOR_COUNT>
4.4

> <PUBCHEM_PHARMACOPHORE_FEATURES>
14
1 1 acceptor
1 2 acceptor
1 2 donor
1 3 acceptor
1 4 donor
1 5 acceptor
1 6 acceptor
1 7 cation
3 5 6 29 anion
5 7 8 9 11 12 rings
5 7 9 10 13 14 rings
6 1 15 17 18 20 21 rings
6 10 13 15 17 19 22 rings
6 13 14 19 23 25 26 rings

> <PUBCHEM_HEAVY_ATOM_COUNT>
29

> <PUBCHEM_ATOM_DEF_STEREO_COUNT>
0

> <PUBCHEM_ATOM_UDEF_STEREO_COUNT>
4

> <PUBCHEM_BOND_DEF_STEREO_COUNT>
0

> <PUBCHEM_BOND_UDEF_STEREO_COUNT>
0

> <PUBCHEM_ISOTOPIC_ATOM_COUNT>
0

> <PUBCHEM_COMPONENT_COUNT>
1

> <PUBCHEM_CACTVS_TAUTO_COUNT>
-1

> <PUBCHEM_CONFORMER_ID>
081492CA00000001

> <PUBCHEM_MMFF94_ENERGY>
87.307

> <PUBCHEM_FEATURE_SELFOVERLAP>
71.647

> <PUBCHEM_SHAPE_FINGERPRINT>
10258939 38 17676762180518439321
10411042 1 18192427464024310098
10675989 125 16321174586390205903
10906281 52 18114763606245917065
10967382 1 18336540599273966648
1100329 8 18122339353035659544
11421498 54 17846508019091324353
11578080 2 16952521390987666756
12156800 1 17686650208096982438
12553582 1 17690276011124734974
13140716 1 18120934168242211281
1361 2 18338232786492936595
138480 1 18264765455027816336
14178342 30 18195796389099895448
14223421 5 18122621661003598788
14790565 3 18193562396226192525
14863182 85 18335991916953918238
15927050 60 17546733015419169285
16728300 4 17534589696407590754
17138139 8 17411589774134113727
17492 89 18337386020504837603
18681886 176 18336822078788790224
19591789 44 18193273228819889296
20028762 73 18271806886174015991
20739085 24 18409735027725255993
20775438 99 17471246758037508101
21033650 10 15286757981041890701
21133410 32 16378670943835925482
21197605 99 18120100739120382723
21267235 1 18408889542281463544
21344244 181 17986976166217101446
21421861 104 18341343184533359001
23559900 14 18193543485231590873
3117164 225 17838351687819559041
3178227 256 18335426793984500056
335352 9 18337110198142840988
350125 39 18409166640686798456
3882209 13 17035806013044323275
460360 51 18120107095787635213
484985 159 14428769333730528746
5104073 3 18266731390081427497
5309563 4 18265613191209181739
57527306 92 15984817173061785504
59755656 215 18333452044877341086
653340 110 17260741266642851216
8272917 22 18412549803568283823
9709674 26 17835511622887124095

> <PUBCHEM_SHAPE_MULTIPOLES>
556.61
9.14
5.65
0.92
14.46
2.59
-0.06
-0.71
2.24
-4.13
-1.24
-0.07
0.56
-0.4

> <PUBCHEM_SHAPE_SELFOVERLAP>
1245.097

> <PUBCHEM_SHAPE_VOLUME>
296.7

> <PUBCHEM_COORDINATE_TYPE>
2
5
10

$$$$
