135566652
  -OEChem-03292013293D

 55 58  0     0  0  0  0  0  0999 V2000
   -3.2241   -0.8289    2.4658 O   0  0  0  0  0  0  0  0  0  0  0  0
   -0.6069   -1.5851   -1.1186 O   0  0  0  0  0  0  0  0  0  0  0  0
    1.9968   -0.2436   -1.2777 O   0  0  0  0  0  0  0  0  0  0  0  0
    0.9436   -4.3619    0.9723 O   0  0  0  0  0  0  0  0  0  0  0  0
    5.3479   -3.5645   -0.6471 O   0  0  0  0  0  0  0  0  0  0  0  0
    4.8762    4.3070    1.9875 O   0  5  0  0  0  0  0  0  0  0  0  0
    5.0905    5.1021   -0.0475 O   0  0  0  0  0  0  0  0  0  0  0  0
   -6.7621    1.9097   -0.8901 N   0  0  0  0  0  0  0  0  0  0  0  0
   -4.2538   -0.4383    0.4253 N   0  0  0  0  0  0  0  0  0  0  0  0
   -1.8946   -1.1718   -0.7992 N   0  0  0  0  0  0  0  0  0  0  0  0
    4.6906    4.2194    0.7496 N   0  3  0  0  0  0  0  0  0  0  0  0
   -5.5281   -0.0130    0.9594 C   0  0  0  0  0  0  0  0  0  0  0  0
   -6.6747   -0.3914    0.0189 C   0  0  0  0  0  0  0  0  0  0  0  0
   -5.5408    1.4945    1.2231 C   0  0  0  0  0  0  0  0  0  0  0  0
   -6.7026    0.4838   -1.2381 C   0  0  0  0  0  0  0  0  0  0  0  0
   -5.6069    2.3069   -0.0741 C   0  0  0  0  0  0  0  0  0  0  0  0
   -6.8412    2.7292   -2.0991 C   0  0  0  0  0  0  0  0  0  0  0  0
   -3.1966   -0.8150    1.2380 C   0  0  0  0  0  0  0  0  0  0  0  0
   -1.9458   -1.2006    0.5355 C   0  0  0  0  0  0  0  0  0  0  0  0
   -0.7322   -1.6200    1.1073 C   0  0  0  0  0  0  0  0  0  0  0  0
    0.0756   -1.8490    0.0250 C   0  0  0  0  0  0  0  0  0  0  0  0
    1.4295   -2.2895   -0.1476 C   0  0  0  0  0  0  0  0  0  0  0  0
    2.3523   -1.4693   -0.7966 C   0  0  0  0  0  0  0  0  0  0  0  0
    1.8233   -3.5381    0.3336 C   0  0  0  0  0  0  0  0  0  0  0  0
    3.6691   -1.8978   -0.9644 C   0  0  0  0  0  0  0  0  0  0  0  0
    3.1401   -3.9666    0.1658 C   0  0  0  0  0  0  0  0  0  0  0  0
    4.0630   -3.1464   -0.4833 C   0  0  0  0  0  0  0  0  0  0  0  0
    2.6639    0.8599   -0.7762 C   0  0  0  0  0  0  0  0  0  0  0  0
    2.8817    0.9791    0.5964 C   0  0  0  0  0  0  0  0  0  0  0  0
    3.1175    1.8539   -1.6433 C   0  0  0  0  0  0  0  0  0  0  0  0
    3.5533    2.0922    1.1020 C   0  0  0  0  0  0  0  0  0  0  0  0
    3.7889    2.9671   -1.1377 C   0  0  0  0  0  0  0  0  0  0  0  0
    4.0068    3.0862    0.2349 C   0  0  0  0  0  0  0  0  0  0  0  0
   -5.6753   -0.5339    1.9134 H   0  0  0  0  0  0  0  0  0  0  0  0
   -7.6276   -0.2775    0.5524 H   0  0  0  0  0  0  0  0  0  0  0  0
   -6.5978   -1.4459   -0.2727 H   0  0  0  0  0  0  0  0  0  0  0  0
   -4.6548    1.7948    1.7953 H   0  0  0  0  0  0  0  0  0  0  0  0
   -6.4146    1.7414    1.8406 H   0  0  0  0  0  0  0  0  0  0  0  0
   -7.5922    0.2101   -1.8189 H   0  0  0  0  0  0  0  0  0  0  0  0
   -4.6708    2.1898   -0.6357 H   0  0  0  0  0  0  0  0  0  0  0  0
   -5.6916    3.3671    0.1944 H   0  0  0  0  0  0  0  0  0  0  0  0
   -5.8307    0.2690   -1.8691 H   0  0  0  0  0  0  0  0  0  0  0  0
   -4.1128   -0.4123   -0.5805 H   0  0  0  0  0  0  0  0  0  0  0  0
   -6.9370    3.7894   -1.8398 H   0  0  0  0  0  0  0  0  0  0  0  0
   -7.7305    2.4683   -2.6835 H   0  0  0  0  0  0  0  0  0  0  0  0
   -5.9598    2.6088   -2.7395 H   0  0  0  0  0  0  0  0  0  0  0  0
   -0.4800   -1.7380    2.1513 H   0  0  0  0  0  0  0  0  0  0  0  0
    4.3952   -1.2725   -1.4785 H   0  0  0  0  0  0  0  0  0  0  0  0
    3.4494   -4.9396    0.5402 H   0  0  0  0  0  0  0  0  0  0  0  0
    1.4017   -5.1795    1.2319 H   0  0  0  0  0  0  0  0  0  0  0  0
    2.5239    0.2291    1.2963 H   0  0  0  0  0  0  0  0  0  0  0  0
    2.9504    1.7654   -2.7132 H   0  0  0  0  0  0  0  0  0  0  0  0
    3.7018    2.1535    2.1771 H   0  0  0  0  0  0  0  0  0  0  0  0
    4.1281    3.7216   -1.8429 H   0  0  0  0  0  0  0  0  0  0  0  0
    5.4445   -4.4491   -0.2546 H   0  0  0  0  0  0  0  0  0  0  0  0
  1 18  2  0  0  0  0
  2 10  1  0  0  0  0
  2 21  1  0  0  0  0
  3 23  1  0  0  0  0
  3 28  1  0  0  0  0
  4 24  1  0  0  0  0
  4 50  1  0  0  0  0
  5 27  1  0  0  0  0
  5 55  1  0  0  0  0
  6 11  1  0  0  0  0
  7 11  2  0  0  0  0
  8 15  1  0  0  0  0
  8 16  1  0  0  0  0
  8 17  1  0  0  0  0
  9 12  1  0  0  0  0
  9 18  1  0  0  0  0
  9 43  1  0  0  0  0
 10 19  2  0  0  0  0
 11 33  1  0  0  0  0
 12 13  1  0  0  0  0
 12 14  1  0  0  0  0
 12 34  1  0  0  0  0
 13 15  1  0  0  0  0
 13 35  1  0  0  0  0
 13 36  1  0  0  0  0
 14 16  1  0  0  0  0
 14 37  1  0  0  0  0
 14 38  1  0  0  0  0
 15 39  1  0  0  0  0
 15 42  1  0  0  0  0
 16 40  1  0  0  0  0
 16 41  1  0  0  0  0
 17 44  1  0  0  0  0
 17 45  1  0  0  0  0
 17 46  1  0  0  0  0
 18 19  1  0  0  0  0
 19 20  1  0  0  0  0
 20 21  2  0  0  0  0
 20 47  1  0  0  0  0
 21 22  1  0  0  0  0
 22 23  1  0  0  0  0
 22 24  2  0  0  0  0
 23 25  2  0  0  0  0
 24 26  1  0  0  0  0
 25 27  1  0  0  0  0
 25 48  1  0  0  0  0
 26 27  2  0  0  0  0
 26 49  1  0  0  0  0
 28 29  2  0  0  0  0
 28 30  1  0  0  0  0
 29 31  1  0  0  0  0
 29 51  1  0  0  0  0
 30 32  2  0  0  0  0
 30 52  1  0  0  0  0
 31 33  2  0  0  0  0
 31 53  1  0  0  0  0
 32 33  1  0  0  0  0
 32 54  1  0  0  0  0
M  CHG  2   6  -1  11   1
M  END
> <PUBCHEM_COMPOUND_CID>
135566652

> <PUBCHEM_CONFORMER_RMSD>
1

> <PUBCHEM_CONFORMER_DIVERSEORDER>
1
79
77
17
54
70
97
63
46
16
20
47
118
55
49
96
116
53
102
30
86
36
8
76
67
110
66
122
22
107
31
73
33
121
104
59
10
108
29
100
83
24
98
56
32
72
13
48
78
39
6
58
89
51
103
119
90
113
82
7
120
75
94
35
124
62
12
91
37
87
42
81
71
4
105
95
15
23
57
27
5
85
41
114
14
61
109
18
99
21
80
64
93
28
106
117
74
65
84
88
115
92
111
9
52
50
123
25
40
112
2
101
43
60
69
11
44
38
45
26
19
68
34
3

> <PUBCHEM_MMFF94_PARTIAL_CHARGES>
41
1 -0.57
10 -0.41
11 0.91
12 0.3
15 0.27
16 0.27
17 0.27
18 0.72
19 0.2
2 -0.02
20 -0.15
21 0.09
22 0.05
23 0.08
24 0.08
25 -0.15
26 -0.15
27 0.08
28 0.08
29 -0.15
3 -0.17
30 -0.15
31 -0.15
32 -0.15
33 0.13
4 -0.53
43 0.37
47 0.15
48 0.15
49 0.15
5 -0.53
50 0.45
51 0.15
52 0.15
53 0.15
54 0.15
55 0.45
6 -0.52
7 -0.52
8 -0.81
9 -0.73

> <PUBCHEM_EFFECTIVE_ROTOR_COUNT>
8.2

> <PUBCHEM_PHARMACOPHORE_FEATURES>
14
1 1 acceptor
1 10 acceptor
1 3 acceptor
1 4 donor
1 5 donor
1 6 acceptor
1 6 anion
1 7 acceptor
1 8 cation
1 9 donor
5 2 10 19 20 21 rings
6 22 23 24 25 26 27 rings
6 28 29 30 31 32 33 rings
6 8 12 13 14 15 16 rings

> <PUBCHEM_HEAVY_ATOM_COUNT>
33

> <PUBCHEM_ATOM_DEF_STEREO_COUNT>
0

> <PUBCHEM_ATOM_UDEF_STEREO_COUNT>
0

> <PUBCHEM_BOND_DEF_STEREO_COUNT>
0

> <PUBCHEM_BOND_UDEF_STEREO_COUNT>
0

> <PUBCHEM_ISOTOPIC_ATOM_COUNT>
0

> <PUBCHEM_COMPONENT_COUNT>
1

> <PUBCHEM_CACTVS_TAUTO_COUNT>
-1

> <PUBCHEM_CONFORMER_ID>
0814953C00000001

> <PUBCHEM_MMFF94_ENERGY>
81.1863

> <PUBCHEM_FEATURE_SELFOVERLAP>
71.13

> <PUBCHEM_SHAPE_FINGERPRINT>
10675989 125 18343590650472641048
11089746 13 18263930947494195183
12166972 35 18129664067292276723
12664476 115 17750529399294117945
13878862 14 18335408037814754965
13965767 371 18043804493444228940
14556957 393 17417249824102934457
14849402 71 18410863140099607178
15198563 99 17837796434742580702
15326921 28 17837484520984808288
15439362 3 18339363084762262102
16120349 189 18194118753251749548
16988056 13 18337392622069713276
17980427 26 18342170124826268046
18365409 1 16916487234309434606
19053607 189 18114749329827912397
20238998 120 18194967336485469254
21033648 29 17530974549340987595
21133410 127 18041283286927464717
21968339 14 18202275918201273144
22122407 14 18196956395768959473
23559900 14 17895206450238350491
23569914 2 17681229436059062677
25222932 49 13038328208786485015
3388396 114 18059860579903906921
376196 1 18340494477352722662
44317340 157 18410860920076009083
563151 97 18124870420049290030
57124632 79 18340492265586418866
6086070 43 18264774251147706043
6371380 46 17968383342338586323
6695519 79 18051161321203610603
6697151 62 18046898287000050091
9849439 229 18194967563485590368
9896288 288 17542786865015253258
9981440 41 17980203316387400634

> <PUBCHEM_SHAPE_MULTIPOLES>
618.12
17.15
6.4
1.63
31.88
3.52
-0.15
13.73
2.82
-14.38
-0.95
0.99
0.86
3.47

> <PUBCHEM_SHAPE_SELFOVERLAP>
1344.415

> <PUBCHEM_SHAPE_VOLUME>
337.2

> <PUBCHEM_COORDINATE_TYPE>
2
5
10

$$$$
