135570479
  -OEChem-03292013293D

 29 30  0     1  0  0  0  0  0999 V2000
   -1.7599   -0.3424    0.3813 O   0  0  0  0  0  0  0  0  0  0  0  0
   -4.7449    1.0549   -1.0960 O   0  0  0  0  0  0  0  0  0  0  0  0
   -1.3377   -2.9593    0.6523 O   0  0  0  0  0  0  0  0  0  0  0  0
    4.4488    1.1811   -0.5276 O   0  0  0  0  0  0  0  0  0  0  0  0
   -2.0602    1.6817    2.1278 O   0  0  0  0  0  0  0  0  0  0  0  0
    0.2198   -0.3750   -0.9148 N   0  0  0  0  0  0  0  0  0  0  0  0
    1.9055    0.6503   -1.9698 N   0  0  0  0  0  0  0  0  0  0  0  0
    1.2094   -0.7168    1.2713 N   0  0  0  0  0  0  0  0  0  0  0  0
    3.4491    0.1592    1.3182 N   0  0  0  0  0  0  0  0  0  0  0  0
   -1.0819   -0.9622   -0.7079 C   0  0  1  0  0  0  0  0  0  0  0  0
    1.2334   -0.2767   -0.0079 C   0  0  0  0  0  0  0  0  0  0  0  0
   -2.6144    0.7176   -0.0294 C   0  0  1  0  0  0  0  0  0  0  0  0
    2.2516    0.3560   -0.6839 C   0  0  0  0  0  0  0  0  0  0  0  0
    0.6722    0.1962   -2.0794 C   0  0  0  0  0  0  0  0  0  0  0  0
   -4.0057    0.1575   -0.2802 C   0  0  0  0  0  0  0  0  0  0  0  0
   -0.9539   -2.4386   -0.3904 C   0  0  0  0  0  0  0  0  0  0  0  0
    3.4935    0.6216   -0.0041 C   0  0  0  0  0  0  0  0  0  0  0  0
   -2.6590    1.7686    1.0604 C   0  0  0  0  0  0  0  0  0  0  0  0
    2.3342   -0.4737    1.8799 C   0  0  0  0  0  0  0  0  0  0  0  0
   -1.6600   -0.8910   -1.6376 H   0  0  0  0  0  0  0  0  0  0  0  0
   -2.2174    1.2275   -0.9167 H   0  0  0  0  0  0  0  0  0  0  0  0
    0.0609    0.2527   -2.9699 H   0  0  0  0  0  0  0  0  0  0  0  0
   -4.5502    0.0075    0.6589 H   0  0  0  0  0  0  0  0  0  0  0  0
   -3.9596   -0.8082   -0.7943 H   0  0  0  0  0  0  0  0  0  0  0  0
   -0.4922   -3.0531   -1.1834 H   0  0  0  0  0  0  0  0  0  0  0  0
    4.2725    0.2926    1.8982 H   0  0  0  0  0  0  0  0  0  0  0  0
   -3.2700    2.6594    0.8330 H   0  0  0  0  0  0  0  0  0  0  0  0
    2.4943   -0.7631    2.9301 H   0  0  0  0  0  0  0  0  0  0  0  0
   -5.6239    0.6614   -1.2302 H   0  0  0  0  0  0  0  0  0  0  0  0
  1 10  1  0  0  0  0
  1 12  1  0  0  0  0
  2 15  1  0  0  0  0
  2 29  1  0  0  0  0
  3 16  2  0  0  0  0
  4 17  2  0  0  0  0
  5 18  2  0  0  0  0
  6 10  1  0  0  0  0
  6 11  1  0  0  0  0
  6 14  1  0  0  0  0
  7 13  1  0  0  0  0
  7 14  2  0  0  0  0
  8 11  1  0  0  0  0
  8 19  2  0  0  0  0
  9 17  1  0  0  0  0
  9 19  1  0  0  0  0
  9 26  1  0  0  0  0
 10 16  1  0  0  0  0
 10 20  1  0  0  0  0
 11 13  2  0  0  0  0
 12 15  1  0  0  0  0
 12 18  1  0  0  0  0
 12 21  1  0  0  0  0
 13 17  1  0  0  0  0
 14 22  1  0  0  0  0
 15 23  1  0  0  0  0
 15 24  1  0  0  0  0
 16 25  1  0  0  0  0
 18 27  1  0  0  0  0
 19 28  1  0  0  0  0
M  END
> <PUBCHEM_COMPOUND_CID>
135570479

> <PUBCHEM_CONFORMER_RMSD>
0.8

> <PUBCHEM_CONFORMER_DIVERSEORDER>
1
30
6
18
22
11
13
7
31
14
20
19
23
12
27
10
32
26
8
17
16
24
15
2
9
25
28
29
21
4
3
5

> <PUBCHEM_MMFF94_PARTIAL_CHARGES>
25
1 -0.56
10 0.6
11 -0.03
12 0.34
13 0.14
14 0.04
15 0.28
16 0.45
17 0.72
18 0.45
19 0.45
2 -0.68
22 0.15
25 0.06
26 0.37
27 0.06
28 0.06
29 0.4
3 -0.57
4 -0.57
5 -0.57
6 0.05
7 -0.57
8 -0.58
9 -0.49

> <PUBCHEM_EFFECTIVE_ROTOR_COUNT>
6

> <PUBCHEM_PHARMACOPHORE_FEATURES>
10
1 1 acceptor
1 2 acceptor
1 2 donor
1 3 acceptor
1 4 acceptor
1 5 acceptor
1 9 donor
3 6 7 14 cation
5 6 7 11 13 14 rings
6 8 9 11 13 17 19 rings

> <PUBCHEM_HEAVY_ATOM_COUNT>
19

> <PUBCHEM_ATOM_DEF_STEREO_COUNT>
2

> <PUBCHEM_ATOM_UDEF_STEREO_COUNT>
0

> <PUBCHEM_BOND_DEF_STEREO_COUNT>
0

> <PUBCHEM_BOND_UDEF_STEREO_COUNT>
0

> <PUBCHEM_ISOTOPIC_ATOM_COUNT>
0

> <PUBCHEM_COMPONENT_COUNT>
1

> <PUBCHEM_CACTVS_TAUTO_COUNT>
-1

> <PUBCHEM_CONFORMER_ID>
0814A42F00000001

> <PUBCHEM_MMFF94_ENERGY>
31.6201

> <PUBCHEM_FEATURE_SELFOVERLAP>
50.904

> <PUBCHEM_SHAPE_FINGERPRINT>
10498660 4 17702946916346931201
11471102 22 16225767428174505060
11640471 11 18260271862368342337
124424 183 17418098719798173614
13464514 151 16986896548557342312
13538477 17 18335135444450655562
13583140 156 17531255010294336753
13764800 53 18272658986300259507
14617773 55 17535486033853398710
14787075 74 16676400370537853934
15209294 21 18041554866847383852
15775835 57 18187081762832474805
15852999 172 18343025479904803495
16752209 62 18264484164830307631
21524375 3 18130222649358604375
21713013 43 14189281652458127285
23184049 59 17603857871588602895
23402539 116 18059847385599816517
23419403 2 16757688218619823983
23493267 7 18059869380417437370
23526113 38 16845028830947331030
23557571 272 17702951464790669863
23559900 14 18202006529816038038
25 1 16271379503900325480
2748010 2 14619376658285791598
3323516 105 15051722097632389737
3797600 57 17175235339658697001
568465 68 15936702531229457496

> <PUBCHEM_SHAPE_MULTIPOLES>
341.74
6.98
1.93
1.83
1.29
0.71
-0.11
-3.5
-1.02
1.71
0.93
-0.84
0
-0.08

> <PUBCHEM_SHAPE_SELFOVERLAP>
726.501

> <PUBCHEM_SHAPE_VOLUME>
186.4

> <PUBCHEM_COORDINATE_TYPE>
2
5
10

$$$$
