135515492
  -OEChem-03292013293D

 43 47  0     0  0  0  0  0  0999 V2000
   -2.8797    1.6698    0.1246 O   0  0  0  0  0  0  0  0  0  0  0  0
    2.9806    1.8377    0.0353 O   0  0  0  0  0  0  0  0  0  0  0  0
   -4.3332    0.2886   -2.0035 O   0  0  0  0  0  0  0  0  0  0  0  0
    3.9309   -3.9366   -0.2539 O   0  0  0  0  0  0  0  0  0  0  0  0
    1.8666   -2.9888   -0.1733 O   0  0  0  0  0  0  0  0  0  0  0  0
   -1.1005    0.2691    0.0275 N   0  0  0  0  0  0  0  0  0  0  0  0
    1.7884   -0.0887   -0.0362 N   0  0  0  0  0  0  0  0  0  0  0  0
   -0.6585    1.5688    0.0829 C   0  0  0  0  0  0  0  0  0  0  0  0
    0.6352    2.1098    0.0874 C   0  0  0  0  0  0  0  0  0  0  0  0
   -1.7450    2.4291    0.1418 C   0  0  0  0  0  0  0  0  0  0  0  0
   -2.4092    0.3929    0.0556 C   0  0  0  0  0  0  0  0  0  0  0  0
    1.7638    1.2245    0.0266 C   0  0  0  0  0  0  0  0  0  0  0  0
   -3.4191   -0.6284    0.0236 C   0  0  0  0  0  0  0  0  0  0  0  0
    3.1310   -0.3786   -0.0719 C   0  0  0  0  0  0  0  0  0  0  0  0
    0.7659    3.5048    0.1515 C   0  0  0  0  0  0  0  0  0  0  0  0
    3.8639    0.7983   -0.0288 C   0  0  0  0  0  0  0  0  0  0  0  0
   -3.4657   -1.6002    1.0233 C   0  0  0  0  0  0  0  0  0  0  0  0
   -1.6558    3.8140    0.2065 C   0  0  0  0  0  0  0  0  0  0  0  0
   -0.3584    4.3376    0.2096 C   0  0  0  0  0  0  0  0  0  0  0  0
   -4.3537   -0.6473   -1.0117 C   0  0  0  0  0  0  0  0  0  0  0  0
    3.8151   -1.6007   -0.1408 C   0  0  0  0  0  0  0  0  0  0  0  0
    5.2513    0.8683   -0.0489 C   0  0  0  0  0  0  0  0  0  0  0  0
   -4.4473   -2.5907    0.9878 C   0  0  0  0  0  0  0  0  0  0  0  0
   -2.4818   -1.6147    2.1494 C   0  0  0  0  0  0  0  0  0  0  0  0
    5.2171   -1.5707   -0.1634 C   0  0  0  0  0  0  0  0  0  0  0  0
   -5.3352   -1.6379   -1.0471 C   0  0  0  0  0  0  0  0  0  0  0  0
    5.9184   -0.3595   -0.1184 C   0  0  0  0  0  0  0  0  0  0  0  0
   -5.3821   -2.6094   -0.0472 C   0  0  0  0  0  0  0  0  0  0  0  0
    3.0972   -2.8608   -0.1883 C   0  0  0  0  0  0  0  0  0  0  0  0
    1.7464    3.9763    0.1576 H   0  0  0  0  0  0  0  0  0  0  0  0
   -2.5315    4.4493    0.2513 H   0  0  0  0  0  0  0  0  0  0  0  0
   -0.2208    5.4152    0.2584 H   0  0  0  0  0  0  0  0  0  0  0  0
    5.7842    1.8102   -0.0134 H   0  0  0  0  0  0  0  0  0  0  0  0
   -4.4983   -3.3565    1.7573 H   0  0  0  0  0  0  0  0  0  0  0  0
   -2.4455   -0.6420    2.6513 H   0  0  0  0  0  0  0  0  0  0  0  0
   -2.7523   -2.3522    2.9134 H   0  0  0  0  0  0  0  0  0  0  0  0
   -1.4835   -1.8758    1.7833 H   0  0  0  0  0  0  0  0  0  0  0  0
    5.8055   -2.4837   -0.2165 H   0  0  0  0  0  0  0  0  0  0  0  0
   -6.0702   -1.6658   -1.8472 H   0  0  0  0  0  0  0  0  0  0  0  0
    7.0056   -0.3725   -0.1376 H   0  0  0  0  0  0  0  0  0  0  0  0
   -6.1462   -3.3807   -0.0750 H   0  0  0  0  0  0  0  0  0  0  0  0
   -5.0577    0.1090   -2.6270 H   0  0  0  0  0  0  0  0  0  0  0  0
    3.4337   -4.7817   -0.2855 H   0  0  0  0  0  0  0  0  0  0  0  0
  1 10  1  0  0  0  0
  1 11  1  0  0  0  0
  2 12  1  0  0  0  0
  2 16  1  0  0  0  0
  3 20  1  0  0  0  0
  3 42  1  0  0  0  0
  4 29  1  0  0  0  0
  4 43  1  0  0  0  0
  5 29  2  0  0  0  0
  6  8  1  0  0  0  0
  6 11  2  0  0  0  0
  7 12  2  0  0  0  0
  7 14  1  0  0  0  0
  8  9  2  0  0  0  0
  8 10  1  0  0  0  0
  9 12  1  0  0  0  0
  9 15  1  0  0  0  0
 10 18  2  0  0  0  0
 11 13  1  0  0  0  0
 13 17  2  0  0  0  0
 13 20  1  0  0  0  0
 14 16  1  0  0  0  0
 14 21  2  0  0  0  0
 15 19  2  0  0  0  0
 15 30  1  0  0  0  0
 16 22  2  0  0  0  0
 17 23  1  0  0  0  0
 17 24  1  0  0  0  0
 18 19  1  0  0  0  0
 18 31  1  0  0  0  0
 19 32  1  0  0  0  0
 20 26  2  0  0  0  0
 21 25  1  0  0  0  0
 21 29  1  0  0  0  0
 22 27  1  0  0  0  0
 22 33  1  0  0  0  0
 23 28  2  0  0  0  0
 23 34  1  0  0  0  0
 24 35  1  0  0  0  0
 24 36  1  0  0  0  0
 24 37  1  0  0  0  0
 25 27  2  0  0  0  0
 25 38  1  0  0  0  0
 26 28  1  0  0  0  0
 26 39  1  0  0  0  0
 27 40  1  0  0  0  0
 28 41  1  0  0  0  0
M  END
> <PUBCHEM_COMPOUND_CID>
135515492

> <PUBCHEM_CONFORMER_RMSD>
0.8

> <PUBCHEM_CONFORMER_DIVERSEORDER>
1
19
18
12
21
5
15
6
22
13
7
4
14
9
25
8
20
3
17
23
16
2
24
10
11

> <PUBCHEM_MMFF94_PARTIAL_CHARGES>
40
1 -0.28
10 0.14
11 0.43
12 0.43
13 0.05
14 0.23
15 -0.15
16 0.14
17 -0.14
18 -0.15
19 -0.15
2 -0.28
20 0.08
21 0.09
22 -0.15
23 -0.15
24 0.14
25 -0.15
26 -0.15
27 -0.15
28 -0.15
29 0.63
3 -0.53
30 0.15
31 0.15
32 0.15
33 0.15
34 0.15
38 0.15
39 0.15
4 -0.65
40 0.15
41 0.15
42 0.45
43 0.5
5 -0.57
6 -0.57
7 -0.57
8 0.23
9 0.05

> <PUBCHEM_EFFECTIVE_ROTOR_COUNT>
3

> <PUBCHEM_PHARMACOPHORE_FEATURES>
9
1 3 donor
1 4 acceptor
1 5 acceptor
3 4 5 29 anion
5 1 6 8 10 11 rings
5 2 7 12 14 16 rings
6 13 17 20 23 26 28 rings
6 14 16 21 22 25 27 rings
6 8 9 10 15 18 19 rings

> <PUBCHEM_HEAVY_ATOM_COUNT>
29

> <PUBCHEM_ATOM_DEF_STEREO_COUNT>
0

> <PUBCHEM_ATOM_UDEF_STEREO_COUNT>
0

> <PUBCHEM_BOND_DEF_STEREO_COUNT>
0

> <PUBCHEM_BOND_UDEF_STEREO_COUNT>
0

> <PUBCHEM_ISOTOPIC_ATOM_COUNT>
0

> <PUBCHEM_COMPONENT_COUNT>
1

> <PUBCHEM_CACTVS_TAUTO_COUNT>
-1

> <PUBCHEM_CONFORMER_ID>
0813CD6400000001

> <PUBCHEM_MMFF94_ENERGY>
71.4108

> <PUBCHEM_FEATURE_SELFOVERLAP>
45.966

> <PUBCHEM_SHAPE_FINGERPRINT>
10254770 206 16748455155425688650
10616163 171 18268151963937193452
10940486 97 17758132397535550244
11186622 123 18191025608421385690
11297010 23 16388448625752911716
11552529 35 18059018267759470152
12342043 65 17462016667655670491
12363563 72 18411145770158698437
12553582 1 18338536216687894849
12596602 18 16845576460673325274
12788726 201 18263072228638258193
13402501 40 18261674882213541195
13544653 18 18410578409057748757
1361 2 18124029298028331059
13631057 29 18341615893698420944
138480 1 15095646062248385689
13911987 19 17974306596625083852
14068700 686 18341608222934731888
1454969 45 18338800147641527900
14840074 17 17917712439393241511
14866123 147 18267869381117786369
15250474 111 18118116966698092994
15320467 1 18267304407438936846
15351339 4 18041265579225065707
15352361 1 18410293631166479499
15361156 5 18191890962573663398
16628084 112 17758671153869763821
17492 89 18339643313893047542
19315092 285 17273969319453989555
19958102 18 17900249815390500461
20775438 99 17832095586173417020
21033650 10 16805310073064059717
21133410 171 17540765652705142347
21703447 108 18341599439420513944
23559900 14 18264198283390815305
23569914 152 17980160212544174015
23572383 38 18334006224639815714
24893989 43 16980414167298124943
25025965 108 18057583414039953038
3004659 81 18040991882038033620
314194 84 18270399528480601757
329604 57 18335142016235824244
3421961 26 18196654210001485281
3882209 13 17613962271732170819
4073 2 18338518539304397456
4616759 239 17410191934521036930
46194498 28 17532648151661461981
463206 1 18265617765397188523
5104073 3 18271241621908332328
5309563 4 18340208591264802727
6004065 56 18195801001878842851
613672 6 18338499924367328507
6431902 208 18410855468850322566
6669772 16 17620201266181357972
7970288 3 18340767151799006199
9709674 26 18266465291635943514

> <PUBCHEM_SHAPE_MULTIPOLES>
557.5
12.55
4.98
1.03
2.36
2.43
0.11
-11.29
-1.99
0.27
0.44
-1.57
-0.43
0.75

> <PUBCHEM_SHAPE_SELFOVERLAP>
1278.947

> <PUBCHEM_SHAPE_VOLUME>
289.8

> <PUBCHEM_COORDINATE_TYPE>
2
5
10

$$$$
