135554417
  -OEChem-03292013293D

 36 37  0     0  0  0  0  0  0999 V2000
    0.7868    2.3141   -0.4871 S   0  0  0  0  0  0  0  0  0  0  0  0
    1.1829    1.9852   -1.8429 O   0  0  0  0  0  0  0  0  0  0  0  0
    0.6313    3.6980   -0.0825 O   0  0  0  0  0  0  0  0  0  0  0  0
    4.7353   -1.8077    2.1331 O   0  0  0  0  0  0  0  0  0  0  0  0
   -4.3746   -2.2555   -0.8483 O   0  0  0  0  0  0  0  0  0  0  0  0
    1.8194    1.5210    0.6159 N   0  0  0  0  0  0  0  0  0  0  0  0
    3.2929   -0.1679    1.3698 N   0  0  0  0  0  0  0  0  0  0  0  0
   -4.3806   -0.4214    0.6330 N   0  0  0  0  0  0  0  0  0  0  0  0
    2.4483   -0.2182   -0.8358 N   0  0  0  0  0  0  0  0  0  0  0  0
   -0.7478    1.5019   -0.1544 C   0  0  0  0  0  0  0  0  0  0  0  0
   -1.0953    0.3510   -0.8618 C   0  0  0  0  0  0  0  0  0  0  0  0
   -1.6112    2.0121    0.8151 C   0  0  0  0  0  0  0  0  0  0  0  0
   -3.1696    0.2204    0.3701 C   0  0  0  0  0  0  0  0  0  0  0  0
    2.5318    0.3332    0.3338 C   0  0  0  0  0  0  0  0  0  0  0  0
   -2.3061   -0.2898   -0.5996 C   0  0  0  0  0  0  0  0  0  0  0  0
   -2.8221    1.3714    1.0772 C   0  0  0  0  0  0  0  0  0  0  0  0
    3.1749   -1.3739   -1.0265 C   0  0  0  0  0  0  0  0  0  0  0  0
    4.0430   -1.3193    1.2465 C   0  0  0  0  0  0  0  0  0  0  0  0
    3.9479   -1.9497   -0.0901 C   0  0  0  0  0  0  0  0  0  0  0  0
    3.0501   -1.9774   -2.3953 C   0  0  0  0  0  0  0  0  0  0  0  0
   -4.8954   -1.5771    0.0311 C   0  0  0  0  0  0  0  0  0  0  0  0
   -6.2419   -1.9503    0.5986 C   0  0  0  0  0  0  0  0  0  0  0  0
    1.9671    1.9696    1.5287 H   0  0  0  0  0  0  0  0  0  0  0  0
   -0.4364   -0.0644   -1.6190 H   0  0  0  0  0  0  0  0  0  0  0  0
   -1.3576    2.9028    1.3828 H   0  0  0  0  0  0  0  0  0  0  0  0
   -2.5055   -1.1753   -1.1867 H   0  0  0  0  0  0  0  0  0  0  0  0
   -3.4846    1.7789    1.8367 H   0  0  0  0  0  0  0  0  0  0  0  0
    3.3024    0.3270    2.2564 H   0  0  0  0  0  0  0  0  0  0  0  0
   -4.9542    0.0122    1.3535 H   0  0  0  0  0  0  0  0  0  0  0  0
    4.5094   -2.8593   -0.2671 H   0  0  0  0  0  0  0  0  0  0  0  0
    2.0049   -2.2288   -2.6044 H   0  0  0  0  0  0  0  0  0  0  0  0
    3.6418   -2.8927   -2.5016 H   0  0  0  0  0  0  0  0  0  0  0  0
    3.3932   -1.2673   -3.1552 H   0  0  0  0  0  0  0  0  0  0  0  0
   -6.6271   -2.8367    0.0870 H   0  0  0  0  0  0  0  0  0  0  0  0
   -6.1451   -2.1693    1.6656 H   0  0  0  0  0  0  0  0  0  0  0  0
   -6.9462   -1.1256    0.4568 H   0  0  0  0  0  0  0  0  0  0  0  0
  1  2  2  0  0  0  0
  1  3  2  0  0  0  0
  1  6  1  0  0  0  0
  1 10  1  0  0  0  0
  4 18  2  0  0  0  0
  5 21  2  0  0  0  0
  6 14  1  0  0  0  0
  6 23  1  0  0  0  0
  7 14  1  0  0  0  0
  7 18  1  0  0  0  0
  7 28  1  0  0  0  0
  8 13  1  0  0  0  0
  8 21  1  0  0  0  0
  8 29  1  0  0  0  0
  9 14  2  0  0  0  0
  9 17  1  0  0  0  0
 10 11  2  0  0  0  0
 10 12  1  0  0  0  0
 11 15  1  0  0  0  0
 11 24  1  0  0  0  0
 12 16  2  0  0  0  0
 12 25  1  0  0  0  0
 13 15  2  0  0  0  0
 13 16  1  0  0  0  0
 15 26  1  0  0  0  0
 16 27  1  0  0  0  0
 17 19  2  0  0  0  0
 17 20  1  0  0  0  0
 18 19  1  0  0  0  0
 19 30  1  0  0  0  0
 20 31  1  0  0  0  0
 20 32  1  0  0  0  0
 20 33  1  0  0  0  0
 21 22  1  0  0  0  0
 22 34  1  0  0  0  0
 22 35  1  0  0  0  0
 22 36  1  0  0  0  0
M  END
> <PUBCHEM_COMPOUND_CID>
135554417

> <PUBCHEM_CONFORMER_RMSD>
0.8

> <PUBCHEM_CONFORMER_DIVERSEORDER>
1
19
14
16
24
4
21
25
5
26
11
9
18
22
7
23
10
15
13
12
20
6
17
3
8
2

> <PUBCHEM_MMFF94_PARTIAL_CHARGES>
30
1 1.45
10 -0.01
11 -0.15
12 -0.15
13 0.12
14 0.75
15 -0.15
16 -0.15
17 0.03
18 0.62
19 -0.14
2 -0.65
20 0.14
21 0.57
22 0.06
23 0.42
24 0.15
25 0.15
26 0.15
27 0.15
28 0.37
29 0.37
3 -0.65
30 0.15
4 -0.57
5 -0.57
6 -0.79
7 -0.49
8 -0.55
9 -0.62

> <PUBCHEM_EFFECTIVE_ROTOR_COUNT>
5

> <PUBCHEM_PHARMACOPHORE_FEATURES>
9
1 2 acceptor
1 3 acceptor
1 4 acceptor
1 5 acceptor
1 6 donor
1 7 donor
1 8 donor
6 10 11 12 13 15 16 rings
6 7 9 14 17 18 19 rings

> <PUBCHEM_HEAVY_ATOM_COUNT>
22

> <PUBCHEM_ATOM_DEF_STEREO_COUNT>
0

> <PUBCHEM_ATOM_UDEF_STEREO_COUNT>
0

> <PUBCHEM_BOND_DEF_STEREO_COUNT>
0

> <PUBCHEM_BOND_UDEF_STEREO_COUNT>
0

> <PUBCHEM_ISOTOPIC_ATOM_COUNT>
0

> <PUBCHEM_COMPONENT_COUNT>
1

> <PUBCHEM_CACTVS_TAUTO_COUNT>
-1

> <PUBCHEM_CONFORMER_ID>
0814657100000001

> <PUBCHEM_MMFF94_ENERGY>
40.0023

> <PUBCHEM_FEATURE_SELFOVERLAP>
45.728

> <PUBCHEM_SHAPE_FINGERPRINT>
10042902 136 18269851851626226606
11578080 2 17458618953208617628
11640471 11 12462418329468526332
11796584 16 18115584989330653331
12363563 72 18333731286660987992
12422481 6 17845113813300206115
12553582 1 18263095322439732544
12596599 1 18341339876944376097
12892183 10 17131832015062091480
13533116 47 18263367065716908995
13583140 156 16701726168857836721
13828863 39 15194418997244358610
13955234 65 18047475814087999817
13965767 371 12319160764820710626
14178342 30 18200601267834717937
1420 369 18412830205014297139
14251740 57 17989216966187096047
14251751 18 18040707061419118439
14251764 30 17844268249871847678
14429115 67 18341054107480339035
14528608 73 7853582279793260267
14848178 96 9367351435466543827
14863182 85 18267588094840055260
15342168 16 11167944662724787273
15342816 4 18261116240486194902
1813 80 18334018284960542077
18186145 218 12036028849545440140
193927 3 18335995241675466523
1979834 28 17704080611582440799
20388580 30 18113338634654427221
20403669 9 18410293618677768835
20645477 70 18189619517732585925
21065199 12 17489305226931561202
21421861 104 18199754807074367397
23559900 14 18130240314843936269
270888 7 11167931489770537978
2838139 119 8612489918563312219
312425 83 14273749480987544155
4072396 5 17632024134884102343
44062 13 18114456769919535005
5104073 3 18199762491551361699
57724786 102 12895066332476683530
633830 44 11167939160624189816
7970288 3 18261669290097875283
960060 61 16732707168323722079

> <PUBCHEM_SHAPE_MULTIPOLES>
413.2
11.04
3.23
1.62
9.33
1.5
0.16
-11.74
-3.41
0.12
0.5
-2.21
-0.64
-0.45

> <PUBCHEM_SHAPE_SELFOVERLAP>
860.247

> <PUBCHEM_SHAPE_VOLUME>
234.3

> <PUBCHEM_COORDINATE_TYPE>
2
5
10

$$$$
