135596617
  -OEChem-03292013293D

 60 62  0     1  0  0  0  0  0999 V2000
   -5.6514    1.4722   -2.2800 O   0  0  0  0  0  0  0  0  0  0  0  0
    5.0046    1.6304    1.7116 O   0  0  0  0  0  0  0  0  0  0  0  0
    8.1441    1.7389   -0.7136 O   0  0  0  0  0  0  0  0  0  0  0  0
    6.2986    1.8586   -2.0285 O   0  0  0  0  0  0  0  0  0  0  0  0
   -7.6104   -0.9992    0.2855 N   0  0  0  0  0  0  0  0  0  0  0  0
   -7.5945    0.4775   -1.5418 N   0  0  0  0  0  0  0  0  0  0  0  0
   -9.5974   -0.5063   -0.8563 N   0  0  0  0  0  0  0  0  0  0  0  0
    4.9849    0.2846   -0.1766 N   0  0  0  0  0  0  0  0  0  0  0  0
    6.2417   -4.8443   -0.2026 N   0  0  0  0  0  0  0  0  0  0  0  0
   -3.4933   -0.2506    1.0880 C   0  0  2  0  0  0  0  0  0  0  0  0
   -4.0712   -1.6278    1.4232 C   0  0  0  0  0  0  0  0  0  0  0  0
   -4.0493    0.2416   -0.2581 C   0  0  0  0  0  0  0  0  0  0  0  0
   -1.9668   -0.2834    1.0650 C   0  0  0  0  0  0  0  0  0  0  0  0
   -5.5984   -1.5723    1.5112 C   0  0  0  0  0  0  0  0  0  0  0  0
   -5.5283    0.0133   -0.4047 C   0  0  0  0  0  0  0  0  0  0  0  0
   -6.2535   -0.7929    0.3943 C   0  0  0  0  0  0  0  0  0  0  0  0
   -1.3880    1.1118    0.8425 C   0  0  0  0  0  0  0  0  0  0  0  0
   -6.2383    0.7308   -1.4979 C   0  0  0  0  0  0  0  0  0  0  0  0
    0.1191    1.0898    0.8399 C   0  0  0  0  0  0  0  0  0  0  0  0
   -8.2480   -0.3719   -0.6622 C   0  0  0  0  0  0  0  0  0  0  0  0
    0.8120    0.8913   -0.3543 C   0  0  0  0  0  0  0  0  0  0  0  0
    0.8208    1.2680    2.0322 C   0  0  0  0  0  0  0  0  0  0  0  0
    2.2067    0.8711   -0.3562 C   0  0  0  0  0  0  0  0  0  0  0  0
    2.2154    1.2477    2.0303 C   0  0  0  0  0  0  0  0  0  0  0  0
    2.9084    1.0491    0.8361 C   0  0  0  0  0  0  0  0  0  0  0  0
    6.4184    0.1467   -0.2992 C   0  0  1  0  0  0  0  0  0  0  0  0
    6.8186   -1.1605   -0.9835 C   0  0  0  0  0  0  0  0  0  0  0  0
    6.3209   -2.3944   -0.2232 C   0  0  0  0  0  0  0  0  0  0  0  0
    4.3626    1.0270    0.8338 C   0  0  0  0  0  0  0  0  0  0  0  0
    6.7055   -3.6821   -0.9510 C   0  0  0  0  0  0  0  0  0  0  0  0
    6.9066    1.3353   -1.1039 C   0  0  0  0  0  0  0  0  0  0  0  0
   -3.8130    0.4487    1.8740 H   0  0  0  0  0  0  0  0  0  0  0  0
   -3.6686   -1.9937    2.3753 H   0  0  0  0  0  0  0  0  0  0  0  0
   -3.7753   -2.3535    0.6541 H   0  0  0  0  0  0  0  0  0  0  0  0
   -3.5379   -0.2590   -1.0900 H   0  0  0  0  0  0  0  0  0  0  0  0
   -3.8578    1.3167   -0.3529 H   0  0  0  0  0  0  0  0  0  0  0  0
   -1.6140   -0.9688    0.2833 H   0  0  0  0  0  0  0  0  0  0  0  0
   -1.5972   -0.6852    2.0175 H   0  0  0  0  0  0  0  0  0  0  0  0
   -5.8884   -1.1144    2.4656 H   0  0  0  0  0  0  0  0  0  0  0  0
   -5.9815   -2.6003    1.5219 H   0  0  0  0  0  0  0  0  0  0  0  0
   -1.7426    1.8008    1.6198 H   0  0  0  0  0  0  0  0  0  0  0  0
   -1.7189    1.5372   -0.1114 H   0  0  0  0  0  0  0  0  0  0  0  0
   -8.1429    0.9370   -2.2627 H   0  0  0  0  0  0  0  0  0  0  0  0
    0.2761    0.7565   -1.2902 H   0  0  0  0  0  0  0  0  0  0  0  0
    0.2918    1.4207    2.9692 H   0  0  0  0  0  0  0  0  0  0  0  0
    2.7039    0.7469   -1.3135 H   0  0  0  0  0  0  0  0  0  0  0  0
    2.7433    1.3835    2.9707 H   0  0  0  0  0  0  0  0  0  0  0  0
    6.8524    0.2031    0.7061 H   0  0  0  0  0  0  0  0  0  0  0  0
    7.9110   -1.2034   -1.0792 H   0  0  0  0  0  0  0  0  0  0  0  0
    6.4177   -1.1811   -2.0057 H   0  0  0  0  0  0  0  0  0  0  0  0
  -10.1563   -1.1072   -0.2605 H   0  0  0  0  0  0  0  0  0  0  0  0
  -10.0769   -0.0103   -1.5996 H   0  0  0  0  0  0  0  0  0  0  0  0
    6.7485   -2.3943    0.7874 H   0  0  0  0  0  0  0  0  0  0  0  0
    5.2304   -2.3562   -0.1122 H   0  0  0  0  0  0  0  0  0  0  0  0
    4.4235   -0.2030   -0.8663 H   0  0  0  0  0  0  0  0  0  0  0  0
    6.2653   -3.6967   -1.9541 H   0  0  0  0  0  0  0  0  0  0  0  0
    7.7934   -3.7410   -1.0628 H   0  0  0  0  0  0  0  0  0  0  0  0
    6.4600   -5.6917   -0.7251 H   0  0  0  0  0  0  0  0  0  0  0  0
    5.2265   -4.8151   -0.1172 H   0  0  0  0  0  0  0  0  0  0  0  0
    8.4682    2.4936   -1.2499 H   0  0  0  0  0  0  0  0  0  0  0  0
  1 18  2  0  0  0  0
  2 29  2  0  0  0  0
  3 31  1  0  0  0  0
  3 60  1  0  0  0  0
  4 31  2  0  0  0  0
  5 16  1  0  0  0  0
  5 20  2  0  0  0  0
  6 18  1  0  0  0  0
  6 20  1  0  0  0  0
  6 43  1  0  0  0  0
  7 20  1  0  0  0  0
  7 51  1  0  0  0  0
  7 52  1  0  0  0  0
  8 26  1  0  0  0  0
  8 29  1  0  0  0  0
  8 55  1  0  0  0  0
  9 30  1  0  0  0  0
  9 58  1  0  0  0  0
  9 59  1  0  0  0  0
 10 11  1  0  0  0  0
 10 12  1  0  0  0  0
 10 13  1  0  0  0  0
 10 32  1  0  0  0  0
 11 14  1  0  0  0  0
 11 33  1  0  0  0  0
 11 34  1  0  0  0  0
 12 15  1  0  0  0  0
 12 35  1  0  0  0  0
 12 36  1  0  0  0  0
 13 17  1  0  0  0  0
 13 37  1  0  0  0  0
 13 38  1  0  0  0  0
 14 16  1  0  0  0  0
 14 39  1  0  0  0  0
 14 40  1  0  0  0  0
 15 16  2  0  0  0  0
 15 18  1  0  0  0  0
 17 19  1  0  0  0  0
 17 41  1  0  0  0  0
 17 42  1  0  0  0  0
 19 21  2  0  0  0  0
 19 22  1  0  0  0  0
 21 23  1  0  0  0  0
 21 44  1  0  0  0  0
 22 24  2  0  0  0  0
 22 45  1  0  0  0  0
 23 25  2  0  0  0  0
 23 46  1  0  0  0  0
 24 25  1  0  0  0  0
 24 47  1  0  0  0  0
 25 29  1  0  0  0  0
 26 27  1  0  0  0  0
 26 31  1  0  0  0  0
 26 48  1  0  0  0  0
 27 28  1  0  0  0  0
 27 49  1  0  0  0  0
 27 50  1  0  0  0  0
 28 30  1  0  0  0  0
 28 53  1  0  0  0  0
 28 54  1  0  0  0  0
 30 56  1  0  0  0  0
 30 57  1  0  0  0  0
M  END
> <PUBCHEM_COMPOUND_CID>
135596617

> <PUBCHEM_CONFORMER_RMSD>
1

> <PUBCHEM_CONFORMER_DIVERSEORDER>
1
32
84
18
57
85
73
19
103
6
36
87
71
33
3
28
78
99
46
96
14
88
82
39
44
77
31
98
30
91
2
26
17
90
106
66
55
51
79
72
42
13
100
107
64
48
34
35
61
60
29
81
8
95
43
10
89
15
104
75
50
23
70
45
4
83
94
24
68
40
41
59
7
74
20
63
16
93
67
21
47
105
92
25
97
69
37
101
49
22
56
54
38
62
52
9
27
5
11
53
12
86
65
102
76
58
80

> <PUBCHEM_MMFF94_PARTIAL_CHARGES>
37
1 -0.57
12 0.14
14 0.14
15 -0.12
16 0.03
17 0.14
18 0.62
19 -0.14
2 -0.57
20 0.56
21 -0.15
22 -0.15
23 -0.15
24 -0.15
25 0.09
26 0.36
29 0.54
3 -0.65
30 0.27
31 0.66
4 -0.57
43 0.37
44 0.15
45 0.15
46 0.15
47 0.15
5 -0.62
51 0.4
52 0.4
55 0.37
58 0.36
59 0.36
6 -0.49
60 0.5
7 -0.85
8 -0.73
9 -0.99

> <PUBCHEM_EFFECTIVE_ROTOR_COUNT>
10.8

> <PUBCHEM_PHARMACOPHORE_FEATURES>
13
1 1 acceptor
1 2 acceptor
1 3 acceptor
1 4 acceptor
1 6 donor
1 7 donor
1 8 donor
1 9 cation
1 9 donor
3 3 4 31 anion
6 10 11 12 14 15 16 rings
6 19 21 22 23 24 25 rings
6 5 6 15 16 18 20 rings

> <PUBCHEM_HEAVY_ATOM_COUNT>
31

> <PUBCHEM_ATOM_DEF_STEREO_COUNT>
2

> <PUBCHEM_ATOM_UDEF_STEREO_COUNT>
0

> <PUBCHEM_BOND_DEF_STEREO_COUNT>
0

> <PUBCHEM_BOND_UDEF_STEREO_COUNT>
0

> <PUBCHEM_ISOTOPIC_ATOM_COUNT>
0

> <PUBCHEM_COMPONENT_COUNT>
1

> <PUBCHEM_CACTVS_TAUTO_COUNT>
-1

> <PUBCHEM_CONFORMER_ID>
08150A4900000001

> <PUBCHEM_MMFF94_ENERGY>
58.6587

> <PUBCHEM_FEATURE_SELFOVERLAP>
66.098

> <PUBCHEM_SHAPE_FINGERPRINT>
10 15 9871749096026038664
10299344 5 15339125670799187249
10906281 52 13912610420241923144
117089 54 17914066292060591318
12082328 90 18410856543198931765
12133447 93 16660637398338113687
13553644 42 18263925423955665063
13627175 4 17131559349691026902
13692114 37 14261345877598468068
13782708 43 17704353247437159360
15152005 1 17767691556103198974
15183329 4 17418376908650038886
15320294 125 14979952610608125501
15475509 35 17988640762803200482
15840311 113 7997966886698638354
1754908 1 11815895678409586551
19302320 297 8502367820551109586
19304671 126 12180716884182700250
2026 5 18128818551752129630
21057603 40 18409730647423916174
21150785 3 17894630387211587401
21792934 111 12247681565517696027
22224240 67 8574716806349913801
23559900 14 18338236071742017809
23576562 1 17169277142551546239
328310 630 12901553441952543707
34797466 226 17821731658900457420
3711267 37 15285358405966367647
4073 2 15068619401261274769
4258327 124 12324253762762235875
474113 269 17775002323813559783
4874694 18 18335138726739463346
5265222 85 17677618733808006979
59682541 35 10952044576969869069
59682541 52 18408888438923066560
6201320 221 17915169131385584838
9831232 110 18339082691685085978
9962374 69 16415479368440607144

> <PUBCHEM_SHAPE_MULTIPOLES>
589.58
29.92
2.88
1.83
15.72
4.52
-0.04
10.98
-14.44
-9.46
-0.13
0.93
-0.76
1.95

> <PUBCHEM_SHAPE_SELFOVERLAP>
1240.139

> <PUBCHEM_SHAPE_VOLUME>
328.1

> <PUBCHEM_COORDINATE_TYPE>
2
5
10

$$$$
