135554422
  -OEChem-03292013293D

 36 37  0     1  0  0  0  0  0999 V2000
    2.5993   -2.0611    0.0807 O   0  0  0  0  0  0  0  0  0  0  0  0
    4.6862    2.3284    1.6412 O   0  0  0  0  0  0  0  0  0  0  0  0
   -4.7112    2.4488    1.6153 O   0  0  0  0  0  0  0  0  0  0  0  0
    5.0535    1.8563   -0.5491 O   0  0  0  0  0  0  0  0  0  0  0  0
   -5.1675    1.8690   -0.5321 O   0  0  0  0  0  0  0  0  0  0  0  0
    1.0717    0.3315   -0.8183 N   0  0  3  0  0  0  0  0  0  0  0  0
   -1.2039    0.3089   -0.8812 N   0  0  3  0  0  0  0  0  0  0  0  0
   -1.4973   -2.0378   -0.0346 N   0  0  0  0  0  0  0  0  0  0  0  0
    0.5627   -3.1162    0.4101 N   0  0  0  0  0  0  0  0  0  0  0  0
   -1.4576   -4.2392    0.7718 N   0  0  0  0  0  0  0  0  0  0  0  0
   -0.0645    1.2054   -1.1305 C   0  0  0  0  0  0  0  0  0  0  0  0
    0.5882   -0.8965   -0.4004 C   0  0  0  0  0  0  0  0  0  0  0  0
   -0.7622   -0.9428   -0.4187 C   0  0  0  0  0  0  0  0  0  0  0  0
    2.4287    0.7987   -0.9018 C   0  0  0  0  0  0  0  0  0  0  0  0
   -2.5606    0.7861   -0.9367 C   0  0  0  0  0  0  0  0  0  0  0  0
    1.3756   -2.0532    0.0436 C   0  0  0  0  0  0  0  0  0  0  0  0
    2.9055    1.2962    0.4579 C   0  0  0  0  0  0  0  0  0  0  0  0
   -2.9500    1.4392    0.3845 C   0  0  0  0  0  0  0  0  0  0  0  0
   -0.8320   -3.0895    0.3663 C   0  0  0  0  0  0  0  0  0  0  0  0
    4.3179    1.8396    0.4278 C   0  0  0  0  0  0  0  0  0  0  0  0
   -4.3823    1.9282    0.4039 C   0  0  0  0  0  0  0  0  0  0  0  0
   -0.0858    2.0736   -0.4639 H   0  0  0  0  0  0  0  0  0  0  0  0
   -0.0417    1.5246   -2.1775 H   0  0  0  0  0  0  0  0  0  0  0  0
    3.0913    0.0127   -1.2820 H   0  0  0  0  0  0  0  0  0  0  0  0
    2.4946    1.6146   -1.6330 H   0  0  0  0  0  0  0  0  0  0  0  0
   -3.2450   -0.0398   -1.1669 H   0  0  0  0  0  0  0  0  0  0  0  0
   -2.6689    1.5071   -1.7563 H   0  0  0  0  0  0  0  0  0  0  0  0
    2.8749    0.4835    1.1921 H   0  0  0  0  0  0  0  0  0  0  0  0
    2.2457    2.0989    0.8085 H   0  0  0  0  0  0  0  0  0  0  0  0
   -2.3007    2.2989    0.5857 H   0  0  0  0  0  0  0  0  0  0  0  0
   -2.8311    0.7192    1.2029 H   0  0  0  0  0  0  0  0  0  0  0  0
    1.0130   -3.9676    0.7329 H   0  0  0  0  0  0  0  0  0  0  0  0
   -2.4691   -4.3135    0.7748 H   0  0  0  0  0  0  0  0  0  0  0  0
   -0.9297   -5.0481    1.0808 H   0  0  0  0  0  0  0  0  0  0  0  0
    5.5997    2.6857    1.6291 H   0  0  0  0  0  0  0  0  0  0  0  0
   -5.6396    2.7650    1.6371 H   0  0  0  0  0  0  0  0  0  0  0  0
  1 16  2  0  0  0  0
  2 20  1  0  0  0  0
  2 35  1  0  0  0  0
  3 21  1  0  0  0  0
  3 36  1  0  0  0  0
  4 20  2  0  0  0  0
  5 21  2  0  0  0  0
  6 11  1  0  0  0  0
  6 12  1  0  0  0  0
  6 14  1  0  0  0  0
  7 11  1  0  0  0  0
  7 13  1  0  0  0  0
  7 15  1  0  0  0  0
  8 13  1  0  0  0  0
  8 19  2  0  0  0  0
  9 16  1  0  0  0  0
  9 19  1  0  0  0  0
  9 32  1  0  0  0  0
 10 19  1  0  0  0  0
 10 33  1  0  0  0  0
 10 34  1  0  0  0  0
 11 22  1  0  0  0  0
 11 23  1  0  0  0  0
 12 13  2  0  0  0  0
 12 16  1  0  0  0  0
 14 17  1  0  0  0  0
 14 24  1  0  0  0  0
 14 25  1  0  0  0  0
 15 18  1  0  0  0  0
 15 26  1  0  0  0  0
 15 27  1  0  0  0  0
 17 20  1  0  0  0  0
 17 28  1  0  0  0  0
 17 29  1  0  0  0  0
 18 21  1  0  0  0  0
 18 30  1  0  0  0  0
 18 31  1  0  0  0  0
M  END
> <PUBCHEM_COMPOUND_CID>
135554422

> <PUBCHEM_CONFORMER_RMSD>
0.8

> <PUBCHEM_CONFORMER_DIVERSEORDER>
1
57
13
15
43
39
51
6
44
45
49
55
56
29
53
31
46
48
20
25
9
47
36
41
12
5
3
54
30
17
50
35
4
11
33
37
40
22
34
28
27
42
14
26
18
38
23
52
21
2
19
16
32
8
7
24
10

> <PUBCHEM_MMFF94_PARTIAL_CHARGES>
26
1 -0.57
10 -0.85
11 0.74
12 0.11
13 0.27
14 0.37
15 0.37
16 0.62
17 0.06
18 0.06
19 0.56
2 -0.65
20 0.66
21 0.66
3 -0.65
32 0.37
33 0.4
34 0.4
35 0.5
36 0.5
4 -0.57
5 -0.57
6 -0.84
7 -0.84
8 -0.62
9 -0.49

> <PUBCHEM_EFFECTIVE_ROTOR_COUNT>
6.6

> <PUBCHEM_PHARMACOPHORE_FEATURES>
13
1 1 acceptor
1 10 donor
1 2 acceptor
1 3 acceptor
1 4 acceptor
1 5 acceptor
1 6 cation
1 7 cation
1 9 donor
3 2 4 20 anion
3 3 5 21 anion
5 6 7 11 12 13 rings
6 8 9 12 13 16 19 rings

> <PUBCHEM_HEAVY_ATOM_COUNT>
21

> <PUBCHEM_ATOM_DEF_STEREO_COUNT>
0

> <PUBCHEM_ATOM_UDEF_STEREO_COUNT>
0

> <PUBCHEM_BOND_DEF_STEREO_COUNT>
0

> <PUBCHEM_BOND_UDEF_STEREO_COUNT>
0

> <PUBCHEM_ISOTOPIC_ATOM_COUNT>
0

> <PUBCHEM_COMPONENT_COUNT>
1

> <PUBCHEM_CACTVS_TAUTO_COUNT>
-1

> <PUBCHEM_CONFORMER_ID>
0814657600000001

> <PUBCHEM_MMFF94_ENERGY>
56.5821

> <PUBCHEM_FEATURE_SELFOVERLAP>
66.286

> <PUBCHEM_SHAPE_FINGERPRINT>
10042902 136 12829502432179115736
10493431 412 18409168835098309373
1100329 8 18338232644532292418
11646440 116 17905330976867088851
12390115 104 18339655541306145772
12633257 1 18263905693107028906
12788726 201 17614016500162160734
13140716 1 18334856065550211427
13955234 65 18048603616944286411
14178342 30 18262236754356530742
14787075 74 18130784624903166553
14955137 171 17905048053890209426
204376 136 18408040706319750509
20510252 161 17978791543192993904
20739085 24 18044107756099501149
212916 134 18340475746878902312
21401589 2 18130507538855687785
22182937 141 18269273628595247944
23558518 356 18338519741452336903
23559900 14 18411987992646431444
23845131 108 18408323268397674523
2748010 2 18260274027063937231
283562 15 17976813508642322762
3091708 16 9481763282421051655
4340502 62 18411421700564874877
474 4 18341324483903029601
495365 180 18190464861696165337
58807428 26 18260256443810179394
59755656 520 18411418414450663836
633830 44 18129664080572577229
84936 182 18199749141854586505

> <PUBCHEM_SHAPE_MULTIPOLES>
377.92
8.75
4.35
1.12
0.19
4.7
0.17
-11.98
2.61
1.09
1.63
0.04
-0.62
0.16

> <PUBCHEM_SHAPE_SELFOVERLAP>
789.777

> <PUBCHEM_SHAPE_VOLUME>
212.2

> <PUBCHEM_COORDINATE_TYPE>
2
5
10

$$$$
