135538689
  -OEChem-03292013293D

 33 35  0     1  0  0  0  0  0999 V2000
    2.2388    0.3901    1.0034 O   0  0  0  0  0  0  0  0  0  0  0  0
    1.1694   -2.1510   -1.3157 O   0  0  0  0  0  0  0  0  0  0  0  0
    3.3790   -2.3310    0.3147 O   0  0  0  0  0  0  0  0  0  0  0  0
    4.2009    2.3327    0.5260 O   0  0  0  0  0  0  0  0  0  0  0  0
   -4.2835    1.9362   -0.4393 O   0  0  0  0  0  0  0  0  0  0  0  0
   -0.0415    0.4463    0.1349 N   0  0  0  0  0  0  0  0  0  0  0  0
    0.0911    1.7604   -0.1398 N   0  0  0  0  0  0  0  0  0  0  0  0
   -1.7421   -1.2411    0.3958 N   0  0  0  0  0  0  0  0  0  0  0  0
   -3.9225   -0.3123    0.0657 N   0  0  0  0  0  0  0  0  0  0  0  0
   -3.6548   -2.5943    0.5725 N   0  0  0  0  0  0  0  0  0  0  0  0
    1.7975   -0.9579   -0.8911 C   0  0  1  0  0  0  0  0  0  0  0  0
    1.1919   -0.3880    0.3874 C   0  0  1  0  0  0  0  0  0  0  0  0
    3.2450   -1.1605   -0.4902 C   0  0  1  0  0  0  0  0  0  0  0  0
    3.5054    0.0513    0.3955 C   0  0  1  0  0  0  0  0  0  0  0  0
    4.0006    1.2633   -0.3814 C   0  0  0  0  0  0  0  0  0  0  0  0
   -1.3364    0.0252    0.1477 C   0  0  0  0  0  0  0  0  0  0  0  0
   -2.0944    1.1349   -0.1362 C   0  0  0  0  0  0  0  0  0  0  0  0
   -1.1714    2.1755   -0.3046 C   0  0  0  0  0  0  0  0  0  0  0  0
   -3.5250    1.0061   -0.1940 C   0  0  0  0  0  0  0  0  0  0  0  0
   -3.0479   -1.3858    0.3488 C   0  0  0  0  0  0  0  0  0  0  0  0
    1.7309   -0.2260   -1.7054 H   0  0  0  0  0  0  0  0  0  0  0  0
    0.8794   -1.1676    1.0924 H   0  0  0  0  0  0  0  0  0  0  0  0
    3.9224   -1.2599   -1.3432 H   0  0  0  0  0  0  0  0  0  0  0  0
    4.1970   -0.1706    1.2163 H   0  0  0  0  0  0  0  0  0  0  0  0
    3.2662    1.5927   -1.1232 H   0  0  0  0  0  0  0  0  0  0  0  0
    4.9485    1.0452   -0.8829 H   0  0  0  0  0  0  0  0  0  0  0  0
    1.6827   -2.5000   -2.0642 H   0  0  0  0  0  0  0  0  0  0  0  0
    4.3133   -2.3989    0.5759 H   0  0  0  0  0  0  0  0  0  0  0  0
   -1.3524    3.2146   -0.5388 H   0  0  0  0  0  0  0  0  0  0  0  0
    4.5201    3.0918    0.0088 H   0  0  0  0  0  0  0  0  0  0  0  0
   -4.9186   -0.5115    0.0489 H   0  0  0  0  0  0  0  0  0  0  0  0
   -3.1108   -3.4239    0.7833 H   0  0  0  0  0  0  0  0  0  0  0  0
   -4.6632   -2.6950    0.5338 H   0  0  0  0  0  0  0  0  0  0  0  0
  1 12  1  0  0  0  0
  1 14  1  0  0  0  0
  2 11  1  0  0  0  0
  2 27  1  0  0  0  0
  3 13  1  0  0  0  0
  3 28  1  0  0  0  0
  4 15  1  0  0  0  0
  4 30  1  0  0  0  0
  5 19  2  0  0  0  0
  6  7  1  0  0  0  0
  6 12  1  0  0  0  0
  6 16  1  0  0  0  0
  7 18  2  0  0  0  0
  8 16  1  0  0  0  0
  8 20  2  0  0  0  0
  9 19  1  0  0  0  0
  9 20  1  0  0  0  0
  9 31  1  0  0  0  0
 10 20  1  0  0  0  0
 10 32  1  0  0  0  0
 10 33  1  0  0  0  0
 11 12  1  0  0  0  0
 11 13  1  0  0  0  0
 11 21  1  0  0  0  0
 12 22  1  0  0  0  0
 13 14  1  0  0  0  0
 13 23  1  0  0  0  0
 14 15  1  0  0  0  0
 14 24  1  0  0  0  0
 15 25  1  0  0  0  0
 15 26  1  0  0  0  0
 16 17  2  0  0  0  0
 17 18  1  0  0  0  0
 17 19  1  0  0  0  0
 18 29  1  0  0  0  0
M  END
> <PUBCHEM_COMPOUND_CID>
135538689

> <PUBCHEM_CONFORMER_RMSD>
0.6

> <PUBCHEM_CONFORMER_DIVERSEORDER>
1
10
14
9
15
7
4
6
12
2
3
13
11
8
5

> <PUBCHEM_MMFF94_PARTIAL_CHARGES>
27
1 -0.56
10 -0.85
11 0.28
12 0.54
13 0.28
14 0.28
15 0.28
16 -0.03
17 -0.09
18 0.14
19 0.72
2 -0.68
20 0.56
27 0.4
28 0.4
29 0.15
3 -0.68
30 0.4
31 0.37
32 0.4
33 0.4
4 -0.68
5 -0.57
6 0.31
7 -0.71
8 -0.58
9 -0.49

> <PUBCHEM_EFFECTIVE_ROTOR_COUNT>
3

> <PUBCHEM_PHARMACOPHORE_FEATURES>
14
1 1 acceptor
1 10 donor
1 2 acceptor
1 2 donor
1 3 acceptor
1 3 donor
1 4 acceptor
1 4 donor
1 5 acceptor
1 7 acceptor
1 9 donor
5 1 11 12 13 14 rings
5 6 7 16 17 18 rings
6 8 9 16 17 19 20 rings

> <PUBCHEM_HEAVY_ATOM_COUNT>
20

> <PUBCHEM_ATOM_DEF_STEREO_COUNT>
4

> <PUBCHEM_ATOM_UDEF_STEREO_COUNT>
0

> <PUBCHEM_BOND_DEF_STEREO_COUNT>
0

> <PUBCHEM_BOND_UDEF_STEREO_COUNT>
0

> <PUBCHEM_ISOTOPIC_ATOM_COUNT>
0

> <PUBCHEM_COMPONENT_COUNT>
1

> <PUBCHEM_CACTVS_TAUTO_COUNT>
-1

> <PUBCHEM_CONFORMER_ID>
0814280100000001

> <PUBCHEM_MMFF94_ENERGY>
48.1494

> <PUBCHEM_FEATURE_SELFOVERLAP>
71.227

> <PUBCHEM_SHAPE_FINGERPRINT>
10366900 7 17774997968975184529
10498660 4 18408887330146388004
10608611 8 18411417267815779500
10616163 171 18411703196504732198
11132069 177 18407757032113925889
11405975 8 18337673014334850946
12633257 1 18197784293074189794
13140716 1 18339367370221933827
13214271 11 18411976992216950821
13224815 77 18342462538535521894
13296908 3 18409450280068056763
13544592 145 18125167039180744071
15196674 1 18410012134714932359
15219456 202 18342176652448043616
15375358 24 18411979135563802549
15375462 6 18410013243354603974
17492 89 18334858307571054714
18175812 5 18412825759364150942
18186145 218 17603582993597048294
19141452 34 18343309197640445315
19591789 44 16606335099901070733
200 152 17202752701355416717
20645477 56 18261676970063272269
20645477 70 17988359265291181174
20681677 274 18335978680144520450
21065198 57 18337953394100207946
21501502 16 18269841925967270224
21618674 54 18408321103259234410
221490 88 18411707565072138470
23402539 116 18260542329786874542
23557571 272 18337402611736278350
23559900 14 18339075974361444538
2748010 2 18412834572858887151
296302 2 18343302565466797453
34934 24 18408316688133171817
474 4 17168437068286563876
495365 180 17631147745778972057
5104073 3 18410012121851175889
67856867 119 18187363242900666256
7097593 13 17826498973540729826
81228 2 18189915122914577025
8809292 202 18337675200415415803
9709674 26 18270121188814576383

> <PUBCHEM_SHAPE_MULTIPOLES>
357.34
8.36
2.62
0.83
0.15
0.28
0.08
-0.67
-0.37
-0.25
0.09
0.33
0.18
0.98

> <PUBCHEM_SHAPE_SELFOVERLAP>
775.286

> <PUBCHEM_SHAPE_VOLUME>
195.2

> <PUBCHEM_COORDINATE_TYPE>
2
5
10

$$$$
