135598554
  -OEChem-03292013293D

 43 46  0     0  0  0  0  0  0999 V2000
    5.5222    0.9232    0.0075 S   0  0  0  0  0  0  0  0  0  0  0  0
   -6.2608   -1.7113    0.0157 O   0  0  0  0  0  0  0  0  0  0  0  0
   -7.1113    0.9353    0.0021 O   0  0  0  0  0  0  0  0  0  0  0  0
    3.7565    2.9147    0.0036 N   0  0  0  0  0  0  0  0  0  0  0  0
    1.3878    2.4047   -0.0050 N   0  0  0  0  0  0  0  0  0  0  0  0
    0.5447    0.1932   -0.0023 N   0  0  0  0  0  0  0  0  0  0  0  0
   -0.7154    0.6643   -0.0032 N   0  0  0  0  0  0  0  0  0  0  0  0
    2.7804   -2.0073    0.0012 C   0  0  0  0  0  0  0  0  0  0  0  0
    3.6810   -3.1934   -0.3761 C   0  0  0  0  0  0  0  0  0  0  0  0
    5.0318   -3.1313    0.3501 C   0  0  0  0  0  0  0  0  0  0  0  0
    3.5303   -0.7077   -0.0098 C   0  0  0  0  0  0  0  0  0  0  0  0
    5.8132   -1.8597   -0.0136 C   0  0  0  0  0  0  0  0  0  0  0  0
    4.9125   -0.6644    0.0057 C   0  0  0  0  0  0  0  0  0  0  0  0
    2.9582    0.6087   -0.0072 C   0  0  0  0  0  0  0  0  0  0  0  0
    3.9509    1.5814    0.0004 C   0  0  0  0  0  0  0  0  0  0  0  0
    1.6393    1.0783   -0.0084 C   0  0  0  0  0  0  0  0  0  0  0  0
    2.4502    3.2324    0.0004 C   0  0  0  0  0  0  0  0  0  0  0  0
   -1.6154   -0.2645    0.0029 C   0  0  0  0  0  0  0  0  0  0  0  0
   -3.0556    0.0462    0.0028 C   0  0  0  0  0  0  0  0  0  0  0  0
   -3.9923   -0.9874    0.0091 C   0  0  0  0  0  0  0  0  0  0  0  0
   -3.4824    1.3742   -0.0042 C   0  0  0  0  0  0  0  0  0  0  0  0
   -5.3558   -0.6931    0.0088 C   0  0  0  0  0  0  0  0  0  0  0  0
   -5.7826    0.6348    0.0017 C   0  0  0  0  0  0  0  0  0  0  0  0
   -4.8459    1.6684   -0.0048 C   0  0  0  0  0  0  0  0  0  0  0  0
   -5.7413   -3.0397    0.0226 C   0  0  0  0  0  0  0  0  0  0  0  0
    2.3531   -2.1698    0.9976 H   0  0  0  0  0  0  0  0  0  0  0  0
    1.9687   -1.9934   -0.7324 H   0  0  0  0  0  0  0  0  0  0  0  0
    3.1688   -4.1321   -0.1366 H   0  0  0  0  0  0  0  0  0  0  0  0
    3.8578   -3.1925   -1.4596 H   0  0  0  0  0  0  0  0  0  0  0  0
    5.6327   -4.0131    0.1009 H   0  0  0  0  0  0  0  0  0  0  0  0
    4.8573   -3.1583    1.4335 H   0  0  0  0  0  0  0  0  0  0  0  0
    6.2347   -1.9695   -1.0205 H   0  0  0  0  0  0  0  0  0  0  0  0
    6.6494   -1.7352    0.6838 H   0  0  0  0  0  0  0  0  0  0  0  0
    0.7049   -0.7969    0.0952 H   0  0  0  0  0  0  0  0  0  0  0  0
    2.2215    4.2924    0.0026 H   0  0  0  0  0  0  0  0  0  0  0  0
   -1.3446   -1.3372    0.0072 H   0  0  0  0  0  0  0  0  0  0  0  0
   -3.6033   -2.0002    0.0144 H   0  0  0  0  0  0  0  0  0  0  0  0
   -2.7755    2.1994   -0.0093 H   0  0  0  0  0  0  0  0  0  0  0  0
   -5.1649    2.7073   -0.0103 H   0  0  0  0  0  0  0  0  0  0  0  0
   -7.2175    1.9021   -0.0031 H   0  0  0  0  0  0  0  0  0  0  0  0
   -6.5991   -3.7205    0.0274 H   0  0  0  0  0  0  0  0  0  0  0  0
   -5.1689   -3.2451    0.9336 H   0  0  0  0  0  0  0  0  0  0  0  0
   -5.1710   -3.2553   -0.8874 H   0  0  0  0  0  0  0  0  0  0  0  0
  1 13  1  0  0  0  0
  1 15  1  0  0  0  0
  2 22  1  0  0  0  0
  2 25  1  0  0  0  0
  3 23  1  0  0  0  0
  3 40  1  0  0  0  0
  4 15  2  0  0  0  0
  4 17  1  0  0  0  0
  5 16  1  0  0  0  0
  5 17  2  0  0  0  0
  6  7  1  0  0  0  0
  6 16  1  0  0  0  0
  6 34  1  0  0  0  0
  7 18  2  0  0  0  0
  8  9  1  0  0  0  0
  8 11  1  0  0  0  0
  8 26  1  0  0  0  0
  8 27  1  0  0  0  0
  9 10  1  0  0  0  0
  9 28  1  0  0  0  0
  9 29  1  0  0  0  0
 10 12  1  0  0  0  0
 10 30  1  0  0  0  0
 10 31  1  0  0  0  0
 11 13  2  0  0  0  0
 11 14  1  0  0  0  0
 12 13  1  0  0  0  0
 12 32  1  0  0  0  0
 12 33  1  0  0  0  0
 14 15  1  0  0  0  0
 14 16  2  0  0  0  0
 17 35  1  0  0  0  0
 18 19  1  0  0  0  0
 18 36  1  0  0  0  0
 19 20  2  0  0  0  0
 19 21  1  0  0  0  0
 20 22  1  0  0  0  0
 20 37  1  0  0  0  0
 21 24  2  0  0  0  0
 21 38  1  0  0  0  0
 22 23  2  0  0  0  0
 23 24  1  0  0  0  0
 24 39  1  0  0  0  0
 25 41  1  0  0  0  0
 25 42  1  0  0  0  0
 25 43  1  0  0  0  0
M  END
> <PUBCHEM_COMPOUND_CID>
135598554

> <PUBCHEM_CONFORMER_RMSD>
0.8

> <PUBCHEM_CONFORMER_DIVERSEORDER>
2
30
35
33
25
22
18
37
15
39
3
38
26
14
19
8
23
29
17
7
20
16
21
4
34
27
12
28
10
1
11
32
9
31
36
6
24
5
13

> <PUBCHEM_MMFF94_PARTIAL_CHARGES>
29
1 -0.08
11 -0.18
12 0.18
13 -0.14
15 0.3
16 0.41
17 0.47
18 0.3
19 0.09
2 -0.36
20 -0.15
21 -0.15
22 0.08
23 0.08
24 -0.15
25 0.28
3 -0.53
34 0.4
35 0.15
36 0.06
37 0.15
38 0.15
39 0.15
4 -0.57
40 0.45
5 -0.62
6 -0.46
7 -0.49
8 0.18

> <PUBCHEM_EFFECTIVE_ROTOR_COUNT>
4.8

> <PUBCHEM_PHARMACOPHORE_FEATURES>
10
1 2 acceptor
1 3 donor
1 4 acceptor
1 6 donor
1 7 acceptor
3 4 5 17 cation
5 1 11 13 14 15 rings
6 19 20 21 22 23 24 rings
6 4 5 14 15 16 17 rings
6 8 9 10 11 12 13 rings

> <PUBCHEM_HEAVY_ATOM_COUNT>
25

> <PUBCHEM_ATOM_DEF_STEREO_COUNT>
0

> <PUBCHEM_ATOM_UDEF_STEREO_COUNT>
0

> <PUBCHEM_BOND_DEF_STEREO_COUNT>
1

> <PUBCHEM_BOND_UDEF_STEREO_COUNT>
0

> <PUBCHEM_ISOTOPIC_ATOM_COUNT>
0

> <PUBCHEM_COMPONENT_COUNT>
1

> <PUBCHEM_CACTVS_TAUTO_COUNT>
-1

> <PUBCHEM_CONFORMER_ID>
081511DA00000002

> <PUBCHEM_MMFF94_ENERGY>
66.3937

> <PUBCHEM_FEATURE_SELFOVERLAP>
50.883

> <PUBCHEM_SHAPE_FINGERPRINT>
10411042 1 18122343481295906866
10595046 47 18340769346806524825
12107183 9 18053390903135213449
12236239 1 18060419109897155577
13073987 5 18342458157764247977
13167823 11 18412823607896908231
13533116 47 18412545435301603433
13782708 43 17821726117701633731
13785724 45 17984150253577024894
13911852 28 18194119621172616622
13955234 65 18270677696818233344
14211702 104 18260838154439901179
14341114 176 18409452483834821849
15183329 4 18410576154437093881
15250474 111 18129368457799968647
15361156 5 18041290919273141981
15419008 42 17911795769882089261
15799311 1 18337969977190789139
15927050 60 18053944228636214142
16992752 21 18122914119357294182
17492 89 18411418423304355011
17844677 252 18411707582167468777
17857418 61 18412262831117895311
19427546 62 18120937476243326320
1979834 28 17417813885951550110
20028762 73 18342174402624776126
20645477 70 18335137601041066424
21197605 99 18267869565327100254
21267235 1 18341052896690211550
21279426 13 18190456052402081365
21315763 129 18410573959608481277
21478907 32 18194120720879559712
221357 26 18261954050824215404
23522609 53 18120687723083135692
23559900 14 18411130364512109937
239999 70 18201728362159122822
3004659 81 18187929435369831770
338550 245 18337391642342877598
3421961 26 18411697660977546944
4073 2 18114750429032961203
4144715 1 18338244773630192889
4214541 1 18410575089654631781
46194498 28 17676490557911642340
465052 167 18272654515745784782
5104073 3 18201725059144792497
6299153 45 18199196083733211097
7970288 3 18121496852446711210

> <PUBCHEM_SHAPE_MULTIPOLES>
486.68
18.41
3.71
0.61
21.17
0.93
0
6.95
0.22
-3.53
-0.01
-0.1
0.05
-0.01

> <PUBCHEM_SHAPE_SELFOVERLAP>
1053.343

> <PUBCHEM_SHAPE_VOLUME>
267.4

> <PUBCHEM_COORDINATE_TYPE>
2
5
10

$$$$
