135554433
  -OEChem-03292013293D

 52 55  0     1  0  0  0  0  0999 V2000
    3.8914    0.2951   -0.9590 O   0  0  0  0  0  0  0  0  0  0  0  0
    3.0520    3.2415   -1.1247 O   0  0  0  0  0  0  0  0  0  0  0  0
    6.4279    0.1579    0.2096 O   0  0  0  0  0  0  0  0  0  0  0  0
   -0.7477   -4.4973    0.5654 O   0  0  0  0  0  0  0  0  0  0  0  0
   -3.2898    3.1793   -0.5456 O   0  0  0  0  0  0  0  0  0  0  0  0
    1.8921   -0.9236   -0.2560 N   0  0  0  0  0  0  0  0  0  0  0  0
    1.7730   -2.9333    0.7183 N   0  0  0  0  0  0  0  0  0  0  0  0
   -0.3370   -0.7466   -1.1827 N   0  0  0  0  0  0  0  0  0  0  0  0
   -1.6098   -2.7094   -0.6650 N   0  0  0  0  0  0  0  0  0  0  0  0
   -2.5609   -0.9534   -1.9121 N   0  0  0  0  0  0  0  0  0  0  0  0
   -2.9904   -0.1129    2.8353 N   0  0  0  0  0  0  0  0  0  0  0  0
    2.4778    0.3921   -0.7028 C   0  0  1  0  0  0  0  0  0  0  0  0
    3.4448    2.4328   -0.0182 C   0  0  1  0  0  0  0  0  0  0  0  0
    2.3036    1.5043    0.3256 C   0  0  0  0  0  0  0  0  0  0  0  0
    4.5471    1.4745   -0.4506 C   0  0  1  0  0  0  0  0  0  0  0  0
    5.4459    1.0518    0.7036 C   0  0  0  0  0  0  0  0  0  0  0  0
    0.6322   -1.3883   -0.4933 C   0  0  0  0  0  0  0  0  0  0  0  0
    2.5401   -1.8882    0.4764 C   0  0  0  0  0  0  0  0  0  0  0  0
    0.5909   -2.6194    0.1154 C   0  0  0  0  0  0  0  0  0  0  0  0
   -0.6186   -3.3925    0.0536 C   0  0  0  0  0  0  0  0  0  0  0  0
   -1.4571   -1.4325   -1.2553 C   0  0  0  0  0  0  0  0  0  0  0  0
   -2.5695    0.3207   -2.5611 C   0  0  0  0  0  0  0  0  0  0  0  0
   -3.9573    0.9522   -2.4942 C   0  0  0  0  0  0  0  0  0  0  0  0
   -4.4558    1.1319   -1.0567 C   0  0  0  0  0  0  0  0  0  0  0  0
   -3.5286    2.0148   -0.2343 C   0  0  0  0  0  0  0  0  0  0  0  0
   -2.8884    1.4409    0.9860 C   0  0  0  0  0  0  0  0  0  0  0  0
   -1.6432    1.8843    1.4175 C   0  0  0  0  0  0  0  0  0  0  0  0
   -3.5150    0.4492    1.7233 C   0  0  0  0  0  0  0  0  0  0  0  0
   -1.0708    1.3303    2.5572 C   0  0  0  0  0  0  0  0  0  0  0  0
   -1.7788    0.3436    3.2244 C   0  0  0  0  0  0  0  0  0  0  0  0
    1.9863    0.6329   -1.6529 H   0  0  0  0  0  0  0  0  0  0  0  0
    3.7238    3.0977    0.8041 H   0  0  0  0  0  0  0  0  0  0  0  0
    2.4253    1.1162    1.3436 H   0  0  0  0  0  0  0  0  0  0  0  0
    1.3171    1.9696    0.2464 H   0  0  0  0  0  0  0  0  0  0  0  0
    5.1537    1.8777   -1.2692 H   0  0  0  0  0  0  0  0  0  0  0  0
    5.9492    1.9178    1.1445 H   0  0  0  0  0  0  0  0  0  0  0  0
    4.8804    0.5276    1.4806 H   0  0  0  0  0  0  0  0  0  0  0  0
    3.8141    3.7964   -1.3633 H   0  0  0  0  0  0  0  0  0  0  0  0
    3.5635   -1.7741    0.8066 H   0  0  0  0  0  0  0  0  0  0  0  0
    6.9893   -0.0957    0.9620 H   0  0  0  0  0  0  0  0  0  0  0  0
   -2.5100   -3.1685   -0.7691 H   0  0  0  0  0  0  0  0  0  0  0  0
   -3.3919   -1.5336   -1.9808 H   0  0  0  0  0  0  0  0  0  0  0  0
   -2.2845    0.1902   -3.6112 H   0  0  0  0  0  0  0  0  0  0  0  0
   -1.8414    1.0130   -2.1232 H   0  0  0  0  0  0  0  0  0  0  0  0
   -4.6763    0.3296   -3.0407 H   0  0  0  0  0  0  0  0  0  0  0  0
   -3.9277    1.9250   -2.9997 H   0  0  0  0  0  0  0  0  0  0  0  0
   -5.4405    1.6140   -1.0627 H   0  0  0  0  0  0  0  0  0  0  0  0
   -4.6011    0.1471   -0.6093 H   0  0  0  0  0  0  0  0  0  0  0  0
   -1.1054    2.6570    0.8753 H   0  0  0  0  0  0  0  0  0  0  0  0
   -4.5015    0.0717    1.4788 H   0  0  0  0  0  0  0  0  0  0  0  0
   -0.1001    1.6586    2.9106 H   0  0  0  0  0  0  0  0  0  0  0  0
   -1.3753   -0.1215    4.1178 H   0  0  0  0  0  0  0  0  0  0  0  0
  1 12  1  0  0  0  0
  1 15  1  0  0  0  0
  2 13  1  0  0  0  0
  2 38  1  0  0  0  0
  3 16  1  0  0  0  0
  3 40  1  0  0  0  0
  4 20  2  0  0  0  0
  5 25  2  0  0  0  0
  6 12  1  0  0  0  0
  6 17  1  0  0  0  0
  6 18  1  0  0  0  0
  7 18  2  0  0  0  0
  7 19  1  0  0  0  0
  8 17  1  0  0  0  0
  8 21  2  0  0  0  0
  9 20  1  0  0  0  0
  9 21  1  0  0  0  0
  9 41  1  0  0  0  0
 10 21  1  0  0  0  0
 10 22  1  0  0  0  0
 10 42  1  0  0  0  0
 11 28  1  0  0  0  0
 11 30  2  0  0  0  0
 12 14  1  0  0  0  0
 12 31  1  0  0  0  0
 13 14  1  0  0  0  0
 13 15  1  0  0  0  0
 13 32  1  0  0  0  0
 14 33  1  0  0  0  0
 14 34  1  0  0  0  0
 15 16  1  0  0  0  0
 15 35  1  0  0  0  0
 16 36  1  0  0  0  0
 16 37  1  0  0  0  0
 17 19  2  0  0  0  0
 18 39  1  0  0  0  0
 19 20  1  0  0  0  0
 22 23  1  0  0  0  0
 22 43  1  0  0  0  0
 22 44  1  0  0  0  0
 23 24  1  0  0  0  0
 23 45  1  0  0  0  0
 23 46  1  0  0  0  0
 24 25  1  0  0  0  0
 24 47  1  0  0  0  0
 24 48  1  0  0  0  0
 25 26  1  0  0  0  0
 26 27  1  0  0  0  0
 26 28  2  0  0  0  0
 27 29  2  0  0  0  0
 27 49  1  0  0  0  0
 28 50  1  0  0  0  0
 29 30  1  0  0  0  0
 29 51  1  0  0  0  0
 30 52  1  0  0  0  0
M  END
> <PUBCHEM_COMPOUND_CID>
135554433

> <PUBCHEM_CONFORMER_RMSD>
1.2

> <PUBCHEM_CONFORMER_DIVERSEORDER>
5
39
106
118
56
117
8
10
100
21
112
54
107
83
93
31
78
99
23
3
70
2
96
85
103
115
24
75
72
6
84
116
66
38
81
44
33
55
27
43
104
30
105
73
12
68
101
110
92
22
19
15
119
47
77
69
62
65
64
9
86
13
53
45
28
32
14
67
63
16
42
90
60
7
102
89
50
111
26
97
74
40
59
11
4
20
95
17
113
29
109
108
36
41
71
88
1
76
52
25
82
58
48
34
46
87
18
49
61
114
57
94
80
91
98
35
37
79
51

> <PUBCHEM_MMFF94_PARTIAL_CHARGES>
37
1 -0.56
10 -0.82
11 -0.62
12 0.54
13 0.28
15 0.28
16 0.28
17 -0.03
18 0.04
19 0.14
2 -0.68
20 0.72
21 0.56
22 0.37
24 0.06
25 0.42
26 0.09
27 -0.15
28 0.16
29 -0.15
3 -0.68
30 0.16
38 0.4
39 0.15
4 -0.57
40 0.4
41 0.37
42 0.4
49 0.15
5 -0.57
50 0.15
51 0.15
52 0.15
6 0.05
7 -0.57
8 -0.58
9 -0.49

> <PUBCHEM_EFFECTIVE_ROTOR_COUNT>
9

> <PUBCHEM_PHARMACOPHORE_FEATURES>
15
1 1 acceptor
1 10 donor
1 11 acceptor
1 2 acceptor
1 2 donor
1 3 acceptor
1 3 donor
1 4 acceptor
1 5 acceptor
1 9 donor
3 6 7 18 cation
5 1 12 13 14 15 rings
5 6 7 17 18 19 rings
6 11 26 27 28 29 30 rings
6 8 9 17 19 20 21 rings

> <PUBCHEM_HEAVY_ATOM_COUNT>
30

> <PUBCHEM_ATOM_DEF_STEREO_COUNT>
3

> <PUBCHEM_ATOM_UDEF_STEREO_COUNT>
0

> <PUBCHEM_BOND_DEF_STEREO_COUNT>
0

> <PUBCHEM_BOND_UDEF_STEREO_COUNT>
0

> <PUBCHEM_ISOTOPIC_ATOM_COUNT>
0

> <PUBCHEM_COMPONENT_COUNT>
1

> <PUBCHEM_CACTVS_TAUTO_COUNT>
-1

> <PUBCHEM_CONFORMER_ID>
0814658100000005

> <PUBCHEM_MMFF94_ENERGY>
66.1595

> <PUBCHEM_FEATURE_SELFOVERLAP>
76.308

> <PUBCHEM_SHAPE_FINGERPRINT>
11007060 377 18117837918768196920
11552529 35 15140960720490330008
11578080 2 17024897877694148612
11582403 64 16808099529773417965
11640471 11 17843960343476018271
11725454 13 17386558073208613381
12156800 1 17466466378001031099
12655364 131 18123172525674255522
13583140 156 17530679931242352488
13947920 75 16702299035801079785
14468879 13 17895185589550266285
15420108 30 16548345156251057226
17138139 8 17773288288681595901
17492 54 17917136222744706613
20775438 99 15472760494522421967
20905425 154 16336603749779262263
21033648 29 16517099393790616589
238 59 18337108947695337105
3459 83 17916591917355230614
35225 105 17830493739543547671
394222 165 18192694671235571315
444769 64 18337392644114495562
460360 51 18261398849640766046
469060 322 18044100270419415919
50150288 127 16262412136241691793
57527585 103 18126584524185372615
9981440 41 18334574595131959145

> <PUBCHEM_SHAPE_MULTIPOLES>
558.15
9.42
4.07
2.53
10.49
3.32
-1.1
-7.14
1.77
0.26
-0.19
-3.73
-0.77
-0.69

> <PUBCHEM_SHAPE_SELFOVERLAP>
1202.445

> <PUBCHEM_SHAPE_VOLUME>
303.3

> <PUBCHEM_COORDINATE_TYPE>
2
5
10

$$$$
