135554434
  -OEChem-03292013293D

 36 40  0     1  0  0  0  0  0999 V2000
    4.2305   -1.2245   -0.9214 O   0  0  0  0  0  0  0  0  0  0  0  0
    1.8191   -2.6843   -1.0346 O   0  0  0  0  0  0  0  0  0  0  0  0
    3.8370    1.9441   -0.0908 O   0  0  0  0  0  0  0  0  0  0  0  0
   -0.8275   -2.7363    0.2399 O   0  0  0  0  0  0  0  0  0  0  0  0
   -2.1180    2.4711   -0.0877 O   0  0  0  0  0  0  0  0  0  0  0  0
   -4.6599    1.8939   -0.0991 O   0  0  0  0  0  0  0  0  0  0  0  0
    0.9008    2.8199   -0.0825 N   0  3  0  0  0  0  0  0  0  0  0  0
    1.0036    3.9614   -0.1378 N   0  5  0  0  0  0  0  0  0  0  0  0
    4.2158   -0.3739    0.2378 C   0  0  2  0  0  0  0  0  0  0  0  0
    3.5782   -1.7536    0.2428 C   0  0  1  0  0  0  0  0  0  0  0  0
    2.0874   -1.9068    0.1322 C   0  0  1  0  0  0  0  0  0  0  0  0
    3.3537    0.8287    0.0500 C   0  0  0  0  0  0  0  0  0  0  0  0
    1.3256   -0.6188    0.0788 C   0  0  0  0  0  0  0  0  0  0  0  0
    1.9061    0.5894    0.0461 C   0  0  0  0  0  0  0  0  0  0  0  0
    5.5626   -0.2313    0.8836 C   0  0  0  0  0  0  0  0  0  0  0  0
   -0.1147   -0.4820    0.0711 C   0  0  0  0  0  0  0  0  0  0  0  0
    0.7838    1.5167   -0.0193 C   0  0  0  0  0  0  0  0  0  0  0  0
   -0.4836    0.8000    0.0018 C   0  0  0  0  0  0  0  0  0  0  0  0
   -1.1277   -1.5539    0.1418 C   0  0  0  0  0  0  0  0  0  0  0  0
   -1.8658    1.2761   -0.0282 C   0  0  0  0  0  0  0  0  0  0  0  0
   -2.5511   -1.1309    0.0990 C   0  0  0  0  0  0  0  0  0  0  0  0
   -2.9053    0.2240    0.0176 C   0  0  0  0  0  0  0  0  0  0  0  0
   -3.5533   -2.1074    0.1444 C   0  0  0  0  0  0  0  0  0  0  0  0
   -4.2542    0.5949   -0.0189 C   0  0  0  0  0  0  0  0  0  0  0  0
   -4.8969   -1.7317    0.1075 C   0  0  0  0  0  0  0  0  0  0  0  0
   -5.2462   -0.3848    0.0259 C   0  0  0  0  0  0  0  0  0  0  0  0
    4.0612   -2.5780    0.7496 H   0  0  0  0  0  0  0  0  0  0  0  0
    1.7421   -2.4785    1.0020 H   0  0  0  0  0  0  0  0  0  0  0  0
    6.0972   -1.1858    0.9357 H   0  0  0  0  0  0  0  0  0  0  0  0
    5.4517    0.1497    1.9037 H   0  0  0  0  0  0  0  0  0  0  0  0
    6.1853    0.4705    0.3194 H   0  0  0  0  0  0  0  0  0  0  0  0
    2.2389   -3.5529   -0.9110 H   0  0  0  0  0  0  0  0  0  0  0  0
   -3.3098   -3.1646    0.2080 H   0  0  0  0  0  0  0  0  0  0  0  0
   -5.6726   -2.4914    0.1425 H   0  0  0  0  0  0  0  0  0  0  0  0
   -6.2962   -0.1055   -0.0022 H   0  0  0  0  0  0  0  0  0  0  0  0
   -3.8973    2.4905   -0.1371 H   0  0  0  0  0  0  0  0  0  0  0  0
  1  9  1  0  0  0  0
  1 10  1  0  0  0  0
  2 11  1  0  0  0  0
  2 32  1  0  0  0  0
  3 12  2  0  0  0  0
  4 19  2  0  0  0  0
  5 20  2  0  0  0  0
  6 24  1  0  0  0  0
  6 36  1  0  0  0  0
  7  8  2  0  0  0  0
  7 17  2  0  0  0  0
  9 10  1  0  0  0  0
  9 12  1  0  0  0  0
  9 15  1  0  0  0  0
 10 11  1  0  0  0  0
 10 27  1  0  0  0  0
 11 13  1  0  0  0  0
 11 28  1  0  0  0  0
 12 14  1  0  0  0  0
 13 14  2  0  0  0  0
 13 16  1  0  0  0  0
 14 17  1  0  0  0  0
 15 29  1  0  0  0  0
 15 30  1  0  0  0  0
 15 31  1  0  0  0  0
 16 18  2  0  0  0  0
 16 19  1  0  0  0  0
 17 18  1  0  0  0  0
 18 20  1  0  0  0  0
 19 21  1  0  0  0  0
 20 22  1  0  0  0  0
 21 22  2  0  0  0  0
 21 23  1  0  0  0  0
 22 24  1  0  0  0  0
 23 25  2  0  0  0  0
 23 33  1  0  0  0  0
 24 26  2  0  0  0  0
 25 26  1  0  0  0  0
 25 34  1  0  0  0  0
 26 35  1  0  0  0  0
M  CHG  2   7   1   8  -1
M  END
> <PUBCHEM_COMPOUND_CID>
135554434

> <PUBCHEM_CONFORMER_RMSD>
0.6

> <PUBCHEM_CONFORMER_DIVERSEORDER>
1
2

> <PUBCHEM_MMFF94_PARTIAL_CHARGES>
32
1 -0.3
10 -0.05
11 0.51
12 0.56
13 -0.14
14 0.03
15 0.09
16 0.01
17 -0.02
18 0.03
19 0.47
2 -0.68
20 0.47
21 0.09
22 0.09
23 -0.15
24 0.08
25 -0.15
26 -0.15
27 0.1
3 -0.57
32 0.4
33 0.15
34 0.15
35 0.15
36 0.45
4 -0.57
5 -0.57
6 -0.53
7 0.36
8 -0.37
9 0.05

> <PUBCHEM_EFFECTIVE_ROTOR_COUNT>
0.4

> <PUBCHEM_PHARMACOPHORE_FEATURES>
12
1 1 acceptor
1 2 acceptor
1 2 donor
1 3 acceptor
1 4 acceptor
1 5 acceptor
1 6 donor
1 7 acceptor
5 13 14 16 17 18 rings
6 16 18 19 20 21 22 rings
6 21 22 23 24 25 26 rings
7 1 9 10 11 12 13 14 rings

> <PUBCHEM_HEAVY_ATOM_COUNT>
26

> <PUBCHEM_ATOM_DEF_STEREO_COUNT>
0

> <PUBCHEM_ATOM_UDEF_STEREO_COUNT>
3

> <PUBCHEM_BOND_DEF_STEREO_COUNT>
0

> <PUBCHEM_BOND_UDEF_STEREO_COUNT>
1

> <PUBCHEM_ISOTOPIC_ATOM_COUNT>
0

> <PUBCHEM_COMPONENT_COUNT>
1

> <PUBCHEM_CACTVS_TAUTO_COUNT>
-1

> <PUBCHEM_CONFORMER_ID>
0814658200000001

> <PUBCHEM_MMFF94_ENERGY>
72.2795

> <PUBCHEM_FEATURE_SELFOVERLAP>
61.014

> <PUBCHEM_SHAPE_FINGERPRINT>
10616163 171 18411983559158909111
10675989 125 16676670232055905005
10906281 52 18336846246199979746
10967382 1 18410293613997172824
1100329 8 18264767834229039706
12107183 9 17760363297220793051
12236239 1 17676487220684908522
12403259 226 18336541703086102869
13140716 1 18050002499923121296
13402501 40 18411136926599587258
13583140 156 14620513368230010451
13862211 1 18409725179513361635
14790565 3 18337678610614349468
14866123 147 17477210427111373275
15196674 1 18410012156189775347
15536298 74 18413389851657715883
15927050 60 17549261884237575844
1601671 61 18412826880435075994
16945 1 18337960111249606840
17349148 13 18187364341536613779
17492 89 18121217842638589275
1813 80 17313104159095135132
18681886 176 18341328981340352642
19591789 44 18409729517308842378
200 152 17989484121842736755
20028762 73 18201152260563212927
21033648 29 17703492342543186555
21267235 1 18410300207067754602
21279426 13 18265613182777444639
21421861 104 17824817837299220434
221490 88 18263369247064403627
23227448 37 18341611576655272335
2334 1 18410293571058042874
23366157 5 17897444123535327580
23402539 116 18412255129851150095
23559900 14 18412820308908584753
3004659 81 18187367627856332958
335352 9 18409729547383890445
34934 24 18338229371360777538
350125 39 18410293631224859104
3680242 22 18261955124566039994
3886686 26 16966295927434046538
4214541 1 18410011018424420537
5104073 3 18410575110517344649
59755656 215 18266178335901389254
6443956 14 18409733980091157860
7364860 26 18267305506997244792
9709674 26 18337113487644866243
9981440 41 17327455238328021065

> <PUBCHEM_SHAPE_MULTIPOLES>
489.89
10.32
3.27
0.69
1.4
1.71
0.02
-2.09
-0.8
-0.14
0.28
-0.34
-0.17
0.27

> <PUBCHEM_SHAPE_SELFOVERLAP>
1127.909

> <PUBCHEM_SHAPE_VOLUME>
247.8

> <PUBCHEM_COORDINATE_TYPE>
2
5
10

$$$$
