135544137
  -OEChem-03292013293D

 53 56  0     1  0  0  0  0  0999 V2000
    2.7360   -2.4721   -1.3658 S   0  0  0  0  0  0  0  0  0  0  0  0
   -0.1486   -1.9656   -1.2401 S   0  0  0  0  0  0  0  0  0  0  0  0
    2.2554   -0.8318    1.7460 O   0  0  0  0  0  0  0  0  0  0  0  0
    3.7622   -3.2163   -0.6607 O   0  0  0  0  0  0  0  0  0  0  0  0
    2.4553   -2.7583   -2.7597 O   0  0  0  0  0  0  0  0  0  0  0  0
   -0.5597    0.5406    2.6749 O   0  0  0  0  0  0  0  0  0  0  0  0
    2.6502    1.3882    1.0729 N   0  0  0  0  0  0  0  0  0  0  0  0
    3.0281   -0.8044   -1.1889 N   0  0  0  0  0  0  0  0  0  0  0  0
   -2.4565    4.4126   -2.1069 N   0  0  0  0  0  0  0  0  0  0  0  0
   -0.2073    4.9984   -1.8644 N   0  0  0  0  0  0  0  0  0  0  0  0
   -4.6551   -1.6642    1.1053 N   0  0  0  0  0  0  0  0  0  0  0  0
    3.8070   -0.3078   -0.0414 C   0  0  1  0  0  0  0  0  0  0  0  0
    4.4558    1.0368   -0.3501 C   0  0  0  0  0  0  0  0  0  0  0  0
    3.4027    2.0590    0.0388 C   0  0  0  0  0  0  0  0  0  0  0  0
    2.8188    0.0044    1.0546 C   0  0  0  0  0  0  0  0  0  0  0  0
    1.7103    2.1042    1.9078 C   0  0  0  0  0  0  0  0  0  0  0  0
    0.3650    2.2357    1.2544 C   0  0  0  0  0  0  0  0  0  0  0  0
    1.2172   -2.6680   -0.4828 C   0  0  0  0  0  0  0  0  0  0  0  0
    0.1949    3.1586    0.2225 C   0  0  0  0  0  0  0  0  0  0  0  0
   -0.7084    1.4471    1.6687 C   0  0  0  0  0  0  0  0  0  0  0  0
   -1.0486    3.2932   -0.3948 C   0  0  0  0  0  0  0  0  0  0  0  0
    0.8913   -3.2770    0.7091 C   0  0  0  0  0  0  0  0  0  0  0  0
   -1.9520    1.5816    1.0512 C   0  0  0  0  0  0  0  0  0  0  0  0
   -1.1811   -2.4759    0.0270 C   0  0  0  0  0  0  0  0  0  0  0  0
   -2.1220    2.5046    0.0195 C   0  0  0  0  0  0  0  0  0  0  0  0
   -0.4981   -3.1658    1.0043 C   0  0  0  0  0  0  0  0  0  0  0  0
   -1.2266    4.2555   -1.4707 C   0  0  0  0  0  0  0  0  0  0  0  0
   -2.5867   -2.1551   -0.0461 C   0  0  0  0  0  0  0  0  0  0  0  0
   -3.2303   -2.0270   -1.2721 C   0  0  0  0  0  0  0  0  0  0  0  0
   -3.3372   -1.9656    1.1031 C   0  0  0  0  0  0  0  0  0  0  0  0
   -4.5854   -1.7177   -1.3107 C   0  0  0  0  0  0  0  0  0  0  0  0
   -5.2464   -1.5479   -0.1049 C   0  0  0  0  0  0  0  0  0  0  0  0
    4.5595   -1.0254    0.2929 H   0  0  0  0  0  0  0  0  0  0  0  0
    4.7811    1.1468   -1.3891 H   0  0  0  0  0  0  0  0  0  0  0  0
    5.3353    1.1677    0.2932 H   0  0  0  0  0  0  0  0  0  0  0  0
    3.8456    2.9849    0.4162 H   0  0  0  0  0  0  0  0  0  0  0  0
    2.7401    2.2745   -0.8045 H   0  0  0  0  0  0  0  0  0  0  0  0
    2.1223    3.0934    2.1410 H   0  0  0  0  0  0  0  0  0  0  0  0
    1.6329    1.5716    2.8621 H   0  0  0  0  0  0  0  0  0  0  0  0
    2.3210   -0.1535   -1.5551 H   0  0  0  0  0  0  0  0  0  0  0  0
    1.0359    3.7782   -0.0768 H   0  0  0  0  0  0  0  0  0  0  0  0
    1.6121   -3.7805    1.3403 H   0  0  0  0  0  0  0  0  0  0  0  0
   -2.7992    0.9818    1.3700 H   0  0  0  0  0  0  0  0  0  0  0  0
   -3.1092    2.5692   -0.4246 H   0  0  0  0  0  0  0  0  0  0  0  0
   -0.9581   -3.5823    1.8918 H   0  0  0  0  0  0  0  0  0  0  0  0
   -1.4055    0.0817    2.8163 H   0  0  0  0  0  0  0  0  0  0  0  0
   -2.7263   -2.1823   -2.2217 H   0  0  0  0  0  0  0  0  0  0  0  0
   -2.9027   -2.0400    2.0956 H   0  0  0  0  0  0  0  0  0  0  0  0
   -3.2868    3.8845   -1.8692 H   0  0  0  0  0  0  0  0  0  0  0  0
   -2.5603    5.0883   -2.8569 H   0  0  0  0  0  0  0  0  0  0  0  0
   -0.5275    5.6069   -2.6259 H   0  0  0  0  0  0  0  0  0  0  0  0
   -5.1095   -1.6181   -2.2544 H   0  0  0  0  0  0  0  0  0  0  0  0
   -6.3040   -1.3069   -0.0805 H   0  0  0  0  0  0  0  0  0  0  0  0
  1  4  2  0  0  0  0
  1  5  2  0  0  0  0
  1  8  1  0  0  0  0
  1 18  1  0  0  0  0
  2 18  1  0  0  0  0
  2 24  1  0  0  0  0
  3 15  2  0  0  0  0
  6 20  1  0  0  0  0
  6 46  1  0  0  0  0
  7 14  1  0  0  0  0
  7 15  1  0  0  0  0
  7 16  1  0  0  0  0
  8 12  1  0  0  0  0
  8 40  1  0  0  0  0
  9 27  1  0  0  0  0
  9 49  1  0  0  0  0
  9 50  1  0  0  0  0
 10 27  2  0  0  0  0
 10 51  1  0  0  0  0
 11 30  1  0  0  0  0
 11 32  2  0  0  0  0
 12 13  1  0  0  0  0
 12 15  1  0  0  0  0
 12 33  1  0  0  0  0
 13 14  1  0  0  0  0
 13 34  1  0  0  0  0
 13 35  1  0  0  0  0
 14 36  1  0  0  0  0
 14 37  1  0  0  0  0
 16 17  1  0  0  0  0
 16 38  1  0  0  0  0
 16 39  1  0  0  0  0
 17 19  1  0  0  0  0
 17 20  2  0  0  0  0
 18 22  2  0  0  0  0
 19 21  2  0  0  0  0
 19 41  1  0  0  0  0
 20 23  1  0  0  0  0
 21 25  1  0  0  0  0
 21 27  1  0  0  0  0
 22 26  1  0  0  0  0
 22 42  1  0  0  0  0
 23 25  2  0  0  0  0
 23 43  1  0  0  0  0
 24 26  2  0  0  0  0
 24 28  1  0  0  0  0
 25 44  1  0  0  0  0
 26 45  1  0  0  0  0
 28 29  1  0  0  0  0
 28 30  2  0  0  0  0
 29 31  2  0  0  0  0
 29 47  1  0  0  0  0
 30 48  1  0  0  0  0
 31 32  1  0  0  0  0
 31 52  1  0  0  0  0
 32 53  1  0  0  0  0
M  END
> <PUBCHEM_COMPOUND_CID>
135544137

> <PUBCHEM_CONFORMER_RMSD>
1.4

> <PUBCHEM_CONFORMER_DIVERSEORDER>
1
111
61
96
95
14
104
87
23
124
37
114
128
126
35
112
81
34
48
115
98
123
53
52
64
50
74
78
94
68
56
58
116
120
83
18
108
70
102
10
125
66
26
7
62
33
122
17
54
82
110
119
71
5
99
76
127
21
107
38
84
103
88
75
121
46
41
91
9
51
29
73
101
22
36
72
97
77
39
63
92
25
93
89
40
106
67
28
31
42
15
24
16
90
4
109
19
85
20
43
117
80
57
8
55
60
12
11
118
49
45
6
113
79
32
13
105
65
69
100
30
3
86
59
44
27
2
47

> <PUBCHEM_MMFF94_PARTIAL_CHARGES>
45
1 1.5
10 -0.85
11 -0.62
12 0.42
14 0.3
15 0.57
16 0.44
17 -0.14
18 -0.02
19 -0.15
2 -0.08
20 0.08
21 0.09
22 -0.15
23 -0.15
24 -0.01
25 -0.15
26 -0.15
27 0.41
28 0.05
29 -0.15
3 -0.57
30 0.16
31 -0.15
32 0.16
4 -0.65
40 0.42
41 0.15
42 0.15
43 0.15
44 0.15
45 0.15
46 0.45
47 0.15
48 0.15
49 0.4
5 -0.65
50 0.4
51 0.4
52 0.15
53 0.15
6 -0.53
7 -0.66
8 -0.91
9 -0.85

> <PUBCHEM_EFFECTIVE_ROTOR_COUNT>
7.8

> <PUBCHEM_PHARMACOPHORE_FEATURES>
13
1 10 donor
1 11 acceptor
1 3 acceptor
1 4 acceptor
1 5 acceptor
1 6 donor
1 8 donor
1 9 donor
3 9 10 27 cation
5 2 18 22 24 26 rings
5 7 12 13 14 15 rings
6 11 28 29 30 31 32 rings
6 17 19 20 21 23 25 rings

> <PUBCHEM_HEAVY_ATOM_COUNT>
32

> <PUBCHEM_ATOM_DEF_STEREO_COUNT>
1

> <PUBCHEM_ATOM_UDEF_STEREO_COUNT>
0

> <PUBCHEM_BOND_DEF_STEREO_COUNT>
0

> <PUBCHEM_BOND_UDEF_STEREO_COUNT>
0

> <PUBCHEM_ISOTOPIC_ATOM_COUNT>
0

> <PUBCHEM_COMPONENT_COUNT>
1

> <PUBCHEM_CACTVS_TAUTO_COUNT>
-1

> <PUBCHEM_CONFORMER_ID>
08143D4900000001

> <PUBCHEM_MMFF94_ENERGY>
76.6877

> <PUBCHEM_FEATURE_SELFOVERLAP>
66.034

> <PUBCHEM_SHAPE_FINGERPRINT>
10688039 33 18408887343015459014
11513181 2 17560818623133777231
12156800 1 17903044790874754026
12788726 201 18261386758785101048
13122387 1 17045429964536870218
13402501 40 18270118057825394530
14725015 67 18339345423134613594
151778 21 17472146545280090211
15210252 30 18192433197789228228
16114785 44 16469157525385985434
17093844 170 18198052788617670424
17921350 177 17394407688398458429
18785283 64 17830753302151521859
20691752 17 18266481886915224794
20764821 26 18198351666727952634
20775438 99 17622971670415219671
21285901 2 18341044198727140375
21860390 5 18199188579765890486
22113638 7 17909262821345644278
238 59 17473545746339978956
340366 18 17759796344621530489
35225 105 17907867197598251055
4066623 53 18122032400608238423
46194498 28 17322106080341523283
463206 1 17911225131605183584
469060 322 18336562589057999617
550186 83 17973136685776597368
57527358 35 15656119056411508746
66674814 147 17337272700400647615

> <PUBCHEM_SHAPE_MULTIPOLES>
617.86
7.61
6.55
2.09
5.13
5.76
0.15
-4.12
0.6
-0.79
3.87
-0.16
0.63
1.49

> <PUBCHEM_SHAPE_SELFOVERLAP>
1319.086

> <PUBCHEM_SHAPE_VOLUME>
344.2

> <PUBCHEM_COORDINATE_TYPE>
2
5
10

$$$$
