135513256
  -OEChem-03292013293D

 48 51  0     1  0  0  0  0  0999 V2000
   -2.8736    0.6239   -0.0156 O   0  0  0  0  0  0  0  0  0  0  0  0
   -1.4831   -4.0314   -0.2688 O   0  0  0  0  0  0  0  0  0  0  0  0
   -6.0628   -2.8674    0.1775 O   0  0  0  0  0  0  0  0  0  0  0  0
   -0.9897    6.6037   -0.0118 O   0  0  0  0  0  0  0  0  0  0  0  0
    2.7167   -2.8386    0.7104 O   0  0  0  0  0  0  0  0  0  0  0  0
    4.7993   -1.7366    1.9459 O   0  0  0  0  0  0  0  0  0  0  0  0
    0.3526   -1.9795   -0.3597 N   0  0  0  0  0  0  0  0  0  0  0  0
    1.5088   -1.2969   -0.5243 N   0  0  0  0  0  0  0  0  0  0  0  0
   -1.5392    0.9789    0.3753 C   0  0  1  0  0  0  0  0  0  0  0  0
   -0.5135    0.2655   -0.4994 C   0  0  0  0  0  0  0  0  0  0  0  0
   -0.6936   -1.2213   -0.3232 C   0  0  0  0  0  0  0  0  0  0  0  0
   -2.0870   -1.6903   -0.1488 C   0  0  0  0  0  0  0  0  0  0  0  0
   -1.3946    2.4825    0.2724 C   0  0  0  0  0  0  0  0  0  0  0  0
   -3.0996   -0.7294   -0.0238 C   0  0  0  0  0  0  0  0  0  0  0  0
   -2.4195   -3.0487   -0.1481 C   0  0  0  0  0  0  0  0  0  0  0  0
   -4.4355   -1.1265    0.0729 C   0  0  0  0  0  0  0  0  0  0  0  0
   -1.1391    3.2388    1.4163 C   0  0  0  0  0  0  0  0  0  0  0  0
   -1.5145    3.1112   -0.9669 C   0  0  0  0  0  0  0  0  0  0  0  0
   -3.7556   -3.4393   -0.0325 C   0  0  0  0  0  0  0  0  0  0  0  0
   -4.7619   -2.4811    0.0739 C   0  0  0  0  0  0  0  0  0  0  0  0
   -1.0036    4.6237    1.3209 C   0  0  0  0  0  0  0  0  0  0  0  0
   -1.3791    4.4961   -1.0624 C   0  0  0  0  0  0  0  0  0  0  0  0
   -1.1236    5.2524    0.0814 C   0  0  0  0  0  0  0  0  0  0  0  0
    2.6590   -1.8034    0.0515 C   0  0  0  0  0  0  0  0  0  0  0  0
    3.8909   -0.9965   -0.1474 C   0  0  0  0  0  0  0  0  0  0  0  0
    4.9087   -0.9969    0.8064 C   0  0  0  0  0  0  0  0  0  0  0  0
    4.0209   -0.2308   -1.3059 C   0  0  0  0  0  0  0  0  0  0  0  0
    6.0566   -0.2314    0.6015 C   0  0  0  0  0  0  0  0  0  0  0  0
    5.1688    0.5348   -1.5107 C   0  0  0  0  0  0  0  0  0  0  0  0
    6.1867    0.5345   -0.5571 C   0  0  0  0  0  0  0  0  0  0  0  0
   -1.4084    0.6786    1.4256 H   0  0  0  0  0  0  0  0  0  0  0  0
    0.4507    0.6552   -0.1622 H   0  0  0  0  0  0  0  0  0  0  0  0
   -0.6385    0.4857   -1.5662 H   0  0  0  0  0  0  0  0  0  0  0  0
   -5.2219   -0.3802    0.1566 H   0  0  0  0  0  0  0  0  0  0  0  0
   -1.0424    2.7635    2.3887 H   0  0  0  0  0  0  0  0  0  0  0  0
   -1.7242    2.5414   -1.8679 H   0  0  0  0  0  0  0  0  0  0  0  0
   -4.0163   -4.4953   -0.0327 H   0  0  0  0  0  0  0  0  0  0  0  0
   -0.8041    5.2076    2.2154 H   0  0  0  0  0  0  0  0  0  0  0  0
   -1.4768    4.9741   -2.0334 H   0  0  0  0  0  0  0  0  0  0  0  0
    1.5124   -0.4869   -1.1306 H   0  0  0  0  0  0  0  0  0  0  0  0
   -1.9190   -4.9004   -0.2480 H   0  0  0  0  0  0  0  0  0  0  0  0
   -6.1060   -3.8389    0.1616 H   0  0  0  0  0  0  0  0  0  0  0  0
   -1.1017    6.8679   -0.9412 H   0  0  0  0  0  0  0  0  0  0  0  0
    3.2701   -0.2269   -2.0903 H   0  0  0  0  0  0  0  0  0  0  0  0
    6.8576   -0.2220    1.3359 H   0  0  0  0  0  0  0  0  0  0  0  0
    5.2741    1.1252   -2.4163 H   0  0  0  0  0  0  0  0  0  0  0  0
    7.0812    1.1292   -0.7175 H   0  0  0  0  0  0  0  0  0  0  0  0
    5.5992   -1.6104    2.4846 H   0  0  0  0  0  0  0  0  0  0  0  0
  1  9  1  0  0  0  0
  1 14  1  0  0  0  0
  2 15  1  0  0  0  0
  2 41  1  0  0  0  0
  3 20  1  0  0  0  0
  3 42  1  0  0  0  0
  4 23  1  0  0  0  0
  4 43  1  0  0  0  0
  5 24  2  0  0  0  0
  6 26  1  0  0  0  0
  6 48  1  0  0  0  0
  7  8  1  0  0  0  0
  7 11  2  0  0  0  0
  8 24  1  0  0  0  0
  8 40  1  0  0  0  0
  9 10  1  0  0  0  0
  9 13  1  0  0  0  0
  9 31  1  0  0  0  0
 10 11  1  0  0  0  0
 10 32  1  0  0  0  0
 10 33  1  0  0  0  0
 11 12  1  0  0  0  0
 12 14  1  0  0  0  0
 12 15  2  0  0  0  0
 13 17  2  0  0  0  0
 13 18  1  0  0  0  0
 14 16  2  0  0  0  0
 15 19  1  0  0  0  0
 16 20  1  0  0  0  0
 16 34  1  0  0  0  0
 17 21  1  0  0  0  0
 17 35  1  0  0  0  0
 18 22  2  0  0  0  0
 18 36  1  0  0  0  0
 19 20  2  0  0  0  0
 19 37  1  0  0  0  0
 21 23  2  0  0  0  0
 21 38  1  0  0  0  0
 22 23  1  0  0  0  0
 22 39  1  0  0  0  0
 24 25  1  0  0  0  0
 25 26  1  0  0  0  0
 25 27  2  0  0  0  0
 26 28  2  0  0  0  0
 27 29  1  0  0  0  0
 27 44  1  0  0  0  0
 28 30  1  0  0  0  0
 28 45  1  0  0  0  0
 29 30  2  0  0  0  0
 29 46  1  0  0  0  0
 30 47  1  0  0  0  0
M  END
> <PUBCHEM_COMPOUND_CID>
135513256

> <PUBCHEM_CONFORMER_RMSD>
0.8

> <PUBCHEM_CONFORMER_DIVERSEORDER>
1
7
21
24
18
16
25
19
11
20
23
15
8
5
17
6
12
13
22
14
10
9
4
3
2

> <PUBCHEM_MMFF94_PARTIAL_CHARGES>
45
1 -0.36
10 0.06
11 0.3
12 0.09
13 -0.14
14 0.08
15 0.08
16 -0.15
17 -0.15
18 -0.15
19 -0.15
2 -0.53
20 0.08
21 -0.15
22 -0.15
23 0.08
24 0.54
25 0.09
26 0.08
27 -0.15
28 -0.15
29 -0.15
3 -0.53
30 -0.15
34 0.15
35 0.15
36 0.15
37 0.15
38 0.15
39 0.15
4 -0.53
40 0.37
41 0.45
42 0.45
43 0.45
44 0.15
45 0.15
46 0.15
47 0.15
48 0.45
5 -0.57
6 -0.53
7 -0.51
8 -0.37
9 0.42

> <PUBCHEM_EFFECTIVE_ROTOR_COUNT>
4.6

> <PUBCHEM_PHARMACOPHORE_FEATURES>
12
1 1 acceptor
1 2 donor
1 3 donor
1 4 donor
1 5 acceptor
1 6 donor
1 7 acceptor
1 8 donor
6 1 9 10 11 12 14 rings
6 12 14 15 16 19 20 rings
6 13 17 18 21 22 23 rings
6 25 26 27 28 29 30 rings

> <PUBCHEM_HEAVY_ATOM_COUNT>
30

> <PUBCHEM_ATOM_DEF_STEREO_COUNT>
0

> <PUBCHEM_ATOM_UDEF_STEREO_COUNT>
1

> <PUBCHEM_BOND_DEF_STEREO_COUNT>
1

> <PUBCHEM_BOND_UDEF_STEREO_COUNT>
0

> <PUBCHEM_ISOTOPIC_ATOM_COUNT>
0

> <PUBCHEM_COMPONENT_COUNT>
1

> <PUBCHEM_CACTVS_TAUTO_COUNT>
-1

> <PUBCHEM_CONFORMER_ID>
0813C4A800000001

> <PUBCHEM_MMFF94_ENERGY>
103.6588

> <PUBCHEM_FEATURE_SELFOVERLAP>
60.934

> <PUBCHEM_SHAPE_FINGERPRINT>
102385 1 17980484460219482783
10670039 82 18339656568472905174
10937287 8 17763183536003913688
11056379 131 18339369556687296198
11059845 2 17832965176228519746
11582403 64 15941750135926018869
12107183 9 17613144180000424386
12516196 113 18340207508991677095
12788726 201 18334573529732286506
138480 1 15528553502676975101
13965767 371 17321834045671352092
14068700 675 18334581295386624644
14394314 77 18410299137847491569
14790565 3 17763186843593117697
14937079 2 18268430325474493443
15419008 47 17988928916163581240
15439362 3 17689996061262431941
15961568 22 18125157384685463256
17980427 26 17477763950096844789
20238998 120 18411980299895864373
21033650 10 18191048745800423974
21049683 271 18117284876834407239
21120745 212 18340785800341419833
21133410 90 18265880514500937389
21304253 13 18341618174357632211
21796203 349 17830773024324945035
22956985 138 17615683376722344402
23366157 5 17687743153093957391
23558518 356 18046067060024234626
23559900 14 18050563251534217019
24771750 20 17688319297308290415
249999 5 17474674331028954995
283562 15 18335703806158114267
3886686 26 17615946834691492570
4366758 6 17398356781988901132
469060 322 18340503208693597408
5171179 24 18122605405359473103
6523845 18 17407149580681411724
653340 110 18339642218406926396
6677587 24 15366373502108669877
6700243 42 18057634051766377630
79837 15 17977665312220287217
9962374 69 18125158493151756599
9981440 41 17761208813326202473

> <PUBCHEM_SHAPE_MULTIPOLES>
572.21
11.79
7.67
1.14
15.4
14.21
0.15
-10.74
0.27
-9.33
0.63
1.18
0.54
-0.96

> <PUBCHEM_SHAPE_SELFOVERLAP>
1269.076

> <PUBCHEM_SHAPE_VOLUME>
303.2

> <PUBCHEM_COORDINATE_TYPE>
2
5
10

$$$$
