135511071
  -OEChem-03292013293D

 55 58  0     0  0  0  0  0  0999 V2000
   -7.2337   -1.2074    0.1206 O   0  0  0  0  0  0  0  0  0  0  0  0
    3.7610    5.3720   -0.9160 O   0  0  0  0  0  0  0  0  0  0  0  0
    2.2568   -0.8864   -0.9215 O   0  0  0  0  0  0  0  0  0  0  0  0
    5.3379   -4.2043   -0.0161 O   0  0  0  0  0  0  0  0  0  0  0  0
    0.5714   -0.2212    1.3197 N   0  0  0  0  0  0  0  0  0  0  0  0
   -0.4662   -1.4190   -0.2360 N   0  0  0  0  0  0  0  0  0  0  0  0
    1.1909   -2.5374    1.1841 N   0  0  0  0  0  0  0  0  0  0  0  0
    4.0787   -2.3815   -0.7891 N   0  0  0  0  0  0  0  0  0  0  0  0
    3.2505   -3.6676    0.8486 N   0  0  0  0  0  0  0  0  0  0  0  0
   -0.2810    0.6414    0.6901 C   0  0  0  0  0  0  0  0  0  0  0  0
   -0.9103   -0.1207   -0.2659 C   0  0  0  0  0  0  0  0  0  0  0  0
   -0.4074    2.0646    1.0517 C   0  0  0  0  0  0  0  0  0  0  0  0
   -1.9332    0.2935   -1.2393 C   0  0  0  0  0  0  0  0  0  0  0  0
    0.4252   -1.4459    0.7297 C   0  0  0  0  0  0  0  0  0  0  0  0
    0.7111    2.9528    0.5239 C   0  0  0  0  0  0  0  0  0  0  0  0
   -3.3565   -0.1098   -0.8747 C   0  0  0  0  0  0  0  0  0  0  0  0
    1.4619    0.1095    2.4100 C   0  0  0  0  0  0  0  0  0  0  0  0
    0.9974    2.9761   -0.8411 C   0  0  0  0  0  0  0  0  0  0  0  0
    1.4499    3.7426    1.4050 C   0  0  0  0  0  0  0  0  0  0  0  0
   -3.7959   -1.4120   -1.1135 C   0  0  0  0  0  0  0  0  0  0  0  0
   -4.2202    0.8235   -0.3013 C   0  0  0  0  0  0  0  0  0  0  0  0
    2.3248   -2.7076    0.6085 C   0  0  0  0  0  0  0  0  0  0  0  0
    2.0220    3.7893   -1.3251 C   0  0  0  0  0  0  0  0  0  0  0  0
    2.4745    4.5559    0.9211 C   0  0  0  0  0  0  0  0  0  0  0  0
   -5.0990   -1.7808   -0.7794 C   0  0  0  0  0  0  0  0  0  0  0  0
   -5.5233    0.4549    0.0328 C   0  0  0  0  0  0  0  0  0  0  0  0
    2.8630   -1.8399   -0.4833 C   0  0  0  0  0  0  0  0  0  0  0  0
   -5.9626   -0.8472   -0.2063 C   0  0  0  0  0  0  0  0  0  0  0  0
    2.7606    4.5792   -0.4440 C   0  0  0  0  0  0  0  0  0  0  0  0
    4.3393   -3.4952    0.0071 C   0  0  0  0  0  0  0  0  0  0  0  0
    4.9759   -1.8681   -1.8035 C   0  0  0  0  0  0  0  0  0  0  0  0
   -8.0635   -0.2033    0.7032 C   0  0  0  0  0  0  0  0  0  0  0  0
   -0.4906    2.1708    2.1403 H   0  0  0  0  0  0  0  0  0  0  0  0
   -1.3508    2.4706    0.6641 H   0  0  0  0  0  0  0  0  0  0  0  0
   -1.6953   -0.1418   -2.2194 H   0  0  0  0  0  0  0  0  0  0  0  0
   -1.8996    1.3775   -1.4041 H   0  0  0  0  0  0  0  0  0  0  0  0
    0.9346    0.7370    3.1317 H   0  0  0  0  0  0  0  0  0  0  0  0
    1.7883   -0.7991    2.9206 H   0  0  0  0  0  0  0  0  0  0  0  0
    2.3265    0.6347    1.9969 H   0  0  0  0  0  0  0  0  0  0  0  0
    0.4298    2.3751   -1.5453 H   0  0  0  0  0  0  0  0  0  0  0  0
    1.2387    3.7337    2.4708 H   0  0  0  0  0  0  0  0  0  0  0  0
   -3.1329   -2.1478   -1.5607 H   0  0  0  0  0  0  0  0  0  0  0  0
   -3.8888    1.8404   -0.1089 H   0  0  0  0  0  0  0  0  0  0  0  0
    2.2342    3.7996   -2.3908 H   0  0  0  0  0  0  0  0  0  0  0  0
    3.0467    5.1686    1.6123 H   0  0  0  0  0  0  0  0  0  0  0  0
   -5.4356   -2.7965   -0.9679 H   0  0  0  0  0  0  0  0  0  0  0  0
   -6.1408    1.2291    0.4752 H   0  0  0  0  0  0  0  0  0  0  0  0
    3.1643   -4.4038    1.5395 H   0  0  0  0  0  0  0  0  0  0  0  0
    5.9330   -1.6253   -1.3330 H   0  0  0  0  0  0  0  0  0  0  0  0
    5.1482   -2.6527   -2.5457 H   0  0  0  0  0  0  0  0  0  0  0  0
    4.5545   -0.9812   -2.2828 H   0  0  0  0  0  0  0  0  0  0  0  0
    3.8204    5.2635   -1.8808 H   0  0  0  0  0  0  0  0  0  0  0  0
   -9.0380   -0.6627    0.8985 H   0  0  0  0  0  0  0  0  0  0  0  0
   -8.2351    0.6282    0.0112 H   0  0  0  0  0  0  0  0  0  0  0  0
   -7.6699    0.1339    1.6681 H   0  0  0  0  0  0  0  0  0  0  0  0
  1 28  1  0  0  0  0
  1 32  1  0  0  0  0
  2 29  1  0  0  0  0
  2 52  1  0  0  0  0
  3 27  2  0  0  0  0
  4 30  2  0  0  0  0
  5 10  1  0  0  0  0
  5 14  1  0  0  0  0
  5 17  1  0  0  0  0
  6 11  1  0  0  0  0
  6 14  2  0  0  0  0
  7 14  1  0  0  0  0
  7 22  2  3  0  0  0
  8 27  1  0  0  0  0
  8 30  1  0  0  0  0
  8 31  1  0  0  0  0
  9 22  1  0  0  0  0
  9 30  1  0  0  0  0
  9 48  1  0  0  0  0
 10 11  2  0  0  0  0
 10 12  1  0  0  0  0
 11 13  1  0  0  0  0
 12 15  1  0  0  0  0
 12 33  1  0  0  0  0
 12 34  1  0  0  0  0
 13 16  1  0  0  0  0
 13 35  1  0  0  0  0
 13 36  1  0  0  0  0
 15 18  2  0  0  0  0
 15 19  1  0  0  0  0
 16 20  2  0  0  0  0
 16 21  1  0  0  0  0
 17 37  1  0  0  0  0
 17 38  1  0  0  0  0
 17 39  1  0  0  0  0
 18 23  1  0  0  0  0
 18 40  1  0  0  0  0
 19 24  2  0  0  0  0
 19 41  1  0  0  0  0
 20 25  1  0  0  0  0
 20 42  1  0  0  0  0
 21 26  2  0  0  0  0
 21 43  1  0  0  0  0
 22 27  1  0  0  0  0
 23 29  2  0  0  0  0
 23 44  1  0  0  0  0
 24 29  1  0  0  0  0
 24 45  1  0  0  0  0
 25 28  2  0  0  0  0
 25 46  1  0  0  0  0
 26 28  1  0  0  0  0
 26 47  1  0  0  0  0
 31 49  1  0  0  0  0
 31 50  1  0  0  0  0
 31 51  1  0  0  0  0
 32 53  1  0  0  0  0
 32 54  1  0  0  0  0
 32 55  1  0  0  0  0
M  END
> <PUBCHEM_COMPOUND_CID>
135511071

> <PUBCHEM_CONFORMER_RMSD>
0.8

> <PUBCHEM_CONFORMER_DIVERSEORDER>
2
63
81
53
26
64
78
101
28
69
44
97
65
91
75
99
61
77
100
83
43
37
52
15
87
33
67
96
47
68
74
70
73
57
88
5
58
60
93
41
98
80
51
9
71
84
76
66
45
3
10
48
55
95
56
86
72
54
40
79
38
92
62
46
13
30
34
18
14
89
94
39
36
21
24
50
59
31
82
11
49
12
35
25
7
90
32
23
27
85
22
42
1
16
29
4
17
20
19
6
8

> <PUBCHEM_MMFF94_PARTIAL_CHARGES>
42
1 -0.36
10 -0.33
11 0.05
12 0.32
13 0.32
14 0.31
15 -0.14
16 -0.14
17 0.26
18 -0.15
19 -0.15
2 -0.53
20 -0.15
21 -0.15
22 0.51
23 -0.15
24 -0.15
25 -0.15
26 -0.15
27 0.63
28 0.08
29 0.08
3 -0.57
30 0.69
31 0.3
32 0.28
4 -0.57
40 0.15
41 0.15
42 0.15
43 0.15
44 0.15
45 0.15
46 0.15
47 0.15
48 0.37
5 0.05
52 0.45
6 -0.57
7 -0.58
8 -0.42
9 -0.49

> <PUBCHEM_EFFECTIVE_ROTOR_COUNT>
6.4

> <PUBCHEM_PHARMACOPHORE_FEATURES>
10
1 1 acceptor
1 2 donor
1 3 acceptor
1 4 acceptor
1 9 donor
4 5 6 7 14 cation
5 5 6 10 11 14 rings
5 8 9 22 27 30 rings
6 15 18 19 23 24 29 rings
6 16 20 21 25 26 28 rings

> <PUBCHEM_HEAVY_ATOM_COUNT>
32

> <PUBCHEM_ATOM_DEF_STEREO_COUNT>
0

> <PUBCHEM_ATOM_UDEF_STEREO_COUNT>
0

> <PUBCHEM_BOND_DEF_STEREO_COUNT>
0

> <PUBCHEM_BOND_UDEF_STEREO_COUNT>
1

> <PUBCHEM_ISOTOPIC_ATOM_COUNT>
0

> <PUBCHEM_COMPONENT_COUNT>
1

> <PUBCHEM_CACTVS_TAUTO_COUNT>
-1

> <PUBCHEM_CONFORMER_ID>
0813BC1F00000002

> <PUBCHEM_MMFF94_ENERGY>
88.5237

> <PUBCHEM_FEATURE_SELFOVERLAP>
50.747

> <PUBCHEM_SHAPE_FINGERPRINT>
10169797 241 17823143474717197603
10554248 39 18269253782658876797
10675989 125 18198628928442791280
10721379 63 18270691964224732628
11028528 32 17988647466461926680
11045515 52 18190741925446116156
11421498 54 18046344132633119291
11445158 3 18342729715866844175
11488393 25 18263367052077731018
11763715 3 18049178678468423862
12160290 23 17048482256234153777
12788726 201 17757828922845052571
13009979 54 17988927713361930257
13673619 4 18114745933025186823
13955234 65 18339358681861705681
14114211 68 18192443089489820561
14675019 173 18268433421755303017
14955137 171 18341895143634171999
15439362 3 18337391663912724173
15444296 121 18052823538356604489
15664445 248 18271536312072378534
15775530 1 17971763417144341866
15927050 60 18053383489826572575
17686467 74 18198613347377348122
17980427 26 17908184092969999889
1813 80 18340194198713213059
20028762 73 17187001437395553159
21049683 271 18334020475235458236
21120745 212 18053950550269261680
21641784 216 18124886646841948614
21781055 127 16486155941735791587
21927370 108 18193849145322295466
2260408 40 18130772486924415387
22950370 63 18340204064649315295
23559900 14 18341601625906656491
23566358 27 18339634650980701095
24180151 248 18260264162009693261
244849 19 17969238883228870267
24771750 20 18263369264360525684
249999 5 18338233885751122785
3411729 13 18190172572055373377
4516262 110 18194111053277442077
469060 322 18053393106031222306
5385378 56 18267022932999731337
58260988 587 18263369260060354561
59444896 2 17700449981074237232
6669772 16 18194125341894858668
6700243 42 17627532448937278086
6703917 75 17616263919368394293
9962374 69 18271515473645705015

> <PUBCHEM_SHAPE_MULTIPOLES>
610.16
13.4
6.77
1.5
28.9
6.18
-0.27
-8.93
2
-15.81
0.24
-1.01
0.29
-0.52

> <PUBCHEM_SHAPE_SELFOVERLAP>
1336.166

> <PUBCHEM_SHAPE_VOLUME>
329.2

> <PUBCHEM_COORDINATE_TYPE>
2
5
10

$$$$
