135538639
  -OEChem-03292013293D

 31 33  0     1  0  0  0  0  0999 V2000
   -2.6145    0.0853   -1.0315 O   0  0  0  0  0  0  0  0  0  0  0  0
   -4.5250   -1.5998    0.2018 O   0  0  0  0  0  0  0  0  0  0  0  0
    4.3479   -0.3706    0.2219 O   0  0  0  0  0  0  0  0  0  0  0  0
    0.2431    1.5043   -0.0041 N   0  0  0  0  0  0  0  0  0  0  0  0
    2.4337    1.9010    0.2095 N   0  0  0  0  0  0  0  0  0  0  0  0
    0.2430   -0.9109   -0.1652 N   0  0  0  0  0  0  0  0  0  0  0  0
    2.4822   -1.7523   -0.0298 N   0  0  0  0  0  0  0  0  0  0  0  0
    0.6590   -3.2203   -0.2832 N   0  0  0  0  0  0  0  0  0  0  0  0
   -1.2427    1.7858   -0.1119 C   0  0  2  0  0  0  0  0  0  0  0  0
   -2.0381    1.1105    1.0045 C   0  0  0  0  0  0  0  0  0  0  0  0
   -3.1306    0.3385    0.2800 C   0  0  2  0  0  0  0  0  0  0  0  0
   -1.8688    1.2510   -1.3997 C   0  0  0  0  0  0  0  0  0  0  0  0
   -3.4958   -0.9719    0.9500 C   0  0  0  0  0  0  0  0  0  0  0  0
    0.8559    0.2862   -0.0330 C   0  0  0  0  0  0  0  0  0  0  0  0
    1.2340    2.4441    0.1434 C   0  0  0  0  0  0  0  0  0  0  0  0
    2.1950    0.5630    0.0999 C   0  0  0  0  0  0  0  0  0  0  0  0
    3.1381   -0.5210    0.1083 C   0  0  0  0  0  0  0  0  0  0  0  0
    1.0836   -1.9227   -0.1608 C   0  0  0  0  0  0  0  0  0  0  0  0
   -1.3186    2.8785   -0.0689 H   0  0  0  0  0  0  0  0  0  0  0  0
   -1.4180    0.4501    1.6207 H   0  0  0  0  0  0  0  0  0  0  0  0
   -2.4777    1.8465    1.6868 H   0  0  0  0  0  0  0  0  0  0  0  0
   -4.0273    0.9596    0.1576 H   0  0  0  0  0  0  0  0  0  0  0  0
   -2.5747    1.9795   -1.8149 H   0  0  0  0  0  0  0  0  0  0  0  0
   -1.1442    0.9919   -2.1771 H   0  0  0  0  0  0  0  0  0  0  0  0
   -3.8537   -0.8050    1.9706 H   0  0  0  0  0  0  0  0  0  0  0  0
   -2.6393   -1.6537    0.9721 H   0  0  0  0  0  0  0  0  0  0  0  0
    1.0213    3.5031    0.1961 H   0  0  0  0  0  0  0  0  0  0  0  0
   -4.7384   -2.4343    0.6532 H   0  0  0  0  0  0  0  0  0  0  0  0
    3.0580   -2.5893   -0.0363 H   0  0  0  0  0  0  0  0  0  0  0  0
   -0.3256   -3.4431   -0.3814 H   0  0  0  0  0  0  0  0  0  0  0  0
    1.3144   -3.9942   -0.2786 H   0  0  0  0  0  0  0  0  0  0  0  0
  1 11  1  0  0  0  0
  1 12  1  0  0  0  0
  2 13  1  0  0  0  0
  2 28  1  0  0  0  0
  3 17  2  0  0  0  0
  4  9  1  0  0  0  0
  4 14  1  0  0  0  0
  4 15  1  0  0  0  0
  5 15  2  0  0  0  0
  5 16  1  0  0  0  0
  6 14  1  0  0  0  0
  6 18  2  0  0  0  0
  7 17  1  0  0  0  0
  7 18  1  0  0  0  0
  7 29  1  0  0  0  0
  8 18  1  0  0  0  0
  8 30  1  0  0  0  0
  8 31  1  0  0  0  0
  9 10  1  0  0  0  0
  9 12  1  0  0  0  0
  9 19  1  0  0  0  0
 10 11  1  0  0  0  0
 10 20  1  0  0  0  0
 10 21  1  0  0  0  0
 11 13  1  0  0  0  0
 11 22  1  0  0  0  0
 12 23  1  0  0  0  0
 12 24  1  0  0  0  0
 13 25  1  0  0  0  0
 13 26  1  0  0  0  0
 14 16  2  0  0  0  0
 15 27  1  0  0  0  0
 16 17  1  0  0  0  0
M  END
> <PUBCHEM_COMPOUND_CID>
135538639

> <PUBCHEM_CONFORMER_RMSD>
0.6

> <PUBCHEM_CONFORMER_DIVERSEORDER>
1
4
7
16
19
14
10
6
5
17
2
15
11
13
3
18
8
12
9

> <PUBCHEM_MMFF94_PARTIAL_CHARGES>
22
1 -0.56
11 0.28
12 0.28
13 0.28
14 -0.03
15 0.04
16 0.14
17 0.72
18 0.56
2 -0.68
27 0.15
28 0.4
29 0.37
3 -0.57
30 0.4
31 0.4
4 0.05
5 -0.57
6 -0.58
7 -0.49
8 -0.85
9 0.26

> <PUBCHEM_EFFECTIVE_ROTOR_COUNT>
3

> <PUBCHEM_PHARMACOPHORE_FEATURES>
10
1 1 acceptor
1 2 acceptor
1 2 donor
1 3 acceptor
1 7 donor
1 8 donor
3 4 5 15 cation
5 1 9 10 11 12 rings
5 4 5 14 15 16 rings
6 6 7 14 16 17 18 rings

> <PUBCHEM_HEAVY_ATOM_COUNT>
18

> <PUBCHEM_ATOM_DEF_STEREO_COUNT>
2

> <PUBCHEM_ATOM_UDEF_STEREO_COUNT>
0

> <PUBCHEM_BOND_DEF_STEREO_COUNT>
0

> <PUBCHEM_BOND_UDEF_STEREO_COUNT>
0

> <PUBCHEM_ISOTOPIC_ATOM_COUNT>
0

> <PUBCHEM_COMPONENT_COUNT>
1

> <PUBCHEM_CACTVS_TAUTO_COUNT>
-1

> <PUBCHEM_CONFORMER_ID>
081427CF00000001

> <PUBCHEM_MMFF94_ENERGY>
40.2535

> <PUBCHEM_FEATURE_SELFOVERLAP>
50.928

> <PUBCHEM_SHAPE_FINGERPRINT>
108231 29 18342175557637792704
10967382 1 18267022945462107200
11471102 22 18410301301988684921
12032990 46 18339928113042069758
12553582 1 17403460667451501575
12596599 1 17773897435398568543
13140716 1 18195804300424334218
13583140 156 16880439762803905632
14178342 30 18197213655150544280
14251705 54 18338239262797073723
16945 1 18267861696951658644
19107657 46 18410013191435266155
193761 8 17979350086647210444
19591789 44 18411703162757072910
200 152 18201990032952077469
20028762 73 18059009622001405023
20201158 50 18335420119436289185
20645477 70 18335413621578090175
221490 88 18408890620186184690
22445834 79 18200879478657603593
22721475 48 18334023765370323625
2334 1 18051407667357124950
23557571 272 17458339737283840645
23559900 14 17975404721215494362
2748010 2 18337658768092223916
2871803 45 18333445456840841471
3286 77 18410014376915019561
33824 294 18337953527486871835
474229 33 18410291415628265874
5493415 88 18336823091820264488
81228 2 17329693831280027808
8809292 202 18187088342790898915
9709674 26 18266736875207922311

> <PUBCHEM_SHAPE_MULTIPOLES>
327.92
6.34
2.74
0.89
1.9
0.94
-0.12
2.12
0.92
-0.66
-0.11
0.66
-0.16
0.46

> <PUBCHEM_SHAPE_SELFOVERLAP>
711.167

> <PUBCHEM_SHAPE_VOLUME>
180

> <PUBCHEM_COORDINATE_TYPE>
2
5
10

$$$$
