135564526
  -OEChem-03292013293D

 48 50  0     0  0  0  0  0  0999 V2000
   -0.1829    2.6889   -0.9433 F   0  0  0  0  0  0  0  0  0  0  0  0
    0.1684    2.8428    1.1913 F   0  0  0  0  0  0  0  0  0  0  0  0
    1.6610    3.5769   -0.2090 F   0  0  0  0  0  0  0  0  0  0  0  0
   -5.0915   -1.1163    2.1027 O   0  0  0  0  0  0  0  0  0  0  0  0
    5.4756    0.7244   -1.1515 O   0  0  0  0  0  0  0  0  0  0  0  0
   -0.6569    0.0912    0.4255 N   0  0  0  0  0  0  0  0  0  0  0  0
   -3.4345    0.0030    0.8947 N   0  0  0  0  0  0  0  0  0  0  0  0
   -5.1840   -1.4204   -1.2653 N   0  0  0  0  0  0  0  0  0  0  0  0
    5.5875   -1.2590    0.0783 N   0  0  0  0  0  0  0  0  0  0  0  0
    7.3398   -2.7187    0.6172 N   0  0  0  0  0  0  0  0  0  0  0  0
    7.7523   -0.8076   -0.6845 N   0  0  0  0  0  0  0  0  0  0  0  0
   -1.5791    0.0275   -0.7175 C   0  0  0  0  0  0  0  0  0  0  0  0
   -1.1605   -0.4554    1.6969 C   0  0  0  0  0  0  0  0  0  0  0  0
   -2.5280    0.1385    2.0302 C   0  0  0  0  0  0  0  0  0  0  0  0
   -2.9356    0.6181   -0.3376 C   0  0  0  0  0  0  0  0  0  0  0  0
    0.7241    0.0457    0.2012 C   0  0  0  0  0  0  0  0  0  0  0  0
   -4.6657   -0.6329    1.0550 C   0  0  0  0  0  0  0  0  0  0  0  0
    1.4528    1.2173   -0.0044 C   0  0  0  0  0  0  0  0  0  0  0  0
    1.3710   -1.1900    0.1853 C   0  0  0  0  0  0  0  0  0  0  0  0
   -5.5379   -0.7563   -0.1199 C   0  0  0  0  0  0  0  0  0  0  0  0
    2.8283    1.1530   -0.2261 C   0  0  0  0  0  0  0  0  0  0  0  0
    2.7466   -1.2541   -0.0364 C   0  0  0  0  0  0  0  0  0  0  0  0
    3.4753   -0.0825   -0.2422 C   0  0  0  0  0  0  0  0  0  0  0  0
    0.7855    2.5541    0.0088 C   0  0  0  0  0  0  0  0  0  0  0  0
   -6.8117   -0.2622   -0.2951 C   0  0  0  0  0  0  0  0  0  0  0  0
    4.9092   -0.1502   -0.4735 C   0  0  0  0  0  0  0  0  0  0  0  0
   -6.2129   -1.3583   -2.1686 C   0  0  0  0  0  0  0  0  0  0  0  0
   -7.2386   -0.6429   -1.5913 C   0  0  0  0  0  0  0  0  0  0  0  0
    6.9422   -1.5746   -0.0208 C   0  0  0  0  0  0  0  0  0  0  0  0
   -0.4688   -0.2282    2.5173 H   0  0  0  0  0  0  0  0  0  0  0  0
   -1.2421   -1.5466    1.6169 H   0  0  0  0  0  0  0  0  0  0  0  0
   -1.6996   -1.0204   -1.0197 H   0  0  0  0  0  0  0  0  0  0  0  0
   -1.1774    0.5717   -1.5794 H   0  0  0  0  0  0  0  0  0  0  0  0
   -2.4371    1.2094    2.2486 H   0  0  0  0  0  0  0  0  0  0  0  0
   -3.6325    0.5369   -1.1712 H   0  0  0  0  0  0  0  0  0  0  0  0
   -2.9388   -0.3468    2.9211 H   0  0  0  0  0  0  0  0  0  0  0  0
   -2.8270    1.6904   -0.1298 H   0  0  0  0  0  0  0  0  0  0  0  0
    0.8173   -2.1144    0.3288 H   0  0  0  0  0  0  0  0  0  0  0  0
    3.4007    2.0642   -0.3816 H   0  0  0  0  0  0  0  0  0  0  0  0
    3.2012   -2.2394   -0.0770 H   0  0  0  0  0  0  0  0  0  0  0  0
   -4.3022   -1.8896   -1.4208 H   0  0  0  0  0  0  0  0  0  0  0  0
   -7.3749    0.3100    0.4292 H   0  0  0  0  0  0  0  0  0  0  0  0
   -6.1235   -1.8274   -3.1382 H   0  0  0  0  0  0  0  0  0  0  0  0
   -8.1898   -0.4208   -2.0542 H   0  0  0  0  0  0  0  0  0  0  0  0
    5.0546   -1.9082    0.6490 H   0  0  0  0  0  0  0  0  0  0  0  0
    8.3065   -3.0248    0.5986 H   0  0  0  0  0  0  0  0  0  0  0  0
    6.6806   -3.2962    1.1277 H   0  0  0  0  0  0  0  0  0  0  0  0
    8.6962   -1.2069   -0.6392 H   0  0  0  0  0  0  0  0  0  0  0  0
  1 24  1  0  0  0  0
  2 24  1  0  0  0  0
  3 24  1  0  0  0  0
  4 17  2  0  0  0  0
  5 26  2  0  0  0  0
  6 12  1  0  0  0  0
  6 13  1  0  0  0  0
  6 16  1  0  0  0  0
  7 14  1  0  0  0  0
  7 15  1  0  0  0  0
  7 17  1  0  0  0  0
  8 20  1  0  0  0  0
  8 27  1  0  0  0  0
  8 41  1  0  0  0  0
  9 26  1  0  0  0  0
  9 29  1  0  0  0  0
  9 45  1  0  0  0  0
 10 29  1  0  0  0  0
 10 46  1  0  0  0  0
 10 47  1  0  0  0  0
 11 29  2  0  0  0  0
 11 48  1  0  0  0  0
 12 15  1  0  0  0  0
 12 32  1  0  0  0  0
 12 33  1  0  0  0  0
 13 14  1  0  0  0  0
 13 30  1  0  0  0  0
 13 31  1  0  0  0  0
 14 34  1  0  0  0  0
 14 36  1  0  0  0  0
 15 35  1  0  0  0  0
 15 37  1  0  0  0  0
 16 18  2  0  0  0  0
 16 19  1  0  0  0  0
 17 20  1  0  0  0  0
 18 21  1  0  0  0  0
 18 24  1  0  0  0  0
 19 22  2  0  0  0  0
 19 38  1  0  0  0  0
 20 25  2  0  0  0  0
 21 23  2  0  0  0  0
 21 39  1  0  0  0  0
 22 23  1  0  0  0  0
 22 40  1  0  0  0  0
 23 26  1  0  0  0  0
 25 28  1  0  0  0  0
 25 42  1  0  0  0  0
 27 28  2  0  0  0  0
 27 43  1  0  0  0  0
 28 44  1  0  0  0  0
M  END
> <PUBCHEM_COMPOUND_CID>
135564526

> <PUBCHEM_CONFORMER_RMSD>
1

> <PUBCHEM_CONFORMER_DIVERSEORDER>
1
14
18
19
17
5
9
20
10
13
4
7
11
8
3
16
12
21
15
2
6

> <PUBCHEM_MMFF94_PARTIAL_CHARGES>
40
1 -0.34
10 -0.85
11 -0.85
12 0.37
13 0.37
14 0.3
15 0.3
16 0.1
17 0.71
18 -0.14
19 -0.15
2 -0.34
20 -0.24
21 -0.15
22 -0.15
23 0.09
24 1.16
25 -0.15
26 0.54
27 -0.3
28 -0.15
29 0.56
3 -0.34
38 0.15
39 0.15
4 -0.57
40 0.15
41 0.27
42 0.15
43 0.15
44 0.15
45 0.37
46 0.4
47 0.4
48 0.4
5 -0.57
6 -0.84
7 -0.66
8 0.03
9 -0.49

> <PUBCHEM_EFFECTIVE_ROTOR_COUNT>
8.2

> <PUBCHEM_PHARMACOPHORE_FEATURES>
11
1 10 donor
1 11 donor
1 4 acceptor
1 5 acceptor
1 6 cation
1 8 cation
1 8 donor
1 9 donor
5 8 20 25 27 28 rings
6 16 18 19 21 22 23 rings
6 6 7 12 13 14 15 rings

> <PUBCHEM_HEAVY_ATOM_COUNT>
29

> <PUBCHEM_ATOM_DEF_STEREO_COUNT>
0

> <PUBCHEM_ATOM_UDEF_STEREO_COUNT>
0

> <PUBCHEM_BOND_DEF_STEREO_COUNT>
0

> <PUBCHEM_BOND_UDEF_STEREO_COUNT>
0

> <PUBCHEM_ISOTOPIC_ATOM_COUNT>
0

> <PUBCHEM_COMPONENT_COUNT>
1

> <PUBCHEM_CACTVS_TAUTO_COUNT>
-1

> <PUBCHEM_CONFORMER_ID>
08148CEE00000001

> <PUBCHEM_MMFF94_ENERGY>
83.9543

> <PUBCHEM_FEATURE_SELFOVERLAP>
55.946

> <PUBCHEM_SHAPE_FINGERPRINT>
10 15 13254792443365783534
106641 1 13110955444579668839
10670039 82 16515675612316063573
11135609 99 17059767931196944630
11315181 36 17458354034691709891
11796584 16 16588309423287316930
12011746 2 17821727251952443853
12120059 9 18041265665040106546
12166972 35 18131631218222220681
12236239 1 17704075118276479569
12342043 65 17171268366725829251
12403259 415 17313949753111095553
12539765 74 11891336414050108978
12616971 3 17845389880902437729
12760667 363 18335426725380879226
13165053 103 17903335036850578454
13726171 33 13768746986612727279
13782708 43 17894352202369580458
13862211 1 18413108347075196022
14068700 675 17917992780430027145
14251764 18 17917994997181407230
14931854 50 17458345196055586946
15183329 4 16950278481703542474
15188451 53 17275101739026157055
15320294 125 17275097371593154943
15475509 8 12324239422025326426
16126227 98 9150875188449526770
18006028 8 18410013221842798688
18222031 100 18342736329678655160
18681886 176 17917422168460638611
20028762 73 17917713500461413598
21033648 29 17241323724356948809
21315764 119 15213306301008004370
21424621 283 12396300369978421350
21637258 2 18060697290581085722
21792961 116 17895473635969273326
221357 26 18333444348818608653
22393880 68 17749945691658741307
23522609 53 18126879111756000592
23559900 14 17895478149906197785
249057 3 18343863312967120309
3004659 81 17531250552518839890
3633792 109 17022629663570584190
4112364 45 13829832670191640210
4340502 62 14908185235809185204
474113 269 17677318404685087386
5219985 9 18342457028367125536
5758199 1 8286198353302375678
59682541 35 14836114473428589594
5969126 39 18337669724348100300
59755656 520 10665233669601986448
7471813 234 18131356340658349985
9953998 17 13758076303701217079

> <PUBCHEM_SHAPE_MULTIPOLES>
533.36
19.67
2.39
1.53
5.87
2.03
0.31
-14.98
-6.17
2.85
-0.14
-2.86
-0.33
-1.24

> <PUBCHEM_SHAPE_SELFOVERLAP>
1149.106

> <PUBCHEM_SHAPE_VOLUME>
293

> <PUBCHEM_COORDINATE_TYPE>
2
5
10

$$$$
