135566959
  -OEChem-03292013293D

 55 57  0     1  0  0  0  0  0999 V2000
   -6.4126    0.1361    1.9741 O   0  0  0  0  0  0  0  0  0  0  0  0
   -3.4845    2.8174   -1.1318 O   0  0  0  0  0  0  0  0  0  0  0  0
   -4.2776    0.1619    2.7429 O   0  0  0  0  0  0  0  0  0  0  0  0
   -4.1255   -3.8646   -1.3917 O   0  0  0  0  0  0  0  0  0  0  0  0
    2.2591   -2.4575    2.7263 O   0  0  0  0  0  0  0  0  0  0  0  0
   -5.4818   -2.4437   -2.5268 O   0  0  0  0  0  0  0  0  0  0  0  0
    4.6731    4.3316   -0.6827 O   0  0  0  0  0  0  0  0  0  0  0  0
    2.8350    3.0243   -0.0170 N   0  0  0  0  0  0  0  0  0  0  0  0
   -3.3131    1.0970    0.4133 N   0  0  0  0  0  0  0  0  0  0  0  0
    2.6965   -3.9324    1.0046 N   0  0  0  0  0  0  0  0  0  0  0  0
    3.5741   -3.2339   -1.0636 N   0  0  0  0  0  0  0  0  0  0  0  0
    3.1080   -5.4991   -0.6794 N   0  0  0  0  0  0  0  0  0  0  0  0
   -4.7120    0.7335    0.4155 C   0  0  1  0  0  0  0  0  0  0  0  0
   -5.0543   -0.3107   -0.6541 C   0  0  0  0  0  0  0  0  0  0  0  0
    3.6408    2.1573    0.8045 C   0  0  0  0  0  0  0  0  0  0  0  0
    3.6175    0.7435    0.3293 C   0  0  0  0  0  0  0  0  0  0  0  0
   -4.3601   -1.6706   -0.5071 C   0  0  0  0  0  0  0  0  0  0  0  0
    1.4003    2.7944   -0.1075 C   0  0  0  0  0  0  0  0  0  0  0  0
   -1.3493    2.3561   -0.2796 C   0  0  0  0  0  0  0  0  0  0  0  0
    3.1564   -0.2671    1.1711 C   0  0  0  0  0  0  0  0  0  0  0  0
    3.1393   -1.5885    0.7151 C   0  0  0  0  0  0  0  0  0  0  0  0
   -2.7828    2.1285   -0.3702 C   0  0  0  0  0  0  0  0  0  0  0  0
    4.0570    0.4347   -0.9571 C   0  0  0  0  0  0  0  0  0  0  0  0
    3.5777   -1.9149   -0.5750 C   0  0  0  0  0  0  0  0  0  0  0  0
    0.7112    3.1355   -1.2714 C   0  0  0  0  0  0  0  0  0  0  0  0
    0.7146    2.2343    0.9704 C   0  0  0  0  0  0  0  0  0  0  0  0
   -5.0730    0.3077    1.8238 C   0  0  0  0  0  0  0  0  0  0  0  0
   -0.6636    2.9163   -1.3574 C   0  0  0  0  0  0  0  0  0  0  0  0
   -0.6602    2.0152    0.8844 C   0  0  0  0  0  0  0  0  0  0  0  0
    4.0368   -0.8874   -1.4064 C   0  0  0  0  0  0  0  0  0  0  0  0
    2.6563   -2.6764    1.5880 C   0  0  0  0  0  0  0  0  0  0  0  0
   -4.7217   -2.6605   -1.5933 C   0  0  0  0  0  0  0  0  0  0  0  0
    3.4726    4.0699   -0.7056 C   0  0  0  0  0  0  0  0  0  0  0  0
    3.1455   -4.1878   -0.2857 C   0  0  0  0  0  0  0  0  0  0  0  0
   -5.2833    1.6472    0.2083 H   0  0  0  0  0  0  0  0  0  0  0  0
   -6.1398   -0.4751   -0.6583 H   0  0  0  0  0  0  0  0  0  0  0  0
   -4.8087    0.1006   -1.6422 H   0  0  0  0  0  0  0  0  0  0  0  0
    3.3253    2.2545    1.8498 H   0  0  0  0  0  0  0  0  0  0  0  0
    4.6873    2.4879    0.8050 H   0  0  0  0  0  0  0  0  0  0  0  0
   -4.6344   -2.1195    0.4539 H   0  0  0  0  0  0  0  0  0  0  0  0
   -3.2734   -1.5348   -0.5346 H   0  0  0  0  0  0  0  0  0  0  0  0
   -2.6908    0.5093    0.9586 H   0  0  0  0  0  0  0  0  0  0  0  0
    2.8179   -0.0264    2.1753 H   0  0  0  0  0  0  0  0  0  0  0  0
    4.4242    1.2117   -1.6223 H   0  0  0  0  0  0  0  0  0  0  0  0
    1.2164    3.5421   -2.1424 H   0  0  0  0  0  0  0  0  0  0  0  0
    1.2035    1.9873    1.9068 H   0  0  0  0  0  0  0  0  0  0  0  0
   -1.1802    3.1780   -2.2772 H   0  0  0  0  0  0  0  0  0  0  0  0
   -1.1614    1.6117    1.7594 H   0  0  0  0  0  0  0  0  0  0  0  0
    4.3842   -1.1111   -2.4122 H   0  0  0  0  0  0  0  0  0  0  0  0
    2.7766    4.7064   -1.2709 H   0  0  0  0  0  0  0  0  0  0  0  0
    2.3755   -4.7201    1.5598 H   0  0  0  0  0  0  0  0  0  0  0  0
   -6.6470   -0.1242    2.8903 H   0  0  0  0  0  0  0  0  0  0  0  0
    3.4166   -5.7787   -1.6041 H   0  0  0  0  0  0  0  0  0  0  0  0
    2.7715   -6.2282   -0.0600 H   0  0  0  0  0  0  0  0  0  0  0  0
   -4.3718   -4.5147   -2.0838 H   0  0  0  0  0  0  0  0  0  0  0  0
  1 27  1  0  0  0  0
  1 52  1  0  0  0  0
  2 22  2  0  0  0  0
  3 27  2  0  0  0  0
  4 32  1  0  0  0  0
  4 55  1  0  0  0  0
  5 31  2  0  0  0  0
  6 32  2  0  0  0  0
  7 33  2  0  0  0  0
  8 15  1  0  0  0  0
  8 18  1  0  0  0  0
  8 33  1  0  0  0  0
  9 13  1  0  0  0  0
  9 22  1  0  0  0  0
  9 42  1  0  0  0  0
 10 31  1  0  0  0  0
 10 34  1  0  0  0  0
 10 51  1  0  0  0  0
 11 24  1  0  0  0  0
 11 34  2  0  0  0  0
 12 34  1  0  0  0  0
 12 53  1  0  0  0  0
 12 54  1  0  0  0  0
 13 14  1  0  0  0  0
 13 27  1  0  0  0  0
 13 35  1  0  0  0  0
 14 17  1  0  0  0  0
 14 36  1  0  0  0  0
 14 37  1  0  0  0  0
 15 16  1  0  0  0  0
 15 38  1  0  0  0  0
 15 39  1  0  0  0  0
 16 20  2  0  0  0  0
 16 23  1  0  0  0  0
 17 32  1  0  0  0  0
 17 40  1  0  0  0  0
 17 41  1  0  0  0  0
 18 25  2  0  0  0  0
 18 26  1  0  0  0  0
 19 22  1  0  0  0  0
 19 28  2  0  0  0  0
 19 29  1  0  0  0  0
 20 21  1  0  0  0  0
 20 43  1  0  0  0  0
 21 24  2  0  0  0  0
 21 31  1  0  0  0  0
 23 30  2  0  0  0  0
 23 44  1  0  0  0  0
 24 30  1  0  0  0  0
 25 28  1  0  0  0  0
 25 45  1  0  0  0  0
 26 29  2  0  0  0  0
 26 46  1  0  0  0  0
 28 47  1  0  0  0  0
 29 48  1  0  0  0  0
 30 49  1  0  0  0  0
 33 50  1  0  0  0  0
M  END
> <PUBCHEM_COMPOUND_CID>
135566959

> <PUBCHEM_CONFORMER_RMSD>
1

> <PUBCHEM_CONFORMER_DIVERSEORDER>
1
15
197
42
238
65
225
145
209
206
108
122
109
66
23
17
194
90
99
88
140
202
111
223
207
102
85
240
252
244
106
146
245
133
38
160
233
96
91
222
170
193
11
152
159
46
123
242
19
230
239
205
214
63
29
208
16
114
237
168
98
187
181
196
44
153
54
204
57
49
92
125
188
21
27
137
61
250
218
156
178
13
84
228
166
89
253
37
127
81
139
215
50
35
195
39
78
28
235
129
104
247
56
83
2
110
211
95
70
151
69
224
199
77
185
52
73
107
246
12
186
255
183
256
93
234
126
36
254
30
158
231
80
147
86
135
112
116
124
226
251
87
217
34
53
130
67
59
115
227
167
179
7
22
221
164
25
100
5
47
94
33
171
121
31
201
184
97
180
48
45
203
138
216
200
144
173
220
101
120
190
219
40
62
134
82
165
26
176
163
155
43
60
136
14
257
213
243
142
117
105
175
55
24
8
258
210
182
162
72
128
232
71
41
161
10
3
68
32
131
143
75
189
76
172
241
174
9
157
198
51
103
4
148
212
154
20
64
113
192
248
6
132
177
18
119
150
229
191
141
236
79
249
169
74
118
58
149

> <PUBCHEM_MMFF94_PARTIAL_CHARGES>
47
1 -0.65
10 -0.49
11 -0.63
12 -0.85
13 0.36
15 0.44
16 -0.14
17 0.06
18 0.12
19 0.09
2 -0.57
20 -0.15
21 0.09
22 0.54
23 -0.15
24 0.18
25 -0.15
26 -0.15
27 0.66
28 -0.15
29 -0.15
3 -0.57
30 -0.15
31 0.54
32 0.66
33 0.57
34 0.56
4 -0.65
42 0.37
43 0.15
44 0.15
45 0.15
46 0.15
47 0.15
48 0.15
49 0.15
5 -0.57
50 0.06
51 0.37
52 0.5
53 0.4
54 0.4
55 0.5
6 -0.57
7 -0.57
8 -0.48
9 -0.73

> <PUBCHEM_EFFECTIVE_ROTOR_COUNT>
11

> <PUBCHEM_PHARMACOPHORE_FEATURES>
15
1 1 acceptor
1 10 donor
1 12 donor
1 2 acceptor
1 3 acceptor
1 4 acceptor
1 5 acceptor
1 6 acceptor
1 7 acceptor
1 9 donor
3 1 3 27 anion
3 4 6 32 anion
6 10 11 21 24 31 34 rings
6 16 20 21 23 24 30 rings
6 18 19 25 26 28 29 rings

> <PUBCHEM_HEAVY_ATOM_COUNT>
34

> <PUBCHEM_ATOM_DEF_STEREO_COUNT>
1

> <PUBCHEM_ATOM_UDEF_STEREO_COUNT>
0

> <PUBCHEM_BOND_DEF_STEREO_COUNT>
0

> <PUBCHEM_BOND_UDEF_STEREO_COUNT>
0

> <PUBCHEM_ISOTOPIC_ATOM_COUNT>
0

> <PUBCHEM_COMPONENT_COUNT>
1

> <PUBCHEM_CACTVS_TAUTO_COUNT>
-1

> <PUBCHEM_CONFORMER_ID>
0814966F00000001

> <PUBCHEM_MMFF94_ENERGY>
92.7153

> <PUBCHEM_FEATURE_SELFOVERLAP>
76.316

> <PUBCHEM_SHAPE_FINGERPRINT>
10928967 22 18266465295514562755
13692114 37 17981878955160467496
14556957 393 12108057973099991531
15001296 14 18409444813081285943
15250474 111 18270394005553676581
15320291 9 18343013372651056479
15347590 135 17053858224334571241
17909252 39 18188225220634721960
20028762 73 18340480179833381524
20764821 26 17972323072941677291
20775530 9 18191025603830655258
21033648 29 13470142765313043505
21133410 38 18199760313417918675
21133410 62 17542190877298445431
23379529 103 17692813692810403326
23516275 137 17484286059546303174
25222932 49 18341608188342216484
444735 86 18339346578459450767
463206 1 18265900331432216553
50080093 196 18195794391851022927
5326457 24 18272369828185978463
613672 6 17831841479143994312
66674814 147 17975963577426681643
86090 222 17604728762297202289

> <PUBCHEM_SHAPE_MULTIPOLES>
633.71
13.24
7.02
2.01
17.53
4.32
0.71
5.82
-0.34
-7.66
-2.45
2.01
1.09
-2.55

> <PUBCHEM_SHAPE_SELFOVERLAP>
1359.865

> <PUBCHEM_SHAPE_VOLUME>
345.5

> <PUBCHEM_COORDINATE_TYPE>
2
5
10

$$$$
