135538683
  -OEChem-03292013293D

 35 37  0     1  0  0  0  0  0999 V2000
   -1.9044   -0.0474   -1.8214 O   0  0  0  0  0  0  0  0  0  0  0  0
   -3.9204    1.7398   -1.2589 O   0  0  0  0  0  0  0  0  0  0  0  0
   -4.9674   -1.5522    1.1404 O   0  0  0  0  0  0  0  0  0  0  0  0
    4.5420   -1.6875   -0.4845 O   0  0  0  0  0  0  0  0  0  0  0  0
    0.2329   -0.4909    0.1595 N   0  0  0  0  0  0  0  0  0  0  0  0
    1.6138   -2.1716   -0.3604 N   0  0  0  0  0  0  0  0  0  0  0  0
    1.8209    1.3103    0.4646 N   0  0  0  0  0  0  0  0  0  0  0  0
    4.0523    0.5222    0.0905 N   0  0  0  0  0  0  0  0  0  0  0  0
    3.6512    2.7695    0.6667 N   0  0  0  0  0  0  0  0  0  0  0  0
   -1.0612    0.2360    0.4414 C   0  0  2  0  0  0  0  0  0  0  0  0
   -3.4973    0.2830    0.7160 C   0  0  1  0  0  0  0  0  0  0  0  0
   -2.2420   -0.5703    1.0121 C   0  0  0  0  0  0  0  0  0  0  0  0
   -1.6797    0.9095   -0.7901 C   0  0  2  0  0  0  0  0  0  0  0  0
   -3.0132    1.4042   -0.2289 C   0  0  1  0  0  0  0  0  0  0  0  0
   -4.6431   -0.5667    0.1764 C   0  0  0  0  0  0  0  0  0  0  0  0
    1.4931    0.0301    0.1820 C   0  0  0  0  0  0  0  0  0  0  0  0
    0.3575   -1.8181   -0.1718 C   0  0  0  0  0  0  0  0  0  0  0  0
    2.3147   -1.0228   -0.1402 C   0  0  0  0  0  0  0  0  0  0  0  0
    3.7342   -0.8106   -0.2057 C   0  0  0  0  0  0  0  0  0  0  0  0
    3.1162    1.5334    0.4121 C   0  0  0  0  0  0  0  0  0  0  0  0
   -0.7838    1.0023    1.1793 H   0  0  0  0  0  0  0  0  0  0  0  0
   -3.8270    0.7369    1.6603 H   0  0  0  0  0  0  0  0  0  0  0  0
   -2.1161   -0.7294    2.0892 H   0  0  0  0  0  0  0  0  0  0  0  0
   -2.3226   -1.5624    0.5568 H   0  0  0  0  0  0  0  0  0  0  0  0
   -1.0682    1.7182   -1.2005 H   0  0  0  0  0  0  0  0  0  0  0  0
   -2.8380    2.3068    0.3709 H   0  0  0  0  0  0  0  0  0  0  0  0
   -4.3819   -1.0674   -0.7603 H   0  0  0  0  0  0  0  0  0  0  0  0
   -5.5319    0.0495    0.0059 H   0  0  0  0  0  0  0  0  0  0  0  0
   -2.3696   -0.8192   -1.4647 H   0  0  0  0  0  0  0  0  0  0  0  0
   -3.4888    2.4012   -1.8260 H   0  0  0  0  0  0  0  0  0  0  0  0
   -0.4899   -2.4812   -0.2725 H   0  0  0  0  0  0  0  0  0  0  0  0
   -5.7034   -2.0752    0.7797 H   0  0  0  0  0  0  0  0  0  0  0  0
    5.0342    0.7824    0.0726 H   0  0  0  0  0  0  0  0  0  0  0  0
    3.0601    3.5582    0.9059 H   0  0  0  0  0  0  0  0  0  0  0  0
    4.6512    2.9321    0.6237 H   0  0  0  0  0  0  0  0  0  0  0  0
  1 13  1  0  0  0  0
  1 29  1  0  0  0  0
  2 14  1  0  0  0  0
  2 30  1  0  0  0  0
  3 15  1  0  0  0  0
  3 32  1  0  0  0  0
  4 19  2  0  0  0  0
  5 10  1  0  0  0  0
  5 16  1  0  0  0  0
  5 17  1  0  0  0  0
  6 17  2  0  0  0  0
  6 18  1  0  0  0  0
  7 16  1  0  0  0  0
  7 20  2  0  0  0  0
  8 19  1  0  0  0  0
  8 20  1  0  0  0  0
  8 33  1  0  0  0  0
  9 20  1  0  0  0  0
  9 34  1  0  0  0  0
  9 35  1  0  0  0  0
 10 12  1  0  0  0  0
 10 13  1  0  0  0  0
 10 21  1  0  0  0  0
 11 12  1  0  0  0  0
 11 14  1  0  0  0  0
 11 15  1  0  0  0  0
 11 22  1  0  0  0  0
 12 23  1  0  0  0  0
 12 24  1  0  0  0  0
 13 14  1  0  0  0  0
 13 25  1  0  0  0  0
 14 26  1  0  0  0  0
 15 27  1  0  0  0  0
 15 28  1  0  0  0  0
 16 18  2  0  0  0  0
 17 31  1  0  0  0  0
 18 19  1  0  0  0  0
M  END
> <PUBCHEM_COMPOUND_CID>
135538683

> <PUBCHEM_CONFORMER_RMSD>
0.6

> <PUBCHEM_CONFORMER_DIVERSEORDER>
1
14
19
17
9
7
16
18
13
6
15
12
5
4
11
8
2
10
3

> <PUBCHEM_MMFF94_PARTIAL_CHARGES>
25
1 -0.68
10 0.26
13 0.28
14 0.28
15 0.28
16 -0.03
17 0.04
18 0.14
19 0.72
2 -0.68
20 0.56
29 0.4
3 -0.68
30 0.4
31 0.15
32 0.4
33 0.37
34 0.4
35 0.4
4 -0.57
5 0.05
6 -0.57
7 -0.58
8 -0.49
9 -0.85

> <PUBCHEM_EFFECTIVE_ROTOR_COUNT>
3

> <PUBCHEM_PHARMACOPHORE_FEATURES>
13
1 1 acceptor
1 1 donor
1 2 acceptor
1 2 donor
1 3 acceptor
1 3 donor
1 4 acceptor
1 8 donor
1 9 donor
3 5 6 17 cation
5 10 11 12 13 14 rings
5 5 6 16 17 18 rings
6 7 8 16 18 19 20 rings

> <PUBCHEM_HEAVY_ATOM_COUNT>
20

> <PUBCHEM_ATOM_DEF_STEREO_COUNT>
4

> <PUBCHEM_ATOM_UDEF_STEREO_COUNT>
0

> <PUBCHEM_BOND_DEF_STEREO_COUNT>
0

> <PUBCHEM_BOND_UDEF_STEREO_COUNT>
0

> <PUBCHEM_ISOTOPIC_ATOM_COUNT>
0

> <PUBCHEM_COMPONENT_COUNT>
1

> <PUBCHEM_CACTVS_TAUTO_COUNT>
-1

> <PUBCHEM_CONFORMER_ID>
081427FB00000001

> <PUBCHEM_MMFF94_ENERGY>
56.2417

> <PUBCHEM_FEATURE_SELFOVERLAP>
66.162

> <PUBCHEM_SHAPE_FINGERPRINT>
10366900 7 17894922818755222698
10608611 8 18335699408095622833
11405975 8 18335981952830336057
11471102 20 18341891853683643044
11615757 297 18202568354071166283
12236239 1 17060059224537127467
12403259 226 18335700486390682124
12403259 415 18335422365430190121
12507557 5 18341889654370276416
12670546 56 14273453686768781486
12916754 54 18341618109553132907
14787075 74 18200030793283334035
15196674 1 18410858745825862984
15219456 202 18407758123130363201
15342168 16 18194967563295985140
15961568 22 17386573599384339116
16945 1 18341607071666724858
17349148 13 15285359535458519051
1813 80 17344366457992854390
18186145 218 18131634495608911924
18785283 64 18336547213840256488
200 152 18131627864327041467
20645477 70 18272657822680691758
20681677 76 18335133189872510357
21065201 7 17603302635417401409
221490 88 18411142411357278826
22854114 111 18342739615523841176
22854114 59 18411703213842629697
23402539 116 17458345199886200391
23532345 42 17458626765415601807
23557571 272 17749113253660098101
23559900 14 17895193247007449783
25 1 18411416172841504326
2748010 2 18268717271986032674
3268164 11 17385437722621251871
3286 77 18408609140956542430
350125 39 18339087111164170254
474 4 18272082833886447616
5104073 3 18408887313093009721
5281201 14 18410859845527401388
7495541 125 18334018280950476154
77492 1 17060055925938979505
9709674 26 18334018323757698531
9981440 41 17125043854148546728

> <PUBCHEM_SHAPE_MULTIPOLES>
363.21
9.43
2.16
1.02
2.18
0.42
0.22
0.08
-0.74
-1.55
-0.05
0.9
0.09
1.59

> <PUBCHEM_SHAPE_SELFOVERLAP>
786.952

> <PUBCHEM_SHAPE_VOLUME>
197.5

> <PUBCHEM_COORDINATE_TYPE>
2
5
10

$$$$
