135570616
  -OEChem-03292013293D

 57 59  0     0  0  0  0  0  0999 V2000
   -3.6535   -2.7080    0.1856 O   0  0  0  0  0  0  0  0  0  0  0  0
   -4.3537   -0.4711   -0.2737 O   0  0  0  0  0  0  0  0  0  0  0  0
   -1.0031    1.6571    1.0759 O   0  0  0  0  0  0  0  0  0  0  0  0
    2.7406   -2.1062   -0.3628 O   0  0  0  0  0  0  0  0  0  0  0  0
    0.8418   -3.6958   -0.8659 O   0  0  0  0  0  0  0  0  0  0  0  0
    4.5593   -0.9455   -1.2806 O   0  0  0  0  0  0  0  0  0  0  0  0
   -1.0962    0.5134    3.1163 O   0  0  0  0  0  0  0  0  0  0  0  0
   -1.9781    4.0874   -1.3115 O   0  0  0  0  0  0  0  0  0  0  0  0
    6.7689   -0.3288    0.3853 O   0  0  0  0  0  0  0  0  0  0  0  0
    3.5424    0.4023    0.3832 N   0  0  0  0  0  0  0  0  0  0  0  0
   -0.5721   -0.5146    0.0910 C   0  0  0  0  0  0  0  0  0  0  0  0
   -2.0059   -0.9048   -0.0405 C   0  0  0  0  0  0  0  0  0  0  0  0
    0.4087   -1.4856   -0.1722 C   0  0  0  0  0  0  0  0  0  0  0  0
   -2.3288   -2.3388    0.0212 C   0  0  0  0  0  0  0  0  0  0  0  0
   -0.1359    0.7387    0.5497 C   0  0  0  0  0  0  0  0  0  0  0  0
   -1.3965   -3.2866   -0.1851 C   0  0  0  0  0  0  0  0  0  0  0  0
    1.2253    1.0461    0.6365 C   0  0  0  0  0  0  0  0  0  0  0  0
    0.0173   -2.8854   -0.4580 C   0  0  0  0  0  0  0  0  0  0  0  0
    1.7751   -1.1779   -0.0943 C   0  0  0  0  0  0  0  0  0  0  0  0
   -3.0311   -0.0565   -0.3052 C   0  0  0  0  0  0  0  0  0  0  0  0
    2.1798    0.0943    0.2974 C   0  0  0  0  0  0  0  0  0  0  0  0
   -1.6755   -4.7615   -0.2058 C   0  0  0  0  0  0  0  0  0  0  0  0
   -2.9468    1.3279   -0.6969 C   0  0  0  0  0  0  0  0  0  0  0  0
   -4.5022   -1.6267    0.5454 C   0  0  0  0  0  0  0  0  0  0  0  0
    1.6518    2.3971    1.1238 C   0  0  0  0  0  0  0  0  0  0  0  0
   -3.9921    2.2183   -0.0801 C   0  0  0  0  0  0  0  0  0  0  0  0
   -1.9953    1.7155   -1.5687 C   0  0  0  0  0  0  0  0  0  0  0  0
    4.5736   -0.1120   -0.3898 C   0  0  0  0  0  0  0  0  0  0  0  0
   -1.1752    1.5449    2.4624 C   0  0  0  0  0  0  0  0  0  0  0  0
   -1.7695    3.1147   -2.0313 C   0  0  0  0  0  0  0  0  0  0  0  0
   -1.4822    2.8921    3.0460 C   0  0  0  0  0  0  0  0  0  0  0  0
    5.9165    0.4488   -0.0167 C   0  0  0  0  0  0  0  0  0  0  0  0
   -1.2107    3.2779   -3.4201 C   0  0  0  0  0  0  0  0  0  0  0  0
    6.1033    1.9292   -0.1606 C   0  0  0  0  0  0  0  0  0  0  0  0
   -1.0465   -5.2760    0.5284 H   0  0  0  0  0  0  0  0  0  0  0  0
   -1.4622   -5.1759   -1.1968 H   0  0  0  0  0  0  0  0  0  0  0  0
   -2.7162   -4.9994    0.0341 H   0  0  0  0  0  0  0  0  0  0  0  0
   -5.5361   -1.9711    0.4422 H   0  0  0  0  0  0  0  0  0  0  0  0
   -4.3555   -1.3656    1.6029 H   0  0  0  0  0  0  0  0  0  0  0  0
    2.4881    2.7892    0.5345 H   0  0  0  0  0  0  0  0  0  0  0  0
    0.8646    3.1503    1.0175 H   0  0  0  0  0  0  0  0  0  0  0  0
    1.9443    2.3465    2.1773 H   0  0  0  0  0  0  0  0  0  0  0  0
    3.7833    1.1887    0.9796 H   0  0  0  0  0  0  0  0  0  0  0  0
   -4.0130    2.0904    1.0083 H   0  0  0  0  0  0  0  0  0  0  0  0
   -4.9867    1.9749   -0.4710 H   0  0  0  0  0  0  0  0  0  0  0  0
   -3.8431    3.2819   -0.2651 H   0  0  0  0  0  0  0  0  0  0  0  0
    2.3649   -2.8644   -0.8347 H   0  0  0  0  0  0  0  0  0  0  0  0
   -1.3476    0.9894   -2.0547 H   0  0  0  0  0  0  0  0  0  0  0  0
   -0.5719    3.4937    3.0893 H   0  0  0  0  0  0  0  0  0  0  0  0
   -1.8780    2.7650    4.0575 H   0  0  0  0  0  0  0  0  0  0  0  0
   -2.2446    3.3958    2.4462 H   0  0  0  0  0  0  0  0  0  0  0  0
   -0.1290    3.4214   -3.3608 H   0  0  0  0  0  0  0  0  0  0  0  0
   -1.4292    2.4007   -4.0356 H   0  0  0  0  0  0  0  0  0  0  0  0
   -1.6770    4.1453   -3.8956 H   0  0  0  0  0  0  0  0  0  0  0  0
    5.6535    2.4488    0.6883 H   0  0  0  0  0  0  0  0  0  0  0  0
    5.6532    2.2728   -1.0957 H   0  0  0  0  0  0  0  0  0  0  0  0
    7.1728    2.1555   -0.1939 H   0  0  0  0  0  0  0  0  0  0  0  0
  1 14  1  0  0  0  0
  1 24  1  0  0  0  0
  2 20  1  0  0  0  0
  2 24  1  0  0  0  0
  3 15  1  0  0  0  0
  3 29  1  0  0  0  0
  4 19  1  0  0  0  0
  4 47  1  0  0  0  0
  5 18  2  0  0  0  0
  6 28  2  0  0  0  0
  7 29  2  0  0  0  0
  8 30  2  0  0  0  0
  9 32  2  0  0  0  0
 10 21  1  0  0  0  0
 10 28  1  0  0  0  0
 10 43  1  0  0  0  0
 11 12  1  0  0  0  0
 11 13  1  0  0  0  0
 11 15  2  0  0  0  0
 12 14  1  0  0  0  0
 12 20  2  0  0  0  0
 13 18  1  0  0  0  0
 13 19  2  0  0  0  0
 14 16  2  0  0  0  0
 15 17  1  0  0  0  0
 16 18  1  0  0  0  0
 16 22  1  0  0  0  0
 17 21  2  0  0  0  0
 17 25  1  0  0  0  0
 19 21  1  0  0  0  0
 20 23  1  0  0  0  0
 22 35  1  0  0  0  0
 22 36  1  0  0  0  0
 22 37  1  0  0  0  0
 23 26  1  0  0  0  0
 23 27  2  0  0  0  0
 24 38  1  0  0  0  0
 24 39  1  0  0  0  0
 25 40  1  0  0  0  0
 25 41  1  0  0  0  0
 25 42  1  0  0  0  0
 26 44  1  0  0  0  0
 26 45  1  0  0  0  0
 26 46  1  0  0  0  0
 27 30  1  0  0  0  0
 27 48  1  0  0  0  0
 28 32  1  0  0  0  0
 29 31  1  0  0  0  0
 30 33  1  0  0  0  0
 31 49  1  0  0  0  0
 31 50  1  0  0  0  0
 31 51  1  0  0  0  0
 32 34  1  0  0  0  0
 33 52  1  0  0  0  0
 33 53  1  0  0  0  0
 33 54  1  0  0  0  0
 34 55  1  0  0  0  0
 34 56  1  0  0  0  0
 34 57  1  0  0  0  0
M  END
> <PUBCHEM_COMPOUND_CID>
135570616

> <PUBCHEM_CONFORMER_RMSD>
1

> <PUBCHEM_CONFORMER_DIVERSEORDER>
1
5
2
3
4

> <PUBCHEM_MMFF94_PARTIAL_CHARGES>
37
1 -0.36
10 -0.55
11 0.03
12 -0.03
13 0.09
14 0.08
15 0.08
16 -0.12
17 -0.14
18 0.47
19 0.08
2 -0.36
20 0.08
21 0.12
22 0.14
23 -0.14
24 0.56
25 0.14
26 0.14
27 -0.14
28 0.63
29 0.66
3 -0.23
30 0.49
31 0.06
32 0.51
33 0.06
34 0.06
4 -0.53
43 0.37
47 0.45
48 0.15
5 -0.57
6 -0.57
7 -0.57
8 -0.57
9 -0.57

> <PUBCHEM_EFFECTIVE_ROTOR_COUNT>
7.6

> <PUBCHEM_PHARMACOPHORE_FEATURES>
13
1 1 acceptor
1 10 donor
1 2 acceptor
1 26 hydrophobe
1 4 donor
1 5 acceptor
1 6 acceptor
1 7 acceptor
1 8 acceptor
1 9 acceptor
6 1 2 12 14 20 24 rings
6 11 12 13 14 16 18 rings
6 11 13 15 17 19 21 rings

> <PUBCHEM_HEAVY_ATOM_COUNT>
34

> <PUBCHEM_ATOM_DEF_STEREO_COUNT>
0

> <PUBCHEM_ATOM_UDEF_STEREO_COUNT>
0

> <PUBCHEM_BOND_DEF_STEREO_COUNT>
1

> <PUBCHEM_BOND_UDEF_STEREO_COUNT>
0

> <PUBCHEM_ISOTOPIC_ATOM_COUNT>
0

> <PUBCHEM_COMPONENT_COUNT>
1

> <PUBCHEM_CACTVS_TAUTO_COUNT>
-1

> <PUBCHEM_CONFORMER_ID>
0814A4B800000001

> <PUBCHEM_MMFF94_ENERGY>
134.6851

> <PUBCHEM_FEATURE_SELFOVERLAP>
66.07

> <PUBCHEM_SHAPE_FINGERPRINT>
10165383 225 18339640028274896461
10411042 1 17762336220461272943
10675989 125 17473539153549933589
1100329 8 18128823134270724746
11582403 64 16882722120834894929
12156800 1 12008307069322871977
12403259 226 17767679825481090354
12788726 201 17895461596563844472
13140716 1 17985268718837286874
13402501 40 18342740753505993590
13947920 24 18261660515658628197
140371 6 18058745709535304946
14415360 78 18339908334608097293
14713325 29 18260827073059702101
14790565 3 17982745068704734408
14955137 171 17898298461792888339
15131766 46 14188435149169831746
15324884 4 17905301260066540537
15463212 79 18040987436889463322
19958102 18 18410009901828246526
20600515 1 18198078060442441575
20775438 99 16333238294599845439
21033650 10 17823151029754067764
23559900 14 17986950950527279864
238 59 17181332974080905541
25019877 29 18059583541517344799
283562 15 18202006503698256547
350125 39 18340208603954298529
3524813 1 18341325686805199683
469060 322 18115610234525849211
497634 4 18343032103166503060
531348 171 18041837286837848754
57527306 92 16415487034809168251
57527358 35 14422028352995481335
6287921 2 17688587590888158441
70251023 43 17054405746301611623

> <PUBCHEM_SHAPE_MULTIPOLES>
641.9
9.46
5.07
2.13
18.5
1.99
-0.51
-0.42
0.78
-4.48
1.87
-1.45
-3.19
1.07

> <PUBCHEM_SHAPE_SELFOVERLAP>
1399.696

> <PUBCHEM_SHAPE_VOLUME>
344.2

> <PUBCHEM_COORDINATE_TYPE>
2
5
10

$$$$
