135565287
  -OEChem-03292013293D

 29 30  0     0  0  0  0  0  0999 V2000
    1.3195   -2.5352    0.1875 O   0  0  0  0  0  0  0  0  0  0  0  0
   -1.1634   -2.8315    0.0906 O   0  0  0  0  0  0  0  0  0  0  0  0
   -1.9225    2.6264   -0.1043 O   0  0  0  0  0  0  0  0  0  0  0  0
   -3.6421   -1.7978   -0.0708 O   0  0  0  0  0  0  0  0  0  0  0  0
    0.6631    2.8978    0.0244 O   0  0  0  0  0  0  0  0  0  0  0  0
   -4.0413    0.9199   -0.1680 O   0  0  0  0  0  0  0  0  0  0  0  0
    3.0788    1.8996    0.1658 O   0  0  0  0  0  0  0  0  0  0  0  0
   -0.1537   -0.6186    0.0795 C   0  0  0  0  0  0  0  0  0  0  0  0
   -0.3859    0.7615    0.0288 C   0  0  0  0  0  0  0  0  0  0  0  0
    2.3139   -0.3655    0.2098 C   0  0  0  0  0  0  0  0  0  0  0  0
    1.2222   -1.1558    0.1674 C   0  0  0  0  0  0  0  0  0  0  0  0
    3.7413   -0.8221    0.3344 C   0  0  0  0  0  0  0  0  0  0  0  0
    0.7584    1.6808    0.0632 C   0  0  0  0  0  0  0  0  0  0  0  0
   -1.2731   -1.4688    0.0443 C   0  0  0  0  0  0  0  0  0  0  0  0
    2.1417    1.1132    0.1510 C   0  0  0  0  0  0  0  0  0  0  0  0
   -1.6829    1.2841   -0.0543 C   0  0  0  0  0  0  0  0  0  0  0  0
   -2.5703   -0.9535   -0.0384 C   0  0  0  0  0  0  0  0  0  0  0  0
   -2.7746    0.4216   -0.0877 C   0  0  0  0  0  0  0  0  0  0  0  0
    4.3708   -1.0561   -1.0232 C   0  0  0  0  0  0  0  0  0  0  0  0
    4.3375   -0.0935    0.8967 H   0  0  0  0  0  0  0  0  0  0  0  0
    3.8022   -1.7421    0.9276 H   0  0  0  0  0  0  0  0  0  0  0  0
    3.8333   -1.8261   -1.5870 H   0  0  0  0  0  0  0  0  0  0  0  0
    5.4070   -1.3899   -0.9064 H   0  0  0  0  0  0  0  0  0  0  0  0
    4.3803   -0.1400   -1.6234 H   0  0  0  0  0  0  0  0  0  0  0  0
    2.2526   -2.7982    0.1553 H   0  0  0  0  0  0  0  0  0  0  0  0
   -2.0532   -3.2234    0.0550 H   0  0  0  0  0  0  0  0  0  0  0  0
   -1.0942    3.1281   -0.0747 H   0  0  0  0  0  0  0  0  0  0  0  0
   -4.4303   -1.3359    0.2583 H   0  0  0  0  0  0  0  0  0  0  0  0
   -4.6296    0.2527   -0.5573 H   0  0  0  0  0  0  0  0  0  0  0  0
  1 11  1  0  0  0  0
  1 25  1  0  0  0  0
  2 14  1  0  0  0  0
  2 26  1  0  0  0  0
  3 16  1  0  0  0  0
  3 27  1  0  0  0  0
  4 17  1  0  0  0  0
  4 28  1  0  0  0  0
  5 13  2  0  0  0  0
  6 18  1  0  0  0  0
  6 29  1  0  0  0  0
  7 15  2  0  0  0  0
  8  9  2  0  0  0  0
  8 11  1  0  0  0  0
  8 14  1  0  0  0  0
  9 13  1  0  0  0  0
  9 16  1  0  0  0  0
 10 11  2  0  0  0  0
 10 12  1  0  0  0  0
 10 15  1  0  0  0  0
 12 19  1  0  0  0  0
 12 20  1  0  0  0  0
 12 21  1  0  0  0  0
 13 15  1  0  0  0  0
 14 17  2  0  0  0  0
 16 18  2  0  0  0  0
 17 18  1  0  0  0  0
 19 22  1  0  0  0  0
 19 23  1  0  0  0  0
 19 24  1  0  0  0  0
M  END
> <PUBCHEM_COMPOUND_CID>
135565287

> <PUBCHEM_CONFORMER_RMSD>
0.6

> <PUBCHEM_CONFORMER_DIVERSEORDER>
1

> <PUBCHEM_MMFF94_PARTIAL_CHARGES>
23
1 -0.53
10 -0.12
11 0.05
12 0.14
13 0.48
14 0.08
15 0.56
16 0.08
17 0.08
18 0.08
2 -0.53
25 0.45
26 0.45
27 0.45
28 0.45
29 0.45
3 -0.53
4 -0.53
5 -0.57
6 -0.53
7 -0.57
8 0.03
9 0.09

> <PUBCHEM_EFFECTIVE_ROTOR_COUNT>
1

> <PUBCHEM_PHARMACOPHORE_FEATURES>
10
1 1 donor
1 19 hydrophobe
1 2 donor
1 3 donor
1 4 donor
1 5 acceptor
1 6 donor
1 7 acceptor
6 8 9 10 11 13 15 rings
6 8 9 14 16 17 18 rings

> <PUBCHEM_HEAVY_ATOM_COUNT>
19

> <PUBCHEM_ATOM_DEF_STEREO_COUNT>
0

> <PUBCHEM_ATOM_UDEF_STEREO_COUNT>
0

> <PUBCHEM_BOND_DEF_STEREO_COUNT>
0

> <PUBCHEM_BOND_UDEF_STEREO_COUNT>
0

> <PUBCHEM_ISOTOPIC_ATOM_COUNT>
0

> <PUBCHEM_COMPONENT_COUNT>
1

> <PUBCHEM_CACTVS_TAUTO_COUNT>
-1

> <PUBCHEM_CONFORMER_ID>
08148FE700000001

> <PUBCHEM_MMFF94_ENERGY>
49.6526

> <PUBCHEM_FEATURE_SELFOVERLAP>
50.816

> <PUBCHEM_SHAPE_FINGERPRINT>
10608611 8 18411132567197206392
10967382 1 18338232639936072987
11132069 177 18411410713669078432
11458722 379 18337959978533220030
11471102 20 18338227262911286109
11578080 2 17242700235431492284
11680986 33 18339079422745364744
12011746 2 18338515227261782469
12032990 46 18412548708335779614
12553582 1 18337668620403893707
13140716 1 18410289250357866826
13221675 6 18410573955218808738
14115302 16 18260842466354204358
14790565 3 17404598679662192544
15196674 1 18410572920025987489
15442244 35 18410854377986365864
15536298 74 18342737455292480320
16945 1 18410005503295989915
17804303 29 18412266133778719996
18186145 218 18334850619378192733
193761 8 18194118753193077312
19591789 44 18410578366203125146
20510252 161 18343020020895615369
20871999 31 18339940212170690862
21267235 1 18410863169790091667
21501502 16 18338515347447045785
221490 88 18336834211453787498
2334 1 18121779697015861362
23402539 116 18342446015786142206
23463225 33 18408317787639472992
23557571 272 18272097085088855334
23559900 14 18342457101825077432
2748010 2 18193553595563207778
335352 9 18410854317867367005
350125 39 18337678512130879425
5104073 3 18411135870053243313
7364860 26 18198343068641412304
7832392 63 18411978036031140657
8809292 202 18334579048622661307
9709674 26 18267303312305853822

> <PUBCHEM_SHAPE_MULTIPOLES>
349.93
6.29
2.93
0.66
1.5
0.37
-0.06
-1.14
-0.88
-0.47
0.07
0.32
-0.07
0.26

> <PUBCHEM_SHAPE_SELFOVERLAP>
772.754

> <PUBCHEM_SHAPE_VOLUME>
186.2

> <PUBCHEM_COORDINATE_TYPE>
2
5
10

$$$$
