135582773
  -OEChem-03292013293D

 31 32  0     1  0  0  0  0  0999 V2000
   -1.3716    0.3426   -0.4320 O   0  0  0  0  0  0  0  0  0  0  0  0
   -3.6208   -1.6303   -0.9446 O   0  0  0  0  0  0  0  0  0  0  0  0
    2.5655    0.2058   -1.0898 O   0  0  0  0  0  0  0  0  0  0  0  0
   -2.4446    2.8772    0.0705 O   0  0  0  0  0  0  0  0  0  0  0  0
    0.3335   -0.1902   -1.5965 O   0  0  0  0  0  0  0  0  0  0  0  0
    0.1101   -0.8252    1.1617 N   0  0  0  0  0  0  0  0  0  0  0  0
    2.4588   -0.2893    1.1383 N   0  0  0  0  0  0  0  0  0  0  0  0
    4.5359   -0.7596   -0.1715 N   0  0  0  0  0  0  0  0  0  0  0  0
    4.0415    1.4545    0.2963 N   0  0  0  0  0  0  0  0  0  0  0  0
   -3.3832   -0.7607    0.1597 C   0  0  2  0  0  0  0  0  0  0  0  0
   -2.7935    0.5497   -0.3394 C   0  0  1  0  0  0  0  0  0  0  0  0
   -2.2634   -1.3379    0.9915 C   0  0  0  0  0  0  0  0  0  0  0  0
   -1.0214   -0.8851    0.2344 C   0  0  1  0  0  0  0  0  0  0  0  0
   -3.0373    1.7113    0.6150 C   0  0  0  0  0  0  0  0  0  0  0  0
    1.2162   -0.4618    0.6276 C   0  0  0  0  0  0  0  0  0  0  0  0
    3.4019    0.1388    0.1126 C   0  0  0  0  0  0  0  0  0  0  0  0
    1.2724   -0.1398   -0.8340 C   0  0  0  0  0  0  0  0  0  0  0  0
   -4.3206   -0.6501    0.7123 H   0  0  0  0  0  0  0  0  0  0  0  0
   -3.1428    0.8103   -1.3447 H   0  0  0  0  0  0  0  0  0  0  0  0
   -2.2805   -0.9000    1.9970 H   0  0  0  0  0  0  0  0  0  0  0  0
   -2.3016   -2.4273    1.0946 H   0  0  0  0  0  0  0  0  0  0  0  0
   -0.8580   -1.6759   -0.5142 H   0  0  0  0  0  0  0  0  0  0  0  0
   -2.5771    1.5323    1.5919 H   0  0  0  0  0  0  0  0  0  0  0  0
   -4.1088    1.8906    0.7468 H   0  0  0  0  0  0  0  0  0  0  0  0
   -4.3075   -1.2179   -1.4960 H   0  0  0  0  0  0  0  0  0  0  0  0
    2.7269   -0.4339    2.1039 H   0  0  0  0  0  0  0  0  0  0  0  0
   -2.6166    3.6040    0.6931 H   0  0  0  0  0  0  0  0  0  0  0  0
    4.5877    1.4335    1.1563 H   0  0  0  0  0  0  0  0  0  0  0  0
    3.3127    2.1523    0.4393 H   0  0  0  0  0  0  0  0  0  0  0  0
    4.1705   -1.6894   -0.3725 H   0  0  0  0  0  0  0  0  0  0  0  0
    5.0979   -0.8513    0.6736 H   0  0  0  0  0  0  0  0  0  0  0  0
  1 11  1  0  0  0  0
  1 13  1  0  0  0  0
  2 10  1  0  0  0  0
  2 25  1  0  0  0  0
  3 16  1  0  0  0  0
  3 17  1  0  0  0  0
  4 14  1  0  0  0  0
  4 27  1  0  0  0  0
  5 17  2  0  0  0  0
  6 13  1  0  0  0  0
  6 15  2  0  0  0  0
  7 15  1  0  0  0  0
  7 16  1  0  0  0  0
  7 26  1  0  0  0  0
  8 16  1  0  0  0  0
  8 30  1  0  0  0  0
  8 31  1  0  0  0  0
  9 16  1  0  0  0  0
  9 28  1  0  0  0  0
  9 29  1  0  0  0  0
 10 11  1  0  0  0  0
 10 12  1  0  0  0  0
 10 18  1  0  0  0  0
 11 14  1  0  0  0  0
 11 19  1  0  0  0  0
 12 13  1  0  0  0  0
 12 20  1  0  0  0  0
 12 21  1  0  0  0  0
 13 22  1  0  0  0  0
 14 23  1  0  0  0  0
 14 24  1  0  0  0  0
 15 17  1  0  0  0  0
M  END
> <PUBCHEM_COMPOUND_CID>
135582773

> <PUBCHEM_CONFORMER_RMSD>
0.6

> <PUBCHEM_CONFORMER_DIVERSEORDER>
1
5
2
6
3
4

> <PUBCHEM_MMFF94_PARTIAL_CHARGES>
23
1 -0.56
10 0.28
11 0.28
13 0.53
14 0.28
15 0.5
16 1.19
17 0.72
2 -0.68
25 0.4
26 0.4
27 0.4
28 0.36
29 0.36
3 -0.43
30 0.36
31 0.36
4 -0.68
5 -0.57
6 -0.7
7 -0.82
8 -0.99
9 -0.99

> <PUBCHEM_EFFECTIVE_ROTOR_COUNT>
3.6

> <PUBCHEM_PHARMACOPHORE_FEATURES>
13
1 1 acceptor
1 2 acceptor
1 2 donor
1 4 acceptor
1 4 donor
1 5 acceptor
1 7 donor
1 8 cation
1 8 donor
1 9 cation
1 9 donor
5 1 10 11 12 13 rings
5 3 7 15 16 17 rings

> <PUBCHEM_HEAVY_ATOM_COUNT>
17

> <PUBCHEM_ATOM_DEF_STEREO_COUNT>
3

> <PUBCHEM_ATOM_UDEF_STEREO_COUNT>
0

> <PUBCHEM_BOND_DEF_STEREO_COUNT>
1

> <PUBCHEM_BOND_UDEF_STEREO_COUNT>
0

> <PUBCHEM_ISOTOPIC_ATOM_COUNT>
0

> <PUBCHEM_COMPONENT_COUNT>
1

> <PUBCHEM_CACTVS_TAUTO_COUNT>
-1

> <PUBCHEM_CONFORMER_ID>
0814D43500000001

> <PUBCHEM_MMFF94_ENERGY>
60.6922

> <PUBCHEM_FEATURE_SELFOVERLAP>
66.217

> <PUBCHEM_SHAPE_FINGERPRINT>
10646746 165 18411702054444345072
11132069 177 17168137975147964398
12162725 195 18335706065310593596
12491281 212 18114188496923290496
12670546 56 18409158909792534514
12932764 1 17561074813168400267
13296909 8 18335138683156761733
13583140 156 17559932399502863898
13764800 53 18269005206440719073
13839132 238 18269276751252360117
14144814 61 17385720300787326978
14289901 80 18342172293320242322
14993402 34 17022899077366757598
15309172 13 16588027904791382946
15775835 57 18115309973293607273
16945 1 18335712688203060915
1741750 31 18126852599344238913
18186145 218 18113337492509293196
19026448 4 18273217495526443966
200 152 18041835225016572495
20300324 65 18411697716463851667
20510252 161 18410296921528179553
20525323 117 18335140878032573907
20645477 56 18270972236974389233
20645477 70 16486701238465934206
22094290 60 18343863333624253171
2306618 200 17918280826917268475
23402539 116 18341325674020576823
23419403 2 15810262293133525930
23557571 272 18131356319182856841
23559900 14 18410007737354217170
2748010 2 16300614350052569774
77492 1 17821730528748831107

> <PUBCHEM_SHAPE_MULTIPOLES>
300.58
7.52
1.74
1.12
4.62
1.2
-0.13
0.69
0
-1.89
0.24
0.06
-0.2
-0.24

> <PUBCHEM_SHAPE_SELFOVERLAP>
632.083

> <PUBCHEM_SHAPE_VOLUME>
165.2

> <PUBCHEM_COORDINATE_TYPE>
2
5
10

$$$$
