135502669
  -OEChem-03292013293D

 42 45  0     1  0  0  0  0  0999 V2000
   -0.7609    1.9463    0.9432 O   0  0  0  0  0  0  0  0  0  0  0  0
    1.0394    4.1175   -0.2647 O   0  0  0  0  0  0  0  0  0  0  0  0
   -3.4105    2.8347    0.8484 O   0  0  0  0  0  0  0  0  0  0  0  0
   -1.6272   -4.3390   -0.2444 O   0  0  0  0  0  0  0  0  0  0  0  0
    0.0986   -0.1766    0.0882 N   0  0  0  0  0  0  0  0  0  0  0  0
    0.5772   -2.3557   -0.0670 N   0  0  0  0  0  0  0  0  0  0  0  0
   -2.3205   -0.2494    0.0496 N   0  0  0  0  0  0  0  0  0  0  0  0
   -3.0804   -2.5146   -0.1290 N   0  0  0  0  0  0  0  0  0  0  0  0
   -4.6182   -0.7352   -0.0184 N   0  0  0  0  0  0  0  0  0  0  0  0
    0.2988    1.3137    0.2014 C   0  0  1  0  0  0  0  0  0  0  0  0
    0.3529    2.0144   -1.1517 C   0  0  0  0  0  0  0  0  0  0  0  0
   -0.0823    3.4172   -0.7977 C   0  0  1  0  0  0  0  0  0  0  0  0
   -1.1123    3.1888    0.3010 C   0  0  1  0  0  0  0  0  0  0  0  0
   -2.5295    3.0542   -0.2392 C   0  0  0  0  0  0  0  0  0  0  0  0
    1.0767   -1.1393    0.0302 C   0  0  0  0  0  0  0  0  0  0  0  0
   -1.0987   -0.8262    0.0236 C   0  0  0  0  0  0  0  0  0  0  0  0
   -0.7720   -2.1574   -0.0708 C   0  0  0  0  0  0  0  0  0  0  0  0
    2.4880   -0.8256    0.0729 C   0  0  0  0  0  0  0  0  0  0  0  0
   -1.8228   -3.1333   -0.1576 C   0  0  0  0  0  0  0  0  0  0  0  0
   -3.3028   -1.1207   -0.0285 C   0  0  0  0  0  0  0  0  0  0  0  0
    3.1850   -0.5849   -1.1112 C   0  0  0  0  0  0  0  0  0  0  0  0
    3.1520   -0.7639    1.2979 C   0  0  0  0  0  0  0  0  0  0  0  0
    4.5462   -0.2825   -1.0701 C   0  0  0  0  0  0  0  0  0  0  0  0
    4.5130   -0.4615    1.3390 C   0  0  0  0  0  0  0  0  0  0  0  0
    5.2101   -0.2209    0.1550 C   0  0  0  0  0  0  0  0  0  0  0  0
    1.2196    1.4631    0.7750 H   0  0  0  0  0  0  0  0  0  0  0  0
   -0.3610    1.5640   -1.8514 H   0  0  0  0  0  0  0  0  0  0  0  0
    1.3519    1.9604   -1.5947 H   0  0  0  0  0  0  0  0  0  0  0  0
   -0.4577    3.9828   -1.6553 H   0  0  0  0  0  0  0  0  0  0  0  0
   -1.0782    3.9652    1.0734 H   0  0  0  0  0  0  0  0  0  0  0  0
   -2.8344    3.9716   -0.7527 H   0  0  0  0  0  0  0  0  0  0  0  0
   -2.6254    2.2138   -0.9321 H   0  0  0  0  0  0  0  0  0  0  0  0
    0.7298    4.9995    0.0034 H   0  0  0  0  0  0  0  0  0  0  0  0
   -4.3068    2.7549    0.4799 H   0  0  0  0  0  0  0  0  0  0  0  0
    2.6812   -0.6289   -2.0739 H   0  0  0  0  0  0  0  0  0  0  0  0
    2.6224   -0.9486    2.2295 H   0  0  0  0  0  0  0  0  0  0  0  0
   -3.8974   -3.1158   -0.1849 H   0  0  0  0  0  0  0  0  0  0  0  0
    5.0889   -0.0948   -1.9920 H   0  0  0  0  0  0  0  0  0  0  0  0
    5.0302   -0.4132    2.2928 H   0  0  0  0  0  0  0  0  0  0  0  0
    6.2699    0.0147    0.1871 H   0  0  0  0  0  0  0  0  0  0  0  0
   -4.8776    0.2429    0.0499 H   0  0  0  0  0  0  0  0  0  0  0  0
   -5.3691   -1.4141   -0.0793 H   0  0  0  0  0  0  0  0  0  0  0  0
  1 10  1  0  0  0  0
  1 13  1  0  0  0  0
  2 12  1  0  0  0  0
  2 33  1  0  0  0  0
  3 14  1  0  0  0  0
  3 34  1  0  0  0  0
  4 19  2  0  0  0  0
  5 10  1  0  0  0  0
  5 15  1  0  0  0  0
  5 16  1  0  0  0  0
  6 15  2  0  0  0  0
  6 17  1  0  0  0  0
  7 16  1  0  0  0  0
  7 20  2  0  0  0  0
  8 19  1  0  0  0  0
  8 20  1  0  0  0  0
  8 37  1  0  0  0  0
  9 20  1  0  0  0  0
  9 41  1  0  0  0  0
  9 42  1  0  0  0  0
 10 11  1  0  0  0  0
 10 26  1  0  0  0  0
 11 12  1  0  0  0  0
 11 27  1  0  0  0  0
 11 28  1  0  0  0  0
 12 13  1  0  0  0  0
 12 29  1  0  0  0  0
 13 14  1  0  0  0  0
 13 30  1  0  0  0  0
 14 31  1  0  0  0  0
 14 32  1  0  0  0  0
 15 18  1  0  0  0  0
 16 17  2  0  0  0  0
 17 19  1  0  0  0  0
 18 21  2  0  0  0  0
 18 22  1  0  0  0  0
 21 23  1  0  0  0  0
 21 35  1  0  0  0  0
 22 24  2  0  0  0  0
 22 36  1  0  0  0  0
 23 25  2  0  0  0  0
 23 38  1  0  0  0  0
 24 25  1  0  0  0  0
 24 39  1  0  0  0  0
 25 40  1  0  0  0  0
M  END
> <PUBCHEM_COMPOUND_CID>
135502669

> <PUBCHEM_CONFORMER_RMSD>
0.8

> <PUBCHEM_CONFORMER_DIVERSEORDER>
1
7
3
4
5
6
2

> <PUBCHEM_MMFF94_PARTIAL_CHARGES>
34
1 -0.56
10 0.54
12 0.28
13 0.28
14 0.28
15 0.13
16 -0.03
17 0.14
18 0.05
19 0.72
2 -0.68
20 0.56
21 -0.15
22 -0.15
23 -0.15
24 -0.15
25 -0.15
3 -0.68
33 0.4
34 0.4
35 0.15
36 0.15
37 0.37
38 0.15
39 0.15
4 -0.57
40 0.15
41 0.4
42 0.4
5 0.05
6 -0.57
7 -0.58
8 -0.49
9 -0.85

> <PUBCHEM_EFFECTIVE_ROTOR_COUNT>
4

> <PUBCHEM_PHARMACOPHORE_FEATURES>
13
1 1 acceptor
1 2 acceptor
1 2 donor
1 3 acceptor
1 3 donor
1 4 acceptor
1 8 donor
1 9 donor
3 5 6 15 cation
5 1 10 11 12 13 rings
5 5 6 15 16 17 rings
6 18 21 22 23 24 25 rings
6 7 8 16 17 19 20 rings

> <PUBCHEM_HEAVY_ATOM_COUNT>
25

> <PUBCHEM_ATOM_DEF_STEREO_COUNT>
3

> <PUBCHEM_ATOM_UDEF_STEREO_COUNT>
0

> <PUBCHEM_BOND_DEF_STEREO_COUNT>
0

> <PUBCHEM_BOND_UDEF_STEREO_COUNT>
0

> <PUBCHEM_ISOTOPIC_ATOM_COUNT>
0

> <PUBCHEM_COMPONENT_COUNT>
1

> <PUBCHEM_CACTVS_TAUTO_COUNT>
-1

> <PUBCHEM_CONFORMER_ID>
08139B4D00000001

> <PUBCHEM_MMFF94_ENERGY>
65.3313

> <PUBCHEM_FEATURE_SELFOVERLAP>
66.156

> <PUBCHEM_SHAPE_FINGERPRINT>
10165383 225 17694245278450893400
10319926 262 18197755775578229786
10369192 42 16985452044541989384
10411042 1 18123188171475307302
10493431 412 18197222438675558665
10498660 4 18265899064501409516
10871710 139 18261972803062782676
1100329 8 18337392772341119827
11578080 2 17100831456784768918
11582403 64 16158191232762088092
11833330 49 18409445912349905016
12173636 292 18050844425472840124
12236239 1 17821725066199790218
12553582 1 18409729603203205839
12788726 201 18333737914149012106
13004483 165 18262221271036443050
13140716 1 18193278722352606219
138480 1 16105012090142522268
14790565 3 18338812121425091917
14955137 171 18192456218666670667
16752209 62 18409451349725922958
17357779 13 18200295693501214509
17818456 19 18118950405117777578
19591789 44 17763190132988914150
20510252 161 18342455885652435538
20600515 1 18269828864987612466
20642791 35 18265903642952468852
20905425 154 18052830431272342252
21041028 32 18191600837543537187
23366157 5 17538839582962096342
23402539 116 18342166778387354422
23419403 2 17631714054407745368
23557571 272 18272939302152505182
23558518 356 17973160630393663754
23559900 14 18272094920399458190
238 59 16748727838682718549
25147074 1 17696199480012774379
3052486 1 18336547123149889192
3178227 256 18335150825762972587
352729 6 17832975062240907866
4409770 3 18044350791097358846
458136 41 17621050754460381672
469060 322 18337686238787088513
6442390 28 18124883352306490144
7164475 11 18335978676076477742
7364860 26 17690845983159833222
7808743 9 18337676309377016056
81228 2 18340781368203656786

> <PUBCHEM_SHAPE_MULTIPOLES>
466.11
7.57
5
0.99
6.35
1.75
0.04
-1.7
0.75
-5.24
-0.55
0.86
0.24
-0.59

> <PUBCHEM_SHAPE_SELFOVERLAP>
1028.311

> <PUBCHEM_SHAPE_VOLUME>
247.6

> <PUBCHEM_COORDINATE_TYPE>
2
5
10

$$$$
