135565732
  -OEChem-03292013293D

 39 41  0     0  0  0  0  0  0999 V2000
    6.9287   -1.0165    0.3327 O   0  0  0  0  0  0  0  0  0  0  0  0
    5.2246    2.6776   -0.1085 O   0  0  0  0  0  0  0  0  0  0  0  0
    7.0395    1.4957   -0.7981 O   0  0  0  0  0  0  0  0  0  0  0  0
   -4.6657    0.2625    0.0248 N   0  0  0  0  0  0  0  0  0  0  0  0
    0.8927   -0.2107    0.7245 N   0  0  0  0  0  0  0  0  0  0  0  0
    1.4358   -0.5280   -0.3595 N   0  0  0  0  0  0  0  0  0  0  0  0
   -4.9926   -2.0450   -0.5986 N   0  0  0  0  0  0  0  0  0  0  0  0
   -3.2480    0.1432    0.2037 C   0  0  0  0  0  0  0  0  0  0  0  0
   -2.4364   -0.2042   -0.8763 C   0  0  0  0  0  0  0  0  0  0  0  0
   -2.6807    0.3726    1.4572 C   0  0  0  0  0  0  0  0  0  0  0  0
   -5.4505   -0.8363   -0.4057 C   0  0  0  0  0  0  0  0  0  0  0  0
   -5.3030    1.4771    0.2819 C   0  0  0  0  0  0  0  0  0  0  0  0
   -0.4901   -0.0925    0.5508 C   0  0  0  0  0  0  0  0  0  0  0  0
   -1.0574   -0.3220   -0.7027 C   0  0  0  0  0  0  0  0  0  0  0  0
   -1.3018    0.2547    1.6307 C   0  0  0  0  0  0  0  0  0  0  0  0
   -6.9315   -0.6242   -0.6302 C   0  0  0  0  0  0  0  0  0  0  0  0
   -6.6182    1.6732    0.1117 C   0  0  0  0  0  0  0  0  0  0  0  0
   -7.4412    0.5868   -0.3645 C   0  0  0  0  0  0  0  0  0  0  0  0
    2.8252   -0.6461   -0.1844 C   0  0  0  0  0  0  0  0  0  0  0  0
    5.0279    0.3463   -0.2010 C   0  0  0  0  0  0  0  0  0  0  0  0
    3.6489    0.4637   -0.3738 C   0  0  0  0  0  0  0  0  0  0  0  0
    5.5833   -0.8809    0.1612 C   0  0  0  0  0  0  0  0  0  0  0  0
    3.3807   -1.8732    0.1776 C   0  0  0  0  0  0  0  0  0  0  0  0
    4.7598   -1.9907    0.3505 C   0  0  0  0  0  0  0  0  0  0  0  0
    5.8701    1.5169   -0.4040 C   0  0  0  0  0  0  0  0  0  0  0  0
   -2.8637   -0.3782   -1.8607 H   0  0  0  0  0  0  0  0  0  0  0  0
   -3.2999    0.6368    2.3107 H   0  0  0  0  0  0  0  0  0  0  0  0
   -4.6566    2.2795    0.6214 H   0  0  0  0  0  0  0  0  0  0  0  0
   -0.4828   -0.5936   -1.5843 H   0  0  0  0  0  0  0  0  0  0  0  0
   -0.8684    0.4336    2.6112 H   0  0  0  0  0  0  0  0  0  0  0  0
   -7.5448   -1.4438   -0.9833 H   0  0  0  0  0  0  0  0  0  0  0  0
   -7.0804    2.6318    0.3140 H   0  0  0  0  0  0  0  0  0  0  0  0
   -8.4990    0.7813   -0.5049 H   0  0  0  0  0  0  0  0  0  0  0  0
    3.1963    1.4075   -0.6695 H   0  0  0  0  0  0  0  0  0  0  0  0
    2.7471   -2.7438    0.3263 H   0  0  0  0  0  0  0  0  0  0  0  0
    5.1788   -2.9531    0.6320 H   0  0  0  0  0  0  0  0  0  0  0  0
   -5.7388   -2.6814   -0.8968 H   0  0  0  0  0  0  0  0  0  0  0  0
    7.1263   -1.9358    0.5810 H   0  0  0  0  0  0  0  0  0  0  0  0
    5.7989    3.4606   -0.2486 H   0  0  0  0  0  0  0  0  0  0  0  0
  1 22  1  0  0  0  0
  1 38  1  0  0  0  0
  2 25  1  0  0  0  0
  2 39  1  0  0  0  0
  3 25  2  0  0  0  0
  4  8  1  0  0  0  0
  4 11  1  0  0  0  0
  4 12  1  0  0  0  0
  5  6  2  0  0  0  0
  5 13  1  0  0  0  0
  6 19  1  0  0  0  0
  7 11  2  0  0  0  0
  7 37  1  0  0  0  0
  8  9  2  0  0  0  0
  8 10  1  0  0  0  0
  9 14  1  0  0  0  0
  9 26  1  0  0  0  0
 10 15  2  0  0  0  0
 10 27  1  0  0  0  0
 11 16  1  0  0  0  0
 12 17  2  0  0  0  0
 12 28  1  0  0  0  0
 13 14  2  0  0  0  0
 13 15  1  0  0  0  0
 14 29  1  0  0  0  0
 15 30  1  0  0  0  0
 16 18  2  0  0  0  0
 16 31  1  0  0  0  0
 17 18  1  0  0  0  0
 17 32  1  0  0  0  0
 18 33  1  0  0  0  0
 19 21  2  0  0  0  0
 19 23  1  0  0  0  0
 20 21  1  0  0  0  0
 20 22  2  0  0  0  0
 20 25  1  0  0  0  0
 21 34  1  0  0  0  0
 22 24  1  0  0  0  0
 23 24  2  0  0  0  0
 23 35  1  0  0  0  0
 24 36  1  0  0  0  0
M  END
> <PUBCHEM_COMPOUND_CID>
135565732

> <PUBCHEM_CONFORMER_RMSD>
0.8

> <PUBCHEM_CONFORMER_DIVERSEORDER>
1
5
8
3
2
6
4
7

> <PUBCHEM_MMFF94_PARTIAL_CHARGES>
39
1 -0.53
10 -0.15
11 0.49
12 -0.05
13 0.18
14 -0.15
15 -0.15
16 -0.14
17 -0.15
18 -0.15
19 0.18
2 -0.65
20 0.09
21 -0.15
22 0.08
23 -0.15
24 -0.15
25 0.63
26 0.15
27 0.15
28 0.15
29 0.15
3 -0.57
30 0.15
31 0.15
32 0.15
33 0.15
34 0.15
35 0.15
36 0.15
37 0.4
38 0.45
39 0.5
4 -0.25
5 -0.18
6 -0.18
7 -0.85
8 0.1
9 -0.15

> <PUBCHEM_EFFECTIVE_ROTOR_COUNT>
4

> <PUBCHEM_PHARMACOPHORE_FEATURES>
9
1 1 donor
1 2 acceptor
1 3 acceptor
1 7 donor
3 2 3 25 anion
3 4 7 11 cation
6 19 20 21 22 23 24 rings
6 4 11 12 16 17 18 rings
6 8 9 10 13 14 15 rings

> <PUBCHEM_HEAVY_ATOM_COUNT>
25

> <PUBCHEM_ATOM_DEF_STEREO_COUNT>
0

> <PUBCHEM_ATOM_UDEF_STEREO_COUNT>
0

> <PUBCHEM_BOND_DEF_STEREO_COUNT>
0

> <PUBCHEM_BOND_UDEF_STEREO_COUNT>
0

> <PUBCHEM_ISOTOPIC_ATOM_COUNT>
0

> <PUBCHEM_COMPONENT_COUNT>
1

> <PUBCHEM_CACTVS_TAUTO_COUNT>
-1

> <PUBCHEM_CONFORMER_ID>
081491A400000001

> <PUBCHEM_MMFF94_ENERGY>
89.8184

> <PUBCHEM_FEATURE_SELFOVERLAP>
45.728

> <PUBCHEM_SHAPE_FINGERPRINT>
10 15 13767931238624873828
10299344 5 18342455937535077199
10595046 47 18411982433898167369
10835480 77 18260830431455056912
11315181 36 17632576051050742219
11524674 6 14923951146025319097
11646440 116 16008752394167828821
11719270 70 17775001250378087534
12236239 1 18343021085999895222
125118 31 18261675887225436381
12516196 113 17821447958845636573
12596602 18 18342177782172434338
13167372 99 18410294666422935560
13533116 47 16878215356301794802
13617811 41 16343707633559849976
13673619 4 12751245792021032202
13740195 50 18260557689703729953
14251752 14 18272649035098196969
14251764 18 18131069334164012551
14528608 73 18341898510951556072
14933364 13 18410012135084418477
15183329 4 18272936007459382689
15419008 47 15864065477167214669
15537594 2 16056875819329647295
16993427 108 16882426378953599482
18335252 98 18336552702671440963
19427546 62 18262240023370306122
20157964 124 18335423456947774466
20281389 69 18187082824053601837
20554085 129 16008741429032231416
21033648 29 17604148242228761944
21150785 3 18273495684979786669
21267235 1 15841550799947299033
21315763 28 18410854339146978831
21344244 78 18195510529831747802
2297311 6 15339125636576092643
23081809 10 18272368651001014027
23198884 109 18333450933282599873
23522609 53 17773902889864772793
23536379 177 18409448051438849131
23559900 14 18200866383739954073
23569943 247 17097764665346823763
255183 451 18055078654159537590
29717793 49 18202286862431726470
3004659 81 18343019952466457442
34797466 226 17989214754078199021
3545911 37 14634871929089249539
397830 11 16661508344359416889
4073 2 18041284351983862218
4098825 35 18335136458126487717
4325135 7 18413951689214555774
44555599 121 18341341002416601721
504579 68 18343312457182454510
5265222 85 18201154459981613319
5385378 56 15068616025237339273
59755656 215 14476965575092707820
6328613 192 18412262818597139753

> <PUBCHEM_SHAPE_MULTIPOLES>
476.96
22.35
1.84
0.98
1.84
0.3
-0.25
4.31
3.68
-1.9
0.14
0.45
0.04
-1.46

> <PUBCHEM_SHAPE_SELFOVERLAP>
1044.488

> <PUBCHEM_SHAPE_VOLUME>
254.8

> <PUBCHEM_COORDINATE_TYPE>
2
5
10

$$$$
