135563646
  -OEChem-03292013293D

 40 42  0     1  0  0  0  0  0999 V2000
    4.8291    1.4661    0.0726 P   0  0  0  0  0  0  0  0  0  0  0  0
    1.3238   -0.9194    1.0298 O   0  0  0  0  0  0  0  0  0  0  0  0
   -0.5168   -2.8803   -1.3674 O   0  0  0  0  0  0  0  0  0  0  0  0
    1.4900   -3.8426    0.2512 O   0  0  0  0  0  0  0  0  0  0  0  0
    3.8282    0.2654    0.6105 O   0  0  0  0  0  0  0  0  0  0  0  0
   -4.3706    2.7681   -0.3289 O   0  0  0  0  0  0  0  0  0  0  0  0
    5.1980    2.2235    1.3448 O   0  5  0  0  0  0  0  0  0  0  0  0
    3.9763    2.2717   -0.9031 O   0  5  0  0  0  0  0  0  0  0  0  0
    6.0005    0.7320   -0.5733 O   0  0  0  0  0  0  0  0  0  0  0  0
   -0.7978   -0.0737    0.1689 N   0  3  0  0  0  0  0  0  0  0  0  0
   -1.4025    1.9646   -0.2175 N   0  0  0  0  0  0  0  0  0  0  0  0
   -3.0057   -1.1288    0.4055 N   0  0  0  0  0  0  0  0  0  0  0  0
   -4.7158    0.5263    0.1098 N   0  0  0  0  0  0  0  0  0  0  0  0
   -5.2717   -1.7110    0.5520 N   0  0  0  0  0  0  0  0  0  0  0  0
    0.0816   -1.2812    0.3916 C   0  0  1  0  0  0  0  0  0  0  0  0
    0.4717   -1.9813   -0.9061 C   0  0  1  0  0  0  0  0  0  0  0  0
    1.7637   -2.6706   -0.5153 C   0  0  1  0  0  0  0  0  0  0  0  0
    2.4082   -1.6449    0.4084 C   0  0  1  0  0  0  0  0  0  0  0  0
    3.2883   -0.6460   -0.3303 C   0  0  0  0  0  0  0  0  0  0  0  0
   -2.1786   -0.0730    0.1884 C   0  0  0  0  0  0  0  0  0  0  0  0
   -0.3442    1.1601   -0.0768 C   0  0  0  0  0  0  0  0  0  0  0  0
   -2.5534    1.2314   -0.0590 C   0  0  0  0  0  0  0  0  0  0  0  0
   -3.9068    1.6501   -0.1197 C   0  0  0  0  0  0  0  0  0  0  0  0
   -1.3220    3.3840   -0.4947 C   0  0  0  0  0  0  0  0  0  0  0  0
   -4.2734   -0.7906    0.3588 C   0  0  0  0  0  0  0  0  0  0  0  0
   -0.4568   -1.9541    1.0702 H   0  0  0  0  0  0  0  0  0  0  0  0
    0.6563   -1.2383   -1.6910 H   0  0  0  0  0  0  0  0  0  0  0  0
    2.3755   -2.9651   -1.3728 H   0  0  0  0  0  0  0  0  0  0  0  0
    2.9783   -2.1115    1.2198 H   0  0  0  0  0  0  0  0  0  0  0  0
    2.7083   -0.0774   -1.0640 H   0  0  0  0  0  0  0  0  0  0  0  0
    4.1051   -1.1627   -0.8437 H   0  0  0  0  0  0  0  0  0  0  0  0
    0.6905    1.4548   -0.1517 H   0  0  0  0  0  0  0  0  0  0  0  0
   -0.1452   -3.3551   -2.1304 H   0  0  0  0  0  0  0  0  0  0  0  0
    2.3450   -4.2284    0.5079 H   0  0  0  0  0  0  0  0  0  0  0  0
   -1.8250    3.5978   -1.4416 H   0  0  0  0  0  0  0  0  0  0  0  0
   -1.7988    3.9398    0.3171 H   0  0  0  0  0  0  0  0  0  0  0  0
   -0.2753    3.6917   -0.5701 H   0  0  0  0  0  0  0  0  0  0  0  0
   -5.7205    0.6776    0.0954 H   0  0  0  0  0  0  0  0  0  0  0  0
   -5.0585   -2.6850    0.7376 H   0  0  0  0  0  0  0  0  0  0  0  0
   -6.2500   -1.4465    0.5151 H   0  0  0  0  0  0  0  0  0  0  0  0
  1  5  1  0  0  0  0
  1  7  1  0  0  0  0
  1  8  1  0  0  0  0
  1  9  2  0  0  0  0
  2 15  1  0  0  0  0
  2 18  1  0  0  0  0
  3 16  1  0  0  0  0
  3 33  1  0  0  0  0
  4 17  1  0  0  0  0
  4 34  1  0  0  0  0
  5 19  1  0  0  0  0
  6 23  2  0  0  0  0
 10 15  1  0  0  0  0
 10 20  1  0  0  0  0
 10 21  2  0  0  0  0
 11 21  1  0  0  0  0
 11 22  1  0  0  0  0
 11 24  1  0  0  0  0
 12 20  1  0  0  0  0
 12 25  2  0  0  0  0
 13 23  1  0  0  0  0
 13 25  1  0  0  0  0
 13 38  1  0  0  0  0
 14 25  1  0  0  0  0
 14 39  1  0  0  0  0
 14 40  1  0  0  0  0
 15 16  1  0  0  0  0
 15 26  1  0  0  0  0
 16 17  1  0  0  0  0
 16 27  1  0  0  0  0
 17 18  1  0  0  0  0
 17 28  1  0  0  0  0
 18 19  1  0  0  0  0
 18 29  1  0  0  0  0
 19 30  1  0  0  0  0
 19 31  1  0  0  0  0
 20 22  2  0  0  0  0
 21 32  1  0  0  0  0
 22 23  1  0  0  0  0
 24 35  1  0  0  0  0
 24 36  1  0  0  0  0
 24 37  1  0  0  0  0
M  CHG  3   7  -1   8  -1  10   1
M  END
> <PUBCHEM_COMPOUND_CID>
135563646

> <PUBCHEM_CONFORMER_RMSD>
0.8

> <PUBCHEM_CONFORMER_DIVERSEORDER>
1
41
43
50
4
24
56
20
52
29
51
14
3
11
32
39
16
27
13
21
40
31
8
36
2
58
34
5
55
22
30
57
44
38
18
37
26
25
54
42
7
35
9
10
49
12
47
53
48
46
6
19
23
28
17
45
15
33

> <PUBCHEM_MMFF94_PARTIAL_CHARGES>
31
1 1.37
10 -0.76
11 -0.76
12 -0.59
13 -0.49
14 -0.85
15 0.79
16 0.28
17 0.28
18 0.28
19 0.28
2 -0.56
20 0.49
21 0.65
22 0.28
23 0.7
24 0.51
25 0.56
3 -0.68
32 0.15
33 0.4
34 0.4
38 0.37
39 0.4
4 -0.68
40 0.4
5 -0.55
6 -0.57
7 -1.03
8 -1.03
9 -1.03

> <PUBCHEM_EFFECTIVE_ROTOR_COUNT>
5

> <PUBCHEM_PHARMACOPHORE_FEATURES>
16
1 13 donor
1 14 donor
1 2 acceptor
1 3 acceptor
1 3 donor
1 4 acceptor
1 4 donor
1 6 acceptor
1 7 acceptor
1 8 acceptor
1 9 acceptor
3 10 11 21 cation
4 1 7 8 9 anion
5 10 11 20 21 22 rings
5 2 15 16 17 18 rings
6 12 13 20 22 23 25 rings

> <PUBCHEM_HEAVY_ATOM_COUNT>
25

> <PUBCHEM_ATOM_DEF_STEREO_COUNT>
4

> <PUBCHEM_ATOM_UDEF_STEREO_COUNT>
0

> <PUBCHEM_BOND_DEF_STEREO_COUNT>
0

> <PUBCHEM_BOND_UDEF_STEREO_COUNT>
0

> <PUBCHEM_ISOTOPIC_ATOM_COUNT>
0

> <PUBCHEM_COMPONENT_COUNT>
1

> <PUBCHEM_CACTVS_TAUTO_COUNT>
-1

> <PUBCHEM_CONFORMER_ID>
0814897E00000001

> <PUBCHEM_MMFF94_ENERGY>
60.3146

> <PUBCHEM_FEATURE_SELFOVERLAP>
81.428

> <PUBCHEM_SHAPE_FINGERPRINT>
10074138 170 17977361052980700986
10090160 65 18260827137231302782
10411042 1 17402611247917951206
10498660 4 18410577253869821108
10670039 82 18260843592121439660
10871710 139 18196647617157893486
10906281 52 18262817232493298393
1100329 8 18050007997433774207
11578080 2 16661750077966334119
12403259 118 18336251367406841826
12925494 130 18340765919333803345
13140716 1 17907306799271933371
13402501 40 18341330085010395328
13583140 156 17388232573499264986
1454969 45 18341048635813849543
14787075 74 18042123318147405435
14790565 3 18339929315137716112
15196674 1 18409167684125831440
15927050 60 17257945217131923637
15961568 22 18259989258068850284
17980427 23 17894639166388199389
19591789 44 18195246843586345681
22113638 7 18263080092882145884
23227448 37 18127688438639793460
23559900 14 18050845520452298875
34934 24 18336824209012745831
350125 39 18338234869704782930
474 4 18041003942617515172
5104073 3 18262802856852708953
6442390 28 18412261766103376882
67856867 119 18263075527173362170
7097593 13 17248068922602226931
7808743 9 18195241342524640992
9709674 26 17909267984271244239
9981440 41 18333733533029533450

> <PUBCHEM_SHAPE_MULTIPOLES>
446.48
10.92
3.91
0.89
4.29
0.47
0.02
-5.87
-1.2
0.61
0.66
0.5
0.11
0.78

> <PUBCHEM_SHAPE_SELFOVERLAP>
943.731

> <PUBCHEM_SHAPE_VOLUME>
253.6

> <PUBCHEM_COORDINATE_TYPE>
2
5
10

$$$$
