135524479
  -OEChem-03292013293D

 39 41  0     1  0  0  0  0  0999 V2000
    4.6030   -1.9980   -1.2734 O   0  0  0  0  0  0  0  0  0  0  0  0
   -4.7963    0.9613    0.3824 O   0  0  0  0  0  0  0  0  0  0  0  0
   -0.5009    0.6756   -0.9897 N   0  0  0  0  0  0  0  0  0  0  0  0
   -2.2962    2.0007   -0.8397 N   0  0  0  0  0  0  0  0  0  0  0  0
   -1.3596   -1.3513    0.0170 N   0  0  0  0  0  0  0  0  0  0  0  0
   -3.6383   -1.0432    0.6900 N   0  0  0  0  0  0  0  0  0  0  0  0
   -2.5488   -3.1009    1.0391 N   0  0  0  0  0  0  0  0  0  0  0  0
    1.7860    0.2156   -0.0697 C   0  0  1  0  0  0  0  0  0  0  0  0
    3.2268   -0.2642   -0.3747 C   0  0  1  0  0  0  0  0  0  0  0  0
    1.8021    1.6132    0.5733 C   0  0  0  0  0  0  0  0  0  0  0  0
    4.1019   -0.1987    0.8890 C   0  0  0  0  0  0  0  0  0  0  0  0
    2.6809    1.6606    1.8186 C   0  0  0  0  0  0  0  0  0  0  0  0
    4.0977    1.1907    1.5173 C   0  0  0  0  0  0  0  0  0  0  0  0
    0.8998    0.2428   -1.3183 C   0  0  0  0  0  0  0  0  0  0  0  0
    3.2639   -1.6856   -0.9433 C   0  0  0  0  0  0  0  0  0  0  0  0
   -1.4756   -0.0690   -0.3938 C   0  0  0  0  0  0  0  0  0  0  0  0
   -1.0425    1.9131   -1.2389 C   0  0  0  0  0  0  0  0  0  0  0  0
   -2.5610    0.7698   -0.3163 C   0  0  0  0  0  0  0  0  0  0  0  0
   -3.7802    0.2871    0.2712 C   0  0  0  0  0  0  0  0  0  0  0  0
   -2.4625   -1.8197    0.5597 C   0  0  0  0  0  0  0  0  0  0  0  0
    1.3442   -0.4796    0.6581 H   0  0  0  0  0  0  0  0  0  0  0  0
    3.6743    0.4117   -1.1174 H   0  0  0  0  0  0  0  0  0  0  0  0
    0.7966    1.9213    0.8779 H   0  0  0  0  0  0  0  0  0  0  0  0
    2.1614    2.3552   -0.1514 H   0  0  0  0  0  0  0  0  0  0  0  0
    5.1385   -0.4679    0.6548 H   0  0  0  0  0  0  0  0  0  0  0  0
    3.7446   -0.9284    1.6272 H   0  0  0  0  0  0  0  0  0  0  0  0
    2.2428    1.0282    2.6007 H   0  0  0  0  0  0  0  0  0  0  0  0
    2.7079    2.6829    2.2125 H   0  0  0  0  0  0  0  0  0  0  0  0
    4.5837    1.9015    0.8377 H   0  0  0  0  0  0  0  0  0  0  0  0
    4.6863    1.1791    2.4416 H   0  0  0  0  0  0  0  0  0  0  0  0
    0.7815   -0.7418   -1.7803 H   0  0  0  0  0  0  0  0  0  0  0  0
    1.2692    0.9440   -2.0750 H   0  0  0  0  0  0  0  0  0  0  0  0
    2.6755   -1.7712   -1.8598 H   0  0  0  0  0  0  0  0  0  0  0  0
    2.8943   -2.4166   -0.2166 H   0  0  0  0  0  0  0  0  0  0  0  0
   -0.4769    2.7052   -1.7102 H   0  0  0  0  0  0  0  0  0  0  0  0
    4.6087   -2.9044   -1.6253 H   0  0  0  0  0  0  0  0  0  0  0  0
   -4.4451   -1.4848    1.1216 H   0  0  0  0  0  0  0  0  0  0  0  0
   -1.7579   -3.7340    0.9904 H   0  0  0  0  0  0  0  0  0  0  0  0
   -3.4035   -3.4534    1.4558 H   0  0  0  0  0  0  0  0  0  0  0  0
  1 15  1  0  0  0  0
  1 36  1  0  0  0  0
  2 19  2  0  0  0  0
  3 14  1  0  0  0  0
  3 16  1  0  0  0  0
  3 17  1  0  0  0  0
  4 17  2  0  0  0  0
  4 18  1  0  0  0  0
  5 16  1  0  0  0  0
  5 20  2  0  0  0  0
  6 19  1  0  0  0  0
  6 20  1  0  0  0  0
  6 37  1  0  0  0  0
  7 20  1  0  0  0  0
  7 38  1  0  0  0  0
  7 39  1  0  0  0  0
  8  9  1  0  0  0  0
  8 10  1  0  0  0  0
  8 14  1  0  0  0  0
  8 21  1  0  0  0  0
  9 11  1  0  0  0  0
  9 15  1  0  0  0  0
  9 22  1  0  0  0  0
 10 12  1  0  0  0  0
 10 23  1  0  0  0  0
 10 24  1  0  0  0  0
 11 13  1  0  0  0  0
 11 25  1  0  0  0  0
 11 26  1  0  0  0  0
 12 13  1  0  0  0  0
 12 27  1  0  0  0  0
 12 28  1  0  0  0  0
 13 29  1  0  0  0  0
 13 30  1  0  0  0  0
 14 31  1  0  0  0  0
 14 32  1  0  0  0  0
 15 33  1  0  0  0  0
 15 34  1  0  0  0  0
 16 18  2  0  0  0  0
 17 35  1  0  0  0  0
 18 19  1  0  0  0  0
M  END
> <PUBCHEM_COMPOUND_CID>
135524479

> <PUBCHEM_CONFORMER_RMSD>
0.6

> <PUBCHEM_CONFORMER_DIVERSEORDER>
1
146
151
148
157
78
137
134
100
101
27
107
62
48
25
114
158
128
98
21
82
155
113
119
55
108
120
57
115
58
72
139
110
53
40
97
17
65
109
127
54
66
133
153
152
135
129
84
69
121
124
130
70
49
64
136
71
118
102
31
138
14
51
141
106
3
126
86
93
34
33
122
142
28
104
92
10
59
90
131
87
20
67
96
144
30
23
156
47
56
44
37
6
154
147
105
125
99
81
111
140
116
43
46
15
2
35
143
123
91
112
45
149
22
41
19
94
76
60
18
79
73
89
39
103
26
13
32
52
85
74
16
75
150
36
29
117
4
145
9
50
77
38
95
12
11
61
83
132
42
8
88
7
5
159
63
80
68
24

> <PUBCHEM_MMFF94_PARTIAL_CHARGES>
19
1 -0.68
14 0.26
15 0.28
16 -0.03
17 0.04
18 0.14
19 0.72
2 -0.57
20 0.56
3 0.05
35 0.15
36 0.4
37 0.37
38 0.4
39 0.4
4 -0.57
5 -0.58
6 -0.49
7 -0.85

> <PUBCHEM_EFFECTIVE_ROTOR_COUNT>
4.2

> <PUBCHEM_PHARMACOPHORE_FEATURES>
9
1 1 acceptor
1 1 donor
1 2 acceptor
1 6 donor
1 7 donor
3 3 4 17 cation
5 3 4 16 17 18 rings
6 5 6 16 18 19 20 rings
6 8 9 10 11 12 13 rings

> <PUBCHEM_HEAVY_ATOM_COUNT>
20

> <PUBCHEM_ATOM_DEF_STEREO_COUNT>
0

> <PUBCHEM_ATOM_UDEF_STEREO_COUNT>
2

> <PUBCHEM_BOND_DEF_STEREO_COUNT>
0

> <PUBCHEM_BOND_UDEF_STEREO_COUNT>
0

> <PUBCHEM_ISOTOPIC_ATOM_COUNT>
0

> <PUBCHEM_COMPONENT_COUNT>
1

> <PUBCHEM_CACTVS_TAUTO_COUNT>
-1

> <PUBCHEM_CONFORMER_ID>
0813F07F00000001

> <PUBCHEM_MMFF94_ENERGY>
36.0028

> <PUBCHEM_FEATURE_SELFOVERLAP>
45.85

> <PUBCHEM_SHAPE_FINGERPRINT>
10366900 7 18270952544317260996
11132069 177 18334293180252914341
11370993 144 18202007607367428609
11552529 35 17630890606282522327
11640471 11 15051727625155124824
12236239 1 16081369618471198156
12553582 1 17603867810116454503
12633257 1 18337091450093603688
12670545 47 18343302599652417148
13083527 12 17548126092894073255
13533116 47 18131636660182862235
13544592 145 18411704244492446655
13583140 156 16987710371671534139
14289901 80 17774716588218481938
14866123 147 16760020931370390310
15295992 7 17917716781605002097
15653759 3 18411978066006351328
16752209 62 17531515513019217421
17804303 29 18336274469883004495
1813 80 17095522932798699253
19049666 15 18269830913697548940
20361792 2 15936679449816492924
20600515 1 18187359969529399853
20645477 70 17560797698168739758
21065199 12 18271805778008799200
21650355 55 18188200013766716021
22112679 90 16805316665727777492
23175994 123 17773886294173820294
23366157 5 17171248613855353405
23557571 272 18336262465354551355
23559900 14 18409174311582259460
23598288 3 15720778122921476380
2838139 119 16701178539807693409
474 4 15482672398784263484
49207404 50 18199743816379605696
58807428 26 18188213109438292315
602551 16 18114176454314994986
6049 1 18413388726803604332
90316 7 17967524688561350989
9709674 26 18412541041602995478

> <PUBCHEM_SHAPE_MULTIPOLES>
374.95
8.88
2.44
1.43
1.01
1.13
-0.1
1.4
-2.11
-0.38
-0.24
0.98
-0.19
2.54

> <PUBCHEM_SHAPE_SELFOVERLAP>
798.672

> <PUBCHEM_SHAPE_VOLUME>
206.4

> <PUBCHEM_COORDINATE_TYPE>
2
5
10

$$$$
