135565925
  -OEChem-03292013293D

 40 42  0     1  0  0  0  0  0999 V2000
   -1.8533   -2.8919    0.4252 S   0  0  0  0  0  0  0  0  0  0  0  0
    3.0495   -2.2130    0.8460 O   0  0  0  0  0  0  0  0  0  0  0  0
    1.1992   -0.5686   -1.7393 O   0  0  0  0  0  0  0  0  0  0  0  0
   -2.1464    1.2889   -1.1626 O   0  0  0  0  0  0  0  0  0  0  0  0
   -4.5152    2.7126   -1.0981 O   0  0  0  0  0  0  0  0  0  0  0  0
    2.7464   -1.5144   -0.3288 N   0  0  0  0  0  0  0  0  0  0  0  0
   -0.6632   -0.6003    0.1294 N   0  0  0  0  0  0  0  0  0  0  0  0
    4.2266    1.3708    1.4430 N   0  0  0  0  0  0  0  0  0  0  0  0
    3.2959    3.0292    0.2963 N   0  0  0  0  0  0  0  0  0  0  0  0
    0.3919   -1.6250    0.2207 C   0  0  1  0  0  0  0  0  0  0  0  0
   -0.1616   -2.9791   -0.1835 C   0  0  0  0  0  0  0  0  0  0  0  0
    1.4749   -1.1828   -0.7077 C   0  0  0  0  0  0  0  0  0  0  0  0
    3.9258   -1.1817   -1.0983 C   0  0  0  0  0  0  0  0  0  0  0  0
   -1.8290   -1.1457    0.2791 C   0  0  0  0  0  0  0  0  0  0  0  0
    4.9038   -0.3036   -0.3215 C   0  0  0  0  0  0  0  0  0  0  0  0
   -3.0860   -0.3612    0.2942 C   0  0  0  0  0  0  0  0  0  0  0  0
    4.2932    1.0007    0.1293 C   0  0  0  0  0  0  0  0  0  0  0  0
   -3.1985    0.8275   -0.4269 C   0  0  0  0  0  0  0  0  0  0  0  0
   -4.1661   -0.8273    1.0438 C   0  0  0  0  0  0  0  0  0  0  0  0
    3.7128    2.0400   -0.5590 C   0  0  0  0  0  0  0  0  0  0  0  0
   -4.3910    1.5502   -0.3985 C   0  0  0  0  0  0  0  0  0  0  0  0
   -5.3587   -0.1045    1.0722 C   0  0  0  0  0  0  0  0  0  0  0  0
   -5.4712    1.0843    0.3511 C   0  0  0  0  0  0  0  0  0  0  0  0
    3.6201    2.5950    1.4938 C   0  0  0  0  0  0  0  0  0  0  0  0
    0.7512   -1.6358    1.2570 H   0  0  0  0  0  0  0  0  0  0  0  0
   -0.1724   -3.1195   -1.2694 H   0  0  0  0  0  0  0  0  0  0  0  0
    0.3915   -3.8053    0.2719 H   0  0  0  0  0  0  0  0  0  0  0  0
    3.6325   -0.6862   -2.0306 H   0  0  0  0  0  0  0  0  0  0  0  0
    4.4168   -2.1230   -1.3711 H   0  0  0  0  0  0  0  0  0  0  0  0
    5.2888   -0.8486    0.5495 H   0  0  0  0  0  0  0  0  0  0  0  0
    5.7689   -0.0799   -0.9575 H   0  0  0  0  0  0  0  0  0  0  0  0
   -4.1118   -1.7358    1.6363 H   0  0  0  0  0  0  0  0  0  0  0  0
    4.5624    0.8388    2.2350 H   0  0  0  0  0  0  0  0  0  0  0  0
    3.5724    2.1279   -1.6267 H   0  0  0  0  0  0  0  0  0  0  0  0
    3.0897   -3.1230    0.5058 H   0  0  0  0  0  0  0  0  0  0  0  0
   -6.1984   -0.4643    1.6597 H   0  0  0  0  0  0  0  0  0  0  0  0
   -6.4058    1.6378    0.3831 H   0  0  0  0  0  0  0  0  0  0  0  0
    3.4460    3.1112    2.4271 H   0  0  0  0  0  0  0  0  0  0  0  0
   -2.4116    2.1217   -1.5901 H   0  0  0  0  0  0  0  0  0  0  0  0
   -5.4082    3.0721   -0.9595 H   0  0  0  0  0  0  0  0  0  0  0  0
  1 11  1  0  0  0  0
  1 14  1  0  0  0  0
  2  6  1  0  0  0  0
  2 35  1  0  0  0  0
  3 12  2  0  0  0  0
  4 18  1  0  0  0  0
  4 39  1  0  0  0  0
  5 21  1  0  0  0  0
  5 40  1  0  0  0  0
  6 12  1  0  0  0  0
  6 13  1  0  0  0  0
  7 10  1  0  0  0  0
  7 14  2  0  0  0  0
  8 17  1  0  0  0  0
  8 24  1  0  0  0  0
  8 33  1  0  0  0  0
  9 20  1  0  0  0  0
  9 24  2  0  0  0  0
 10 11  1  0  0  0  0
 10 12  1  0  0  0  0
 10 25  1  0  0  0  0
 11 26  1  0  0  0  0
 11 27  1  0  0  0  0
 13 15  1  0  0  0  0
 13 28  1  0  0  0  0
 13 29  1  0  0  0  0
 14 16  1  0  0  0  0
 15 17  1  0  0  0  0
 15 30  1  0  0  0  0
 15 31  1  0  0  0  0
 16 18  2  0  0  0  0
 16 19  1  0  0  0  0
 17 20  2  0  0  0  0
 18 21  1  0  0  0  0
 19 22  2  0  0  0  0
 19 32  1  0  0  0  0
 20 34  1  0  0  0  0
 21 23  2  0  0  0  0
 22 23  1  0  0  0  0
 22 36  1  0  0  0  0
 23 37  1  0  0  0  0
 24 38  1  0  0  0  0
M  END
> <PUBCHEM_COMPOUND_CID>
135565925

> <PUBCHEM_CONFORMER_RMSD>
1.2

> <PUBCHEM_CONFORMER_DIVERSEORDER>
2
13
23
72
98
61
77
80
35
53
16
39
18
4
81
68
56
78
94
29
96
3
52
19
84
46
37
44
83
71
25
38
43
88
42
58
60
79
75
45
48
9
57
24
100
55
15
51
99
11
34
91
101
102
21
12
70
41
63
92
64
10
97
1
76
62
5
6
89
87
85
26
14
7
22
54
65
82
47
59
49
67
17
20
33
30
90
69
66
74
95
31
40
32
93
36
86
8
28
73
50
27

> <PUBCHEM_MMFF94_PARTIAL_CHARGES>
33
1 -0.37
10 0.31
11 0.23
12 0.57
13 0.3
14 0.5
15 0.18
16 0.09
17 -0.33
18 0.08
19 -0.15
2 -0.44
20 0.08
21 0.08
22 -0.15
23 -0.15
24 0.04
3 -0.57
32 0.15
33 0.27
34 0.15
35 0.4
36 0.15
37 0.15
38 0.15
39 0.45
4 -0.53
40 0.45
5 -0.53
6 -0.32
7 -0.7
8 0.03
9 -0.57

> <PUBCHEM_EFFECTIVE_ROTOR_COUNT>
6.6

> <PUBCHEM_PHARMACOPHORE_FEATURES>
9
1 3 acceptor
1 4 donor
1 5 donor
1 7 acceptor
1 8 donor
3 8 9 24 cation
5 1 7 10 11 14 rings
5 8 9 17 20 24 rings
6 16 18 19 21 22 23 rings

> <PUBCHEM_HEAVY_ATOM_COUNT>
24

> <PUBCHEM_ATOM_DEF_STEREO_COUNT>
1

> <PUBCHEM_ATOM_UDEF_STEREO_COUNT>
0

> <PUBCHEM_BOND_DEF_STEREO_COUNT>
0

> <PUBCHEM_BOND_UDEF_STEREO_COUNT>
0

> <PUBCHEM_ISOTOPIC_ATOM_COUNT>
0

> <PUBCHEM_COMPONENT_COUNT>
1

> <PUBCHEM_CACTVS_TAUTO_COUNT>
-1

> <PUBCHEM_CONFORMER_ID>
0814926500000002

> <PUBCHEM_MMFF94_ENERGY>
50.0967

> <PUBCHEM_FEATURE_SELFOVERLAP>
45.685

> <PUBCHEM_SHAPE_FINGERPRINT>
10319926 262 18334008424201219794
11045977 3 18336270058830200759
11089746 13 18411415107626798750
11112241 14 17345175904134776177
11595378 159 16660355974415894908
11796584 16 11599718433724671863
12403259 415 18336553737330881991
12596602 18 15430331264213944292
12633257 1 18188756349607424432
12769317 202 18342452591238296618
12925494 130 18193837047027734921
13402501 40 18410294696719750452
13583140 156 16878482618698777293
13914758 101 13840256001958257959
14178342 30 17823699857475958746
14251764 38 18267298910048745796
14848178 96 18343020016722019184
15475509 84 17755570552364179626
1768 85 18199194056234275793
17868525 174 18335976459936481482
20645477 56 18409738365205456599
21033648 144 18130505331416252020
21033648 29 18407757036530199528
21315764 268 18407759240043373751
21475661 188 18340483469662201256
21792934 111 18041290907401343473
22122407 14 17845391972409483057
22289505 5 18271533018412184774
23227448 37 18341332292122120287
23559900 14 18202570545001073886
314194 84 10809641336666791619
345986 75 13696134215926562052
4371632 12 15910773972313227803
474 4 18202004317433172106
495365 180 17703785951324545762
508706 21 18335696186875198533
5104073 3 17969510312261231731
7808743 9 18118410785442350364
9777508 108 18264491861264028674

> <PUBCHEM_SHAPE_MULTIPOLES>
454.36
12.5
3.44
1.21
2.93
0.21
-0.01
7.65
-1.63
-1.18
-0.22
-0.36
0.35
2.09

> <PUBCHEM_SHAPE_SELFOVERLAP>
965.542

> <PUBCHEM_SHAPE_VOLUME>
255.3

> <PUBCHEM_COORDINATE_TYPE>
2
5
10

$$$$
