135596616
  -OEChem-03292013293D

 58 60  0     1  0  0  0  0  0999 V2000
   -6.0635   -2.0861    1.5597 O   0  0  0  0  0  0  0  0  0  0  0  0
    4.6610   -1.4461   -2.1932 O   0  0  0  0  0  0  0  0  0  0  0  0
    7.7341   -1.7094    1.7939 O   0  0  0  0  0  0  0  0  0  0  0  0
    5.5698   -1.7016    2.4762 O   0  0  0  0  0  0  0  0  0  0  0  0
    6.6206    3.8743    1.4098 O   0  0  0  0  0  0  0  0  0  0  0  0
    7.7783    3.0927   -0.3778 O   0  0  0  0  0  0  0  0  0  0  0  0
   -7.7967    1.2984    0.1218 N   0  0  0  0  0  0  0  0  0  0  0  0
   -7.9207   -0.7568    1.2533 N   0  0  0  0  0  0  0  0  0  0  0  0
   -9.8395    0.5465    0.9914 N   0  0  0  0  0  0  0  0  0  0  0  0
    4.6772   -0.9160    0.0642 N   0  0  0  0  0  0  0  0  0  0  0  0
   -3.7153    0.6312   -0.9041 C   0  0  2  0  0  0  0  0  0  0  0  0
   -4.1969    2.0688   -0.6925 C   0  0  0  0  0  0  0  0  0  0  0  0
   -4.3357   -0.2942    0.1550 C   0  0  0  0  0  0  0  0  0  0  0  0
   -2.1909    0.5494   -0.8703 C   0  0  0  0  0  0  0  0  0  0  0  0
   -5.7218    2.1544   -0.7952 C   0  0  0  0  0  0  0  0  0  0  0  0
   -5.8006   -0.0386    0.3770 C   0  0  0  0  0  0  0  0  0  0  0  0
   -6.4530    1.0571   -0.0569 C   0  0  0  0  0  0  0  0  0  0  0  0
   -1.7067   -0.8622   -1.1930 C   0  0  0  0  0  0  0  0  0  0  0  0
   -6.5823   -1.0661    1.1168 C   0  0  0  0  0  0  0  0  0  0  0  0
   -0.2018   -0.9450   -1.1821 C   0  0  0  0  0  0  0  0  0  0  0  0
   -8.4965    0.4043    0.7611 C   0  0  0  0  0  0  0  0  0  0  0  0
    0.4712   -1.2603   -0.0016 C   0  0  0  0  0  0  0  0  0  0  0  0
    0.5180   -0.7064   -2.3530 C   0  0  0  0  0  0  0  0  0  0  0  0
    1.8639   -1.3370    0.0079 C   0  0  0  0  0  0  0  0  0  0  0  0
    1.9106   -0.7830   -2.3433 C   0  0  0  0  0  0  0  0  0  0  0  0
    2.5837   -1.0981   -1.1629 C   0  0  0  0  0  0  0  0  0  0  0  0
    6.1129   -0.9322    0.2301 C   0  0  1  0  0  0  0  0  0  0  0  0
    4.0357   -1.1773   -1.1521 C   0  0  0  0  0  0  0  0  0  0  0  0
    6.7576    0.4293   -0.0566 C   0  0  0  0  0  0  0  0  0  0  0  0
    6.3321    1.5780    0.8666 C   0  0  0  0  0  0  0  0  0  0  0  0
    6.4085   -1.4697    1.6153 C   0  0  0  0  0  0  0  0  0  0  0  0
    6.9866    2.9016    0.5346 C   0  0  0  0  0  0  0  0  0  0  0  0
   -4.0578    0.3045   -1.8966 H   0  0  0  0  0  0  0  0  0  0  0  0
   -3.7476    2.7393   -1.4348 H   0  0  0  0  0  0  0  0  0  0  0  0
   -3.8760    2.4279    0.2943 H   0  0  0  0  0  0  0  0  0  0  0  0
   -3.8155   -0.1812    1.1146 H   0  0  0  0  0  0  0  0  0  0  0  0
   -4.2146   -1.3357   -0.1646 H   0  0  0  0  0  0  0  0  0  0  0  0
   -1.8161    0.8628    0.1129 H   0  0  0  0  0  0  0  0  0  0  0  0
   -1.7724    1.2554   -1.5995 H   0  0  0  0  0  0  0  0  0  0  0  0
   -6.0152    2.1122   -1.8519 H   0  0  0  0  0  0  0  0  0  0  0  0
   -6.0392    3.1336   -0.4156 H   0  0  0  0  0  0  0  0  0  0  0  0
   -2.0836   -1.1804   -2.1734 H   0  0  0  0  0  0  0  0  0  0  0  0
   -2.0881   -1.5931   -0.4714 H   0  0  0  0  0  0  0  0  0  0  0  0
   -8.5152   -1.4164    1.7463 H   0  0  0  0  0  0  0  0  0  0  0  0
   -0.0791   -1.4529    0.9156 H   0  0  0  0  0  0  0  0  0  0  0  0
    0.0047   -0.4573   -3.2780 H   0  0  0  0  0  0  0  0  0  0  0  0
    2.3453   -1.6155    0.9407 H   0  0  0  0  0  0  0  0  0  0  0  0
    2.4530   -0.5886   -3.2650 H   0  0  0  0  0  0  0  0  0  0  0  0
  -10.3441    1.3645    0.6675 H   0  0  0  0  0  0  0  0  0  0  0  0
  -10.3682   -0.1599    1.4913 H   0  0  0  0  0  0  0  0  0  0  0  0
    6.5120   -1.6654   -0.4823 H   0  0  0  0  0  0  0  0  0  0  0  0
    7.8492    0.3266   -0.0003 H   0  0  0  0  0  0  0  0  0  0  0  0
    6.5355    0.7153   -1.0933 H   0  0  0  0  0  0  0  0  0  0  0  0
    4.1313   -0.6219    0.8675 H   0  0  0  0  0  0  0  0  0  0  0  0
    6.5922    1.3310    1.9019 H   0  0  0  0  0  0  0  0  0  0  0  0
    5.2480    1.7217    0.8009 H   0  0  0  0  0  0  0  0  0  0  0  0
    7.9228   -2.0722    2.6855 H   0  0  0  0  0  0  0  0  0  0  0  0
    7.0570    4.7296    1.2090 H   0  0  0  0  0  0  0  0  0  0  0  0
  1 19  2  0  0  0  0
  2 28  2  0  0  0  0
  3 31  1  0  0  0  0
  3 57  1  0  0  0  0
  4 31  2  0  0  0  0
  5 32  1  0  0  0  0
  5 58  1  0  0  0  0
  6 32  2  0  0  0  0
  7 17  1  0  0  0  0
  7 21  2  0  0  0  0
  8 19  1  0  0  0  0
  8 21  1  0  0  0  0
  8 44  1  0  0  0  0
  9 21  1  0  0  0  0
  9 49  1  0  0  0  0
  9 50  1  0  0  0  0
 10 27  1  0  0  0  0
 10 28  1  0  0  0  0
 10 54  1  0  0  0  0
 11 12  1  0  0  0  0
 11 13  1  0  0  0  0
 11 14  1  0  0  0  0
 11 33  1  0  0  0  0
 12 15  1  0  0  0  0
 12 34  1  0  0  0  0
 12 35  1  0  0  0  0
 13 16  1  0  0  0  0
 13 36  1  0  0  0  0
 13 37  1  0  0  0  0
 14 18  1  0  0  0  0
 14 38  1  0  0  0  0
 14 39  1  0  0  0  0
 15 17  1  0  0  0  0
 15 40  1  0  0  0  0
 15 41  1  0  0  0  0
 16 17  2  0  0  0  0
 16 19  1  0  0  0  0
 18 20  1  0  0  0  0
 18 42  1  0  0  0  0
 18 43  1  0  0  0  0
 20 22  2  0  0  0  0
 20 23  1  0  0  0  0
 22 24  1  0  0  0  0
 22 45  1  0  0  0  0
 23 25  2  0  0  0  0
 23 46  1  0  0  0  0
 24 26  2  0  0  0  0
 24 47  1  0  0  0  0
 25 26  1  0  0  0  0
 25 48  1  0  0  0  0
 26 28  1  0  0  0  0
 27 29  1  0  0  0  0
 27 31  1  0  0  0  0
 27 51  1  0  0  0  0
 29 30  1  0  0  0  0
 29 52  1  0  0  0  0
 29 53  1  0  0  0  0
 30 32  1  0  0  0  0
 30 55  1  0  0  0  0
 30 56  1  0  0  0  0
M  END
> <PUBCHEM_COMPOUND_CID>
135596616

> <PUBCHEM_CONFORMER_RMSD>
1

> <PUBCHEM_CONFORMER_DIVERSEORDER>
1
110
45
37
108
51
25
103
105
43
36
82
5
54
21
53
97
27
26
84
98
75
78
52
63
79
50
69
102
44
94
65
48
89
55
107
4
62
22
90
104
29
112
68
2
83
13
99
31
10
38
33
59
15
8
106
66
91
67
70
42
96
95
111
56
23
24
93
77
87
72
71
28
19
64
40
46
7
58
32
86
88
49
16
14
39
57
81
47
113
20
41
9
12
17
60
6
74
30
35
85
3
76
73
109
100
80
92
61
34
101
11
114
18

> <PUBCHEM_MMFF94_PARTIAL_CHARGES>
38
1 -0.57
10 -0.73
13 0.14
15 0.14
16 -0.12
17 0.03
18 0.14
19 0.62
2 -0.57
20 -0.14
21 0.56
22 -0.15
23 -0.15
24 -0.15
25 -0.15
26 0.09
27 0.36
28 0.54
3 -0.65
30 0.06
31 0.66
32 0.66
4 -0.57
44 0.37
45 0.15
46 0.15
47 0.15
48 0.15
49 0.4
5 -0.65
50 0.4
54 0.37
57 0.5
58 0.5
6 -0.57
7 -0.62
8 -0.49
9 -0.85

> <PUBCHEM_EFFECTIVE_ROTOR_COUNT>
10.8

> <PUBCHEM_PHARMACOPHORE_FEATURES>
14
1 1 acceptor
1 10 donor
1 2 acceptor
1 3 acceptor
1 4 acceptor
1 5 acceptor
1 6 acceptor
1 8 donor
1 9 donor
3 3 4 31 anion
3 5 6 32 anion
6 11 12 13 15 16 17 rings
6 20 22 23 24 25 26 rings
6 7 8 16 17 19 21 rings

> <PUBCHEM_HEAVY_ATOM_COUNT>
32

> <PUBCHEM_ATOM_DEF_STEREO_COUNT>
2

> <PUBCHEM_ATOM_UDEF_STEREO_COUNT>
0

> <PUBCHEM_BOND_DEF_STEREO_COUNT>
0

> <PUBCHEM_BOND_UDEF_STEREO_COUNT>
0

> <PUBCHEM_ISOTOPIC_ATOM_COUNT>
0

> <PUBCHEM_COMPONENT_COUNT>
1

> <PUBCHEM_CACTVS_TAUTO_COUNT>
-1

> <PUBCHEM_CONFORMER_ID>
08150A4800000001

> <PUBCHEM_MMFF94_ENERGY>
65.1782

> <PUBCHEM_FEATURE_SELFOVERLAP>
71.234

> <PUBCHEM_SHAPE_FINGERPRINT>
10 15 18411700989002188567
10816530 90 17632856456412103072
12522641 24 18261951852550326114
12539765 74 17704359874629668326
13782708 43 13117997786448748086
14919807 6 10447666660137852507
15183329 4 16415478267921203240
15276724 80 15267061389702590011
15419008 91 18187075114698206109
1577012 14 18059849610508972372
15840311 113 18202569484164829020
1754908 1 18040721368224031857
17686467 74 18338517551878358271
17852330 31 18188477057044215986
18393751 57 18272086085044887479
19302320 297 18343014520055722488
21130935 74 17749106647594793370
21344244 78 16443061704154786044
21585481 104 12103570792219762306
21779490 81 18409168774963870256
22224240 67 18202004305329382175
23576562 1 13253926054246804035
25269216 80 14979668953703392685
3711267 37 17132117943920278520
397830 11 18411704321770495575
4073 2 15697994125008007183
4258327 124 17704070733183377741
4403749 210 18412824720842610143
474113 269 12973873814937768984
5109719 28 18343586256783672352
59682541 35 18261116292231530825
59682541 52 9511455641875513238
6438161 24 11746933213703896164
9831232 110 8646476432572839716
9953998 17 18335141990956650203

> <PUBCHEM_SHAPE_MULTIPOLES>
603.41
30.94
2.77
1.95
18.26
3.03
0.14
12.31
-17.21
-6.31
-0.65
-1.98
-1.01
1.63

> <PUBCHEM_SHAPE_SELFOVERLAP>
1276.358

> <PUBCHEM_SHAPE_VOLUME>
333.3

> <PUBCHEM_COORDINATE_TYPE>
2
5
10

$$$$
