135537671
  -OEChem-03292013293D

 54 57  0     1  0  0  0  0  0999 V2000
    3.1258    2.2159   -0.9456 O   0  0  0  0  0  0  0  0  0  0  0  0
    0.6932    3.9018   -0.1374 O   0  0  0  0  0  0  0  0  0  0  0  0
    5.4371    3.7328   -0.5269 O   0  0  0  0  0  0  0  0  0  0  0  0
    3.2417   -4.4873    0.4202 O   0  0  0  0  0  0  0  0  0  0  0  0
    2.6825   -0.0339   -0.0979 N   0  0  0  0  0  0  0  0  0  0  0  0
    4.1550   -1.6622    0.3286 N   0  0  0  0  0  0  0  0  0  0  0  0
    0.6530   -1.3273   -0.3578 N   0  0  0  0  0  0  0  0  0  0  0  0
    1.1104   -3.6597   -0.0557 N   0  0  0  0  0  0  0  0  0  0  0  0
   -1.0712   -2.9138   -0.5328 N   0  0  0  0  0  0  0  0  0  0  0  0
    2.1492    1.3580   -0.3264 C   0  0  1  0  0  0  0  0  0  0  0  0
    1.8554    3.5123    0.5906 C   0  0  1  0  0  0  0  0  0  0  0  0
    1.7220    2.0537    0.9614 C   0  0  0  0  0  0  0  0  0  0  0  0
    3.0655    3.5207   -0.3347 C   0  0  1  0  0  0  0  0  0  0  0  0
    4.3738    3.7523    0.4092 C   0  0  0  0  0  0  0  0  0  0  0  0
    1.9777   -1.2010   -0.1216 C   0  0  0  0  0  0  0  0  0  0  0  0
    3.9874   -0.3631    0.1768 C   0  0  0  0  0  0  0  0  0  0  0  0
    2.9066   -2.1782    0.1429 C   0  0  0  0  0  0  0  0  0  0  0  0
    2.4861   -3.5513    0.1918 C   0  0  0  0  0  0  0  0  0  0  0  0
    0.2400   -2.5756   -0.3192 C   0  0  0  0  0  0  0  0  0  0  0  0
   -5.6353    0.2491    0.6400 C   0  0  0  0  0  0  0  0  0  0  0  0
   -2.1928   -2.1372   -0.2446 C   0  0  0  0  0  0  0  0  0  0  0  0
   -5.6264    1.5856   -0.1173 C   0  0  0  0  0  0  0  0  0  0  0  0
   -4.4363   -0.5825    0.3318 C   0  0  0  0  0  0  0  0  0  0  0  0
   -6.8393    2.4464    0.2363 C   0  0  0  0  0  0  0  0  0  0  0  0
   -3.3468   -2.2642   -1.0180 C   0  0  0  0  0  0  0  0  0  0  0  0
   -2.1606   -1.2329    0.8169 C   0  0  0  0  0  0  0  0  0  0  0  0
   -4.4683   -1.4868   -0.7297 C   0  0  0  0  0  0  0  0  0  0  0  0
   -3.2823   -0.4555    1.1051 C   0  0  0  0  0  0  0  0  0  0  0  0
   -6.8032    3.7838   -0.4859 C   0  0  0  0  0  0  0  0  0  0  0  0
    1.3142    1.2487   -1.0286 H   0  0  0  0  0  0  0  0  0  0  0  0
    1.9480    4.1722    1.4579 H   0  0  0  0  0  0  0  0  0  0  0  0
    2.4082    1.8092    1.7808 H   0  0  0  0  0  0  0  0  0  0  0  0
    0.7102    1.7605    1.2583 H   0  0  0  0  0  0  0  0  0  0  0  0
    2.9638    4.2474   -1.1485 H   0  0  0  0  0  0  0  0  0  0  0  0
    4.5628    2.9623    1.1429 H   0  0  0  0  0  0  0  0  0  0  0  0
    4.3692    4.7225    0.9154 H   0  0  0  0  0  0  0  0  0  0  0  0
    0.8183    4.8268   -0.4102 H   0  0  0  0  0  0  0  0  0  0  0  0
    4.7675    0.3815    0.2570 H   0  0  0  0  0  0  0  0  0  0  0  0
    6.2592    3.8844   -0.0302 H   0  0  0  0  0  0  0  0  0  0  0  0
    0.7062   -4.5916   -0.0437 H   0  0  0  0  0  0  0  0  0  0  0  0
   -1.2798   -3.8653   -0.8208 H   0  0  0  0  0  0  0  0  0  0  0  0
   -6.5479   -0.3096    0.3948 H   0  0  0  0  0  0  0  0  0  0  0  0
   -5.6866    0.4352    1.7208 H   0  0  0  0  0  0  0  0  0  0  0  0
   -5.6112    1.3990   -1.1987 H   0  0  0  0  0  0  0  0  0  0  0  0
   -4.7072    2.1368    0.1194 H   0  0  0  0  0  0  0  0  0  0  0  0
   -7.7611    1.9163   -0.0297 H   0  0  0  0  0  0  0  0  0  0  0  0
   -6.8670    2.6239    1.3177 H   0  0  0  0  0  0  0  0  0  0  0  0
   -3.3834   -2.9646   -1.8486 H   0  0  0  0  0  0  0  0  0  0  0  0
   -1.2856   -1.1270    1.4524 H   0  0  0  0  0  0  0  0  0  0  0  0
   -5.3607   -1.5934   -1.3410 H   0  0  0  0  0  0  0  0  0  0  0  0
   -3.2457    0.2435    1.9366 H   0  0  0  0  0  0  0  0  0  0  0  0
   -5.9085    4.3529   -0.2138 H   0  0  0  0  0  0  0  0  0  0  0  0
   -6.8044    3.6434   -1.5715 H   0  0  0  0  0  0  0  0  0  0  0  0
   -7.6802    4.3821   -0.2197 H   0  0  0  0  0  0  0  0  0  0  0  0
  1 10  1  0  0  0  0
  1 13  1  0  0  0  0
  2 11  1  0  0  0  0
  2 37  1  0  0  0  0
  3 14  1  0  0  0  0
  3 39  1  0  0  0  0
  4 18  2  0  0  0  0
  5 10  1  0  0  0  0
  5 15  1  0  0  0  0
  5 16  1  0  0  0  0
  6 16  2  0  0  0  0
  6 17  1  0  0  0  0
  7 15  1  0  0  0  0
  7 19  2  0  0  0  0
  8 18  1  0  0  0  0
  8 19  1  0  0  0  0
  8 40  1  0  0  0  0
  9 19  1  0  0  0  0
  9 21  1  0  0  0  0
  9 41  1  0  0  0  0
 10 12  1  0  0  0  0
 10 30  1  0  0  0  0
 11 12  1  0  0  0  0
 11 13  1  0  0  0  0
 11 31  1  0  0  0  0
 12 32  1  0  0  0  0
 12 33  1  0  0  0  0
 13 14  1  0  0  0  0
 13 34  1  0  0  0  0
 14 35  1  0  0  0  0
 14 36  1  0  0  0  0
 15 17  2  0  0  0  0
 16 38  1  0  0  0  0
 17 18  1  0  0  0  0
 20 22  1  0  0  0  0
 20 23  1  0  0  0  0
 20 42  1  0  0  0  0
 20 43  1  0  0  0  0
 21 25  2  0  0  0  0
 21 26  1  0  0  0  0
 22 24  1  0  0  0  0
 22 44  1  0  0  0  0
 22 45  1  0  0  0  0
 23 27  2  0  0  0  0
 23 28  1  0  0  0  0
 24 29  1  0  0  0  0
 24 46  1  0  0  0  0
 24 47  1  0  0  0  0
 25 27  1  0  0  0  0
 25 48  1  0  0  0  0
 26 28  2  0  0  0  0
 26 49  1  0  0  0  0
 27 50  1  0  0  0  0
 28 51  1  0  0  0  0
 29 52  1  0  0  0  0
 29 53  1  0  0  0  0
 29 54  1  0  0  0  0
M  END
> <PUBCHEM_COMPOUND_CID>
135537671

> <PUBCHEM_CONFORMER_RMSD>
1

> <PUBCHEM_CONFORMER_DIVERSEORDER>
1
80
50
21
73
68
98
44
65
16
52
13
63
24
75
62
82
10
95
49
94
53
27
56
58
101
88
79
55
67
39
46
35
26
72
74
19
66
87
32
22
30
93
71
89
102
83
15
64
29
38
41
59
81
61
100
47
78
70
77
54
34
40
57
85
17
2
43
37
69
20
25
45
31
14
92
4
8
18
42
48
51
97
33
84
99
5
76
90
11
9
86
3
60
96
28
12
23
6
36
7
91

> <PUBCHEM_MMFF94_PARTIAL_CHARGES>
34
1 -0.56
10 0.54
11 0.28
13 0.28
14 0.28
15 -0.03
16 0.04
17 0.14
18 0.72
19 0.56
2 -0.68
20 0.14
21 0.1
23 -0.14
25 -0.15
26 -0.15
27 -0.15
28 -0.15
3 -0.68
37 0.4
38 0.15
39 0.4
4 -0.57
40 0.37
41 0.4
48 0.15
49 0.15
5 0.05
50 0.15
51 0.15
6 -0.57
7 -0.58
8 -0.49
9 -0.55

> <PUBCHEM_EFFECTIVE_ROTOR_COUNT>
8

> <PUBCHEM_PHARMACOPHORE_FEATURES>
14
1 1 acceptor
1 2 acceptor
1 2 donor
1 29 hydrophobe
1 3 acceptor
1 3 donor
1 4 acceptor
1 8 donor
1 9 donor
3 5 6 16 cation
5 1 10 11 12 13 rings
5 5 6 15 16 17 rings
6 21 23 25 26 27 28 rings
6 7 8 15 17 18 19 rings

> <PUBCHEM_HEAVY_ATOM_COUNT>
29

> <PUBCHEM_ATOM_DEF_STEREO_COUNT>
3

> <PUBCHEM_ATOM_UDEF_STEREO_COUNT>
0

> <PUBCHEM_BOND_DEF_STEREO_COUNT>
0

> <PUBCHEM_BOND_UDEF_STEREO_COUNT>
0

> <PUBCHEM_ISOTOPIC_ATOM_COUNT>
0

> <PUBCHEM_COMPONENT_COUNT>
1

> <PUBCHEM_CACTVS_TAUTO_COUNT>
-1

> <PUBCHEM_CONFORMER_ID>
0814240700000001

> <PUBCHEM_MMFF94_ENERGY>
72.0486

> <PUBCHEM_FEATURE_SELFOVERLAP>
71.23

> <PUBCHEM_SHAPE_FINGERPRINT>
10439779 11 18198052582622822673
10937287 8 18122344854851939870
11273773 38 18411140225240206069
12925494 130 18409728461706879617
13583140 156 18262816111486631995
13617811 41 17693077979749864975
13878862 14 18262500513030891997
13944108 23 18265623091119465964
14117953 113 18126848192570363999
14223995 32 18198898300544540600
14395042 24 18261947437750628864
14790565 3 18121501521096793204
15082195 135 18268690810840475407
15320295 198 18118124663743990685
15320467 1 18122907530217916329
15475509 84 17686050596207931987
16087824 20 18050849918419149549
16992727 255 18190481522275786372
17868525 174 18337948970336640771
18335252 114 18122333581295647469
19301679 30 17399228655829234451
19302320 297 17764883399115308881
20715895 44 18197776605768402011
21033648 144 18116422825132288911
21033648 29 17095787906986267247
21279426 13 17981903131578538020
21298829 104 18270959047029557801
21315764 268 18262799537455178125
21860390 5 18272938197671294502
22122407 14 18338808823459115761
22393880 68 17986118623776150285
3103668 31 17400649225062076814
4066623 53 17625275108283783358
474 4 18267298910028114266
58902169 19 17914312604265487877
6371009 1 17763163031724229453
9981440 41 18048876595721974426

> <PUBCHEM_SHAPE_MULTIPOLES>
548.42
13.99
6.82
0.87
22.02
2.84
-0.04
13.18
0.22
-6.01
0.42
0.33
0.05
-0.56

> <PUBCHEM_SHAPE_SELFOVERLAP>
1178.012

> <PUBCHEM_SHAPE_VOLUME>
300.8

> <PUBCHEM_COORDINATE_TYPE>
2
5
10

$$$$
