135508376
  -OEChem-03292013293D

 42 42  0     0  0  0  0  0  0999 V2000
   -2.6088   -1.3585    0.1373 O   0  0  0  0  0  0  0  0  0  0  0  0
    0.4871    2.0264    1.2138 O   0  0  0  0  0  0  0  0  0  0  0  0
    2.0304   -2.1672   -0.0563 O   0  0  0  0  0  0  0  0  0  0  0  0
   -1.0402    0.3585    0.6796 N   0  0  0  0  0  0  0  0  0  0  0  0
    1.2971   -0.0534    0.5960 N   0  0  0  0  0  0  0  0  0  0  0  0
   -1.9345   -3.5693   -0.5525 N   0  0  0  0  0  0  0  0  0  0  0  0
    0.3516   -4.0306   -0.6744 N   0  0  0  0  0  0  0  0  0  0  0  0
   -2.1610    1.2715    0.9188 C   0  0  0  0  0  0  0  0  0  0  0  0
    2.6682    0.4141    0.7792 C   0  0  0  0  0  0  0  0  0  0  0  0
   -2.7485    1.8232   -0.3760 C   0  0  0  0  0  0  0  0  0  0  0  0
    3.1500    1.2744   -0.3841 C   0  0  0  0  0  0  0  0  0  0  0  0
    0.2572    0.8661    0.8560 C   0  0  0  0  0  0  0  0  0  0  0  0
   -1.2908   -0.9484    0.2742 C   0  0  0  0  0  0  0  0  0  0  0  0
    1.1193   -1.3735    0.1776 C   0  0  0  0  0  0  0  0  0  0  0  0
   -0.2955   -1.8157    0.0127 C   0  0  0  0  0  0  0  0  0  0  0  0
   -3.9019    2.7987   -0.1296 C   0  0  0  0  0  0  0  0  0  0  0  0
    4.5960    1.7438   -0.2090 C   0  0  0  0  0  0  0  0  0  0  0  0
   -4.4273    3.3778   -1.4339 C   0  0  0  0  0  0  0  0  0  0  0  0
    5.0681    2.5479   -1.4102 C   0  0  0  0  0  0  0  0  0  0  0  0
   -0.6166   -3.1858   -0.4193 C   0  0  0  0  0  0  0  0  0  0  0  0
   -2.9159    0.7834    1.5467 H   0  0  0  0  0  0  0  0  0  0  0  0
   -1.8137    2.1183    1.5235 H   0  0  0  0  0  0  0  0  0  0  0  0
    2.7114    0.9997    1.7059 H   0  0  0  0  0  0  0  0  0  0  0  0
    3.3432   -0.4386    0.9137 H   0  0  0  0  0  0  0  0  0  0  0  0
   -3.0966    1.0126   -1.0260 H   0  0  0  0  0  0  0  0  0  0  0  0
   -1.9554    2.3373   -0.9346 H   0  0  0  0  0  0  0  0  0  0  0  0
    2.4988    2.1483   -0.5056 H   0  0  0  0  0  0  0  0  0  0  0  0
    3.0656    0.6977   -1.3142 H   0  0  0  0  0  0  0  0  0  0  0  0
   -3.5652    3.6175    0.5167 H   0  0  0  0  0  0  0  0  0  0  0  0
   -4.7161    2.2842    0.3935 H   0  0  0  0  0  0  0  0  0  0  0  0
    5.2545    0.8776   -0.0760 H   0  0  0  0  0  0  0  0  0  0  0  0
    4.6793    2.3580    0.6950 H   0  0  0  0  0  0  0  0  0  0  0  0
   -4.7994    2.5866   -2.0926 H   0  0  0  0  0  0  0  0  0  0  0  0
   -5.2513    4.0705   -1.2359 H   0  0  0  0  0  0  0  0  0  0  0  0
   -3.6424    3.9263   -1.9643 H   0  0  0  0  0  0  0  0  0  0  0  0
    4.4474    3.4379   -1.5547 H   0  0  0  0  0  0  0  0  0  0  0  0
    6.1023    2.8750   -1.2643 H   0  0  0  0  0  0  0  0  0  0  0  0
    5.0274    1.9479   -2.3249 H   0  0  0  0  0  0  0  0  0  0  0  0
   -3.2197   -0.6356    0.3256 H   0  0  0  0  0  0  0  0  0  0  0  0
   -2.7287   -2.9695   -0.3741 H   0  0  0  0  0  0  0  0  0  0  0  0
   -2.1602   -4.5131   -0.8501 H   0  0  0  0  0  0  0  0  0  0  0  0
   -0.0621   -4.9254   -0.9587 H   0  0  0  0  0  0  0  0  0  0  0  0
  1 13  1  0  0  0  0
  1 39  1  0  0  0  0
  2 12  2  0  0  0  0
  3 14  2  0  0  0  0
  4  8  1  0  0  0  0
  4 12  1  0  0  0  0
  4 13  1  0  0  0  0
  5  9  1  0  0  0  0
  5 12  1  0  0  0  0
  5 14  1  0  0  0  0
  6 20  1  0  0  0  0
  6 40  1  0  0  0  0
  6 41  1  0  0  0  0
  7 20  2  0  0  0  0
  7 42  1  0  0  0  0
  8 10  1  0  0  0  0
  8 21  1  0  0  0  0
  8 22  1  0  0  0  0
  9 11  1  0  0  0  0
  9 23  1  0  0  0  0
  9 24  1  0  0  0  0
 10 16  1  0  0  0  0
 10 25  1  0  0  0  0
 10 26  1  0  0  0  0
 11 17  1  0  0  0  0
 11 27  1  0  0  0  0
 11 28  1  0  0  0  0
 13 15  2  0  0  0  0
 14 15  1  0  0  0  0
 15 20  1  0  0  0  0
 16 18  1  0  0  0  0
 16 29  1  0  0  0  0
 16 30  1  0  0  0  0
 17 19  1  0  0  0  0
 17 31  1  0  0  0  0
 17 32  1  0  0  0  0
 18 33  1  0  0  0  0
 18 34  1  0  0  0  0
 18 35  1  0  0  0  0
 19 36  1  0  0  0  0
 19 37  1  0  0  0  0
 19 38  1  0  0  0  0
M  END
> <PUBCHEM_COMPOUND_CID>
135508376

> <PUBCHEM_CONFORMER_RMSD>
0.8

> <PUBCHEM_CONFORMER_DIVERSEORDER>
1
11
15
16
12
4
10
7
2
8
14
5
13
6
9
3

> <PUBCHEM_MMFF94_PARTIAL_CHARGES>
18
1 -0.53
12 0.69
13 0.19
14 0.62
15 0.03
2 -0.57
20 0.49
3 -0.57
39 0.45
4 -0.47
40 0.4
41 0.4
42 0.4
5 -0.42
6 -0.85
7 -0.85
8 0.3
9 0.3

> <PUBCHEM_EFFECTIVE_ROTOR_COUNT>
7

> <PUBCHEM_PHARMACOPHORE_FEATURES>
9
1 1 donor
1 18 hydrophobe
1 19 hydrophobe
1 2 acceptor
1 3 acceptor
1 6 donor
1 7 donor
3 6 7 20 cation
6 4 5 12 13 14 15 rings

> <PUBCHEM_HEAVY_ATOM_COUNT>
20

> <PUBCHEM_ATOM_DEF_STEREO_COUNT>
0

> <PUBCHEM_ATOM_UDEF_STEREO_COUNT>
0

> <PUBCHEM_BOND_DEF_STEREO_COUNT>
0

> <PUBCHEM_BOND_UDEF_STEREO_COUNT>
0

> <PUBCHEM_ISOTOPIC_ATOM_COUNT>
0

> <PUBCHEM_COMPONENT_COUNT>
1

> <PUBCHEM_CACTVS_TAUTO_COUNT>
-1

> <PUBCHEM_CONFORMER_ID>
0813B19800000001

> <PUBCHEM_MMFF94_ENERGY>
39.2968

> <PUBCHEM_FEATURE_SELFOVERLAP>
45.743

> <PUBCHEM_SHAPE_FINGERPRINT>
10871710 139 17971764512571777676
10967382 1 17765996103975035483
11833330 49 17833543879288545096
12173636 292 18411412942636117100
12730499 353 18267304223593502641
12788726 201 18118674663463321866
13140716 1 18270401564221637339
14508225 48 17694218180900459741
14790565 3 18198362812558898689
167882 2 18193276291131616828
16945 1 18198332055912710010
16988056 13 17181644083583755644
17134986 127 18337394820855546484
17539 30 18054220205052459574
18785283 64 18120377549313242227
20645477 70 17977940186423334985
20871999 31 18127701637026957516
21029758 27 17761501691119330187
2255824 54 17909265784920395163
22907989 373 18191855941136201125
2334 1 18342738507222143851
23419403 2 16111998472930233723
23559900 14 18059869393935855080
2748010 2 18342464694530386267
3057174 1 18270962336599882655
3060560 45 17979911614317805471
312425 83 17830493736040515436
352729 6 18271246006458141354
394222 165 18115303358901592936
46194498 28 17829318091569391765
559249 180 18408887339711865914
58779409 8 18341050808555338364
59554788 191 18267013960296247619
6327066 14 18260545623785114044

> <PUBCHEM_SHAPE_MULTIPOLES>
374.06
7.59
5.09
1.08
3.51
3.55
0.09
-11.6
3.22
-2.44
2.24
0.02
-0.64
-0.08

> <PUBCHEM_SHAPE_SELFOVERLAP>
752.299

> <PUBCHEM_SHAPE_VOLUME>
217.6

> <PUBCHEM_COORDINATE_TYPE>
2
5
10

$$$$
