135501639
  -OEChem-03292013293D

 39 41  0     1  0  0  0  0  0999 V2000
    2.6501    0.1773    1.0495 O   0  0  0  0  0  0  0  0  0  0  0  0
    1.2735   -2.0248   -1.4474 O   0  0  0  0  0  0  0  0  0  0  0  0
    3.3612   -2.6519    0.2321 O   0  0  0  0  0  0  0  0  0  0  0  0
    4.9168    1.7963    0.7460 O   0  0  0  0  0  0  0  0  0  0  0  0
   -3.4290    2.8984   -0.4911 O   0  0  0  0  0  0  0  0  0  0  0  0
    0.4435    0.6525    0.1207 N   0  0  0  0  0  0  0  0  0  0  0  0
   -0.4771    2.6535   -0.2666 N   0  0  0  0  0  0  0  0  0  0  0  0
   -1.5373   -0.7346    0.2265 N   0  0  0  0  0  0  0  0  0  0  0  0
   -3.5011    0.5947   -0.1152 N   0  0  0  0  0  0  0  0  0  0  0  0
   -3.6681   -1.7241    0.2568 N   0  0  0  0  0  0  0  0  0  0  0  0
    2.0694   -0.9753   -0.9342 C   0  0  1  0  0  0  0  0  0  0  0  0
    1.5155   -0.3846    0.3582 C   0  0  1  0  0  0  0  0  0  0  0  0
    3.4489   -1.4332   -0.5048 C   0  0  1  0  0  0  0  0  0  0  0  0
    3.8676   -0.3303    0.4591 C   0  0  1  0  0  0  0  0  0  0  0  0
    4.5813    0.8250   -0.2294 C   0  0  0  0  0  0  0  0  0  0  0  0
   -0.9040    0.4490    0.0706 C   0  0  0  0  0  0  0  0  0  0  0  0
    0.6508    1.9943   -0.0878 C   0  0  0  0  0  0  0  0  0  0  0  0
   -1.4388    1.6919   -0.1678 C   0  0  0  0  0  0  0  0  0  0  0  0
   -2.8643    1.8327   -0.2799 C   0  0  0  0  0  0  0  0  0  0  0  0
   -2.8454   -0.6352    0.1287 C   0  0  0  0  0  0  0  0  0  0  0  0
   -4.9016   -1.6306    1.0057 C   0  0  0  0  0  0  0  0  0  0  0  0
   -3.2123   -3.0408   -0.1297 C   0  0  0  0  0  0  0  0  0  0  0  0
    2.1535   -0.1995   -1.7051 H   0  0  0  0  0  0  0  0  0  0  0  0
    1.0542   -1.1393    1.0064 H   0  0  0  0  0  0  0  0  0  0  0  0
    4.1333   -1.5954   -1.3423 H   0  0  0  0  0  0  0  0  0  0  0  0
    4.4825   -0.7065    1.2846 H   0  0  0  0  0  0  0  0  0  0  0  0
    3.9396    1.3095   -0.9718 H   0  0  0  0  0  0  0  0  0  0  0  0
    5.5002    0.4823   -0.7148 H   0  0  0  0  0  0  0  0  0  0  0  0
    1.7519   -2.4118   -2.2004 H   0  0  0  0  0  0  0  0  0  0  0  0
    4.2616   -2.8857    0.5156 H   0  0  0  0  0  0  0  0  0  0  0  0
    1.6394    2.4323   -0.1018 H   0  0  0  0  0  0  0  0  0  0  0  0
    5.3728    2.5206    0.2844 H   0  0  0  0  0  0  0  0  0  0  0  0
   -4.5138    0.5890   -0.1891 H   0  0  0  0  0  0  0  0  0  0  0  0
   -2.6516   -3.5061    0.6875 H   0  0  0  0  0  0  0  0  0  0  0  0
   -5.1707   -2.5935    1.4540 H   0  0  0  0  0  0  0  0  0  0  0  0
   -4.8204   -0.9082    1.8255 H   0  0  0  0  0  0  0  0  0  0  0  0
   -4.0572   -3.6906   -0.3821 H   0  0  0  0  0  0  0  0  0  0  0  0
   -2.5664   -2.9942   -1.0134 H   0  0  0  0  0  0  0  0  0  0  0  0
   -5.7227   -1.3262    0.3487 H   0  0  0  0  0  0  0  0  0  0  0  0
  1 12  1  0  0  0  0
  1 14  1  0  0  0  0
  2 11  1  0  0  0  0
  2 29  1  0  0  0  0
  3 13  1  0  0  0  0
  3 30  1  0  0  0  0
  4 15  1  0  0  0  0
  4 32  1  0  0  0  0
  5 19  2  0  0  0  0
  6 12  1  0  0  0  0
  6 16  1  0  0  0  0
  6 17  1  0  0  0  0
  7 17  2  0  0  0  0
  7 18  1  0  0  0  0
  8 16  1  0  0  0  0
  8 20  2  0  0  0  0
  9 19  1  0  0  0  0
  9 20  1  0  0  0  0
  9 33  1  0  0  0  0
 10 20  1  0  0  0  0
 10 21  1  0  0  0  0
 10 22  1  0  0  0  0
 11 12  1  0  0  0  0
 11 13  1  0  0  0  0
 11 23  1  0  0  0  0
 12 24  1  0  0  0  0
 13 14  1  0  0  0  0
 13 25  1  0  0  0  0
 14 15  1  0  0  0  0
 14 26  1  0  0  0  0
 15 27  1  0  0  0  0
 15 28  1  0  0  0  0
 16 18  2  0  0  0  0
 17 31  1  0  0  0  0
 18 19  1  0  0  0  0
 21 35  1  0  0  0  0
 21 36  1  0  0  0  0
 21 39  1  0  0  0  0
 22 34  1  0  0  0  0
 22 37  1  0  0  0  0
 22 38  1  0  0  0  0
M  END
> <PUBCHEM_COMPOUND_CID>
135501639

> <PUBCHEM_CONFORMER_RMSD>
0.6

> <PUBCHEM_CONFORMER_DIVERSEORDER>
1
21
30
14
7
4
19
15
13
24
22
17
18
25
9
3
28
26
2
20
27
12
5
29
8
23
11
6
10
16

> <PUBCHEM_MMFF94_PARTIAL_CHARGES>
27
1 -0.56
10 -0.79
11 0.28
12 0.54
13 0.28
14 0.28
15 0.28
16 -0.03
17 0.04
18 0.14
19 0.72
2 -0.68
20 0.56
21 0.37
22 0.37
29 0.4
3 -0.68
30 0.4
31 0.15
32 0.4
33 0.37
4 -0.68
5 -0.57
6 0.05
7 -0.57
8 -0.58
9 -0.49

> <PUBCHEM_EFFECTIVE_ROTOR_COUNT>
4

> <PUBCHEM_PHARMACOPHORE_FEATURES>
13
1 1 acceptor
1 2 acceptor
1 2 donor
1 3 acceptor
1 3 donor
1 4 acceptor
1 4 donor
1 5 acceptor
1 9 donor
3 6 7 17 cation
5 1 11 12 13 14 rings
5 6 7 16 17 18 rings
6 8 9 16 18 19 20 rings

> <PUBCHEM_HEAVY_ATOM_COUNT>
22

> <PUBCHEM_ATOM_DEF_STEREO_COUNT>
4

> <PUBCHEM_ATOM_UDEF_STEREO_COUNT>
0

> <PUBCHEM_BOND_DEF_STEREO_COUNT>
0

> <PUBCHEM_BOND_UDEF_STEREO_COUNT>
0

> <PUBCHEM_ISOTOPIC_ATOM_COUNT>
0

> <PUBCHEM_COMPONENT_COUNT>
1

> <PUBCHEM_CACTVS_TAUTO_COUNT>
-1

> <PUBCHEM_CONFORMER_ID>
0813974700000001

> <PUBCHEM_MMFF94_ENERGY>
59.3787

> <PUBCHEM_FEATURE_SELFOVERLAP>
66.126

> <PUBCHEM_SHAPE_FINGERPRINT>
10090160 65 18042682982920135598
10319926 262 18266159679275417538
10616163 171 18411982442583326822
11405975 8 18266458707261090626
11552529 35 17845933030487249795
12553582 1 18266190594054731879
12633257 1 17983299231355112306
13140716 1 18268153054384133091
13296908 3 18410573946612874514
14787075 74 18042966678204975850
14790565 3 17256535643615842589
15099037 37 18410007753853578227
15196674 1 18410293575337179402
15375358 24 18269549455594830437
17492 89 18335421214706600306
1813 80 17748835145853293077
19141452 34 18272657887480020355
19591789 44 17257096393959867780
20261772 1 17987798639073569246
20681677 274 18265045843678721898
20871998 22 18410580608302232033
21065198 57 18266457612081359498
21618674 54 18408884014790052112
221490 88 18341335479504837830
23402539 116 18260260842030763546
23557571 272 18411710876248843548
23559900 14 18195804068896838150
5104073 3 18340202995069967056
9709674 26 18126848192306847198

> <PUBCHEM_SHAPE_MULTIPOLES>
398.5
9.35
3.23
0.87
1.96
0.05
-0.05
-2.36
1.64
-2.1
-0.43
0.25
-0.22
1.11

> <PUBCHEM_SHAPE_SELFOVERLAP>
854.889

> <PUBCHEM_SHAPE_VOLUME>
220.9

> <PUBCHEM_COORDINATE_TYPE>
2
5
10

$$$$
