135508007
  -OEChem-03292013293D

 26 27  0     0  0  0  0  0  0999 V2000
    2.1222    0.4156   -0.1308 O   0  0  0  0  0  0  0  0  0  0  0  0
   -4.2359    0.6103    0.9907 O   0  0  0  0  0  0  0  0  0  0  0  0
    5.5607   -0.5716    0.0545 O   0  0  0  0  0  0  0  0  0  0  0  0
    3.9191   -0.6192    1.6325 O   0  0  0  0  0  0  0  0  0  0  0  0
   -0.0380    1.1464   -0.5923 N   0  0  0  0  0  0  0  0  0  0  0  0
   -1.8253    2.1853    0.2610 N   0  0  0  0  0  0  0  0  0  0  0  0
   -0.8209   -1.1441   -0.6069 N   0  0  0  0  0  0  0  0  0  0  0  0
   -3.0521   -1.2646    0.2578 N   0  0  0  0  0  0  0  0  0  0  0  0
   -1.9336   -3.2082   -0.4596 N   0  0  0  0  0  0  0  0  0  0  0  0
   -0.9688    0.1766   -0.3617 C   0  0  0  0  0  0  0  0  0  0  0  0
   -2.0503    0.8442    0.1603 C   0  0  0  0  0  0  0  0  0  0  0  0
    1.2854    0.9726   -1.1404 C   0  0  0  0  0  0  0  0  0  0  0  0
   -0.6000    2.3373   -0.2018 C   0  0  0  0  0  0  0  0  0  0  0  0
   -3.2265    0.1016    0.5200 C   0  0  0  0  0  0  0  0  0  0  0  0
   -1.8842   -1.8493   -0.2866 C   0  0  0  0  0  0  0  0  0  0  0  0
    3.4518    0.2276   -0.5963 C   0  0  0  0  0  0  0  0  0  0  0  0
    4.2965   -0.3606    0.4996 C   0  0  0  0  0  0  0  0  0  0  0  0
    1.2137    0.3014   -2.0032 H   0  0  0  0  0  0  0  0  0  0  0  0
    1.6639    1.9499   -1.4591 H   0  0  0  0  0  0  0  0  0  0  0  0
   -0.0705    3.2776   -0.2769 H   0  0  0  0  0  0  0  0  0  0  0  0
   -3.8271   -1.8841    0.4764 H   0  0  0  0  0  0  0  0  0  0  0  0
    3.4465   -0.4651   -1.4445 H   0  0  0  0  0  0  0  0  0  0  0  0
    3.8788    1.1933   -0.8865 H   0  0  0  0  0  0  0  0  0  0  0  0
   -1.1451   -3.7176   -0.8434 H   0  0  0  0  0  0  0  0  0  0  0  0
   -2.7579   -3.7436   -0.2098 H   0  0  0  0  0  0  0  0  0  0  0  0
    6.1346   -0.9562    0.7510 H   0  0  0  0  0  0  0  0  0  0  0  0
  1 12  1  0  0  0  0
  1 16  1  0  0  0  0
  2 14  2  0  0  0  0
  3 17  1  0  0  0  0
  3 26  1  0  0  0  0
  4 17  2  0  0  0  0
  5 10  1  0  0  0  0
  5 12  1  0  0  0  0
  5 13  1  0  0  0  0
  6 11  1  0  0  0  0
  6 13  2  0  0  0  0
  7 10  1  0  0  0  0
  7 15  2  0  0  0  0
  8 14  1  0  0  0  0
  8 15  1  0  0  0  0
  8 21  1  0  0  0  0
  9 15  1  0  0  0  0
  9 24  1  0  0  0  0
  9 25  1  0  0  0  0
 10 11  2  0  0  0  0
 11 14  1  0  0  0  0
 12 18  1  0  0  0  0
 12 19  1  0  0  0  0
 13 20  1  0  0  0  0
 16 17  1  0  0  0  0
 16 22  1  0  0  0  0
 16 23  1  0  0  0  0
M  END
> <PUBCHEM_COMPOUND_CID>
135508007

> <PUBCHEM_CONFORMER_RMSD>
0.6

> <PUBCHEM_CONFORMER_DIVERSEORDER>
1
48
8
15
34
5
45
47
30
22
12
25
2
27
16
43
41
17
10
31
42
9
23
40
28
21
11
24
20
29
7
3
26
32
6
19
13
44
39
49
4
36
37
38
33
18
35
46
14

> <PUBCHEM_MMFF94_PARTIAL_CHARGES>
22
1 -0.56
10 -0.03
11 0.14
12 0.54
13 0.04
14 0.72
15 0.56
16 0.34
17 0.66
2 -0.57
20 0.15
21 0.37
24 0.4
25 0.4
26 0.5
3 -0.65
4 -0.57
5 0.05
6 -0.57
7 -0.58
8 -0.49
9 -0.85

> <PUBCHEM_EFFECTIVE_ROTOR_COUNT>
4

> <PUBCHEM_PHARMACOPHORE_FEATURES>
10
1 1 acceptor
1 2 acceptor
1 3 acceptor
1 4 acceptor
1 8 donor
1 9 donor
3 3 4 17 anion
3 5 6 13 cation
5 5 6 10 11 13 rings
6 7 8 10 11 14 15 rings

> <PUBCHEM_HEAVY_ATOM_COUNT>
17

> <PUBCHEM_ATOM_DEF_STEREO_COUNT>
0

> <PUBCHEM_ATOM_UDEF_STEREO_COUNT>
0

> <PUBCHEM_BOND_DEF_STEREO_COUNT>
0

> <PUBCHEM_BOND_UDEF_STEREO_COUNT>
0

> <PUBCHEM_ISOTOPIC_ATOM_COUNT>
0

> <PUBCHEM_COMPONENT_COUNT>
1

> <PUBCHEM_CACTVS_TAUTO_COUNT>
-1

> <PUBCHEM_CONFORMER_ID>
0813B02700000001

> <PUBCHEM_MMFF94_ENERGY>
28.8375

> <PUBCHEM_FEATURE_SELFOVERLAP>
50.986

> <PUBCHEM_SHAPE_FINGERPRINT>
10062212 137 18334577992303481259
10366900 7 17846768603631858504
10616163 171 18410013243423760398
11132069 177 18201447956202033037
12251169 10 18412265025888362212
12553582 1 18187076265706755170
12633257 1 17989213654698316832
13140716 1 18268998750730177025
13551218 46 18336548192512804850
13862211 1 18339927112605145511
14123260 362 11527945703376657946
14420673 8 18050854312962854542
15042514 8 18410863195892230803
15375462 189 18113337526874475336
16945 1 18198929022618941277
17804303 29 18342744035018892916
17977361 122 18333726935732925802
1813 80 17313678053237338350
200 152 16298105367855526268
20291156 8 18188206606472638242
20510252 161 18057610875537824257
20871999 31 11241964888870423630
21650355 55 18341611537900079665
22959321 94 18408038520291718170
2297311 6 18271539615313445156
232386 152 18337678615051300196
23366157 5 17901671792983764829
23402539 116 18272645736695520637
23559900 14 18129965441437954652
23728640 28 18411422829904143987
2748010 2 17978532853112922845
2838139 119 14547907070792694417
351380 3 17894914018878819002
4072396 5 18336553716389029305
474 4 13326852241053984012
58807428 26 18268446637332684707
5902787 121 18341053033475154124
90316 7 18409167705548485557

> <PUBCHEM_SHAPE_MULTIPOLES>
301.47
8.32
2.36
0.97
11.14
0.87
-0.14
2.22
-2.79
-2.26
0.37
0.46
0.02
-0.83

> <PUBCHEM_SHAPE_SELFOVERLAP>
645.088

> <PUBCHEM_SHAPE_VOLUME>
165.8

> <PUBCHEM_COORDINATE_TYPE>
2
5
10

$$$$
