135508837
  -OEChem-03292013293D

 34 36  0     1  0  0  0  0  0999 V2000
   -1.8451   -0.1547    0.9644 O   0  0  0  0  0  0  0  0  0  0  0  0
   -4.3345    1.2373   -0.1662 O   0  0  0  0  0  0  0  0  0  0  0  0
   -2.1792   -2.9191    0.7081 O   0  0  0  0  0  0  0  0  0  0  0  0
    4.4850    0.3273   -0.1900 O   0  0  0  0  0  0  0  0  0  0  0  0
    0.0608    1.1638    0.1862 N   0  0  0  0  0  0  0  0  0  0  0  0
    2.1001    2.0765    0.0870 N   0  0  0  0  0  0  0  0  0  0  0  0
    0.6167   -1.1855    0.0105 N   0  0  0  0  0  0  0  0  0  0  0  0
    0.1815    3.5116    0.3120 N   0  0  0  0  0  0  0  0  0  0  0  0
    2.9885   -1.4654   -0.1815 N   0  0  0  0  0  0  0  0  0  0  0  0
    1.5528   -3.3317   -0.1819 N   0  0  0  0  0  0  0  0  0  0  0  0
   -1.4393    1.0521    0.2920 C   0  0  1  0  0  0  0  0  0  0  0  0
   -2.1354    1.0423   -1.0646 C   0  0  0  0  0  0  0  0  0  0  0  0
   -3.4215    0.3131   -0.7534 C   0  0  1  0  0  0  0  0  0  0  0  0
   -2.9904   -0.7117    0.2878 C   0  0  1  0  0  0  0  0  0  0  0  0
   -2.5714   -2.0388   -0.3303 C   0  0  0  0  0  0  0  0  0  0  0  0
    0.9372    0.1264    0.0617 C   0  0  0  0  0  0  0  0  0  0  0  0
    0.8081    2.3163    0.1968 C   0  0  0  0  0  0  0  0  0  0  0  0
    2.1760    0.7176    0.0036 C   0  0  0  0  0  0  0  0  0  0  0  0
    3.3428   -0.1100   -0.1302 C   0  0  0  0  0  0  0  0  0  0  0  0
    1.6673   -1.9674   -0.1122 C   0  0  0  0  0  0  0  0  0  0  0  0
   -1.7747    1.8817    0.9225 H   0  0  0  0  0  0  0  0  0  0  0  0
   -1.5497    0.4756   -1.7980 H   0  0  0  0  0  0  0  0  0  0  0  0
   -2.2810    2.0570   -1.4479 H   0  0  0  0  0  0  0  0  0  0  0  0
   -3.8990   -0.1182   -1.6379 H   0  0  0  0  0  0  0  0  0  0  0  0
   -3.7582   -0.8801    1.0512 H   0  0  0  0  0  0  0  0  0  0  0  0
   -1.7288   -1.9227   -1.0173 H   0  0  0  0  0  0  0  0  0  0  0  0
   -3.4080   -2.4922   -0.8714 H   0  0  0  0  0  0  0  0  0  0  0  0
   -5.1360    0.7410    0.0727 H   0  0  0  0  0  0  0  0  0  0  0  0
   -1.9199   -3.7579    0.2903 H   0  0  0  0  0  0  0  0  0  0  0  0
    0.7111    4.3776    0.3282 H   0  0  0  0  0  0  0  0  0  0  0  0
   -0.8255    3.6223    0.3563 H   0  0  0  0  0  0  0  0  0  0  0  0
    3.7413   -2.1410   -0.2761 H   0  0  0  0  0  0  0  0  0  0  0  0
    0.6463   -3.7848   -0.1411 H   0  0  0  0  0  0  0  0  0  0  0  0
    2.3683   -3.9270   -0.2765 H   0  0  0  0  0  0  0  0  0  0  0  0
  1 11  1  0  0  0  0
  1 14  1  0  0  0  0
  2 13  1  0  0  0  0
  2 28  1  0  0  0  0
  3 15  1  0  0  0  0
  3 29  1  0  0  0  0
  4 19  2  0  0  0  0
  5 11  1  0  0  0  0
  5 16  1  0  0  0  0
  5 17  1  0  0  0  0
  6 17  2  0  0  0  0
  6 18  1  0  0  0  0
  7 16  1  0  0  0  0
  7 20  2  0  0  0  0
  8 17  1  0  0  0  0
  8 30  1  0  0  0  0
  8 31  1  0  0  0  0
  9 19  1  0  0  0  0
  9 20  1  0  0  0  0
  9 32  1  0  0  0  0
 10 20  1  0  0  0  0
 10 33  1  0  0  0  0
 10 34  1  0  0  0  0
 11 12  1  0  0  0  0
 11 21  1  0  0  0  0
 12 13  1  0  0  0  0
 12 22  1  0  0  0  0
 12 23  1  0  0  0  0
 13 14  1  0  0  0  0
 13 24  1  0  0  0  0
 14 15  1  0  0  0  0
 14 25  1  0  0  0  0
 15 26  1  0  0  0  0
 15 27  1  0  0  0  0
 16 18  2  0  0  0  0
 18 19  1  0  0  0  0
M  END
> <PUBCHEM_COMPOUND_CID>
135508837

> <PUBCHEM_CONFORMER_RMSD>
0.6

> <PUBCHEM_CONFORMER_DIVERSEORDER>
1
7
12
9
8
2
11
5
4
10
3
6

> <PUBCHEM_MMFF94_PARTIAL_CHARGES>
26
1 -0.56
10 -0.85
11 0.54
13 0.28
14 0.28
15 0.28
16 -0.03
17 0.27
18 0.14
19 0.72
2 -0.68
20 0.56
28 0.4
29 0.4
3 -0.68
30 0.4
31 0.4
32 0.37
33 0.4
34 0.4
4 -0.57
5 0.05
6 -0.57
7 -0.58
8 -0.88
9 -0.49

> <PUBCHEM_EFFECTIVE_ROTOR_COUNT>
3

> <PUBCHEM_PHARMACOPHORE_FEATURES>
13
1 1 acceptor
1 10 donor
1 2 acceptor
1 2 donor
1 3 acceptor
1 3 donor
1 4 acceptor
1 8 donor
1 9 donor
4 5 6 8 17 cation
5 1 11 12 13 14 rings
5 5 6 16 17 18 rings
6 7 9 16 18 19 20 rings

> <PUBCHEM_HEAVY_ATOM_COUNT>
20

> <PUBCHEM_ATOM_DEF_STEREO_COUNT>
3

> <PUBCHEM_ATOM_UDEF_STEREO_COUNT>
0

> <PUBCHEM_BOND_DEF_STEREO_COUNT>
0

> <PUBCHEM_BOND_UDEF_STEREO_COUNT>
0

> <PUBCHEM_ISOTOPIC_ATOM_COUNT>
0

> <PUBCHEM_COMPONENT_COUNT>
1

> <PUBCHEM_CACTVS_TAUTO_COUNT>
-1

> <PUBCHEM_CONFORMER_ID>
0813B36500000001

> <PUBCHEM_MMFF94_ENERGY>
46.4764

> <PUBCHEM_FEATURE_SELFOVERLAP>
66.156

> <PUBCHEM_SHAPE_FINGERPRINT>
10616163 171 18410576231614974143
10967382 1 18339079285285273090
11132069 177 18410007749943732922
116883 192 17981324486864836708
12500047 106 18334570244324573077
12553582 1 18340211778045906562
13140716 1 18339635741538384528
14115302 16 18260558796359360445
14178342 30 18342451569115338393
1420 336 17545321882481020650
14790565 3 18339369672858024624
15196674 1 18410855473277113158
16945 1 18339367357648261600
19107657 46 18410856568277378950
193761 8 17547291567932019656
19591789 44 18122347045569857132
19930381 70 18122342376967273807
200 152 18060132154874458637
20201158 50 18408602535164933299
21160774 45 17113247296646239743
221490 88 18192999441855828538
2334 1 18195246856534265256
23402539 116 18342170090555699622
23559900 14 18411416203386310360
238 59 17757787292201540295
25 1 18334570214154293749
2748010 2 18267020746544470120
2838139 119 16226622917478631964
2871803 45 18340207367467928108
335352 9 18410855417199601269
34934 24 18411694357519909802
350125 39 18122069972428112249
7364860 26 18340483482030391809
81228 2 18048883987539928064
8809292 202 18334013934084831043
9709674 26 18411420635286716415

> <PUBCHEM_SHAPE_MULTIPOLES>
358.23
6.31
3.37
0.76
0.43
0.61
-0.04
0.58
-0.76
-0.4
0.29
0.38
-0.01
0.48

> <PUBCHEM_SHAPE_SELFOVERLAP>
779.794

> <PUBCHEM_SHAPE_VOLUME>
191.4

> <PUBCHEM_COORDINATE_TYPE>
2
5
10

$$$$
