135565903
  -OEChem-03292013293D

 37 39  0     0  0  0  0  0  0999 V2000
   -5.5806   -0.9020    2.5466 Cl  0  0  0  0  0  0  0  0  0  0  0  0
   -2.5582    0.9114   -2.6081 Cl  0  0  0  0  0  0  0  0  0  0  0  0
    0.5750    1.5919    0.3532 O   0  0  0  0  0  0  0  0  0  0  0  0
   -5.3763    0.2472   -2.3284 O   0  5  0  0  0  0  0  0  0  0  0  0
    4.0365   -3.1997   -0.7059 O   0  0  0  0  0  0  0  0  0  0  0  0
    6.0893   -1.4029   -0.2898 O   0  0  0  0  0  0  0  0  0  0  0  0
    5.9733    1.4545    1.4765 O   0  5  0  0  0  0  0  0  0  0  0  0
    5.9848    1.9360   -0.6653 O   0  0  0  0  0  0  0  0  0  0  0  0
   -4.7397    0.1340   -1.2259 N   0  3  0  0  0  0  0  0  0  0  0  0
   -0.3465   -0.3979   -0.1034 N   0  0  0  0  0  0  0  0  0  0  0  0
   -0.8115    1.7872    0.3899 N   0  0  0  0  0  0  0  0  0  0  0  0
    5.5364    1.2923    0.3126 N   0  3  0  0  0  0  0  0  0  0  0  0
   -2.6892    0.2841    0.0388 C   0  0  0  0  0  0  0  0  0  0  0  0
   -3.3636   -0.1196    1.1858 C   0  0  0  0  0  0  0  0  0  0  0  0
   -5.4000   -0.2669   -0.0806 C   0  0  0  0  0  0  0  0  0  0  0  0
   -4.7251   -0.3972    1.1287 C   0  0  0  0  0  0  0  0  0  0  0  0
   -1.2852    0.5691    0.1111 C   0  0  0  0  0  0  0  0  0  0  0  0
   -3.3871    0.4068   -1.1582 C   0  0  0  0  0  0  0  0  0  0  0  0
    2.1364   -0.1507   -0.0332 C   0  0  0  0  0  0  0  0  0  0  0  0
   -2.6231   -0.2542    2.4835 C   0  0  0  0  0  0  0  0  0  0  0  0
    0.7624    0.2794    0.0560 C   0  0  0  0  0  0  0  0  0  0  0  0
   -6.8609   -0.5489   -0.2090 C   0  0  0  0  0  0  0  0  0  0  0  0
    3.1688    0.7629    0.1791 C   0  0  0  0  0  0  0  0  0  0  0  0
    2.4325   -1.4811   -0.3303 C   0  0  0  0  0  0  0  0  0  0  0  0
    4.4972    0.3462    0.0944 C   0  0  0  0  0  0  0  0  0  0  0  0
    3.7611   -1.8977   -0.4152 C   0  0  0  0  0  0  0  0  0  0  0  0
    4.7933   -0.9840   -0.2030 C   0  0  0  0  0  0  0  0  0  0  0  0
   -2.9787    0.4993    3.1951 H   0  0  0  0  0  0  0  0  0  0  0  0
   -2.7813   -1.2515    2.9096 H   0  0  0  0  0  0  0  0  0  0  0  0
   -1.5390   -0.1388    2.4174 H   0  0  0  0  0  0  0  0  0  0  0  0
   -7.4309    0.1127    0.4524 H   0  0  0  0  0  0  0  0  0  0  0  0
   -7.2645   -0.4060   -1.2148 H   0  0  0  0  0  0  0  0  0  0  0  0
   -7.0683   -1.5890    0.0654 H   0  0  0  0  0  0  0  0  0  0  0  0
    2.9620    1.8056    0.4121 H   0  0  0  0  0  0  0  0  0  0  0  0
    1.6331   -2.2000   -0.4970 H   0  0  0  0  0  0  0  0  0  0  0  0
    3.2006   -3.6836   -0.8202 H   0  0  0  0  0  0  0  0  0  0  0  0
    6.7013   -0.6689   -0.1202 H   0  0  0  0  0  0  0  0  0  0  0  0
  1 16  1  0  0  0  0
  2 18  1  0  0  0  0
  3 11  1  0  0  0  0
  3 21  1  0  0  0  0
  4  9  1  0  0  0  0
  5 26  1  0  0  0  0
  5 36  1  0  0  0  0
  6 27  1  0  0  0  0
  6 37  1  0  0  0  0
  7 12  1  0  0  0  0
  8 12  2  0  0  0  0
  9 15  1  0  0  0  0
  9 18  2  0  0  0  0
 10 17  1  0  0  0  0
 10 21  2  0  0  0  0
 11 17  2  0  0  0  0
 12 25  1  0  0  0  0
 13 14  2  0  0  0  0
 13 17  1  0  0  0  0
 13 18  1  0  0  0  0
 14 16  1  0  0  0  0
 14 20  1  0  0  0  0
 15 16  2  0  0  0  0
 15 22  1  0  0  0  0
 19 21  1  0  0  0  0
 19 23  2  0  0  0  0
 19 24  1  0  0  0  0
 20 28  1  0  0  0  0
 20 29  1  0  0  0  0
 20 30  1  0  0  0  0
 22 31  1  0  0  0  0
 22 32  1  0  0  0  0
 22 33  1  0  0  0  0
 23 25  1  0  0  0  0
 23 34  1  0  0  0  0
 24 26  2  0  0  0  0
 24 35  1  0  0  0  0
 25 27  2  0  0  0  0
 26 27  1  0  0  0  0
M  CHG  4   4  -1   7  -1   9   1  12   1
M  END
> <PUBCHEM_COMPOUND_CID>
135565903

> <PUBCHEM_CONFORMER_RMSD>
0.6

> <PUBCHEM_CONFORMER_DIVERSEORDER>
2
18
15
19
9
10
14
5
11
16
20
3
4
13
17
6
12
7
8
1

> <PUBCHEM_MMFF94_PARTIAL_CHARGES>
31
1 -0.18
10 -0.57
11 -0.41
12 0.91
13 0.05
14 -0.14
15 -0.05
16 0.18
17 0.46
18 0.27
19 0.05
2 -0.18
20 0.14
21 0.43
22 0.14
23 -0.15
24 -0.15
25 0.13
26 0.08
27 0.08
3 -0.02
34 0.15
35 0.15
36 0.45
37 0.45
4 -0.75
5 -0.53
6 -0.53
7 -0.52
8 -0.52
9 0.57

> <PUBCHEM_EFFECTIVE_ROTOR_COUNT>
3

> <PUBCHEM_PHARMACOPHORE_FEATURES>
10
1 4 anion
1 5 donor
1 6 donor
1 7 acceptor
1 7 anion
1 8 acceptor
3 10 11 17 cation
5 3 10 11 17 21 rings
6 19 23 24 25 26 27 rings
6 9 13 14 15 16 18 rings

> <PUBCHEM_HEAVY_ATOM_COUNT>
27

> <PUBCHEM_ATOM_DEF_STEREO_COUNT>
0

> <PUBCHEM_ATOM_UDEF_STEREO_COUNT>
0

> <PUBCHEM_BOND_DEF_STEREO_COUNT>
0

> <PUBCHEM_BOND_UDEF_STEREO_COUNT>
0

> <PUBCHEM_ISOTOPIC_ATOM_COUNT>
0

> <PUBCHEM_COMPONENT_COUNT>
1

> <PUBCHEM_CACTVS_TAUTO_COUNT>
-1

> <PUBCHEM_CONFORMER_ID>
0814924F00000002

> <PUBCHEM_MMFF94_ENERGY>
79.9847

> <PUBCHEM_FEATURE_SELFOVERLAP>
50.831

> <PUBCHEM_SHAPE_FINGERPRINT>
10 15 17895470436472020904
10835480 77 18260543420403184701
10912923 1 17203890747150399010
11059845 2 15119030686402867594
11273773 42 17130707369877212456
11475781 23 17531795862471916757
12107183 9 16195679103238577779
12236239 1 17418377991208559641
12390115 104 13542200359530104875
12516196 113 18273495688884597985
12596602 18 17346602979938012987
12616971 3 17775282729965639534
12730499 353 18410862066684947730
13533116 47 18060420192392717442
13685833 64 18410859871713845627
13782708 43 17894352172157285275
14251764 18 17418095430064052395
14341114 328 16486980570238353699
14386348 63 18187370925737348571
146900 427 17775283885359165762
14840074 17 17988925586873200668
14848160 23 18040156206019717306
14849402 71 16414616277582322322
14910302 57 16660921071885054187
15537594 2 17703785933574906238
15685185 35 17485357109038466272
15961568 22 16515976972870425732
17492 89 17984425140305901326
17844677 252 18341055125013522508
1813 80 18059590056776639901
19377110 9 17561075887432386218
19489759 90 16660644046594110753
19958102 18 16009018463429521819
200 152 18273211980846393281
20511986 3 17489582338263742873
20645477 70 18338795620413565158
21033648 29 18262222378816550572
21033650 10 15793145753579467932
21065198 48 17632022961345272035
21267235 1 18201443532960945566
21623969 137 18409735066475329554
220451 1 17632860836608578271
22061861 79 18260549991534121438
23081809 10 17561365071347748699
23175994 123 18261115175656565557
23522609 53 17274280437926141208
23557571 272 17603587383270104604
23559900 14 17095806633011853437
23569914 152 17184442345324438287
239999 70 18186525393518095890
3004659 81 14923942319772443522
314194 84 18202281394300080938
34797466 226 17530975691021515124
4015057 19 18337673117720358985
46194498 28 17821730563309400692
5104073 3 18340489937703673304
5283173 99 17749665182237379789
542803 24 16988847176426306184
5758199 1 17775000241735460416

> <PUBCHEM_SHAPE_MULTIPOLES>
504.25
17.18
1.94
1.75
4.99
0.18
-0.69
-1.51
-1.3
-4.17
0.11
3.85
-0.2
1.2

> <PUBCHEM_SHAPE_SELFOVERLAP>
1093.625

> <PUBCHEM_SHAPE_VOLUME>
279.8

> <PUBCHEM_COORDINATE_TYPE>
2
5
10

$$$$
