135565273
  -OEChem-03292013293D

 66 69  0     0  0  0  0  0  0999 V2000
   -3.4019    1.3095   -2.0543 S   0  0  0  0  0  0  0  0  0  0  0  0
   -4.1099    2.5637   -2.1955 O   0  0  0  0  0  0  0  0  0  0  0  0
   -2.9117    0.5954   -3.2137 O   0  0  0  0  0  0  0  0  0  0  0  0
    1.1585    2.2304    1.6031 O   0  0  0  0  0  0  0  0  0  0  0  0
    1.8410   -3.4933    0.2079 O   0  0  0  0  0  0  0  0  0  0  0  0
   -4.3407    0.2419   -1.0995 N   0  0  0  0  0  0  0  0  0  0  0  0
   -5.3652   -1.3828    1.0404 N   0  0  0  0  0  0  0  0  0  0  0  0
    1.0774   -1.3085    0.0127 N   0  0  0  0  0  0  0  0  0  0  0  0
    2.5095    0.5542   -0.5257 N   0  0  0  0  0  0  0  0  0  0  0  0
    4.5565   -2.3126   -0.4743 N   0  0  0  0  0  0  0  0  0  0  0  0
    5.5281   -1.4248   -0.7834 N   0  0  0  0  0  0  0  0  0  0  0  0
   -5.0256    0.8617    0.0704 C   0  0  0  0  0  0  0  0  0  0  0  0
   -3.6745   -1.0378   -0.7250 C   0  0  0  0  0  0  0  0  0  0  0  0
   -6.0298   -0.1292    0.6573 C   0  0  0  0  0  0  0  0  0  0  0  0
   -4.7047   -1.9919   -0.1227 C   0  0  0  0  0  0  0  0  0  0  0  0
   -6.3250   -2.3136    1.6327 C   0  0  0  0  0  0  0  0  0  0  0  0
   -2.0383    1.5787   -0.9660 C   0  0  0  0  0  0  0  0  0  0  0  0
   -5.6398   -3.5882    2.0954 C   0  0  0  0  0  0  0  0  0  0  0  0
   -0.9231    0.7428   -1.0242 C   0  0  0  0  0  0  0  0  0  0  0  0
   -2.0760    2.6283   -0.0479 C   0  0  0  0  0  0  0  0  0  0  0  0
    0.1544    0.9564   -0.1646 C   0  0  0  0  0  0  0  0  0  0  0  0
    0.1166    2.0060    0.7536 C   0  0  0  0  0  0  0  0  0  0  0  0
   -0.9987    2.8418    0.8119 C   0  0  0  0  0  0  0  0  0  0  0  0
    1.3338    0.0544   -0.2437 C   0  0  0  0  0  0  0  0  0  0  0  0
    3.5210   -0.4083   -0.5671 C   0  0  0  0  0  0  0  0  0  0  0  0
    3.3277   -1.7415   -0.3343 C   0  0  0  0  0  0  0  0  0  0  0  0
    4.8808   -0.2526   -0.8387 C   0  0  0  0  0  0  0  0  0  0  0  0
    5.6191    0.9802   -1.1565 C   0  0  0  0  0  0  0  0  0  0  0  0
    2.0555   -2.3070   -0.0152 C   0  0  0  0  0  0  0  0  0  0  0  0
    6.4325    1.5182    0.0388 C   0  0  0  0  0  0  0  0  0  0  0  0
    4.8964   -3.7075   -0.3239 C   0  0  0  0  0  0  0  0  0  0  0  0
    0.8805    2.1630    3.0002 C   0  0  0  0  0  0  0  0  0  0  0  0
    5.5558    1.8876    1.2248 C   0  0  0  0  0  0  0  0  0  0  0  0
    2.1196    1.6853    3.7270 C   0  0  0  0  0  0  0  0  0  0  0  0
   -5.5682    1.7594   -0.2425 H   0  0  0  0  0  0  0  0  0  0  0  0
   -2.8836   -0.8626    0.0115 H   0  0  0  0  0  0  0  0  0  0  0  0
   -3.2368   -1.5069   -1.6123 H   0  0  0  0  0  0  0  0  0  0  0  0
   -4.2967    1.1418    0.8380 H   0  0  0  0  0  0  0  0  0  0  0  0
   -5.4421   -2.2719   -0.8869 H   0  0  0  0  0  0  0  0  0  0  0  0
   -4.1533   -2.8957    0.1552 H   0  0  0  0  0  0  0  0  0  0  0  0
   -6.4935    0.3317    1.5378 H   0  0  0  0  0  0  0  0  0  0  0  0
   -6.8277   -0.3213   -0.0726 H   0  0  0  0  0  0  0  0  0  0  0  0
   -6.7850   -1.8432    2.5104 H   0  0  0  0  0  0  0  0  0  0  0  0
   -7.1353   -2.5627    0.9359 H   0  0  0  0  0  0  0  0  0  0  0  0
   -4.7386   -3.3757    2.6808 H   0  0  0  0  0  0  0  0  0  0  0  0
   -6.3208   -4.1551    2.7402 H   0  0  0  0  0  0  0  0  0  0  0  0
   -5.3767   -4.2485    1.2634 H   0  0  0  0  0  0  0  0  0  0  0  0
   -0.8841   -0.0752   -1.7392 H   0  0  0  0  0  0  0  0  0  0  0  0
   -2.9341    3.2913    0.0157 H   0  0  0  0  0  0  0  0  0  0  0  0
   -1.0396    3.6681    1.5165 H   0  0  0  0  0  0  0  0  0  0  0  0
    0.1273   -1.5947    0.2336 H   0  0  0  0  0  0  0  0  0  0  0  0
    4.9285    1.7597   -1.5015 H   0  0  0  0  0  0  0  0  0  0  0  0
    6.3064    0.7928   -1.9913 H   0  0  0  0  0  0  0  0  0  0  0  0
    7.1760    0.7770    0.3556 H   0  0  0  0  0  0  0  0  0  0  0  0
    6.9845    2.4076   -0.2873 H   0  0  0  0  0  0  0  0  0  0  0  0
    4.3202   -4.2833   -1.0522 H   0  0  0  0  0  0  0  0  0  0  0  0
    5.9656   -3.8461   -0.5047 H   0  0  0  0  0  0  0  0  0  0  0  0
    4.6502   -4.0142    0.6956 H   0  0  0  0  0  0  0  0  0  0  0  0
    0.6018    3.1609    3.3555 H   0  0  0  0  0  0  0  0  0  0  0  0
    0.0542    1.4708    3.2049 H   0  0  0  0  0  0  0  0  0  0  0  0
    4.7729    2.5947    0.9324 H   0  0  0  0  0  0  0  0  0  0  0  0
    5.0804    1.0075    1.6683 H   0  0  0  0  0  0  0  0  0  0  0  0
    6.1619    2.3602    2.0046 H   0  0  0  0  0  0  0  0  0  0  0  0
    2.4198    0.6959    3.3660 H   0  0  0  0  0  0  0  0  0  0  0  0
    2.9612    2.3602    3.5390 H   0  0  0  0  0  0  0  0  0  0  0  0
    1.9448    1.6305    4.8050 H   0  0  0  0  0  0  0  0  0  0  0  0
  1  2  2  0  0  0  0
  1  3  2  0  0  0  0
  1  6  1  0  0  0  0
  1 17  1  0  0  0  0
  4 22  1  0  0  0  0
  4 32  1  0  0  0  0
  5 29  2  0  0  0  0
  6 12  1  0  0  0  0
  6 13  1  0  0  0  0
  7 14  1  0  0  0  0
  7 15  1  0  0  0  0
  7 16  1  0  0  0  0
  8 24  1  0  0  0  0
  8 29  1  0  0  0  0
  8 51  1  0  0  0  0
  9 24  2  0  0  0  0
  9 25  1  0  0  0  0
 10 11  1  0  0  0  0
 10 26  1  0  0  0  0
 10 31  1  0  0  0  0
 11 27  2  0  0  0  0
 12 14  1  0  0  0  0
 12 35  1  0  0  0  0
 12 38  1  0  0  0  0
 13 15  1  0  0  0  0
 13 36  1  0  0  0  0
 13 37  1  0  0  0  0
 14 41  1  0  0  0  0
 14 42  1  0  0  0  0
 15 39  1  0  0  0  0
 15 40  1  0  0  0  0
 16 18  1  0  0  0  0
 16 43  1  0  0  0  0
 16 44  1  0  0  0  0
 17 19  2  0  0  0  0
 17 20  1  0  0  0  0
 18 45  1  0  0  0  0
 18 46  1  0  0  0  0
 18 47  1  0  0  0  0
 19 21  1  0  0  0  0
 19 48  1  0  0  0  0
 20 23  2  0  0  0  0
 20 49  1  0  0  0  0
 21 22  2  0  0  0  0
 21 24  1  0  0  0  0
 22 23  1  0  0  0  0
 23 50  1  0  0  0  0
 25 26  2  0  0  0  0
 25 27  1  0  0  0  0
 26 29  1  0  0  0  0
 27 28  1  0  0  0  0
 28 30  1  0  0  0  0
 28 52  1  0  0  0  0
 28 53  1  0  0  0  0
 30 33  1  0  0  0  0
 30 54  1  0  0  0  0
 30 55  1  0  0  0  0
 31 56  1  0  0  0  0
 31 57  1  0  0  0  0
 31 58  1  0  0  0  0
 32 34  1  0  0  0  0
 32 59  1  0  0  0  0
 32 60  1  0  0  0  0
 33 61  1  0  0  0  0
 33 62  1  0  0  0  0
 33 63  1  0  0  0  0
 34 64  1  0  0  0  0
 34 65  1  0  0  0  0
 34 66  1  0  0  0  0
M  END
> <PUBCHEM_COMPOUND_CID>
135565273

> <PUBCHEM_CONFORMER_RMSD>
1

> <PUBCHEM_CONFORMER_DIVERSEORDER>
1
100
30
70
103
59
76
37
75
51
90
36
78
86
43
31
60
17
57
73
84
44
101
93
77
95
14
35
80
53
65
66
81
71
72
64
88
96
42
85
89
40
94
82
55
67
91
3
83
49
92
79
46
16
74
45
97
61
39
24
69
13
22
50
38
62
56
21
87
99
20
98
5
32
19
7
54
63
52
18
15
68
25
58
27
102
41
28
26
12
6
29
34
4
47
10
23
33
48
8
11
9
2

> <PUBCHEM_MMFF94_PARTIAL_CHARGES>
34
1 1.45
10 0.31
11 -0.71
12 0.36
13 0.36
14 0.27
15 0.27
16 0.27
17 -0.01
19 -0.15
2 -0.65
20 -0.15
21 0.09
22 0.08
23 -0.15
24 0.42
25 0.12
26 -0.24
27 0.11
28 0.18
29 0.71
3 -0.65
31 0.26
32 0.28
4 -0.36
48 0.15
49 0.15
5 -0.57
50 0.15
51 0.37
6 -0.85
7 -0.81
8 -0.49
9 -0.57

> <PUBCHEM_EFFECTIVE_ROTOR_COUNT>
9.2

> <PUBCHEM_PHARMACOPHORE_FEATURES>
12
1 11 acceptor
1 2 acceptor
1 3 acceptor
1 33 hydrophobe
1 4 acceptor
1 5 acceptor
1 7 cation
1 8 donor
5 10 11 25 26 27 rings
6 17 19 20 21 22 23 rings
6 6 7 12 13 14 15 rings
6 8 9 24 25 26 29 rings

> <PUBCHEM_HEAVY_ATOM_COUNT>
34

> <PUBCHEM_ATOM_DEF_STEREO_COUNT>
0

> <PUBCHEM_ATOM_UDEF_STEREO_COUNT>
0

> <PUBCHEM_BOND_DEF_STEREO_COUNT>
0

> <PUBCHEM_BOND_UDEF_STEREO_COUNT>
0

> <PUBCHEM_ISOTOPIC_ATOM_COUNT>
0

> <PUBCHEM_COMPONENT_COUNT>
1

> <PUBCHEM_CACTVS_TAUTO_COUNT>
-1

> <PUBCHEM_CONFORMER_ID>
08148FD900000001

> <PUBCHEM_MMFF94_ENERGY>
66.4135

> <PUBCHEM_FEATURE_SELFOVERLAP>
61.031

> <PUBCHEM_SHAPE_FINGERPRINT>
10763959 59 10159702395448095210
10794284 68 16772420424512877728
11135609 12 18261958548156140849
117089 54 17825128127834544819
12633257 1 16415765249795001849
12788726 201 17485639360548973609
13009979 54 17484236363070551118
13103583 49 17988379117510809227
13402501 40 18334301998021882907
14840074 17 17561362881146621429
15082195 135 17605298279819958990
15510800 12 18044372967090220203
15537594 2 18060413620955325692
18608769 82 18337956796220624270
19319366 153 18341880871574210798
20775530 9 18188489185794540571
21796203 349 17703800223110817874
22149856 69 18337690662392354497
22393880 68 17750512871527084534
23559900 14 18335131008361836581
314194 84 17988913449337430310
329604 57 18411140199575592214
3737641 26 18340776957267313279
4258327 124 17533234179207608780
437795 51 18130790122250257224
484989 97 18410302393786584326
5104073 3 18269834229581009408
513202 73 16341761399215018460
6086070 43 16343406363765077385
6328613 192 13758076328710865754
6371380 46 18268707209279065873
6376802 90 17896867777536784149
6691757 9 14273747248364367580
77296 10 17095788929114182266

> <PUBCHEM_SHAPE_MULTIPOLES>
650.19
15.84
4.12
2.45
2.23
2.72
1.36
8.18
0.75
-0.19
1.5
1.54
-1.61
4.62

> <PUBCHEM_SHAPE_SELFOVERLAP>
1365.848

> <PUBCHEM_SHAPE_VOLUME>
369.7

> <PUBCHEM_COORDINATE_TYPE>
2
5
10

$$$$
