135567181
  -OEChem-03292013293D

 57 60  0     0  0  0  0  0  0999 V2000
    6.0157   -0.5192    1.6064 S   0  0  0  0  0  0  0  0  0  0  0  0
   -0.6208    0.7217   -0.7615 O   0  0  0  0  0  0  0  0  0  0  0  0
   -3.0342    0.5434   -2.4155 O   0  0  0  0  0  0  0  0  0  0  0  0
    2.4567   -3.1059    0.5411 O   0  0  0  0  0  0  0  0  0  0  0  0
    7.0518    2.1324    0.2847 O   0  0  0  0  0  0  0  0  0  0  0  0
   -4.4142    0.0003   -0.6084 N   0  0  0  0  0  0  0  0  0  0  0  0
   -6.3476    0.8928    1.3071 N   0  0  0  0  0  0  0  0  0  0  0  0
    1.3419   -1.1002    0.0296 N   0  0  0  0  0  0  0  0  0  0  0  0
    3.3424    0.7267   -0.9639 N   0  0  0  0  0  0  0  0  0  0  0  0
    5.1517    2.3109   -1.0193 N   0  0  0  0  0  0  0  0  0  0  0  0
   -4.7190   -0.8186    0.5701 C   0  0  0  0  0  0  0  0  0  0  0  0
   -5.4752    0.9260   -0.9987 C   0  0  0  0  0  0  0  0  0  0  0  0
   -5.2216    0.0468    1.7278 C   0  0  0  0  0  0  0  0  0  0  0  0
   -5.9486    1.7611    0.1899 C   0  0  0  0  0  0  0  0  0  0  0  0
   -3.2602   -0.0966   -1.3895 C   0  0  0  0  0  0  0  0  0  0  0  0
   -6.8366    1.6925    2.4296 C   0  0  0  0  0  0  0  0  0  0  0  0
   -2.2177   -1.0436   -0.9721 C   0  0  0  0  0  0  0  0  0  0  0  0
   -0.9283   -0.6052   -0.6704 C   0  0  0  0  0  0  0  0  0  0  0  0
   -2.5330   -2.3993   -0.8793 C   0  0  0  0  0  0  0  0  0  0  0  0
    0.0457   -1.5223   -0.2761 C   0  0  0  0  0  0  0  0  0  0  0  0
   -1.5589   -3.3163   -0.4849 C   0  0  0  0  0  0  0  0  0  0  0  0
   -0.8146    1.5106    0.4094 C   0  0  0  0  0  0  0  0  0  0  0  0
   -0.2695   -2.8779   -0.1833 C   0  0  0  0  0  0  0  0  0  0  0  0
   -1.8418    2.5943    0.1187 C   0  0  0  0  0  0  0  0  0  0  0  0
    0.5198    2.0967    0.8447 C   0  0  0  0  0  0  0  0  0  0  0  0
    2.4367   -1.8869    0.4079 C   0  0  0  0  0  0  0  0  0  0  0  0
    3.7029   -1.1441    0.6413 C   0  0  0  0  0  0  0  0  0  0  0  0
    4.1088    0.0539    0.0065 C   0  0  0  0  0  0  0  0  0  0  0  0
    5.3351    0.4985    0.4344 C   0  0  0  0  0  0  0  0  0  0  0  0
    4.6560   -1.5716    1.5451 C   0  0  0  0  0  0  0  0  0  0  0  0
    5.9595    1.6949   -0.0649 C   0  0  0  0  0  0  0  0  0  0  0  0
    3.9172    1.8042   -1.4065 C   0  0  0  0  0  0  0  0  0  0  0  0
   -6.2997    0.3226   -1.3978 H   0  0  0  0  0  0  0  0  0  0  0  0
   -5.1348    1.5864   -1.8029 H   0  0  0  0  0  0  0  0  0  0  0  0
   -3.8486   -1.3639    0.9345 H   0  0  0  0  0  0  0  0  0  0  0  0
   -5.4812   -1.5486    0.2724 H   0  0  0  0  0  0  0  0  0  0  0  0
   -5.5342   -0.6153    2.5441 H   0  0  0  0  0  0  0  0  0  0  0  0
   -4.3960    0.6664    2.1036 H   0  0  0  0  0  0  0  0  0  0  0  0
   -5.1531    2.4501    0.5014 H   0  0  0  0  0  0  0  0  0  0  0  0
   -6.8014    2.3695   -0.1342 H   0  0  0  0  0  0  0  0  0  0  0  0
   -7.1735    1.0437    3.2456 H   0  0  0  0  0  0  0  0  0  0  0  0
   -7.7030    2.2908    2.1265 H   0  0  0  0  0  0  0  0  0  0  0  0
   -6.0695    2.3701    2.8218 H   0  0  0  0  0  0  0  0  0  0  0  0
   -3.5250   -2.7649   -1.1325 H   0  0  0  0  0  0  0  0  0  0  0  0
   -1.2016    0.8984    1.2361 H   0  0  0  0  0  0  0  0  0  0  0  0
   -1.8047   -4.3722   -0.4169 H   0  0  0  0  0  0  0  0  0  0  0  0
    0.4211   -3.6519    0.1179 H   0  0  0  0  0  0  0  0  0  0  0  0
    1.5072   -0.1069   -0.0923 H   0  0  0  0  0  0  0  0  0  0  0  0
   -2.8199    2.1713   -0.1043 H   0  0  0  0  0  0  0  0  0  0  0  0
   -1.9591    3.2682    0.9733 H   0  0  0  0  0  0  0  0  0  0  0  0
    1.1661    1.3340    1.2855 H   0  0  0  0  0  0  0  0  0  0  0  0
    0.3811    2.8712    1.6063 H   0  0  0  0  0  0  0  0  0  0  0  0
    1.0556    2.5338   -0.0042 H   0  0  0  0  0  0  0  0  0  0  0  0
   -1.5462    3.1862   -0.7544 H   0  0  0  0  0  0  0  0  0  0  0  0
    4.6305   -2.4475    2.1788 H   0  0  0  0  0  0  0  0  0  0  0  0
    5.4838    3.1693   -1.4493 H   0  0  0  0  0  0  0  0  0  0  0  0
    3.4272    2.4284   -2.1700 H   0  0  0  0  0  0  0  0  0  0  0  0
  1 29  1  0  0  0  0
  1 30  1  0  0  0  0
  2 18  1  0  0  0  0
  2 22  1  0  0  0  0
  3 15  2  0  0  0  0
  4 26  2  0  0  0  0
  5 31  2  0  0  0  0
  6 11  1  0  0  0  0
  6 12  1  0  0  0  0
  6 15  1  0  0  0  0
  7 13  1  0  0  0  0
  7 14  1  0  0  0  0
  7 16  1  0  0  0  0
  8 20  1  0  0  0  0
  8 26  1  0  0  0  0
  8 48  1  0  0  0  0
  9 28  1  0  0  0  0
  9 32  2  0  0  0  0
 10 31  1  0  0  0  0
 10 32  1  0  0  0  0
 10 56  1  0  0  0  0
 11 13  1  0  0  0  0
 11 35  1  0  0  0  0
 11 36  1  0  0  0  0
 12 14  1  0  0  0  0
 12 33  1  0  0  0  0
 12 34  1  0  0  0  0
 13 37  1  0  0  0  0
 13 38  1  0  0  0  0
 14 39  1  0  0  0  0
 14 40  1  0  0  0  0
 15 17  1  0  0  0  0
 16 41  1  0  0  0  0
 16 42  1  0  0  0  0
 16 43  1  0  0  0  0
 17 18  2  0  0  0  0
 17 19  1  0  0  0  0
 18 20  1  0  0  0  0
 19 21  2  0  0  0  0
 19 44  1  0  0  0  0
 20 23  2  0  0  0  0
 21 23  1  0  0  0  0
 21 46  1  0  0  0  0
 22 24  1  0  0  0  0
 22 25  1  0  0  0  0
 22 45  1  0  0  0  0
 23 47  1  0  0  0  0
 24 49  1  0  0  0  0
 24 50  1  0  0  0  0
 24 54  1  0  0  0  0
 25 51  1  0  0  0  0
 25 52  1  0  0  0  0
 25 53  1  0  0  0  0
 26 27  1  0  0  0  0
 27 28  1  0  0  0  0
 27 30  2  0  0  0  0
 28 29  2  0  0  0  0
 29 31  1  0  0  0  0
 30 55  1  0  0  0  0
 32 57  1  0  0  0  0
M  END
> <PUBCHEM_COMPOUND_CID>
135567181

> <PUBCHEM_CONFORMER_RMSD>
1

> <PUBCHEM_CONFORMER_DIVERSEORDER>
1
12
47
31
59
38
41
32
21
8
3
33
10
35
17
42
46
24
14
22
53
28
30
50
40
36
48
16
13
15
20
43
6
5
58
37
39
2
61
23
52
56
54
25
29
7
57
26
19
60
34
55
51
44
45
49
9
18
11
27
4

> <PUBCHEM_MMFF94_PARTIAL_CHARGES>
37
1 -0.08
10 -0.49
11 0.3
12 0.3
13 0.27
14 0.27
15 0.54
16 0.27
17 0.09
18 0.08
19 -0.15
2 -0.36
20 0.12
21 -0.15
22 0.28
23 -0.15
26 0.72
27 -0.09
28 0.12
29 -0.05
3 -0.57
30 -0.11
31 0.71
32 0.45
4 -0.57
44 0.15
46 0.15
47 0.15
48 0.37
5 -0.57
55 0.15
56 0.37
57 0.06
6 -0.66
7 -0.81
8 -0.55
9 -0.57

> <PUBCHEM_EFFECTIVE_ROTOR_COUNT>
8.2

> <PUBCHEM_PHARMACOPHORE_FEATURES>
12
1 10 donor
1 2 acceptor
1 3 acceptor
1 4 acceptor
1 5 acceptor
1 7 cation
1 8 donor
3 22 24 25 hydrophobe
5 1 27 28 29 30 rings
6 17 18 19 20 21 23 rings
6 6 7 11 12 13 14 rings
6 9 10 28 29 31 32 rings

> <PUBCHEM_HEAVY_ATOM_COUNT>
32

> <PUBCHEM_ATOM_DEF_STEREO_COUNT>
0

> <PUBCHEM_ATOM_UDEF_STEREO_COUNT>
0

> <PUBCHEM_BOND_DEF_STEREO_COUNT>
0

> <PUBCHEM_BOND_UDEF_STEREO_COUNT>
0

> <PUBCHEM_ISOTOPIC_ATOM_COUNT>
0

> <PUBCHEM_COMPONENT_COUNT>
1

> <PUBCHEM_CACTVS_TAUTO_COUNT>
-1

> <PUBCHEM_CONFORMER_ID>
0814974D00000001

> <PUBCHEM_MMFF94_ENERGY>
95.4749

> <PUBCHEM_FEATURE_SELFOVERLAP>
60.982

> <PUBCHEM_SHAPE_FINGERPRINT>
10 15 18040436581743061427
10906281 52 18202288004259959559
11135926 11 18334564772968748292
12422481 6 17821727230403761559
12616971 3 18186792595896527734
12788726 201 17917715677619364408
13583140 156 16806429341335629807
13726171 33 18197228155435129200
13782708 43 13334725830745922512
14020679 6 18041283265673232075
14114211 80 18273497892060779303
14394314 77 18341051895045720064
14765038 42 18343871013157569409
14790565 3 18342177735202243641
14840074 17 18411702080135014657
14849402 71 18343022220763195057
15183329 4 18131064952733530837
15297060 5 18343584075394044970
15484559 13 16179309398183863253
15840311 113 18339369539945374341
19319366 153 18334285449075126298
19958102 18 12247680465420310475
20715895 44 18045478860215900324
21781055 127 17846503578849851818
23559900 14 18270390737516418724
34797466 226 15051436254832311539
3680242 22 18335697226610763898
392239 28 18187646877792578003
397830 11 17095248033643628787
4340502 62 17240485792715638370
437795 70 15410902833742829483
5104073 3 18187634869216992802
7226269 152 17917997187224851505

> <PUBCHEM_SHAPE_MULTIPOLES>
614.01
17.14
3.29
1.65
0.97
1.28
-0.26
-10.54
-6.63
0.84
0.07
-1.56
-0.42
-2.69

> <PUBCHEM_SHAPE_SELFOVERLAP>
1312.758

> <PUBCHEM_SHAPE_VOLUME>
341.9

> <PUBCHEM_COORDINATE_TYPE>
2
5
10

$$$$
