135547541
  -OEChem-03292013293D

 42 46  0     1  0  0  0  0  0999 V2000
    0.9752    1.1046   -2.3888 O   0  0  0  0  0  0  0  0  0  0  0  0
   -4.1760   -3.1874   -0.1724 O   0  0  0  0  0  0  0  0  0  0  0  0
   -2.2521   -3.8529    0.8531 O   0  0  0  0  0  0  0  0  0  0  0  0
    3.8097    1.6537    2.6218 O   0  0  0  0  0  0  0  0  0  0  0  0
   -3.1451    2.8920    0.7581 N   0  0  0  0  0  0  0  0  0  0  0  0
   -1.0443   -1.6768   -0.1324 N   0  0  0  0  0  0  0  0  0  0  0  0
    3.0052   -1.9625   -1.4196 N   0  0  0  0  0  0  0  0  0  0  0  0
   -1.7873    1.2730    0.0467 C   0  0  0  0  0  0  0  0  0  0  0  0
   -2.7333    0.7171    0.9579 C   0  0  0  0  0  0  0  0  0  0  0  0
   -2.8290   -0.7291    1.2914 C   0  0  0  0  0  0  0  0  0  0  0  0
   -0.7146    0.7284   -0.6897 C   0  0  0  0  0  0  0  0  0  0  0  0
   -2.4819   -1.5803    0.0675 C   0  0  2  0  0  0  0  0  0  0  0  0
   -0.2906   -0.6899   -0.4780 C   0  0  0  0  0  0  0  0  0  0  0  0
   -2.0947    2.6268   -0.0906 C   0  0  0  0  0  0  0  0  0  0  0  0
    1.1538   -1.0178   -0.6404 C   0  0  0  0  0  0  0  0  0  0  0  0
   -3.5420    1.7451    1.3915 C   0  0  0  0  0  0  0  0  0  0  0  0
   -0.0294    1.5669   -1.5875 C   0  0  0  0  0  0  0  0  0  0  0  0
    2.2604   -0.4902    0.0821 C   0  0  0  0  0  0  0  0  0  0  0  0
   -1.4021    3.4738   -0.9601 C   0  0  0  0  0  0  0  0  0  0  0  0
    3.4097   -1.0995   -0.4262 C   0  0  0  0  0  0  0  0  0  0  0  0
   -0.3714    2.9133   -1.7171 C   0  0  0  0  0  0  0  0  0  0  0  0
    1.6435   -1.9200   -1.5565 C   0  0  0  0  0  0  0  0  0  0  0  0
   -2.9231   -2.9906    0.3057 C   0  0  0  0  0  0  0  0  0  0  0  0
    2.3951    0.4500    1.1228 C   0  0  0  0  0  0  0  0  0  0  0  0
    4.6920   -0.8144    0.0563 C   0  0  0  0  0  0  0  0  0  0  0  0
    3.6715    0.7451    1.6153 C   0  0  0  0  0  0  0  0  0  0  0  0
    4.8009    0.1214    1.0890 C   0  0  0  0  0  0  0  0  0  0  0  0
   -2.1576   -0.9554    2.1295 H   0  0  0  0  0  0  0  0  0  0  0  0
   -3.8485   -0.9542    1.6300 H   0  0  0  0  0  0  0  0  0  0  0  0
   -2.9622   -1.2221   -0.8528 H   0  0  0  0  0  0  0  0  0  0  0  0
   -4.3799    1.7577    2.0745 H   0  0  0  0  0  0  0  0  0  0  0  0
   -3.5787    3.7973    0.8752 H   0  0  0  0  0  0  0  0  0  0  0  0
   -1.6609    4.5228   -1.0566 H   0  0  0  0  0  0  0  0  0  0  0  0
    0.1653    3.5550   -2.4128 H   0  0  0  0  0  0  0  0  0  0  0  0
    1.1481   -2.5355   -2.2946 H   0  0  0  0  0  0  0  0  0  0  0  0
    3.6245   -2.5429   -1.9683 H   0  0  0  0  0  0  0  0  0  0  0  0
    1.5169    0.9368    1.5382 H   0  0  0  0  0  0  0  0  0  0  0  0
    5.5718   -1.2993   -0.3530 H   0  0  0  0  0  0  0  0  0  0  0  0
    5.7860    0.3614    1.4823 H   0  0  0  0  0  0  0  0  0  0  0  0
    1.3205    1.8325   -2.9332 H   0  0  0  0  0  0  0  0  0  0  0  0
   -4.4837   -4.1073   -0.0262 H   0  0  0  0  0  0  0  0  0  0  0  0
    2.9303    1.9891    2.8671 H   0  0  0  0  0  0  0  0  0  0  0  0
  1 17  1  0  0  0  0
  1 40  1  0  0  0  0
  2 23  1  0  0  0  0
  2 41  1  0  0  0  0
  3 23  2  0  0  0  0
  4 26  1  0  0  0  0
  4 42  1  0  0  0  0
  5 14  1  0  0  0  0
  5 16  1  0  0  0  0
  5 32  1  0  0  0  0
  6 12  1  0  0  0  0
  6 13  2  0  0  0  0
  7 20  1  0  0  0  0
  7 22  1  0  0  0  0
  7 36  1  0  0  0  0
  8  9  1  0  0  0  0
  8 11  1  0  0  0  0
  8 14  2  0  0  0  0
  9 10  1  0  0  0  0
  9 16  2  0  0  0  0
 10 12  1  0  0  0  0
 10 28  1  0  0  0  0
 10 29  1  0  0  0  0
 11 13  1  0  0  0  0
 11 17  2  0  0  0  0
 12 23  1  0  0  0  0
 12 30  1  0  0  0  0
 13 15  1  0  0  0  0
 14 19  1  0  0  0  0
 15 18  1  0  0  0  0
 15 22  2  0  0  0  0
 16 31  1  0  0  0  0
 17 21  1  0  0  0  0
 18 20  2  0  0  0  0
 18 24  1  0  0  0  0
 19 21  2  0  0  0  0
 19 33  1  0  0  0  0
 20 25  1  0  0  0  0
 21 34  1  0  0  0  0
 22 35  1  0  0  0  0
 24 26  2  0  0  0  0
 24 37  1  0  0  0  0
 25 27  2  0  0  0  0
 25 38  1  0  0  0  0
 26 27  1  0  0  0  0
 27 39  1  0  0  0  0
M  END
> <PUBCHEM_COMPOUND_CID>
135547541

> <PUBCHEM_CONFORMER_RMSD>
0.6

> <PUBCHEM_CONFORMER_DIVERSEORDER>
2
4
5
8
12
14
11
15
6
7
9
10
3
1
16
13

> <PUBCHEM_MMFF94_PARTIAL_CHARGES>
37
1 -0.53
10 0.18
11 0.09
12 0.31
13 0.45
14 -0.15
15 -0.09
16 -0.3
17 0.08
19 -0.15
2 -0.65
20 -0.15
21 -0.15
22 -0.3
23 0.66
24 -0.15
25 -0.15
26 0.08
27 -0.15
3 -0.57
31 0.15
32 0.27
33 0.15
34 0.15
35 0.15
36 0.27
37 0.15
38 0.15
39 0.15
4 -0.53
40 0.45
41 0.5
42 0.45
5 0.03
6 -0.7
7 0.03
9 -0.18

> <PUBCHEM_EFFECTIVE_ROTOR_COUNT>
2.4

> <PUBCHEM_PHARMACOPHORE_FEATURES>
15
1 1 donor
1 2 acceptor
1 3 acceptor
1 4 donor
1 5 cation
1 5 donor
1 6 acceptor
1 7 cation
1 7 donor
3 2 3 23 anion
5 5 8 9 14 16 rings
5 7 15 18 20 22 rings
6 18 20 24 25 26 27 rings
6 8 11 14 17 19 21 rings
7 6 8 9 10 11 12 13 rings

> <PUBCHEM_HEAVY_ATOM_COUNT>
27

> <PUBCHEM_ATOM_DEF_STEREO_COUNT>
0

> <PUBCHEM_ATOM_UDEF_STEREO_COUNT>
1

> <PUBCHEM_BOND_DEF_STEREO_COUNT>
0

> <PUBCHEM_BOND_UDEF_STEREO_COUNT>
0

> <PUBCHEM_ISOTOPIC_ATOM_COUNT>
0

> <PUBCHEM_COMPONENT_COUNT>
1

> <PUBCHEM_CACTVS_TAUTO_COUNT>
-1

> <PUBCHEM_CONFORMER_ID>
08144A9500000002

> <PUBCHEM_MMFF94_ENERGY>
71.4125

> <PUBCHEM_FEATURE_SELFOVERLAP>
76.413

> <PUBCHEM_SHAPE_FINGERPRINT>
10165383 225 17978528433248768052
10319926 262 18340475674539750410
10366900 7 18201152144651096044
10369192 42 17558831922240863936
1100329 8 18263095439147947115
11552529 35 18412260636199475986
11578080 2 17773343229602604720
11595378 159 17967812704693528176
12553582 1 18120962721670708687
12633257 1 18268702819120278474
13004483 165 18340192103102137887
13083527 12 18121777502593495821
13140716 1 18188512232018961729
13583140 156 17704072884798637486
140371 6 18266185105070963151
14081887 123 18409162195173639962
14178342 30 18335709329391345131
14223421 5 18273496796991298554
14932701 244 13394083150807621040
14955137 171 17401773415756213490
15119646 57 13970015085173437680
15230672 131 17756995502719307246
17980427 26 17331091920323669989
1813 80 18042681882886430787
18393751 57 17695324256024475426
20600515 1 17752463606823029907
20642791 13 18343020012923040727
21033648 29 18123186809912542088
21344244 78 17909561880388509387
21421861 104 17902255612630774075
22112679 90 18041296425083663949
22182313 1 16453225327623451093
23419403 2 17686021257612964925
23557571 272 18410291449413199175
23559900 14 18126579924998273614
23598288 3 15865479320361588340
2748010 2 17322693868143603917
3187 122 18265319771759336768
3380486 77 17168692154562376722
35225 105 17971177154166141616
394222 165 17033884538610712285
5265222 85 17829357721327895750
57527293 21 18187637008253117888
57527452 28 15866845137220415352
59444896 2 15547956142370573837
6004065 56 17838602715641680927
6287921 2 18340214102077400936
6442390 28 17977106760361187613
7399639 24 18057308690840456370
7471813 234 18125157397327733551
7808743 9 18335713693752948692
81228 2 18408047316437942623
90316 7 18040991817566311444
9981440 41 16839325711552452642

> <PUBCHEM_SHAPE_MULTIPOLES>
517.23
7.78
4.07
1.84
6.19
1.17
-0.06
1.27
-3.93
-5.27
0.59
1.2
-0.98
1.35

> <PUBCHEM_SHAPE_SELFOVERLAP>
1185.971

> <PUBCHEM_SHAPE_VOLUME>
265.4

> <PUBCHEM_COORDINATE_TYPE>
2
5
10

$$$$
