135565976
  -OEChem-03292013293D

 61 63  0     1  0  0  0  0  0999 V2000
   -0.4235   -4.1097    0.2685 O   0  0  0  0  0  0  0  0  0  0  0  0
    1.7087   -4.5839   -0.3421 O   0  0  0  0  0  0  0  0  0  0  0  0
   -7.4434    2.5821    0.4791 O   0  0  0  0  0  0  0  0  0  0  0  0
   -7.6524    0.6203   -0.7151 O   0  0  0  0  0  0  0  0  0  0  0  0
    6.2962    4.1018   -0.3706 O   0  0  0  0  0  0  0  0  0  0  0  0
    8.0305    2.6320   -0.0479 O   0  0  0  0  0  0  0  0  0  0  0  0
   -2.6172   -1.2343   -0.5204 N   0  0  0  0  0  0  0  0  0  0  0  0
   -4.8608    0.5592   -0.8495 N   0  0  0  0  0  0  0  0  0  0  0  0
    1.0810   -2.4344    0.4221 N   0  0  0  0  0  0  0  0  0  0  0  0
    5.8035    1.9313   -0.0206 N   0  0  0  0  0  0  0  0  0  0  0  0
    7.0639   -0.0286    0.3826 N   0  0  0  0  0  0  0  0  0  0  0  0
   -1.9322   -2.5115   -0.7090 C   0  0  0  0  0  0  0  0  0  0  0  0
   -3.8565   -1.4153    0.2455 C   0  0  0  0  0  0  0  0  0  0  0  0
   -2.9022   -0.5996   -1.8131 C   0  0  0  0  0  0  0  0  0  0  0  0
   -1.1777   -2.9221    0.5481 C   0  0  2  0  0  0  0  0  0  0  0  0
   -3.6223    0.7389   -1.6169 C   0  0  0  0  0  0  0  0  0  0  0  0
   -4.5757   -0.0765    0.4428 C   0  0  0  0  0  0  0  0  0  0  0  0
   -0.1378   -1.9093    0.9769 C   0  0  0  0  0  0  0  0  0  0  0  0
   -5.5442    1.8371   -0.6599 C   0  0  0  0  0  0  0  0  0  0  0  0
    0.8946   -3.7674    0.0655 C   0  0  0  0  0  0  0  0  0  0  0  0
    2.2911   -1.6851    0.3711 C   0  0  0  0  0  0  0  0  0  0  0  0
   -6.9918    1.5745   -0.3277 C   0  0  0  0  0  0  0  0  0  0  0  0
    2.3010   -0.3487    0.7705 C   0  0  0  0  0  0  0  0  0  0  0  0
    3.4665   -2.2881   -0.0770 C   0  0  0  0  0  0  0  0  0  0  0  0
    3.4863    0.3848    0.7219 C   0  0  0  0  0  0  0  0  0  0  0  0
    4.6518   -1.5544   -0.1256 C   0  0  0  0  0  0  0  0  0  0  0  0
    4.6618   -0.2180    0.2736 C   0  0  0  0  0  0  0  0  0  0  0  0
   -8.8117    2.4798    0.8865 C   0  0  0  0  0  0  0  0  0  0  0  0
    5.8983    0.5458    0.2229 C   0  0  0  0  0  0  0  0  0  0  0  0
   -9.1534    3.6622    1.7680 C   0  0  0  0  0  0  0  0  0  0  0  0
    6.8301    2.8653   -0.1388 C   0  0  0  0  0  0  0  0  0  0  0  0
    7.2373    5.1717   -0.5112 C   0  0  0  0  0  0  0  0  0  0  0  0
   -2.6187   -3.3090   -1.0237 H   0  0  0  0  0  0  0  0  0  0  0  0
   -1.2021   -2.4306   -1.5270 H   0  0  0  0  0  0  0  0  0  0  0  0
   -3.6414   -1.8227    1.2393 H   0  0  0  0  0  0  0  0  0  0  0  0
   -4.5304   -2.1219   -0.2580 H   0  0  0  0  0  0  0  0  0  0  0  0
   -3.5108   -1.2592   -2.4465 H   0  0  0  0  0  0  0  0  0  0  0  0
   -1.9643   -0.4058   -2.3479 H   0  0  0  0  0  0  0  0  0  0  0  0
   -1.8667   -3.1431    1.3694 H   0  0  0  0  0  0  0  0  0  0  0  0
   -2.9521    1.4503   -1.1153 H   0  0  0  0  0  0  0  0  0  0  0  0
   -3.8543    1.1504   -2.6067 H   0  0  0  0  0  0  0  0  0  0  0  0
   -5.5065   -0.2712    0.9886 H   0  0  0  0  0  0  0  0  0  0  0  0
   -3.9599    0.5781    1.0749 H   0  0  0  0  0  0  0  0  0  0  0  0
   -0.3553   -0.8962    0.6313 H   0  0  0  0  0  0  0  0  0  0  0  0
   -0.0324   -1.9053    2.0682 H   0  0  0  0  0  0  0  0  0  0  0  0
   -5.0647    2.4397    0.1208 H   0  0  0  0  0  0  0  0  0  0  0  0
   -5.5526    2.4244   -1.5864 H   0  0  0  0  0  0  0  0  0  0  0  0
    1.4166    0.1589    1.1412 H   0  0  0  0  0  0  0  0  0  0  0  0
    3.5287   -3.3172   -0.4036 H   0  0  0  0  0  0  0  0  0  0  0  0
    3.4622    1.4139    1.0691 H   0  0  0  0  0  0  0  0  0  0  0  0
    5.5545   -2.0421   -0.4846 H   0  0  0  0  0  0  0  0  0  0  0  0
   -9.4572    2.4793    0.0012 H   0  0  0  0  0  0  0  0  0  0  0  0
   -8.9577    1.5479    1.4441 H   0  0  0  0  0  0  0  0  0  0  0  0
   -8.5034    3.6866    2.6490 H   0  0  0  0  0  0  0  0  0  0  0  0
   -8.9947    4.6026    1.2300 H   0  0  0  0  0  0  0  0  0  0  0  0
  -10.1947    3.6157    2.0985 H   0  0  0  0  0  0  0  0  0  0  0  0
    4.8758    2.3210   -0.1617 H   0  0  0  0  0  0  0  0  0  0  0  0
    7.8092    0.6690    0.3084 H   0  0  0  0  0  0  0  0  0  0  0  0
    6.6786    6.0940   -0.6910 H   0  0  0  0  0  0  0  0  0  0  0  0
    7.8952    4.9872   -1.3657 H   0  0  0  0  0  0  0  0  0  0  0  0
    7.8192    5.2871    0.4082 H   0  0  0  0  0  0  0  0  0  0  0  0
  1 15  1  0  0  0  0
  1 20  1  0  0  0  0
  2 20  2  0  0  0  0
  3 22  1  0  0  0  0
  3 28  1  0  0  0  0
  4 22  2  0  0  0  0
  5 31  1  0  0  0  0
  5 32  1  0  0  0  0
  6 31  2  0  0  0  0
  7 12  1  0  0  0  0
  7 13  1  0  0  0  0
  7 14  1  0  0  0  0
  8 16  1  0  0  0  0
  8 17  1  0  0  0  0
  8 19  1  0  0  0  0
  9 18  1  0  0  0  0
  9 20  1  0  0  0  0
  9 21  1  0  0  0  0
 10 29  1  0  0  0  0
 10 31  1  0  0  0  0
 10 57  1  0  0  0  0
 11 29  2  0  0  0  0
 11 58  1  0  0  0  0
 12 15  1  0  0  0  0
 12 33  1  0  0  0  0
 12 34  1  0  0  0  0
 13 17  1  0  0  0  0
 13 35  1  0  0  0  0
 13 36  1  0  0  0  0
 14 16  1  0  0  0  0
 14 37  1  0  0  0  0
 14 38  1  0  0  0  0
 15 18  1  0  0  0  0
 15 39  1  0  0  0  0
 16 40  1  0  0  0  0
 16 41  1  0  0  0  0
 17 42  1  0  0  0  0
 17 43  1  0  0  0  0
 18 44  1  0  0  0  0
 18 45  1  0  0  0  0
 19 22  1  0  0  0  0
 19 46  1  0  0  0  0
 19 47  1  0  0  0  0
 21 23  2  0  0  0  0
 21 24  1  0  0  0  0
 23 25  1  0  0  0  0
 23 48  1  0  0  0  0
 24 26  2  0  0  0  0
 24 49  1  0  0  0  0
 25 27  2  0  0  0  0
 25 50  1  0  0  0  0
 26 27  1  0  0  0  0
 26 51  1  0  0  0  0
 27 29  1  0  0  0  0
 28 30  1  0  0  0  0
 28 52  1  0  0  0  0
 28 53  1  0  0  0  0
 30 54  1  0  0  0  0
 30 55  1  0  0  0  0
 30 56  1  0  0  0  0
 32 59  1  0  0  0  0
 32 60  1  0  0  0  0
 32 61  1  0  0  0  0
M  END
> <PUBCHEM_COMPOUND_CID>
135565976

> <PUBCHEM_CONFORMER_RMSD>
1.2

> <PUBCHEM_CONFORMER_DIVERSEORDER>
1
29
39
26
17
40
36
13
23
16
50
30
51
20
10
32
41
33
49
45
48
35
11
25
18
24
27
34
15
43
28
8
42
12
22
19
14
44
4
9
6
5
31
47
46
37
38
3
21
7
2

> <PUBCHEM_MMFF94_PARTIAL_CHARGES>
37
1 -0.43
10 -0.49
11 -0.85
12 0.27
13 0.27
14 0.27
15 0.28
16 0.27
17 0.27
18 0.3
19 0.33
2 -0.57
20 0.78
21 0.12
22 0.66
23 -0.15
24 -0.15
25 -0.15
26 -0.15
27 0.09
28 0.28
29 0.42
3 -0.43
31 0.78
32 0.28
4 -0.57
48 0.15
49 0.15
5 -0.43
50 0.15
51 0.15
57 0.37
58 0.4
6 -0.57
7 -0.81
8 -0.81
9 -0.48

> <PUBCHEM_EFFECTIVE_ROTOR_COUNT>
13

> <PUBCHEM_PHARMACOPHORE_FEATURES>
10
1 10 donor
1 11 donor
1 2 acceptor
1 4 acceptor
1 6 acceptor
1 7 cation
1 8 cation
5 1 9 15 18 20 rings
6 21 23 24 25 26 27 rings
6 7 8 13 14 16 17 rings

> <PUBCHEM_HEAVY_ATOM_COUNT>
32

> <PUBCHEM_ATOM_DEF_STEREO_COUNT>
1

> <PUBCHEM_ATOM_UDEF_STEREO_COUNT>
0

> <PUBCHEM_BOND_DEF_STEREO_COUNT>
0

> <PUBCHEM_BOND_UDEF_STEREO_COUNT>
0

> <PUBCHEM_ISOTOPIC_ATOM_COUNT>
0

> <PUBCHEM_COMPONENT_COUNT>
1

> <PUBCHEM_CACTVS_TAUTO_COUNT>
-1

> <PUBCHEM_CONFORMER_ID>
0814929800000001

> <PUBCHEM_MMFF94_ENERGY>
79.8501

> <PUBCHEM_FEATURE_SELFOVERLAP>
50.785

> <PUBCHEM_SHAPE_FINGERPRINT>
10625338 131 18263073466222218920
10675989 125 18409727323424806938
10838868 160 18411972590323813473
10930396 42 16226041211540113165
11273773 42 18342166791873143215
11399510 152 15864896630580199257
11621639 254 18053658363755099607
1200032 147 18260829302342732810
12013929 29 18338515361298234620
12539765 74 18201725045806450478
12895837 130 18342172327743317103
1361 87 13398335949687525879
13726171 33 18262234538274888240
13885169 86 18407759244122284293
13944108 23 18342458110978381184
14068700 675 10665232527647308799
14251764 75 18408318900025745382
14344974 204 8573896570712983984
14394314 77 18408887373239220069
14617042 71 18340772534231895697
14664723 55 18343309149535923088
14747281 78 18269569260143135742
15064981 194 17917149507072927971
15152005 290 18410008879483403334
15198563 99 17553469688961532271
15347591 1 18336546122993150706
155225 6 18410012143389665741
15685185 35 18411701027942321913
16067689 134 18263372558865238380
16126227 98 18410008862498446621
16758388 162 18114449069254527554
16993427 108 10953744413219404165
17899979 129 18342176635558792766
18393751 57 17894912902229851227
19053607 189 18341319094072430098
19302320 297 18333729092397241696
19304671 126 18060707165238615212
19309040 13 18272928327804864967
19438510 23 17968371342695119234
20691028 202 18338793528527147632
21033648 29 18113621187810750362
21307412 95 12823001050737420125
21772523 7 15983132842542131512
21792964 463 17699300867491288337
23522609 53 17773879697884769009
23569914 152 17915484739685169654
2838139 119 18334565885339482166
3014063 24 8286189566173840739
3711267 37 18129952153131348817
393628 194 18337104674045038244
406291 66 8646771092793512273
4366758 26 18341337691218713289
4760202 70 18342444943315319719
5718773 13 9583520918871039581
5911458 16 17845937300333718881
6201320 82 18191600846672561964
6204607 403 18272660017958386489
6327066 14 18409163346283131262
636775 72 17904477751833764736
636783 225 18264772056984732413
636783 97 18272379701974272297
636783 98 16844741820438837121
7970288 3 9727632821592339268
9980921 177 18189034457825654634

> <PUBCHEM_SHAPE_MULTIPOLES>
598.42
26.78
6.25
1.13
22.22
2.39
0.14
46.25
-3.72
-7.2
-0.29
2.01
0.36
-3.25

> <PUBCHEM_SHAPE_SELFOVERLAP>
1245.527

> <PUBCHEM_SHAPE_VOLUME>
339

> <PUBCHEM_COORDINATE_TYPE>
2
5
10

$$$$
