135566354
  -OEChem-03292013293D

 32 33  0     1  0  0  0  0  0999 V2000
    1.2091    1.2316    0.2090 S   0  0  0  0  0  0  0  0  0  0  0  0
   -1.4301    1.0588    0.9751 O   0  0  0  0  0  0  0  0  0  0  0  0
   -1.0512   -2.9384   -0.0757 O   0  0  0  0  0  0  0  0  0  0  0  0
   -2.8460   -1.2587   -1.5041 O   0  0  0  0  0  0  0  0  0  0  0  0
   -3.1845    2.7759   -0.2204 O   0  0  0  0  0  0  0  0  0  0  0  0
    1.3644   -1.2919    0.7659 N   0  0  0  0  0  0  0  0  0  0  0  0
    3.3675   -0.2847   -0.0972 N   0  0  0  0  0  0  0  0  0  0  0  0
   -0.0487   -1.0199    0.9883 C   0  0  2  0  0  0  0  0  0  0  0  0
   -0.8571   -1.5286   -0.2090 C   0  0  2  0  0  0  0  0  0  0  0  0
   -2.2277   -0.8602   -0.2830 C   0  0  1  0  0  0  0  0  0  0  0  0
   -0.1450    0.4981    1.2020 C   0  0  1  0  0  0  0  0  0  0  0  0
   -2.0722    0.6613   -0.2356 C   0  0  1  0  0  0  0  0  0  0  0  0
   -3.4178    1.3807   -0.2792 C   0  0  0  0  0  0  0  0  0  0  0  0
    2.1360   -0.2685    0.2812 C   0  0  0  0  0  0  0  0  0  0  0  0
    3.8743    0.9997   -0.5618 C   0  0  0  0  0  0  0  0  0  0  0  0
    5.3289    0.8447   -0.9555 C   0  0  0  0  0  0  0  0  0  0  0  0
   -0.3769   -1.5371    1.8982 H   0  0  0  0  0  0  0  0  0  0  0  0
   -0.3152   -1.3818   -1.1515 H   0  0  0  0  0  0  0  0  0  0  0  0
   -2.8619   -1.2123    0.5393 H   0  0  0  0  0  0  0  0  0  0  0  0
    0.1126    0.7216    2.2438 H   0  0  0  0  0  0  0  0  0  0  0  0
   -1.4774    1.0189   -1.0861 H   0  0  0  0  0  0  0  0  0  0  0  0
    1.7158   -2.2401    0.8465 H   0  0  0  0  0  0  0  0  0  0  0  0
   -4.0337    1.1079    0.5843 H   0  0  0  0  0  0  0  0  0  0  0  0
   -3.9641    1.1534   -1.1995 H   0  0  0  0  0  0  0  0  0  0  0  0
   -1.5508   -3.0989    0.7430 H   0  0  0  0  0  0  0  0  0  0  0  0
   -2.3128   -0.9109   -2.2392 H   0  0  0  0  0  0  0  0  0  0  0  0
   -4.0525    3.2134   -0.2458 H   0  0  0  0  0  0  0  0  0  0  0  0
    3.3433    1.3507   -1.4555 H   0  0  0  0  0  0  0  0  0  0  0  0
    3.8470    1.7627    0.2262 H   0  0  0  0  0  0  0  0  0  0  0  0
    5.9312    0.5084   -0.1049 H   0  0  0  0  0  0  0  0  0  0  0  0
    5.4413    0.1047   -1.7550 H   0  0  0  0  0  0  0  0  0  0  0  0
    5.7364    1.7967   -1.3095 H   0  0  0  0  0  0  0  0  0  0  0  0
  1 11  1  0  0  0  0
  1 14  1  0  0  0  0
  2 11  1  0  0  0  0
  2 12  1  0  0  0  0
  3  9  1  0  0  0  0
  3 25  1  0  0  0  0
  4 10  1  0  0  0  0
  4 26  1  0  0  0  0
  5 13  1  0  0  0  0
  5 27  1  0  0  0  0
  6  8  1  0  0  0  0
  6 14  1  0  0  0  0
  6 22  1  0  0  0  0
  7 14  2  0  0  0  0
  7 15  1  0  0  0  0
  8  9  1  0  0  0  0
  8 11  1  0  0  0  0
  8 17  1  0  0  0  0
  9 10  1  0  0  0  0
  9 18  1  0  0  0  0
 10 12  1  0  0  0  0
 10 19  1  0  0  0  0
 11 20  1  0  0  0  0
 12 13  1  0  0  0  0
 12 21  1  0  0  0  0
 13 23  1  0  0  0  0
 13 24  1  0  0  0  0
 15 16  1  0  0  0  0
 15 28  1  0  0  0  0
 15 29  1  0  0  0  0
 16 30  1  0  0  0  0
 16 31  1  0  0  0  0
 16 32  1  0  0  0  0
M  END
> <PUBCHEM_COMPOUND_CID>
135566354

> <PUBCHEM_CONFORMER_RMSD>
0.6

> <PUBCHEM_CONFORMER_DIVERSEORDER>
1
11
4
17
3
5
15
9
12
13
8
2
18
16
10
7
14
6

> <PUBCHEM_MMFF94_PARTIAL_CHARGES>
19
1 -0.37
10 0.28
11 0.51
12 0.28
13 0.28
14 0.64
15 0.25
2 -0.56
22 0.4
25 0.4
26 0.4
27 0.4
3 -0.68
4 -0.68
5 -0.68
6 -0.82
7 -0.7
8 0.37
9 0.28

> <PUBCHEM_EFFECTIVE_ROTOR_COUNT>
3.2

> <PUBCHEM_PHARMACOPHORE_FEATURES>
11
1 2 acceptor
1 3 acceptor
1 3 donor
1 4 acceptor
1 4 donor
1 5 acceptor
1 5 donor
1 6 donor
3 6 7 14 cation
5 1 6 8 11 14 rings
6 2 8 9 10 11 12 rings

> <PUBCHEM_HEAVY_ATOM_COUNT>
16

> <PUBCHEM_ATOM_DEF_STEREO_COUNT>
5

> <PUBCHEM_ATOM_UDEF_STEREO_COUNT>
0

> <PUBCHEM_BOND_DEF_STEREO_COUNT>
0

> <PUBCHEM_BOND_UDEF_STEREO_COUNT>
0

> <PUBCHEM_ISOTOPIC_ATOM_COUNT>
0

> <PUBCHEM_COMPONENT_COUNT>
1

> <PUBCHEM_CACTVS_TAUTO_COUNT>
-1

> <PUBCHEM_CONFORMER_ID>
0814941200000001

> <PUBCHEM_MMFF94_ENERGY>
45.1854

> <PUBCHEM_FEATURE_SELFOVERLAP>
55.983

> <PUBCHEM_SHAPE_FINGERPRINT>
10014705 185 18335426811470609644
10726558 24 18341615854420995685
10756046 5 18342176627084896246
11046707 91 10735876153799848372
11127187 94 17418094338356395365
11206711 2 18270951436220856455
11769659 78 11095871666517495152
12138202 97 18272937115465759142
12173636 292 18410846647061239445
12251169 10 9511197256167972278
12491281 212 18259983777510718784
12824470 246 12247671643457543717
14123255 52 18335422313932891100
14123260 362 18041008375013195956
15534591 1 18261112958772530113
15775835 57 18261393312678555860
16945 1 18266445676114315939
18186145 218 17917708006855045088
19765921 60 18187364290097214152
200 152 14908187430416309460
20300324 65 18272091651469909596
20361792 2 14333131905201470818
20645476 183 18408884027279562047
20645477 56 18411707603462950784
20653085 51 18260835873262984546
20871999 31 18273210919667750381
21524375 3 18188204299779788489
22802520 49 17982727768723691179
22926399 65 18410857655268147068
23402539 116 18410011036105670748
23402655 69 18411703149771918276
23557571 272 18201167645282882932
23559900 14 18131351908879295528
23598291 2 18115291303076091858
25 1 18113900433814913720
2748010 2 17620455248860597995
298252 57 18336827498382740611
3086196 2 8646768884958178333
4175511 318 18272656757228011748
53917941 68 18335977644983529424
559249 180 18410573947457315518
633830 44 17822295639487553290

> <PUBCHEM_SHAPE_MULTIPOLES>
299.68
7.22
2.31
1.05
8.73
0.25
0
-3.62
3.19
-2.23
0.18
-0.1
0.09
-0.6

> <PUBCHEM_SHAPE_SELFOVERLAP>
599.453

> <PUBCHEM_SHAPE_VOLUME>
178.7

> <PUBCHEM_COORDINATE_TYPE>
2
5
10

$$$$
