135537107
  -OEChem-03292013293D

 27 29  0     1  0  0  0  0  0999 V2000
    3.5276   -1.4585    0.8181 S   0  0  0  0  0  0  0  0  0  0  0  0
    2.2603    0.2011   -0.8192 O   0  0  0  0  0  0  0  0  0  0  0  0
    4.3650    1.4664    0.4840 O   0  0  0  0  0  0  0  0  0  0  0  0
   -4.3678    1.4047    0.1860 O   0  0  0  0  0  0  0  0  0  0  0  0
   -0.0348    0.1319   -0.0613 N   0  0  0  0  0  0  0  0  0  0  0  0
   -1.4317    1.8623    0.1838 N   0  0  0  0  0  0  0  0  0  0  0  0
   -1.6200   -1.6917   -0.2538 N   0  0  0  0  0  0  0  0  0  0  0  0
   -3.8713   -0.8582   -0.1028 N   0  0  0  0  0  0  0  0  0  0  0  0
    1.2678   -0.6229   -0.1830 C   0  0  2  0  0  0  0  0  0  0  0  0
    1.8148   -1.0393    1.1813 C   0  0  0  0  0  0  0  0  0  0  0  0
    3.5335   -0.4448   -0.6833 C   0  0  1  0  0  0  0  0  0  0  0  0
   -1.2951   -0.3874   -0.0989 C   0  0  0  0  0  0  0  0  0  0  0  0
    4.6144    0.6188   -0.6258 C   0  0  0  0  0  0  0  0  0  0  0  0
   -0.1692    1.4882    0.1106 C   0  0  0  0  0  0  0  0  0  0  0  0
   -2.1284    0.6972    0.0535 C   0  0  0  0  0  0  0  0  0  0  0  0
   -3.5550    0.4976    0.0590 C   0  0  0  0  0  0  0  0  0  0  0  0
   -2.9100   -1.8653   -0.2481 C   0  0  0  0  0  0  0  0  0  0  0  0
    1.0531   -1.4814   -0.8330 H   0  0  0  0  0  0  0  0  0  0  0  0
    1.8045   -0.2075    1.8930 H   0  0  0  0  0  0  0  0  0  0  0  0
    1.2649   -1.8804    1.6122 H   0  0  0  0  0  0  0  0  0  0  0  0
    3.6855   -1.0938   -1.5521 H   0  0  0  0  0  0  0  0  0  0  0  0
    4.5829    1.2386   -1.5280 H   0  0  0  0  0  0  0  0  0  0  0  0
    5.6135    0.1812   -0.5303 H   0  0  0  0  0  0  0  0  0  0  0  0
    0.6835    2.1499    0.1799 H   0  0  0  0  0  0  0  0  0  0  0  0
   -4.8525   -1.1211   -0.1152 H   0  0  0  0  0  0  0  0  0  0  0  0
   -3.3565   -2.8652   -0.3628 H   0  0  0  0  0  0  0  0  0  0  0  0
    5.0636    2.1427    0.4903 H   0  0  0  0  0  0  0  0  0  0  0  0
  1 10  1  0  0  0  0
  1 11  1  0  0  0  0
  2  9  1  0  0  0  0
  2 11  1  0  0  0  0
  3 13  1  0  0  0  0
  3 27  1  0  0  0  0
  4 16  2  0  0  0  0
  5  9  1  0  0  0  0
  5 12  1  0  0  0  0
  5 14  1  0  0  0  0
  6 14  2  0  0  0  0
  6 15  1  0  0  0  0
  7 12  1  0  0  0  0
  7 17  2  0  0  0  0
  8 16  1  0  0  0  0
  8 17  1  0  0  0  0
  8 25  1  0  0  0  0
  9 10  1  0  0  0  0
  9 18  1  0  0  0  0
 10 19  1  0  0  0  0
 10 20  1  0  0  0  0
 11 13  1  0  0  0  0
 11 21  1  0  0  0  0
 12 15  2  0  0  0  0
 13 22  1  0  0  0  0
 13 23  1  0  0  0  0
 14 24  1  0  0  0  0
 15 16  1  0  0  0  0
 17 26  1  0  0  0  0
M  END
> <PUBCHEM_COMPOUND_CID>
135537107

> <PUBCHEM_CONFORMER_RMSD>
0.6

> <PUBCHEM_CONFORMER_DIVERSEORDER>
1
45
49
6
44
20
4
47
50
46
18
32
3
48
24
41
34
22
36
33
28
31
25
2
23
40
21
11
37
19
39
30
42
35
13
29
7
43
5
38
12
26
27
8
10
9
14
16
15
17

> <PUBCHEM_MMFF94_PARTIAL_CHARGES>
21
1 -0.46
10 0.23
11 0.51
12 -0.03
13 0.28
14 0.04
15 0.14
16 0.72
17 0.45
2 -0.56
24 0.15
25 0.37
26 0.06
27 0.4
3 -0.68
4 -0.57
5 0.05
6 -0.57
7 -0.58
8 -0.49
9 0.54

> <PUBCHEM_EFFECTIVE_ROTOR_COUNT>
3

> <PUBCHEM_PHARMACOPHORE_FEATURES>
9
1 2 acceptor
1 3 acceptor
1 3 donor
1 4 acceptor
1 8 donor
3 5 6 14 cation
5 1 2 9 10 11 rings
5 5 6 12 14 15 rings
6 7 8 12 15 16 17 rings

> <PUBCHEM_HEAVY_ATOM_COUNT>
17

> <PUBCHEM_ATOM_DEF_STEREO_COUNT>
0

> <PUBCHEM_ATOM_UDEF_STEREO_COUNT>
2

> <PUBCHEM_BOND_DEF_STEREO_COUNT>
0

> <PUBCHEM_BOND_UDEF_STEREO_COUNT>
0

> <PUBCHEM_ISOTOPIC_ATOM_COUNT>
0

> <PUBCHEM_COMPONENT_COUNT>
1

> <PUBCHEM_CACTVS_TAUTO_COUNT>
-1

> <PUBCHEM_CONFORMER_ID>
081421D300000001

> <PUBCHEM_MMFF94_ENERGY>
34.7345

> <PUBCHEM_FEATURE_SELFOVERLAP>
45.816

> <PUBCHEM_SHAPE_FINGERPRINT>
10014705 185 18334292067851383037
10616163 171 18411984675866600710
11132069 177 18412262826432349476
11578080 2 17752172124762814044
12173636 292 18338794520437493149
12236239 1 18114184112136259838
12403814 3 17748825194482847909
12670545 47 16773786017721881178
13538477 17 18335417941597966542
13675066 3 17822015276543342825
13760787 19 18335140881932084206
14790565 3 18125729989419924449
15196674 1 18410575080415824759
15242433 33 18408043987516190599
15375358 24 18131352994482609143
15375462 189 18259985963712454259
15415430 112 18412265059973839383
15536298 74 18342458187987196372
15669948 3 18413383241713837311
16945 1 18342172216290171817
17804303 29 18273213110417420041
18186145 218 17458061539024473402
19050596 39 18334570227197633314
19422 9 18334012765795905610
200 152 18113617889169865030
20279233 1 16558742395706522982
20281475 54 18411410700684215947
20510252 161 18129947754366977353
20871999 31 18411414042601217679
21267235 1 18337683000118294815
22485316 2 18409446985759380526
23402539 116 18411415129291143190
23463225 33 18335417903027884283
23557571 272 18201730595257305806
23559900 14 18201442433222406102
3312278 4 18408045130109490099
34934 24 18408601461301971973
4340502 62 16733275564649005577
474 4 17677340540624348476
5104073 3 18408886221981327978
5374978 207 18410007711252156088
57096353 35 18261114105782272438
67856867 119 18334570266305850584
7364860 26 17984701374916063169
77492 1 18040718039107581078
77779 3 18412546509381108878
9709674 26 18341057336995838478

> <PUBCHEM_SHAPE_MULTIPOLES>
316.17
8.82
1.85
0.84
2.55
0.05
-0.07
-0.9
0.26
-0.52
-0.18
0.63
0.13
-0.67

> <PUBCHEM_SHAPE_SELFOVERLAP>
671.381

> <PUBCHEM_SHAPE_VOLUME>
179.2

> <PUBCHEM_COORDINATE_TYPE>
2
5
10

$$$$
