135538685
  -OEChem-03292013293D

 31 33  0     1  0  0  0  0  0999 V2000
   -5.0972    1.3076    0.3981 O   0  0  0  0  0  0  0  0  0  0  0  0
    4.4806    0.1141    0.2497 O   0  0  0  0  0  0  0  0  0  0  0  0
    0.2333   -1.4077    0.0058 N   0  0  0  0  0  0  0  0  0  0  0  0
    2.3806   -1.9868    0.2408 N   0  0  0  0  0  0  0  0  0  0  0  0
    0.4393    0.9973   -0.1751 N   0  0  0  0  0  0  0  0  0  0  0  0
    2.7410    1.6469   -0.0284 N   0  0  0  0  0  0  0  0  0  0  0  0
    1.0509    3.2619   -0.3095 N   0  0  0  0  0  0  0  0  0  0  0  0
   -1.2657   -1.5626   -0.1124 C   0  0  1  0  0  0  0  0  0  0  0  0
   -2.0448   -0.7945    0.9727 C   0  0  0  0  0  0  0  0  0  0  0  0
   -3.3361   -0.3040    0.2973 C   0  0  2  0  0  0  0  0  0  0  0  0
   -1.8502   -1.0140   -1.3809 C   0  0  0  0  0  0  0  0  0  0  0  0
   -2.9738   -0.3262   -1.1554 C   0  0  0  0  0  0  0  0  0  0  0  0
   -3.7537    1.0758    0.7849 C   0  0  0  0  0  0  0  0  0  0  0  0
    0.9474   -0.2463   -0.0280 C   0  0  0  0  0  0  0  0  0  0  0  0
    1.1396   -2.4268    0.1690 C   0  0  0  0  0  0  0  0  0  0  0  0
    2.2572   -0.6344    0.1182 C   0  0  0  0  0  0  0  0  0  0  0  0
    3.2887    0.3656    0.1252 C   0  0  0  0  0  0  0  0  0  0  0  0
    1.3628    1.9341   -0.1722 C   0  0  0  0  0  0  0  0  0  0  0  0
   -1.4580   -2.6406   -0.0496 H   0  0  0  0  0  0  0  0  0  0  0  0
   -1.4713    0.0445    1.3837 H   0  0  0  0  0  0  0  0  0  0  0  0
   -2.2743   -1.4502    1.8212 H   0  0  0  0  0  0  0  0  0  0  0  0
   -4.1490   -1.0233    0.4604 H   0  0  0  0  0  0  0  0  0  0  0  0
   -1.4325   -1.1862   -2.3628 H   0  0  0  0  0  0  0  0  0  0  0  0
   -3.5751    0.1185   -1.9358 H   0  0  0  0  0  0  0  0  0  0  0  0
   -3.1212    1.8692    0.3718 H   0  0  0  0  0  0  0  0  0  0  0  0
   -3.7098    1.1258    1.8781 H   0  0  0  0  0  0  0  0  0  0  0  0
    0.8372   -3.4634    0.2283 H   0  0  0  0  0  0  0  0  0  0  0  0
   -5.3424    2.1888    0.7279 H   0  0  0  0  0  0  0  0  0  0  0  0
    3.3859    2.4319   -0.0372 H   0  0  0  0  0  0  0  0  0  0  0  0
    0.0897    3.5666   -0.4183 H   0  0  0  0  0  0  0  0  0  0  0  0
    1.7697    3.9773   -0.3062 H   0  0  0  0  0  0  0  0  0  0  0  0
  1 13  1  0  0  0  0
  1 28  1  0  0  0  0
  2 17  2  0  0  0  0
  3  8  1  0  0  0  0
  3 14  1  0  0  0  0
  3 15  1  0  0  0  0
  4 15  2  0  0  0  0
  4 16  1  0  0  0  0
  5 14  1  0  0  0  0
  5 18  2  0  0  0  0
  6 17  1  0  0  0  0
  6 18  1  0  0  0  0
  6 29  1  0  0  0  0
  7 18  1  0  0  0  0
  7 30  1  0  0  0  0
  7 31  1  0  0  0  0
  8  9  1  0  0  0  0
  8 11  1  0  0  0  0
  8 19  1  0  0  0  0
  9 10  1  0  0  0  0
  9 20  1  0  0  0  0
  9 21  1  0  0  0  0
 10 12  1  0  0  0  0
 10 13  1  0  0  0  0
 10 22  1  0  0  0  0
 11 12  2  0  0  0  0
 11 23  1  0  0  0  0
 12 24  1  0  0  0  0
 13 25  1  0  0  0  0
 13 26  1  0  0  0  0
 14 16  2  0  0  0  0
 15 27  1  0  0  0  0
 16 17  1  0  0  0  0
M  END
> <PUBCHEM_COMPOUND_CID>
135538685

> <PUBCHEM_CONFORMER_RMSD>
0.6

> <PUBCHEM_CONFORMER_DIVERSEORDER>
1
2
8
9
3
5
6
7
4
10

> <PUBCHEM_MMFF94_PARTIAL_CHARGES>
24
1 -0.68
10 0.14
11 -0.29
12 -0.29
13 0.28
14 -0.03
15 0.04
16 0.14
17 0.72
18 0.56
2 -0.57
23 0.15
24 0.15
27 0.15
28 0.4
29 0.37
3 0.05
30 0.4
31 0.4
4 -0.57
5 -0.58
6 -0.49
7 -0.85
8 0.39

> <PUBCHEM_EFFECTIVE_ROTOR_COUNT>
2.6

> <PUBCHEM_PHARMACOPHORE_FEATURES>
9
1 1 acceptor
1 1 donor
1 2 acceptor
1 6 donor
1 7 donor
3 3 4 15 cation
5 3 4 14 15 16 rings
5 8 9 10 11 12 rings
6 5 6 14 16 17 18 rings

> <PUBCHEM_HEAVY_ATOM_COUNT>
18

> <PUBCHEM_ATOM_DEF_STEREO_COUNT>
2

> <PUBCHEM_ATOM_UDEF_STEREO_COUNT>
0

> <PUBCHEM_BOND_DEF_STEREO_COUNT>
0

> <PUBCHEM_BOND_UDEF_STEREO_COUNT>
0

> <PUBCHEM_ISOTOPIC_ATOM_COUNT>
0

> <PUBCHEM_COMPONENT_COUNT>
1

> <PUBCHEM_CACTVS_TAUTO_COUNT>
-1

> <PUBCHEM_CONFORMER_ID>
081427FD00000001

> <PUBCHEM_MMFF94_ENERGY>
36.264

> <PUBCHEM_FEATURE_SELFOVERLAP>
45.85

> <PUBCHEM_SHAPE_FINGERPRINT>
104564 63 18267868285457903468
10967382 1 18409729538952217518
10980938 120 18409448068101948471
11471102 20 18408881811097529863
11640471 11 17918001568106843515
12633257 1 17821720658898115801
13132413 78 18341895177587806284
13140716 1 18264205992445525224
14178342 30 18268974552874388898
14790565 3 18336274547736462300
15442244 35 18196655098927372459
15775835 57 18131353003441685179
1601671 61 18409171000173075252
16945 1 18336539512510149214
18186145 218 18339923839428245630
18219364 16 18113890581165153127
19049666 15 17532641344006382791
20645476 183 17988638614829058855
21041028 32 18047185246248402026
21639500 275 18265036093538353839
21665062 11 18337966588355935409
22094290 62 18412826867645054665
2334 1 17760082217602391694
23402539 116 18272646866503741958
23557571 272 16630524076934894535
23559900 14 15913328001135014230
23598291 2 18130210572111444303
25 1 18334575754456643530
2748010 2 18121485874419696558
350125 39 17975420431483118002
474 4 18409727383047479091
633830 44 18340772641025063092
74978 22 18194399120221303894
77492 1 17917706911712308671
7832392 63 18342174483553005671
84936 182 17986104347384395808
9981440 41 17118585412609274088

> <PUBCHEM_SHAPE_MULTIPOLES>
333.79
7.18
2.57
0.91
3.44
1.03
0.16
2.33
-1.05
-1.19
0.07
0.74
-0.13
-0.64

> <PUBCHEM_SHAPE_SELFOVERLAP>
727.924

> <PUBCHEM_SHAPE_VOLUME>
182

> <PUBCHEM_COORDINATE_TYPE>
2
5
10

$$$$
