135527046
  -OEChem-03292013293D

 32 34  0     0  0  0  0  0  0999 V2000
    4.2755    1.7740   -0.0775 O   0  0  0  0  0  0  0  0  0  0  0  0
    3.0311   -1.6717    0.8382 O   0  0  0  0  0  0  0  0  0  0  0  0
    4.0068   -1.0156   -1.1408 O   0  0  0  0  0  0  0  0  0  0  0  0
   -5.2010    0.7296   -0.4779 O   0  0  0  0  0  0  0  0  0  0  0  0
   -3.7260    2.0000    0.6956 O   0  0  0  0  0  0  0  0  0  0  0  0
    0.4199   -1.0451   -0.1423 N   0  0  0  0  0  0  0  0  0  0  0  0
   -1.1949    1.1773    0.0565 N   0  0  0  0  0  0  0  0  0  0  0  0
    0.9605    0.1820   -0.0781 C   0  0  0  0  0  0  0  0  0  0  0  0
    0.1405    1.3106    0.0229 C   0  0  0  0  0  0  0  0  0  0  0  0
   -1.7354   -0.0498   -0.0074 C   0  0  0  0  0  0  0  0  0  0  0  0
   -0.9154   -1.1784   -0.1087 C   0  0  0  0  0  0  0  0  0  0  0  0
    2.3436    0.3475   -0.1109 C   0  0  0  0  0  0  0  0  0  0  0  0
   -3.1186   -0.2151    0.0258 C   0  0  0  0  0  0  0  0  0  0  0  0
    0.7262    2.5733    0.0879 C   0  0  0  0  0  0  0  0  0  0  0  0
    2.9234    1.6131   -0.0454 C   0  0  0  0  0  0  0  0  0  0  0  0
   -1.5013   -2.4410   -0.1740 C   0  0  0  0  0  0  0  0  0  0  0  0
    2.1104    2.7321    0.0542 C   0  0  0  0  0  0  0  0  0  0  0  0
   -3.6986   -1.4807   -0.0397 C   0  0  0  0  0  0  0  0  0  0  0  0
   -2.8855   -2.5996   -0.1403 C   0  0  0  0  0  0  0  0  0  0  0  0
    3.2122   -0.8227   -0.2162 C   0  0  0  0  0  0  0  0  0  0  0  0
   -4.0028    0.9402    0.1296 C   0  0  0  0  0  0  0  0  0  0  0  0
    3.8294   -2.8600    0.8486 C   0  0  0  0  0  0  0  0  0  0  0  0
    0.0981    3.4584    0.1665 H   0  0  0  0  0  0  0  0  0  0  0  0
   -0.8733   -3.3263   -0.2522 H   0  0  0  0  0  0  0  0  0  0  0  0
    2.5410    3.7279    0.1065 H   0  0  0  0  0  0  0  0  0  0  0  0
   -4.7745   -1.6258   -0.0004 H   0  0  0  0  0  0  0  0  0  0  0  0
   -3.3220   -3.5924   -0.1889 H   0  0  0  0  0  0  0  0  0  0  0  0
    4.7228    0.9150   -0.1400 H   0  0  0  0  0  0  0  0  0  0  0  0
    3.5773   -3.4315    1.7457 H   0  0  0  0  0  0  0  0  0  0  0  0
    4.8917   -2.6007    0.8824 H   0  0  0  0  0  0  0  0  0  0  0  0
    3.6080   -3.4703   -0.0319 H   0  0  0  0  0  0  0  0  0  0  0  0
   -5.7904    1.5103   -0.4039 H   0  0  0  0  0  0  0  0  0  0  0  0
  1 15  1  0  0  0  0
  1 28  1  0  0  0  0
  2 20  1  0  0  0  0
  2 22  1  0  0  0  0
  3 20  2  0  0  0  0
  4 21  1  0  0  0  0
  4 32  1  0  0  0  0
  5 21  2  0  0  0  0
  6  8  2  0  0  0  0
  6 11  1  0  0  0  0
  7  9  2  0  0  0  0
  7 10  1  0  0  0  0
  8  9  1  0  0  0  0
  8 12  1  0  0  0  0
  9 14  1  0  0  0  0
 10 11  1  0  0  0  0
 10 13  2  0  0  0  0
 11 16  2  0  0  0  0
 12 15  2  0  0  0  0
 12 20  1  0  0  0  0
 13 18  1  0  0  0  0
 13 21  1  0  0  0  0
 14 17  2  0  0  0  0
 14 23  1  0  0  0  0
 15 17  1  0  0  0  0
 16 19  1  0  0  0  0
 16 24  1  0  0  0  0
 17 25  1  0  0  0  0
 18 19  2  0  0  0  0
 18 26  1  0  0  0  0
 19 27  1  0  0  0  0
 22 29  1  0  0  0  0
 22 30  1  0  0  0  0
 22 31  1  0  0  0  0
M  END
> <PUBCHEM_COMPOUND_CID>
135527046

> <PUBCHEM_CONFORMER_RMSD>
0.6

> <PUBCHEM_CONFORMER_DIVERSEORDER>
1
4
5
6
2
3

> <PUBCHEM_MMFF94_PARTIAL_CHARGES>
29
1 -0.53
10 0.31
11 0.31
12 0.09
13 0.09
14 -0.15
15 0.08
16 -0.15
17 -0.15
18 -0.15
19 -0.15
2 -0.43
20 0.63
21 0.63
22 0.28
23 0.15
24 0.15
25 0.15
26 0.15
27 0.15
28 0.45
3 -0.57
32 0.5
4 -0.65
5 -0.57
6 -0.62
7 -0.62
8 0.31
9 0.31

> <PUBCHEM_EFFECTIVE_ROTOR_COUNT>
3

> <PUBCHEM_PHARMACOPHORE_FEATURES>
10
1 1 donor
1 3 acceptor
1 4 acceptor
1 5 acceptor
1 6 acceptor
1 7 acceptor
3 4 5 21 anion
6 10 11 13 16 18 19 rings
6 6 7 8 9 10 11 rings
6 8 9 12 14 15 17 rings

> <PUBCHEM_HEAVY_ATOM_COUNT>
22

> <PUBCHEM_ATOM_DEF_STEREO_COUNT>
0

> <PUBCHEM_ATOM_UDEF_STEREO_COUNT>
0

> <PUBCHEM_BOND_DEF_STEREO_COUNT>
0

> <PUBCHEM_BOND_UDEF_STEREO_COUNT>
0

> <PUBCHEM_ISOTOPIC_ATOM_COUNT>
0

> <PUBCHEM_COMPONENT_COUNT>
1

> <PUBCHEM_CACTVS_TAUTO_COUNT>
-1

> <PUBCHEM_CONFORMER_ID>
0813FA8600000001

> <PUBCHEM_MMFF94_ENERGY>
78.0595

> <PUBCHEM_FEATURE_SELFOVERLAP>
50.887

> <PUBCHEM_SHAPE_FINGERPRINT>
10062212 137 18272364270240211519
10608611 8 18268710695995606497
10616163 171 18196656408850394607
10967382 1 18411138000272625125
1100329 8 16898213037205756429
11578080 2 16986861579002190843
116883 192 18200323095761808668
12107183 9 18122907529927000121
12403260 363 18341605980892692277
12507560 14 18269269080124258230
12553582 1 18337950070112395702
12633257 1 18340208470963442471
12788726 201 18058457499876184400
13140716 1 18411697664597255250
13583140 156 18040727965209402531
14178342 30 18124016095440820368
14223421 5 18194967580512309859
14790565 3 18123768455916728824
14866123 147 17623019992591151738
15042514 8 17543905712190325538
15099037 51 18338798905852212303
15196674 1 18411419539863820791
15442244 35 18411418410123800707
15475509 8 17699032602974071348
15536298 74 18342177803752551492
16945 1 18337383842602600653
17349148 13 17988360382367507215
17492 89 18339079405713980955
17804303 29 18410862048903477615
1813 80 17240761753465816244
18186145 218 18261107482710300893
19591789 44 18193557757592466805
20510252 161 18199192974176277795
20645477 70 18342740732109966886
20691752 17 17676200303583557666
21267235 1 18267314315932905982
21421861 104 18041548158097593864
21501502 16 18339641243254177935
21521239 73 18200572784355462255
21859007 373 17680400309132343701
221490 88 18265623254291046162
2334 1 18339922748105697119
23366157 5 18115024224935161292
23559900 14 18272090500497711110
3004659 81 18115594738711463718
335352 9 18339361859995002175
34934 24 18340483460845465332
350125 39 18411143575994704737
3545911 37 18340490079242609189
4214541 1 18411420656639765749
495365 180 17417518211506821408
5104073 3 18411983580907799643
543358 83 18410014338386589592
7097593 13 18409161121484680266
7364860 26 18270402836016869684
74978 22 18411701014840479403
7832392 63 18410855481655758824
9709674 26 18267308822659301847
9981440 41 17759517064289108872

> <PUBCHEM_SHAPE_MULTIPOLES>
413.44
8.58
3.3
0.73
2.39
0.46
0
0.63
-0.13
-1.4
0.43
-0.28
0.16
-0.65

> <PUBCHEM_SHAPE_SELFOVERLAP>
932.271

> <PUBCHEM_SHAPE_VOLUME>
216.7

> <PUBCHEM_COORDINATE_TYPE>
2
5
10

$$$$
