135508389
  -OEChem-03292013293D

 31 33  0     0  0  0  0  0  0999 V2000
   -0.6066   -1.3091    0.6018 S   0  0  0  0  0  0  0  0  0  0  0  0
    7.2739    0.7434   -0.3875 F   0  0  0  0  0  0  0  0  0  0  0  0
   -3.0734    1.9816    1.1316 O   0  0  0  0  0  0  0  0  0  0  0  0
   -7.0800   -0.2470   -0.1525 O   0  0  0  0  0  0  0  0  0  0  0  0
    2.0367   -0.9662    0.4597 N   0  0  0  0  0  0  0  0  0  0  0  0
   -0.7478    0.9345   -0.6276 N   0  0  0  0  0  0  0  0  0  0  0  0
    0.6030    0.6814   -0.4666 N   0  0  0  0  0  0  0  0  0  0  0  0
   -2.9330   -0.0681   -0.1168 C   0  0  0  0  0  0  0  0  0  0  0  0
   -1.4889   -0.0249   -0.1157 C   0  0  0  0  0  0  0  0  0  0  0  0
   -3.6796    0.9330    0.5048 C   0  0  0  0  0  0  0  0  0  0  0  0
    3.3939   -0.5228    0.2404 C   0  0  0  0  0  0  0  0  0  0  0  0
   -3.5800   -1.1288   -0.7508 C   0  0  0  0  0  0  0  0  0  0  0  0
    0.8147   -0.4563    0.1598 C   0  0  0  0  0  0  0  0  0  0  0  0
   -5.0731    0.8729    0.4926 C   0  0  0  0  0  0  0  0  0  0  0  0
   -4.9735   -1.1890   -0.7627 C   0  0  0  0  0  0  0  0  0  0  0  0
   -5.7201   -0.1880   -0.1410 C   0  0  0  0  0  0  0  0  0  0  0  0
    4.4624   -1.3014    0.6854 C   0  0  0  0  0  0  0  0  0  0  0  0
    3.6362    0.6839   -0.4165 C   0  0  0  0  0  0  0  0  0  0  0  0
    5.7730   -0.8736    0.4733 C   0  0  0  0  0  0  0  0  0  0  0  0
    4.9469    1.1116   -0.6282 C   0  0  0  0  0  0  0  0  0  0  0  0
    6.0153    0.3329   -0.1834 C   0  0  0  0  0  0  0  0  0  0  0  0
   -3.0215   -1.9160   -1.2521 H   0  0  0  0  0  0  0  0  0  0  0  0
    2.0313   -1.8599    0.9488 H   0  0  0  0  0  0  0  0  0  0  0  0
   -5.6570    1.6522    0.9766 H   0  0  0  0  0  0  0  0  0  0  0  0
   -5.4720   -2.0166   -1.2598 H   0  0  0  0  0  0  0  0  0  0  0  0
    4.2881   -2.2436    1.1985 H   0  0  0  0  0  0  0  0  0  0  0  0
    2.8421    1.3241   -0.7809 H   0  0  0  0  0  0  0  0  0  0  0  0
    6.6051   -1.4796    0.8194 H   0  0  0  0  0  0  0  0  0  0  0  0
    5.1367    2.0508   -1.1396 H   0  0  0  0  0  0  0  0  0  0  0  0
   -3.7541    2.5699    1.5011 H   0  0  0  0  0  0  0  0  0  0  0  0
   -7.4334    0.5246    0.3226 H   0  0  0  0  0  0  0  0  0  0  0  0
  1  9  1  0  0  0  0
  1 13  1  0  0  0  0
  2 21  1  0  0  0  0
  3 10  1  0  0  0  0
  3 30  1  0  0  0  0
  4 16  1  0  0  0  0
  4 31  1  0  0  0  0
  5 11  1  0  0  0  0
  5 13  1  0  0  0  0
  5 23  1  0  0  0  0
  6  7  1  0  0  0  0
  6  9  2  0  0  0  0
  7 13  2  0  0  0  0
  8  9  1  0  0  0  0
  8 10  2  0  0  0  0
  8 12  1  0  0  0  0
 10 14  1  0  0  0  0
 11 17  2  0  0  0  0
 11 18  1  0  0  0  0
 12 15  2  0  0  0  0
 12 22  1  0  0  0  0
 14 16  2  0  0  0  0
 14 24  1  0  0  0  0
 15 16  1  0  0  0  0
 15 25  1  0  0  0  0
 17 19  1  0  0  0  0
 17 26  1  0  0  0  0
 18 20  2  0  0  0  0
 18 27  1  0  0  0  0
 19 21  2  0  0  0  0
 19 28  1  0  0  0  0
 20 21  1  0  0  0  0
 20 29  1  0  0  0  0
M  END
> <PUBCHEM_COMPOUND_CID>
135508389

> <PUBCHEM_CONFORMER_RMSD>
0.6

> <PUBCHEM_CONFORMER_DIVERSEORDER>
1
32
37
40
25
19
3
44
12
4
31
15
6
13
14
5
18
42
2
9
41
20
17
26
10
38
22
43
11
16
7
21
8
28
27
39
36
29
33
30
23
34
35
24

> <PUBCHEM_MMFF94_PARTIAL_CHARGES>
31
1 -0.08
10 0.08
11 0.1
12 -0.15
13 0.46
14 -0.15
15 -0.15
16 0.08
17 -0.15
18 -0.15
19 -0.15
2 -0.19
20 -0.15
21 0.19
22 0.15
23 0.4
24 0.15
25 0.15
26 0.15
27 0.15
28 0.15
29 0.15
3 -0.53
30 0.45
31 0.45
4 -0.53
5 -0.58
6 -0.34
7 -0.34
8 0.05
9 0.33

> <PUBCHEM_EFFECTIVE_ROTOR_COUNT>
3

> <PUBCHEM_PHARMACOPHORE_FEATURES>
8
1 3 donor
1 4 donor
1 5 donor
1 6 acceptor
3 5 7 13 cation
5 1 6 7 9 13 rings
6 11 17 18 19 20 21 rings
6 8 10 12 14 15 16 rings

> <PUBCHEM_HEAVY_ATOM_COUNT>
21

> <PUBCHEM_ATOM_DEF_STEREO_COUNT>
0

> <PUBCHEM_ATOM_UDEF_STEREO_COUNT>
0

> <PUBCHEM_BOND_DEF_STEREO_COUNT>
0

> <PUBCHEM_BOND_UDEF_STEREO_COUNT>
0

> <PUBCHEM_ISOTOPIC_ATOM_COUNT>
0

> <PUBCHEM_COMPONENT_COUNT>
1

> <PUBCHEM_CACTVS_TAUTO_COUNT>
-1

> <PUBCHEM_CONFORMER_ID>
0813B1A500000001

> <PUBCHEM_MMFF94_ENERGY>
58.5177

> <PUBCHEM_FEATURE_SELFOVERLAP>
40.597

> <PUBCHEM_SHAPE_FINGERPRINT>
10 15 15357697526911061508
10299344 5 18412262835133352726
10595046 47 18412824677058999786
10912923 1 18410290281440317586
10968037 39 18411980274226040623
11045977 3 14129350619122419764
11315181 36 18412265056211498649
11524674 6 15123507034446011711
12107183 9 17620476805069160138
12166972 35 18260550043126801484
12236239 1 18410292493000146051
12516196 113 18113616793969100548
13167372 99 18335138640291582016
13288520 33 18131631206085910887
13533116 47 16515954875279199738
13631057 29 18115870870749072875
14123256 10 18410012147599840758
1420 363 16515685532999549878
14251764 18 18411418414387099930
14251764 46 17313101960187956015
14528608 73 18410856585910766358
14933364 13 17775004600562730616
15183329 4 18272653445797598906
15716309 27 18408038498484832195
15788980 27 15140682487870977770
17834072 33 18413106173320434896
17844677 252 16988562420200154976
18927931 339 17704068521755294103
19489759 90 17489590056425409947
20281389 69 18040431097043684676
21033648 29 16733530710932963780
21033650 10 17914364340840531112
21065198 48 18339360760235454394
21236236 1 18040711416695597469
21267235 1 18411142436968554127
220451 1 18060137634926076934
2297311 6 17346882252065713161
23035841 295 18343863320934672939
23402539 116 18343860026699798103
23536379 177 18273496758384020138
23559900 14 18200021979931425465
3004659 81 18340770356545994926
34797466 226 17203614817345868924
4073 2 17822579403735041978
4325135 7 18410855464760804502
4340502 62 15213016042363854362
4463277 17 18260545615210009341
5104073 3 17968658328410159528
542803 24 18342737412464100602
54446538 1 18412826884730420080
59755656 215 15985109604114822358
59755656 520 17822006536797235427
6327066 14 18050284766203592645
67856867 119 18340487888777899797

> <PUBCHEM_SHAPE_MULTIPOLES>
402.06
18.04
1.41
0.86
6.94
0.08
0.04
0.95
-1.12
-0.08
0.17
-0.25
0.04
-1.52

> <PUBCHEM_SHAPE_SELFOVERLAP>
870.019

> <PUBCHEM_SHAPE_VOLUME>
224.1

> <PUBCHEM_COORDINATE_TYPE>
2
5
10

$$$$
