135568382
  -OEChem-03292013293D

 54 57  0     1  0  0  0  0  0999 V2000
   -4.3538    0.8547    0.2758 O   0  0  0  0  0  0  0  0  0  0  0  0
   -2.4478    2.3723   -1.0159 O   0  0  0  0  0  0  0  0  0  0  0  0
   -2.7847   -1.6868    0.5578 O   0  0  0  0  0  0  0  0  0  0  0  0
   -0.5372    2.3145    2.0492 O   0  0  0  0  0  0  0  0  0  0  0  0
    2.2633    2.4604    0.8351 O   0  0  0  0  0  0  0  0  0  0  0  0
    2.8996   -2.6467   -0.7191 O   0  0  0  0  0  0  0  0  0  0  0  0
   -4.6082   -1.7298   -0.8552 O   0  0  0  0  0  0  0  0  0  0  0  0
   -2.3985    4.6331   -0.5436 O   0  0  0  0  0  0  0  0  0  0  0  0
    5.4698   -2.4078   -0.6736 O   0  0  0  0  0  0  0  0  0  0  0  0
   -0.1637   -2.6070   -0.7019 N   0  3  0  0  0  0  0  0  0  0  0  0
   -0.4112   -3.6738   -1.0439 N   0  5  0  0  0  0  0  0  0  0  0  0
   -2.9958    0.7467    0.7255 C   0  0  2  0  0  0  0  0  0  0  0  0
   -2.2594    2.0718    0.3730 C   0  0  1  0  0  0  0  0  0  0  0  0
   -2.3576   -0.4563   -0.0202 C   0  0  1  0  0  0  0  0  0  0  0  0
   -0.7406    2.0329    0.6668 C   0  0  2  0  0  0  0  0  0  0  0  0
   -0.8755   -0.3742    0.0130 C   0  0  0  0  0  0  0  0  0  0  0  0
   -0.1370    0.7014    0.3294 C   0  0  0  0  0  0  0  0  0  0  0  0
    1.2709    0.3989    0.2236 C   0  0  0  0  0  0  0  0  0  0  0  0
   -3.0548    0.5288    2.2474 C   0  0  0  0  0  0  0  0  0  0  0  0
    0.1184   -1.3886   -0.3112 C   0  0  0  0  0  0  0  0  0  0  0  0
    1.4692   -0.8644   -0.1608 C   0  0  0  0  0  0  0  0  0  0  0  0
    2.4120    1.2984    0.4811 C   0  0  0  0  0  0  0  0  0  0  0  0
    2.7784   -1.4828   -0.3645 C   0  0  0  0  0  0  0  0  0  0  0  0
    3.7689    0.7245    0.2916 C   0  0  0  0  0  0  0  0  0  0  0  0
    3.9451   -0.6072   -0.1132 C   0  0  0  0  0  0  0  0  0  0  0  0
   -3.9363   -2.2196    0.0420 C   0  0  0  0  0  0  0  0  0  0  0  0
   -2.4980    3.6992   -1.3278 C   0  0  0  0  0  0  0  0  0  0  0  0
    5.2347   -1.1226   -0.2842 C   0  0  0  0  0  0  0  0  0  0  0  0
    4.8883    1.5326    0.5231 C   0  0  0  0  0  0  0  0  0  0  0  0
   -4.2488   -3.5130    0.7575 C   0  0  0  0  0  0  0  0  0  0  0  0
   -2.6977    3.8608   -2.8043 C   0  0  0  0  0  0  0  0  0  0  0  0
    6.3448   -0.3103   -0.0516 C   0  0  0  0  0  0  0  0  0  0  0  0
    6.1721    1.0131    0.3507 C   0  0  0  0  0  0  0  0  0  0  0  0
   -5.5286   -4.1530    0.2484 C   0  0  0  0  0  0  0  0  0  0  0  0
   -2.7347    2.8614    0.9719 H   0  0  0  0  0  0  0  0  0  0  0  0
   -2.6454   -0.4269   -1.0806 H   0  0  0  0  0  0  0  0  0  0  0  0
   -0.2329    2.8128    0.0876 H   0  0  0  0  0  0  0  0  0  0  0  0
   -3.4363    1.4238    2.7525 H   0  0  0  0  0  0  0  0  0  0  0  0
   -2.0792    0.2822    2.6755 H   0  0  0  0  0  0  0  0  0  0  0  0
   -3.7530   -0.2766    2.5032 H   0  0  0  0  0  0  0  0  0  0  0  0
   -4.7528    1.6266    0.7125 H   0  0  0  0  0  0  0  0  0  0  0  0
   -0.8713    3.2118    2.2185 H   0  0  0  0  0  0  0  0  0  0  0  0
    4.7829    2.5675    0.8374 H   0  0  0  0  0  0  0  0  0  0  0  0
   -3.4121   -4.2029    0.6062 H   0  0  0  0  0  0  0  0  0  0  0  0
   -4.3504   -3.3006    1.8270 H   0  0  0  0  0  0  0  0  0  0  0  0
   -1.8602    3.4101   -3.3427 H   0  0  0  0  0  0  0  0  0  0  0  0
   -2.7377    4.9257   -3.0506 H   0  0  0  0  0  0  0  0  0  0  0  0
   -3.6418    3.3984   -3.1033 H   0  0  0  0  0  0  0  0  0  0  0  0
    7.3500   -0.7027   -0.1818 H   0  0  0  0  0  0  0  0  0  0  0  0
    7.0392    1.6420    0.5309 H   0  0  0  0  0  0  0  0  0  0  0  0
   -5.7288   -5.0849    0.7859 H   0  0  0  0  0  0  0  0  0  0  0  0
   -5.4554   -4.3825   -0.8198 H   0  0  0  0  0  0  0  0  0  0  0  0
   -6.3850   -3.4853    0.3894 H   0  0  0  0  0  0  0  0  0  0  0  0
    4.6381   -2.8868   -0.8050 H   0  0  0  0  0  0  0  0  0  0  0  0
  1 12  1  0  0  0  0
  1 41  1  0  0  0  0
  2 13  1  0  0  0  0
  2 27  1  0  0  0  0
  3 14  1  0  0  0  0
  3 26  1  0  0  0  0
  4 15  1  0  0  0  0
  4 42  1  0  0  0  0
  5 22  2  0  0  0  0
  6 23  2  0  0  0  0
  7 26  2  0  0  0  0
  8 27  2  0  0  0  0
  9 28  1  0  0  0  0
  9 54  1  0  0  0  0
 10 11  2  0  0  0  0
 10 20  2  0  0  0  0
 12 13  1  0  0  0  0
 12 14  1  0  0  0  0
 12 19  1  0  0  0  0
 13 15  1  0  0  0  0
 13 35  1  0  0  0  0
 14 16  1  0  0  0  0
 14 36  1  0  0  0  0
 15 17  1  0  0  0  0
 15 37  1  0  0  0  0
 16 17  2  0  0  0  0
 16 20  1  0  0  0  0
 17 18  1  0  0  0  0
 18 21  2  0  0  0  0
 18 22  1  0  0  0  0
 19 38  1  0  0  0  0
 19 39  1  0  0  0  0
 19 40  1  0  0  0  0
 20 21  1  0  0  0  0
 21 23  1  0  0  0  0
 22 24  1  0  0  0  0
 23 25  1  0  0  0  0
 24 25  2  0  0  0  0
 24 29  1  0  0  0  0
 25 28  1  0  0  0  0
 26 30  1  0  0  0  0
 27 31  1  0  0  0  0
 28 32  2  0  0  0  0
 29 33  2  0  0  0  0
 29 43  1  0  0  0  0
 30 34  1  0  0  0  0
 30 44  1  0  0  0  0
 30 45  1  0  0  0  0
 31 46  1  0  0  0  0
 31 47  1  0  0  0  0
 31 48  1  0  0  0  0
 32 33  1  0  0  0  0
 32 49  1  0  0  0  0
 33 50  1  0  0  0  0
 34 51  1  0  0  0  0
 34 52  1  0  0  0  0
 34 53  1  0  0  0  0
M  CHG  2  10   1  11  -1
M  END
> <PUBCHEM_COMPOUND_CID>
135568382

> <PUBCHEM_CONFORMER_RMSD>
0.8

> <PUBCHEM_CONFORMER_DIVERSEORDER>
1
2
4
3

> <PUBCHEM_MMFF94_PARTIAL_CHARGES>
38
1 -0.68
10 0.36
11 -0.37
12 0.28
13 0.28
14 0.42
15 0.42
16 -0.12
17 -0.14
18 0.01
2 -0.43
20 -0.02
21 0.03
22 0.47
23 0.47
24 0.09
25 0.09
26 0.66
27 0.66
28 0.08
29 -0.15
3 -0.43
30 0.06
31 0.06
32 -0.15
33 -0.15
4 -0.68
41 0.4
42 0.4
43 0.15
49 0.15
5 -0.57
50 0.15
54 0.45
6 -0.57
7 -0.57
8 -0.57
9 -0.53

> <PUBCHEM_EFFECTIVE_ROTOR_COUNT>
5.8

> <PUBCHEM_PHARMACOPHORE_FEATURES>
15
1 1 acceptor
1 1 donor
1 10 acceptor
1 34 hydrophobe
1 4 acceptor
1 4 donor
1 5 acceptor
1 6 acceptor
1 7 acceptor
1 8 acceptor
1 9 donor
5 16 17 18 20 21 rings
6 12 13 14 15 16 17 rings
6 18 21 22 23 24 25 rings
6 24 25 28 29 32 33 rings

> <PUBCHEM_HEAVY_ATOM_COUNT>
34

> <PUBCHEM_ATOM_DEF_STEREO_COUNT>
4

> <PUBCHEM_ATOM_UDEF_STEREO_COUNT>
0

> <PUBCHEM_BOND_DEF_STEREO_COUNT>
0

> <PUBCHEM_BOND_UDEF_STEREO_COUNT>
1

> <PUBCHEM_ISOTOPIC_ATOM_COUNT>
0

> <PUBCHEM_COMPONENT_COUNT>
1

> <PUBCHEM_CACTVS_TAUTO_COUNT>
-1

> <PUBCHEM_CONFORMER_ID>
08149BFE00000001

> <PUBCHEM_MMFF94_ENERGY>
87.8898

> <PUBCHEM_FEATURE_SELFOVERLAP>
76.284

> <PUBCHEM_SHAPE_FINGERPRINT>
10411042 1 18265336299400575339
10688039 33 18263362654047199391
11578080 2 17607243165080095574
12403259 226 18340767143024052585
12788726 201 18187633739070686931
13140716 1 18200888300462446611
14713325 29 18335978697160781373
15196674 1 18343586244146813898
15361156 5 18115608014017044832
16087824 20 18336546029130902877
17492 89 18341898468171441726
17899979 129 17109016938665775893
18608769 82 18269837683035525434
19591789 44 18343585174409995218
21033648 144 18339922619267234540
21033648 29 18341037520444113264
21033650 10 16950828268331216455
21049683 271 18050010187983652796
21236236 1 18272374187082386115
21267235 1 18271535311650914002
21641784 216 18190194540470104340
22393880 68 18265050237387749310
23559900 14 18341887506670662537
24771750 20 16454330890574843341
32027 91 17838336281856439270
3380486 145 18337689572051306489
350125 39 18271811258450430746
469060 322 18264500631692001755
508706 21 18336819806149320652
5104073 3 18201721747825572010
550186 72 18409451414272427628
6677587 24 15366083269909576205

> <PUBCHEM_SHAPE_MULTIPOLES>
636.92
12.18
5.18
1.38
12.16
1.35
-0.16
-6.78
0.24
-7.82
-2.26
-1.34
1.33
2.28

> <PUBCHEM_SHAPE_SELFOVERLAP>
1410.452

> <PUBCHEM_SHAPE_VOLUME>
335.9

> <PUBCHEM_COORDINATE_TYPE>
2
5
10

$$$$
