135565050
  -OEChem-03292013293D

 57 59  0     1  0  0  0  0  0999 V2000
    2.7710    2.6448    0.0135 O   0  0  0  0  0  0  0  0  0  0  0  0
    5.7985   -0.6321    2.1449 O   0  0  0  0  0  0  0  0  0  0  0  0
    8.6600   -2.7897   -0.1609 O   0  0  0  0  0  0  0  0  0  0  0  0
    6.3662   -2.8289    0.0844 O   0  0  0  0  0  0  0  0  0  0  0  0
   -9.0384   -0.7568    1.7689 O   0  0  0  0  0  0  0  0  0  0  0  0
   -9.2644   -1.6668   -0.3271 O   0  0  0  0  0  0  0  0  0  0  0  0
    5.0554    1.4040    1.2624 N   0  0  0  0  0  0  0  0  0  0  0  0
   -7.2736   -0.6664    0.3712 N   0  0  0  0  0  0  0  0  0  0  0  0
   -6.8556   -1.3719   -1.8468 N   0  0  0  0  0  0  0  0  0  0  0  0
    6.2017   -0.0299   -0.1892 C   0  0  2  0  0  0  0  0  0  0  0  0
    5.0969    2.0993   -0.0012 C   0  0  1  0  0  0  0  0  0  0  0  0
    6.2451    1.4052   -0.7264 C   0  0  0  0  0  0  0  0  0  0  0  0
    5.6939    0.1670    1.2271 C   0  0  0  0  0  0  0  0  0  0  0  0
    7.5466   -0.7289   -0.2413 C   0  0  0  0  0  0  0  0  0  0  0  0
    3.7708    1.9821   -0.7405 C   0  0  0  0  0  0  0  0  0  0  0  0
    7.4176   -2.2267   -0.0841 C   0  0  0  0  0  0  0  0  0  0  0  0
    1.4899    2.1633   -0.0922 C   0  0  0  0  0  0  0  0  0  0  0  0
    0.6100    2.2813    0.9837 C   0  0  0  0  0  0  0  0  0  0  0  0
    1.0678    1.5570   -1.2754 C   0  0  0  0  0  0  0  0  0  0  0  0
   -1.1145    1.1868   -0.3069 C   0  0  0  0  0  0  0  0  0  0  0  0
   -0.6921    1.7930    0.8763 C   0  0  0  0  0  0  0  0  0  0  0  0
   -0.2344    1.0688   -1.3827 C   0  0  0  0  0  0  0  0  0  0  0  0
    8.7001   -4.2143   -0.0284 C   0  0  0  0  0  0  0  0  0  0  0  0
   -2.4654    0.6821   -0.4193 C   0  0  0  0  0  0  0  0  0  0  0  0
   -3.4985    1.2890    0.2950 C   0  0  0  0  0  0  0  0  0  0  0  0
   -2.7352   -0.4112   -1.2424 C   0  0  0  0  0  0  0  0  0  0  0  0
   -5.0708   -0.2910   -0.6367 C   0  0  0  0  0  0  0  0  0  0  0  0
   -4.8011    0.8026    0.1863 C   0  0  0  0  0  0  0  0  0  0  0  0
   -4.0378   -0.8978   -1.3511 C   0  0  0  0  0  0  0  0  0  0  0  0
   -6.4286   -0.7982   -0.7499 C   0  0  0  0  0  0  0  0  0  0  0  0
   -8.5925   -1.0890    0.5205 C   0  0  0  0  0  0  0  0  0  0  0  0
  -10.3889   -1.1267    2.0683 C   0  0  0  0  0  0  0  0  0  0  0  0
    5.4371   -0.5968   -0.7356 H   0  0  0  0  0  0  0  0  0  0  0  0
    5.3258    3.1508    0.2027 H   0  0  0  0  0  0  0  0  0  0  0  0
    7.1933    1.8820   -0.4440 H   0  0  0  0  0  0  0  0  0  0  0  0
    6.1631    1.4504   -1.8169 H   0  0  0  0  0  0  0  0  0  0  0  0
    4.6039    1.7738    2.0930 H   0  0  0  0  0  0  0  0  0  0  0  0
    8.2085   -0.3577    0.5498 H   0  0  0  0  0  0  0  0  0  0  0  0
    8.0168   -0.5456   -1.2146 H   0  0  0  0  0  0  0  0  0  0  0  0
    3.5341    0.9188   -0.8784 H   0  0  0  0  0  0  0  0  0  0  0  0
    3.8501    2.4612   -1.7234 H   0  0  0  0  0  0  0  0  0  0  0  0
    0.9365    2.7466    1.9098 H   0  0  0  0  0  0  0  0  0  0  0  0
    1.7105    1.4778   -2.1473 H   0  0  0  0  0  0  0  0  0  0  0  0
   -1.3319    1.8799    1.7502 H   0  0  0  0  0  0  0  0  0  0  0  0
   -0.5300    0.6380   -2.3355 H   0  0  0  0  0  0  0  0  0  0  0  0
    8.1267   -4.6856   -0.8323 H   0  0  0  0  0  0  0  0  0  0  0  0
    8.3135   -4.5145    0.9502 H   0  0  0  0  0  0  0  0  0  0  0  0
    9.7427   -4.5338   -0.1069 H   0  0  0  0  0  0  0  0  0  0  0  0
   -3.3420    2.1648    0.9189 H   0  0  0  0  0  0  0  0  0  0  0  0
   -1.9583   -0.9355   -1.7923 H   0  0  0  0  0  0  0  0  0  0  0  0
   -5.5849    1.3219    0.7304 H   0  0  0  0  0  0  0  0  0  0  0  0
   -4.2229   -1.7590   -1.9880 H   0  0  0  0  0  0  0  0  0  0  0  0
   -6.8838   -0.2359    1.2049 H   0  0  0  0  0  0  0  0  0  0  0  0
   -7.8295   -1.6648   -1.7304 H   0  0  0  0  0  0  0  0  0  0  0  0
  -10.6113   -0.8037    3.0888 H   0  0  0  0  0  0  0  0  0  0  0  0
  -10.5055   -2.2130    2.0103 H   0  0  0  0  0  0  0  0  0  0  0  0
  -11.0792   -0.6257    1.3830 H   0  0  0  0  0  0  0  0  0  0  0  0
  1 15  1  0  0  0  0
  1 17  1  0  0  0  0
  2 13  2  0  0  0  0
  3 16  1  0  0  0  0
  3 23  1  0  0  0  0
  4 16  2  0  0  0  0
  5 31  1  0  0  0  0
  5 32  1  0  0  0  0
  6 31  2  0  0  0  0
  7 11  1  0  0  0  0
  7 13  1  0  0  0  0
  7 37  1  0  0  0  0
  8 30  1  0  0  0  0
  8 31  1  0  0  0  0
  8 53  1  0  0  0  0
  9 30  2  0  0  0  0
  9 54  1  0  0  0  0
 10 12  1  0  0  0  0
 10 13  1  0  0  0  0
 10 14  1  0  0  0  0
 10 33  1  0  0  0  0
 11 12  1  0  0  0  0
 11 15  1  0  0  0  0
 11 34  1  0  0  0  0
 12 35  1  0  0  0  0
 12 36  1  0  0  0  0
 14 16  1  0  0  0  0
 14 38  1  0  0  0  0
 14 39  1  0  0  0  0
 15 40  1  0  0  0  0
 15 41  1  0  0  0  0
 17 18  2  0  0  0  0
 17 19  1  0  0  0  0
 18 21  1  0  0  0  0
 18 42  1  0  0  0  0
 19 22  2  0  0  0  0
 19 43  1  0  0  0  0
 20 21  2  0  0  0  0
 20 22  1  0  0  0  0
 20 24  1  0  0  0  0
 21 44  1  0  0  0  0
 22 45  1  0  0  0  0
 23 46  1  0  0  0  0
 23 47  1  0  0  0  0
 23 48  1  0  0  0  0
 24 25  2  0  0  0  0
 24 26  1  0  0  0  0
 25 28  1  0  0  0  0
 25 49  1  0  0  0  0
 26 29  2  0  0  0  0
 26 50  1  0  0  0  0
 27 28  2  0  0  0  0
 27 29  1  0  0  0  0
 27 30  1  0  0  0  0
 28 51  1  0  0  0  0
 29 52  1  0  0  0  0
 32 55  1  0  0  0  0
 32 56  1  0  0  0  0
 32 57  1  0  0  0  0
M  END
> <PUBCHEM_COMPOUND_CID>
135565050

> <PUBCHEM_CONFORMER_RMSD>
1.2

> <PUBCHEM_CONFORMER_DIVERSEORDER>
1
17
46
40
21
44
18
43
37
47
34
39
30
25
13
23
7
24
35
41
45
14
36
8
31
33
29
27
6
28
49
26
22
2
32
19
38
5
12
48
4
10
42
3
11
16
9
15
20

> <PUBCHEM_MMFF94_PARTIAL_CHARGES>
40
1 -0.36
10 0.06
11 0.3
13 0.57
14 0.06
15 0.28
16 0.66
17 0.08
18 -0.15
19 -0.15
2 -0.57
21 -0.15
22 -0.15
23 0.28
25 -0.15
26 -0.15
27 0.09
28 -0.15
29 -0.15
3 -0.43
30 0.42
31 0.78
32 0.28
37 0.37
4 -0.57
42 0.15
43 0.15
44 0.15
45 0.15
49 0.15
5 -0.43
50 0.15
51 0.15
52 0.15
53 0.37
54 0.4
6 -0.57
7 -0.73
8 -0.49
9 -0.85

> <PUBCHEM_EFFECTIVE_ROTOR_COUNT>
11.8

> <PUBCHEM_PHARMACOPHORE_FEATURES>
10
1 1 acceptor
1 2 acceptor
1 4 acceptor
1 6 acceptor
1 7 donor
1 8 donor
1 9 donor
5 7 10 11 12 13 rings
6 17 18 19 20 21 22 rings
6 24 25 26 27 28 29 rings

> <PUBCHEM_HEAVY_ATOM_COUNT>
32

> <PUBCHEM_ATOM_DEF_STEREO_COUNT>
2

> <PUBCHEM_ATOM_UDEF_STEREO_COUNT>
0

> <PUBCHEM_BOND_DEF_STEREO_COUNT>
0

> <PUBCHEM_BOND_UDEF_STEREO_COUNT>
0

> <PUBCHEM_ISOTOPIC_ATOM_COUNT>
0

> <PUBCHEM_COMPONENT_COUNT>
1

> <PUBCHEM_CACTVS_TAUTO_COUNT>
-1

> <PUBCHEM_CONFORMER_ID>
08148EFA00000001

> <PUBCHEM_MMFF94_ENERGY>
96.7531

> <PUBCHEM_FEATURE_SELFOVERLAP>
50.786

> <PUBCHEM_SHAPE_FINGERPRINT>
10066227 49 18408602565293151023
10533779 47 18410019862257838947
10577160 183 17632286884088298381
11135609 127 8070027758150034028
11211813 74 9367353621784219503
11421887 21 10953742158858420502
11421887 45 8645896951887609830
11456790 92 17560809870380421953
11578821 258 9511472117391822323
117089 54 18268996376558183742
11761917 87 18334022687518292083
11973863 73 18272094886055076273
12144603 126 17988085616204384404
12539765 74 12180107745364358113
12838862 33 15195289703897136041
13533116 47 18341326765285479456
13668630 136 17967810565457293285
14142895 15 8286198345134602985
14202775 3 18115874161269112451
14359421 15 17749385907128249434
14429380 56 9511468809638250025
14444916 359 17894348908905391155
14617042 71 9583514334976864350
14675020 138 16415485956229194484
15152005 1 18121499043518680070
15183329 4 16588018000966511468
15198563 99 16443614719142418565
15419008 145 17846508015630385113
15510800 12 18259992565024785026
15684393 108 18333735741154082348
17134984 74 17458058262544227610
1754911 235 7925918079905075209
1818759 1 18187087269486853155
19301679 30 18271247127782403804
19841028 212 18410290311911439314
20105231 36 17022900186195918227
20165401 70 18341608231208019310
2026 5 18335419015656808346
20554085 129 14692576524376954303
20771845 171 13335001799564420048
20982279 24 17968110715727261323
21033648 29 13901907795500358704
21057603 238 18042402418070168029
21130935 74 18128249198217876891
21150785 3 11097842018058125409
21344244 181 18113616807170540138
21362267 20 18196373844345856839
21362857 166 14562795639654833720
21792934 111 14045752499441803008
22002106 203 18263073320552254458
22899556 105 17750230301998534082
23522609 53 18125190236885867112
23569943 247 18411980221879792610
23576562 1 12757730767420398643
23729417 116 10959575037272490352
25025965 108 17558538365622085791
25269216 80 16805323262654911693
2835820 83 18339080377173129574
2851757 41 18339646625756444830
34797466 226 16371001962111535212
406291 66 18340201891812380654
4258327 124 11025799786495885549
437795 160 14692567763387410405
439807 62 18413389843637298694
4403749 210 10735866301456810069
45377200 153 16515973696269041921
4616759 239 16128383709995932875
474113 269 18129645466189442101
54583773 228 8142074348492377385
5718773 13 18339638941969190100
57828716 57 17129317360338073014
58260988 647 18335140882370194280
6201320 215 18059019385727977057
636783 126 17203335469301272926
6636735 143 14189281712471287839
9937071 3 18334293179989118866

> <PUBCHEM_SHAPE_MULTIPOLES>
608.39
33.88
3.32
1.49
28.89
2.31
0.35
35.34
9.6
-9.56
0.05
2.08
0.15
0.12

> <PUBCHEM_SHAPE_SELFOVERLAP>
1295.977

> <PUBCHEM_SHAPE_VOLUME>
338

> <PUBCHEM_COORDINATE_TYPE>
2
5
10

$$$$
