135562701
  -OEChem-03292013293D

 52 58  0     1  0  0  0  0  0999 V2000
   -2.6198   -2.8843   -0.2300 O   0  0  0  0  0  0  0  0  0  0  0  0
   -0.4637   -3.8444    0.1450 O   0  0  0  0  0  0  0  0  0  0  0  0
   -2.6840   -1.6123   -3.0106 O   0  0  0  0  0  0  0  0  0  0  0  0
    1.0189    0.1440   -1.8654 O   0  0  0  0  0  0  0  0  0  0  0  0
    3.2638   -1.5858    2.1096 O   0  0  0  0  0  0  0  0  0  0  0  0
    1.6928    2.1001   -2.8606 O   0  0  0  0  0  0  0  0  0  0  0  0
    4.0062    3.4006   -1.4703 O   0  0  0  0  0  0  0  0  0  0  0  0
   -3.4542    1.3730   -1.6064 O   0  0  0  0  0  0  0  0  0  0  0  0
   -2.5341   -0.5552    0.5445 N   0  0  0  0  0  0  0  0  0  0  0  0
   -1.9242    0.1260    2.5783 N   0  0  0  0  0  0  0  0  0  0  0  0
   -2.3011    2.5472    2.2123 N   0  0  0  0  0  0  0  0  0  0  0  0
   -3.0923    3.0079   -0.0066 N   0  0  0  0  0  0  0  0  0  0  0  0
   -2.7589    4.7400    1.5323 N   0  0  0  0  0  0  0  0  0  0  0  0
   -0.8037   -2.2714   -1.6834 C   0  0  2  0  0  0  0  0  0  0  0  0
   -1.9382   -1.2833   -1.8359 C   0  0  2  0  0  0  0  0  0  0  0  0
   -1.4200   -3.3939   -0.8418 C   0  0  2  0  0  0  0  0  0  0  0  0
   -2.8196   -1.5071   -0.6045 C   0  0  1  0  0  0  0  0  0  0  0  0
    0.3128   -1.8817   -0.7867 C   0  0  0  0  0  0  0  0  0  0  0  0
    0.4601   -2.8338    0.2082 C   0  0  0  0  0  0  0  0  0  0  0  0
    1.1763   -0.8022   -0.8297 C   0  0  0  0  0  0  0  0  0  0  0  0
    2.1822   -0.6632    0.1362 C   0  0  0  0  0  0  0  0  0  0  0  0
    1.4475   -2.7449    1.1723 C   0  0  0  0  0  0  0  0  0  0  0  0
    3.0464    0.5043    0.0454 C   0  0  0  0  0  0  0  0  0  0  0  0
    2.3108   -1.6450    1.1354 C   0  0  0  0  0  0  0  0  0  0  0  0
   -2.6738    0.8017    0.5506 C   0  0  0  0  0  0  0  0  0  0  0  0
    4.1611    0.8236    0.9865 C   0  0  0  0  0  0  0  0  0  0  0  0
    2.8611    1.3847   -0.9389 C   0  0  0  0  0  0  0  0  0  0  0  0
   -2.0806   -0.9150    1.7869 C   0  0  0  0  0  0  0  0  0  0  0  0
    4.7373    2.1354    0.4560 C   0  0  0  0  0  0  0  0  0  0  0  0
    1.8320    1.2713   -1.9705 C   0  0  0  0  0  0  0  0  0  0  0  0
    3.8799    2.4263   -0.7442 C   0  0  0  0  0  0  0  0  0  0  0  0
   -2.2936    1.1991    1.8111 C   0  0  0  0  0  0  0  0  0  0  0  0
   -3.1103    1.6946   -0.4741 C   0  0  0  0  0  0  0  0  0  0  0  0
   -2.6994    3.3915    1.2881 C   0  0  0  0  0  0  0  0  0  0  0  0
    3.2823   -2.6477    3.0606 C   0  0  0  0  0  0  0  0  0  0  0  0
   -0.4078   -2.6524   -2.6312 H   0  0  0  0  0  0  0  0  0  0  0  0
   -1.5850   -0.2575   -1.9569 H   0  0  0  0  0  0  0  0  0  0  0  0
   -1.7082   -4.2503   -1.4614 H   0  0  0  0  0  0  0  0  0  0  0  0
   -3.8877   -1.3659   -0.8068 H   0  0  0  0  0  0  0  0  0  0  0  0
    1.4722   -3.5434    1.9029 H   0  0  0  0  0  0  0  0  0  0  0  0
   -3.4228   -0.9826   -3.0694 H   0  0  0  0  0  0  0  0  0  0  0  0
    3.8026    0.9610    2.0123 H   0  0  0  0  0  0  0  0  0  0  0  0
    4.9345    0.0480    0.9816 H   0  0  0  0  0  0  0  0  0  0  0  0
   -1.8884   -1.9408    2.0686 H   0  0  0  0  0  0  0  0  0  0  0  0
    5.7815    2.0205    0.1518 H   0  0  0  0  0  0  0  0  0  0  0  0
    4.6411    2.9409    1.1895 H   0  0  0  0  0  0  0  0  0  0  0  0
   -3.3836    3.7396   -0.6482 H   0  0  0  0  0  0  0  0  0  0  0  0
    4.1021   -2.4352    3.7555 H   0  0  0  0  0  0  0  0  0  0  0  0
    2.3674   -2.6739    3.6628 H   0  0  0  0  0  0  0  0  0  0  0  0
    3.5160   -3.6112    2.5942 H   0  0  0  0  0  0  0  0  0  0  0  0
   -2.4967    5.1220    2.4345 H   0  0  0  0  0  0  0  0  0  0  0  0
   -3.0657    5.3937    0.8203 H   0  0  0  0  0  0  0  0  0  0  0  0
  1 16  1  0  0  0  0
  1 17  1  0  0  0  0
  2 16  1  0  0  0  0
  2 19  1  0  0  0  0
  3 15  1  0  0  0  0
  3 41  1  0  0  0  0
  4 20  1  0  0  0  0
  4 30  1  0  0  0  0
  5 24  1  0  0  0  0
  5 35  1  0  0  0  0
  6 30  2  0  0  0  0
  7 31  2  0  0  0  0
  8 33  2  0  0  0  0
  9 17  1  0  0  0  0
  9 25  1  0  0  0  0
  9 28  1  0  0  0  0
 10 28  2  0  0  0  0
 10 32  1  0  0  0  0
 11 32  1  0  0  0  0
 11 34  2  0  0  0  0
 12 33  1  0  0  0  0
 12 34  1  0  0  0  0
 12 47  1  0  0  0  0
 13 34  1  0  0  0  0
 13 51  1  0  0  0  0
 13 52  1  0  0  0  0
 14 15  1  0  0  0  0
 14 16  1  0  0  0  0
 14 18  1  0  0  0  0
 14 36  1  0  0  0  0
 15 17  1  0  0  0  0
 15 37  1  0  0  0  0
 16 38  1  0  0  0  0
 17 39  1  0  0  0  0
 18 19  1  0  0  0  0
 18 20  2  0  0  0  0
 19 22  2  0  0  0  0
 20 21  1  0  0  0  0
 21 23  1  0  0  0  0
 21 24  2  0  0  0  0
 22 24  1  0  0  0  0
 22 40  1  0  0  0  0
 23 26  1  0  0  0  0
 23 27  2  0  0  0  0
 25 32  2  0  0  0  0
 25 33  1  0  0  0  0
 26 29  1  0  0  0  0
 26 42  1  0  0  0  0
 26 43  1  0  0  0  0
 27 30  1  0  0  0  0
 27 31  1  0  0  0  0
 28 44  1  0  0  0  0
 29 31  1  0  0  0  0
 29 45  1  0  0  0  0
 29 46  1  0  0  0  0
 35 48  1  0  0  0  0
 35 49  1  0  0  0  0
 35 50  1  0  0  0  0
M  END
> <PUBCHEM_COMPOUND_CID>
135562701

> <PUBCHEM_CONFORMER_RMSD>
0.8

> <PUBCHEM_CONFORMER_DIVERSEORDER>
1
7
6
5
4
11
9
10
8
3
2
12

> <PUBCHEM_MMFF94_PARTIAL_CHARGES>
41
1 -0.56
10 -0.57
11 -0.57
12 -0.49
13 -0.85
14 0.14
15 0.28
16 0.56
17 0.54
18 -0.14
19 0.08
2 -0.36
20 0.08
21 0.03
22 -0.15
23 -0.17
24 0.08
25 -0.24
26 0.14
27 0.03
28 0.04
29 0.06
3 -0.68
30 0.71
31 0.49
32 0.35
33 0.71
34 0.56
35 0.28
4 -0.23
40 0.15
41 0.4
44 0.15
47 0.37
5 -0.36
51 0.4
52 0.4
6 -0.57
7 -0.57
8 -0.57
9 0.05

> <PUBCHEM_EFFECTIVE_ROTOR_COUNT>
3.2

> <PUBCHEM_PHARMACOPHORE_FEATURES>
19
1 1 acceptor
1 12 donor
1 13 donor
1 2 acceptor
1 27 anion
1 3 acceptor
1 3 donor
1 5 acceptor
1 6 acceptor
1 7 acceptor
1 8 acceptor
3 9 10 28 cation
5 1 14 15 16 17 rings
5 2 14 16 18 19 rings
5 23 26 27 29 31 rings
5 9 10 25 28 32 rings
6 11 12 25 32 33 34 rings
6 18 19 20 21 22 24 rings
6 4 20 21 23 27 30 rings

> <PUBCHEM_HEAVY_ATOM_COUNT>
35

> <PUBCHEM_ATOM_DEF_STEREO_COUNT>
3

> <PUBCHEM_ATOM_UDEF_STEREO_COUNT>
1

> <PUBCHEM_BOND_DEF_STEREO_COUNT>
0

> <PUBCHEM_BOND_UDEF_STEREO_COUNT>
0

> <PUBCHEM_ISOTOPIC_ATOM_COUNT>
0

> <PUBCHEM_COMPONENT_COUNT>
1

> <PUBCHEM_CACTVS_TAUTO_COUNT>
-1

> <PUBCHEM_CONFORMER_ID>
081485CD00000001

> <PUBCHEM_MMFF94_ENERGY>
110.7056

> <PUBCHEM_FEATURE_SELFOVERLAP>
97.387

> <PUBCHEM_SHAPE_FINGERPRINT>
10165383 225 17051112490037792201
11007060 377 17972315381626421628
11421498 54 18047465913840326994
11640471 11 18412542102391254839
11763715 3 17553721378513903070
12156800 1 16599493693972340181
12633257 1 17608093065719139315
12655364 131 17752732885015481960
12788726 201 18272076241195810439
128993 33 17771100170163352729
13009979 54 18194938916170453050
13383661 66 9647610412531623144
13965767 371 18191313675803526460
15420108 30 18266173938398093184
17974551 9 17170700786059379208
17980427 23 18050278172557400880
19311894 1 18199208259843974300
20775530 9 8862648058813251168
21033650 10 18049187719765186644
21133410 230 15088608917580021840
21860390 5 17616543860724645537
22149856 69 17414443784957051761
3493558 16 18189601758375075173
35225 105 17703496753353221181
4616759 239 16890597300915622528
469060 322 17753334463282393419
50150288 127 14220633354561728653
550186 7 17843697788131349724
57527306 92 17769678703787760179
5951187 136 15263668163585948169

> <PUBCHEM_SHAPE_MULTIPOLES>
648.42
7.36
5.17
2.74
4.44
1.68
0.16
5.63
1.07
-1.75
1
-0.02
-0.07
-4.1

> <PUBCHEM_SHAPE_SELFOVERLAP>
1490.903

> <PUBCHEM_SHAPE_VOLUME>
333.4

> <PUBCHEM_COORDINATE_TYPE>
2
5
10

$$$$
