135564930
  -OEChem-03292013293D

 69 72  0     0  0  0  0  0  0999 V2000
  -10.4761    1.8997   -0.8396 O   0  0  0  0  0  0  0  0  0  0  0  0
   -3.1495   -2.3150    1.7437 O   0  0  0  0  0  0  0  0  0  0  0  0
    2.6217   -2.6813   -0.8292 O   0  0  0  0  0  0  0  0  0  0  0  0
    2.3334    3.1703   -1.7448 O   0  0  0  0  0  0  0  0  0  0  0  0
   -7.0381    0.6869   -0.3036 N   0  0  0  0  0  0  0  0  0  0  0  0
   -4.5073   -0.0906    0.8581 N   0  0  0  0  0  0  0  0  0  0  0  0
    4.9129    2.8690   -0.1671 N   0  0  0  0  0  0  0  0  0  0  0  0
    1.7822    1.1067   -0.8324 N   0  0  0  0  0  0  0  0  0  0  0  0
    3.2313   -0.1150    0.6569 N   0  0  0  0  0  0  0  0  0  0  0  0
    5.8695    2.3617    0.6423 N   0  0  0  0  0  0  0  0  0  0  0  0
   -6.6292    1.1654    1.0228 C   0  0  0  0  0  0  0  0  0  0  0  0
   -6.4445   -0.6271   -0.5791 C   0  0  0  0  0  0  0  0  0  0  0  0
   -5.1018    1.2227    1.1352 C   0  0  0  0  0  0  0  0  0  0  0  0
   -4.9170   -0.5694   -0.4678 C   0  0  0  0  0  0  0  0  0  0  0  0
   -8.4947    0.6310   -0.4089 C   0  0  0  0  0  0  0  0  0  0  0  0
   -3.0505   -0.0333    0.9619 C   0  0  0  0  0  0  0  0  0  0  0  0
   -9.0628    2.0043   -0.7297 C   0  0  0  0  0  0  0  0  0  0  0  0
   -2.5120   -1.4379    1.1648 C   0  0  0  0  0  0  0  0  0  0  0  0
   -1.1529   -1.7607    0.6369 C   0  0  0  0  0  0  0  0  0  0  0  0
   -0.1798   -0.7645    0.5583 C   0  0  0  0  0  0  0  0  0  0  0  0
    1.0901   -1.0670    0.0672 C   0  0  0  0  0  0  0  0  0  0  0  0
   -0.8562   -3.0595    0.2236 C   0  0  0  0  0  0  0  0  0  0  0  0
    4.0944    0.9708    0.4918 C   0  0  0  0  0  0  0  0  0  0  0  0
    2.1124    0.0101   -0.0096 C   0  0  0  0  0  0  0  0  0  0  0  0
    3.8224    2.0614   -0.2866 C   0  0  0  0  0  0  0  0  0  0  0  0
    5.3566    1.1908    1.0444 C   0  0  0  0  0  0  0  0  0  0  0  0
    1.3868   -2.3659   -0.3459 C   0  0  0  0  0  0  0  0  0  0  0  0
    6.1229    0.3277    1.9574 C   0  0  0  0  0  0  0  0  0  0  0  0
    0.4136   -3.3622   -0.2677 C   0  0  0  0  0  0  0  0  0  0  0  0
    2.6126    2.2138   -1.0302 C   0  0  0  0  0  0  0  0  0  0  0  0
    7.2539   -0.4442    1.2470 C   0  0  0  0  0  0  0  0  0  0  0  0
    5.1287    4.1486   -0.7995 C   0  0  0  0  0  0  0  0  0  0  0  0
    6.7346   -1.3846    0.1710 C   0  0  0  0  0  0  0  0  0  0  0  0
    2.6857   -3.1848   -2.1619 C   0  0  0  0  0  0  0  0  0  0  0  0
    4.0066   -2.7780   -2.7795 C   0  0  0  0  0  0  0  0  0  0  0  0
   -4.7075    1.9830    0.4474 H   0  0  0  0  0  0  0  0  0  0  0  0
   -4.8459    1.5390    2.1538 H   0  0  0  0  0  0  0  0  0  0  0  0
   -4.5280   -1.5782   -0.6497 H   0  0  0  0  0  0  0  0  0  0  0  0
   -4.5183    0.0793   -1.2599 H   0  0  0  0  0  0  0  0  0  0  0  0
   -6.6992   -0.9450   -1.5976 H   0  0  0  0  0  0  0  0  0  0  0  0
   -6.8385   -1.3866    0.1099 H   0  0  0  0  0  0  0  0  0  0  0  0
   -7.0291    0.5171    1.8145 H   0  0  0  0  0  0  0  0  0  0  0  0
   -7.0137    2.1749    1.2051 H   0  0  0  0  0  0  0  0  0  0  0  0
   -8.9650    0.2090    0.4891 H   0  0  0  0  0  0  0  0  0  0  0  0
   -8.7955   -0.0348   -1.2298 H   0  0  0  0  0  0  0  0  0  0  0  0
   -2.6103    0.4444    0.0795 H   0  0  0  0  0  0  0  0  0  0  0  0
   -2.7467    0.5344    1.8504 H   0  0  0  0  0  0  0  0  0  0  0  0
   -8.6693    2.3806   -1.6802 H   0  0  0  0  0  0  0  0  0  0  0  0
   -8.8440    2.7332    0.0559 H   0  0  0  0  0  0  0  0  0  0  0  0
   -0.3905    0.2468    0.8969 H   0  0  0  0  0  0  0  0  0  0  0  0
   -1.6027   -3.8477    0.2751 H   0  0  0  0  0  0  0  0  0  0  0  0
  -10.8125    2.7869   -1.0522 H   0  0  0  0  0  0  0  0  0  0  0  0
    6.5637    0.9369    2.7567 H   0  0  0  0  0  0  0  0  0  0  0  0
    5.4562   -0.3880    2.4544 H   0  0  0  0  0  0  0  0  0  0  0  0
    0.6320   -4.3802   -0.5786 H   0  0  0  0  0  0  0  0  0  0  0  0
    0.8890    1.1032   -1.3176 H   0  0  0  0  0  0  0  0  0  0  0  0
    7.8019   -1.0276    1.9962 H   0  0  0  0  0  0  0  0  0  0  0  0
    7.9687    0.2571    0.8002 H   0  0  0  0  0  0  0  0  0  0  0  0
    4.3356    4.8291   -0.4805 H   0  0  0  0  0  0  0  0  0  0  0  0
    6.1014    4.5469   -0.4991 H   0  0  0  0  0  0  0  0  0  0  0  0
    5.1054    4.0060   -1.8826 H   0  0  0  0  0  0  0  0  0  0  0  0
    5.9841   -2.0715    0.5751 H   0  0  0  0  0  0  0  0  0  0  0  0
    6.2898   -0.8382   -0.6661 H   0  0  0  0  0  0  0  0  0  0  0  0
    7.5581   -1.9844   -0.2302 H   0  0  0  0  0  0  0  0  0  0  0  0
    2.6087   -4.2770   -2.1331 H   0  0  0  0  0  0  0  0  0  0  0  0
    1.8656   -2.7880   -2.7732 H   0  0  0  0  0  0  0  0  0  0  0  0
    4.0941   -3.1562   -3.8018 H   0  0  0  0  0  0  0  0  0  0  0  0
    4.1040   -1.6872   -2.7958 H   0  0  0  0  0  0  0  0  0  0  0  0
    4.8438   -3.1621   -2.1873 H   0  0  0  0  0  0  0  0  0  0  0  0
  1 17  1  0  0  0  0
  1 52  1  0  0  0  0
  2 18  2  0  0  0  0
  3 27  1  0  0  0  0
  3 34  1  0  0  0  0
  4 30  2  0  0  0  0
  5 11  1  0  0  0  0
  5 12  1  0  0  0  0
  5 15  1  0  0  0  0
  6 13  1  0  0  0  0
  6 14  1  0  0  0  0
  6 16  1  0  0  0  0
  7 10  1  0  0  0  0
  7 25  1  0  0  0  0
  7 32  1  0  0  0  0
  8 24  1  0  0  0  0
  8 30  1  0  0  0  0
  8 56  1  0  0  0  0
  9 23  1  0  0  0  0
  9 24  2  0  0  0  0
 10 26  2  0  0  0  0
 11 13  1  0  0  0  0
 11 42  1  0  0  0  0
 11 43  1  0  0  0  0
 12 14  1  0  0  0  0
 12 40  1  0  0  0  0
 12 41  1  0  0  0  0
 13 36  1  0  0  0  0
 13 37  1  0  0  0  0
 14 38  1  0  0  0  0
 14 39  1  0  0  0  0
 15 17  1  0  0  0  0
 15 44  1  0  0  0  0
 15 45  1  0  0  0  0
 16 18  1  0  0  0  0
 16 46  1  0  0  0  0
 16 47  1  0  0  0  0
 17 48  1  0  0  0  0
 17 49  1  0  0  0  0
 18 19  1  0  0  0  0
 19 20  2  0  0  0  0
 19 22  1  0  0  0  0
 20 21  1  0  0  0  0
 20 50  1  0  0  0  0
 21 24  1  0  0  0  0
 21 27  2  0  0  0  0
 22 29  2  0  0  0  0
 22 51  1  0  0  0  0
 23 25  2  0  0  0  0
 23 26  1  0  0  0  0
 25 30  1  0  0  0  0
 26 28  1  0  0  0  0
 27 29  1  0  0  0  0
 28 31  1  0  0  0  0
 28 53  1  0  0  0  0
 28 54  1  0  0  0  0
 29 55  1  0  0  0  0
 31 33  1  0  0  0  0
 31 57  1  0  0  0  0
 31 58  1  0  0  0  0
 32 59  1  0  0  0  0
 32 60  1  0  0  0  0
 32 61  1  0  0  0  0
 33 62  1  0  0  0  0
 33 63  1  0  0  0  0
 33 64  1  0  0  0  0
 34 35  1  0  0  0  0
 34 65  1  0  0  0  0
 34 66  1  0  0  0  0
 35 67  1  0  0  0  0
 35 68  1  0  0  0  0
 35 69  1  0  0  0  0
M  END
> <PUBCHEM_COMPOUND_CID>
135564930

> <PUBCHEM_CONFORMER_RMSD>
1.2

> <PUBCHEM_CONFORMER_DIVERSEORDER>
1
15
32
76
87
6
37
105
14
80
61
63
62
46
100
55
72
93
28
48
68
77
75
110
57
90
94
21
108
96
23
26
41
50
38
92
33
103
54
73
44
98
19
113
71
3
56
78
30
40
60
111
27
34
7
58
84
81
22
24
97
114
45
95
89
52
85
10
64
109
66
91
2
82
83
59
5
31
99
16
86
65
49
42
8
13
53
101
43
104
36
88
51
9
47
11
107
35
12
39
112
20
102
67
79
70
69
18
106
29
4
74
17
25

> <PUBCHEM_MMFF94_PARTIAL_CHARGES>
37
1 -0.68
10 -0.71
11 0.27
12 0.27
13 0.27
14 0.27
15 0.27
16 0.33
17 0.28
18 0.42
19 0.09
2 -0.57
20 -0.15
21 0.09
22 -0.15
23 0.12
24 0.42
25 -0.24
26 0.11
27 0.08
28 0.18
29 -0.15
3 -0.36
30 0.71
32 0.26
34 0.28
4 -0.57
5 -0.81
50 0.15
51 0.15
52 0.4
55 0.15
56 0.37
6 -0.81
7 0.31
8 -0.49
9 -0.57

> <PUBCHEM_EFFECTIVE_ROTOR_COUNT>
11.2

> <PUBCHEM_PHARMACOPHORE_FEATURES>
14
1 1 acceptor
1 1 donor
1 10 acceptor
1 2 acceptor
1 3 acceptor
1 33 hydrophobe
1 4 acceptor
1 5 cation
1 6 cation
1 8 donor
5 7 10 23 25 26 rings
6 19 20 21 22 27 29 rings
6 5 6 11 12 13 14 rings
6 8 9 23 24 25 30 rings

> <PUBCHEM_HEAVY_ATOM_COUNT>
35

> <PUBCHEM_ATOM_DEF_STEREO_COUNT>
0

> <PUBCHEM_ATOM_UDEF_STEREO_COUNT>
0

> <PUBCHEM_BOND_DEF_STEREO_COUNT>
0

> <PUBCHEM_BOND_UDEF_STEREO_COUNT>
0

> <PUBCHEM_ISOTOPIC_ATOM_COUNT>
0

> <PUBCHEM_COMPONENT_COUNT>
1

> <PUBCHEM_CACTVS_TAUTO_COUNT>
-1

> <PUBCHEM_CONFORMER_ID>
08148E8200000001

> <PUBCHEM_MMFF94_ENERGY>
83.6053

> <PUBCHEM_FEATURE_SELFOVERLAP>
71.165

> <PUBCHEM_SHAPE_FINGERPRINT>
11621639 307 17546446043575838956
12107183 9 18334851745477334746
12422481 6 18336547209497673602
13540713 4 18193863589329531827
13673619 4 9871752399420541395
13811026 1 18334295379793245235
14068700 675 17629491782874170562
14117953 113 18408606946033432860
14294032 229 17914065449640021147
14347424 109 18261384586302296408
14747282 540 18186806910738664285
19302320 297 18113621205433783317
20554085 129 17632283610622137938
20715895 44 18409450305779663161
20721686 124 18411980222091503590
21033648 29 17458070348666892751
21133410 38 18129117649533271257
21403212 168 18410284805594677978
21774942 28 17417821595027657833
21859007 373 18040991804549261671
23516275 100 18260545632939928213
24204213 265 17845664642866773590
2748736 6 18411419544407085073
2838139 119 18260823821990901249
2851757 15 18261110786363305347
3633792 109 18201722808307953699
4144715 1 17751370696739473282
513532 50 17775298136018534078
6058803 2 17683799192416921758
6327066 14 18338237188359453285
6371009 1 18411420635334436273
99344 41 18410007737528348757

> <PUBCHEM_SHAPE_MULTIPOLES>
666.92
24.33
4.31
1.67
54.34
0.15
0.52
18.5
0.34
-5.76
2.24
-1.63
-0.65
1.62

> <PUBCHEM_SHAPE_SELFOVERLAP>
1411.742

> <PUBCHEM_SHAPE_VOLUME>
370.9

> <PUBCHEM_COORDINATE_TYPE>
2
5
10

$$$$
