135515469
  -OEChem-03292013293D

 43 47  0     1  0  0  0  0  0999 V2000
   -5.2075   -0.3648    0.4170 O   0  0  0  0  0  0  0  0  0  0  0  0
   -3.0521    2.4074    0.8967 O   0  0  0  0  0  0  0  0  0  0  0  0
   -2.2454   -3.3257   -0.1946 O   0  0  0  0  0  0  0  0  0  0  0  0
   -5.5715    1.7004    1.2184 O   0  0  0  0  0  0  0  0  0  0  0  0
    6.4325    2.5548    0.2093 O   0  0  0  0  0  0  0  0  0  0  0  0
   -0.5624   -1.7453   -0.0674 N   0  0  0  0  0  0  0  0  0  0  0  0
    2.0441    0.7299    0.0831 N   0  0  0  0  0  0  0  0  0  0  0  0
   -3.4953    1.3567    0.0346 C   0  0  2  0  0  0  0  0  0  0  0  0
   -2.4809    0.2466    0.0228 C   0  0  0  0  0  0  0  0  0  0  0  0
   -0.1709   -0.4187    0.0070 C   0  0  0  0  0  0  0  0  0  0  0  0
   -2.8873   -1.0330   -0.0629 C   0  0  0  0  0  0  0  0  0  0  0  0
    0.6105   -2.6430   -0.1056 C   0  0  0  0  0  0  0  0  0  0  0  0
   -1.0635    0.5738    0.0478 C   0  0  0  0  0  0  0  0  0  0  0  0
    1.7484   -1.6781   -0.0455 C   0  0  0  0  0  0  0  0  0  0  0  0
    1.2842   -0.3721    0.0196 C   0  0  0  0  0  0  0  0  0  0  0  0
   -1.8828   -2.1544   -0.1136 C   0  0  0  0  0  0  0  0  0  0  0  0
   -3.7227    1.9282   -1.3669 C   0  0  0  0  0  0  0  0  0  0  0  0
   -4.3355   -1.3799   -0.1267 C   0  0  0  0  0  0  0  0  0  0  0  0
   -4.8323    0.9195    0.6218 C   0  0  0  0  0  0  0  0  0  0  0  0
    3.1064   -1.8914   -0.0464 C   0  0  0  0  0  0  0  0  0  0  0  0
    3.9541   -0.7731    0.0184 C   0  0  0  0  0  0  0  0  0  0  0  0
   -2.4406    2.4913   -1.9456 C   0  0  0  0  0  0  0  0  0  0  0  0
    3.3776    0.5272    0.0821 C   0  0  0  0  0  0  0  0  0  0  0  0
    5.3498   -0.9253    0.0205 C   0  0  0  0  0  0  0  0  0  0  0  0
    4.2368    1.6192    0.1452 C   0  0  0  0  0  0  0  0  0  0  0  0
    5.6248    1.4608    0.1465 C   0  0  0  0  0  0  0  0  0  0  0  0
    6.1816    0.1892    0.0844 C   0  0  0  0  0  0  0  0  0  0  0  0
    0.5882   -3.2154   -1.0376 H   0  0  0  0  0  0  0  0  0  0  0  0
    0.5736   -3.3100    0.7608 H   0  0  0  0  0  0  0  0  0  0  0  0
   -0.7430    1.6064    0.1191 H   0  0  0  0  0  0  0  0  0  0  0  0
   -4.1346    1.1701   -2.0447 H   0  0  0  0  0  0  0  0  0  0  0  0
   -4.4606    2.7399   -1.3209 H   0  0  0  0  0  0  0  0  0  0  0  0
   -4.6438   -1.5722   -1.1596 H   0  0  0  0  0  0  0  0  0  0  0  0
   -4.5359   -2.2842    0.4572 H   0  0  0  0  0  0  0  0  0  0  0  0
    3.5037   -2.9007   -0.0964 H   0  0  0  0  0  0  0  0  0  0  0  0
   -2.6779    3.0523   -2.8573 H   0  0  0  0  0  0  0  0  0  0  0  0
   -1.7409    1.7087   -2.2510 H   0  0  0  0  0  0  0  0  0  0  0  0
   -1.9400    3.1901   -1.2689 H   0  0  0  0  0  0  0  0  0  0  0  0
   -3.6542    3.1640    0.7920 H   0  0  0  0  0  0  0  0  0  0  0  0
    5.7996   -1.9147   -0.0279 H   0  0  0  0  0  0  0  0  0  0  0  0
    3.8146    2.6221    0.1945 H   0  0  0  0  0  0  0  0  0  0  0  0
    7.2600    0.0585    0.0852 H   0  0  0  0  0  0  0  0  0  0  0  0
    5.8799    3.3542    0.2470 H   0  0  0  0  0  0  0  0  0  0  0  0
  1 18  1  0  0  0  0
  1 19  1  0  0  0  0
  2  8  1  0  0  0  0
  2 39  1  0  0  0  0
  3 16  2  0  0  0  0
  4 19  2  0  0  0  0
  5 26  1  0  0  0  0
  5 43  1  0  0  0  0
  6 10  1  0  0  0  0
  6 12  1  0  0  0  0
  6 16  1  0  0  0  0
  7 15  1  0  0  0  0
  7 23  2  0  0  0  0
  8  9  1  0  0  0  0
  8 17  1  0  0  0  0
  8 19  1  0  0  0  0
  9 11  2  0  0  0  0
  9 13  1  0  0  0  0
 10 13  2  0  0  0  0
 10 15  1  0  0  0  0
 11 16  1  0  0  0  0
 11 18  1  0  0  0  0
 12 14  1  0  0  0  0
 12 28  1  0  0  0  0
 12 29  1  0  0  0  0
 13 30  1  0  0  0  0
 14 15  2  0  0  0  0
 14 20  1  0  0  0  0
 17 22  1  0  0  0  0
 17 31  1  0  0  0  0
 17 32  1  0  0  0  0
 18 33  1  0  0  0  0
 18 34  1  0  0  0  0
 20 21  2  0  0  0  0
 20 35  1  0  0  0  0
 21 23  1  0  0  0  0
 21 24  1  0  0  0  0
 22 36  1  0  0  0  0
 22 37  1  0  0  0  0
 22 38  1  0  0  0  0
 23 25  1  0  0  0  0
 24 27  2  0  0  0  0
 24 40  1  0  0  0  0
 25 26  2  0  0  0  0
 25 41  1  0  0  0  0
 26 27  1  0  0  0  0
 27 42  1  0  0  0  0
M  END
> <PUBCHEM_COMPOUND_CID>
135515469

> <PUBCHEM_CONFORMER_RMSD>
0.6

> <PUBCHEM_CONFORMER_DIVERSEORDER>
1

> <PUBCHEM_MMFF94_PARTIAL_CHARGES>
31
1 -0.43
10 0.08
11 -0.12
12 0.44
13 -0.15
14 -0.14
15 0.34
16 0.62
18 0.42
19 0.66
2 -0.68
20 -0.15
23 0.31
24 -0.15
25 -0.15
26 0.08
27 -0.15
3 -0.57
30 0.15
35 0.15
39 0.4
4 -0.57
40 0.15
41 0.15
42 0.15
43 0.45
5 -0.53
6 -0.47
7 -0.62
8 0.48
9 -0.14

> <PUBCHEM_EFFECTIVE_ROTOR_COUNT>
1.8

> <PUBCHEM_PHARMACOPHORE_FEATURES>
12
1 2 acceptor
1 2 donor
1 22 hydrophobe
1 3 acceptor
1 4 acceptor
1 5 donor
1 7 acceptor
5 6 10 12 14 15 rings
6 1 8 9 11 18 19 rings
6 21 23 24 25 26 27 rings
6 6 9 10 11 13 16 rings
6 7 14 15 20 21 23 rings

> <PUBCHEM_HEAVY_ATOM_COUNT>
27

> <PUBCHEM_ATOM_DEF_STEREO_COUNT>
1

> <PUBCHEM_ATOM_UDEF_STEREO_COUNT>
0

> <PUBCHEM_BOND_DEF_STEREO_COUNT>
0

> <PUBCHEM_BOND_UDEF_STEREO_COUNT>
0

> <PUBCHEM_ISOTOPIC_ATOM_COUNT>
0

> <PUBCHEM_COMPONENT_COUNT>
1

> <PUBCHEM_CACTVS_TAUTO_COUNT>
-1

> <PUBCHEM_CONFORMER_ID>
0813CD4D00000001

> <PUBCHEM_MMFF94_ENERGY>
79.84

> <PUBCHEM_FEATURE_SELFOVERLAP>
61.147

> <PUBCHEM_SHAPE_FINGERPRINT>
10 15 18113900481159969272
10165383 225 18341898472355080937
10411042 1 17547570834995977239
10595046 47 18342174492248610610
11595378 159 17095793335413296700
12107183 9 18049719616651357754
12236239 1 18060138734669423466
12390115 104 18271540748430216258
12403259 415 18262238807050270052
13140716 1 18049167962604082907
13402501 40 18410009931439349256
13583140 156 16588292878667103517
13785724 45 17907012882013421426
14341114 176 18410580591075052448
14790565 3 18341337699369583008
15196674 1 18411981373431843114
18608769 82 18340770463466607547
19611394 137 17970361527366276067
20645477 56 18409167701205441295
21033648 144 18409440393353801372
21033648 29 18336813209032620192
21236236 1 18341611555438599615
21279426 13 18341334401678952462
21315764 268 18335133211547846076
21421861 104 18041549232066712962
21756936 100 18060413608028283597
23227448 37 18411134757625265974
23559900 14 18200594688562661646
25019877 29 18131359639441160207
283562 15 18265046010850741235
3004659 81 18410577271930534834
335352 9 18412265005073071358
34797466 226 17703238411724215270
350125 39 18411419556843223417
3545911 37 18412546509523371234
4073 2 18115592681638199186
4214541 1 18411136948290480682
5104073 3 18335416889953576026
59755656 215 18342183237276753350
633830 44 17843405081471748631
636775 72 17982728869117196896
7808743 9 18411415150507484306

> <PUBCHEM_SHAPE_MULTIPOLES>
516.34
13.99
3.08
0.91
10.99
0.48
0.23
-7.48
-2.03
-0.91
0.45
-1.05
-0.62
0.34

> <PUBCHEM_SHAPE_SELFOVERLAP>
1176.447

> <PUBCHEM_SHAPE_VOLUME>
267.4

> <PUBCHEM_COORDINATE_TYPE>
2
5
10

$$$$
