135596590
  -OEChem-03292013293D

 44 48  0     0  0  0  0  0  0999 V2000
    2.1559   -3.7438    0.4815 O   0  0  0  0  0  0  0  0  0  0  0  0
    2.5834    3.2719   -0.4583 O   0  0  0  0  0  0  0  0  0  0  0  0
    0.8028   -1.8769    0.0518 N   0  0  0  0  0  0  0  0  0  0  0  0
    1.7454    0.3803   -0.1616 N   0  0  0  0  0  0  0  0  0  0  0  0
    3.2174   -1.2689    0.1324 N   0  0  0  0  0  0  0  0  0  0  0  0
    5.2576    0.1363    0.0942 N   0  0  0  0  0  0  0  0  0  0  0  0
    4.7428    2.4594   -0.2200 N   0  0  0  0  0  0  0  0  0  0  0  0
    6.9589    1.7418    0.0105 N   0  0  0  0  0  0  0  0  0  0  0  0
   -2.2374    0.0768    0.6450 C   0  0  0  0  0  0  0  0  0  0  0  0
   -2.9703    1.0959    1.4921 C   0  0  0  0  0  0  0  0  0  0  0  0
   -3.0523   -0.3540   -0.4261 C   0  0  0  0  0  0  0  0  0  0  0  0
   -4.3007    1.1938    0.7753 C   0  0  0  0  0  0  0  0  0  0  0  0
   -4.3229    0.3339   -0.3457 C   0  0  0  0  0  0  0  0  0  0  0  0
   -0.9564   -0.4159    0.8224 C   0  0  0  0  0  0  0  0  0  0  0  0
   -0.4849   -1.3583   -0.0933 C   0  0  0  0  0  0  0  0  0  0  0  0
   -2.5844   -1.2890   -1.3342 C   0  0  0  0  0  0  0  0  0  0  0  0
   -1.2907   -1.7903   -1.1610 C   0  0  0  0  0  0  0  0  0  0  0  0
   -5.3887    1.9839    1.1021 C   0  0  0  0  0  0  0  0  0  0  0  0
   -5.4457    0.2597   -1.1533 C   0  0  0  0  0  0  0  0  0  0  0  0
    1.9414   -0.9650    0.0140 C   0  0  0  0  0  0  0  0  0  0  0  0
   -6.5202    1.9091    0.2879 C   0  0  0  0  0  0  0  0  0  0  0  0
   -6.5484    1.0556   -0.8286 C   0  0  0  0  0  0  0  0  0  0  0  0
    2.9777    0.9652   -0.1534 C   0  0  0  0  0  0  0  0  0  0  0  0
    1.0297   -3.2679    0.3063 C   0  0  0  0  0  0  0  0  0  0  0  0
    3.8674   -0.0675    0.0289 C   0  0  0  0  0  0  0  0  0  0  0  0
    3.3561    2.3343   -0.2948 C   0  0  0  0  0  0  0  0  0  0  0  0
   -0.1677   -4.1887    0.4187 C   0  0  0  0  0  0  0  0  0  0  0  0
    5.6344    1.3882   -0.0326 C   0  0  0  0  0  0  0  0  0  0  0  0
   -2.4501    2.0580    1.4770 H   0  0  0  0  0  0  0  0  0  0  0  0
   -3.1061    0.7258    2.5125 H   0  0  0  0  0  0  0  0  0  0  0  0
   -0.3596   -0.0852    1.6667 H   0  0  0  0  0  0  0  0  0  0  0  0
   -3.1926   -1.6282   -2.1660 H   0  0  0  0  0  0  0  0  0  0  0  0
   -0.9104   -2.5066   -1.8860 H   0  0  0  0  0  0  0  0  0  0  0  0
   -5.3684    2.6428    1.9630 H   0  0  0  0  0  0  0  0  0  0  0  0
   -5.4824   -0.3941   -2.0182 H   0  0  0  0  0  0  0  0  0  0  0  0
   -7.3908    2.5174    0.5184 H   0  0  0  0  0  0  0  0  0  0  0  0
   -7.4411    1.0148   -1.4475 H   0  0  0  0  0  0  0  0  0  0  0  0
    0.8718    0.8654   -0.3118 H   0  0  0  0  0  0  0  0  0  0  0  0
   -0.9651   -3.7388    1.0146 H   0  0  0  0  0  0  0  0  0  0  0  0
    0.1389   -5.1098    0.9250 H   0  0  0  0  0  0  0  0  0  0  0  0
   -0.5309   -4.4539   -0.5766 H   0  0  0  0  0  0  0  0  0  0  0  0
    5.1362    3.3920   -0.3073 H   0  0  0  0  0  0  0  0  0  0  0  0
    7.6841    1.0451    0.1417 H   0  0  0  0  0  0  0  0  0  0  0  0
    7.2522    2.7077   -0.0873 H   0  0  0  0  0  0  0  0  0  0  0  0
  1 24  2  0  0  0  0
  2 26  2  0  0  0  0
  3 15  1  0  0  0  0
  3 20  1  0  0  0  0
  3 24  1  0  0  0  0
  4 20  1  0  0  0  0
  4 23  1  0  0  0  0
  4 38  1  0  0  0  0
  5 20  2  0  0  0  0
  5 25  1  0  0  0  0
  6 25  1  0  0  0  0
  6 28  2  0  0  0  0
  7 26  1  0  0  0  0
  7 28  1  0  0  0  0
  7 42  1  0  0  0  0
  8 28  1  0  0  0  0
  8 43  1  0  0  0  0
  8 44  1  0  0  0  0
  9 10  1  0  0  0  0
  9 11  2  0  0  0  0
  9 14  1  0  0  0  0
 10 12  1  0  0  0  0
 10 29  1  0  0  0  0
 10 30  1  0  0  0  0
 11 13  1  0  0  0  0
 11 16  1  0  0  0  0
 12 13  1  0  0  0  0
 12 18  2  0  0  0  0
 13 19  2  0  0  0  0
 14 15  2  0  0  0  0
 14 31  1  0  0  0  0
 15 17  1  0  0  0  0
 16 17  2  0  0  0  0
 16 32  1  0  0  0  0
 17 33  1  0  0  0  0
 18 21  1  0  0  0  0
 18 34  1  0  0  0  0
 19 22  1  0  0  0  0
 19 35  1  0  0  0  0
 21 22  2  0  0  0  0
 21 36  1  0  0  0  0
 22 37  1  0  0  0  0
 23 25  2  0  0  0  0
 23 26  1  0  0  0  0
 24 27  1  0  0  0  0
 27 39  1  0  0  0  0
 27 40  1  0  0  0  0
 27 41  1  0  0  0  0
M  END
> <PUBCHEM_COMPOUND_CID>
135596590

> <PUBCHEM_CONFORMER_RMSD>
0.8

> <PUBCHEM_CONFORMER_DIVERSEORDER>
1
18
5
15
20
12
10
22
27
28
6
16
11
26
7
17
23
29
4
8
24
19
21
14
25
2
9
3
13

> <PUBCHEM_MMFF94_PARTIAL_CHARGES>
37
1 -0.57
10 0.29
12 -0.14
14 -0.15
15 0.12
16 -0.15
17 -0.15
18 -0.15
19 -0.15
2 -0.57
20 0.25
21 -0.15
22 -0.15
23 -0.24
24 0.57
25 0.35
26 0.71
27 0.06
28 0.56
3 -0.24
31 0.15
32 0.15
33 0.15
34 0.15
35 0.15
36 0.15
37 0.15
38 0.27
4 0.03
42 0.37
43 0.4
44 0.4
5 -0.57
6 -0.57
7 -0.49
8 -0.85
9 -0.14

> <PUBCHEM_EFFECTIVE_ROTOR_COUNT>
3.2

> <PUBCHEM_PHARMACOPHORE_FEATURES>
10
1 1 acceptor
1 2 acceptor
1 4 donor
1 7 donor
1 8 donor
5 4 5 20 23 25 rings
5 9 10 11 12 13 rings
6 12 13 18 19 21 22 rings
6 6 7 23 25 26 28 rings
6 9 11 14 15 16 17 rings

> <PUBCHEM_HEAVY_ATOM_COUNT>
28

> <PUBCHEM_ATOM_DEF_STEREO_COUNT>
0

> <PUBCHEM_ATOM_UDEF_STEREO_COUNT>
0

> <PUBCHEM_BOND_DEF_STEREO_COUNT>
0

> <PUBCHEM_BOND_UDEF_STEREO_COUNT>
0

> <PUBCHEM_ISOTOPIC_ATOM_COUNT>
0

> <PUBCHEM_COMPONENT_COUNT>
1

> <PUBCHEM_CACTVS_TAUTO_COUNT>
-1

> <PUBCHEM_CONFORMER_ID>
08150A2E00000001

> <PUBCHEM_MMFF94_ENERGY>
108.3759

> <PUBCHEM_FEATURE_SELFOVERLAP>
51.083

> <PUBCHEM_SHAPE_FINGERPRINT>
10411042 1 17688870831160432978
10439779 11 17906725157447857744
10595046 47 18341890754599289653
10835480 77 18261952943782988717
12107183 9 18334564773169247514
12128747 34 15648995397952696026
12236239 1 18202278066169840647
12293681 160 17917713512870925355
12788726 201 17274545313439529361
12838862 33 18339344332413685352
13540713 5 18268690793123289423
13631057 29 18269268131971065055
14767858 380 18060124458910269157
14790565 3 18410295838822419957
14931854 50 17989210330204316280
15142526 21 18335138717553559923
15183329 4 17917720067623982342
15439362 3 18341335509696404542
18335252 114 18338508655914587268
19319366 153 18342452608745850123
20157964 124 18337108965365589117
20511986 3 17988348313225049477
20554085 129 17988345041124511626
20642791 239 17775000207085429257
21033648 144 18333726897726722759
21033648 29 18265608956672245160
21298829 104 18341897368026921905
22122407 14 18122919633683508129
23559900 14 18263927636016517955
23845131 108 18259987080657951467
245318 6 18042702756517641669
25147074 1 18200294555841829055
283562 15 18047747388938726787
2838139 119 18413387640029601029
335352 9 18410577276183233062
3472631 163 18272654562315133364
34797466 226 14835819795874716515
38570 142 18341061747842465846
397830 11 18042140821046128193
44880168 125 13768188520230850200
465052 167 8502362360998524865
474 4 18410011030992999803
5104073 3 18113617893343877642
5385378 56 18334854983677116090
6034566 193 17971487431388737605
6328613 192 18264495173491006916
6371009 1 18412260636237321752
7288768 16 18187083987631277019
9981440 41 18336830891586714019

> <PUBCHEM_SHAPE_MULTIPOLES>
534.6
15.12
3.84
1.03
1.74
3.14
0
-14.79
-1.02
-3.37
0.41
1.3
0
-1.45

> <PUBCHEM_SHAPE_SELFOVERLAP>
1210.344

> <PUBCHEM_SHAPE_VOLUME>
275.9

> <PUBCHEM_COORDINATE_TYPE>
2
5
10

$$$$
