135554448
  -OEChem-03292013293D

 29 30  0     1  0  0  0  0  0999 V2000
   -3.9158    1.5897    0.9862 O   0  0  0  0  0  0  0  0  0  0  0  0
   -4.7121    0.6212   -0.9035 O   0  0  0  0  0  0  0  0  0  0  0  0
    0.2352    0.1474   -0.3939 N   0  0  0  0  0  0  0  0  0  0  0  0
   -3.6354   -1.7825   -0.3101 N   0  0  0  0  0  0  0  0  0  0  0  0
    3.6413   -1.1830    0.2426 N   0  0  0  0  0  0  0  0  0  0  0  0
    1.9415    1.8921   -0.2662 N   0  0  0  0  0  0  0  0  0  0  0  0
    4.2078    0.9750    0.1726 N   0  0  0  0  0  0  0  0  0  0  0  0
    0.8642   -2.1903   -0.1444 N   0  0  0  0  0  0  0  0  0  0  0  0
   -1.8480   -0.4248    0.7462 C   0  0  0  0  0  0  0  0  0  0  0  0
   -1.1893   -0.1066   -0.5952 C   0  0  0  0  0  0  0  0  0  0  0  0
   -3.3531   -0.7026    0.6352 C   0  0  1  0  0  0  0  0  0  0  0  0
    1.1212   -0.9227   -0.1859 C   0  0  0  0  0  0  0  0  0  0  0  0
    2.4874   -0.4957    0.0041 C   0  0  0  0  0  0  0  0  0  0  0  0
    0.7195    1.4621   -0.4260 C   0  0  0  0  0  0  0  0  0  0  0  0
    2.8602    0.8368   -0.0351 C   0  0  0  0  0  0  0  0  0  0  0  0
   -4.0713    0.5394    0.1366 C   0  0  0  0  0  0  0  0  0  0  0  0
    4.6467   -0.2557    0.3368 C   0  0  0  0  0  0  0  0  0  0  0  0
   -1.6732    0.4087    1.4392 H   0  0  0  0  0  0  0  0  0  0  0  0
   -1.3690   -1.2964    1.2087 H   0  0  0  0  0  0  0  0  0  0  0  0
   -1.3178   -0.9248   -1.3130 H   0  0  0  0  0  0  0  0  0  0  0  0
   -1.6663    0.7665   -1.0557 H   0  0  0  0  0  0  0  0  0  0  0  0
   -3.7663   -0.9678    1.6146 H   0  0  0  0  0  0  0  0  0  0  0  0
   -0.0751    2.2049   -0.6057 H   0  0  0  0  0  0  0  0  0  0  0  0
   -4.6313   -1.9999   -0.2938 H   0  0  0  0  0  0  0  0  0  0  0  0
   -3.1544   -2.6302   -0.0116 H   0  0  0  0  0  0  0  0  0  0  0  0
    3.7399   -2.1855    0.3337 H   0  0  0  0  0  0  0  0  0  0  0  0
    5.6712   -0.5438    0.5250 H   0  0  0  0  0  0  0  0  0  0  0  0
   -0.1314   -2.3659   -0.2976 H   0  0  0  0  0  0  0  0  0  0  0  0
   -4.3744    2.3935    0.6607 H   0  0  0  0  0  0  0  0  0  0  0  0
  1 16  1  0  0  0  0
  1 29  1  0  0  0  0
  2 16  2  0  0  0  0
  3 10  1  0  0  0  0
  3 12  1  0  0  0  0
  3 14  1  0  0  0  0
  4 11  1  0  0  0  0
  4 24  1  0  0  0  0
  4 25  1  0  0  0  0
  5 13  1  0  0  0  0
  5 17  1  0  0  0  0
  5 26  1  0  0  0  0
  6 14  2  0  0  0  0
  6 15  1  0  0  0  0
  7 15  1  0  0  0  0
  7 17  2  0  0  0  0
  8 12  2  0  0  0  0
  8 28  1  0  0  0  0
  9 10  1  0  0  0  0
  9 11  1  0  0  0  0
  9 18  1  0  0  0  0
  9 19  1  0  0  0  0
 10 20  1  0  0  0  0
 10 21  1  0  0  0  0
 11 16  1  0  0  0  0
 11 22  1  0  0  0  0
 12 13  1  0  0  0  0
 13 15  2  0  0  0  0
 14 23  1  0  0  0  0
 17 27  1  0  0  0  0
M  END
> <PUBCHEM_COMPOUND_CID>
135554448

> <PUBCHEM_CONFORMER_RMSD>
0.6

> <PUBCHEM_CONFORMER_DIVERSEORDER>
1
12
41
38
46
24
49
43
16
27
33
30
40
42
51
2
18
25
19
3
13
32
47
48
20
28
7
39
23
4
9
44
14
29
31
34
17
52
6
35
36
21
15
26
45
22
37
11
10
5
8
50

> <PUBCHEM_MMFF94_PARTIAL_CHARGES>
23
1 -0.65
10 0.37
11 0.33
12 0.58
13 -0.24
14 0.44
15 0.35
16 0.66
17 0.04
2 -0.57
23 0.06
24 0.36
25 0.36
26 0.27
27 0.15
28 0.4
29 0.5
3 -0.47
4 -0.99
5 0.03
6 -0.57
7 -0.57
8 -0.85

> <PUBCHEM_EFFECTIVE_ROTOR_COUNT>
4

> <PUBCHEM_PHARMACOPHORE_FEATURES>
12
1 1 acceptor
1 2 acceptor
1 4 cation
1 4 donor
1 5 donor
1 8 donor
3 1 2 16 anion
3 3 6 14 cation
3 3 8 12 cation
3 5 7 17 cation
5 5 7 13 15 17 rings
6 3 6 12 13 14 15 rings

> <PUBCHEM_HEAVY_ATOM_COUNT>
17

> <PUBCHEM_ATOM_DEF_STEREO_COUNT>
0

> <PUBCHEM_ATOM_UDEF_STEREO_COUNT>
1

> <PUBCHEM_BOND_DEF_STEREO_COUNT>
0

> <PUBCHEM_BOND_UDEF_STEREO_COUNT>
0

> <PUBCHEM_ISOTOPIC_ATOM_COUNT>
0

> <PUBCHEM_COMPONENT_COUNT>
1

> <PUBCHEM_CACTVS_TAUTO_COUNT>
-1

> <PUBCHEM_CONFORMER_ID>
0814659000000001

> <PUBCHEM_MMFF94_ENERGY>
28.3433

> <PUBCHEM_FEATURE_SELFOVERLAP>
61.168

> <PUBCHEM_SHAPE_FINGERPRINT>
11132069 177 18334293166961804594
11471102 20 18409164402934334676
12236239 1 17846775208917059135
12251169 10 18408606988967027891
124424 183 18040998444932710729
12507557 5 18410572920337470857
13675066 3 18060420235400016186
13922767 16 18411699902428216488
14004511 7 18410297999612534225
15196674 1 18409167740102876514
15375358 24 18261393325748106531
18186145 218 18272102611846679691
200 152 18272925051424695215
20279233 1 18040438772223998079
20645477 70 18410853222593177798
21421861 104 17534057471911719906
22485316 2 18260827102908214930
23402539 116 17603297159291829375
23402655 69 18341896302995403246
23557571 272 14261361236685809001
23559900 14 18412545384221198098
3268164 11 14405188326945520225
351380 180 18409445886791338037
3545911 37 18411420609790582411
4072396 5 18261939766015982370
4214541 1 18409166628001667979
4463277 17 18408325493443895692
5104073 3 18408886260604281209
9709674 26 18410019857409756035

> <PUBCHEM_SHAPE_MULTIPOLES>
308.23
9.53
1.75
0.79
3.04
0.12
0.04
-0.87
0.92
0.01
-0.06
0.5
-0.07
-0.25

> <PUBCHEM_SHAPE_SELFOVERLAP>
653.194

> <PUBCHEM_SHAPE_VOLUME>
169.2

> <PUBCHEM_COORDINATE_TYPE>
2
5
10

$$$$
