135618571
  -OEChem-03292013293D

 41 44  0     1  0  0  0  0  0999 V2000
    3.7733   -0.2643   -1.8370 O   0  0  0  0  0  0  0  0  0  0  0  0
    4.3432   -2.4487   -0.1510 O   0  0  0  0  0  0  0  0  0  0  0  0
    3.5661    1.5839    1.3198 O   0  0  0  0  0  0  0  0  0  0  0  0
    1.6645   -2.5031    1.2208 O   0  0  0  0  0  0  0  0  0  0  0  0
   -0.8191   -2.6955   -0.1002 O   0  0  0  0  0  0  0  0  0  0  0  0
   -2.4256    2.4321   -0.0480 O   0  0  0  0  0  0  0  0  0  0  0  0
   -4.9080    1.7218   -0.0582 O   0  0  0  0  0  0  0  0  0  0  0  0
    0.5939    2.9547    0.0307 N   0  3  0  0  0  0  0  0  0  0  0  0
    0.6347    4.1013    0.0137 N   0  5  0  0  0  0  0  0  0  0  0  0
    4.0048   -0.0594   -0.4347 C   0  0  2  0  0  0  0  0  0  0  0  0
    3.5661   -1.3426    0.3161 C   0  0  1  0  0  0  0  0  0  0  0  0
    3.1550    1.1551    0.0251 C   0  0  1  0  0  0  0  0  0  0  0  0
    2.0664   -1.6792    0.1248 C   0  0  2  0  0  0  0  0  0  0  0  0
    1.2050   -0.4559    0.0940 C   0  0  0  0  0  0  0  0  0  0  0  0
    1.7192    0.7828    0.0828 C   0  0  0  0  0  0  0  0  0  0  0  0
   -0.2378   -0.4022    0.0416 C   0  0  0  0  0  0  0  0  0  0  0  0
    0.5479    1.6457    0.0501 C   0  0  0  0  0  0  0  0  0  0  0  0
    5.5060    0.2025   -0.2587 C   0  0  0  0  0  0  0  0  0  0  0  0
   -0.6776    0.8593    0.0296 C   0  0  0  0  0  0  0  0  0  0  0  0
   -1.1872   -1.5301   -0.0356 C   0  0  0  0  0  0  0  0  0  0  0  0
   -2.0833    1.2585   -0.0241 C   0  0  0  0  0  0  0  0  0  0  0  0
   -2.6322   -1.1862   -0.0488 C   0  0  0  0  0  0  0  0  0  0  0  0
   -3.0622    0.1490   -0.0445 C   0  0  0  0  0  0  0  0  0  0  0  0
   -4.4297    0.4453   -0.0626 C   0  0  0  0  0  0  0  0  0  0  0  0
   -3.5778   -2.2184   -0.0720 C   0  0  0  0  0  0  0  0  0  0  0  0
   -5.3650   -0.5895   -0.0846 C   0  0  0  0  0  0  0  0  0  0  0  0
   -4.9404   -1.9172   -0.0891 C   0  0  0  0  0  0  0  0  0  0  0  0
    3.7956   -1.2334    1.3844 H   0  0  0  0  0  0  0  0  0  0  0  0
    3.2961    1.9874   -0.6748 H   0  0  0  0  0  0  0  0  0  0  0  0
    1.9218   -2.2639   -0.7908 H   0  0  0  0  0  0  0  0  0  0  0  0
    6.1035   -0.5871   -0.7279 H   0  0  0  0  0  0  0  0  0  0  0  0
    5.7887    0.2688    0.7966 H   0  0  0  0  0  0  0  0  0  0  0  0
    5.7949    1.1374   -0.7528 H   0  0  0  0  0  0  0  0  0  0  0  0
    4.0512    0.5403   -2.3072 H   0  0  0  0  0  0  0  0  0  0  0  0
    4.0515   -3.2358    0.3400 H   0  0  0  0  0  0  0  0  0  0  0  0
    3.0526    2.3778    1.5476 H   0  0  0  0  0  0  0  0  0  0  0  0
    1.7403   -1.9807    2.0378 H   0  0  0  0  0  0  0  0  0  0  0  0
   -3.2750   -3.2621   -0.0763 H   0  0  0  0  0  0  0  0  0  0  0  0
   -6.4291   -0.3684   -0.0982 H   0  0  0  0  0  0  0  0  0  0  0  0
   -5.6721   -2.7198   -0.1064 H   0  0  0  0  0  0  0  0  0  0  0  0
   -4.1828    2.3622   -0.0083 H   0  0  0  0  0  0  0  0  0  0  0  0
  1 10  1  0  0  0  0
  1 34  1  0  0  0  0
  2 11  1  0  0  0  0
  2 35  1  0  0  0  0
  3 12  1  0  0  0  0
  3 36  1  0  0  0  0
  4 13  1  0  0  0  0
  4 37  1  0  0  0  0
  5 20  2  0  0  0  0
  6 21  2  0  0  0  0
  7 24  1  0  0  0  0
  7 41  1  0  0  0  0
  8  9  2  0  0  0  0
  8 17  2  0  0  0  0
 10 11  1  0  0  0  0
 10 12  1  0  0  0  0
 10 18  1  0  0  0  0
 11 13  1  0  0  0  0
 11 28  1  0  0  0  0
 12 15  1  0  0  0  0
 12 29  1  0  0  0  0
 13 14  1  0  0  0  0
 13 30  1  0  0  0  0
 14 15  2  0  0  0  0
 14 16  1  0  0  0  0
 15 17  1  0  0  0  0
 16 19  2  0  0  0  0
 16 20  1  0  0  0  0
 17 19  1  0  0  0  0
 18 31  1  0  0  0  0
 18 32  1  0  0  0  0
 18 33  1  0  0  0  0
 19 21  1  0  0  0  0
 20 22  1  0  0  0  0
 21 23  1  0  0  0  0
 22 23  2  0  0  0  0
 22 25  1  0  0  0  0
 23 24  1  0  0  0  0
 24 26  2  0  0  0  0
 25 27  2  0  0  0  0
 25 38  1  0  0  0  0
 26 27  1  0  0  0  0
 26 39  1  0  0  0  0
 27 40  1  0  0  0  0
M  CHG  2   8   1   9  -1
M  END
> <PUBCHEM_COMPOUND_CID>
135618571

> <PUBCHEM_CONFORMER_RMSD>
0.6

> <PUBCHEM_CONFORMER_DIVERSEORDER>
1
2

> <PUBCHEM_MMFF94_PARTIAL_CHARGES>
34
1 -0.68
10 0.28
11 0.28
12 0.42
13 0.42
14 -0.14
15 -0.12
16 0.01
17 -0.02
19 0.03
2 -0.68
20 0.47
21 0.47
22 0.09
23 0.09
24 0.08
25 -0.15
26 -0.15
27 -0.15
3 -0.68
34 0.4
35 0.4
36 0.4
37 0.4
38 0.15
39 0.15
4 -0.68
40 0.15
41 0.45
5 -0.57
6 -0.57
7 -0.53
8 0.36
9 -0.37

> <PUBCHEM_EFFECTIVE_ROTOR_COUNT>
0.8

> <PUBCHEM_PHARMACOPHORE_FEATURES>
16
1 1 acceptor
1 1 donor
1 2 acceptor
1 2 donor
1 3 acceptor
1 3 donor
1 4 acceptor
1 4 donor
1 5 acceptor
1 6 acceptor
1 7 donor
1 8 acceptor
5 14 15 16 17 19 rings
6 10 11 12 13 14 15 rings
6 16 19 20 21 22 23 rings
6 22 23 24 25 26 27 rings

> <PUBCHEM_HEAVY_ATOM_COUNT>
27

> <PUBCHEM_ATOM_DEF_STEREO_COUNT>
4

> <PUBCHEM_ATOM_UDEF_STEREO_COUNT>
0

> <PUBCHEM_BOND_DEF_STEREO_COUNT>
0

> <PUBCHEM_BOND_UDEF_STEREO_COUNT>
1

> <PUBCHEM_ISOTOPIC_ATOM_COUNT>
0

> <PUBCHEM_COMPONENT_COUNT>
1

> <PUBCHEM_CACTVS_TAUTO_COUNT>
-1

> <PUBCHEM_CONFORMER_ID>
0815600B00000001

> <PUBCHEM_MMFF94_ENERGY>
81.2416

> <PUBCHEM_FEATURE_SELFOVERLAP>
81.37

> <PUBCHEM_SHAPE_FINGERPRINT>
10616163 171 18411420605327258383
10967382 1 18410290324057524873
1100329 8 18265614462360882171
11578080 2 17460283690621068308
12011746 2 18410572898894042671
12107183 9 17687742740413185051
12166972 35 17749390373756339660
12236239 1 17894912919214099718
12403259 226 18410288151405843101
12553582 1 18338505417625179735
12788726 201 17988087673213755088
13140716 1 18411689993753898960
13224815 77 18114177523382192634
13583140 156 14117517614944345039
138480 1 18338516473040434725
14790565 3 18336553814414018116
14866123 147 17693663614723258611
15196674 1 18410573972451464387
15536298 74 18342736351211617675
15927050 60 17620194673432042060
1601671 61 18410575080368124623
16087824 20 18266462010582545141
16945 1 18265612259026860953
17349148 13 17748825224046328864
17492 89 18122906705452300759
19319366 153 17967532393653890122
19591789 44 18410572847027731498
200 152 18131632292232738259
20028762 73 18059010722088006831
21033648 29 17560787845118130563
21267235 1 18411145748415076886
21279426 13 18338233756859815327
21421861 104 17823972330005518930
221490 88 18264212593994680523
22393880 68 18338516339616224431
2334 1 18409725140699991120
23402539 116 18342453737968184607
23559900 14 18342170098344112192
239999 70 18202005460532568492
3004659 81 18187647964683112526
335352 9 18339079294645451845
34934 24 18410852153135433538
350125 39 18410573959402843888
3886686 26 17182748011286595186
4214541 1 18411136918368121421
474 4 17530973505231587078
5104073 3 18411698781542083827
59755656 215 18410014325950522646
7364860 26 18196654218338121072
9709674 26 18265897050172349115

> <PUBCHEM_SHAPE_MULTIPOLES>
504.6
10.51
3.29
0.8
2.4
1.6
0.07
-2.65
0.97
0
-0.29
-0.67
-0.09
0.08

> <PUBCHEM_SHAPE_SELFOVERLAP>
1143.359

> <PUBCHEM_SHAPE_VOLUME>
259.4

> <PUBCHEM_COORDINATE_TYPE>
2
5
10

$$$$
