135625279
  -OEChem-03292013293D

 28 29  0     1  0  0  0  0  0999 V2000
   -1.9009   -0.1412    0.4630 O   0  0  0  0  0  0  0  0  0  0  0  0
   -1.8612   -2.4619   -0.8457 O   0  0  0  0  0  0  0  0  0  0  0  0
    4.4609    0.8892    0.0598 O   0  0  0  0  0  0  0  0  0  0  0  0
   -4.4464   -0.0963   -0.2630 O   0  0  0  0  0  0  0  0  0  0  0  0
    0.0502    0.3492   -0.7831 N   0  0  0  0  0  0  0  0  0  0  0  0
    1.8641    1.5898   -1.2034 N   0  0  0  0  0  0  0  0  0  0  0  0
    0.9851   -1.3044    0.7223 N   0  0  0  0  0  0  0  0  0  0  0  0
    3.3281   -0.8853    1.0692 N   0  0  0  0  0  0  0  0  0  0  0  0
   -1.3222   -0.0927   -0.8383 C   0  0  1  0  0  0  0  0  0  0  0  0
    1.0696   -0.2132   -0.0731 C   0  0  0  0  0  0  0  0  0  0  0  0
    2.1669    0.5693   -0.3510 C   0  0  0  0  0  0  0  0  0  0  0  0
   -2.5939    1.0524    0.8057 C   0  0  2  0  0  0  0  0  0  0  0  0
    0.5778    1.4302   -1.4467 C   0  0  0  0  0  0  0  0  0  0  0  0
   -1.4086   -1.4840   -1.4327 C   0  0  0  0  0  0  0  0  0  0  0  0
    3.4359    0.2464    0.2496 C   0  0  0  0  0  0  0  0  0  0  0  0
   -2.5308    1.2382    2.3101 C   0  0  0  0  0  0  0  0  0  0  0  0
    2.1346   -1.5907    1.2620 C   0  0  0  0  0  0  0  0  0  0  0  0
   -4.0093    0.9049    0.2953 C   0  0  0  0  0  0  0  0  0  0  0  0
   -1.8851    0.5681   -1.5095 H   0  0  0  0  0  0  0  0  0  0  0  0
   -2.1418    1.9269    0.3226 H   0  0  0  0  0  0  0  0  0  0  0  0
   -0.0210    2.0613   -2.0894 H   0  0  0  0  0  0  0  0  0  0  0  0
   -1.0425   -1.5769   -2.4705 H   0  0  0  0  0  0  0  0  0  0  0  0
   -2.9770    0.3818    2.8282 H   0  0  0  0  0  0  0  0  0  0  0  0
   -3.0671    2.1400    2.6213 H   0  0  0  0  0  0  0  0  0  0  0  0
   -1.4910    1.3092    2.6462 H   0  0  0  0  0  0  0  0  0  0  0  0
    4.1635   -1.2085    1.5486 H   0  0  0  0  0  0  0  0  0  0  0  0
    2.2536   -2.4495    1.9406 H   0  0  0  0  0  0  0  0  0  0  0  0
   -4.6573    1.7849    0.4506 H   0  0  0  0  0  0  0  0  0  0  0  0
  1  9  1  0  0  0  0
  1 12  1  0  0  0  0
  2 14  2  0  0  0  0
  3 15  2  0  0  0  0
  4 18  2  0  0  0  0
  5  9  1  0  0  0  0
  5 10  1  0  0  0  0
  5 13  1  0  0  0  0
  6 11  1  0  0  0  0
  6 13  2  0  0  0  0
  7 10  1  0  0  0  0
  7 17  2  0  0  0  0
  8 15  1  0  0  0  0
  8 17  1  0  0  0  0
  8 26  1  0  0  0  0
  9 14  1  0  0  0  0
  9 19  1  0  0  0  0
 10 11  2  0  0  0  0
 11 15  1  0  0  0  0
 12 16  1  0  0  0  0
 12 18  1  0  0  0  0
 12 20  1  0  0  0  0
 13 21  1  0  0  0  0
 14 22  1  0  0  0  0
 16 23  1  0  0  0  0
 16 24  1  0  0  0  0
 16 25  1  0  0  0  0
 17 27  1  0  0  0  0
 18 28  1  0  0  0  0
M  END
> <PUBCHEM_COMPOUND_CID>
135625279

> <PUBCHEM_CONFORMER_RMSD>
0.6

> <PUBCHEM_CONFORMER_DIVERSEORDER>
1
67
46
52
39
5
65
56
53
22
60
38
32
31
64
62
51
61
18
35
45
63
48
58
16
57
33
26
21
23
20
40
50
17
30
47
41
59
15
25
66
8
43
12
34
14
37
13
49
9
28
54
7
3
10
11
55
4
19
6
42
36
2
44
27
24
29

> <PUBCHEM_MMFF94_PARTIAL_CHARGES>
22
1 -0.56
10 -0.03
11 0.14
12 0.34
13 0.04
14 0.45
15 0.72
17 0.45
18 0.45
2 -0.57
21 0.15
22 0.06
26 0.37
27 0.06
28 0.06
3 -0.57
4 -0.57
5 0.05
6 -0.57
7 -0.58
8 -0.49
9 0.6

> <PUBCHEM_EFFECTIVE_ROTOR_COUNT>
5

> <PUBCHEM_PHARMACOPHORE_FEATURES>
8
1 1 acceptor
1 2 acceptor
1 3 acceptor
1 4 acceptor
1 8 donor
3 5 6 13 cation
5 5 6 10 11 13 rings
6 7 8 10 11 15 17 rings

> <PUBCHEM_HEAVY_ATOM_COUNT>
18

> <PUBCHEM_ATOM_DEF_STEREO_COUNT>
2

> <PUBCHEM_ATOM_UDEF_STEREO_COUNT>
0

> <PUBCHEM_BOND_DEF_STEREO_COUNT>
0

> <PUBCHEM_BOND_UDEF_STEREO_COUNT>
0

> <PUBCHEM_ISOTOPIC_ATOM_COUNT>
0

> <PUBCHEM_COMPONENT_COUNT>
1

> <PUBCHEM_CACTVS_TAUTO_COUNT>
-1

> <PUBCHEM_CONFORMER_ID>
08157A3F00000001

> <PUBCHEM_MMFF94_ENERGY>
30.0166

> <PUBCHEM_FEATURE_SELFOVERLAP>
40.755

> <PUBCHEM_SHAPE_FINGERPRINT>
10498660 4 16772961276991247849
10980938 120 18260553285884404396
11471102 22 17603591815618337752
11578080 2 17907253897828108333
11640471 11 18341621420672432585
12202030 40 15647059273929704417
12236239 1 18411697694999506295
12251169 10 18335138699983053533
124424 183 15698004020353887926
13538477 17 18271802466794891415
13581323 91 17917988369566769655
13764800 53 17489590082168963371
13965767 371 17910136619610491601
14787075 74 17044831276450371934
14911166 2 12463570707980630384
15209294 21 18340761624592522512
15375358 24 16588024601998448929
15775835 57 18412825789270822233
16945 1 17968679132535609621
200 152 18261105292878392501
20279233 1 16153714206334176481
23402539 116 17274815848965770397
23419403 2 16256647306650656127
23493267 7 17060628793446686418
23526113 38 15266797545492678846
23557571 272 16343703279100776253
23559900 14 17275112704051296884
2748010 2 17679562468924308438
474 4 18191584366402524680
568465 68 17095537192026987200
6992083 37 18410009914211591798
77492 1 18411416232717826031

> <PUBCHEM_SHAPE_MULTIPOLES>
327.03
6.91
1.8
1.59
0.75
0.79
0.35
-1.62
1.72
0.5
-0.16
0.23
-0.27
-1.67

> <PUBCHEM_SHAPE_SELFOVERLAP>
697.156

> <PUBCHEM_SHAPE_VOLUME>
178.1

> <PUBCHEM_COORDINATE_TYPE>
2
5
10

$$$$
