135625354
  -OEChem-03292013293D

 51 54  0     1  0  0  0  0  0999 V2000
   -4.4277    0.8513   -0.4428 O   0  0  0  0  0  0  0  0  0  0  0  0
   -1.1559    1.6125    0.2176 O   0  0  0  0  0  0  0  0  0  0  0  0
   -1.5777   -1.4276   -0.0613 O   0  0  0  0  0  0  0  0  0  0  0  0
   -3.6537   -3.1441   -1.1545 O   0  0  0  0  0  0  0  0  0  0  0  0
   -6.3103   -2.2797   -0.2995 O   0  0  0  0  0  0  0  0  0  0  0  0
   -5.5492   -0.1866    1.3661 O   0  0  0  0  0  0  0  0  0  0  0  0
   -2.4433    2.0608   -1.6474 O   0  0  0  0  0  0  0  0  0  0  0  0
    5.0218   -3.1994    0.9999 O   0  0  0  0  0  0  0  0  0  0  0  0
    2.6643    0.5883    0.2858 N   0  0  0  0  0  0  0  0  0  0  0  0
    2.6257   -1.4546    1.1951 N   0  0  0  0  0  0  0  0  0  0  0  0
    4.9057    0.6257   -0.6271 N   0  0  0  0  0  0  0  0  0  0  0  0
    6.0236   -1.4433   -0.1689 N   0  0  0  0  0  0  0  0  0  0  0  0
    7.1115    0.2744   -1.3561 N   0  0  0  0  0  0  0  0  0  0  0  0
   -2.7972   -0.9684   -0.6427 C   0  0  1  0  0  0  0  0  0  0  0  0
   -3.9030   -1.9867   -0.3558 C   0  0  1  0  0  0  0  0  0  0  0  0
   -3.1328    0.3985   -0.0536 C   0  0  1  0  0  0  0  0  0  0  0  0
   -5.2689   -1.4022   -0.7140 C   0  0  2  0  0  0  0  0  0  0  0  0
    2.1799    1.9633   -0.1227 C   0  0  1  0  0  0  0  0  0  0  0  0
    0.9194    1.9611   -1.0173 C   0  0  0  0  0  0  0  0  0  0  0  0
   -0.2126    2.5881   -0.1926 C   0  0  2  0  0  0  0  0  0  0  0  0
   -5.4727   -0.0400   -0.0508 C   0  0  2  0  0  0  0  0  0  0  0  0
    1.7708    2.8126    1.0432 C   0  0  0  0  0  0  0  0  0  0  0  0
   -2.2288    1.4516   -0.6083 C   0  0  0  0  0  0  0  0  0  0  0  0
    0.4777    3.1442    1.0044 C   0  0  0  0  0  0  0  0  0  0  0  0
    3.8869    0.0375    0.0378 C   0  0  0  0  0  0  0  0  0  0  0  0
    1.9410   -0.3474    0.9845 C   0  0  0  0  0  0  0  0  0  0  0  0
    3.8316   -1.2120    0.6066 C   0  0  0  0  0  0  0  0  0  0  0  0
   -6.1770    0.9347    1.9686 C   0  0  0  0  0  0  0  0  0  0  0  0
    4.9795   -2.0721    0.5238 C   0  0  0  0  0  0  0  0  0  0  0  0
    5.9712   -0.1403   -0.7181 C   0  0  0  0  0  0  0  0  0  0  0  0
   -2.6273   -0.8954   -1.7240 H   0  0  0  0  0  0  0  0  0  0  0  0
   -3.8787   -2.3230    0.6870 H   0  0  0  0  0  0  0  0  0  0  0  0
   -3.0620    0.4136    1.0412 H   0  0  0  0  0  0  0  0  0  0  0  0
   -5.3381   -1.2998   -1.8044 H   0  0  0  0  0  0  0  0  0  0  0  0
    3.0178    2.4265   -0.6557 H   0  0  0  0  0  0  0  0  0  0  0  0
    1.1143    2.5951   -1.8923 H   0  0  0  0  0  0  0  0  0  0  0  0
    0.6679    0.9618   -1.3898 H   0  0  0  0  0  0  0  0  0  0  0  0
   -0.6887    3.4096   -0.7419 H   0  0  0  0  0  0  0  0  0  0  0  0
   -6.4207    0.3747   -0.4165 H   0  0  0  0  0  0  0  0  0  0  0  0
    2.4477    3.1129    1.8308 H   0  0  0  0  0  0  0  0  0  0  0  0
   -0.0159    3.7409    1.7583 H   0  0  0  0  0  0  0  0  0  0  0  0
   -1.7083   -1.4943    0.9000 H   0  0  0  0  0  0  0  0  0  0  0  0
   -3.6980   -2.8824   -2.0900 H   0  0  0  0  0  0  0  0  0  0  0  0
   -7.1560   -1.8746   -0.5566 H   0  0  0  0  0  0  0  0  0  0  0  0
    0.9259   -0.1697    1.3119 H   0  0  0  0  0  0  0  0  0  0  0  0
   -5.6294    1.8553    1.7445 H   0  0  0  0  0  0  0  0  0  0  0  0
   -7.2153    1.0211    1.6339 H   0  0  0  0  0  0  0  0  0  0  0  0
   -6.1758    0.7867    3.0519 H   0  0  0  0  0  0  0  0  0  0  0  0
    6.8870   -1.9659   -0.2857 H   0  0  0  0  0  0  0  0  0  0  0  0
    7.1704    1.1930   -1.7818 H   0  0  0  0  0  0  0  0  0  0  0  0
    7.9282   -0.3233   -1.4214 H   0  0  0  0  0  0  0  0  0  0  0  0
  1 16  1  0  0  0  0
  1 21  1  0  0  0  0
  2 20  1  0  0  0  0
  2 23  1  0  0  0  0
  3 14  1  0  0  0  0
  3 42  1  0  0  0  0
  4 15  1  0  0  0  0
  4 43  1  0  0  0  0
  5 17  1  0  0  0  0
  5 44  1  0  0  0  0
  6 21  1  0  0  0  0
  6 28  1  0  0  0  0
  7 23  2  0  0  0  0
  8 29  2  0  0  0  0
  9 18  1  0  0  0  0
  9 25  1  0  0  0  0
  9 26  1  0  0  0  0
 10 26  2  0  0  0  0
 10 27  1  0  0  0  0
 11 25  1  0  0  0  0
 11 30  2  0  0  0  0
 12 29  1  0  0  0  0
 12 30  1  0  0  0  0
 12 49  1  0  0  0  0
 13 30  1  0  0  0  0
 13 50  1  0  0  0  0
 13 51  1  0  0  0  0
 14 15  1  0  0  0  0
 14 16  1  0  0  0  0
 14 31  1  0  0  0  0
 15 17  1  0  0  0  0
 15 32  1  0  0  0  0
 16 23  1  0  0  0  0
 16 33  1  0  0  0  0
 17 21  1  0  0  0  0
 17 34  1  0  0  0  0
 18 19  1  0  0  0  0
 18 22  1  0  0  0  0
 18 35  1  0  0  0  0
 19 20  1  0  0  0  0
 19 36  1  0  0  0  0
 19 37  1  0  0  0  0
 20 24  1  0  0  0  0
 20 38  1  0  0  0  0
 21 39  1  0  0  0  0
 22 24  2  0  0  0  0
 22 40  1  0  0  0  0
 24 41  1  0  0  0  0
 25 27  2  0  0  0  0
 26 45  1  0  0  0  0
 27 29  1  0  0  0  0
 28 46  1  0  0  0  0
 28 47  1  0  0  0  0
 28 48  1  0  0  0  0
M  END
> <PUBCHEM_COMPOUND_CID>
135625354

> <PUBCHEM_CONFORMER_RMSD>
1.2

> <PUBCHEM_CONFORMER_DIVERSEORDER>
1
72
38
74
25
117
115
70
65
106
41
61
87
3
107
39
49
43
66
86
98
112
97
13
105
22
55
40
35
82
36
84
31
101
108
100
45
8
37
7
17
5
75
33
53
114
48
46
110
24
76
10
56
94
71
90
85
73
116
32
50
121
113
88
47
30
91
69
21
102
81
64
16
4
95
92
29
68
58
63
42
2
59
109
15
120
93
89
27
103
9
20
54
99
111
23
11
122
78
44
6
26
34
118
62
18
60
28
14
123
80
51
12
67
79
96
119
104
19
57
52
83
77

> <PUBCHEM_MMFF94_PARTIAL_CHARGES>
38
1 -0.56
10 -0.57
11 -0.58
12 -0.49
13 -0.85
14 0.28
15 0.28
16 0.34
17 0.28
18 0.39
2 -0.43
20 0.42
21 0.56
22 -0.29
23 0.66
24 -0.29
25 -0.03
26 0.04
27 0.14
28 0.28
29 0.72
3 -0.68
30 0.56
4 -0.68
40 0.15
41 0.15
42 0.4
43 0.4
44 0.4
45 0.15
49 0.37
5 -0.68
50 0.4
51 0.4
6 -0.56
7 -0.57
8 -0.57
9 0.05

> <PUBCHEM_EFFECTIVE_ROTOR_COUNT>
6.8

> <PUBCHEM_PHARMACOPHORE_FEATURES>
17
1 1 acceptor
1 12 donor
1 13 donor
1 3 acceptor
1 3 donor
1 4 acceptor
1 4 donor
1 5 acceptor
1 5 donor
1 6 acceptor
1 7 acceptor
1 8 acceptor
3 9 10 26 cation
5 18 19 20 22 24 rings
5 9 10 25 26 27 rings
6 1 14 15 16 17 21 rings
6 11 12 25 27 29 30 rings

> <PUBCHEM_HEAVY_ATOM_COUNT>
30

> <PUBCHEM_ATOM_DEF_STEREO_COUNT>
7

> <PUBCHEM_ATOM_UDEF_STEREO_COUNT>
0

> <PUBCHEM_BOND_DEF_STEREO_COUNT>
0

> <PUBCHEM_BOND_UDEF_STEREO_COUNT>
0

> <PUBCHEM_ISOTOPIC_ATOM_COUNT>
0

> <PUBCHEM_COMPONENT_COUNT>
1

> <PUBCHEM_CACTVS_TAUTO_COUNT>
-1

> <PUBCHEM_CONFORMER_ID>
08157A8A00000001

> <PUBCHEM_MMFF94_ENERGY>
70.0774

> <PUBCHEM_FEATURE_SELFOVERLAP>
86.515

> <PUBCHEM_SHAPE_FINGERPRINT>
10622 236 17680972021309588090
10928967 22 18261659420536906835
117089 54 17971766720649652939
12107183 9 18272379650903318265
12516196 113 18343299280011981840
12553582 1 18340190930274950476
12592606 108 18413106182960331167
12633257 1 18273220807115118765
12788726 201 18339644421593573336
13103583 49 18059863852620863545
13533116 47 18126278882234548585
13631057 29 18410293597688034140
13690498 29 18259982643534358364
14251764 30 18059861623785687454
14420673 8 18413112740890049871
14767858 380 18187093871205112820
14866123 147 18197776601437070249
14931854 50 18186798076232722958
15183329 4 18412825780755013359
15361156 5 18040438793767744421
15537594 2 18335424564453270427
15927050 60 17695341865274421948
16110190 28 18343581858436429012
17492 89 17981320407152872951
17909252 39 18342171142896676914
19246450 95 17912941491569957473
19319366 153 17894625959744319250
20775530 9 18337095852239636383
21267235 1 18337956796257755303
21403212 168 11095888112422317540
221357 26 18335696165442741642
22950370 63 18411418393049582448
23522609 53 18194714581312131957
23559900 14 18269825570985553745
2748736 6 9151168740436332950
2838139 119 9655576301016679825
3004659 81 18261388979193905708
314194 84 18407762529729827514
329604 57 18335700516793004830
335352 9 18411414000147521069
3680242 22 18411707560418338683
4093350 32 16988849414938321368
439807 62 18187363199069888871
44880168 125 17489584516113310662
46194498 28 16805608100691540980
463206 1 18336265742404191315
5104073 3 17845660369173808153
54039377 194 18263648364542620202
56633871 153 18342175540658643203
6823239 73 18341879814769260064
7808743 9 8718536220811645692
7970288 3 18340761563946255766
999808 66 17968672557399434081

> <PUBCHEM_SHAPE_MULTIPOLES>
545.53
16.81
3.47
1.28
1.27
0.08
0.2
-10.41
-0.16
0.23
0.24
-0.56
0.24
-1.71

> <PUBCHEM_SHAPE_SELFOVERLAP>
1180.762

> <PUBCHEM_SHAPE_VOLUME>
296.5

> <PUBCHEM_COORDINATE_TYPE>
2
5
10

$$$$
