135618594
  -OEChem-03292013293D

 32 34  0     1  0  0  0  0  0999 V2000
    3.7667    2.8600    0.6405 Cl  0  0  0  0  0  0  0  0  0  0  0  0
   -2.2429   -0.3885    0.9973 O   0  0  0  0  0  0  0  0  0  0  0  0
   -3.3885    2.3445    0.3062 O   0  0  0  0  0  0  0  0  0  0  0  0
   -4.2299   -2.3217    0.5970 O   0  0  0  0  0  0  0  0  0  0  0  0
    4.2357   -1.9961   -0.4276 O   0  0  0  0  0  0  0  0  0  0  0  0
    0.0254   -0.4396    0.1172 N   0  0  0  0  0  0  0  0  0  0  0  0
   -1.1885    2.1503   -1.4162 N   0  0  0  0  0  0  0  0  0  0  0  0
    1.2761   -2.2395   -0.3315 N   0  0  0  0  0  0  0  0  0  0  0  0
    1.7500    1.2400    0.3925 N   0  0  0  0  0  0  0  0  0  0  0  0
    3.9219    0.2623    0.0734 N   0  0  0  0  0  0  0  0  0  0  0  0
   -1.8425    0.9485   -0.9202 C   0  0  1  0  0  0  0  0  0  0  0  0
   -1.2100    0.3936    0.3577 C   0  0  1  0  0  0  0  0  0  0  0  0
   -3.2838    1.1574   -0.4803 C   0  0  1  0  0  0  0  0  0  0  0  0
   -3.5239   -0.0461    0.4253 C   0  0  1  0  0  0  0  0  0  0  0  0
   -4.0515   -1.2611   -0.3253 C   0  0  0  0  0  0  0  0  0  0  0  0
    1.3222   -0.0187    0.1430 C   0  0  0  0  0  0  0  0  0  0  0  0
    0.0494   -1.7822   -0.1723 C   0  0  0  0  0  0  0  0  0  0  0  0
    2.0637   -1.1435   -0.1358 C   0  0  0  0  0  0  0  0  0  0  0  0
    3.4992   -1.0478   -0.1872 C   0  0  0  0  0  0  0  0  0  0  0  0
    3.0511    1.3282    0.3463 C   0  0  0  0  0  0  0  0  0  0  0  0
   -1.8172    0.1845   -1.7079 H   0  0  0  0  0  0  0  0  0  0  0  0
   -0.9112    1.1777    1.0646 H   0  0  0  0  0  0  0  0  0  0  0  0
   -3.9868    1.2392   -1.3149 H   0  0  0  0  0  0  0  0  0  0  0  0
   -4.1888    0.1895    1.2640 H   0  0  0  0  0  0  0  0  0  0  0  0
   -3.3439   -1.6016   -1.0876 H   0  0  0  0  0  0  0  0  0  0  0  0
   -5.0136   -1.0407   -0.7980 H   0  0  0  0  0  0  0  0  0  0  0  0
   -1.6668    2.4797   -2.2534 H   0  0  0  0  0  0  0  0  0  0  0  0
   -0.2328    1.9325   -1.6943 H   0  0  0  0  0  0  0  0  0  0  0  0
   -4.3125    2.4165    0.6010 H   0  0  0  0  0  0  0  0  0  0  0  0
   -0.8530   -2.3719   -0.2576 H   0  0  0  0  0  0  0  0  0  0  0  0
   -4.5691   -3.0831    0.0964 H   0  0  0  0  0  0  0  0  0  0  0  0
    4.9197    0.4524    0.0644 H   0  0  0  0  0  0  0  0  0  0  0  0
  1 20  1  0  0  0  0
  2 12  1  0  0  0  0
  2 14  1  0  0  0  0
  3 13  1  0  0  0  0
  3 29  1  0  0  0  0
  4 15  1  0  0  0  0
  4 31  1  0  0  0  0
  5 19  2  0  0  0  0
  6 12  1  0  0  0  0
  6 16  1  0  0  0  0
  6 17  1  0  0  0  0
  7 11  1  0  0  0  0
  7 27  1  0  0  0  0
  7 28  1  0  0  0  0
  8 17  2  0  0  0  0
  8 18  1  0  0  0  0
  9 16  1  0  0  0  0
  9 20  2  0  0  0  0
 10 19  1  0  0  0  0
 10 20  1  0  0  0  0
 10 32  1  0  0  0  0
 11 12  1  0  0  0  0
 11 13  1  0  0  0  0
 11 21  1  0  0  0  0
 12 22  1  0  0  0  0
 13 14  1  0  0  0  0
 13 23  1  0  0  0  0
 14 15  1  0  0  0  0
 14 24  1  0  0  0  0
 15 25  1  0  0  0  0
 15 26  1  0  0  0  0
 16 18  2  0  0  0  0
 17 30  1  0  0  0  0
 18 19  1  0  0  0  0
M  END
> <PUBCHEM_COMPOUND_CID>
135618594

> <PUBCHEM_CONFORMER_RMSD>
0.6

> <PUBCHEM_CONFORMER_DIVERSEORDER>
1
9
12
10
14
4
13
5
6
15
2
3
11
16
8
7

> <PUBCHEM_MMFF94_PARTIAL_CHARGES>
26
1 -0.21
10 -0.49
11 0.27
12 0.54
13 0.28
14 0.28
15 0.28
16 -0.03
17 0.04
18 0.14
19 0.72
2 -0.56
20 0.72
27 0.36
28 0.36
29 0.4
3 -0.68
30 0.15
31 0.4
32 0.37
4 -0.68
5 -0.57
6 0.05
7 -0.99
8 -0.57
9 -0.58

> <PUBCHEM_EFFECTIVE_ROTOR_COUNT>
3

> <PUBCHEM_PHARMACOPHORE_FEATURES>
13
1 10 donor
1 2 acceptor
1 3 acceptor
1 3 donor
1 4 acceptor
1 4 donor
1 5 acceptor
1 7 cation
1 7 donor
3 6 8 17 cation
5 2 11 12 13 14 rings
5 6 8 16 17 18 rings
6 9 10 16 18 19 20 rings

> <PUBCHEM_HEAVY_ATOM_COUNT>
20

> <PUBCHEM_ATOM_DEF_STEREO_COUNT>
4

> <PUBCHEM_ATOM_UDEF_STEREO_COUNT>
0

> <PUBCHEM_BOND_DEF_STEREO_COUNT>
0

> <PUBCHEM_BOND_UDEF_STEREO_COUNT>
0

> <PUBCHEM_ISOTOPIC_ATOM_COUNT>
0

> <PUBCHEM_COMPONENT_COUNT>
1

> <PUBCHEM_CACTVS_TAUTO_COUNT>
-1

> <PUBCHEM_CONFORMER_ID>
0815602200000001

> <PUBCHEM_MMFF94_ENERGY>
39.1734

> <PUBCHEM_FEATURE_SELFOVERLAP>
66.121

> <PUBCHEM_SHAPE_FINGERPRINT>
10366900 7 17894636928742055162
10608611 8 18409164376901040001
11132069 177 18114177545120942245
11405975 8 18339642239681309769
11471102 20 18341609257636117612
11615757 297 18131354089651842194
12403259 226 18336542729524770662
12403259 415 18408886243451064212
12403260 363 18410564094063503058
12507557 5 18342453695408875786
12623949 98 17986695820416421479
12633257 1 18191300473010482481
12916754 54 18413673508683599763
12969540 114 17606663740223503421
13140716 1 18337384955046759208
13583140 156 17532906420792344960
14289901 80 18272083920280818097
14787075 74 17771343359912395657
15196674 1 18411419509598485640
15219456 202 18409448068080706561
18175812 5 18408604729961774109
18186145 218 18131641071103543856
19591789 44 18411699893844011462
19930381 70 18197493141647645697
200 152 18060410297114764191
20645477 56 18189619341860713301
20681677 76 18408597067608443917
21065198 57 18339643343477374425
21524375 3 18268425905509657490
21709351 56 18342734079300460510
221490 88 18411986857852028434
23402539 116 17530966839041423567
23557571 272 18040152911996020669
23559900 14 18339072675568176466
2748010 2 18335974307767566868
2871803 45 18335413587086989711
3286 77 18411138026306179692
350125 39 18339927116583270306
5104073 3 18410573976572067001
5283173 99 18041542669361654109
6287921 2 18335994128720099220
77779 3 18412827979867595465
9709674 26 18408889559181771083

> <PUBCHEM_SHAPE_MULTIPOLES>
365.08
8.54
2.81
0.86
0.61
0.53
0.1
-0.08
-0.71
-1.02
0.08
0.34
0.24
1.16

> <PUBCHEM_SHAPE_SELFOVERLAP>
781.286

> <PUBCHEM_SHAPE_VOLUME>
203.2

> <PUBCHEM_COORDINATE_TYPE>
2
5
10

$$$$
