135625281
  -OEChem-03292013293D

 36 39  0     0  0  0  0  0  0999 V2000
   -2.9237   -2.2134    0.9028 O   0  0  0  0  0  0  0  0  0  0  0  0
    2.9560   -2.1916   -0.9678 O   0  0  0  0  0  0  0  0  0  0  0  0
   -1.1984   -0.5190   -0.9255 N   0  0  0  0  0  0  0  0  0  0  0  0
    1.2040   -0.5791    0.9087 N   0  0  0  0  0  0  0  0  0  0  0  0
   -1.8641    1.4647   -1.6968 N   0  0  0  0  0  0  0  0  0  0  0  0
    1.8378    1.3917    1.7374 N   0  0  0  0  0  0  0  0  0  0  0  0
   -4.4545   -0.4851    0.7198 N   0  0  0  0  0  0  0  0  0  0  0  0
    4.4588   -0.4448   -0.7342 N   0  0  0  0  0  0  0  0  0  0  0  0
    4.0493    1.4906    0.6251 N   0  0  0  0  0  0  0  0  0  0  0  0
   -4.0767    1.4955   -0.5824 N   0  0  0  0  0  0  0  0  0  0  0  0
   -6.0738    1.2013    0.6032 N   0  0  0  0  0  0  0  0  0  0  0  0
    6.0507    1.2634   -0.5681 N   0  0  0  0  0  0  0  0  0  0  0  0
   -0.3079   -1.7182   -0.7082 C   0  0  0  0  0  0  0  0  0  0  0  0
    0.3712   -1.7327    0.6674 C   0  0  0  0  0  0  0  0  0  0  0  0
    2.4448   -0.3317    0.3988 C   0  0  0  0  0  0  0  0  0  0  0  0
   -2.4430   -0.3065   -0.4090 C   0  0  0  0  0  0  0  0  0  0  0  0
   -2.8327    0.9192   -0.8961 C   0  0  0  0  0  0  0  0  0  0  0  0
    2.8148    0.8854    0.9215 C   0  0  0  0  0  0  0  0  0  0  0  0
   -0.8934    0.5746   -1.6936 C   0  0  0  0  0  0  0  0  0  0  0  0
    0.8816    0.4865    1.7082 C   0  0  0  0  0  0  0  0  0  0  0  0
   -3.2410   -1.1175    0.4529 C   0  0  0  0  0  0  0  0  0  0  0  0
    3.2558   -1.1043   -0.4861 C   0  0  0  0  0  0  0  0  0  0  0  0
   -4.8323    0.7701    0.2103 C   0  0  0  0  0  0  0  0  0  0  0  0
    4.8163    0.8009   -0.1883 C   0  0  0  0  0  0  0  0  0  0  0  0
    0.9974   -2.6251    0.7736 H   0  0  0  0  0  0  0  0  0  0  0  0
   -0.3753   -1.7706    1.4681 H   0  0  0  0  0  0  0  0  0  0  0  0
   -0.9500   -2.5938   -0.8485 H   0  0  0  0  0  0  0  0  0  0  0  0
    0.4181   -1.6915   -1.5275 H   0  0  0  0  0  0  0  0  0  0  0  0
   -0.0583    0.5498    2.2396 H   0  0  0  0  0  0  0  0  0  0  0  0
    0.0456    0.6669   -2.2220 H   0  0  0  0  0  0  0  0  0  0  0  0
    5.1244   -0.8978   -1.3537 H   0  0  0  0  0  0  0  0  0  0  0  0
   -5.1125   -0.9666    1.3257 H   0  0  0  0  0  0  0  0  0  0  0  0
   -6.6588    0.6428    1.2150 H   0  0  0  0  0  0  0  0  0  0  0  0
   -6.4423    2.0934    0.2919 H   0  0  0  0  0  0  0  0  0  0  0  0
    6.6445    0.7325   -1.1957 H   0  0  0  0  0  0  0  0  0  0  0  0
    6.4048    2.1519   -0.2308 H   0  0  0  0  0  0  0  0  0  0  0  0
  1 21  2  0  0  0  0
  2 22  2  0  0  0  0
  3 13  1  0  0  0  0
  3 16  1  0  0  0  0
  3 19  1  0  0  0  0
  4 14  1  0  0  0  0
  4 15  1  0  0  0  0
  4 20  1  0  0  0  0
  5 17  1  0  0  0  0
  5 19  2  0  0  0  0
  6 18  1  0  0  0  0
  6 20  2  0  0  0  0
  7 21  1  0  0  0  0
  7 23  1  0  0  0  0
  7 32  1  0  0  0  0
  8 22  1  0  0  0  0
  8 24  1  0  0  0  0
  8 31  1  0  0  0  0
  9 18  1  0  0  0  0
  9 24  2  0  0  0  0
 10 17  1  0  0  0  0
 10 23  2  0  0  0  0
 11 23  1  0  0  0  0
 11 33  1  0  0  0  0
 11 34  1  0  0  0  0
 12 24  1  0  0  0  0
 12 35  1  0  0  0  0
 12 36  1  0  0  0  0
 13 14  1  0  0  0  0
 13 27  1  0  0  0  0
 13 28  1  0  0  0  0
 14 25  1  0  0  0  0
 14 26  1  0  0  0  0
 15 18  2  0  0  0  0
 15 22  1  0  0  0  0
 16 17  2  0  0  0  0
 16 21  1  0  0  0  0
 19 30  1  0  0  0  0
 20 29  1  0  0  0  0
M  END
> <PUBCHEM_COMPOUND_CID>
135625281

> <PUBCHEM_CONFORMER_RMSD>
0.6

> <PUBCHEM_CONFORMER_DIVERSEORDER>
2
3
6
14
7
15
4
26
22
16
20
12
1
9
23
21
5
8
19
11
18
13
10
25
24
17

> <PUBCHEM_MMFF94_PARTIAL_CHARGES>
32
1 -0.57
10 -0.57
11 -0.85
12 -0.85
13 0.26
14 0.26
15 -0.24
16 -0.24
17 0.35
18 0.35
19 0.04
2 -0.57
20 0.04
21 0.71
22 0.71
23 0.56
24 0.56
29 0.15
3 0.05
30 0.15
31 0.37
32 0.37
33 0.4
34 0.4
35 0.4
36 0.4
4 0.05
5 -0.57
6 -0.57
7 -0.49
8 -0.49
9 -0.57

> <PUBCHEM_EFFECTIVE_ROTOR_COUNT>
3

> <PUBCHEM_PHARMACOPHORE_FEATURES>
12
1 1 acceptor
1 11 donor
1 12 donor
1 2 acceptor
1 7 donor
1 8 donor
3 3 5 19 cation
3 4 6 20 cation
5 3 5 16 17 19 rings
5 4 6 15 18 20 rings
6 7 10 16 17 21 23 rings
6 8 9 15 18 22 24 rings

> <PUBCHEM_HEAVY_ATOM_COUNT>
24

> <PUBCHEM_ATOM_DEF_STEREO_COUNT>
0

> <PUBCHEM_ATOM_UDEF_STEREO_COUNT>
0

> <PUBCHEM_BOND_DEF_STEREO_COUNT>
0

> <PUBCHEM_BOND_UDEF_STEREO_COUNT>
0

> <PUBCHEM_ISOTOPIC_ATOM_COUNT>
0

> <PUBCHEM_COMPONENT_COUNT>
1

> <PUBCHEM_CACTVS_TAUTO_COUNT>
-1

> <PUBCHEM_CONFORMER_ID>
08157A4100000002

> <PUBCHEM_MMFF94_ENERGY>
46.0404

> <PUBCHEM_FEATURE_SELFOVERLAP>
61.237

> <PUBCHEM_SHAPE_FINGERPRINT>
10165383 225 18411420613399818959
10366900 7 18339629118888425579
10498660 4 17967800626934521821
11370993 144 18341623560009192771
11552529 35 17845370119426281199
11595378 159 16588299445714362229
12011746 2 18410285913896388189
12166972 35 14405177387616285905
12236239 1 15719392832385484790
12633257 1 18337662006766480547
12730499 353 18411706473823469234
128620 24 15864067663263375409
13224815 77 15791725282818460559
14341114 328 16515686640969425364
14787075 74 16081094813188483500
15238133 3 18057311804322292761
18186145 218 17632568396691299618
192875 21 12175615205113588363
19784866 170 18113336393129657675
21033648 29 18272645788108183627
221357 26 17917707972664241545
23557571 272 18187935026942523578
23559900 14 17387977469637693223
25 1 18201714076929409022
2637199 183 17989201534226636929
3009799 131 17203609307577892696
392239 28 16153434973141029241
4098825 35 18187370939656056342
58260988 393 16009028346064893485
6287921 2 17834952349399697932
6442390 28 18186803590686076338
7808743 9 18186798093058962636

> <PUBCHEM_SHAPE_MULTIPOLES>
432.36
11.42
1.93
1.43
0.17
0.62
0.01
-4.68
0.06
-0.01
-0.03
-0.03
-0.29
1.04

> <PUBCHEM_SHAPE_SELFOVERLAP>
963.94

> <PUBCHEM_SHAPE_VOLUME>
227.8

> <PUBCHEM_COORDINATE_TYPE>
2
5
10

$$$$
