135618561
  -OEChem-03292013293D

 35 37  0     1  0  0  0  0  0999 V2000
   -2.0905   -0.1445    1.1923 O   0  0  0  0  0  0  0  0  0  0  0  0
   -1.0203    2.1114   -1.3815 O   0  0  0  0  0  0  0  0  0  0  0  0
   -3.1413    2.5131    0.2852 O   0  0  0  0  0  0  0  0  0  0  0  0
   -5.2722   -0.9659   -0.3203 O   0  0  0  0  0  0  0  0  0  0  0  0
   -1.4041   -2.3427    0.1022 O   0  0  0  0  0  0  0  0  0  0  0  0
    4.6372   -1.2536   -0.3298 O   0  0  0  0  0  0  0  0  0  0  0  0
    0.0088   -0.4637    0.2146 N   0  0  0  0  0  0  0  0  0  0  0  0
    1.5678    1.3245    0.3013 N   0  0  0  0  0  0  0  0  0  0  0  0
    2.0886   -2.2905   -0.2235 N   0  0  0  0  0  0  0  0  0  0  0  0
    3.8560    0.8838    0.0252 N   0  0  0  0  0  0  0  0  0  0  0  0
    3.1277    3.0712    0.3823 N   0  0  0  0  0  0  0  0  0  0  0  0
   -1.6715    0.9738   -0.8544 C   0  0  1  0  0  0  0  0  0  0  0  0
   -1.0422    0.4874    0.4396 C   0  0  1  0  0  0  0  0  0  0  0  0
   -3.0907    1.2734   -0.4204 C   0  0  1  0  0  0  0  0  0  0  0  0
   -3.3624    0.1548    0.5762 C   0  0  1  0  0  0  0  0  0  0  0  0
   -3.8851   -1.1184   -0.0755 C   0  0  0  0  0  0  0  0  0  0  0  0
    1.3313   -0.0253    0.1464 C   0  0  0  0  0  0  0  0  0  0  0  0
   -0.3039   -1.8093    0.0676 C   0  0  0  0  0  0  0  0  0  0  0  0
    2.2943   -0.9452   -0.0662 C   0  0  0  0  0  0  0  0  0  0  0  0
    0.8690   -2.7071   -0.1619 C   0  0  0  0  0  0  0  0  0  0  0  0
    3.7061   -0.4768   -0.1392 C   0  0  0  0  0  0  0  0  0  0  0  0
    2.7972    1.7495    0.2399 C   0  0  0  0  0  0  0  0  0  0  0  0
   -1.6656    0.1871   -1.6184 H   0  0  0  0  0  0  0  0  0  0  0  0
   -0.6880    1.3200    1.0584 H   0  0  0  0  0  0  0  0  0  0  0  0
   -3.7974    1.3304   -1.2532 H   0  0  0  0  0  0  0  0  0  0  0  0
   -4.0461    0.4789    1.3692 H   0  0  0  0  0  0  0  0  0  0  0  0
   -3.7654   -1.9729    0.5979 H   0  0  0  0  0  0  0  0  0  0  0  0
   -3.3874   -1.3429   -1.0232 H   0  0  0  0  0  0  0  0  0  0  0  0
   -1.5445    2.4234   -2.1387 H   0  0  0  0  0  0  0  0  0  0  0  0
   -4.0610    2.6475    0.5712 H   0  0  0  0  0  0  0  0  0  0  0  0
    0.6318   -3.7765   -0.2797 H   0  0  0  0  0  0  0  0  0  0  0  0
   -5.5851   -1.7929   -0.7248 H   0  0  0  0  0  0  0  0  0  0  0  0
    4.7944    1.2704   -0.0135 H   0  0  0  0  0  0  0  0  0  0  0  0
    4.0910    3.3842    0.3313 H   0  0  0  0  0  0  0  0  0  0  0  0
    2.4163    3.7760    0.5428 H   0  0  0  0  0  0  0  0  0  0  0  0
  1 13  1  0  0  0  0
  1 15  1  0  0  0  0
  2 12  1  0  0  0  0
  2 29  1  0  0  0  0
  3 14  1  0  0  0  0
  3 30  1  0  0  0  0
  4 16  1  0  0  0  0
  4 32  1  0  0  0  0
  5 18  2  0  0  0  0
  6 21  2  0  0  0  0
  7 13  1  0  0  0  0
  7 17  1  0  0  0  0
  7 18  1  0  0  0  0
  8 17  1  0  0  0  0
  8 22  2  0  0  0  0
  9 19  1  0  0  0  0
  9 20  2  0  0  0  0
 10 21  1  0  0  0  0
 10 22  1  0  0  0  0
 10 33  1  0  0  0  0
 11 22  1  0  0  0  0
 11 34  1  0  0  0  0
 11 35  1  0  0  0  0
 12 13  1  0  0  0  0
 12 14  1  0  0  0  0
 12 23  1  0  0  0  0
 13 24  1  0  0  0  0
 14 15  1  0  0  0  0
 14 25  1  0  0  0  0
 15 16  1  0  0  0  0
 15 26  1  0  0  0  0
 16 27  1  0  0  0  0
 16 28  1  0  0  0  0
 17 19  2  0  0  0  0
 18 20  1  0  0  0  0
 19 21  1  0  0  0  0
 20 31  1  0  0  0  0
M  END
> <PUBCHEM_COMPOUND_CID>
135618561

> <PUBCHEM_CONFORMER_RMSD>
0.6

> <PUBCHEM_CONFORMER_DIVERSEORDER>
1
7
9
8
5
3
2
6
4

> <PUBCHEM_MMFF94_PARTIAL_CHARGES>
29
1 -0.56
10 -0.49
11 -0.85
12 0.28
13 0.58
14 0.28
15 0.28
16 0.28
17 0.28
18 0.63
19 0.19
2 -0.68
20 0.39
21 0.62
22 0.56
29 0.4
3 -0.68
30 0.4
31 0.06
32 0.4
33 0.37
34 0.4
35 0.4
4 -0.68
5 -0.57
6 -0.57
7 -0.47
8 -0.62
9 -0.62

> <PUBCHEM_EFFECTIVE_ROTOR_COUNT>
3

> <PUBCHEM_PHARMACOPHORE_FEATURES>
15
1 1 acceptor
1 10 donor
1 11 donor
1 2 acceptor
1 2 donor
1 3 acceptor
1 3 donor
1 4 acceptor
1 4 donor
1 5 acceptor
1 6 acceptor
1 9 acceptor
5 1 12 13 14 15 rings
6 7 9 17 18 19 20 rings
6 8 10 17 19 21 22 rings

> <PUBCHEM_HEAVY_ATOM_COUNT>
22

> <PUBCHEM_ATOM_DEF_STEREO_COUNT>
4

> <PUBCHEM_ATOM_UDEF_STEREO_COUNT>
0

> <PUBCHEM_BOND_DEF_STEREO_COUNT>
0

> <PUBCHEM_BOND_UDEF_STEREO_COUNT>
0

> <PUBCHEM_ISOTOPIC_ATOM_COUNT>
0

> <PUBCHEM_COMPONENT_COUNT>
1

> <PUBCHEM_CACTVS_TAUTO_COUNT>
-1

> <PUBCHEM_CONFORMER_ID>
0815600100000001

> <PUBCHEM_MMFF94_ENERGY>
67.6743

> <PUBCHEM_FEATURE_SELFOVERLAP>
76.241

> <PUBCHEM_SHAPE_FINGERPRINT>
10366900 7 17967540051490219418
10608611 8 18409166588830186088
10871710 139 17037551423001425772
10967382 1 18338799021473372794
12011746 2 18333733511364584591
12403259 226 18335697187850394252
12403259 415 18409164415624414932
12403260 363 18410567388234749874
12633257 1 18118681015614295041
13140716 1 18337674230058729906
13583140 156 17241028990193592992
14787075 74 18058729259800024657
15196674 1 18410856534202327656
15375462 6 18408041797235902431
16945 1 18411698742976996106
17802600 8 18408602556708510446
18186145 218 18201727214806813888
19591789 44 18410575093448543150
19930381 70 18341046440648003849
200 152 18131347505830935123
21267235 1 18412272730638029231
21501502 16 18191302685208809483
21524375 3 18408042918312349314
221490 88 18338524036198144763
23227448 37 18340766047781076934
2334 1 18195529427028277810
23402539 116 17822290141449444551
23557571 272 17458625580220997469
23559900 14 18340480080268256193
238 59 18049690015287919213
25 1 18265331703500212278
2748010 2 18266187316878419394
2871803 45 18409160018052560167
3286 77 18411136930984238564
335352 9 18267023851921753086
350125 39 18339363071339342024
3524813 1 18261391096807818620
5104073 3 18410011009433553752
58051976 378 18341889688730196551
6333272 397 18411134774878786522
69090 78 18340485659420522883
81228 2 17832692848783127466
9709674 26 18411707560297389603

> <PUBCHEM_SHAPE_MULTIPOLES>
392.63
7.94
2.95
0.8
1.49
0.32
0.06
0.46
0.22
-1.01
0.14
0.32
0.21
0.5

> <PUBCHEM_SHAPE_SELFOVERLAP>
858.833

> <PUBCHEM_SHAPE_VOLUME>
210.8

> <PUBCHEM_COORDINATE_TYPE>
2
5
10

$$$$
