135623238
  -OEChem-03292013293D

 35 36  0     0  0  0  0  0  0999 V2000
   -2.9134    2.0035   -0.0610 O   0  0  0  0  0  0  0  0  0  0  0  0
   -1.1827   -1.7779   -0.1216 O   0  0  0  0  0  0  0  0  0  0  0  0
   -5.0767    1.0383    0.0941 O   0  0  0  0  0  0  0  0  0  0  0  0
   -0.8595    2.9510   -0.1034 O   0  0  0  0  0  0  0  0  0  0  0  0
   -4.3773   -1.9443    1.2897 O   0  0  0  0  0  0  0  0  0  0  0  0
    6.7668   -0.4210   -0.2864 O   0  0  0  0  0  0  0  0  0  0  0  0
    1.3022   -0.1878    0.6816 N   0  0  0  0  0  0  0  0  0  0  0  0
   -0.9402    0.5853   -0.0938 C   0  0  0  0  0  0  0  0  0  0  0  0
   -1.7219   -0.5066   -0.0582 C   0  0  0  0  0  0  0  0  0  0  0  0
   -3.1635   -0.3842    0.0246 C   0  0  0  0  0  0  0  0  0  0  0  0
    0.5200    0.4174   -0.1699 C   0  0  0  0  0  0  0  0  0  0  0  0
   -1.5495    1.9368   -0.0819 C   0  0  0  0  0  0  0  0  0  0  0  0
   -3.7147    0.8409    0.0120 C   0  0  0  0  0  0  0  0  0  0  0  0
    1.2117    1.0190   -1.3795 C   0  0  0  0  0  0  0  0  0  0  0  0
   -4.0606   -1.5417    0.1718 C   0  0  0  0  0  0  0  0  0  0  0  0
    2.6833   -0.2468    0.4370 C   0  0  0  0  0  0  0  0  0  0  0  0
    3.5199    0.7618    0.9150 C   0  0  0  0  0  0  0  0  0  0  0  0
    3.2189   -1.3140   -0.2839 C   0  0  0  0  0  0  0  0  0  0  0  0
   -4.5737   -2.1968   -1.0820 C   0  0  0  0  0  0  0  0  0  0  0  0
    4.8922    0.7034    0.6719 C   0  0  0  0  0  0  0  0  0  0  0  0
    4.5912   -1.3726   -0.5271 C   0  0  0  0  0  0  0  0  0  0  0  0
    5.4277   -0.3639   -0.0492 C   0  0  0  0  0  0  0  0  0  0  0  0
    1.8896    1.8255   -1.0872 H   0  0  0  0  0  0  0  0  0  0  0  0
    0.4705    1.4578   -2.0568 H   0  0  0  0  0  0  0  0  0  0  0  0
    1.7369    0.2582   -1.9627 H   0  0  0  0  0  0  0  0  0  0  0  0
    3.1121    1.5969    1.4786 H   0  0  0  0  0  0  0  0  0  0  0  0
    2.5751   -2.1053   -0.6593 H   0  0  0  0  0  0  0  0  0  0  0  0
   -4.1488   -1.7268   -1.9736 H   0  0  0  0  0  0  0  0  0  0  0  0
   -5.6617   -2.0994   -1.1199 H   0  0  0  0  0  0  0  0  0  0  0  0
   -4.2891   -3.2522   -1.0783 H   0  0  0  0  0  0  0  0  0  0  0  0
   -1.8942   -2.4377   -0.1054 H   0  0  0  0  0  0  0  0  0  0  0  0
    5.5388    1.4920    1.0468 H   0  0  0  0  0  0  0  0  0  0  0  0
    4.9960   -2.2094   -1.0899 H   0  0  0  0  0  0  0  0  0  0  0  0
   -5.2039    2.0029    0.0761 H   0  0  0  0  0  0  0  0  0  0  0  0
    6.9621   -1.2249   -0.7980 H   0  0  0  0  0  0  0  0  0  0  0  0
  1 12  1  0  0  0  0
  1 13  1  0  0  0  0
  2  9  1  0  0  0  0
  2 31  1  0  0  0  0
  3 13  1  0  0  0  0
  3 34  1  0  0  0  0
  4 12  2  0  0  0  0
  5 15  2  0  0  0  0
  6 22  1  0  0  0  0
  6 35  1  0  0  0  0
  7 11  2  0  0  0  0
  7 16  1  0  0  0  0
  8  9  2  0  0  0  0
  8 11  1  0  0  0  0
  8 12  1  0  0  0  0
  9 10  1  0  0  0  0
 10 13  2  0  0  0  0
 10 15  1  0  0  0  0
 11 14  1  0  0  0  0
 14 23  1  0  0  0  0
 14 24  1  0  0  0  0
 14 25  1  0  0  0  0
 15 19  1  0  0  0  0
 16 17  2  0  0  0  0
 16 18  1  0  0  0  0
 17 20  1  0  0  0  0
 17 26  1  0  0  0  0
 18 21  2  0  0  0  0
 18 27  1  0  0  0  0
 19 28  1  0  0  0  0
 19 29  1  0  0  0  0
 19 30  1  0  0  0  0
 20 22  2  0  0  0  0
 20 32  1  0  0  0  0
 21 22  1  0  0  0  0
 21 33  1  0  0  0  0
M  END
> <PUBCHEM_COMPOUND_CID>
135623238

> <PUBCHEM_CONFORMER_RMSD>
0.6

> <PUBCHEM_CONFORMER_DIVERSEORDER>
2
3
7
6
10
5
8
9
1
4

> <PUBCHEM_MMFF94_PARTIAL_CHARGES>
29
1 -0.23
10 0.01
11 0.37
12 0.71
13 0.15
14 0.06
15 0.49
16 0.18
17 -0.15
18 -0.15
19 0.06
2 -0.53
20 -0.15
21 -0.15
22 0.08
26 0.15
27 0.15
3 -0.53
31 0.45
32 0.15
33 0.15
34 0.45
35 0.45
4 -0.57
5 -0.57
6 -0.53
7 -0.63
8 0.03
9 0.08

> <PUBCHEM_EFFECTIVE_ROTOR_COUNT>
3

> <PUBCHEM_PHARMACOPHORE_FEATURES>
8
1 2 donor
1 3 donor
1 4 acceptor
1 5 acceptor
1 6 donor
1 7 acceptor
6 1 8 9 10 12 13 rings
6 16 17 18 20 21 22 rings

> <PUBCHEM_HEAVY_ATOM_COUNT>
22

> <PUBCHEM_ATOM_DEF_STEREO_COUNT>
0

> <PUBCHEM_ATOM_UDEF_STEREO_COUNT>
0

> <PUBCHEM_BOND_DEF_STEREO_COUNT>
0

> <PUBCHEM_BOND_UDEF_STEREO_COUNT>
0

> <PUBCHEM_ISOTOPIC_ATOM_COUNT>
0

> <PUBCHEM_COMPONENT_COUNT>
1

> <PUBCHEM_CACTVS_TAUTO_COUNT>
-1

> <PUBCHEM_CONFORMER_ID>
0815724600000002

> <PUBCHEM_MMFF94_ENERGY>
74.5532

> <PUBCHEM_FEATURE_SELFOVERLAP>
40.597

> <PUBCHEM_SHAPE_FINGERPRINT>
10411042 1 18266178521370998563
10595046 47 18334579023754599598
11045977 3 18201432588503489273
11315181 36 17821730559093138050
11370993 144 17631181800753802075
11552529 35 17632007641534894167
12107183 9 17543909001907895202
12236239 1 17676209043815793620
12616971 3 17167872949653424188
12633257 1 16415200113096630435
13140716 1 18339368569451901833
13288520 33 18411138052260677583
13544653 18 18410574028359664943
13583140 156 17917986161737483700
14341114 176 18273217508569725040
15196674 1 18412261744290546962
15880784 105 17917992831811359371
17349148 13 17603589625390556728
17834072 33 18261397758550027644
17844677 252 18201723976565327984
1813 80 17603585235955222652
18927931 339 18413392042428673327
193927 3 18041571337688196571
200 152 17967813859733807785
21033648 29 17845919771659353056
21065201 7 18335696088486537608
21267235 1 18335707182355667867
2297311 6 18413114952697915628
23402539 116 18412820300508268471
23557571 272 18343024388813811076
23559900 14 18341324535527286560
335352 9 18409727357995314749
34797466 226 18059308664190200596
34934 24 18335694989222809979
3545911 37 18411981321813120768
4073 2 18334300864139694698
4214541 1 18341331119696060656
5104073 3 18341609279179533250
59755656 215 18409165472555713071
67856867 119 18187935040123247300
7495541 125 18059852883558920888
77779 3 18341612586357091320
9709674 26 18411423907962060014

> <PUBCHEM_SHAPE_MULTIPOLES>
412.55
12.92
2.26
0.91
9.87
0.46
-0.05
-4.66
0.44
-2.6
-0.21
-0.04
-0.12
0.4

> <PUBCHEM_SHAPE_SELFOVERLAP>
889.039

> <PUBCHEM_SHAPE_VOLUME>
226.4

> <PUBCHEM_COORDINATE_TYPE>
2
5
10

$$$$
