135625263
  -OEChem-03292013293D

 32 34  0     1  0  0  0  0  0999 V2000
   -1.7319   -0.3779    1.0993 O   0  0  0  0  0  0  0  0  0  0  0  0
   -2.5648    2.2555   -1.1890 O   0  0  0  0  0  0  0  0  0  0  0  0
   -4.4112    0.7606    0.1531 O   0  0  0  0  0  0  0  0  0  0  0  0
   -1.6914   -3.1248    0.5412 O   0  0  0  0  0  0  0  0  0  0  0  0
    1.0294   -1.0700   -0.0356 O   0  0  0  0  0  0  0  0  0  0  0  0
    4.5312    1.0170   -0.1386 O   0  0  0  0  0  0  0  0  0  0  0  0
    0.5008    2.4186    0.5142 N   0  0  0  0  0  0  0  0  0  0  0  0
    1.8326    2.2615    0.3411 N   0  0  0  0  0  0  0  0  0  0  0  0
    3.4049   -0.9888   -0.2928 N   0  0  0  0  0  0  0  0  0  0  0  0
    2.1640   -2.9914   -0.4338 N   0  0  0  0  0  0  0  0  0  0  0  0
   -2.1953    0.9443   -0.8119 C   0  0  2  0  0  0  0  0  0  0  0  0
   -3.3902    0.0494   -0.5464 C   0  0  1  0  0  0  0  0  0  0  0  0
   -1.4659    0.9191    0.5266 C   0  0  2  0  0  0  0  0  0  0  0  0
   -2.8018   -1.0168    0.3687 C   0  0  1  0  0  0  0  0  0  0  0  0
    0.0177    1.1746    0.3942 C   0  0  0  0  0  0  0  0  0  0  0  0
   -2.2199   -2.1999   -0.3929 C   0  0  0  0  0  0  0  0  0  0  0  0
    1.0393    0.2574    0.1495 C   0  0  0  0  0  0  0  0  0  0  0  0
    2.2004    0.9680    0.1179 C   0  0  0  0  0  0  0  0  0  0  0  0
    3.4834    0.3828   -0.1093 C   0  0  0  0  0  0  0  0  0  0  0  0
    2.2686   -1.6392   -0.2556 C   0  0  0  0  0  0  0  0  0  0  0  0
   -1.5717    0.5141   -1.6054 H   0  0  0  0  0  0  0  0  0  0  0  0
   -1.8896    1.6645    1.2127 H   0  0  0  0  0  0  0  0  0  0  0  0
   -3.8373   -0.3440   -1.4643 H   0  0  0  0  0  0  0  0  0  0  0  0
   -3.5226   -1.3719    1.1138 H   0  0  0  0  0  0  0  0  0  0  0  0
   -1.4065   -1.8935   -1.0573 H   0  0  0  0  0  0  0  0  0  0  0  0
   -2.9940   -2.7015   -0.9819 H   0  0  0  0  0  0  0  0  0  0  0  0
   -3.1168    2.1844   -1.9863 H   0  0  0  0  0  0  0  0  0  0  0  0
   -5.1290    0.1309    0.3375 H   0  0  0  0  0  0  0  0  0  0  0  0
    2.4236    3.0822    0.3895 H   0  0  0  0  0  0  0  0  0  0  0  0
   -1.3263   -3.8689    0.0328 H   0  0  0  0  0  0  0  0  0  0  0  0
    2.9824   -3.5648   -0.6069 H   0  0  0  0  0  0  0  0  0  0  0  0
    1.2646   -3.4588   -0.3983 H   0  0  0  0  0  0  0  0  0  0  0  0
  1 13  1  0  0  0  0
  1 14  1  0  0  0  0
  2 11  1  0  0  0  0
  2 27  1  0  0  0  0
  3 12  1  0  0  0  0
  3 28  1  0  0  0  0
  4 16  1  0  0  0  0
  4 30  1  0  0  0  0
  5 17  1  0  0  0  0
  5 20  1  0  0  0  0
  6 19  2  0  0  0  0
  7  8  1  0  0  0  0
  7 15  2  0  0  0  0
  8 18  1  0  0  0  0
  8 29  1  0  0  0  0
  9 19  1  0  0  0  0
  9 20  2  0  0  0  0
 10 20  1  0  0  0  0
 10 31  1  0  0  0  0
 10 32  1  0  0  0  0
 11 12  1  0  0  0  0
 11 13  1  0  0  0  0
 11 21  1  0  0  0  0
 12 14  1  0  0  0  0
 12 23  1  0  0  0  0
 13 15  1  0  0  0  0
 13 22  1  0  0  0  0
 14 16  1  0  0  0  0
 14 24  1  0  0  0  0
 15 17  1  0  0  0  0
 16 25  1  0  0  0  0
 16 26  1  0  0  0  0
 17 18  2  0  0  0  0
 18 19  1  0  0  0  0
M  END
> <PUBCHEM_COMPOUND_CID>
135625263

> <PUBCHEM_CONFORMER_RMSD>
0.6

> <PUBCHEM_CONFORMER_DIVERSEORDER>
1
13
11
23
9
17
26
27
7
4
16
24
8
31
2
15
22
19
20
12
10
25
29
3
5
6
18
28
30
14
21

> <PUBCHEM_MMFF94_PARTIAL_CHARGES>
26
1 -0.56
10 -0.85
11 0.28
12 0.28
13 0.46
14 0.28
15 0.11
16 0.28
17 0.06
18 -0.24
19 0.87
2 -0.68
20 0.65
27 0.4
28 0.4
29 0.27
3 -0.68
30 0.4
31 0.4
32 0.4
4 -0.68
5 -0.21
6 -0.57
7 -0.71
8 0.3
9 -0.66

> <PUBCHEM_EFFECTIVE_ROTOR_COUNT>
3

> <PUBCHEM_PHARMACOPHORE_FEATURES>
15
1 1 acceptor
1 10 donor
1 2 acceptor
1 2 donor
1 3 acceptor
1 3 donor
1 4 acceptor
1 4 donor
1 6 acceptor
1 7 acceptor
1 8 donor
1 9 donor
5 1 11 12 13 14 rings
5 7 8 15 17 18 rings
6 5 9 17 18 19 20 rings

> <PUBCHEM_HEAVY_ATOM_COUNT>
20

> <PUBCHEM_ATOM_DEF_STEREO_COUNT>
3

> <PUBCHEM_ATOM_UDEF_STEREO_COUNT>
1

> <PUBCHEM_BOND_DEF_STEREO_COUNT>
0

> <PUBCHEM_BOND_UDEF_STEREO_COUNT>
0

> <PUBCHEM_ISOTOPIC_ATOM_COUNT>
0

> <PUBCHEM_COMPONENT_COUNT>
1

> <PUBCHEM_CACTVS_TAUTO_COUNT>
-1

> <PUBCHEM_CONFORMER_ID>
08157A2F00000001

> <PUBCHEM_MMFF94_ENERGY>
46.5111

> <PUBCHEM_FEATURE_SELFOVERLAP>
76.294

> <PUBCHEM_SHAPE_FINGERPRINT>
10616163 171 18339363092381993198
10967382 1 18412264999849545962
11132069 177 18411698833229117426
12500047 106 18408598180242279077
12553582 1 17909563752730408118
12788726 201 17488756566493064001
13140716 1 18197212757507634544
14115302 16 18334868224576038573
14178342 30 18343017809156191768
14251745 187 18337386162085608762
14790565 3 18123758556470740361
15196674 1 18412265051304893878
15375358 24 18411976957783294304
15635459 17 18271250425984705142
16945 1 18411985775335530280
19107657 46 18412546543535086438
19930381 70 18124034533831081903
200 152 17917708028514367445
20201158 50 18410856563976961499
20645477 70 18130787806935577358
221490 88 18266746976944751938
22802520 49 18261956348979657649
2334 1 17835803375556777314
23402539 116 17385715937090147572
23559900 14 18196082245402125058
238 59 17903878281192326863
2748010 2 18266464213087449306
2871803 45 18122897892031482623
34934 24 18412822486667746962
69090 78 18409443679204281263
8809292 202 18336265742377642123
9709674 26 18411984680192989127

> <PUBCHEM_SHAPE_MULTIPOLES>
356.45
6.79
2.95
0.82
1.06
1.55
0.04
-0.25
0.82
0.02
0.09
-0.42
-0.12
0.72

> <PUBCHEM_SHAPE_SELFOVERLAP>
780.272

> <PUBCHEM_SHAPE_VOLUME>
191

> <PUBCHEM_COORDINATE_TYPE>
2
5
10

$$$$
