135625262
  -OEChem-03292013293D

 34 36  0     1  0  0  0  0  0999 V2000
   -3.1833   -2.7819    2.1680 I   0  0  0  0  0  0  0  0  0  0  0  0
   -1.6945   -0.0111    1.0977 O   0  0  0  0  0  0  0  0  0  0  0  0
   -3.0013    2.3593   -0.5569 O   0  0  0  0  0  0  0  0  0  0  0  0
   -3.5313    0.0893   -1.9869 O   0  0  0  0  0  0  0  0  0  0  0  0
    4.5901   -0.1605   -0.2850 O   0  0  0  0  0  0  0  0  0  0  0  0
    0.3232    1.1628    0.3913 N   0  0  0  0  0  0  0  0  0  0  0  0
    2.4590    1.8212    0.3113 N   0  0  0  0  0  0  0  0  0  0  0  0
    0.5671   -1.1959   -0.0944 N   0  0  0  0  0  0  0  0  0  0  0  0
    0.7482    3.4427    0.7964 N   0  0  0  0  0  0  0  0  0  0  0  0
    2.8765   -1.7408   -0.4268 N   0  0  0  0  0  0  0  0  0  0  0  0
    1.2136   -3.3998   -0.5891 N   0  0  0  0  0  0  0  0  0  0  0  0
   -1.1799    1.2253    0.5513 C   0  0  1  0  0  0  0  0  0  0  0  0
   -1.9098    1.4653   -0.7735 C   0  0  1  0  0  0  0  0  0  0  0  0
   -2.4024    0.0788   -1.1401 C   0  0  1  0  0  0  0  0  0  0  0  0
   -2.7131   -0.5182    0.2204 C   0  0  1  0  0  0  0  0  0  0  0  0
   -2.6943   -2.0365    0.2333 C   0  0  0  0  0  0  0  0  0  0  0  0
    1.0549    0.0490    0.1016 C   0  0  0  0  0  0  0  0  0  0  0  0
    1.2124    2.2032    0.5081 C   0  0  0  0  0  0  0  0  0  0  0  0
    2.3571    0.4849    0.0596 C   0  0  0  0  0  0  0  0  0  0  0  0
    3.4034   -0.4571   -0.2270 C   0  0  0  0  0  0  0  0  0  0  0  0
    1.5044   -2.0801   -0.3591 C   0  0  0  0  0  0  0  0  0  0  0  0
   -1.3748    1.9986    1.3003 H   0  0  0  0  0  0  0  0  0  0  0  0
   -1.2847    1.9034   -1.5580 H   0  0  0  0  0  0  0  0  0  0  0  0
   -1.6003   -0.4821   -1.6332 H   0  0  0  0  0  0  0  0  0  0  0  0
   -3.6835   -0.1523    0.5819 H   0  0  0  0  0  0  0  0  0  0  0  0
   -1.7115   -2.4231   -0.0460 H   0  0  0  0  0  0  0  0  0  0  0  0
   -3.4145   -2.4248   -0.4953 H   0  0  0  0  0  0  0  0  0  0  0  0
   -2.6259    3.2123   -0.2788 H   0  0  0  0  0  0  0  0  0  0  0  0
   -3.2901    0.5849   -2.7880 H   0  0  0  0  0  0  0  0  0  0  0  0
    1.3849    4.2274    0.8941 H   0  0  0  0  0  0  0  0  0  0  0  0
   -0.2346    3.6706    0.8982 H   0  0  0  0  0  0  0  0  0  0  0  0
    3.5331   -2.4870   -0.6371 H   0  0  0  0  0  0  0  0  0  0  0  0
    0.2589   -3.7406   -0.5631 H   0  0  0  0  0  0  0  0  0  0  0  0
    1.9434   -4.0740   -0.7924 H   0  0  0  0  0  0  0  0  0  0  0  0
  1 16  1  0  0  0  0
  2 12  1  0  0  0  0
  2 15  1  0  0  0  0
  3 13  1  0  0  0  0
  3 28  1  0  0  0  0
  4 14  1  0  0  0  0
  4 29  1  0  0  0  0
  5 20  2  0  0  0  0
  6 12  1  0  0  0  0
  6 17  1  0  0  0  0
  6 18  1  0  0  0  0
  7 18  2  0  0  0  0
  7 19  1  0  0  0  0
  8 17  1  0  0  0  0
  8 21  2  0  0  0  0
  9 18  1  0  0  0  0
  9 30  1  0  0  0  0
  9 31  1  0  0  0  0
 10 20  1  0  0  0  0
 10 21  1  0  0  0  0
 10 32  1  0  0  0  0
 11 21  1  0  0  0  0
 11 33  1  0  0  0  0
 11 34  1  0  0  0  0
 12 13  1  0  0  0  0
 12 22  1  0  0  0  0
 13 14  1  0  0  0  0
 13 23  1  0  0  0  0
 14 15  1  0  0  0  0
 14 24  1  0  0  0  0
 15 16  1  0  0  0  0
 15 25  1  0  0  0  0
 16 26  1  0  0  0  0
 16 27  1  0  0  0  0
 17 19  2  0  0  0  0
 19 20  1  0  0  0  0
M  END
> <PUBCHEM_COMPOUND_CID>
135625262

> <PUBCHEM_CONFORMER_RMSD>
0.6

> <PUBCHEM_CONFORMER_DIVERSEORDER>
2
14
15
3
9
12
16
6
17
11
5
1
7
13
20
18
19
8
4
10
21

> <PUBCHEM_MMFF94_PARTIAL_CHARGES>
28
1 -0.19
10 -0.49
11 -0.85
12 0.54
13 0.28
14 0.28
15 0.28
16 0.19
17 -0.03
18 0.27
19 0.14
2 -0.56
20 0.72
21 0.56
28 0.4
29 0.4
3 -0.68
30 0.4
31 0.4
32 0.37
33 0.4
34 0.4
4 -0.68
5 -0.57
6 0.05
7 -0.57
8 -0.58
9 -0.88

> <PUBCHEM_EFFECTIVE_ROTOR_COUNT>
3

> <PUBCHEM_PHARMACOPHORE_FEATURES>
14
1 1 hydrophobe
1 10 donor
1 11 donor
1 2 acceptor
1 3 acceptor
1 3 donor
1 4 acceptor
1 4 donor
1 5 acceptor
1 9 donor
4 6 7 9 18 cation
5 2 12 13 14 15 rings
5 6 7 17 18 19 rings
6 8 10 17 19 20 21 rings

> <PUBCHEM_HEAVY_ATOM_COUNT>
21

> <PUBCHEM_ATOM_DEF_STEREO_COUNT>
4

> <PUBCHEM_ATOM_UDEF_STEREO_COUNT>
0

> <PUBCHEM_BOND_DEF_STEREO_COUNT>
0

> <PUBCHEM_BOND_UDEF_STEREO_COUNT>
0

> <PUBCHEM_ISOTOPIC_ATOM_COUNT>
0

> <PUBCHEM_COMPONENT_COUNT>
1

> <PUBCHEM_CACTVS_TAUTO_COUNT>
-1

> <PUBCHEM_CONFORMER_ID>
08157A2E00000002

> <PUBCHEM_MMFF94_ENERGY>
52.5564

> <PUBCHEM_FEATURE_SELFOVERLAP>
71.237

> <PUBCHEM_SHAPE_FINGERPRINT>
10064457 181 17263590075643066115
10967382 1 18124878958496735584
11582403 64 16462128476662505069
12403259 226 18264773327571228578
12553582 1 18197502831151094866
12596599 1 17344645948251887335
13140716 1 18413393116260350128
13583140 156 16812313038393296720
1420 336 17331963820106476038
14790565 3 16317543986073678493
16945 1 18341044198442277777
17357779 13 17972310978873408655
19591789 44 17546454835093161980
200 152 17846206770143178541
20645477 70 18122898987495854931
20739085 24 17831327221271640595
21160774 45 17691116458688193735
221490 88 18337115678109348538
22182313 1 18192423301920911952
22802520 49 18335977644988758689
2334 1 18341612663534763792
23557571 272 17751069426622062517
23559900 14 18262509407233350252
238 59 18126257939372874031
2748010 2 18120646096443776937
34934 24 18127123078919763416
458136 41 17547305848165938481
81228 2 17694221071661538672
8809292 202 18333734632372173715
9709674 26 18410575046256787023

> <PUBCHEM_SHAPE_MULTIPOLES>
390.74
6.37
3.62
1.35
0.77
0.28
-0.02
2.65
-0.4
-0.59
-0.43
-1.59
0.19
2.45

> <PUBCHEM_SHAPE_SELFOVERLAP>
825.457

> <PUBCHEM_SHAPE_VOLUME>
225

> <PUBCHEM_COORDINATE_TYPE>
2
5
10

$$$$
