135601234
  -OEChem-03292013293D

 34 36  0     1  0  0  0  0  0999 V2000
   -3.2896    2.4266   -1.2921 S   0  0  0  0  0  0  0  0  0  0  0  0
   -1.4033    0.0212   -0.9399 O   0  0  0  0  0  0  0  0  0  0  0  0
   -1.3536   -3.2410    0.4967 O   0  0  0  0  0  0  0  0  0  0  0  0
   -3.3211   -1.2423    1.8144 O   0  0  0  0  0  0  0  0  0  0  0  0
    4.9213    0.5981    0.2032 O   0  0  0  0  0  0  0  0  0  0  0  0
    0.7662   -1.0088   -0.5772 N   0  0  0  0  0  0  0  0  0  0  0  0
    2.9586   -1.4267   -0.7337 N   0  0  0  0  0  0  0  0  0  0  0  0
    0.8076    1.2004    0.4192 N   0  0  0  0  0  0  0  0  0  0  0  0
    3.0777    1.9128    0.7723 N   0  0  0  0  0  0  0  0  0  0  0  0
   -1.3413   -1.8256    0.5627 C   0  0  2  0  0  0  0  0  0  0  0  0
   -2.7426   -1.2566    0.5234 C   0  0  2  0  0  0  0  0  0  0  0  0
   -0.7229   -1.2276   -0.6975 C   0  0  1  0  0  0  0  0  0  0  0  0
   -2.4839    0.1451   -0.0005 C   0  0  2  0  0  0  0  0  0  0  0  0
   -3.6870    0.7634   -0.6898 C   0  0  0  0  0  0  0  0  0  0  0  0
    1.4002    0.0884   -0.0736 C   0  0  0  0  0  0  0  0  0  0  0  0
    1.7458   -1.8923   -0.9607 C   0  0  0  0  0  0  0  0  0  0  0  0
    2.7418   -0.1979   -0.1835 C   0  0  0  0  0  0  0  0  0  0  0  0
    3.7103    0.7692    0.2661 C   0  0  0  0  0  0  0  0  0  0  0  0
   -3.4720    3.3236    0.2668 C   0  0  0  0  0  0  0  0  0  0  0  0
    1.6879    2.0700    0.8235 C   0  0  0  0  0  0  0  0  0  0  0  0
   -0.8075   -1.5332    1.4742 H   0  0  0  0  0  0  0  0  0  0  0  0
   -0.8480   -1.8622   -1.5831 H   0  0  0  0  0  0  0  0  0  0  0  0
   -3.3915   -1.8380   -0.1415 H   0  0  0  0  0  0  0  0  0  0  0  0
   -2.1422    0.7875    0.8206 H   0  0  0  0  0  0  0  0  0  0  0  0
   -4.5600    0.7981   -0.0305 H   0  0  0  0  0  0  0  0  0  0  0  0
   -3.9571    0.1708   -1.5707 H   0  0  0  0  0  0  0  0  0  0  0  0
   -1.8283   -3.5062   -0.3094 H   0  0  0  0  0  0  0  0  0  0  0  0
   -2.7468   -0.7243    2.4034 H   0  0  0  0  0  0  0  0  0  0  0  0
    1.5132   -2.8546   -1.3958 H   0  0  0  0  0  0  0  0  0  0  0  0
   -3.3421    4.3928    0.0779 H   0  0  0  0  0  0  0  0  0  0  0  0
   -2.7143    3.0125    0.9896 H   0  0  0  0  0  0  0  0  0  0  0  0
   -4.4696    3.1689    0.6861 H   0  0  0  0  0  0  0  0  0  0  0  0
    1.3851    3.0368    1.2547 H   0  0  0  0  0  0  0  0  0  0  0  0
    3.6627    2.6672    1.1199 H   0  0  0  0  0  0  0  0  0  0  0  0
  1 14  1  0  0  0  0
  1 19  1  0  0  0  0
  2 12  1  0  0  0  0
  2 13  1  0  0  0  0
  3 10  1  0  0  0  0
  3 27  1  0  0  0  0
  4 11  1  0  0  0  0
  4 28  1  0  0  0  0
  5 18  2  0  0  0  0
  6 12  1  0  0  0  0
  6 15  1  0  0  0  0
  6 16  1  0  0  0  0
  7 16  2  0  0  0  0
  7 17  1  0  0  0  0
  8 15  1  0  0  0  0
  8 20  2  0  0  0  0
  9 18  1  0  0  0  0
  9 20  1  0  0  0  0
  9 34  1  0  0  0  0
 10 11  1  0  0  0  0
 10 12  1  0  0  0  0
 10 21  1  0  0  0  0
 11 13  1  0  0  0  0
 11 23  1  0  0  0  0
 12 22  1  0  0  0  0
 13 14  1  0  0  0  0
 13 24  1  0  0  0  0
 14 25  1  0  0  0  0
 14 26  1  0  0  0  0
 15 17  2  0  0  0  0
 16 29  1  0  0  0  0
 17 18  1  0  0  0  0
 19 30  1  0  0  0  0
 19 31  1  0  0  0  0
 19 32  1  0  0  0  0
 20 33  1  0  0  0  0
M  END
> <PUBCHEM_COMPOUND_CID>
135601234

> <PUBCHEM_CONFORMER_RMSD>
0.6

> <PUBCHEM_CONFORMER_DIVERSEORDER>
1
117
348
281
417
490
384
124
121
114
423
451
5
310
249
45
297
480
123
200
61
144
424
89
327
63
192
371
246
489
499
151
211
370
471
224
87
359
275
463
495
17
378
303
170
318
83
409
251
427
410
355
485
454
104
7
295
18
422
34
315
105
73
486
85
344
27
247
154
338
227
207
271
287
261
141
491
403
262
354
231
198
194
108
174
436
142
50
455
178
242
472
153
97
43
189
122
285
331
282
440
10
99
333
159
389
171
375
160
466
67
57
493
500
53
469
42
119
37
462
270
106
413
11
304
182
400
135
118
274
213
420
398
152
494
446
272
377
70
158
168
459
332
243
148
51
356
115
257
35
184
78
279
357
101
183
163
235
397
125
98
314
395
369
33
481
250
193
392
208
2
220
323
80
95
126
216
277
202
258
149
161
362
225
116
390
219
19
406
212
437
330
22
127
449
28
484
12
69
404
361
91
9
47
3
215
301
452
399
71
110
226
457
62
334
188
131
21
93
59
239
498
345
476
157
111
358
387
76
364
470
450
81
146
347
429
169
286
431
60
278
388
201
132
82
255
237
289
353
408
64
268
311
145
74
448
203
65
428
102
298
382
433
309
190
139
267
439
496
172
416
256
391
337
75
90
58
181
325
418
20
84
308
199
316
477
164
128
244
52
366
54
460
443
29
269
177
138
94
6
196
209
147
487
15
317
313
265
120
335
421
467
300
352
290
293
343
435
107
214
130
233
46
14
346
468
40
488
143
88
363
140
407
294
328
430
16
322
252
195
232
176
23
92
276
36
4
241
133
66
197
55
475
368
48
156
68
13
8
380
236
292
372
291
474
381
179
379
206
414
113
288
136
30
458
259
492
32
165
217
351
464
186
312
31
129
266
461
447
210
25
320
96
425
401
86
264
240
44
134
72
273
79
39
230
26
340
245
238
234
191
385
442
56
339
185
432
305
112
263
280
473
482
284
299
77
100
456
376
166
253
402
374
24
167
341
218
180
187
137
302
405
229
411
365
248
394
109
434
205
222
254
223
173
426
283
329
326
41
162
49
383
175
367
441
438
483
396
38
444
296
497
150
478
103
465
260
221
360
373
204
393
155
319
350
307
342
336
228
419
479
453
324
321
415
306
386
349
445
412

> <PUBCHEM_MMFF94_PARTIAL_CHARGES>
25
1 -0.46
10 0.28
11 0.28
12 0.54
13 0.28
14 0.23
15 -0.03
16 0.04
17 0.14
18 0.72
19 0.23
2 -0.56
20 0.45
27 0.4
28 0.4
29 0.15
3 -0.68
33 0.06
34 0.37
4 -0.68
5 -0.57
6 0.05
7 -0.57
8 -0.58
9 -0.49

> <PUBCHEM_EFFECTIVE_ROTOR_COUNT>
4

> <PUBCHEM_PHARMACOPHORE_FEATURES>
12
1 19 hydrophobe
1 2 acceptor
1 3 acceptor
1 3 donor
1 4 acceptor
1 4 donor
1 5 acceptor
1 9 donor
3 6 7 16 cation
5 2 10 11 12 13 rings
5 6 7 15 16 17 rings
6 8 9 15 17 18 20 rings

> <PUBCHEM_HEAVY_ATOM_COUNT>
20

> <PUBCHEM_ATOM_DEF_STEREO_COUNT>
0

> <PUBCHEM_ATOM_UDEF_STEREO_COUNT>
4

> <PUBCHEM_BOND_DEF_STEREO_COUNT>
0

> <PUBCHEM_BOND_UDEF_STEREO_COUNT>
0

> <PUBCHEM_ISOTOPIC_ATOM_COUNT>
0

> <PUBCHEM_COMPONENT_COUNT>
1

> <PUBCHEM_CACTVS_TAUTO_COUNT>
-1

> <PUBCHEM_CONFORMER_ID>
08151C5200000001

> <PUBCHEM_MMFF94_ENERGY>
46.5402

> <PUBCHEM_FEATURE_SELFOVERLAP>
61.038

> <PUBCHEM_SHAPE_FINGERPRINT>
10366900 7 18337673143104780583
10608611 8 18411697711831254885
10906281 52 18056488249139625750
1100329 8 16248282866305075273
12077114 3 18335414694660505195
12403259 226 17983569994445931715
12500047 106 18335133198298700398
12633257 1 18268160927038471419
12654215 9 18343580712186569788
12730499 353 18119245057391742901
13140716 1 17977390756441249627
13294875 104 18047168775112034675
13464514 151 18341046294555188340
15219456 202 18411703196652470718
15295992 7 18266464213483114297
15375358 24 18341324531210888892
16945 1 18339367477643731806
18186145 218 18201445726934820751
18219364 16 18342742944002117947
19049666 15 18337395950263354467
200 152 17489021699277403503
20510252 161 18409731777062741083
20645477 70 17917711241118341526
21197605 99 17341282297934050345
21279426 13 18198064673435444910
21524375 3 18190173478446102983
22182937 141 18339929216933567753
23402539 116 18265605658443388255
23493267 7 18334849528878557816
23526113 38 18197500610537302775
23557571 272 18188772872330813675
23559900 14 18196933276081862990
23845131 108 17973453097088301985
25 1 18268986484308906605
2748010 2 18340495477715573383
6049 1 18338814363228533487
633830 44 18125714591866482453
6438718 38 15911951356183139809
81228 2 17968382346517453447
84936 182 17831008027960837717
9709674 26 18341611507819081911

> <PUBCHEM_SHAPE_MULTIPOLES>
372.04
7.58
3.25
1.12
2.05
0.35
0.08
4.36
0.05
-2.29
0.49
-0.67
-0.1
1.79

> <PUBCHEM_SHAPE_SELFOVERLAP>
785.329

> <PUBCHEM_SHAPE_VOLUME>
212.5

> <PUBCHEM_COORDINATE_TYPE>
2
5
10

$$$$
