135616717
  -OEChem-03292013293D

 35 37  0     1  0  0  0  0  0999 V2000
    2.1457    0.4257    1.0139 O   0  0  0  0  0  0  0  0  0  0  0  0
    1.4332   -2.2527   -1.2879 O   0  0  0  0  0  0  0  0  0  0  0  0
    3.6777   -2.0876    0.2958 O   0  0  0  0  0  0  0  0  0  0  0  0
    3.7738    2.6475    0.4998 O   0  0  0  0  0  0  0  0  0  0  0  0
   -4.6388    0.9109   -0.2757 O   0  0  0  0  0  0  0  0  0  0  0  0
   -0.1336    0.1281    0.1932 N   0  3  0  0  0  0  0  0  0  0  0  0
   -1.6441    1.6184   -0.2227 N   0  0  0  0  0  0  0  0  0  0  0  0
   -1.5702   -1.8456    0.5116 N   0  0  0  0  0  0  0  0  0  0  0  0
   -3.8753   -1.2114    0.2215 N   0  0  0  0  0  0  0  0  0  0  0  0
    1.2188   -0.5055    0.4183 C   0  0  1  0  0  0  0  0  0  0  0  0
    1.8782   -0.9764   -0.8739 C   0  0  1  0  0  0  0  0  0  0  0  0
    3.3478   -0.9527   -0.5037 C   0  0  1  0  0  0  0  0  0  0  0  0
    3.4364    0.2857    0.3791 C   0  0  1  0  0  0  0  0  0  0  0  0
    3.7222    1.5589   -0.4055 C   0  0  0  0  0  0  0  0  0  0  0  0
   -1.3464   -0.5294    0.2498 C   0  0  0  0  0  0  0  0  0  0  0  0
   -0.3283    1.4201   -0.0921 C   0  0  0  0  0  0  0  0  0  0  0  0
   -2.3040    0.4311   -0.0175 C   0  0  0  0  0  0  0  0  0  0  0  0
   -3.6980    0.1529   -0.0536 C   0  0  0  0  0  0  0  0  0  0  0  0
   -2.2537    2.8956   -0.5320 C   0  0  0  0  0  0  0  0  0  0  0  0
   -2.8413   -2.1133    0.4816 C   0  0  0  0  0  0  0  0  0  0  0  0
    1.0764   -1.3313    1.1261 H   0  0  0  0  0  0  0  0  0  0  0  0
    1.6748   -0.2613   -1.6798 H   0  0  0  0  0  0  0  0  0  0  0  0
    4.0142   -0.9471   -1.3709 H   0  0  0  0  0  0  0  0  0  0  0  0
    4.1710    0.1743    1.1847 H   0  0  0  0  0  0  0  0  0  0  0  0
    2.9309    1.7699   -1.1316 H   0  0  0  0  0  0  0  0  0  0  0  0
    4.6819    1.4892   -0.9267 H   0  0  0  0  0  0  0  0  0  0  0  0
    0.4389    2.1700   -0.2010 H   0  0  0  0  0  0  0  0  0  0  0  0
    1.9760   -2.5171   -2.0501 H   0  0  0  0  0  0  0  0  0  0  0  0
    4.6166   -2.0101    0.5372 H   0  0  0  0  0  0  0  0  0  0  0  0
   -2.8097    2.8144   -1.4699 H   0  0  0  0  0  0  0  0  0  0  0  0
   -1.4815    3.6622   -0.6411 H   0  0  0  0  0  0  0  0  0  0  0  0
   -2.9275    3.1820    0.2800 H   0  0  0  0  0  0  0  0  0  0  0  0
    3.9594    3.4464   -0.0226 H   0  0  0  0  0  0  0  0  0  0  0  0
   -4.8278   -1.5656    0.2316 H   0  0  0  0  0  0  0  0  0  0  0  0
   -3.2113   -3.1332    0.6711 H   0  0  0  0  0  0  0  0  0  0  0  0
  1 10  1  0  0  0  0
  1 13  1  0  0  0  0
  2 11  1  0  0  0  0
  2 28  1  0  0  0  0
  3 12  1  0  0  0  0
  3 29  1  0  0  0  0
  4 14  1  0  0  0  0
  4 33  1  0  0  0  0
  5 18  2  0  0  0  0
  6 10  1  0  0  0  0
  6 15  1  0  0  0  0
  6 16  2  0  0  0  0
  7 16  1  0  0  0  0
  7 17  1  0  0  0  0
  7 19  1  0  0  0  0
  8 15  1  0  0  0  0
  8 20  2  0  0  0  0
  9 18  1  0  0  0  0
  9 20  1  0  0  0  0
  9 34  1  0  0  0  0
 10 11  1  0  0  0  0
 10 21  1  0  0  0  0
 11 12  1  0  0  0  0
 11 22  1  0  0  0  0
 12 13  1  0  0  0  0
 12 23  1  0  0  0  0
 13 14  1  0  0  0  0
 13 24  1  0  0  0  0
 14 25  1  0  0  0  0
 14 26  1  0  0  0  0
 15 17  2  0  0  0  0
 16 27  1  0  0  0  0
 17 18  1  0  0  0  0
 19 30  1  0  0  0  0
 19 31  1  0  0  0  0
 19 32  1  0  0  0  0
 20 35  1  0  0  0  0
M  CHG  1   6   1
M  END
> <PUBCHEM_COMPOUND_CID>
135616717

> <PUBCHEM_CONFORMER_RMSD>
0.6

> <PUBCHEM_CONFORMER_DIVERSEORDER>
1
21
16
17
14
13
12
22
20
5
3
2
10
4
11
8
18
19
9
7
15
6

> <PUBCHEM_MMFF94_PARTIAL_CHARGES>
26
1 -0.56
10 0.79
11 0.28
12 0.28
13 0.28
14 0.28
15 0.49
16 0.65
17 0.28
18 0.7
19 0.51
2 -0.68
20 0.45
27 0.15
28 0.4
29 0.4
3 -0.68
33 0.4
34 0.37
35 0.06
4 -0.68
5 -0.57
6 -0.76
7 -0.76
8 -0.59
9 -0.49

> <PUBCHEM_EFFECTIVE_ROTOR_COUNT>
3

> <PUBCHEM_PHARMACOPHORE_FEATURES>
13
1 1 acceptor
1 2 acceptor
1 2 donor
1 3 acceptor
1 3 donor
1 4 acceptor
1 4 donor
1 5 acceptor
1 9 donor
3 6 7 16 cation
5 1 10 11 12 13 rings
5 6 7 15 16 17 rings
6 8 9 15 17 18 20 rings

> <PUBCHEM_HEAVY_ATOM_COUNT>
20

> <PUBCHEM_ATOM_DEF_STEREO_COUNT>
3

> <PUBCHEM_ATOM_UDEF_STEREO_COUNT>
1

> <PUBCHEM_BOND_DEF_STEREO_COUNT>
0

> <PUBCHEM_BOND_UDEF_STEREO_COUNT>
0

> <PUBCHEM_ISOTOPIC_ATOM_COUNT>
0

> <PUBCHEM_COMPONENT_COUNT>
1

> <PUBCHEM_CACTVS_TAUTO_COUNT>
-1

> <PUBCHEM_CONFORMER_ID>
081558CD00000001

> <PUBCHEM_MMFF94_ENERGY>
44.2065

> <PUBCHEM_FEATURE_SELFOVERLAP>
66.123

> <PUBCHEM_SHAPE_FINGERPRINT>
10498660 4 18334574659297895029
10608611 8 18411135805755560780
10616163 171 18339646736422533934
11132069 177 18410008870608521809
11578080 2 16806980235505521940
12173636 292 18334290929679677597
12633257 1 18268998596042756954
13296908 3 18409168830903490867
14223421 5 18409728473863865484
14866123 147 16107831242695011522
15196674 1 18409730677319186467
15219456 202 18341896311379804330
15375358 24 18411417328061229799
15375462 6 18410013277666837078
15420108 30 15812048990986175130
16945 1 18334296427385275291
18186145 218 18125160437610463313
19591789 44 16756078060823802849
200 152 17346591937814321943
20510252 161 18339923714964423609
20645477 56 18261395516450511349
20645477 70 18202283580491370934
21501502 16 18340774753911601944
221490 88 18411145727509913658
23402539 116 18335412461277797295
23557571 272 18262248827256327222
23558518 356 18261682484384639881
23559900 14 18411134702212709874
2748010 2 18264484173667356489
296302 2 18342742952750314383
34934 24 18336822095588201291
350125 39 18411140242984187812
4409770 3 16886651728896746372
474 4 17096096912587144652
495365 180 17703492350990442600
5104073 3 18408888442653421915
58051976 378 18412543228047148348
69090 78 18342452604503305463
7097593 13 17753028532830731746
7364860 26 18412263926656146744
81228 2 18188504496830347569
8809292 202 18409452453284786739
9709674 26 18341616949553715143

> <PUBCHEM_SHAPE_MULTIPOLES>
362.32
8.03
2.74
0.83
0.08
0.78
-0.08
0.74
0.09
0.13
-0.22
0.36
-0.15
0.93

> <PUBCHEM_SHAPE_SELFOVERLAP>
783.606

> <PUBCHEM_SHAPE_VOLUME>
197.8

> <PUBCHEM_COORDINATE_TYPE>
2
5
10

$$$$
