135625331
  -OEChem-03292013293D

 27 28  0     0  0  0  0  0  0999 V2000
   -0.0774    1.7666   -1.0956 O   0  0  0  0  0  0  0  0  0  0  0  0
   -4.4421    1.1597    1.5188 O   0  0  0  0  0  0  0  0  0  0  0  0
   -0.2627   -1.1862   -0.4340 N   0  0  0  0  0  0  0  0  0  0  0  0
    1.4345   -2.3177    0.4669 N   0  0  0  0  0  0  0  0  0  0  0  0
    2.0781    1.6071   -0.2633 N   0  0  0  0  0  0  0  0  0  0  0  0
    3.0297   -0.4258    0.5868 N   0  0  0  0  0  0  0  0  0  0  0  0
    4.2713    1.5586    0.5536 N   0  0  0  0  0  0  0  0  0  0  0  0
   -1.5762   -0.9362   -0.9768 C   0  0  0  0  0  0  0  0  0  0  0  0
   -2.4788   -0.2239    0.0321 C   0  0  0  0  0  0  0  0  0  0  0  0
    0.7551   -0.2907   -0.2816 C   0  0  0  0  0  0  0  0  0  0  0  0
    1.7883   -1.0083    0.2743 C   0  0  0  0  0  0  0  0  0  0  0  0
   -3.8770   -0.0033   -0.5363 C   0  0  0  0  0  0  0  0  0  0  0  0
    0.1941   -2.3920    0.0308 C   0  0  0  0  0  0  0  0  0  0  0  0
    0.8238    1.0993   -0.5991 C   0  0  0  0  0  0  0  0  0  0  0  0
    3.1208    0.8539    0.3052 C   0  0  0  0  0  0  0  0  0  0  0  0
   -4.7814    0.7389    0.4181 C   0  0  0  0  0  0  0  0  0  0  0  0
   -1.4564   -0.3476   -1.8929 H   0  0  0  0  0  0  0  0  0  0  0  0
   -2.0101   -1.9010   -1.2646 H   0  0  0  0  0  0  0  0  0  0  0  0
   -2.5469   -0.8182    0.9528 H   0  0  0  0  0  0  0  0  0  0  0  0
   -2.0438    0.7382    0.3269 H   0  0  0  0  0  0  0  0  0  0  0  0
   -3.8267    0.5812   -1.4613 H   0  0  0  0  0  0  0  0  0  0  0  0
   -4.3525   -0.9635   -0.7634 H   0  0  0  0  0  0  0  0  0  0  0  0
   -0.4175   -3.2841    0.0283 H   0  0  0  0  0  0  0  0  0  0  0  0
    2.2501    2.5920   -0.4429 H   0  0  0  0  0  0  0  0  0  0  0  0
   -5.8113    0.8968    0.0538 H   0  0  0  0  0  0  0  0  0  0  0  0
    5.0837    1.1098    0.9622 H   0  0  0  0  0  0  0  0  0  0  0  0
    4.3438    2.5466    0.3367 H   0  0  0  0  0  0  0  0  0  0  0  0
  1 14  2  0  0  0  0
  2 16  2  0  0  0  0
  3  8  1  0  0  0  0
  3 10  1  0  0  0  0
  3 13  1  0  0  0  0
  4 11  1  0  0  0  0
  4 13  2  0  0  0  0
  5 14  1  0  0  0  0
  5 15  1  0  0  0  0
  5 24  1  0  0  0  0
  6 11  1  0  0  0  0
  6 15  2  0  0  0  0
  7 15  1  0  0  0  0
  7 26  1  0  0  0  0
  7 27  1  0  0  0  0
  8  9  1  0  0  0  0
  8 17  1  0  0  0  0
  8 18  1  0  0  0  0
  9 12  1  0  0  0  0
  9 19  1  0  0  0  0
  9 20  1  0  0  0  0
 10 11  2  0  0  0  0
 10 14  1  0  0  0  0
 12 16  1  0  0  0  0
 12 21  1  0  0  0  0
 12 22  1  0  0  0  0
 13 23  1  0  0  0  0
 16 25  1  0  0  0  0
M  END
> <PUBCHEM_COMPOUND_CID>
135625331

> <PUBCHEM_CONFORMER_RMSD>
0.6

> <PUBCHEM_CONFORMER_DIVERSEORDER>
1
19
32
24
25
31
8
11
22
13
5
33
18
26
4
14
20
7
28
30
17
3
16
23
2
27
29
15
9
6
10
21
12

> <PUBCHEM_MMFF94_PARTIAL_CHARGES>
20
1 -0.57
10 -0.24
11 0.35
12 0.06
13 0.04
14 0.71
15 0.56
16 0.45
2 -0.57
23 0.15
24 0.37
25 0.06
26 0.4
27 0.4
3 0.05
4 -0.57
5 -0.49
6 -0.57
7 -0.85
8 0.26

> <PUBCHEM_EFFECTIVE_ROTOR_COUNT>
4

> <PUBCHEM_PHARMACOPHORE_FEATURES>
7
1 1 acceptor
1 2 acceptor
1 5 donor
1 7 donor
3 3 4 13 cation
5 3 4 10 11 13 rings
6 5 6 10 11 14 15 rings

> <PUBCHEM_HEAVY_ATOM_COUNT>
16

> <PUBCHEM_ATOM_DEF_STEREO_COUNT>
0

> <PUBCHEM_ATOM_UDEF_STEREO_COUNT>
0

> <PUBCHEM_BOND_DEF_STEREO_COUNT>
0

> <PUBCHEM_BOND_UDEF_STEREO_COUNT>
0

> <PUBCHEM_ISOTOPIC_ATOM_COUNT>
0

> <PUBCHEM_COMPONENT_COUNT>
1

> <PUBCHEM_CACTVS_TAUTO_COUNT>
-1

> <PUBCHEM_CONFORMER_ID>
08157A7300000001

> <PUBCHEM_MMFF94_ENERGY>
23.6076

> <PUBCHEM_FEATURE_SELFOVERLAP>
35.691

> <PUBCHEM_SHAPE_FINGERPRINT>
10382601 240 18334293137044941258
10465860 228 18341898459032296299
10493431 412 18265329680533991344
10980938 120 18335417950425245743
11471102 22 18114466669402433603
12390115 104 18048890872673196612
12633257 1 17240771726274694537
12644460 14 18187640272090568298
14790565 3 18189623911416428940
15209294 21 18272081738284743160
15775835 57 18202565090180864225
16945 1 18189031193075684086
20157964 124 18266455418128797877
20233049 118 17418089897560626195
20739085 24 18260835847678011420
21524375 3 18340764965718233191
22182313 1 18044356263476290902
23184049 59 18334292080340340525
23557571 272 15195563525067694581
2748010 2 17903330655756258470
276578 36 18412266142178821998
2838139 119 16055733517148761304
293599 30 18336829801055273916
474 4 18409448124221236545
633830 44 18343866640617105364

> <PUBCHEM_SHAPE_MULTIPOLES>
292.63
7.64
2.16
0.95
6.79
0.74
0.06
-4.21
2.69
-1.19
0.05
0.59
-0.21
-0.63

> <PUBCHEM_SHAPE_SELFOVERLAP>
620.414

> <PUBCHEM_SHAPE_VOLUME>
162.3

> <PUBCHEM_COORDINATE_TYPE>
2
5
10

$$$$
