135625315
  -OEChem-03292013293D

 43 45  0     1  0  0  0  0  0999 V2000
    4.5978   -2.6818   -1.2965 Cl  0  0  0  0  0  0  0  0  0  0  0  0
    5.2712   -0.1834    0.0422 Cl  0  0  0  0  0  0  0  0  0  0  0  0
    4.8923   -2.6200    1.5829 Cl  0  0  0  0  0  0  0  0  0  0  0  0
   -2.8045   -1.2458    0.8818 O   0  0  0  0  0  0  0  0  0  0  0  0
   -5.5447   -0.0334    0.2221 O   0  0  0  0  0  0  0  0  0  0  0  0
   -2.9055   -3.9951    0.3816 O   0  0  0  0  0  0  0  0  0  0  0  0
    2.0796   -2.6132    0.5026 O   0  0  0  0  0  0  0  0  0  0  0  0
    2.9272    2.3540   -0.5789 O   0  0  0  0  0  0  0  0  0  0  0  0
   -1.1551    0.3364    0.0142 N   0  3  0  0  0  0  0  0  0  0  0  0
    0.9219    0.0219   -0.4925 N   0  0  0  0  0  0  0  0  0  0  0  0
   -1.1344    2.7675    0.3799 N   0  0  0  0  0  0  0  0  0  0  0  0
    1.0820    3.6088    0.0190 N   0  0  0  0  0  0  0  0  0  0  0  0
   -0.6676    5.0514    0.6255 N   0  0  0  0  0  0  0  0  0  0  0  0
   -2.6098    0.0541    0.2939 C   0  0  1  0  0  0  0  0  0  0  0  0
   -3.4782    0.0929   -0.9588 C   0  0  0  0  0  0  0  0  0  0  0  0
   -4.6352   -0.7963   -0.5676 C   0  0  1  0  0  0  0  0  0  0  0  0
   -3.9723   -1.8592    0.2988 C   0  0  1  0  0  0  0  0  0  0  0  0
   -0.5543    1.5785    0.0703 C   0  0  0  0  0  0  0  0  0  0  0  0
   -0.2541   -0.5914   -0.3260 C   0  0  0  0  0  0  0  0  0  0  0  0
   -3.5160   -3.0712   -0.5021 C   0  0  0  0  0  0  0  0  0  0  0  0
    0.7694    1.3662   -0.2543 C   0  0  0  0  0  0  0  0  0  0  0  0
    2.1500   -0.6484   -0.8668 C   0  0  0  0  0  0  0  0  0  0  0  0
    2.7923   -1.3822    0.3267 C   0  0  2  0  0  0  0  0  0  0  0  0
    1.7306    2.4076   -0.3072 C   0  0  0  0  0  0  0  0  0  0  0  0
   -0.2823    3.7655    0.3443 C   0  0  0  0  0  0  0  0  0  0  0  0
    4.2997   -1.6836    0.1651 C   0  0  0  0  0  0  0  0  0  0  0  0
   -2.9548    0.7887    1.0316 H   0  0  0  0  0  0  0  0  0  0  0  0
   -2.9356   -0.3382   -1.8079 H   0  0  0  0  0  0  0  0  0  0  0  0
   -3.7660    1.1170   -1.2146 H   0  0  0  0  0  0  0  0  0  0  0  0
   -5.1841   -1.1940   -1.4260 H   0  0  0  0  0  0  0  0  0  0  0  0
   -4.6109   -2.1785    1.1300 H   0  0  0  0  0  0  0  0  0  0  0  0
   -0.4481   -1.6437   -0.4593 H   0  0  0  0  0  0  0  0  0  0  0  0
   -2.7740   -2.7952   -1.2581 H   0  0  0  0  0  0  0  0  0  0  0  0
   -4.3651   -3.5600   -0.9897 H   0  0  0  0  0  0  0  0  0  0  0  0
    1.8866   -1.3653   -1.6554 H   0  0  0  0  0  0  0  0  0  0  0  0
    2.8293    0.0740   -1.3221 H   0  0  0  0  0  0  0  0  0  0  0  0
   -6.2557   -0.6330    0.5058 H   0  0  0  0  0  0  0  0  0  0  0  0
    2.6467   -0.7908    1.2403 H   0  0  0  0  0  0  0  0  0  0  0  0
    1.6536    4.4490    0.0211 H   0  0  0  0  0  0  0  0  0  0  0  0
   -2.6245   -4.7586   -0.1509 H   0  0  0  0  0  0  0  0  0  0  0  0
    1.2116   -2.3992    0.8830 H   0  0  0  0  0  0  0  0  0  0  0  0
   -1.6272    5.2699    0.8706 H   0  0  0  0  0  0  0  0  0  0  0  0
   -0.0069    5.8202    0.5970 H   0  0  0  0  0  0  0  0  0  0  0  0
  1 26  1  0  0  0  0
  2 26  1  0  0  0  0
  3 26  1  0  0  0  0
  4 14  1  0  0  0  0
  4 17  1  0  0  0  0
  5 16  1  0  0  0  0
  5 37  1  0  0  0  0
  6 20  1  0  0  0  0
  6 40  1  0  0  0  0
  7 23  1  0  0  0  0
  7 41  1  0  0  0  0
  8 24  2  0  0  0  0
  9 14  1  0  0  0  0
  9 18  1  0  0  0  0
  9 19  2  0  0  0  0
 10 19  1  0  0  0  0
 10 21  1  0  0  0  0
 10 22  1  0  0  0  0
 11 18  1  0  0  0  0
 11 25  2  0  0  0  0
 12 24  1  0  0  0  0
 12 25  1  0  0  0  0
 12 39  1  0  0  0  0
 13 25  1  0  0  0  0
 13 42  1  0  0  0  0
 13 43  1  0  0  0  0
 14 15  1  0  0  0  0
 14 27  1  0  0  0  0
 15 16  1  0  0  0  0
 15 28  1  0  0  0  0
 15 29  1  0  0  0  0
 16 17  1  0  0  0  0
 16 30  1  0  0  0  0
 17 20  1  0  0  0  0
 17 31  1  0  0  0  0
 18 21  2  0  0  0  0
 19 32  1  0  0  0  0
 20 33  1  0  0  0  0
 20 34  1  0  0  0  0
 21 24  1  0  0  0  0
 22 23  1  0  0  0  0
 22 35  1  0  0  0  0
 22 36  1  0  0  0  0
 23 26  1  0  0  0  0
 23 38  1  0  0  0  0
M  CHG  1   9   1
M  END
> <PUBCHEM_COMPOUND_CID>
135625315

> <PUBCHEM_CONFORMER_RMSD>
0.8

> <PUBCHEM_CONFORMER_DIVERSEORDER>
1
53
111
86
5
56
52
99
110
47
64
74
41
39
57
79
59
43
42
97
88
71
66
63
101
98
91
25
67
54
108
18
103
45
87
62
37
13
55
35
77
60
104
68
23
21
93
82
90
69
33
26
70
20
17
65
83
12
76
112
85
107
29
11
32
50
8
16
61
49
89
80
28
36
2
24
22
38
109
94
84
44
58
113
51
105
48
34
72
4
30
106
19
31
46
102
7
92
15
3
95
75
100
6
96
40
14
27
81
73
9
78
10

> <PUBCHEM_MMFF94_PARTIAL_CHARGES>
32
1 -0.29
10 -0.76
11 -0.59
12 -0.49
13 -0.85
14 0.79
16 0.28
17 0.28
18 0.49
19 0.65
2 -0.29
20 0.28
21 0.28
22 0.51
23 0.28
24 0.7
25 0.56
26 0.87
3 -0.29
32 0.15
37 0.4
39 0.37
4 -0.56
40 0.4
41 0.4
42 0.4
43 0.4
5 -0.68
6 -0.68
7 -0.68
8 -0.57
9 -0.76

> <PUBCHEM_EFFECTIVE_ROTOR_COUNT>
6

> <PUBCHEM_PHARMACOPHORE_FEATURES>
14
1 12 donor
1 13 donor
1 4 acceptor
1 5 acceptor
1 5 donor
1 6 acceptor
1 6 donor
1 7 acceptor
1 7 donor
1 8 acceptor
3 9 10 19 cation
5 4 14 15 16 17 rings
5 9 10 18 19 21 rings
6 11 12 18 21 24 25 rings

> <PUBCHEM_HEAVY_ATOM_COUNT>
26

> <PUBCHEM_ATOM_DEF_STEREO_COUNT>
3

> <PUBCHEM_ATOM_UDEF_STEREO_COUNT>
1

> <PUBCHEM_BOND_DEF_STEREO_COUNT>
0

> <PUBCHEM_BOND_UDEF_STEREO_COUNT>
0

> <PUBCHEM_ISOTOPIC_ATOM_COUNT>
0

> <PUBCHEM_COMPONENT_COUNT>
1

> <PUBCHEM_CACTVS_TAUTO_COUNT>
-1

> <PUBCHEM_CONFORMER_ID>
08157A6300000001

> <PUBCHEM_MMFF94_ENERGY>
50.794

> <PUBCHEM_FEATURE_SELFOVERLAP>
71.229

> <PUBCHEM_SHAPE_FINGERPRINT>
10411042 1 18411984632858171383
10906281 52 18198917924280952205
1100329 8 18408885157056791379
11056379 131 18196380212820981558
11265709 11 18410295765870844145
12107183 9 18341909485051972987
12516196 113 18411696590866298751
12553582 1 18267322979029810455
12633257 1 18341061769855534583
12788726 201 18263364681208628890
13004483 165 18337380531262313690
13140716 1 18341336591426899801
13533116 47 18195806500170549055
138480 1 14808260098083901160
14178342 30 17976531720533783410
14787075 74 18187931737567293446
14790565 3 17474387967884141289
14844126 61 18119524345359467402
14866123 147 17907581328727240241
15042514 8 18123471570728527332
15927050 60 17692251159758713340
17492 89 18122343742751296539
18222031 100 18343299249910547566
19591789 44 17546449337308176437
20567600 70 18335979874045318938
20600515 1 18201729431178853987
21250096 35 18335136475190409835
21478907 32 18338234864645418329
221490 88 18191873541991567107
23366157 5 18045502173303585821
23557571 272 17913494541317097494
23559900 14 18338789130591101019
392239 28 18335414669661114826
4015057 19 18267291201241754487
463206 1 18335706099575704730
613672 6 18412821369744849710
6442390 28 17041482189881507061
6443956 14 18336265738404506116
8863177 126 17896619451787687603
9709674 26 18046628073464142667

> <PUBCHEM_SHAPE_MULTIPOLES>
486.43
10.3
5.44
0.97
2.55
4.7
0.02
-10.63
0.3
-1.06
0.9
0.74
-0.48
-0.57

> <PUBCHEM_SHAPE_SELFOVERLAP>
1004.571

> <PUBCHEM_SHAPE_VOLUME>
280.1

> <PUBCHEM_COORDINATE_TYPE>
2
5
10

$$$$
