135602217
  -OEChem-03292013293D

 24 25  0     0  0  0  0  0  0999 V2000
   -4.6530    0.3921    1.3648 O   0  0  0  0  0  0  0  0  0  0  0  0
   -4.5243   -0.1920   -0.8255 O   0  0  0  0  0  0  0  0  0  0  0  0
   -0.2526   -0.4223   -0.4397 N   0  0  0  0  0  0  0  0  0  0  0  0
    2.9295    1.4150    0.0856 N   0  0  0  0  0  0  0  0  0  0  0  0
    1.6311   -1.8893    0.0811 N   0  0  0  0  0  0  0  0  0  0  0  0
    3.7488   -0.6351    0.4152 N   0  0  0  0  0  0  0  0  0  0  0  0
    0.0721    1.9878   -0.5344 N   0  0  0  0  0  0  0  0  0  0  0  0
   -1.6805   -0.3882   -0.7464 C   0  0  0  0  0  0  0  0  0  0  0  0
    0.4831    0.7723   -0.3664 C   0  0  0  0  0  0  0  0  0  0  0  0
    1.8786    0.5582   -0.0632 C   0  0  0  0  0  0  0  0  0  0  0  0
   -2.4782    0.0440    0.4784 C   0  0  0  0  0  0  0  0  0  0  0  0
    2.4072   -0.7041    0.1444 C   0  0  0  0  0  0  0  0  0  0  0  0
    0.3794   -1.6502   -0.2011 C   0  0  0  0  0  0  0  0  0  0  0  0
    4.0310    0.6506    0.3713 C   0  0  0  0  0  0  0  0  0  0  0  0
   -3.9723    0.0613    0.2360 C   0  0  0  0  0  0  0  0  0  0  0  0
   -1.8722    0.2850   -1.5913 H   0  0  0  0  0  0  0  0  0  0  0  0
   -2.0265   -1.3738   -1.0833 H   0  0  0  0  0  0  0  0  0  0  0  0
   -2.1842    1.0470    0.8041 H   0  0  0  0  0  0  0  0  0  0  0  0
   -2.2824   -0.6518    1.3032 H   0  0  0  0  0  0  0  0  0  0  0  0
   -0.3127   -2.5056   -0.2703 H   0  0  0  0  0  0  0  0  0  0  0  0
    2.9045    2.4226    0.0013 H   0  0  0  0  0  0  0  0  0  0  0  0
    5.0035    1.0923    0.5359 H   0  0  0  0  0  0  0  0  0  0  0  0
   -0.9269    2.0079   -0.7513 H   0  0  0  0  0  0  0  0  0  0  0  0
   -5.6227    0.4022    1.2169 H   0  0  0  0  0  0  0  0  0  0  0  0
  1 15  1  0  0  0  0
  1 24  1  0  0  0  0
  2 15  2  0  0  0  0
  3  8  1  0  0  0  0
  3  9  1  0  0  0  0
  3 13  1  0  0  0  0
  4 10  1  0  0  0  0
  4 14  1  0  0  0  0
  4 21  1  0  0  0  0
  5 12  1  0  0  0  0
  5 13  2  0  0  0  0
  6 12  1  0  0  0  0
  6 14  2  0  0  0  0
  7  9  2  0  0  0  0
  7 23  1  0  0  0  0
  8 11  1  0  0  0  0
  8 16  1  0  0  0  0
  8 17  1  0  0  0  0
  9 10  1  0  0  0  0
 10 12  2  0  0  0  0
 11 15  1  0  0  0  0
 11 18  1  0  0  0  0
 11 19  1  0  0  0  0
 13 20  1  0  0  0  0
 14 22  1  0  0  0  0
M  END
> <PUBCHEM_COMPOUND_CID>
135602217

> <PUBCHEM_CONFORMER_RMSD>
0.6

> <PUBCHEM_CONFORMER_DIVERSEORDER>
1
11
10
9
12
4
7
6
2
3
8
5

> <PUBCHEM_MMFF94_PARTIAL_CHARGES>
20
1 -0.65
10 -0.24
11 0.06
12 0.35
13 0.44
14 0.04
15 0.66
2 -0.57
20 0.06
21 0.27
22 0.15
23 0.4
24 0.5
3 -0.47
4 0.03
5 -0.57
6 -0.57
7 -0.85
8 0.37
9 0.58

> <PUBCHEM_EFFECTIVE_ROTOR_COUNT>
3

> <PUBCHEM_PHARMACOPHORE_FEATURES>
10
1 1 acceptor
1 2 acceptor
1 4 donor
1 7 donor
3 1 2 15 anion
3 3 5 13 cation
3 3 7 9 cation
3 4 6 14 cation
5 4 6 10 12 14 rings
6 3 5 9 10 12 13 rings

> <PUBCHEM_HEAVY_ATOM_COUNT>
15

> <PUBCHEM_ATOM_DEF_STEREO_COUNT>
0

> <PUBCHEM_ATOM_UDEF_STEREO_COUNT>
0

> <PUBCHEM_BOND_DEF_STEREO_COUNT>
0

> <PUBCHEM_BOND_UDEF_STEREO_COUNT>
0

> <PUBCHEM_ISOTOPIC_ATOM_COUNT>
0

> <PUBCHEM_COMPONENT_COUNT>
1

> <PUBCHEM_CACTVS_TAUTO_COUNT>
-1

> <PUBCHEM_CONFORMER_ID>
0815202900000001

> <PUBCHEM_MMFF94_ENERGY>
26.8643

> <PUBCHEM_FEATURE_SELFOVERLAP>
51.016

> <PUBCHEM_SHAPE_FINGERPRINT>
10219947 1 18407759248316764813
10980938 120 18411698772730530895
11132069 177 18335695078683997554
11471102 20 18408879642254836646
12236239 1 17917705808316832647
12251169 10 18410855473018351435
12346645 6 18272089379242539966
124424 183 17603300466886184509
14251717 144 18411414012262126847
14252887 29 18260554389585718995
15219456 202 18188200997092369245
15375358 24 18040150712877689491
15775835 57 18059857285214466907
16945 1 18337094714680055302
17844478 74 17822004294153789780
200 152 18271514369590326005
20279233 1 17603867793501133131
20645477 70 18263631888720849943
22854114 59 18408884044591092089
23402539 116 15770053917541571273
23402655 69 18342729694486984885
23557571 272 16588574302014653495
2748010 2 17978494348799646902
449060 62 18412826897741532646
53655031 270 18343865498060969112

> <PUBCHEM_SHAPE_MULTIPOLES>
272.05
8.14
1.52
0.84
6.51
0.09
0.08
-0.95
1.94
-1.02
-0.13
0.68
-0.05
-0.26

> <PUBCHEM_SHAPE_SELFOVERLAP>
580.191

> <PUBCHEM_SHAPE_VOLUME>
148.2

> <PUBCHEM_COORDINATE_TYPE>
2
5
10

$$$$
