135625326
  -OEChem-03292013293D

 51 53  0     1  0  0  0  0  0999 V2000
    7.5450    2.2672   -1.1056 O   0  0  0  0  0  0  0  0  0  0  0  0
    3.9536    1.1898    2.2635 O   0  0  0  0  0  0  0  0  0  0  0  0
    5.5356    2.0731   -2.1422 O   0  0  0  0  0  0  0  0  0  0  0  0
    7.1661   -3.4181   -1.4210 O   0  0  0  0  0  0  0  0  0  0  0  0
    7.9118   -2.7062    0.6000 O   0  0  0  0  0  0  0  0  0  0  0  0
   -6.8791    2.4552    0.0123 O   0  0  0  0  0  0  0  0  0  0  0  0
    4.3989    0.9215    0.0033 N   0  0  0  0  0  0  0  0  0  0  0  0
   -1.9429   -0.0358    0.1692 N   0  0  0  0  0  0  0  0  0  0  0  0
   -8.0731   -1.3384   -0.9580 N   0  0  0  0  0  0  0  0  0  0  0  0
   -8.4670    0.9880   -0.7960 N   0  0  0  0  0  0  0  0  0  0  0  0
    5.8225    1.1296    0.0847 C   0  0  1  0  0  0  0  0  0  0  0  0
    6.5961   -0.1671    0.3522 C   0  0  0  0  0  0  0  0  0  0  0  0
    6.4824   -1.2488   -0.7294 C   0  0  0  0  0  0  0  0  0  0  0  0
   -2.8181   -0.5719    1.1655 C   0  0  0  0  0  0  0  0  0  0  0  0
   -4.2015   -0.7583    0.6069 C   0  0  0  0  0  0  0  0  0  0  0  0
    2.1307    0.7079    0.8696 C   0  0  0  0  0  0  0  0  0  0  0  0
    3.5719    0.9700    1.1171 C   0  0  0  0  0  0  0  0  0  0  0  0
   -0.5752    0.2134    0.4049 C   0  0  0  0  0  0  0  0  0  0  0  0
    6.2536    1.8501   -1.1762 C   0  0  0  0  0  0  0  0  0  0  0  0
   -6.3220    0.1591   -0.0844 C   0  0  0  0  0  0  0  0  0  0  0  0
   -5.0371    0.3439    0.4341 C   0  0  0  0  0  0  0  0  0  0  0  0
   -4.6468   -2.0344    0.2639 C   0  0  0  0  0  0  0  0  0  0  0  0
   -6.7839   -1.1201   -0.4340 C   0  0  0  0  0  0  0  0  0  0  0  0
    1.3329    0.1829    1.8864 C   0  0  0  0  0  0  0  0  0  0  0  0
    1.5754    0.9858   -0.3793 C   0  0  0  0  0  0  0  0  0  0  0  0
   -0.0199   -0.0645    1.6541 C   0  0  0  0  0  0  0  0  0  0  0  0
    0.2225    0.7384   -0.6118 C   0  0  0  0  0  0  0  0  0  0  0  0
   -5.9310   -2.2140   -0.2538 C   0  0  0  0  0  0  0  0  0  0  0  0
    7.2533   -2.5119   -0.4123 C   0  0  0  0  0  0  0  0  0  0  0  0
   -7.2263    1.3158   -0.2754 C   0  0  0  0  0  0  0  0  0  0  0  0
   -8.8283   -0.3022   -1.1083 C   0  0  0  0  0  0  0  0  0  0  0  0
    6.0037    1.8220    0.9167 H   0  0  0  0  0  0  0  0  0  0  0  0
    6.2573   -0.5919    1.3066 H   0  0  0  0  0  0  0  0  0  0  0  0
    7.6584    0.0729    0.4906 H   0  0  0  0  0  0  0  0  0  0  0  0
    6.8642   -0.8582   -1.6791 H   0  0  0  0  0  0  0  0  0  0  0  0
    5.4316   -1.5295   -0.8613 H   0  0  0  0  0  0  0  0  0  0  0  0
    4.0242    0.6535   -0.9009 H   0  0  0  0  0  0  0  0  0  0  0  0
   -2.8829    0.0966    2.0338 H   0  0  0  0  0  0  0  0  0  0  0  0
   -2.4458   -1.5374    1.5312 H   0  0  0  0  0  0  0  0  0  0  0  0
   -2.2983    0.1795   -0.7563 H   0  0  0  0  0  0  0  0  0  0  0  0
   -4.6844    1.3361    0.7035 H   0  0  0  0  0  0  0  0  0  0  0  0
   -4.0033   -2.9009    0.3923 H   0  0  0  0  0  0  0  0  0  0  0  0
    1.7484   -0.0440    2.8648 H   0  0  0  0  0  0  0  0  0  0  0  0
    2.1531    1.4239   -1.1878 H   0  0  0  0  0  0  0  0  0  0  0  0
   -0.6041   -0.4725    2.4733 H   0  0  0  0  0  0  0  0  0  0  0  0
   -0.2001    0.9656   -1.5873 H   0  0  0  0  0  0  0  0  0  0  0  0
   -6.2623   -3.2159   -0.5165 H   0  0  0  0  0  0  0  0  0  0  0  0
   -9.1367    1.7357   -0.9522 H   0  0  0  0  0  0  0  0  0  0  0  0
   -9.8491   -0.3844   -1.5111 H   0  0  0  0  0  0  0  0  0  0  0  0
    7.8185    2.7475   -1.9160 H   0  0  0  0  0  0  0  0  0  0  0  0
    7.6796   -4.2311   -1.2271 H   0  0  0  0  0  0  0  0  0  0  0  0
  1 19  1  0  0  0  0
  1 50  1  0  0  0  0
  2 17  2  0  0  0  0
  3 19  2  0  0  0  0
  4 29  1  0  0  0  0
  4 51  1  0  0  0  0
  5 29  2  0  0  0  0
  6 30  2  0  0  0  0
  7 11  1  0  0  0  0
  7 17  1  0  0  0  0
  7 37  1  0  0  0  0
  8 14  1  0  0  0  0
  8 18  1  0  0  0  0
  8 40  1  0  0  0  0
  9 23  1  0  0  0  0
  9 31  2  0  0  0  0
 10 30  1  0  0  0  0
 10 31  1  0  0  0  0
 10 48  1  0  0  0  0
 11 12  1  0  0  0  0
 11 19  1  0  0  0  0
 11 32  1  0  0  0  0
 12 13  1  0  0  0  0
 12 33  1  0  0  0  0
 12 34  1  0  0  0  0
 13 29  1  0  0  0  0
 13 35  1  0  0  0  0
 13 36  1  0  0  0  0
 14 15  1  0  0  0  0
 14 38  1  0  0  0  0
 14 39  1  0  0  0  0
 15 21  2  0  0  0  0
 15 22  1  0  0  0  0
 16 17  1  0  0  0  0
 16 24  2  0  0  0  0
 16 25  1  0  0  0  0
 18 26  2  0  0  0  0
 18 27  1  0  0  0  0
 20 21  1  0  0  0  0
 20 23  2  0  0  0  0
 20 30  1  0  0  0  0
 21 41  1  0  0  0  0
 22 28  2  0  0  0  0
 22 42  1  0  0  0  0
 23 28  1  0  0  0  0
 24 26  1  0  0  0  0
 24 43  1  0  0  0  0
 25 27  2  0  0  0  0
 25 44  1  0  0  0  0
 26 45  1  0  0  0  0
 27 46  1  0  0  0  0
 28 47  1  0  0  0  0
 31 49  1  0  0  0  0
M  END
> <PUBCHEM_COMPOUND_CID>
135625326

> <PUBCHEM_CONFORMER_RMSD>
1

> <PUBCHEM_CONFORMER_DIVERSEORDER>
1
59
62
53
67
27
35
40
47
68
61
45
44
37
41
13
29
34
50
69
58
39
43
19
49
74
65
38
32
56
10
17
3
75
25
64
26
23
46
54
66
4
42
70
12
73
31
77
48
22
9
21
51
28
52
55
20
76
33
30
72
18
14
57
11
71
5
24
15
60
36
63
16
7
8
6
2

> <PUBCHEM_MMFF94_PARTIAL_CHARGES>
43
1 -0.65
10 -0.49
11 0.36
13 0.06
14 0.51
15 -0.14
16 0.09
17 0.54
18 0.1
19 0.66
2 -0.57
20 0.09
21 -0.15
22 -0.15
23 0.18
24 -0.15
25 -0.15
26 -0.15
27 -0.15
28 -0.15
29 0.66
3 -0.57
30 0.54
31 0.45
37 0.37
4 -0.65
40 0.4
41 0.15
42 0.15
43 0.15
44 0.15
45 0.15
46 0.15
47 0.15
48 0.37
49 0.06
5 -0.57
50 0.5
51 0.5
6 -0.57
7 -0.73
8 -0.87
9 -0.63

> <PUBCHEM_EFFECTIVE_ROTOR_COUNT>
10

> <PUBCHEM_PHARMACOPHORE_FEATURES>
15
1 1 acceptor
1 10 donor
1 2 acceptor
1 3 acceptor
1 4 acceptor
1 5 acceptor
1 6 acceptor
1 7 donor
1 8 cation
1 8 donor
3 1 3 19 anion
3 4 5 29 anion
6 15 20 21 22 23 28 rings
6 16 18 24 25 26 27 rings
6 9 10 20 23 30 31 rings

> <PUBCHEM_HEAVY_ATOM_COUNT>
31

> <PUBCHEM_ATOM_DEF_STEREO_COUNT>
1

> <PUBCHEM_ATOM_UDEF_STEREO_COUNT>
0

> <PUBCHEM_BOND_DEF_STEREO_COUNT>
0

> <PUBCHEM_BOND_UDEF_STEREO_COUNT>
0

> <PUBCHEM_ISOTOPIC_ATOM_COUNT>
0

> <PUBCHEM_COMPONENT_COUNT>
1

> <PUBCHEM_CACTVS_TAUTO_COUNT>
-1

> <PUBCHEM_CONFORMER_ID>
08157A6E00000001

> <PUBCHEM_MMFF94_ENERGY>
83.4515

> <PUBCHEM_FEATURE_SELFOVERLAP>
76.271

> <PUBCHEM_SHAPE_FINGERPRINT>
10066227 49 18201720617637515630
10319688 67 13901897900037991182
11135609 127 18265051513611208716
11315181 36 17894629297502775393
11408170 132 17313373479319776623
11719270 70 17846781793382135726
12082328 90 18335701672297645119
12522641 33 18187651358424220340
13008946 282 15194704831845263634
13692114 37 13973959926487658124
13782708 43 17346885562958094608
14849402 71 9439108862693530058
15183329 4 17967807271934639729
15276724 80 17095510808401655837
15461852 350 18337951299137401447
15475509 8 17821732719435483124
1577012 14 17240754117124734035
1754908 1 11095883783073814415
17852330 31 9943522957063756220
195137 175 17967813877510269669
19841028 212 18270400487330070842
21344244 78 14908181941859796922
23576562 1 17824827986691627165
3383291 50 15339121260115493527
3711267 37 15068625971959526022
4073 2 17458625648998925763
445580 37 18409729574014024385
474113 269 17632015247974800966
5109719 28 7997965804071168574
5758199 1 16732977652684876817
59682541 35 11167938087166838687
59682541 52 18411422843295233672
6081469 158 18343861109205896097
6328613 192 17676488397427092489
6438161 24 18131627868696290874
9831232 110 18411422774555099758

> <PUBCHEM_SHAPE_MULTIPOLES>
582.83
31.19
2.6
1.48
11.47
1.54
0.24
6.38
-12.8
-4.66
-0.97
-1.79
-0.34
-0.16

> <PUBCHEM_SHAPE_SELFOVERLAP>
1250.017

> <PUBCHEM_SHAPE_VOLUME>
316.3

> <PUBCHEM_COORDINATE_TYPE>
2
5
10

$$$$
