135625343
  -OEChem-03292013293D

 57 59  0     1  0  0  0  0  0999 V2000
    6.3892   -0.4644    1.9760 O   0  0  0  0  0  0  0  0  0  0  0  0
    3.2490   -2.8455   -1.1671 O   0  0  0  0  0  0  0  0  0  0  0  0
    4.2612   -0.3363    2.7537 O   0  0  0  0  0  0  0  0  0  0  0  0
    4.4157    3.7688   -1.3030 O   0  0  0  0  0  0  0  0  0  0  0  0
    5.6520    2.2672   -2.4708 O   0  0  0  0  0  0  0  0  0  0  0  0
   -2.0509    2.8992    2.7390 O   0  0  0  0  0  0  0  0  0  0  0  0
   -3.0193   -2.5600   -0.0337 N   0  0  3  0  0  0  0  0  0  0  0  0
    3.2230   -1.1462    0.4111 N   0  0  0  0  0  0  0  0  0  0  0  0
   -3.8250    1.4052   -1.4117 N   0  0  0  0  0  0  0  0  0  0  0  0
   -2.3268    4.3429    0.9550 N   0  0  0  0  0  0  0  0  0  0  0  0
   -3.2024    3.6311   -1.1112 N   0  0  0  0  0  0  0  0  0  0  0  0
   -2.5733    5.8680   -0.7996 N   0  0  0  0  0  0  0  0  0  0  0  0
    4.6421   -0.8953    0.4140 C   0  0  1  0  0  0  0  0  0  0  0  0
   -3.7741   -1.6570    0.8124 C   0  0  0  0  0  0  0  0  0  0  0  0
    5.0627    0.1389   -0.6371 C   0  0  0  0  0  0  0  0  0  0  0  0
   -1.6163   -2.4499   -0.1232 C   0  0  0  0  0  0  0  0  0  0  0  0
   -3.6008   -0.2358    0.3532 C   0  0  0  0  0  0  0  0  0  0  0  0
    4.4787    1.5464   -0.4612 C   0  0  0  0  0  0  0  0  0  0  0  0
    1.1594   -2.2322   -0.2980 C   0  0  0  0  0  0  0  0  0  0  0  0
   -3.7245   -3.5826   -0.7806 C   0  0  0  0  0  0  0  0  0  0  0  0
   -0.9600   -2.8224   -1.2965 C   0  0  0  0  0  0  0  0  0  0  0  0
   -0.8848   -1.9687    0.9625 C   0  0  0  0  0  0  0  0  0  0  0  0
    2.6374   -2.1153   -0.3918 C   0  0  0  0  0  0  0  0  0  0  0  0
   -3.0831    0.7335    1.2028 C   0  0  0  0  0  0  0  0  0  0  0  0
    0.4278   -2.7136   -1.3838 C   0  0  0  0  0  0  0  0  0  0  0  0
    0.5031   -1.8600    0.8751 C   0  0  0  0  0  0  0  0  0  0  0  0
   -2.9407    2.0369    0.7334 C   0  0  0  0  0  0  0  0  0  0  0  0
    5.0398   -0.5266    1.8285 C   0  0  0  0  0  0  0  0  0  0  0  0
   -3.9530    0.1468   -0.9307 C   0  0  0  0  0  0  0  0  0  0  0  0
   -3.3189    2.3381   -0.5718 C   0  0  0  0  0  0  0  0  0  0  0  0
    4.9143    2.5254   -1.5300 C   0  0  0  0  0  0  0  0  0  0  0  0
   -2.3988    3.1102    1.5835 C   0  0  0  0  0  0  0  0  0  0  0  0
   -3.2381   -4.9160   -0.4179 C   0  0  0  0  0  0  0  0  0  0  0  0
   -2.7220    4.5801   -0.3572 C   0  0  0  0  0  0  0  0  0  0  0  0
   -2.8425   -6.0107   -0.1233 C   0  0  0  0  0  0  0  0  0  0  0  0
    5.1417   -1.8460    0.1876 H   0  0  0  0  0  0  0  0  0  0  0  0
   -3.5028   -1.7825    1.8674 H   0  0  0  0  0  0  0  0  0  0  0  0
   -4.8485   -1.8812    0.7775 H   0  0  0  0  0  0  0  0  0  0  0  0
    4.7830   -0.2324   -1.6320 H   0  0  0  0  0  0  0  0  0  0  0  0
    6.1577    0.2173   -0.6427 H   0  0  0  0  0  0  0  0  0  0  0  0
    2.6448   -0.5247    0.9670 H   0  0  0  0  0  0  0  0  0  0  0  0
    4.7905    1.9536    0.5069 H   0  0  0  0  0  0  0  0  0  0  0  0
    3.3845    1.4975   -0.4865 H   0  0  0  0  0  0  0  0  0  0  0  0
   -4.8009   -3.5441   -0.5726 H   0  0  0  0  0  0  0  0  0  0  0  0
   -3.6392   -3.4101   -1.8595 H   0  0  0  0  0  0  0  0  0  0  0  0
   -1.4922   -3.1814   -2.1718 H   0  0  0  0  0  0  0  0  0  0  0  0
   -1.3486   -1.7022    1.9066 H   0  0  0  0  0  0  0  0  0  0  0  0
   -2.7979    0.4755    2.2187 H   0  0  0  0  0  0  0  0  0  0  0  0
    0.9203   -3.0001   -2.3093 H   0  0  0  0  0  0  0  0  0  0  0  0
    1.0382   -1.5162    1.7554 H   0  0  0  0  0  0  0  0  0  0  0  0
   -4.3683   -0.5631   -1.6395 H   0  0  0  0  0  0  0  0  0  0  0  0
   -1.9606    5.1249    1.4899 H   0  0  0  0  0  0  0  0  0  0  0  0
    6.6462   -0.2411    2.8960 H   0  0  0  0  0  0  0  0  0  0  0  0
    4.7107    4.4106   -1.9837 H   0  0  0  0  0  0  0  0  0  0  0  0
   -2.8353    6.1328   -1.7429 H   0  0  0  0  0  0  0  0  0  0  0  0
   -2.1976    6.5937   -0.1991 H   0  0  0  0  0  0  0  0  0  0  0  0
   -2.4908   -6.9812    0.1382 H   0  0  0  0  0  0  0  0  0  0  0  0
  1 28  1  0  0  0  0
  1 53  1  0  0  0  0
  2 23  2  0  0  0  0
  3 28  2  0  0  0  0
  4 31  1  0  0  0  0
  4 54  1  0  0  0  0
  5 31  2  0  0  0  0
  6 32  2  0  0  0  0
  7 14  1  0  0  0  0
  7 16  1  0  0  0  0
  7 20  1  0  0  0  0
  8 13  1  0  0  0  0
  8 23  1  0  0  0  0
  8 41  1  0  0  0  0
  9 29  2  0  0  0  0
  9 30  1  0  0  0  0
 10 32  1  0  0  0  0
 10 34  1  0  0  0  0
 10 52  1  0  0  0  0
 11 30  1  0  0  0  0
 11 34  2  0  0  0  0
 12 34  1  0  0  0  0
 12 55  1  0  0  0  0
 12 56  1  0  0  0  0
 13 15  1  0  0  0  0
 13 28  1  0  0  0  0
 13 36  1  0  0  0  0
 14 17  1  0  0  0  0
 14 37  1  0  0  0  0
 14 38  1  0  0  0  0
 15 18  1  0  0  0  0
 15 39  1  0  0  0  0
 15 40  1  0  0  0  0
 16 21  2  0  0  0  0
 16 22  1  0  0  0  0
 17 24  2  0  0  0  0
 17 29  1  0  0  0  0
 18 31  1  0  0  0  0
 18 42  1  0  0  0  0
 18 43  1  0  0  0  0
 19 23  1  0  0  0  0
 19 25  2  0  0  0  0
 19 26  1  0  0  0  0
 20 33  1  0  0  0  0
 20 44  1  0  0  0  0
 20 45  1  0  0  0  0
 21 25  1  0  0  0  0
 21 46  1  0  0  0  0
 22 26  2  0  0  0  0
 22 47  1  0  0  0  0
 24 27  1  0  0  0  0
 24 48  1  0  0  0  0
 25 49  1  0  0  0  0
 26 50  1  0  0  0  0
 27 30  2  0  0  0  0
 27 32  1  0  0  0  0
 29 51  1  0  0  0  0
 33 35  3  0  0  0  0
 35 57  1  0  0  0  0
M  END
> <PUBCHEM_COMPOUND_CID>
135625343

> <PUBCHEM_CONFORMER_RMSD>
1.2

> <PUBCHEM_CONFORMER_DIVERSEORDER>
1
59
52
112
48
73
6
110
72
14
44
95
116
26
67
91
28
98
60
96
100
13
43
58
31
92
118
105
69
93
101
21
86
102
39
36
53
61
10
66
111
104
68
97
33
42
87
24
7
75
19
117
113
16
47
119
34
83
76
57
20
85
22
49
8
81
11
27
29
63
114
79
94
4
120
37
55
84
80
103
41
115
65
45
99
46
88
40
51
23
3
17
121
108
82
50
71
74
32
70
78
30
89
35
15
5
77
62
18
56
109
9
90
64
2
38
107
12
54
106
25

> <PUBCHEM_MMFF94_PARTIAL_CHARGES>
47
1 -0.65
10 -0.49
11 -0.63
12 -0.85
13 0.36
14 0.51
16 0.1
17 -0.14
18 0.06
19 0.09
2 -0.57
20 0.57
21 -0.15
22 -0.15
23 0.54
24 -0.15
25 -0.15
26 -0.15
27 0.09
28 0.66
29 0.16
3 -0.57
30 0.49
31 0.66
32 0.54
33 -0.2
34 0.56
35 -0.18
4 -0.65
41 0.37
46 0.15
47 0.15
48 0.15
49 0.15
5 -0.57
50 0.15
51 0.15
52 0.37
53 0.5
54 0.5
55 0.4
56 0.4
57 0.18
6 -0.57
7 -0.84
8 -0.73
9 -0.62

> <PUBCHEM_EFFECTIVE_ROTOR_COUNT>
11

> <PUBCHEM_PHARMACOPHORE_FEATURES>
17
1 1 acceptor
1 10 donor
1 12 donor
1 2 acceptor
1 3 acceptor
1 35 hydrophobe
1 4 acceptor
1 5 acceptor
1 6 acceptor
1 7 cation
1 8 donor
1 9 acceptor
3 1 3 28 anion
3 4 5 31 anion
6 10 11 27 30 32 34 rings
6 16 19 21 22 25 26 rings
6 9 17 24 27 29 30 rings

> <PUBCHEM_HEAVY_ATOM_COUNT>
35

> <PUBCHEM_ATOM_DEF_STEREO_COUNT>
1

> <PUBCHEM_ATOM_UDEF_STEREO_COUNT>
0

> <PUBCHEM_BOND_DEF_STEREO_COUNT>
0

> <PUBCHEM_BOND_UDEF_STEREO_COUNT>
0

> <PUBCHEM_ISOTOPIC_ATOM_COUNT>
0

> <PUBCHEM_COMPONENT_COUNT>
1

> <PUBCHEM_CACTVS_TAUTO_COUNT>
-1

> <PUBCHEM_CONFORMER_ID>
08157A7F00000001

> <PUBCHEM_MMFF94_ENERGY>
98.6132

> <PUBCHEM_FEATURE_SELFOVERLAP>
86.47

> <PUBCHEM_SHAPE_FINGERPRINT>
10670039 82 18198354038335708518
10937287 8 17979911610566091907
11059845 2 17978199722765504202
12107183 9 17974271141818131906
12788726 201 18265615575190448258
12978246 48 18410295766024279784
13627167 48 18192175848060863156
14251764 38 18336270037656213404
14394314 77 18121513598639788133
14784336 7 17544200840314104590
14950920 106 17313105246154390722
15001296 14 18267026235834915016
15320291 9 18334579014775606948
15961568 22 18124326153156218102
16067690 210 18189054351402090722
16988056 13 16248552246870216855
20764821 26 18127403669106947944
21033648 144 18059571356510411074
21049683 271 17543917162383648303
21133410 221 17268860962434835792
22956985 138 17112119202144205427
376196 1 17687746043812903475
4173938 77 16901887617983399721
4561138 5 17750489910368266851
550186 7 18201726158113673087
6608658 132 18195534911522349110
6700243 42 17770247116876610726
9981440 41 18121773933914107907

> <PUBCHEM_SHAPE_MULTIPOLES>
655.18
12.51
8.36
1.94
21.52
3.71
0.73
2.77
-0.48
-11.31
-2.06
2.11
1.12
-2.58

> <PUBCHEM_SHAPE_SELFOVERLAP>
1400.407

> <PUBCHEM_SHAPE_VOLUME>
357.6

> <PUBCHEM_COORDINATE_TYPE>
2
5
10

$$$$
