135612772
  -OEChem-03292013293D

 36 38  0     0  0  0  0  0  0999 V2000
   -3.6140   -2.6847   -0.0795 O   0  0  0  0  0  0  0  0  0  0  0  0
    7.2740    0.0492   -1.3099 O   0  0  0  0  0  0  0  0  0  0  0  0
    7.3642   -0.7566    0.8136 O   0  0  0  0  0  0  0  0  0  0  0  0
    1.1275    0.4713   -0.1136 N   0  0  0  0  0  0  0  0  0  0  0  0
   -1.9292   -0.6409    0.4463 N   0  0  0  0  0  0  0  0  0  0  0  0
   -5.3904   -1.2349   -0.4061 N   0  0  0  0  0  0  0  0  0  0  0  0
   -5.1489    1.0993   -0.2031 N   0  0  0  0  0  0  0  0  0  0  0  0
   -7.2301    0.1669   -0.7504 N   0  0  0  0  0  0  0  0  0  0  0  0
    0.2787    0.1692    1.0182 C   0  0  0  0  0  0  0  0  0  0  0  0
   -1.1539    0.4361    0.6970 C   0  0  0  0  0  0  0  0  0  0  0  0
   -3.2238   -0.3809    0.1572 C   0  0  0  0  0  0  0  0  0  0  0  0
   -3.7948    0.8854    0.1022 C   0  0  0  0  0  0  0  0  0  0  0  0
    2.4982    0.2787   -0.1167 C   0  0  0  0  0  0  0  0  0  0  0  0
   -1.6120    1.7441    0.6713 C   0  0  0  0  0  0  0  0  0  0  0  0
   -2.9536    1.9640    0.3685 C   0  0  0  0  0  0  0  0  0  0  0  0
   -4.0726   -1.5494   -0.1158 C   0  0  0  0  0  0  0  0  0  0  0  0
    3.1339   -0.2330    1.0146 C   0  0  0  0  0  0  0  0  0  0  0  0
    3.2438    0.5971   -1.2518 C   0  0  0  0  0  0  0  0  0  0  0  0
   -5.8992    0.0599   -0.4446 C   0  0  0  0  0  0  0  0  0  0  0  0
    5.2609   -0.1079   -0.1244 C   0  0  0  0  0  0  0  0  0  0  0  0
    4.5153   -0.4262    1.0107 C   0  0  0  0  0  0  0  0  0  0  0  0
    4.6251    0.4039   -1.2555 C   0  0  0  0  0  0  0  0  0  0  0  0
    6.7009   -0.3105   -0.1284 C   0  0  0  0  0  0  0  0  0  0  0  0
    0.5660    0.7678    1.8919 H   0  0  0  0  0  0  0  0  0  0  0  0
    0.3821   -0.8875    1.2957 H   0  0  0  0  0  0  0  0  0  0  0  0
    0.7051    0.8438   -0.9576 H   0  0  0  0  0  0  0  0  0  0  0  0
   -0.9555    2.5826    0.8791 H   0  0  0  0  0  0  0  0  0  0  0  0
   -3.3366    2.9808    0.3423 H   0  0  0  0  0  0  0  0  0  0  0  0
    2.5934   -0.4927    1.9199 H   0  0  0  0  0  0  0  0  0  0  0  0
    2.7608    0.9967   -2.1400 H   0  0  0  0  0  0  0  0  0  0  0  0
   -6.0265   -2.0018   -0.6038 H   0  0  0  0  0  0  0  0  0  0  0  0
    4.9923   -0.8257    1.9020 H   0  0  0  0  0  0  0  0  0  0  0  0
    5.1670    0.6650   -2.1602 H   0  0  0  0  0  0  0  0  0  0  0  0
   -7.6862    1.0713   -0.8008 H   0  0  0  0  0  0  0  0  0  0  0  0
   -7.7981   -0.6527   -0.9351 H   0  0  0  0  0  0  0  0  0  0  0  0
    8.2448   -0.0915   -1.3023 H   0  0  0  0  0  0  0  0  0  0  0  0
  1 16  2  0  0  0  0
  2 23  1  0  0  0  0
  2 36  1  0  0  0  0
  3 23  2  0  0  0  0
  4  9  1  0  0  0  0
  4 13  1  0  0  0  0
  4 26  1  0  0  0  0
  5 10  2  0  0  0  0
  5 11  1  0  0  0  0
  6 16  1  0  0  0  0
  6 19  1  0  0  0  0
  6 31  1  0  0  0  0
  7 12  1  0  0  0  0
  7 19  2  0  0  0  0
  8 19  1  0  0  0  0
  8 34  1  0  0  0  0
  8 35  1  0  0  0  0
  9 10  1  0  0  0  0
  9 24  1  0  0  0  0
  9 25  1  0  0  0  0
 10 14  1  0  0  0  0
 11 12  2  0  0  0  0
 11 16  1  0  0  0  0
 12 15  1  0  0  0  0
 13 17  2  0  0  0  0
 13 18  1  0  0  0  0
 14 15  2  0  0  0  0
 14 27  1  0  0  0  0
 15 28  1  0  0  0  0
 17 21  1  0  0  0  0
 17 29  1  0  0  0  0
 18 22  2  0  0  0  0
 18 30  1  0  0  0  0
 20 21  2  0  0  0  0
 20 22  1  0  0  0  0
 20 23  1  0  0  0  0
 21 32  1  0  0  0  0
 22 33  1  0  0  0  0
M  END
> <PUBCHEM_COMPOUND_CID>
135612772

> <PUBCHEM_CONFORMER_RMSD>
0.8

> <PUBCHEM_CONFORMER_DIVERSEORDER>
1
7
10
11
17
4
6
18
5
9
12
16
14
13
15
8
3
2

> <PUBCHEM_MMFF94_PARTIAL_CHARGES>
34
1 -0.57
10 0.17
11 0.4
12 0.18
13 0.1
14 -0.15
15 -0.15
16 0.54
17 -0.15
18 -0.15
19 0.56
2 -0.65
20 0.09
21 -0.15
22 -0.15
23 0.63
26 0.4
27 0.15
28 0.15
29 0.15
3 -0.57
30 0.15
31 0.37
32 0.15
33 0.15
34 0.4
35 0.4
36 0.5
4 -0.87
5 -0.62
6 -0.49
7 -0.63
8 -0.85
9 0.51

> <PUBCHEM_EFFECTIVE_ROTOR_COUNT>
4

> <PUBCHEM_PHARMACOPHORE_FEATURES>
12
1 1 acceptor
1 2 acceptor
1 3 acceptor
1 4 cation
1 4 donor
1 5 acceptor
1 6 donor
1 8 donor
3 2 3 23 anion
6 13 17 18 20 21 22 rings
6 5 10 11 12 14 15 rings
6 6 7 11 12 16 19 rings

> <PUBCHEM_HEAVY_ATOM_COUNT>
23

> <PUBCHEM_ATOM_DEF_STEREO_COUNT>
0

> <PUBCHEM_ATOM_UDEF_STEREO_COUNT>
0

> <PUBCHEM_BOND_DEF_STEREO_COUNT>
0

> <PUBCHEM_BOND_UDEF_STEREO_COUNT>
0

> <PUBCHEM_ISOTOPIC_ATOM_COUNT>
0

> <PUBCHEM_COMPONENT_COUNT>
1

> <PUBCHEM_CACTVS_TAUTO_COUNT>
-1

> <PUBCHEM_CONFORMER_ID>
0815496400000001

> <PUBCHEM_MMFF94_ENERGY>
72.4383

> <PUBCHEM_FEATURE_SELFOVERLAP>
61.038

> <PUBCHEM_SHAPE_FINGERPRINT>
10 15 17418082240467484618
10354089 29 12103846761559790226
106641 1 12247672794967305517
11089746 13 17676210173919843220
11315181 36 18412267250370302257
11524674 6 16558747931945735631
11719270 70 18202563952453063262
12107183 9 17540526921162690744
12166972 35 18186804694920101660
12236239 1 18113901563596871848
12516196 113 17275102825563413864
13288520 33 18272369780904577385
13533116 47 18114174190957070026
13685833 64 15985104106999788016
13885169 127 16630250221457059657
1420 363 16988564602381157236
14251752 14 18260264144275071324
14294032 229 18118401744663650205
14386348 63 17275387611801354991
14848160 23 17632859728654728270
14849402 71 11743536818534704162
15183329 4 17821443556103133823
15419008 47 17561358470458360632
15716309 27 13758355561793872860
16992828 155 17460877285235485381
17844677 252 16056884632497212600
17857418 61 18334293158836191266
1813 80 14404917915425158808
18681886 176 18410571825421308984
18927931 339 18343305881376709335
19489759 90 18413390921136214673
20281389 69 7997972362771209070
21033648 29 16343408514962606240
21054139 6 18334011714098760330
21150785 3 17531248369873580600
21267235 1 18411419553619076419
21623969 137 15913332390369720404
22224240 67 14764623119230379542
2297311 6 18202566172481240905
23035841 295 18412545409689951297
23198884 109 17095241427983972873
23402539 116 18335138700025186524
23557571 272 17917715660360451641
23559900 14 18269828873599023025
29717793 49 18187088343455511062
300161 21 17749389278170426616
3004659 81 18334855043258090352
335352 9 18411694392992802981
34797466 226 17917714621695660592
4325135 7 18261109660142740263
5283156 175 18335420140663270906
559249 180 18407758140658567371
5758199 1 12607396703376758198
59755656 215 18272934895142091350
59755656 520 16298386877054800099
67856867 119 18263084465148166948
7495541 125 17775004626707217416

> <PUBCHEM_SHAPE_MULTIPOLES>
430.82
19.75
1.52
1.06
12.66
0.34
0.09
3.56
4.48
-2.62
-0.1
1.24
-0.08
-0.75

> <PUBCHEM_SHAPE_SELFOVERLAP>
946.188

> <PUBCHEM_SHAPE_VOLUME>
229.6

> <PUBCHEM_COORDINATE_TYPE>
2
5
10

$$$$
