135625291
  -OEChem-03292013293D

 31 32  0     0  0  0  0  0  0999 V2000
    0.2705    1.7367   -1.0041 O   0  0  0  0  0  0  0  0  0  0  0  0
   -6.4482    1.0152    0.9408 O   0  0  0  0  0  0  0  0  0  0  0  0
    0.3070   -1.2359   -0.4101 N   0  0  0  0  0  0  0  0  0  0  0  0
   -3.2998   -0.2850   -0.4512 N   0  0  0  0  0  0  0  0  0  0  0  0
    2.0932   -2.2620    0.4438 N   0  0  0  0  0  0  0  0  0  0  0  0
    2.4429    1.7145   -0.2013 N   0  0  0  0  0  0  0  0  0  0  0  0
    3.5496   -0.2631    0.5893 N   0  0  0  0  0  0  0  0  0  0  0  0
    4.6447    1.8061    0.5882 N   0  0  0  0  0  0  0  0  0  0  0  0
   -1.0283   -1.0692   -0.9314 C   0  0  0  0  0  0  0  0  0  0  0  0
   -1.9629   -0.4506    0.1075 C   0  0  0  0  0  0  0  0  0  0  0  0
    1.2597   -0.2730   -0.2488 C   0  0  0  0  0  0  0  0  0  0  0  0
    2.3492   -0.9265    0.2779 C   0  0  0  0  0  0  0  0  0  0  0  0
    0.8555   -2.4158    0.0208 C   0  0  0  0  0  0  0  0  0  0  0  0
   -4.1997    0.3136    0.5243 C   0  0  0  0  0  0  0  0  0  0  0  0
    1.2240    1.1251   -0.5341 C   0  0  0  0  0  0  0  0  0  0  0  0
   -5.6021    0.4439   -0.0485 C   0  0  0  0  0  0  0  0  0  0  0  0
    3.5446    1.0260    0.3369 C   0  0  0  0  0  0  0  0  0  0  0  0
   -0.9606   -0.4506   -1.8336 H   0  0  0  0  0  0  0  0  0  0  0  0
   -1.3925   -2.0561   -1.2421 H   0  0  0  0  0  0  0  0  0  0  0  0
   -1.9998   -1.0989    0.9925 H   0  0  0  0  0  0  0  0  0  0  0  0
   -1.5740    0.5200    0.4356 H   0  0  0  0  0  0  0  0  0  0  0  0
   -3.6629   -1.1906   -0.7473 H   0  0  0  0  0  0  0  0  0  0  0  0
    0.3097   -3.3494    0.0045 H   0  0  0  0  0  0  0  0  0  0  0  0
   -3.8424    1.3073    0.8219 H   0  0  0  0  0  0  0  0  0  0  0  0
   -4.2432   -0.2905    1.4396 H   0  0  0  0  0  0  0  0  0  0  0  0
    2.5412    2.7131   -0.3597 H   0  0  0  0  0  0  0  0  0  0  0  0
   -6.0085   -0.5345   -0.3260 H   0  0  0  0  0  0  0  0  0  0  0  0
   -5.6093    1.0944   -0.9295 H   0  0  0  0  0  0  0  0  0  0  0  0
    5.4927    1.4079    0.9766 H   0  0  0  0  0  0  0  0  0  0  0  0
    4.6431    2.8014    0.3939 H   0  0  0  0  0  0  0  0  0  0  0  0
   -7.3355    1.0877    0.5497 H   0  0  0  0  0  0  0  0  0  0  0  0
  1 15  2  0  0  0  0
  2 16  1  0  0  0  0
  2 31  1  0  0  0  0
  3  9  1  0  0  0  0
  3 11  1  0  0  0  0
  3 13  1  0  0  0  0
  4 10  1  0  0  0  0
  4 14  1  0  0  0  0
  4 22  1  0  0  0  0
  5 12  1  0  0  0  0
  5 13  2  0  0  0  0
  6 15  1  0  0  0  0
  6 17  1  0  0  0  0
  6 26  1  0  0  0  0
  7 12  1  0  0  0  0
  7 17  2  0  0  0  0
  8 17  1  0  0  0  0
  8 29  1  0  0  0  0
  8 30  1  0  0  0  0
  9 10  1  0  0  0  0
  9 18  1  0  0  0  0
  9 19  1  0  0  0  0
 10 20  1  0  0  0  0
 10 21  1  0  0  0  0
 11 12  2  0  0  0  0
 11 15  1  0  0  0  0
 13 23  1  0  0  0  0
 14 16  1  0  0  0  0
 14 24  1  0  0  0  0
 14 25  1  0  0  0  0
 16 27  1  0  0  0  0
 16 28  1  0  0  0  0
M  END
> <PUBCHEM_COMPOUND_CID>
135625291

> <PUBCHEM_CONFORMER_RMSD>
0.6

> <PUBCHEM_CONFORMER_DIVERSEORDER>
1
3
34
24
54
28
21
29
30
66
76
58
22
6
73
50
37
44
65
68
8
26
45
62
41
52
14
2
72
19
46
57
27
35
10
7
55
49
15
31
36
47
71
20
74
75
43
18
33
64
4
32
69
70
12
23
59
17
5
39
51
9
38
60
11
40
53
63
25
16
42
13
48
67
56
61

> <PUBCHEM_MMFF94_PARTIAL_CHARGES>
23
1 -0.57
10 0.27
11 -0.24
12 0.35
13 0.04
14 0.27
15 0.71
16 0.28
17 0.56
2 -0.68
22 0.36
23 0.15
26 0.37
29 0.4
3 0.05
30 0.4
31 0.4
4 -0.9
5 -0.57
6 -0.49
7 -0.57
8 -0.85
9 0.26

> <PUBCHEM_EFFECTIVE_ROTOR_COUNT>
5

> <PUBCHEM_PHARMACOPHORE_FEATURES>
10
1 1 acceptor
1 2 acceptor
1 2 donor
1 4 cation
1 4 donor
1 6 donor
1 8 donor
3 3 5 13 cation
5 3 5 11 12 13 rings
6 6 7 11 12 15 17 rings

> <PUBCHEM_HEAVY_ATOM_COUNT>
17

> <PUBCHEM_ATOM_DEF_STEREO_COUNT>
0

> <PUBCHEM_ATOM_UDEF_STEREO_COUNT>
0

> <PUBCHEM_BOND_DEF_STEREO_COUNT>
0

> <PUBCHEM_BOND_UDEF_STEREO_COUNT>
0

> <PUBCHEM_ISOTOPIC_ATOM_COUNT>
0

> <PUBCHEM_COMPONENT_COUNT>
1

> <PUBCHEM_CACTVS_TAUTO_COUNT>
-1

> <PUBCHEM_CONFORMER_ID>
08157A4B00000001

> <PUBCHEM_MMFF94_ENERGY>
20.289

> <PUBCHEM_FEATURE_SELFOVERLAP>
50.917

> <PUBCHEM_SHAPE_FINGERPRINT>
10354089 29 18409453583351328155
10382601 240 18261385642220406234
10465860 228 18412546504838325654
10493431 412 18266173010315891716
10498660 4 15338569215490101795
10688039 33 17676769782494626077
10980938 120 18335697247684829734
11724838 91 18340207483991363455
12236239 1 18060415820411136335
12633257 1 17095801135105386161
13167372 99 18198910198268127377
14790565 3 18117565243636703052
15188451 53 16298958675352767363
15475509 35 16516236328575534298
16945 1 18262777650090892910
19784866 240 11242245234718848849
19784866 9 18412261748532715113
20157964 124 18338795620877340671
212847 35 17989485216679362081
21475661 188 17058065939222201536
23402655 69 18131346444784141687
2748010 2 18048008819819050998
293599 30 18337953506265444276
33824 294 18334293145534648923
351380 3 11386363755747641353
449060 62 18413668015204013811
474 4 18409166653476118241
5104073 3 18335974371796554970
5283268 108 17676493804843718365
8272917 22 18340772550662340631

> <PUBCHEM_SHAPE_MULTIPOLES>
308.23
10.43
2.14
0.84
18.07
0.57
-0.05
-5.7
3.5
-2.09
0
0.2
-0.08
-0.39

> <PUBCHEM_SHAPE_SELFOVERLAP>
645.005

> <PUBCHEM_SHAPE_VOLUME>
174.1

> <PUBCHEM_COORDINATE_TYPE>
2
5
10

$$$$
