135600340
  -OEChem-03292013293D

 33 35  0     1  0  0  0  0  0999 V2000
    0.1637   -3.7056    0.5793 Cl  0  0  0  0  0  0  0  0  0  0  0  0
    1.6526    0.4945    1.0718 O   0  0  0  0  0  0  0  0  0  0  0  0
    2.4880   -2.0241   -1.3651 O   0  0  0  0  0  0  0  0  0  0  0  0
    4.3113   -0.6330    0.1559 O   0  0  0  0  0  0  0  0  0  0  0  0
    1.6562    3.2636    0.6435 O   0  0  0  0  0  0  0  0  0  0  0  0
   -4.5455   -0.6621   -0.2331 O   0  0  0  0  0  0  0  0  0  0  0  0
   -0.0763   -1.0484    0.3051 N   0  0  0  0  0  0  0  0  0  0  0  0
   -2.0146   -2.1581    0.1895 N   0  0  0  0  0  0  0  0  0  0  0  0
   -0.8484    1.2262    0.0072 N   0  0  0  0  0  0  0  0  0  0  0  0
   -3.2286    1.2663   -0.2646 N   0  0  0  0  0  0  0  0  0  0  0  0
   -1.9800    3.2612   -0.3090 N   0  0  0  0  0  0  0  0  0  0  0  0
    2.1344   -0.7411   -0.8884 C   0  0  1  0  0  0  0  0  0  0  0  0
    1.4035   -0.7829    0.4496 C   0  0  1  0  0  0  0  0  0  0  0  0
    3.3370    0.1221   -0.5628 C   0  0  1  0  0  0  0  0  0  0  0  0
    2.7441    1.1522    0.3902 C   0  0  1  0  0  0  0  0  0  0  0  0
    2.1908    2.3776   -0.3241 C   0  0  0  0  0  0  0  0  0  0  0  0
   -1.0434   -0.1072    0.1088 C   0  0  0  0  0  0  0  0  0  0  0  0
   -0.7099   -2.2665    0.3466 C   0  0  0  0  0  0  0  0  0  0  0  0
   -2.2174   -0.8178    0.0424 C   0  0  0  0  0  0  0  0  0  0  0  0
   -3.4531   -0.1137   -0.1619 C   0  0  0  0  0  0  0  0  0  0  0  0
   -1.9644    1.8967   -0.1806 C   0  0  0  0  0  0  0  0  0  0  0  0
    1.5148   -0.2509   -1.6492 H   0  0  0  0  0  0  0  0  0  0  0  0
    1.7892   -1.5571    1.1212 H   0  0  0  0  0  0  0  0  0  0  0  0
    3.8231    0.5419   -1.4481 H   0  0  0  0  0  0  0  0  0  0  0  0
    3.4540    1.4638    1.1648 H   0  0  0  0  0  0  0  0  0  0  0  0
    1.3969    2.1205   -1.0301 H   0  0  0  0  0  0  0  0  0  0  0  0
    2.9876    2.8969   -0.8661 H   0  0  0  0  0  0  0  0  0  0  0  0
    3.0400   -1.8991   -2.1557 H   0  0  0  0  0  0  0  0  0  0  0  0
    5.0437   -0.0311    0.3727 H   0  0  0  0  0  0  0  0  0  0  0  0
    1.3193    4.0406    0.1657 H   0  0  0  0  0  0  0  0  0  0  0  0
   -4.0391    1.8611   -0.4109 H   0  0  0  0  0  0  0  0  0  0  0  0
   -1.1234    3.8023   -0.2634 H   0  0  0  0  0  0  0  0  0  0  0  0
   -2.8457    3.7692   -0.4537 H   0  0  0  0  0  0  0  0  0  0  0  0
  1 18  1  0  0  0  0
  2 13  1  0  0  0  0
  2 15  1  0  0  0  0
  3 12  1  0  0  0  0
  3 28  1  0  0  0  0
  4 14  1  0  0  0  0
  4 29  1  0  0  0  0
  5 16  1  0  0  0  0
  5 30  1  0  0  0  0
  6 20  2  0  0  0  0
  7 13  1  0  0  0  0
  7 17  1  0  0  0  0
  7 18  1  0  0  0  0
  8 18  2  0  0  0  0
  8 19  1  0  0  0  0
  9 17  1  0  0  0  0
  9 21  2  0  0  0  0
 10 20  1  0  0  0  0
 10 21  1  0  0  0  0
 10 31  1  0  0  0  0
 11 21  1  0  0  0  0
 11 32  1  0  0  0  0
 11 33  1  0  0  0  0
 12 13  1  0  0  0  0
 12 14  1  0  0  0  0
 12 22  1  0  0  0  0
 13 23  1  0  0  0  0
 14 15  1  0  0  0  0
 14 24  1  0  0  0  0
 15 16  1  0  0  0  0
 15 25  1  0  0  0  0
 16 26  1  0  0  0  0
 16 27  1  0  0  0  0
 17 19  2  0  0  0  0
 19 20  1  0  0  0  0
M  END
> <PUBCHEM_COMPOUND_CID>
135600340

> <PUBCHEM_CONFORMER_RMSD>
0.6

> <PUBCHEM_CONFORMER_DIVERSEORDER>
1
7
10
9
3
11
12
2
6
8
5
4

> <PUBCHEM_MMFF94_PARTIAL_CHARGES>
27
1 -0.12
10 -0.49
11 -0.85
12 0.28
13 0.54
14 0.28
15 0.28
16 0.28
17 -0.03
18 0.31
19 0.14
2 -0.56
20 0.72
21 0.56
28 0.4
29 0.4
3 -0.68
30 0.4
31 0.37
32 0.4
33 0.4
4 -0.68
5 -0.68
6 -0.57
7 0.05
8 -0.57
9 -0.58

> <PUBCHEM_EFFECTIVE_ROTOR_COUNT>
3

> <PUBCHEM_PHARMACOPHORE_FEATURES>
14
1 10 donor
1 11 donor
1 2 acceptor
1 3 acceptor
1 3 donor
1 4 acceptor
1 4 donor
1 5 acceptor
1 5 donor
1 6 acceptor
3 7 8 18 cation
5 2 12 13 14 15 rings
5 7 8 17 18 19 rings
6 9 10 17 19 20 21 rings

> <PUBCHEM_HEAVY_ATOM_COUNT>
21

> <PUBCHEM_ATOM_DEF_STEREO_COUNT>
4

> <PUBCHEM_ATOM_UDEF_STEREO_COUNT>
0

> <PUBCHEM_BOND_DEF_STEREO_COUNT>
0

> <PUBCHEM_BOND_UDEF_STEREO_COUNT>
0

> <PUBCHEM_ISOTOPIC_ATOM_COUNT>
0

> <PUBCHEM_COMPONENT_COUNT>
1

> <PUBCHEM_CACTVS_TAUTO_COUNT>
-1

> <PUBCHEM_CONFORMER_ID>
081518D400000001

> <PUBCHEM_MMFF94_ENERGY>
51.3265

> <PUBCHEM_FEATURE_SELFOVERLAP>
71.242

> <PUBCHEM_SHAPE_FINGERPRINT>
10498660 4 18334572396172091501
10608611 8 18267585882614990224
10616163 171 17905612459842312076
10967382 1 18265613363081564241
12403259 226 18409728443582608823
12403260 363 18409719660342911366
13140716 1 18336271257558807547
14790565 3 18409738387313412705
16945 1 18337104575666562531
17802600 8 18409726266055503060
18186145 218 18271532974666095287
19591789 44 18265899064121633835
20510252 161 18412826876256452289
20905425 154 17836365951937987774
21524375 3 18187081728436151091
22802520 49 18340778146761718474
2334 1 18048879890177569971
23402539 116 18411688903027703094
23557571 272 17978803624793644254
23559900 14 18341328998245804584
238 59 18123437580389041533
2748010 2 18189903182636117899
350125 39 18047473318653484467
5262128 65 17916882204828930700
7364860 26 18270680990841890464
7832392 63 17979918211582737725
81228 2 17979065317035458515
9709674 26 18341899614225797806
9925002 15 15320259507587012070

> <PUBCHEM_SHAPE_MULTIPOLES>
379.79
6.17
3.75
0.83
0.82
0.06
0.07
0.93
0.85
0.12
-0.37
-0.46
-0.16
0.64

> <PUBCHEM_SHAPE_SELFOVERLAP>
816.693

> <PUBCHEM_SHAPE_VOLUME>
208.3

> <PUBCHEM_COORDINATE_TYPE>
2
5
10

$$$$
