135625312
  -OEChem-03292013293D

 57 59  0     1  0  0  0  0  0999 V2000
    3.3308   -2.8164   -1.1294 O   0  0  0  0  0  0  0  0  0  0  0  0
    6.4046   -0.3450    2.0095 O   0  0  0  0  0  0  0  0  0  0  0  0
    4.2670   -0.2360    2.7640 O   0  0  0  0  0  0  0  0  0  0  0  0
   -2.1948    2.8203    2.7465 O   0  0  0  0  0  0  0  0  0  0  0  0
    4.4050    3.8111   -1.3511 O   0  0  0  0  0  0  0  0  0  0  0  0
    5.6743    2.3105   -2.4842 O   0  0  0  0  0  0  0  0  0  0  0  0
   -2.9418   -2.6068   -0.0598 N   0  0  3  0  0  0  0  0  0  0  0  0
    3.2604   -1.0957    0.4232 N   0  0  0  0  0  0  0  0  0  0  0  0
   -3.2836    3.6606   -1.1010 N   0  0  0  0  0  0  0  0  0  0  0  0
   -2.4683    4.3137    1.0070 N   0  0  0  0  0  0  0  0  0  0  0  0
   -2.7125    5.8974   -0.6935 N   0  0  0  0  0  0  0  0  0  0  0  0
   -2.8035   -6.0253   -0.0165 N   0  0  0  0  0  0  0  0  0  0  0  0
   -3.7354   -1.7153    0.7580 C   0  0  0  0  0  0  0  0  0  0  0  0
    4.6798   -0.8236    0.4366 C   0  0  1  0  0  0  0  0  0  0  0  0
   -3.6119   -0.3058    0.2855 C   0  0  0  0  0  0  0  0  0  0  0  0
    5.0965    0.2010   -0.6253 C   0  0  0  0  0  0  0  0  0  0  0  0
   -1.5496   -2.4780   -0.1372 C   0  0  0  0  0  0  0  0  0  0  0  0
   -3.1362    0.6796    1.1489 C   0  0  0  0  0  0  0  0  0  0  0  0
    1.2240   -2.2217   -0.2891 C   0  0  0  0  0  0  0  0  0  0  0  0
   -3.0250    1.9971    0.6952 C   0  0  0  0  0  0  0  0  0  0  0  0
   -3.6260   -3.6616   -0.8065 C   0  0  0  0  0  0  0  0  0  0  0  0
    4.4908    1.6025   -0.4760 C   0  0  0  0  0  0  0  0  0  0  0  0
   -3.9720    0.0243   -1.0202 C   0  0  0  0  0  0  0  0  0  0  0  0
   -0.8768   -2.8579   -1.2985 C   0  0  0  0  0  0  0  0  0  0  0  0
   -0.8357   -1.9702    0.9482 C   0  0  0  0  0  0  0  0  0  0  0  0
   -3.3829    2.3446   -0.6140 C   0  0  0  0  0  0  0  0  0  0  0  0
    2.6698   -2.0871   -0.3690 C   0  0  0  0  0  0  0  0  0  0  0  0
    0.5100   -2.7297   -1.3744 C   0  0  0  0  0  0  0  0  0  0  0  0
    0.5512   -1.8421    0.8723 C   0  0  0  0  0  0  0  0  0  0  0  0
   -3.8578    1.3424   -1.4670 C   0  0  0  0  0  0  0  0  0  0  0  0
    5.0578   -0.4286    1.8494 C   0  0  0  0  0  0  0  0  0  0  0  0
   -2.5248    3.0585    1.5907 C   0  0  0  0  0  0  0  0  0  0  0  0
    4.9233    2.5718   -1.5548 C   0  0  0  0  0  0  0  0  0  0  0  0
   -2.8407    4.5909   -0.3029 C   0  0  0  0  0  0  0  0  0  0  0  0
   -3.1661   -4.9794   -0.3647 C   0  0  0  0  0  0  0  0  0  0  0  0
   -3.4725   -1.8201    1.8177 H   0  0  0  0  0  0  0  0  0  0  0  0
   -4.8005   -1.9805    0.7211 H   0  0  0  0  0  0  0  0  0  0  0  0
    5.1922   -1.7715    0.2286 H   0  0  0  0  0  0  0  0  0  0  0  0
    4.8315   -0.1889   -1.6171 H   0  0  0  0  0  0  0  0  0  0  0  0
    6.1903    0.2948   -0.6215 H   0  0  0  0  0  0  0  0  0  0  0  0
   -2.8585    0.4222    2.1675 H   0  0  0  0  0  0  0  0  0  0  0  0
    2.6738   -0.4714    0.9673 H   0  0  0  0  0  0  0  0  0  0  0  0
    4.7870    2.0282    0.4891 H   0  0  0  0  0  0  0  0  0  0  0  0
    3.3978    1.5375   -0.5114 H   0  0  0  0  0  0  0  0  0  0  0  0
   -3.4940   -3.5323   -1.8862 H   0  0  0  0  0  0  0  0  0  0  0  0
   -4.7099   -3.6071   -0.6477 H   0  0  0  0  0  0  0  0  0  0  0  0
   -4.3503   -0.7321   -1.7028 H   0  0  0  0  0  0  0  0  0  0  0  0
   -1.3925   -3.2380   -2.1744 H   0  0  0  0  0  0  0  0  0  0  0  0
   -1.3137   -1.6951    1.8828 H   0  0  0  0  0  0  0  0  0  0  0  0
    1.0149   -3.0227   -2.2913 H   0  0  0  0  0  0  0  0  0  0  0  0
    1.0718   -1.4770    1.7528 H   0  0  0  0  0  0  0  0  0  0  0  0
   -4.1444    1.5830   -2.4880 H   0  0  0  0  0  0  0  0  0  0  0  0
   -2.1312    5.0836    1.5775 H   0  0  0  0  0  0  0  0  0  0  0  0
    6.6490   -0.1046    2.9286 H   0  0  0  0  0  0  0  0  0  0  0  0
   -2.9609    6.1918   -1.6317 H   0  0  0  0  0  0  0  0  0  0  0  0
   -2.3663    6.6081   -0.0583 H   0  0  0  0  0  0  0  0  0  0  0  0
    4.6978    4.4471   -2.0382 H   0  0  0  0  0  0  0  0  0  0  0  0
  1 27  2  0  0  0  0
  2 31  1  0  0  0  0
  2 54  1  0  0  0  0
  3 31  2  0  0  0  0
  4 32  2  0  0  0  0
  5 33  1  0  0  0  0
  5 57  1  0  0  0  0
  6 33  2  0  0  0  0
  7 13  1  0  0  0  0
  7 17  1  0  0  0  0
  7 21  1  0  0  0  0
  8 14  1  0  0  0  0
  8 27  1  0  0  0  0
  8 42  1  0  0  0  0
  9 26  1  0  0  0  0
  9 34  2  0  0  0  0
 10 32  1  0  0  0  0
 10 34  1  0  0  0  0
 10 53  1  0  0  0  0
 11 34  1  0  0  0  0
 11 55  1  0  0  0  0
 11 56  1  0  0  0  0
 12 35  3  0  0  0  0
 13 15  1  0  0  0  0
 13 36  1  0  0  0  0
 13 37  1  0  0  0  0
 14 16  1  0  0  0  0
 14 31  1  0  0  0  0
 14 38  1  0  0  0  0
 15 18  2  0  0  0  0
 15 23  1  0  0  0  0
 16 22  1  0  0  0  0
 16 39  1  0  0  0  0
 16 40  1  0  0  0  0
 17 24  2  0  0  0  0
 17 25  1  0  0  0  0
 18 20  1  0  0  0  0
 18 41  1  0  0  0  0
 19 27  1  0  0  0  0
 19 28  2  0  0  0  0
 19 29  1  0  0  0  0
 20 26  2  0  0  0  0
 20 32  1  0  0  0  0
 21 35  1  0  0  0  0
 21 45  1  0  0  0  0
 21 46  1  0  0  0  0
 22 33  1  0  0  0  0
 22 43  1  0  0  0  0
 22 44  1  0  0  0  0
 23 30  2  0  0  0  0
 23 47  1  0  0  0  0
 24 28  1  0  0  0  0
 24 48  1  0  0  0  0
 25 29  2  0  0  0  0
 25 49  1  0  0  0  0
 26 30  1  0  0  0  0
 28 50  1  0  0  0  0
 29 51  1  0  0  0  0
 30 52  1  0  0  0  0
M  END
> <PUBCHEM_COMPOUND_CID>
135625312

> <PUBCHEM_CONFORMER_RMSD>
1.2

> <PUBCHEM_CONFORMER_DIVERSEORDER>
1
91
106
54
70
47
31
85
92
102
109
41
55
113
115
83
50
104
98
76
40
74
94
78
95
69
44
82
105
53
103
13
97
71
81
100
77
59
67
96
60
114
80
38
107
22
89
35
87
9
32
88
56
11
15
49
75
63
45
62
73
16
33
68
30
2
48
90
5
34
86
72
43
42
23
79
46
20
24
99
93
8
3
29
39
21
7
57
112
110
10
26
64
17
111
61
25
6
14
58
27
28
19
4
65
52
108
37
12
84
18
101
66
36
51

> <PUBCHEM_MMFF94_PARTIAL_CHARGES>
47
1 -0.57
10 -0.49
11 -0.85
12 -0.56
13 0.51
14 0.36
15 -0.14
17 0.1
18 -0.15
19 0.09
2 -0.65
20 0.09
21 0.57
22 0.06
23 -0.15
24 -0.15
25 -0.15
26 0.18
27 0.54
28 -0.15
29 -0.15
3 -0.57
30 -0.15
31 0.66
32 0.54
33 0.66
34 0.56
35 0.36
4 -0.57
41 0.15
42 0.37
47 0.15
48 0.15
49 0.15
5 -0.65
50 0.15
51 0.15
52 0.15
53 0.37
54 0.5
55 0.4
56 0.4
57 0.5
6 -0.57
7 -0.84
8 -0.73
9 -0.63

> <PUBCHEM_EFFECTIVE_ROTOR_COUNT>
11

> <PUBCHEM_PHARMACOPHORE_FEATURES>
16
1 1 acceptor
1 10 donor
1 11 donor
1 12 acceptor
1 2 acceptor
1 3 acceptor
1 4 acceptor
1 5 acceptor
1 6 acceptor
1 7 cation
1 8 donor
3 2 3 31 anion
3 5 6 33 anion
6 15 18 20 23 26 30 rings
6 17 19 24 25 28 29 rings
6 9 10 20 26 32 34 rings

> <PUBCHEM_HEAVY_ATOM_COUNT>
35

> <PUBCHEM_ATOM_DEF_STEREO_COUNT>
1

> <PUBCHEM_ATOM_UDEF_STEREO_COUNT>
0

> <PUBCHEM_BOND_DEF_STEREO_COUNT>
0

> <PUBCHEM_BOND_UDEF_STEREO_COUNT>
0

> <PUBCHEM_ISOTOPIC_ATOM_COUNT>
0

> <PUBCHEM_COMPONENT_COUNT>
1

> <PUBCHEM_CACTVS_TAUTO_COUNT>
-1

> <PUBCHEM_CONFORMER_ID>
08157A6000000001

> <PUBCHEM_MMFF94_ENERGY>
99.236

> <PUBCHEM_FEATURE_SELFOVERLAP>
81.39

> <PUBCHEM_SHAPE_FINGERPRINT>
10670039 82 18198071468137030150
10937287 8 17980193089843038139
11059845 2 17978199727039353018
12107183 9 17973988571629990082
12788726 201 18265614480000135498
12978246 48 18410014295310887888
13627167 48 18192175852350568692
14251764 38 18336270041940631212
14394314 77 18121512507718068981
14932702 115 18273495680469146376
14950920 106 17312822671655457296
15001296 14 18267026240108802808
15320291 9 18334859398804257076
16067690 210 18189053256185436738
16708801 149 18337662002255475380
16988056 13 16248553350671498207
18393751 57 18337687313093810955
20764821 26 18127123302194882848
21033648 144 18059851736249362194
21133410 221 17196803372654964880
22956985 138 17039498662442568211
376196 1 17759803642151099419
4173938 77 16973944121136544681
4561138 5 17678432320620024971
508706 21 18272079479295216042
550186 7 18202007641690854838
6036956 94 18261118490965786581
6371009 1 18337092493760126100
6608658 132 18195815291282386310
6700243 42 17770246017370244710
9981440 41 18121492467537868339

> <PUBCHEM_SHAPE_MULTIPOLES>
655.18
12.7
8.17
1.97
21.24
2.55
0.72
5.29
-0.34
-10.68
-2.03
2.04
1.22
-2.5

> <PUBCHEM_SHAPE_SELFOVERLAP>
1403.116

> <PUBCHEM_SHAPE_VOLUME>
356.4

> <PUBCHEM_COORDINATE_TYPE>
2
5
10

$$$$
