135618519
  -OEChem-03292013293D

 30 31  0     0  0  0  0  0  0999 V2000
   -1.3424   -2.3026    0.0401 O   0  0  0  0  0  0  0  0  0  0  0  0
    0.1241   -0.1075   -0.6410 N   0  0  0  0  0  0  0  0  0  0  0  0
   -3.2539   -1.0542    0.2864 N   0  0  0  0  0  0  0  0  0  0  0  0
   -3.2591    1.2591   -0.0739 N   0  0  0  0  0  0  0  0  0  0  0  0
   -1.2598    2.3775   -0.7116 N   0  0  0  0  0  0  0  0  0  0  0  0
   -5.2267    0.1548    0.5536 N   0  0  0  0  0  0  0  0  0  0  0  0
    0.9939   -0.9832    0.0977 C   0  0  0  0  0  0  0  0  0  0  0  0
   -1.2048    0.0439   -0.3582 C   0  0  0  0  0  0  0  0  0  0  0  0
    2.3932   -0.4338    0.1279 C   0  0  0  0  0  0  0  0  0  0  0  0
   -1.9079    1.2057   -0.3779 C   0  0  0  0  0  0  0  0  0  0  0  0
   -1.9179   -1.2183    0.0037 C   0  0  0  0  0  0  0  0  0  0  0  0
    3.3003   -0.7794   -0.8736 C   0  0  0  0  0  0  0  0  0  0  0  0
    2.7839    0.4218    1.1579 C   0  0  0  0  0  0  0  0  0  0  0  0
   -3.8927    0.1684    0.2429 C   0  0  0  0  0  0  0  0  0  0  0  0
    4.5984   -0.2697   -0.8452 C   0  0  0  0  0  0  0  0  0  0  0  0
    4.0820    0.9316    1.1864 C   0  0  0  0  0  0  0  0  0  0  0  0
    4.9893    0.5858    0.1848 C   0  0  0  0  0  0  0  0  0  0  0  0
    1.0199   -1.9769   -0.3658 H   0  0  0  0  0  0  0  0  0  0  0  0
    0.6546   -1.1187    1.1334 H   0  0  0  0  0  0  0  0  0  0  0  0
    0.5624    0.6751   -1.1169 H   0  0  0  0  0  0  0  0  0  0  0  0
    3.0076   -1.4434   -1.6826 H   0  0  0  0  0  0  0  0  0  0  0  0
    2.0857    0.7005    1.9427 H   0  0  0  0  0  0  0  0  0  0  0  0
   -3.7959   -1.8749    0.5398 H   0  0  0  0  0  0  0  0  0  0  0  0
    5.3047   -0.5384   -1.6253 H   0  0  0  0  0  0  0  0  0  0  0  0
    4.3862    1.5983    1.9880 H   0  0  0  0  0  0  0  0  0  0  0  0
    5.9999    0.9830    0.2069 H   0  0  0  0  0  0  0  0  0  0  0  0
   -0.2691    2.3913   -0.9118 H   0  0  0  0  0  0  0  0  0  0  0  0
   -1.7920    3.2386   -0.7165 H   0  0  0  0  0  0  0  0  0  0  0  0
   -5.7760    1.0073    0.5475 H   0  0  0  0  0  0  0  0  0  0  0  0
   -5.7041   -0.7057    0.7986 H   0  0  0  0  0  0  0  0  0  0  0  0
  1 11  2  0  0  0  0
  2  7  1  0  0  0  0
  2  8  1  0  0  0  0
  2 20  1  0  0  0  0
  3 11  1  0  0  0  0
  3 14  1  0  0  0  0
  3 23  1  0  0  0  0
  4 10  1  0  0  0  0
  4 14  2  0  0  0  0
  5 10  1  0  0  0  0
  5 27  1  0  0  0  0
  5 28  1  0  0  0  0
  6 14  1  0  0  0  0
  6 29  1  0  0  0  0
  6 30  1  0  0  0  0
  7  9  1  0  0  0  0
  7 18  1  0  0  0  0
  7 19  1  0  0  0  0
  8 10  2  0  0  0  0
  8 11  1  0  0  0  0
  9 12  2  0  0  0  0
  9 13  1  0  0  0  0
 12 15  1  0  0  0  0
 12 21  1  0  0  0  0
 13 16  2  0  0  0  0
 13 22  1  0  0  0  0
 15 17  2  0  0  0  0
 15 24  1  0  0  0  0
 16 17  1  0  0  0  0
 16 25  1  0  0  0  0
 17 26  1  0  0  0  0
M  END
> <PUBCHEM_COMPOUND_CID>
135618519

> <PUBCHEM_CONFORMER_RMSD>
0.6

> <PUBCHEM_CONFORMER_DIVERSEORDER>
1
18
5
19
20
11
6
27
15
16
26
2
9
17
4
13
14
7
8
22
21
23
25
24
10
12
3

> <PUBCHEM_MMFF94_PARTIAL_CHARGES>
28
1 -0.57
10 0.27
11 0.62
12 -0.15
13 -0.15
14 0.56
15 -0.15
16 -0.15
17 -0.15
2 -0.87
20 0.4
21 0.15
22 0.15
23 0.37
24 0.15
25 0.15
26 0.15
27 0.4
28 0.4
29 0.4
3 -0.49
30 0.4
4 -0.62
5 -0.9
6 -0.85
7 0.51
8 0.11
9 -0.14

> <PUBCHEM_EFFECTIVE_ROTOR_COUNT>
3

> <PUBCHEM_PHARMACOPHORE_FEATURES>
9
1 1 acceptor
1 2 cation
1 2 donor
1 3 donor
1 5 cation
1 5 donor
1 6 donor
6 3 4 8 10 11 14 rings
6 9 12 13 15 16 17 rings

> <PUBCHEM_HEAVY_ATOM_COUNT>
17

> <PUBCHEM_ATOM_DEF_STEREO_COUNT>
0

> <PUBCHEM_ATOM_UDEF_STEREO_COUNT>
0

> <PUBCHEM_BOND_DEF_STEREO_COUNT>
0

> <PUBCHEM_BOND_UDEF_STEREO_COUNT>
0

> <PUBCHEM_ISOTOPIC_ATOM_COUNT>
0

> <PUBCHEM_COMPONENT_COUNT>
1

> <PUBCHEM_CACTVS_TAUTO_COUNT>
-1

> <PUBCHEM_CONFORMER_ID>
08155FD700000001

> <PUBCHEM_MMFF94_ENERGY>
56.6186

> <PUBCHEM_FEATURE_SELFOVERLAP>
45.721

> <PUBCHEM_SHAPE_FINGERPRINT>
10498660 4 18262512602789264996
10608611 8 18343577456569749728
11132069 177 18410011048209571309
11471102 20 17275106137478830506
12173636 292 18336821983613057997
12236239 1 17095244717617724326
12251169 10 18333730238499122076
12390115 104 18199481960914256105
12596602 18 16805328829043426528
12969540 114 18338779144992455565
13081056 2 18343864407513802628
13897977 58 18333453161758943588
18186145 218 17917991672713293738
19784866 170 18408326570816113667
19862831 5 13183017423631175014
200 152 15985104106767796354
20510252 161 18340769230552374601
20645477 56 18412544323100245926
20645477 70 17060346184888922990
21637258 2 15213306387101951041
21652331 79 18408321086106044276
22854114 59 18343863316301835762
2297311 6 18337966622720779764
23402539 116 18411975884511144479
23402655 69 17203891885975875000
23557571 272 18271814587219195526
23559900 14 18338802208845814326
26918003 58 12973603339683318860
2838139 119 15410059440121904329
3009799 131 18261377980684416239
3545911 37 18342460339886793206
5104073 3 18263647264529170619
522135 26 16773799182371487462
5374978 207 18260824886894825522
8272917 22 16343434907636847270

> <PUBCHEM_SHAPE_MULTIPOLES>
319.08
10.29
1.64
0.95
1.62
0.08
0.07
1.52
1.19
-0.95
-0.15
0.75
0.15
0.88

> <PUBCHEM_SHAPE_SELFOVERLAP>
682.594

> <PUBCHEM_SHAPE_VOLUME>
175.4

> <PUBCHEM_COORDINATE_TYPE>
2
5
10

$$$$
