135618601
  -OEChem-03292013293D

 59 61  0     1  0  0  0  0  0999 V2000
   -4.7842   -4.3666   -0.9615 F   0  0  0  0  0  0  0  0  0  0  0  0
    2.8620   -2.7004   -1.7286 O   0  0  0  0  0  0  0  0  0  0  0  0
    6.4875   -1.5436    1.5771 O   0  0  0  0  0  0  0  0  0  0  0  0
    4.4602   -1.5029    2.5964 O   0  0  0  0  0  0  0  0  0  0  0  0
   -1.6224    2.7677   -2.4195 O   0  0  0  0  0  0  0  0  0  0  0  0
    4.6463    3.5779   -0.1389 O   0  0  0  0  0  0  0  0  0  0  0  0
    5.6215    2.3979   -1.8132 O   0  0  0  0  0  0  0  0  0  0  0  0
   -3.2116   -2.3385    0.1459 N   0  0  3  0  0  0  0  0  0  0  0  0
    3.1382   -1.5314    0.2549 N   0  0  0  0  0  0  0  0  0  0  0  0
   -2.6048    3.8750    1.3889 N   0  0  0  0  0  0  0  0  0  0  0  0
   -1.6280    4.3149   -0.7057 N   0  0  0  0  0  0  0  0  0  0  0  0
   -1.5839    5.9432    0.9695 N   0  0  0  0  0  0  0  0  0  0  0  0
   -4.0866   -1.3318   -0.4146 C   0  0  0  0  0  0  0  0  0  0  0  0
   -1.8282   -2.3008   -0.0673 C   0  0  0  0  0  0  0  0  0  0  0  0
   -3.6932    0.0322    0.0434 C   0  0  0  0  0  0  0  0  0  0  0  0
   -3.8048   -3.4126    0.9417 C   0  0  0  0  0  0  0  0  0  0  0  0
    4.5736   -1.3874    0.1663 C   0  0  1  0  0  0  0  0  0  0  0  0
    4.9962   -0.1245   -0.5940 C   0  0  0  0  0  0  0  0  0  0  0  0
   -3.0107    0.8874   -0.8201 C   0  0  0  0  0  0  0  0  0  0  0  0
   -1.3196   -2.3617   -1.3648 C   0  0  0  0  0  0  0  0  0  0  0  0
   -0.9586   -2.2032    1.0189 C   0  0  0  0  0  0  0  0  0  0  0  0
    0.9282   -2.2267   -0.4898 C   0  0  0  0  0  0  0  0  0  0  0  0
   -2.6469    2.1634   -0.3800 C   0  0  0  0  0  0  0  0  0  0  0  0
   -4.0092    0.4505    1.3351 C   0  0  0  0  0  0  0  0  0  0  0  0
   -3.9748   -4.6563    0.0930 C   0  0  0  0  0  0  0  0  0  0  0  0
    0.0585   -2.3247   -1.5760 C   0  0  0  0  0  0  0  0  0  0  0  0
    0.4197   -2.1661    0.8076 C   0  0  0  0  0  0  0  0  0  0  0  0
   -2.9572    2.5982    0.9153 C   0  0  0  0  0  0  0  0  0  0  0  0
    4.5694    1.2083    0.0341 C   0  0  0  0  0  0  0  0  0  0  0  0
    2.3651   -2.1869   -0.7105 C   0  0  0  0  0  0  0  0  0  0  0  0
   -3.6431    1.7265    1.7682 C   0  0  0  0  0  0  0  0  0  0  0  0
    5.1305   -1.4700    1.5725 C   0  0  0  0  0  0  0  0  0  0  0  0
   -1.9229    3.0870   -1.2753 C   0  0  0  0  0  0  0  0  0  0  0  0
   -1.9660    4.6836    0.5910 C   0  0  0  0  0  0  0  0  0  0  0  0
    4.9998    2.4224   -0.7601 C   0  0  0  0  0  0  0  0  0  0  0  0
   -5.1349   -1.5076   -0.1392 H   0  0  0  0  0  0  0  0  0  0  0  0
   -4.0763   -1.3931   -1.5105 H   0  0  0  0  0  0  0  0  0  0  0  0
   -3.1930   -3.6423    1.8212 H   0  0  0  0  0  0  0  0  0  0  0  0
   -4.7850   -3.1017    1.3217 H   0  0  0  0  0  0  0  0  0  0  0  0
    4.9534   -2.2642   -0.3733 H   0  0  0  0  0  0  0  0  0  0  0  0
    6.0887   -0.1216   -0.7023 H   0  0  0  0  0  0  0  0  0  0  0  0
    4.5930   -0.1735   -1.6142 H   0  0  0  0  0  0  0  0  0  0  0  0
   -2.7659    0.5604   -1.8272 H   0  0  0  0  0  0  0  0  0  0  0  0
   -1.9827   -2.4448   -2.2219 H   0  0  0  0  0  0  0  0  0  0  0  0
   -1.3373   -2.1498    2.0364 H   0  0  0  0  0  0  0  0  0  0  0  0
   -4.5411   -0.2088    2.0162 H   0  0  0  0  0  0  0  0  0  0  0  0
    2.6818   -1.0575    1.0275 H   0  0  0  0  0  0  0  0  0  0  0  0
   -3.0227   -5.0194   -0.3049 H   0  0  0  0  0  0  0  0  0  0  0  0
   -4.4450   -5.4597    0.6670 H   0  0  0  0  0  0  0  0  0  0  0  0
    0.4343   -2.3700   -2.5948 H   0  0  0  0  0  0  0  0  0  0  0  0
    1.0611   -2.1184    1.6827 H   0  0  0  0  0  0  0  0  0  0  0  0
    5.0048    1.2970    1.0355 H   0  0  0  0  0  0  0  0  0  0  0  0
    3.4777    1.2423    0.1207 H   0  0  0  0  0  0  0  0  0  0  0  0
   -3.8971    2.0367    2.7790 H   0  0  0  0  0  0  0  0  0  0  0  0
   -1.1300    4.9915   -1.2768 H   0  0  0  0  0  0  0  0  0  0  0  0
    6.8464   -1.6130    2.4874 H   0  0  0  0  0  0  0  0  0  0  0  0
   -1.7877    6.2970    1.8978 H   0  0  0  0  0  0  0  0  0  0  0  0
   -1.0868    6.5585    0.3349 H   0  0  0  0  0  0  0  0  0  0  0  0
    4.9395    4.3676   -0.6417 H   0  0  0  0  0  0  0  0  0  0  0  0
  1 25  1  0  0  0  0
  2 30  2  0  0  0  0
  3 32  1  0  0  0  0
  3 56  1  0  0  0  0
  4 32  2  0  0  0  0
  5 33  2  0  0  0  0
  6 35  1  0  0  0  0
  6 59  1  0  0  0  0
  7 35  2  0  0  0  0
  8 13  1  0  0  0  0
  8 14  1  0  0  0  0
  8 16  1  0  0  0  0
  9 17  1  0  0  0  0
  9 30  1  0  0  0  0
  9 47  1  0  0  0  0
 10 28  1  0  0  0  0
 10 34  2  0  0  0  0
 11 33  1  0  0  0  0
 11 34  1  0  0  0  0
 11 55  1  0  0  0  0
 12 34  1  0  0  0  0
 12 57  1  0  0  0  0
 12 58  1  0  0  0  0
 13 15  1  0  0  0  0
 13 36  1  0  0  0  0
 13 37  1  0  0  0  0
 14 20  2  0  0  0  0
 14 21  1  0  0  0  0
 15 19  2  0  0  0  0
 15 24  1  0  0  0  0
 16 25  1  0  0  0  0
 16 38  1  0  0  0  0
 16 39  1  0  0  0  0
 17 18  1  0  0  0  0
 17 32  1  0  0  0  0
 17 40  1  0  0  0  0
 18 29  1  0  0  0  0
 18 41  1  0  0  0  0
 18 42  1  0  0  0  0
 19 23  1  0  0  0  0
 19 43  1  0  0  0  0
 20 26  1  0  0  0  0
 20 44  1  0  0  0  0
 21 27  2  0  0  0  0
 21 45  1  0  0  0  0
 22 26  2  0  0  0  0
 22 27  1  0  0  0  0
 22 30  1  0  0  0  0
 23 28  2  0  0  0  0
 23 33  1  0  0  0  0
 24 31  2  0  0  0  0
 24 46  1  0  0  0  0
 25 48  1  0  0  0  0
 25 49  1  0  0  0  0
 26 50  1  0  0  0  0
 27 51  1  0  0  0  0
 28 31  1  0  0  0  0
 29 35  1  0  0  0  0
 29 52  1  0  0  0  0
 29 53  1  0  0  0  0
 31 54  1  0  0  0  0
M  END
> <PUBCHEM_COMPOUND_CID>
135618601

> <PUBCHEM_CONFORMER_RMSD>
1.2

> <PUBCHEM_CONFORMER_DIVERSEORDER>
1
40
53
36
47
25
42
18
66
41
17
5
9
55
51
32
23
49
16
21
59
52
30
48
67
56
62
38
10
65
68
45
50
33
31
54
13
58
57
6
22
12
61
3
7
27
60
24
14
26
46
43
29
64
15
28
20
2
39
37
19
44
11
34
4
8
63
35

> <PUBCHEM_MMFF94_PARTIAL_CHARGES>
47
1 -0.34
10 -0.63
11 -0.49
12 -0.85
13 0.51
14 0.1
15 -0.14
16 0.37
17 0.36
19 -0.15
2 -0.57
20 -0.15
21 -0.15
22 0.09
23 0.09
24 -0.15
25 0.34
26 -0.15
27 -0.15
28 0.18
29 0.06
3 -0.65
30 0.54
31 -0.15
32 0.66
33 0.54
34 0.56
35 0.66
4 -0.57
43 0.15
44 0.15
45 0.15
46 0.15
47 0.37
5 -0.57
50 0.15
51 0.15
54 0.15
55 0.37
56 0.5
57 0.4
58 0.4
59 0.5
6 -0.65
7 -0.57
8 -0.84
9 -0.73

> <PUBCHEM_EFFECTIVE_ROTOR_COUNT>
12

> <PUBCHEM_PHARMACOPHORE_FEATURES>
15
1 11 donor
1 12 donor
1 2 acceptor
1 3 acceptor
1 4 acceptor
1 5 acceptor
1 6 acceptor
1 7 acceptor
1 8 cation
1 9 donor
3 3 4 32 anion
3 6 7 35 anion
6 10 11 23 28 33 34 rings
6 14 20 21 22 26 27 rings
6 15 19 23 24 28 31 rings

> <PUBCHEM_HEAVY_ATOM_COUNT>
35

> <PUBCHEM_ATOM_DEF_STEREO_COUNT>
1

> <PUBCHEM_ATOM_UDEF_STEREO_COUNT>
0

> <PUBCHEM_BOND_DEF_STEREO_COUNT>
0

> <PUBCHEM_BOND_UDEF_STEREO_COUNT>
0

> <PUBCHEM_ISOTOPIC_ATOM_COUNT>
0

> <PUBCHEM_COMPONENT_COUNT>
1

> <PUBCHEM_CACTVS_TAUTO_COUNT>
-1

> <PUBCHEM_CONFORMER_ID>
0815602900000001

> <PUBCHEM_MMFF94_ENERGY>
99.1779

> <PUBCHEM_FEATURE_SELFOVERLAP>
76.313

> <PUBCHEM_SHAPE_FINGERPRINT>
10670039 82 18339653355705531420
10908659 184 18121228571366818368
10937287 8 17763460613408334419
11059845 2 17832961881688456146
12107183 9 17757256095095260850
12925494 130 17114675016712006849
12978246 48 18265895761703486712
14251764 38 18339366262536946672
14363568 33 17689724477109821883
14394314 77 18267031729193136017
14950920 106 17531252721034278090
15001296 14 18411142476262096120
15274700 34 17824279120269389485
15320291 9 18338234865284157072
15347590 135 17607814099452242730
15419008 145 18337943589718760184
15961568 22 18267593587754982982
15968369 153 18130215086147919564
15975801 100 17605011221459876740
16067690 210 18261111885210048474
18393751 57 18193572082020439267
19611394 137 17467081073404787770
20764821 26 18271796986601641000
22956985 138 17397259907830280323
23398203 216 17842292366835742457
25019877 29 16699229358266392919
376196 1 17553475886867767231
4144715 1 18267024956067056002
4561138 5 17896014638091491603
508706 21 18270398274418859374
6036956 94 18334867112407174501
6371009 1 18266159670131587764
6608658 132 18200029693386721302
6700243 42 17842870916194720582

> <PUBCHEM_SHAPE_MULTIPOLES>
652.89
12.62
7.73
1.79
20.13
6.79
0.12
-1.21
2.55
-7.8
-0.09
0.84
0.17
-2.32

> <PUBCHEM_SHAPE_SELFOVERLAP>
1393.824

> <PUBCHEM_SHAPE_VOLUME>
359.5

> <PUBCHEM_COORDINATE_TYPE>
2
5
10

$$$$
