135625300
  -OEChem-03292013293D

 23 24  0     0  0  0  0  0  0999 V2000
    0.2913    2.4105   -0.4309 O   0  0  0  0  0  0  0  0  0  0  0  0
   -0.9736   -0.3182   -0.8119 N   0  0  0  0  0  0  0  0  0  0  0  0
    0.1327   -2.2137   -0.4174 N   0  0  0  0  0  0  0  0  0  0  0  0
    2.1710    1.2211    0.2140 N   0  0  0  0  0  0  0  0  0  0  0  0
    2.2713   -1.1761    0.2811 N   0  0  0  0  0  0  0  0  0  0  0  0
    4.1263    0.1201    0.8809 N   0  0  0  0  0  0  0  0  0  0  0  0
   -3.7628   -0.5743    1.6692 N   0  0  0  0  0  0  0  0  0  0  0  0
    0.2752    0.0468   -0.4016 C   0  0  0  0  0  0  0  0  0  0  0  0
   -2.0625    0.5517   -1.1861 C   0  0  0  0  0  0  0  0  0  0  0  0
    0.9379   -1.1347   -0.1642 C   0  0  0  0  0  0  0  0  0  0  0  0
   -1.0110   -1.6883   -0.8050 C   0  0  0  0  0  0  0  0  0  0  0  0
    0.8538    1.3400   -0.2271 C   0  0  0  0  0  0  0  0  0  0  0  0
   -2.7586    1.2044    0.0111 C   0  0  0  0  0  0  0  0  0  0  0  0
    2.8292    0.0010    0.4506 C   0  0  0  0  0  0  0  0  0  0  0  0
   -3.3201    0.2097    0.9373 C   0  0  0  0  0  0  0  0  0  0  0  0
   -1.6630    1.3151   -1.8629 H   0  0  0  0  0  0  0  0  0  0  0  0
   -2.7798   -0.0441   -1.7643 H   0  0  0  0  0  0  0  0  0  0  0  0
   -1.8927   -2.2465   -1.0897 H   0  0  0  0  0  0  0  0  0  0  0  0
   -3.5618    1.8531   -0.3567 H   0  0  0  0  0  0  0  0  0  0  0  0
   -2.0613    1.8460    0.5600 H   0  0  0  0  0  0  0  0  0  0  0  0
    2.6921    2.0781    0.3754 H   0  0  0  0  0  0  0  0  0  0  0  0
    4.6903   -0.6988    1.0802 H   0  0  0  0  0  0  0  0  0  0  0  0
    4.5589    1.0278    1.0122 H   0  0  0  0  0  0  0  0  0  0  0  0
  1 12  2  0  0  0  0
  2  8  1  0  0  0  0
  2  9  1  0  0  0  0
  2 11  1  0  0  0  0
  3 10  1  0  0  0  0
  3 11  2  0  0  0  0
  4 12  1  0  0  0  0
  4 14  1  0  0  0  0
  4 21  1  0  0  0  0
  5 10  1  0  0  0  0
  5 14  2  0  0  0  0
  6 14  1  0  0  0  0
  6 22  1  0  0  0  0
  6 23  1  0  0  0  0
  7 15  3  0  0  0  0
  8 10  2  0  0  0  0
  8 12  1  0  0  0  0
  9 13  1  0  0  0  0
  9 16  1  0  0  0  0
  9 17  1  0  0  0  0
 11 18  1  0  0  0  0
 13 15  1  0  0  0  0
 13 19  1  0  0  0  0
 13 20  1  0  0  0  0
M  END
> <PUBCHEM_COMPOUND_CID>
135625300

> <PUBCHEM_CONFORMER_RMSD>
0.6

> <PUBCHEM_CONFORMER_DIVERSEORDER>
1
3
2
5
6
4

> <PUBCHEM_MMFF94_PARTIAL_CHARGES>
19
1 -0.57
10 0.35
11 0.04
12 0.71
13 0.2
14 0.56
15 0.36
18 0.15
2 0.05
21 0.37
22 0.4
23 0.4
3 -0.57
4 -0.49
5 -0.57
6 -0.85
7 -0.56
8 -0.24
9 0.26

> <PUBCHEM_EFFECTIVE_ROTOR_COUNT>
2

> <PUBCHEM_PHARMACOPHORE_FEATURES>
7
1 1 acceptor
1 4 donor
1 6 donor
1 7 acceptor
3 2 3 11 cation
5 2 3 8 10 11 rings
6 4 5 8 10 12 14 rings

> <PUBCHEM_HEAVY_ATOM_COUNT>
15

> <PUBCHEM_ATOM_DEF_STEREO_COUNT>
0

> <PUBCHEM_ATOM_UDEF_STEREO_COUNT>
0

> <PUBCHEM_BOND_DEF_STEREO_COUNT>
0

> <PUBCHEM_BOND_UDEF_STEREO_COUNT>
0

> <PUBCHEM_ISOTOPIC_ATOM_COUNT>
0

> <PUBCHEM_COMPONENT_COUNT>
1

> <PUBCHEM_CACTVS_TAUTO_COUNT>
-1

> <PUBCHEM_CONFORMER_ID>
08157A5400000001

> <PUBCHEM_MMFF94_ENERGY>
23.5317

> <PUBCHEM_FEATURE_SELFOVERLAP>
35.691

> <PUBCHEM_SHAPE_FINGERPRINT>
10219947 1 18340202999111686981
11132069 177 18200013098028493888
11471102 22 18336273370466237817
11769659 78 15213294201525494368
12202030 40 15358515515468160760
12251169 10 18336272322737038051
12382932 28 18341036480702467128
12491281 212 16343699928472527051
12633257 1 18115045072822312089
12696612 119 18337116747440219229
13172582 1 18411132537116526684
14617773 55 17769931599962276383
15309172 13 18412822482256748039
15775835 57 17346881118088878073
16945 1 18340475699702307660
17844478 74 17968094200807698813
18219364 16 18410001131283137253
18534176 82 13614230516857685165
21256008 23 18408606954839463160
21501502 16 18122903393778561118
23493267 7 17460864099505517364
2748010 2 17907564840595801812
528886 8 18268691892607425846
568465 68 18410302406096025513

> <PUBCHEM_SHAPE_MULTIPOLES>
272.94
5.51
1.94
1.1
0.01
0.03
0.19
-0.58
2.98
-0.15
-0.4
0.88
0.1
0.17

> <PUBCHEM_SHAPE_SELFOVERLAP>
585.679

> <PUBCHEM_SHAPE_VOLUME>
147.9

> <PUBCHEM_COORDINATE_TYPE>
2
5
10

$$$$
