135659015
  -OEChem-03292013293D

 34 36  0     1  0  0  0  0  0999 V2000
   -3.6177   -0.4643    2.0796 O   0  0  0  0  0  0  0  0  0  0  0  0
   -4.1810   -0.4953   -2.2900 O   0  0  0  0  0  0  0  0  0  0  0  0
    4.6337    0.0422   -0.3330 O   0  0  0  0  0  0  0  0  0  0  0  0
    0.3382    1.3915    0.0437 N   0  0  0  0  0  0  0  0  0  0  0  0
    2.4554    2.0590   -0.2276 N   0  0  0  0  0  0  0  0  0  0  0  0
    0.6408   -1.0070    0.1650 N   0  0  0  0  0  0  0  0  0  0  0  0
    2.9614   -1.5630   -0.0497 N   0  0  0  0  0  0  0  0  0  0  0  0
    1.3420   -3.2484    0.2334 N   0  0  0  0  0  0  0  0  0  0  0  0
   -1.1631    1.4854    0.2001 C   0  0  1  0  0  0  0  0  0  0  0  0
   -3.1510    0.1579   -0.2358 C   0  0  2  0  0  0  0  0  0  0  0  0
   -1.9204    0.7490   -0.9222 C   0  0  0  0  0  0  0  0  0  0  0  0
   -2.5951   -0.2698    1.1207 C   0  0  1  0  0  0  0  0  0  0  0  0
   -1.7063    0.9048    1.5214 C   0  0  0  0  0  0  0  0  0  0  0  0
   -3.7762   -0.9841   -1.0227 C   0  0  0  0  0  0  0  0  0  0  0  0
    1.0969    0.2584    0.0345 C   0  0  0  0  0  0  0  0  0  0  0  0
    1.2004    2.4485   -0.1171 C   0  0  0  0  0  0  0  0  0  0  0  0
    2.3870    0.7004   -0.1330 C   0  0  0  0  0  0  0  0  0  0  0  0
    3.4558   -0.2583   -0.1868 C   0  0  0  0  0  0  0  0  0  0  0  0
    1.5992   -1.9068    0.1194 C   0  0  0  0  0  0  0  0  0  0  0  0
   -1.3811    2.5603    0.1599 H   0  0  0  0  0  0  0  0  0  0  0  0
   -3.9050    0.9468   -0.1063 H   0  0  0  0  0  0  0  0  0  0  0  0
   -1.3151   -0.0376   -1.3859 H   0  0  0  0  0  0  0  0  0  0  0  0
   -2.2027    1.4441   -1.7210 H   0  0  0  0  0  0  0  0  0  0  0  0
   -2.0114   -1.1935    1.0370 H   0  0  0  0  0  0  0  0  0  0  0  0
   -0.9217    0.5921    2.2186 H   0  0  0  0  0  0  0  0  0  0  0  0
   -2.2988    1.6676    2.0429 H   0  0  0  0  0  0  0  0  0  0  0  0
   -4.6544   -1.3780   -0.5011 H   0  0  0  0  0  0  0  0  0  0  0  0
   -3.0642   -1.8021   -1.1753 H   0  0  0  0  0  0  0  0  0  0  0  0
   -3.1875   -0.6509    2.9315 H   0  0  0  0  0  0  0  0  0  0  0  0
    0.8573    3.4737   -0.1458 H   0  0  0  0  0  0  0  0  0  0  0  0
   -4.5788   -1.2411   -2.7707 H   0  0  0  0  0  0  0  0  0  0  0  0
    3.6360   -2.3223   -0.0737 H   0  0  0  0  0  0  0  0  0  0  0  0
    0.3961   -3.5925    0.3576 H   0  0  0  0  0  0  0  0  0  0  0  0
    2.0874   -3.9350    0.1971 H   0  0  0  0  0  0  0  0  0  0  0  0
  1 12  1  0  0  0  0
  1 29  1  0  0  0  0
  2 14  1  0  0  0  0
  2 31  1  0  0  0  0
  3 18  2  0  0  0  0
  4  9  1  0  0  0  0
  4 15  1  0  0  0  0
  4 16  1  0  0  0  0
  5 16  2  0  0  0  0
  5 17  1  0  0  0  0
  6 15  1  0  0  0  0
  6 19  2  0  0  0  0
  7 18  1  0  0  0  0
  7 19  1  0  0  0  0
  7 32  1  0  0  0  0
  8 19  1  0  0  0  0
  8 33  1  0  0  0  0
  8 34  1  0  0  0  0
  9 11  1  0  0  0  0
  9 13  1  0  0  0  0
  9 20  1  0  0  0  0
 10 11  1  0  0  0  0
 10 12  1  0  0  0  0
 10 14  1  0  0  0  0
 10 21  1  0  0  0  0
 11 22  1  0  0  0  0
 11 23  1  0  0  0  0
 12 13  1  0  0  0  0
 12 24  1  0  0  0  0
 13 25  1  0  0  0  0
 13 26  1  0  0  0  0
 14 27  1  0  0  0  0
 14 28  1  0  0  0  0
 15 17  2  0  0  0  0
 16 30  1  0  0  0  0
 17 18  1  0  0  0  0
M  END
> <PUBCHEM_COMPOUND_CID>
135659015

> <PUBCHEM_CONFORMER_RMSD>
0.6

> <PUBCHEM_CONFORMER_DIVERSEORDER>
1
4
19
8
16
10
17
15
14
18
2
7
13
3
11
12
9
5
6

> <PUBCHEM_MMFF94_PARTIAL_CHARGES>
22
1 -0.68
12 0.28
14 0.28
15 -0.03
16 0.04
17 0.14
18 0.72
19 0.56
2 -0.68
29 0.4
3 -0.57
30 0.15
31 0.4
32 0.37
33 0.4
34 0.4
4 0.05
5 -0.57
6 -0.58
7 -0.49
8 -0.85
9 0.26

> <PUBCHEM_EFFECTIVE_ROTOR_COUNT>
3

> <PUBCHEM_PHARMACOPHORE_FEATURES>
11
1 1 acceptor
1 1 donor
1 2 acceptor
1 2 donor
1 3 acceptor
1 7 donor
1 8 donor
3 4 5 16 cation
5 4 5 15 16 17 rings
5 9 10 11 12 13 rings
6 6 7 15 17 18 19 rings

> <PUBCHEM_HEAVY_ATOM_COUNT>
19

> <PUBCHEM_ATOM_DEF_STEREO_COUNT>
3

> <PUBCHEM_ATOM_UDEF_STEREO_COUNT>
0

> <PUBCHEM_BOND_DEF_STEREO_COUNT>
0

> <PUBCHEM_BOND_UDEF_STEREO_COUNT>
0

> <PUBCHEM_ISOTOPIC_ATOM_COUNT>
0

> <PUBCHEM_COMPONENT_COUNT>
1

> <PUBCHEM_CACTVS_TAUTO_COUNT>
-1

> <PUBCHEM_CONFORMER_ID>
0815FE0700000001

> <PUBCHEM_MMFF94_ENERGY>
44.0217

> <PUBCHEM_FEATURE_SELFOVERLAP>
56

> <PUBCHEM_SHAPE_FINGERPRINT>
11578080 2 17630859695693336417
11582403 64 16888304711142937625
11806522 49 18272364291604089732
12236239 1 17846785121997055161
12553582 1 18410580543614140978
12596599 1 17846227617714259287
13140716 1 18194130826583653618
13583140 156 16951392394852982416
13862211 1 18410290282031316758
14251717 144 18410569608722266454
14576447 43 18271232898144048982
14787075 74 17702937171239891704
15375462 189 18131358522421978313
15757776 16 18411693266809122438
16945 1 18409736166028908504
19422 9 17632583789743390093
19433438 48 18131351882165233083
200 152 18343860026604949781
20201158 50 18260269624758790691
20233049 118 13695582239429536918
20645477 70 18334007332909858117
21634736 98 18128530651382206430
22112679 90 17417819469419518897
22445834 79 18271538493794172449
2334 1 17977953715111154018
23388829 49 18342461396090318312
23402539 116 18342457007113484476
23503958 8 16415765210575937239
23526113 38 17896026659810038611
23557571 272 16805046241975965797
23559900 14 16660636350461323816
23598291 2 18131361816498792493
238 59 18261099816262450607
2748010 2 18047203122102455824
2871803 45 18411409609709463774
602551 16 15410612639829461781
77492 1 17774730839236676041
81228 2 17184181748114661184

> <PUBCHEM_SHAPE_MULTIPOLES>
348.5
7.18
2.38
1.33
1.06
0.77
0.04
1.66
-1.56
-1.8
0.06
2.28
0.14
-0.5

> <PUBCHEM_SHAPE_SELFOVERLAP>
753.913

> <PUBCHEM_SHAPE_VOLUME>
191.9

> <PUBCHEM_COORDINATE_TYPE>
2
5
10

$$$$
