135618553
  -OEChem-03292013293D

 35 36  0     1  0  0  0  0  0999 V2000
    1.3340   -0.1306   -1.0189 O   0  0  0  0  0  0  0  0  0  0  0  0
    3.6961    0.7521    1.5352 O   0  0  0  0  0  0  0  0  0  0  0  0
    2.2760    2.1042   -2.4459 O   0  0  0  0  0  0  0  0  0  0  0  0
    0.0517   -3.8668    0.3152 O   0  0  0  0  0  0  0  0  0  0  0  0
   -3.9729    0.9291   -1.1614 O   0  0  0  0  0  0  0  0  0  0  0  0
   -0.1389   -1.5332    0.1451 N   0  0  0  0  0  0  0  0  0  0  0  0
   -0.6948    0.4643    1.1871 N   0  0  0  0  0  0  0  0  0  0  0  0
   -2.5954    1.6690    0.5264 N   0  0  0  0  0  0  0  0  0  0  0  0
   -2.4299   -1.3020   -1.5652 N   0  0  0  0  0  0  0  0  0  0  0  0
   -1.2450    2.4813    2.2471 N   0  0  0  0  0  0  0  0  0  0  0  0
    3.1220   -0.0442    0.5202 C   0  0  1  0  0  0  0  0  0  0  0  0
    2.0704   -0.9739    1.0768 C   0  0  0  0  0  0  0  0  0  0  0  0
    2.3044    0.7745   -0.4663 C   0  0  1  0  0  0  0  0  0  0  0  0
    1.2389   -1.2757   -0.1566 C   0  0  2  0  0  0  0  0  0  0  0  0
    3.1348    1.3766   -1.5856 C   0  0  0  0  0  0  0  0  0  0  0  0
   -1.0136   -0.4666    0.2264 C   0  0  0  0  0  0  0  0  0  0  0  0
   -0.6072   -2.8333    0.3561 C   0  0  0  0  0  0  0  0  0  0  0  0
   -2.0771   -0.4029   -0.6007 C   0  0  0  0  0  0  0  0  0  0  0  0
   -2.9790    0.7796   -0.4559 C   0  0  0  0  0  0  0  0  0  0  0  0
   -1.4745    1.4985    1.3210 C   0  0  0  0  0  0  0  0  0  0  0  0
    3.9103   -0.6136    0.0134 H   0  0  0  0  0  0  0  0  0  0  0  0
    2.5002   -1.8801    1.5169 H   0  0  0  0  0  0  0  0  0  0  0  0
    1.5116   -0.4852    1.8819 H   0  0  0  0  0  0  0  0  0  0  0  0
    1.6632   -2.1295   -0.6987 H   0  0  0  0  0  0  0  0  0  0  0  0
    1.7519    1.5752    0.0417 H   0  0  0  0  0  0  0  0  0  0  0  0
    3.6161    0.5937   -2.1808 H   0  0  0  0  0  0  0  0  0  0  0  0
    3.8981    2.0537   -1.1902 H   0  0  0  0  0  0  0  0  0  0  0  0
    4.1096    0.1520    2.1789 H   0  0  0  0  0  0  0  0  0  0  0  0
   -1.6802   -2.8635    0.6110 H   0  0  0  0  0  0  0  0  0  0  0  0
    2.8286    2.4791   -3.1526 H   0  0  0  0  0  0  0  0  0  0  0  0
   -3.1685    2.4945    0.6739 H   0  0  0  0  0  0  0  0  0  0  0  0
   -1.8386   -2.0987   -1.7625 H   0  0  0  0  0  0  0  0  0  0  0  0
   -3.2526   -1.1348   -2.1311 H   0  0  0  0  0  0  0  0  0  0  0  0
   -0.4464    2.4385    2.8709 H   0  0  0  0  0  0  0  0  0  0  0  0
   -1.8640    3.2795    2.3361 H   0  0  0  0  0  0  0  0  0  0  0  0
  1 13  1  0  0  0  0
  1 14  1  0  0  0  0
  2 11  1  0  0  0  0
  2 28  1  0  0  0  0
  3 15  1  0  0  0  0
  3 30  1  0  0  0  0
  4 17  2  0  0  0  0
  5 19  2  0  0  0  0
  6 14  1  0  0  0  0
  6 16  1  0  0  0  0
  6 17  1  0  0  0  0
  7 16  1  0  0  0  0
  7 20  2  0  0  0  0
  8 19  1  0  0  0  0
  8 20  1  0  0  0  0
  8 31  1  0  0  0  0
  9 18  1  0  0  0  0
  9 32  1  0  0  0  0
  9 33  1  0  0  0  0
 10 20  1  0  0  0  0
 10 34  1  0  0  0  0
 10 35  1  0  0  0  0
 11 12  1  0  0  0  0
 11 13  1  0  0  0  0
 11 21  1  0  0  0  0
 12 14  1  0  0  0  0
 12 22  1  0  0  0  0
 12 23  1  0  0  0  0
 13 15  1  0  0  0  0
 13 25  1  0  0  0  0
 14 24  1  0  0  0  0
 15 26  1  0  0  0  0
 15 27  1  0  0  0  0
 16 18  2  0  0  0  0
 17 29  1  0  0  0  0
 18 19  1  0  0  0  0
M  END
> <PUBCHEM_COMPOUND_CID>
135618553

> <PUBCHEM_CONFORMER_RMSD>
0.8

> <PUBCHEM_CONFORMER_DIVERSEORDER>
1
23
10
30
28
13
31
12
14
26
39
32
22
16
33
20
21
40
4
6
7
27
3
8
11
38
35
29
9
24
37
25
2
34
18
5
15
19
36
17

> <PUBCHEM_MMFF94_PARTIAL_CHARGES>
27
1 -0.56
10 -0.85
11 0.28
13 0.28
14 0.58
15 0.28
16 0.28
17 0.57
18 0.11
19 0.62
2 -0.68
20 0.56
28 0.4
29 0.06
3 -0.68
30 0.4
31 0.37
32 0.4
33 0.4
34 0.4
35 0.4
4 -0.57
5 -0.57
6 -0.47
7 -0.62
8 -0.49
9 -0.9

> <PUBCHEM_EFFECTIVE_ROTOR_COUNT>
5

> <PUBCHEM_PHARMACOPHORE_FEATURES>
13
1 1 acceptor
1 10 donor
1 2 acceptor
1 2 donor
1 3 acceptor
1 3 donor
1 4 acceptor
1 5 acceptor
1 8 donor
1 9 cation
1 9 donor
5 1 11 12 13 14 rings
6 7 8 16 18 19 20 rings

> <PUBCHEM_HEAVY_ATOM_COUNT>
20

> <PUBCHEM_ATOM_DEF_STEREO_COUNT>
3

> <PUBCHEM_ATOM_UDEF_STEREO_COUNT>
0

> <PUBCHEM_BOND_DEF_STEREO_COUNT>
0

> <PUBCHEM_BOND_UDEF_STEREO_COUNT>
0

> <PUBCHEM_ISOTOPIC_ATOM_COUNT>
0

> <PUBCHEM_COMPONENT_COUNT>
1

> <PUBCHEM_CACTVS_TAUTO_COUNT>
-1

> <PUBCHEM_CONFORMER_ID>
08155FF900000001

> <PUBCHEM_MMFF94_ENERGY>
70.733

> <PUBCHEM_FEATURE_SELFOVERLAP>
66.022

> <PUBCHEM_SHAPE_FINGERPRINT>
11640471 11 18334861631901452812
12202030 40 14189281613507613357
12633257 1 13479697632695192436
13583140 156 16588013645616030595
14713325 29 17548187532554003014
14955137 171 16835752040779935747
15490181 8 18337118881844384010
16945 1 18119807164576551414
18186145 218 18338235959982859191
18981168 100 18119564048121436654
192875 21 18260537905559616452
19765921 60 18337940221725797939
20510252 161 18267028442915166962
20645476 183 18260269693483795438
21475661 188 16517079611113314013
21524375 3 17841738234354577513
23402539 116 17987495131077763818
23419403 2 16176712901801319214
23557571 272 17274255174896285006
23559900 14 18059840789068178658
352729 6 18410858762979884715
353137 74 18130216048268066761
4340502 62 17968940774244676875
474 4 18261114011208348669
5262128 65 16916798408778910432
5845 1 16412683442591824386
6992083 37 18187354420800580642
7364860 26 17912075054072485267
81228 2 17988376973420035667

> <PUBCHEM_SHAPE_MULTIPOLES>
357.34
5.44
2.94
1.8
0.62
2.31
0.13
-2.98
1.25
-0.47
-0.38
0.47
-1.35
-1.41

> <PUBCHEM_SHAPE_SELFOVERLAP>
756.28

> <PUBCHEM_SHAPE_VOLUME>
199.5

> <PUBCHEM_COORDINATE_TYPE>
2
5
10

$$$$
