135618605
  -OEChem-03292013293D

 35 37  0     1  0  0  0  0  0999 V2000
    4.9137   -1.4119   -0.3896 P   0  0  0  0  0  0  0  0  0  0  0  0
    0.1551    3.3084   -0.4583 F   0  0  0  0  0  0  0  0  0  0  0  0
    0.9843    0.3969   -0.8009 O   0  0  0  0  0  0  0  0  0  0  0  0
    1.8731    2.9600    1.5515 O   0  0  0  0  0  0  0  0  0  0  0  0
    3.7049   -0.3729   -0.6701 O   0  0  0  0  0  0  0  0  0  0  0  0
    4.2671   -2.4871    0.6307 O   0  0  0  0  0  0  0  0  0  0  0  0
    5.9115   -0.5575    0.5535 O   0  0  0  0  0  0  0  0  0  0  0  0
   -5.0673   -2.2978    0.9005 O   0  0  0  0  0  0  0  0  0  0  0  0
    5.5473   -1.9945   -1.6191 O   0  0  0  0  0  0  0  0  0  0  0  0
   -1.3257    0.0407   -0.0932 N   0  0  0  0  0  0  0  0  0  0  0  0
   -2.1583   -1.7054    1.0309 N   0  0  0  0  0  0  0  0  0  0  0  0
   -3.3416    0.9033   -1.1260 N   0  0  0  0  0  0  0  0  0  0  0  0
   -5.2367   -0.4418   -0.5056 N   0  0  0  0  0  0  0  0  0  0  0  0
    1.1893    1.8373    1.0392 C   0  0  2  0  0  0  0  0  0  0  0  0
   -0.3055    1.0247   -0.6183 C   0  0  1  0  0  0  0  0  0  0  0  0
    1.9657    1.1497   -0.0675 C   0  0  1  0  0  0  0  0  0  0  0  0
   -0.0830    2.2097    0.3158 C   0  0  2  0  0  0  0  0  0  0  0  0
    3.0537    0.2216    0.4409 C   0  0  0  0  0  0  0  0  0  0  0  0
   -2.6653    0.0279   -0.3471 C   0  0  0  0  0  0  0  0  0  0  0  0
   -1.0691   -1.0210    0.7398 C   0  0  0  0  0  0  0  0  0  0  0  0
   -3.1473   -1.0529    0.3555 C   0  0  0  0  0  0  0  0  0  0  0  0
   -4.5540   -1.3589    0.3049 C   0  0  0  0  0  0  0  0  0  0  0  0
   -4.6119    0.6215   -1.1675 C   0  0  0  0  0  0  0  0  0  0  0  0
    0.9617    1.1455    1.8589 H   0  0  0  0  0  0  0  0  0  0  0  0
   -0.6735    1.3346   -1.6024 H   0  0  0  0  0  0  0  0  0  0  0  0
    2.4061    1.8775   -0.7615 H   0  0  0  0  0  0  0  0  0  0  0  0
   -0.9196    2.4489    0.9772 H   0  0  0  0  0  0  0  0  0  0  0  0
    2.6160   -0.5733    1.0535 H   0  0  0  0  0  0  0  0  0  0  0  0
    3.7825    0.7763    1.0392 H   0  0  0  0  0  0  0  0  0  0  0  0
    2.6994    2.6445    1.9546 H   0  0  0  0  0  0  0  0  0  0  0  0
   -0.0757   -1.2459    1.1030 H   0  0  0  0  0  0  0  0  0  0  0  0
   -5.3172    1.2297   -1.7547 H   0  0  0  0  0  0  0  0  0  0  0  0
   -6.2399   -0.5576   -0.6165 H   0  0  0  0  0  0  0  0  0  0  0  0
    4.7988   -3.2669    0.8980 H   0  0  0  0  0  0  0  0  0  0  0  0
    6.7820   -0.9408    0.7933 H   0  0  0  0  0  0  0  0  0  0  0  0
  1  5  1  0  0  0  0
  1  6  1  0  0  0  0
  1  7  1  0  0  0  0
  1  9  2  0  0  0  0
  2 17  1  0  0  0  0
  3 15  1  0  0  0  0
  3 16  1  0  0  0  0
  4 14  1  0  0  0  0
  4 30  1  0  0  0  0
  5 18  1  0  0  0  0
  6 34  1  0  0  0  0
  7 35  1  0  0  0  0
  8 22  2  0  0  0  0
 10 15  1  0  0  0  0
 10 19  1  0  0  0  0
 10 20  1  0  0  0  0
 11 20  2  0  0  0  0
 11 21  1  0  0  0  0
 12 19  1  0  0  0  0
 12 23  2  0  0  0  0
 13 22  1  0  0  0  0
 13 23  1  0  0  0  0
 13 33  1  0  0  0  0
 14 16  1  0  0  0  0
 14 17  1  0  0  0  0
 14 24  1  0  0  0  0
 15 17  1  0  0  0  0
 15 25  1  0  0  0  0
 16 18  1  0  0  0  0
 16 26  1  0  0  0  0
 17 27  1  0  0  0  0
 18 28  1  0  0  0  0
 18 29  1  0  0  0  0
 19 21  2  0  0  0  0
 20 31  1  0  0  0  0
 21 22  1  0  0  0  0
 23 32  1  0  0  0  0
M  END
> <PUBCHEM_COMPOUND_CID>
135618605

> <PUBCHEM_CONFORMER_RMSD>
0.8

> <PUBCHEM_CONFORMER_DIVERSEORDER>
1
27
58
17
32
44
13
7
54
34
14
31
33
5
36
50
60
29
39
56
15
24
28
4
61
30
38
19
51
47
43
9
59
46
16
11
55
22
35
48
23
3
2
42
26
10
18
41
21
25
57
40
20
49
12
6
45
37
53
52
8

> <PUBCHEM_MMFF94_PARTIAL_CHARGES>
29
1 1.51
10 0.05
11 -0.57
12 -0.58
13 -0.49
14 0.28
15 0.54
16 0.28
17 0.34
18 0.28
19 -0.03
2 -0.34
20 0.04
21 0.14
22 0.72
23 0.45
3 -0.56
30 0.4
31 0.15
32 0.06
33 0.37
34 0.5
35 0.5
4 -0.68
5 -0.55
6 -0.77
7 -0.77
8 -0.57
9 -0.7

> <PUBCHEM_EFFECTIVE_ROTOR_COUNT>
5

> <PUBCHEM_PHARMACOPHORE_FEATURES>
13
1 13 donor
1 3 acceptor
1 4 acceptor
1 4 donor
1 6 acceptor
1 7 acceptor
1 8 acceptor
1 9 acceptor
3 10 11 20 cation
4 1 6 7 9 anion
5 10 11 19 20 21 rings
5 3 14 15 16 17 rings
6 12 13 19 21 22 23 rings

> <PUBCHEM_HEAVY_ATOM_COUNT>
23

> <PUBCHEM_ATOM_DEF_STEREO_COUNT>
4

> <PUBCHEM_ATOM_UDEF_STEREO_COUNT>
0

> <PUBCHEM_BOND_DEF_STEREO_COUNT>
0

> <PUBCHEM_BOND_UDEF_STEREO_COUNT>
0

> <PUBCHEM_ISOTOPIC_ATOM_COUNT>
0

> <PUBCHEM_COMPONENT_COUNT>
1

> <PUBCHEM_CACTVS_TAUTO_COUNT>
-1

> <PUBCHEM_CONFORMER_ID>
0815602D00000001

> <PUBCHEM_MMFF94_ENERGY>
14.0202

> <PUBCHEM_FEATURE_SELFOVERLAP>
66.15

> <PUBCHEM_SHAPE_FINGERPRINT>
11796584 16 18187921755451406802
12363563 72 18272662220668875446
12403259 118 11527937946259981138
12403259 226 18263640826842769501
12516196 113 18272649048141425914
12596602 18 15195276530583716358
12633257 1 15554443020165924962
12760667 363 18270118990218549502
12788726 201 18192991522247260978
13134695 92 17917142909523905793
13402501 40 18408323284992468090
13533116 47 18200316661979888195
13544592 145 18335413595291477689
13544653 18 18202283576728938940
13631057 29 18338241454158809466
13955234 65 18125162894421811184
14790565 3 17257087065576224597
14866123 147 18051978021997896609
17349148 13 17060344054046943567
17492 89 18052534658429014015
17804303 29 18186800322695336101
1813 80 17560815320409473244
18222031 100 17489874834469530300
193927 3 18343026562552579230
20374829 77 18261107465625526426
20403669 9 18341333301803503046
20645477 70 18341895229406605518
20832881 197 18411698764293421483
21065201 7 17968084370228847385
21250096 35 18412543180802722386
21279426 13 18337666421744966517
21682296 61 18342462551901088919
2215653 11 18409158905513540999
23175994 123 18412826880345645709
23559900 14 18261949738624354773
3004659 81 17967253088083406894
314173 85 18130509652353629876
314194 84 18131626799016974814
335352 9 18335137575651259573
3421961 26 18341894147085636992
437815 12 18272090478627268102
465052 167 18201727266615817446
59755656 215 18114170909881669255
8863177 126 18191594244695417539
9709674 26 18045499970207077947

> <PUBCHEM_SHAPE_MULTIPOLES>
408.9
12.09
2.84
1.16
4.98
1.23
-0.05
-9.78
-1.99
1.46
0.69
0.2
0.05
1.96

> <PUBCHEM_SHAPE_SELFOVERLAP>
866.979

> <PUBCHEM_SHAPE_VOLUME>
231.6

> <PUBCHEM_COORDINATE_TYPE>
2
5
10

$$$$
