135625306
  -OEChem-03292013293D

 56 58  0     1  0  0  0  0  0999 V2000
    6.3544   -0.5476    2.0090 O   0  0  0  0  0  0  0  0  0  0  0  0
    3.1888   -2.9081   -1.1242 O   0  0  0  0  0  0  0  0  0  0  0  0
    4.2228   -0.3569    2.7637 O   0  0  0  0  0  0  0  0  0  0  0  0
    4.5111    3.6741   -1.3594 O   0  0  0  0  0  0  0  0  0  0  0  0
    5.7228    2.1246   -2.4899 O   0  0  0  0  0  0  0  0  0  0  0  0
   -2.0539    2.7222    2.7413 O   0  0  0  0  0  0  0  0  0  0  0  0
   -3.0814   -2.4578   -0.0566 N   0  0  3  0  0  0  0  0  0  0  0  0
    3.1879   -1.1821    0.4251 N   0  0  0  0  0  0  0  0  0  0  0  0
   -3.0914    0.7706    1.1568 N   0  0  0  0  0  0  0  0  0  0  0  0
   -3.7714    1.4950   -1.4725 N   0  0  0  0  0  0  0  0  0  0  0  0
   -2.2147    4.2738    1.0267 N   0  0  0  0  0  0  0  0  0  0  0  0
   -3.0683    3.6985   -1.0938 N   0  0  0  0  0  0  0  0  0  0  0  0
   -2.3505    5.8891   -0.6601 N   0  0  0  0  0  0  0  0  0  0  0  0
    4.6123   -0.9642    0.4376 C   0  0  1  0  0  0  0  0  0  0  0  0
    5.0667    0.0420   -0.6266 C   0  0  0  0  0  0  0  0  0  0  0  0
   -1.6755   -2.3818   -0.1343 C   0  0  0  0  0  0  0  0  0  0  0  0
   -3.8228   -1.5232    0.7669 C   0  0  0  0  0  0  0  0  0  0  0  0
    4.5143    1.4655   -0.4800 C   0  0  0  0  0  0  0  0  0  0  0  0
    1.1061   -2.2317   -0.2857 C   0  0  0  0  0  0  0  0  0  0  0  0
    2.5872   -2.1508   -0.3672 C   0  0  0  0  0  0  0  0  0  0  0  0
   -1.0172   -2.7893   -1.2947 C   0  0  0  0  0  0  0  0  0  0  0  0
   -0.9430   -1.8994    0.9503 C   0  0  0  0  0  0  0  0  0  0  0  0
   -3.8034   -3.4762   -0.7930 C   0  0  0  0  0  0  0  0  0  0  0  0
   -3.6120   -0.1144    0.2857 C   0  0  0  0  0  0  0  0  0  0  0  0
    0.3735   -2.7143   -1.3703 C   0  0  0  0  0  0  0  0  0  0  0  0
    0.4477   -1.8245    0.8746 C   0  0  0  0  0  0  0  0  0  0  0  0
    5.0053   -0.5810    1.8494 C   0  0  0  0  0  0  0  0  0  0  0  0
    4.9825    2.4157   -1.5607 C   0  0  0  0  0  0  0  0  0  0  0  0
   -3.9455    0.2409   -1.0039 C   0  0  0  0  0  0  0  0  0  0  0  0
   -2.9220    2.0185    0.6783 C   0  0  0  0  0  0  0  0  0  0  0  0
   -3.2505    2.3932   -0.6110 C   0  0  0  0  0  0  0  0  0  0  0  0
   -2.3572    3.0166    1.5920 C   0  0  0  0  0  0  0  0  0  0  0  0
   -3.3517   -4.8142   -0.4034 C   0  0  0  0  0  0  0  0  0  0  0  0
   -2.5661    4.5898   -0.2835 C   0  0  0  0  0  0  0  0  0  0  0  0
   -2.9847   -5.9126   -0.0867 C   0  0  0  0  0  0  0  0  0  0  0  0
    5.0916   -1.9300    0.2319 H   0  0  0  0  0  0  0  0  0  0  0  0
    6.1633    0.0948   -0.6229 H   0  0  0  0  0  0  0  0  0  0  0  0
    4.7877   -0.3395   -1.6178 H   0  0  0  0  0  0  0  0  0  0  0  0
   -3.5579   -1.6246    1.8259 H   0  0  0  0  0  0  0  0  0  0  0  0
   -4.9012   -1.7243    0.7282 H   0  0  0  0  0  0  0  0  0  0  0  0
    2.6192   -0.5379    0.9648 H   0  0  0  0  0  0  0  0  0  0  0  0
    4.8265    1.8817    0.4842 H   0  0  0  0  0  0  0  0  0  0  0  0
    3.4195    1.4416   -0.5150 H   0  0  0  0  0  0  0  0  0  0  0  0
   -1.5495   -3.1507   -2.1690 H   0  0  0  0  0  0  0  0  0  0  0  0
   -1.4103   -1.5997    1.8829 H   0  0  0  0  0  0  0  0  0  0  0  0
   -4.8805   -3.4091   -0.5962 H   0  0  0  0  0  0  0  0  0  0  0  0
   -3.7040   -3.3241   -1.8738 H   0  0  0  0  0  0  0  0  0  0  0  0
    0.8678   -3.0279   -2.2861 H   0  0  0  0  0  0  0  0  0  0  0  0
    0.9824   -1.4769    1.7537 H   0  0  0  0  0  0  0  0  0  0  0  0
   -4.3703   -0.4616   -1.7115 H   0  0  0  0  0  0  0  0  0  0  0  0
    6.6080   -0.3148    2.9275 H   0  0  0  0  0  0  0  0  0  0  0  0
   -1.8285    5.0126    1.6072 H   0  0  0  0  0  0  0  0  0  0  0  0
    4.8273    4.2972   -2.0479 H   0  0  0  0  0  0  0  0  0  0  0  0
   -2.6582   -6.8865    0.1944 H   0  0  0  0  0  0  0  0  0  0  0  0
   -2.5767    6.2091   -1.5955 H   0  0  0  0  0  0  0  0  0  0  0  0
   -1.9593    6.5684   -0.0168 H   0  0  0  0  0  0  0  0  0  0  0  0
  1 27  1  0  0  0  0
  1 51  1  0  0  0  0
  2 20  2  0  0  0  0
  3 27  2  0  0  0  0
  4 28  1  0  0  0  0
  4 53  1  0  0  0  0
  5 28  2  0  0  0  0
  6 32  2  0  0  0  0
  7 16  1  0  0  0  0
  7 17  1  0  0  0  0
  7 23  1  0  0  0  0
  8 14  1  0  0  0  0
  8 20  1  0  0  0  0
  8 41  1  0  0  0  0
  9 24  1  0  0  0  0
  9 30  2  0  0  0  0
 10 29  1  0  0  0  0
 10 31  2  0  0  0  0
 11 32  1  0  0  0  0
 11 34  1  0  0  0  0
 11 52  1  0  0  0  0
 12 31  1  0  0  0  0
 12 34  2  0  0  0  0
 13 34  1  0  0  0  0
 13 55  1  0  0  0  0
 13 56  1  0  0  0  0
 14 15  1  0  0  0  0
 14 27  1  0  0  0  0
 14 36  1  0  0  0  0
 15 18  1  0  0  0  0
 15 37  1  0  0  0  0
 15 38  1  0  0  0  0
 16 21  2  0  0  0  0
 16 22  1  0  0  0  0
 17 24  1  0  0  0  0
 17 39  1  0  0  0  0
 17 40  1  0  0  0  0
 18 28  1  0  0  0  0
 18 42  1  0  0  0  0
 18 43  1  0  0  0  0
 19 20  1  0  0  0  0
 19 25  2  0  0  0  0
 19 26  1  0  0  0  0
 21 25  1  0  0  0  0
 21 44  1  0  0  0  0
 22 26  2  0  0  0  0
 22 45  1  0  0  0  0
 23 33  1  0  0  0  0
 23 46  1  0  0  0  0
 23 47  1  0  0  0  0
 24 29  2  0  0  0  0
 25 48  1  0  0  0  0
 26 49  1  0  0  0  0
 29 50  1  0  0  0  0
 30 31  1  0  0  0  0
 30 32  1  0  0  0  0
 33 35  3  0  0  0  0
 35 54  1  0  0  0  0
M  END
> <PUBCHEM_COMPOUND_CID>
135625306

> <PUBCHEM_CONFORMER_RMSD>
1.2

> <PUBCHEM_CONFORMER_DIVERSEORDER>
1
122
18
109
83
92
97
98
95
105
19
91
51
53
88
90
126
106
8
99
117
25
112
7
115
61
16
81
37
42
118
70
46
29
119
102
65
21
74
100
48
75
35
12
57
56
79
28
30
78
17
27
6
107
77
123
94
45
104
72
87
60
20
4
108
34
13
32
93
85
62
67
47
110
10
84
86
103
96
113
59
66
50
121
111
24
80
89
82
49
3
38
69
120
54
52
128
125
23
73
22
31
116
14
68
101
2
40
41
26
39
9
64
44
5
15
33
114
55
36
76
71
11
58
127
124
63
43

> <PUBCHEM_MMFF94_PARTIAL_CHARGES>
46
1 -0.65
10 -0.62
11 -0.49
12 -0.63
13 -0.85
14 0.36
16 0.1
17 0.51
18 0.06
19 0.09
2 -0.57
20 0.54
21 -0.15
22 -0.15
23 0.57
24 0.17
25 -0.15
26 -0.15
27 0.66
28 0.66
29 0.16
3 -0.57
30 0.4
31 0.49
32 0.54
33 -0.2
34 0.56
35 -0.18
4 -0.65
41 0.37
44 0.15
45 0.15
48 0.15
49 0.15
5 -0.57
50 0.15
51 0.5
52 0.37
53 0.5
54 0.18
55 0.4
56 0.4
6 -0.57
7 -0.84
8 -0.73
9 -0.62

> <PUBCHEM_EFFECTIVE_ROTOR_COUNT>
11

> <PUBCHEM_PHARMACOPHORE_FEATURES>
18
1 1 acceptor
1 11 donor
1 13 donor
1 2 acceptor
1 3 acceptor
1 35 hydrophobe
1 4 acceptor
1 5 acceptor
1 6 acceptor
1 7 cation
1 8 donor
1 9 acceptor
3 1 3 27 anion
3 10 12 31 cation
3 4 5 28 anion
6 11 12 30 31 32 34 rings
6 16 19 21 22 25 26 rings
6 9 10 24 29 30 31 rings

> <PUBCHEM_HEAVY_ATOM_COUNT>
35

> <PUBCHEM_ATOM_DEF_STEREO_COUNT>
1

> <PUBCHEM_ATOM_UDEF_STEREO_COUNT>
0

> <PUBCHEM_BOND_DEF_STEREO_COUNT>
0

> <PUBCHEM_BOND_UDEF_STEREO_COUNT>
0

> <PUBCHEM_ISOTOPIC_ATOM_COUNT>
0

> <PUBCHEM_COMPONENT_COUNT>
1

> <PUBCHEM_CACTVS_TAUTO_COUNT>
-1

> <PUBCHEM_CONFORMER_ID>
08157A5A00000001

> <PUBCHEM_MMFF94_ENERGY>
97.5163

> <PUBCHEM_FEATURE_SELFOVERLAP>
91.557

> <PUBCHEM_SHAPE_FINGERPRINT>
10670039 82 18270129053590337222
10937287 8 17908134387687645651
11059845 2 17978199714165033106
11135609 149 15625676982101730470
12788726 201 18265332996417685482
12978246 48 18337956692719961592
13627167 48 18192175843776432388
14251764 38 18336270033371776132
14950920 106 17313105241859423418
15001296 14 18266744756563237040
16067690 210 18260830461868079170
20764821 26 18127122194109151224
21033648 144 18059570252703815986
21049683 271 17616257322319947583
21133410 221 17196802264600816816
22956985 138 17111837722898888235
376196 1 17687746039512628939
4173938 77 16830110395094481833
4561138 5 17750489906078548323
550186 7 18201726158097887790
6608658 132 18195534907227381814
6700243 42 17842022127825722638
9981440 41 18121491359436266987

> <PUBCHEM_SHAPE_MULTIPOLES>
650.2
12.52
8.21
1.95
21.25
4.27
0.73
1.81
-0.71
-11.1
-1.77
2.22
1.07
-2.68

> <PUBCHEM_SHAPE_SELFOVERLAP>
1389.075

> <PUBCHEM_SHAPE_VOLUME>
355.4

> <PUBCHEM_COORDINATE_TYPE>
2
5
10

$$$$
