135641583
  -OEChem-03292013293D

 36 37  0     0  0  0  0  0  0999 V2000
   -4.0386    2.6364   -0.0386 O   0  0  0  0  0  0  0  0  0  0  0  0
    4.3131   -0.1733   -2.1736 O   0  0  0  0  0  0  0  0  0  0  0  0
    0.1361   -2.8210    0.1467 O   0  0  0  0  0  0  0  0  0  0  0  0
   -1.7087   -0.7910    0.0625 N   0  0  0  0  0  0  0  0  0  0  0  0
    2.7974   -2.1558    0.2135 N   0  0  0  0  0  0  0  0  0  0  0  0
   -0.3767   -0.5614    0.0963 N   0  0  0  0  0  0  0  0  0  0  0  0
    1.8171   -1.2258    0.1698 N   0  0  0  0  0  0  0  0  0  0  0  0
   -3.8974    0.2420   -0.0091 C   0  0  0  0  0  0  0  0  0  0  0  0
    4.2301   -0.2043    0.2236 C   0  0  0  0  0  0  0  0  0  0  0  0
   -4.6477    1.4173   -0.0418 C   0  0  0  0  0  0  0  0  0  0  0  0
    4.3815    0.4827   -0.9808 C   0  0  0  0  0  0  0  0  0  0  0  0
   -4.5399   -0.9960   -0.0106 C   0  0  0  0  0  0  0  0  0  0  0  0
    4.3059    0.4850    1.4339 C   0  0  0  0  0  0  0  0  0  0  0  0
   -6.0407    1.3545   -0.0762 C   0  0  0  0  0  0  0  0  0  0  0  0
    4.6087    1.8589   -0.9751 C   0  0  0  0  0  0  0  0  0  0  0  0
   -5.9330   -1.0588   -0.0448 C   0  0  0  0  0  0  0  0  0  0  0  0
    4.5331    1.8613    1.4397 C   0  0  0  0  0  0  0  0  0  0  0  0
   -6.6835    0.1165   -0.0777 C   0  0  0  0  0  0  0  0  0  0  0  0
    4.6845    2.5483    0.2352 C   0  0  0  0  0  0  0  0  0  0  0  0
   -2.4249    0.2855    0.0291 C   0  0  0  0  0  0  0  0  0  0  0  0
    3.9909   -1.6581    0.2403 C   0  0  0  0  0  0  0  0  0  0  0  0
    0.4931   -1.6430    0.1379 C   0  0  0  0  0  0  0  0  0  0  0  0
   -3.9837   -1.9292    0.0146 H   0  0  0  0  0  0  0  0  0  0  0  0
    4.1897   -0.0398    2.3786 H   0  0  0  0  0  0  0  0  0  0  0  0
   -6.6382    2.2620   -0.1016 H   0  0  0  0  0  0  0  0  0  0  0  0
    4.7288    2.4070   -1.9058 H   0  0  0  0  0  0  0  0  0  0  0  0
   -6.4338   -2.0226   -0.0459 H   0  0  0  0  0  0  0  0  0  0  0  0
    4.5920    2.3981    2.3820 H   0  0  0  0  0  0  0  0  0  0  0  0
   -7.7682    0.0676   -0.1043 H   0  0  0  0  0  0  0  0  0  0  0  0
    4.8614    3.6199    0.2399 H   0  0  0  0  0  0  0  0  0  0  0  0
   -1.9546    1.2858    0.0286 H   0  0  0  0  0  0  0  0  0  0  0  0
    4.8703   -2.3209    0.2764 H   0  0  0  0  0  0  0  0  0  0  0  0
   -4.7185    3.3315   -0.0637 H   0  0  0  0  0  0  0  0  0  0  0  0
   -0.0451    0.3977    0.0915 H   0  0  0  0  0  0  0  0  0  0  0  0
    2.0235   -0.2358    0.1591 H   0  0  0  0  0  0  0  0  0  0  0  0
    4.4410    0.4658   -2.8955 H   0  0  0  0  0  0  0  0  0  0  0  0
  1 10  1  0  0  0  0
  1 33  1  0  0  0  0
  2 11  1  0  0  0  0
  2 36  1  0  0  0  0
  3 22  2  0  0  0  0
  4  6  1  0  0  0  0
  4 20  2  0  0  0  0
  5  7  1  0  0  0  0
  5 21  2  0  0  0  0
  6 22  1  0  0  0  0
  6 34  1  0  0  0  0
  7 22  1  0  0  0  0
  7 35  1  0  0  0  0
  8 10  1  0  0  0  0
  8 12  2  0  0  0  0
  8 20  1  0  0  0  0
  9 11  1  0  0  0  0
  9 13  2  0  0  0  0
  9 21  1  0  0  0  0
 10 14  2  0  0  0  0
 11 15  2  0  0  0  0
 12 16  1  0  0  0  0
 12 23  1  0  0  0  0
 13 17  1  0  0  0  0
 13 24  1  0  0  0  0
 14 18  1  0  0  0  0
 14 25  1  0  0  0  0
 15 19  1  0  0  0  0
 15 26  1  0  0  0  0
 16 18  2  0  0  0  0
 16 27  1  0  0  0  0
 17 19  2  0  0  0  0
 17 28  1  0  0  0  0
 18 29  1  0  0  0  0
 19 30  1  0  0  0  0
 20 31  1  0  0  0  0
 21 32  1  0  0  0  0
M  END
> <PUBCHEM_COMPOUND_CID>
135641583

> <PUBCHEM_CONFORMER_RMSD>
0.8

> <PUBCHEM_CONFORMER_DIVERSEORDER>
1
46
35
33
54
27
55
42
48
44
25
50
21
4
41
24
34
29
49
52
58
56
39
40
12
45
11
53
43
23
32
22
30
57
16
47
8
36
6
31
19
28
18
2
51
37
26
38
13
20
15
5
10
3
9
17
14
7

> <PUBCHEM_MMFF94_PARTIAL_CHARGES>
36
1 -0.53
10 0.08
11 0.08
12 -0.15
13 -0.15
14 -0.15
15 -0.15
16 -0.15
17 -0.15
18 -0.15
19 -0.15
2 -0.53
20 0.3
21 0.3
22 0.69
23 0.15
24 0.15
25 0.15
26 0.15
27 0.15
28 0.15
29 0.15
3 -0.57
30 0.15
31 0.06
32 0.06
33 0.45
34 0.37
35 0.37
36 0.45
4 -0.51
5 -0.51
6 -0.37
7 -0.37
8 0.09
9 0.09

> <PUBCHEM_EFFECTIVE_ROTOR_COUNT>
6

> <PUBCHEM_PHARMACOPHORE_FEATURES>
9
1 1 donor
1 2 donor
1 3 acceptor
1 4 acceptor
1 5 acceptor
1 6 donor
1 7 donor
6 8 10 12 14 16 18 rings
6 9 11 13 15 17 19 rings

> <PUBCHEM_HEAVY_ATOM_COUNT>
22

> <PUBCHEM_ATOM_DEF_STEREO_COUNT>
0

> <PUBCHEM_ATOM_UDEF_STEREO_COUNT>
0

> <PUBCHEM_BOND_DEF_STEREO_COUNT>
2

> <PUBCHEM_BOND_UDEF_STEREO_COUNT>
0

> <PUBCHEM_ISOTOPIC_ATOM_COUNT>
0

> <PUBCHEM_COMPONENT_COUNT>
1

> <PUBCHEM_CACTVS_TAUTO_COUNT>
-1

> <PUBCHEM_CONFORMER_ID>
0815B9EF00000001

> <PUBCHEM_MMFF94_ENERGY>
68.4884

> <PUBCHEM_FEATURE_SELFOVERLAP>
45.735

> <PUBCHEM_SHAPE_FINGERPRINT>
10595046 47 18409728452763575387
10670039 82 18335150747910008524
11796584 16 8790880796079540713
11858739 19 8214147356460795467
125118 31 18041559140477117181
12616971 3 18058997424225082174
13533116 47 15502647166317212248
13561361 72 17605545561855904476
14251732 16 18408323315742658283
14347332 77 10735882751196747379
14528608 73 18412545409705944359
15183329 4 18409730660218893425
15419008 145 18189037721774426464
15961568 22 18259706696201767124
17810953 82 18408602561378095576
17844677 252 18341899528616160283
20567600 234 17240488030757531255
20691028 202 17982167817428693513
21315763 129 18337668594649888259
21641784 216 16558758888385949177
2303208 19 13110957661194003623
23272321 79 18409729573739360227
23559900 14 18054222120962100235
245318 6 17533236377191757740
3472631 163 18270401715014627052
34797466 226 17847067692121763853
5104073 3 18261393304637267723
513532 50 18273221889731461182
53794403 172 18193279826101672644
59682541 52 16343710902029598653
8988823 20 13767926857848143166
960060 61 12751238142536474226

> <PUBCHEM_SHAPE_MULTIPOLES>
415.22
17.98
2.64
1.07
16.17
0.17
0.22
7.46
0.59
-1.6
-0.22
-2.1
0.27
0.27

> <PUBCHEM_SHAPE_SELFOVERLAP>
884.572

> <PUBCHEM_SHAPE_VOLUME>
228.7

> <PUBCHEM_COORDINATE_TYPE>
2
5
10

$$$$
