135625320
  -OEChem-03292013293D

 34 36  0     1  0  0  0  0  0999 V2000
   -1.5023    0.0639    1.1958 O   0  0  0  0  0  0  0  0  0  0  0  0
   -1.5971   -0.5575   -1.7459 O   0  0  0  0  0  0  0  0  0  0  0  0
   -1.0216   -3.0112   -0.6277 O   0  0  0  0  0  0  0  0  0  0  0  0
   -4.0165    1.4620   -1.0694 O   0  0  0  0  0  0  0  0  0  0  0  0
    4.6385    0.5487   -0.6658 O   0  0  0  0  0  0  0  0  0  0  0  0
    0.6088   -1.0334    0.6436 N   0  0  0  0  0  0  0  0  0  0  0  0
    2.7122   -1.5771    0.1089 N   0  0  0  0  0  0  0  0  0  0  0  0
    0.6896    1.3728    0.3630 N   0  0  0  0  0  0  0  0  0  0  0  0
    2.8886    2.0573   -0.3310 N   0  0  0  0  0  0  0  0  0  0  0  0
   -2.6743    0.0678    0.3533 C   0  0  2  0  0  0  0  0  0  0  0  0
   -2.4394   -1.0123   -0.6953 C   0  0  2  0  0  0  0  0  0  0  0  0
   -1.7152   -2.0509    0.1374 C   0  0  2  0  0  0  0  0  0  0  0  0
   -0.8337   -1.2125    1.0693 C   0  0  2  0  0  0  0  0  0  0  0  0
   -2.9022    1.4698   -0.1804 C   0  0  2  0  0  0  0  0  0  0  0  0
    1.2396    0.1368    0.3402 C   0  0  0  0  0  0  0  0  0  0  0  0
   -3.1663    2.4701    0.9365 C   0  0  0  0  0  0  0  0  0  0  0  0
    1.5358   -2.0356    0.4901 C   0  0  0  0  0  0  0  0  0  0  0  0
    2.5260   -0.2293    0.0165 C   0  0  0  0  0  0  0  0  0  0  0  0
    3.4765    0.7854   -0.3604 C   0  0  0  0  0  0  0  0  0  0  0  0
    1.5532    2.2850    0.0214 C   0  0  0  0  0  0  0  0  0  0  0  0
   -3.5212   -0.2364    0.9835 H   0  0  0  0  0  0  0  0  0  0  0  0
   -3.3617   -1.3898   -1.1451 H   0  0  0  0  0  0  0  0  0  0  0  0
   -2.4527   -2.5803    0.7549 H   0  0  0  0  0  0  0  0  0  0  0  0
   -0.7555   -1.6656    2.0647 H   0  0  0  0  0  0  0  0  0  0  0  0
   -2.0259    1.8145   -0.7410 H   0  0  0  0  0  0  0  0  0  0  0  0
   -4.0614    2.1944    1.5050 H   0  0  0  0  0  0  0  0  0  0  0  0
   -3.3551    3.4662    0.5213 H   0  0  0  0  0  0  0  0  0  0  0  0
   -2.3201    2.5414    1.6262 H   0  0  0  0  0  0  0  0  0  0  0  0
   -0.8393   -0.0878   -1.3626 H   0  0  0  0  0  0  0  0  0  0  0  0
   -1.6605   -3.4159   -1.2388 H   0  0  0  0  0  0  0  0  0  0  0  0
    1.3029   -3.0739    0.6826 H   0  0  0  0  0  0  0  0  0  0  0  0
   -4.1256    2.3653   -1.4124 H   0  0  0  0  0  0  0  0  0  0  0  0
    1.2794    3.3508   -0.0159 H   0  0  0  0  0  0  0  0  0  0  0  0
    3.4656    2.8555   -0.5801 H   0  0  0  0  0  0  0  0  0  0  0  0
  1 10  1  0  0  0  0
  1 13  1  0  0  0  0
  2 11  1  0  0  0  0
  2 29  1  0  0  0  0
  3 12  1  0  0  0  0
  3 30  1  0  0  0  0
  4 14  1  0  0  0  0
  4 32  1  0  0  0  0
  5 19  2  0  0  0  0
  6 13  1  0  0  0  0
  6 15  1  0  0  0  0
  6 17  1  0  0  0  0
  7 17  2  0  0  0  0
  7 18  1  0  0  0  0
  8 15  1  0  0  0  0
  8 20  2  0  0  0  0
  9 19  1  0  0  0  0
  9 20  1  0  0  0  0
  9 34  1  0  0  0  0
 10 11  1  0  0  0  0
 10 14  1  0  0  0  0
 10 21  1  0  0  0  0
 11 12  1  0  0  0  0
 11 22  1  0  0  0  0
 12 13  1  0  0  0  0
 12 23  1  0  0  0  0
 13 24  1  0  0  0  0
 14 16  1  0  0  0  0
 14 25  1  0  0  0  0
 15 18  2  0  0  0  0
 16 26  1  0  0  0  0
 16 27  1  0  0  0  0
 16 28  1  0  0  0  0
 17 31  1  0  0  0  0
 18 19  1  0  0  0  0
 20 33  1  0  0  0  0
M  END
> <PUBCHEM_COMPOUND_CID>
135625320

> <PUBCHEM_CONFORMER_RMSD>
0.6

> <PUBCHEM_CONFORMER_DIVERSEORDER>
1
18
13
19
5
12
21
16
6
10
15
4
17
9
8
3
7
14
20
11
2

> <PUBCHEM_MMFF94_PARTIAL_CHARGES>
25
1 -0.56
10 0.28
11 0.28
12 0.28
13 0.54
14 0.28
15 -0.03
17 0.04
18 0.14
19 0.72
2 -0.68
20 0.45
29 0.4
3 -0.68
30 0.4
31 0.15
32 0.4
33 0.06
34 0.37
4 -0.68
5 -0.57
6 0.05
7 -0.57
8 -0.58
9 -0.49

> <PUBCHEM_EFFECTIVE_ROTOR_COUNT>
3

> <PUBCHEM_PHARMACOPHORE_FEATURES>
13
1 1 acceptor
1 2 acceptor
1 2 donor
1 3 acceptor
1 3 donor
1 4 acceptor
1 4 donor
1 5 acceptor
1 9 donor
3 6 7 17 cation
5 1 10 11 12 13 rings
5 6 7 15 17 18 rings
6 8 9 15 18 19 20 rings

> <PUBCHEM_HEAVY_ATOM_COUNT>
20

> <PUBCHEM_ATOM_DEF_STEREO_COUNT>
5

> <PUBCHEM_ATOM_UDEF_STEREO_COUNT>
0

> <PUBCHEM_BOND_DEF_STEREO_COUNT>
0

> <PUBCHEM_BOND_UDEF_STEREO_COUNT>
0

> <PUBCHEM_ISOTOPIC_ATOM_COUNT>
0

> <PUBCHEM_COMPONENT_COUNT>
1

> <PUBCHEM_CACTVS_TAUTO_COUNT>
-1

> <PUBCHEM_CONFORMER_ID>
08157A6800000001

> <PUBCHEM_MMFF94_ENERGY>
53.4501

> <PUBCHEM_FEATURE_SELFOVERLAP>
66.125

> <PUBCHEM_SHAPE_FINGERPRINT>
10062212 137 18335413591386959266
10756046 5 18412255143042156615
10967382 1 18265335014814593504
11578080 2 17202752829914500584
12173636 292 18413103983235494671
12491281 212 18335423486506058986
13464514 151 18335425642922552290
14178342 30 18339344371020438106
15442244 35 18338233756812264402
15775835 57 18334576819713826741
16945 1 18268141131486639954
18186145 218 18266463113655027201
19868273 293 18201716249776549031
20645476 183 18272086093640070311
21197605 99 17617957833307077697
21501502 16 18334569161734533338
21524375 3 18261952951639414467
22094290 62 18336262319336037107
23559900 14 18272657861994838784
238 59 17320943518493849709
25 1 18261393312731167016
2748010 2 18337965518756123906
34934 24 18410011001434442632
350125 39 18263936594826952753
74978 22 18411416224006604506
7832392 63 18411983546374052152
90525 40 18201722846925502103

> <PUBCHEM_SHAPE_MULTIPOLES>
362.32
6.46
2.89
1.04
1.96
0.2
0.13
-3.39
1.33
-0.77
-0.06
-0.64
0.06
-0.57

> <PUBCHEM_SHAPE_SELFOVERLAP>
785.934

> <PUBCHEM_SHAPE_VOLUME>
195.3

> <PUBCHEM_COORDINATE_TYPE>
2
5
10

$$$$
