135600343
  -OEChem-03292013293D

 54 56  0     1  0  0  0  0  0999 V2000
    6.1991   -0.9309    2.6174 O   0  0  0  0  0  0  0  0  0  0  0  0
   -4.4079    1.1688    1.3728 O   0  0  0  0  0  0  0  0  0  0  0  0
   -6.2628   -2.5547   -1.5140 O   0  5  0  0  0  0  0  0  0  0  0  0
   -7.1046   -2.5642    0.6083 O   0  0  0  0  0  0  0  0  0  0  0  0
   -9.8796    0.3228    0.6351 O   0  5  0  0  0  0  0  0  0  0  0  0
   -8.0883    1.7069    0.9378 O   0  0  0  0  0  0  0  0  0  0  0  0
    5.8690    0.9054   -1.7011 N   0  0  0  0  0  0  0  0  0  0  0  0
    4.6871    0.3950    0.7464 N   0  0  0  0  0  0  0  0  0  0  0  0
    1.7170    0.2748   -0.0861 N   0  0  0  0  0  0  0  0  0  0  0  0
   -4.6278   -0.5119   -0.2096 N   0  0  0  0  0  0  0  0  0  0  0  0
    7.9162   -0.1145   -0.9619 N   0  0  0  0  0  0  0  0  0  0  0  0
    8.0097   -1.0201    1.1995 N   0  0  0  0  0  0  0  0  0  0  0  0
    9.8801   -1.1305   -0.1878 N   0  0  0  0  0  0  0  0  0  0  0  0
    4.4519    1.1740   -1.6157 C   0  0  2  0  0  0  0  0  0  0  0  0
    3.9783    0.9565   -0.1861 C   0  0  0  0  0  0  0  0  0  0  0  0
    2.5756    1.3923    0.1617 C   0  0  0  0  0  0  0  0  0  0  0  0
    3.7072    0.2566   -2.5769 C   0  0  0  0  0  0  0  0  0  0  0  0
    6.6052    0.2562   -0.7244 C   0  0  0  0  0  0  0  0  0  0  0  0
    5.9735    0.0159    0.4483 C   0  0  0  0  0  0  0  0  0  0  0  0
   -6.0706   -0.5894   -0.1725 C   0  0  1  0  0  0  0  0  0  0  0  0
   -6.7017    0.3912   -1.1715 C   0  0  0  0  0  0  0  0  0  0  0  0
    0.3340    0.2999    0.0775 C   0  0  0  0  0  0  0  0  0  0  0  0
    6.7162   -0.6852    1.5316 C   0  0  0  0  0  0  0  0  0  0  0  0
   -2.4359    0.3478    0.4054 C   0  0  0  0  0  0  0  0  0  0  0  0
   -8.2250    0.4779   -1.0656 C   0  0  0  0  0  0  0  0  0  0  0  0
   -0.2971    1.4668    0.5083 C   0  0  0  0  0  0  0  0  0  0  0  0
   -0.4197   -0.8432   -0.1892 C   0  0  0  0  0  0  0  0  0  0  0  0
   -3.8799    0.3734    0.5754 C   0  0  0  0  0  0  0  0  0  0  0  0
    8.5800   -0.7299   -0.0264 C   0  0  0  0  0  0  0  0  0  0  0  0
   -1.6821    1.4907    0.6723 C   0  0  0  0  0  0  0  0  0  0  0  0
   -1.8047   -0.8192   -0.0251 C   0  0  0  0  0  0  0  0  0  0  0  0
   -6.5230   -2.0452   -0.3889 C   0  0  0  0  0  0  0  0  0  0  0  0
   -8.7896    0.8658    0.3051 C   0  0  0  0  0  0  0  0  0  0  0  0
    4.2727    2.2202   -1.8858 H   0  0  0  0  0  0  0  0  0  0  0  0
    2.3121    2.2556   -0.4588 H   0  0  0  0  0  0  0  0  0  0  0  0
    2.5492    1.6883    1.2165 H   0  0  0  0  0  0  0  0  0  0  0  0
    6.3517    1.0896   -2.5745 H   0  0  0  0  0  0  0  0  0  0  0  0
    3.7731   -0.7918   -2.2641 H   0  0  0  0  0  0  0  0  0  0  0  0
    4.1251    0.3280   -3.5873 H   0  0  0  0  0  0  0  0  0  0  0  0
    2.6475    0.5222   -2.6409 H   0  0  0  0  0  0  0  0  0  0  0  0
    2.1278   -0.6132   -0.3558 H   0  0  0  0  0  0  0  0  0  0  0  0
   -6.3692   -0.2985    0.8418 H   0  0  0  0  0  0  0  0  0  0  0  0
   -6.2751    1.3909   -1.0175 H   0  0  0  0  0  0  0  0  0  0  0  0
   -6.4348    0.1052   -2.1969 H   0  0  0  0  0  0  0  0  0  0  0  0
   -4.1633   -1.0804   -0.9100 H   0  0  0  0  0  0  0  0  0  0  0  0
   -8.5870    1.2239   -1.7840 H   0  0  0  0  0  0  0  0  0  0  0  0
   -8.6645   -0.4808   -1.3672 H   0  0  0  0  0  0  0  0  0  0  0  0
    0.2539    2.3769    0.7267 H   0  0  0  0  0  0  0  0  0  0  0  0
    0.0606   -1.7609   -0.5193 H   0  0  0  0  0  0  0  0  0  0  0  0
    8.5741   -1.5019    1.8929 H   0  0  0  0  0  0  0  0  0  0  0  0
   -2.1555    2.4111    1.0046 H   0  0  0  0  0  0  0  0  0  0  0  0
   -2.3495   -1.7395   -0.2143 H   0  0  0  0  0  0  0  0  0  0  0  0
   10.3786   -0.9595   -1.0543 H   0  0  0  0  0  0  0  0  0  0  0  0
   10.3820   -1.6089    0.5522 H   0  0  0  0  0  0  0  0  0  0  0  0
  1 23  2  0  0  0  0
  2 28  2  0  0  0  0
  3 32  1  0  0  0  0
  4 32  2  0  0  0  0
  5 33  1  0  0  0  0
  6 33  2  0  0  0  0
  7 14  1  0  0  0  0
  7 18  1  0  0  0  0
  7 37  1  0  0  0  0
  8 15  2  0  0  0  0
  8 19  1  0  0  0  0
  9 16  1  0  0  0  0
  9 22  1  0  0  0  0
  9 41  1  0  0  0  0
 10 20  1  0  0  0  0
 10 28  1  0  0  0  0
 10 45  1  0  0  0  0
 11 18  1  0  0  0  0
 11 29  2  0  0  0  0
 12 23  1  0  0  0  0
 12 29  1  0  0  0  0
 12 50  1  0  0  0  0
 13 29  1  0  0  0  0
 13 53  1  0  0  0  0
 13 54  1  0  0  0  0
 14 15  1  0  0  0  0
 14 17  1  0  0  0  0
 14 34  1  0  0  0  0
 15 16  1  0  0  0  0
 16 35  1  0  0  0  0
 16 36  1  0  0  0  0
 17 38  1  0  0  0  0
 17 39  1  0  0  0  0
 17 40  1  0  0  0  0
 18 19  2  0  0  0  0
 19 23  1  0  0  0  0
 20 21  1  0  0  0  0
 20 32  1  0  0  0  0
 20 42  1  0  0  0  0
 21 25  1  0  0  0  0
 21 43  1  0  0  0  0
 21 44  1  0  0  0  0
 22 26  2  0  0  0  0
 22 27  1  0  0  0  0
 24 28  1  0  0  0  0
 24 30  2  0  0  0  0
 24 31  1  0  0  0  0
 25 33  1  0  0  0  0
 25 46  1  0  0  0  0
 25 47  1  0  0  0  0
 26 30  1  0  0  0  0
 26 48  1  0  0  0  0
 27 31  2  0  0  0  0
 27 49  1  0  0  0  0
 30 51  1  0  0  0  0
 31 52  1  0  0  0  0
M  CHG  2   3  -1   5  -1
M  END
> <PUBCHEM_COMPOUND_CID>
135600343

> <PUBCHEM_CONFORMER_RMSD>
1.2

> <PUBCHEM_CONFORMER_DIVERSEORDER>
1
27
71
132
61
104
109
14
32
16
12
76
40
73
99
41
87
101
68
125
79
46
66
22
112
29
111
126
21
9
64
102
91
122
70
110
24
121
3
31
123
94
51
50
100
89
53
115
43
113
86
118
105
119
67
103
88
26
15
39
120
4
33
65
13
63
136
108
134
55
52
93
48
19
83
81
69
117
59
54
128
75
28
107
2
77
23
17
90
36
5
6
131
72
97
60
130
7
96
124
20
92
35
129
80
11
114
58
49
10
42
84
56
85
47
8
98
95
37
57
25
44
135
18
116
62
45
78
74
106
127
34
82
133
30
38

> <PUBCHEM_MMFF94_PARTIAL_CHARGES>
41
1 -0.57
10 -0.73
11 -0.62
12 -0.49
13 -0.85
14 0.43
15 0.33
16 0.43
18 0.27
19 0.19
2 -0.57
20 0.19
22 0.1
23 0.62
24 0.09
25 -0.11
26 -0.15
27 -0.15
28 0.54
29 0.56
3 -0.9
30 -0.15
31 -0.15
32 0.91
33 0.91
37 0.4
4 -0.9
41 0.4
45 0.37
48 0.15
49 0.15
5 -0.9
50 0.37
51 0.15
52 0.15
53 0.4
54 0.4
6 -0.9
7 -0.87
8 -0.62
9 -0.87

> <PUBCHEM_EFFECTIVE_ROTOR_COUNT>
10.4

> <PUBCHEM_PHARMACOPHORE_FEATURES>
19
1 1 acceptor
1 10 donor
1 12 donor
1 13 donor
1 2 acceptor
1 3 acceptor
1 4 acceptor
1 5 acceptor
1 6 acceptor
1 7 cation
1 7 donor
1 8 acceptor
1 9 cation
1 9 donor
3 3 4 32 anion
3 5 6 33 anion
6 11 12 18 19 23 29 rings
6 22 24 26 27 30 31 rings
6 7 8 14 15 18 19 rings

> <PUBCHEM_HEAVY_ATOM_COUNT>
33

> <PUBCHEM_ATOM_DEF_STEREO_COUNT>
1

> <PUBCHEM_ATOM_UDEF_STEREO_COUNT>
1

> <PUBCHEM_BOND_DEF_STEREO_COUNT>
0

> <PUBCHEM_BOND_UDEF_STEREO_COUNT>
0

> <PUBCHEM_ISOTOPIC_ATOM_COUNT>
0

> <PUBCHEM_COMPONENT_COUNT>
1

> <PUBCHEM_CACTVS_TAUTO_COUNT>
-1

> <PUBCHEM_CONFORMER_ID>
081518D700000001

> <PUBCHEM_MMFF94_ENERGY>
94.7957

> <PUBCHEM_FEATURE_SELFOVERLAP>
96.618

> <PUBCHEM_SHAPE_FINGERPRINT>
10 15 16558744638296344112
10076449 9 12901546837031301575
10299344 5 18040151820583645427
10391435 84 16988842804761710983
106641 1 12967126116694756980
11135926 11 18341887477618793423
11386260 185 16009030644183263502
12082328 90 17385724729821755675
12089408 11 18334858342230479430
12592606 108 18260265257452673546
12643181 29 17989486343016036487
12741549 16 17060335207021476504
13811026 1 16988846076930749761
13914758 101 17530961363090055069
14251764 46 17846779598437003844
14294032 229 18266181639027424685
14512766 119 11026889372813664359
15183329 4 17603865598746380216
15510794 2 16702301265558922327
20105231 36 14706926237561514360
21095123 145 12613040504999222889
21792934 111 16845570915664948001
22224240 67 14836405839018371821
24771293 8 10159705711489882643
249057 3 15647058182923666920
3092352 35 17821731641963142659
3383291 50 17846781848858176719
3633792 109 17095522886023816732
4340502 62 15339121247794989732
44389302 135 18340761543579669970
4874694 18 16845573093882734509
58902169 19 17895196657337960871
6126387 218 15554450678841693705
67123 10 8718826487760192025
9663363 56 16950563278077486036

> <PUBCHEM_SHAPE_MULTIPOLES>
609.04
34.51
1.7
1.59
7.91
0.72
-0.28
7.79
-0.05
2.15
-0.07
-1.58
0.01
-2.94

> <PUBCHEM_SHAPE_SELFOVERLAP>
1298.71

> <PUBCHEM_SHAPE_VOLUME>
332.9

> <PUBCHEM_COORDINATE_TYPE>
2
5
10

$$$$
