135618563
  -OEChem-03292013293D

 45 47  0     1  0  0  0  0  0999 V2000
   -3.0347    1.5821    0.7581 S   0  0  0  0  0  0  0  0  0  0  0  0
    0.0175    1.7490    1.0492 O   0  0  0  0  0  0  0  0  0  0  0  0
    1.1267    4.4785    0.3430 O   0  0  0  0  0  0  0  0  0  0  0  0
    2.5872    2.7803   -1.2557 O   0  0  0  0  0  0  0  0  0  0  0  0
    3.5089   -3.9728   -0.3147 O   0  0  0  0  0  0  0  0  0  0  0  0
   -4.9386   -1.2330    1.7171 O   0  0  0  0  0  0  0  0  0  0  0  0
   -5.9237   -2.4004    0.0422 O   0  0  0  0  0  0  0  0  0  0  0  0
    1.6079    0.0970    0.2133 N   0  0  0  0  0  0  0  0  0  0  0  0
    1.2332   -2.0639   -0.2287 N   0  0  0  0  0  0  0  0  0  0  0  0
    4.0154    0.0794    0.4949 N   0  0  0  0  0  0  0  0  0  0  0  0
    4.8740   -2.1462    0.1861 N   0  0  0  0  0  0  0  0  0  0  0  0
   -3.4615   -2.5979   -1.1826 N   0  0  0  0  0  0  0  0  0  0  0  0
    0.4068    3.5436   -0.4594 C   0  0  1  0  0  0  0  0  0  0  0  0
    1.2976    2.3777   -0.8395 C   0  0  2  0  0  0  0  0  0  0  0  0
   -0.6389    2.8741    0.4232 C   0  0  1  0  0  0  0  0  0  0  0  0
    1.3151    1.5600    0.4478 C   0  0  1  0  0  0  0  0  0  0  0  0
   -1.8356    2.3522   -0.3602 C   0  0  0  0  0  0  0  0  0  0  0  0
    2.8261   -0.5151    0.2445 C   0  0  0  0  0  0  0  0  0  0  0  0
    0.6819   -0.8758   -0.0749 C   0  0  0  0  0  0  0  0  0  0  0  0
    2.5633   -1.8378   -0.0302 C   0  0  0  0  0  0  0  0  0  0  0  0
   -4.2707    1.0974   -0.4691 C   0  0  0  0  0  0  0  0  0  0  0  0
   -3.9094   -0.1921   -1.2124 C   0  0  0  0  0  0  0  0  0  0  0  0
    3.6518   -2.7804   -0.0752 C   0  0  0  0  0  0  0  0  0  0  0  0
   -3.7175   -1.4334   -0.3290 C   0  0  1  0  0  0  0  0  0  0  0  0
    4.9945   -0.7774    0.4526 C   0  0  0  0  0  0  0  0  0  0  0  0
   -4.9770   -1.7448    0.4596 C   0  0  0  0  0  0  0  0  0  0  0  0
    0.0040    4.0815   -1.3223 H   0  0  0  0  0  0  0  0  0  0  0  0
    0.8384    1.8025   -1.6528 H   0  0  0  0  0  0  0  0  0  0  0  0
   -0.9704    3.5489    1.2220 H   0  0  0  0  0  0  0  0  0  0  0  0
    2.0784    1.9012    1.1573 H   0  0  0  0  0  0  0  0  0  0  0  0
   -1.5159    1.6009   -1.0879 H   0  0  0  0  0  0  0  0  0  0  0  0
   -2.3212    3.1762   -0.8927 H   0  0  0  0  0  0  0  0  0  0  0  0
    0.5099    5.1908    0.5838 H   0  0  0  0  0  0  0  0  0  0  0  0
    2.4748    3.3816   -2.0116 H   0  0  0  0  0  0  0  0  0  0  0  0
   -0.3739   -0.6615   -0.1651 H   0  0  0  0  0  0  0  0  0  0  0  0
   -4.4156    1.9140   -1.1847 H   0  0  0  0  0  0  0  0  0  0  0  0
   -5.2270    0.9739    0.0496 H   0  0  0  0  0  0  0  0  0  0  0  0
   -3.0074   -0.0290   -1.8161 H   0  0  0  0  0  0  0  0  0  0  0  0
   -4.7185   -0.3842   -1.9313 H   0  0  0  0  0  0  0  0  0  0  0  0
   -2.8717   -1.3250    0.3570 H   0  0  0  0  0  0  0  0  0  0  0  0
    6.0363   -0.4698    0.6323 H   0  0  0  0  0  0  0  0  0  0  0  0
    5.7167   -2.7137    0.1805 H   0  0  0  0  0  0  0  0  0  0  0  0
   -3.2590   -3.4098   -0.6000 H   0  0  0  0  0  0  0  0  0  0  0  0
   -2.6234   -2.4339   -1.7394 H   0  0  0  0  0  0  0  0  0  0  0  0
   -5.7509   -1.4468    2.2237 H   0  0  0  0  0  0  0  0  0  0  0  0
  1 17  1  0  0  0  0
  1 21  1  0  0  0  0
  2 15  1  0  0  0  0
  2 16  1  0  0  0  0
  3 13  1  0  0  0  0
  3 33  1  0  0  0  0
  4 14  1  0  0  0  0
  4 34  1  0  0  0  0
  5 23  2  0  0  0  0
  6 26  1  0  0  0  0
  6 45  1  0  0  0  0
  7 26  2  0  0  0  0
  8 16  1  0  0  0  0
  8 18  1  0  0  0  0
  8 19  1  0  0  0  0
  9 19  2  0  0  0  0
  9 20  1  0  0  0  0
 10 18  1  0  0  0  0
 10 25  2  0  0  0  0
 11 23  1  0  0  0  0
 11 25  1  0  0  0  0
 11 42  1  0  0  0  0
 12 24  1  0  0  0  0
 12 43  1  0  0  0  0
 12 44  1  0  0  0  0
 13 14  1  0  0  0  0
 13 15  1  0  0  0  0
 13 27  1  0  0  0  0
 14 16  1  0  0  0  0
 14 28  1  0  0  0  0
 15 17  1  0  0  0  0
 15 29  1  0  0  0  0
 16 30  1  0  0  0  0
 17 31  1  0  0  0  0
 17 32  1  0  0  0  0
 18 20  2  0  0  0  0
 19 35  1  0  0  0  0
 20 23  1  0  0  0  0
 21 22  1  0  0  0  0
 21 36  1  0  0  0  0
 21 37  1  0  0  0  0
 22 24  1  0  0  0  0
 22 38  1  0  0  0  0
 22 39  1  0  0  0  0
 24 26  1  0  0  0  0
 24 40  1  0  0  0  0
 25 41  1  0  0  0  0
M  END
> <PUBCHEM_COMPOUND_CID>
135618563

> <PUBCHEM_CONFORMER_RMSD>
1

> <PUBCHEM_CONFORMER_DIVERSEORDER>
1
43
156
118
30
94
147
58
44
24
129
149
83
104
68
49
116
16
78
132
5
141
54
59
107
25
93
161
51
61
63
102
87
134
69
62
113
111
119
72
101
53
79
130
18
95
82
125
75
34
115
151
26
41
124
66
35
106
33
28
109
100
56
46
159
168
148
22
91
77
80
167
154
17
84
86
122
135
145
166
81
89
65
140
96
60
123
165
37
14
29
131
85
64
50
127
103
117
92
6
11
48
40
67
153
8
112
3
57
97
138
126
90
76
21
70
120
160
52
157
74
42
142
158
73
12
144
133
128
45
71
38
121
47
108
163
55
98
150
23
88
137
155
4
39
146
32
27
15
152
9
99
164
13
7
136
10
31
114
162
110
105
19
143
36
20
2
139

> <PUBCHEM_MMFF94_PARTIAL_CHARGES>
33
1 -0.46
10 -0.58
11 -0.49
12 -0.99
13 0.28
14 0.28
15 0.28
16 0.54
17 0.23
18 -0.03
19 0.04
2 -0.56
20 0.14
21 0.23
23 0.72
24 0.33
25 0.45
26 0.66
3 -0.68
33 0.4
34 0.4
35 0.15
4 -0.68
41 0.06
42 0.37
43 0.36
44 0.36
45 0.5
5 -0.57
6 -0.65
7 -0.57
8 0.05
9 -0.57

> <PUBCHEM_EFFECTIVE_ROTOR_COUNT>
8

> <PUBCHEM_PHARMACOPHORE_FEATURES>
17
1 11 donor
1 12 cation
1 12 donor
1 2 acceptor
1 3 acceptor
1 3 donor
1 4 acceptor
1 4 donor
1 5 acceptor
1 6 acceptor
1 7 acceptor
3 6 7 26 anion
3 8 9 19 cation
4 1 17 21 22 hydrophobe
5 2 13 14 15 16 rings
5 8 9 18 19 20 rings
6 10 11 18 20 23 25 rings

> <PUBCHEM_HEAVY_ATOM_COUNT>
26

> <PUBCHEM_ATOM_DEF_STEREO_COUNT>
4

> <PUBCHEM_ATOM_UDEF_STEREO_COUNT>
1

> <PUBCHEM_BOND_DEF_STEREO_COUNT>
0

> <PUBCHEM_BOND_UDEF_STEREO_COUNT>
0

> <PUBCHEM_ISOTOPIC_ATOM_COUNT>
0

> <PUBCHEM_COMPONENT_COUNT>
1

> <PUBCHEM_CACTVS_TAUTO_COUNT>
-1

> <PUBCHEM_CONFORMER_ID>
0815600300000001

> <PUBCHEM_MMFF94_ENERGY>
52.6308

> <PUBCHEM_FEATURE_SELFOVERLAP>
86.484

> <PUBCHEM_SHAPE_FINGERPRINT>
11014199 57 18410578366482459621
11135609 12 18335421266425004017
11315621 246 18124889958340939918
12107183 9 18270132232235544617
12969540 37 18410564115586117524
13004483 165 17975403625312927705
138480 1 14520589360550306053
13989917 61 18049161370109813275
14790565 3 17834110132325674036
14863182 85 18193553595933128960
15352361 1 18411133611216994695
15927050 60 17692250060083665756
17492 89 18338233868903582491
19141452 34 18124318199030162641
19319366 153 17622166085096423517
20775530 9 18411409610047281383
221490 88 18407760352302961217
23559900 14 18337940252201804693
329604 57 18334577949084659718
4280585 95 18189041015291298184
46194498 28 17676765487241993317
463206 1 18336831887971581801
57091435 65 18268149945133895989
6669772 16 17908146825955997268

> <PUBCHEM_SHAPE_MULTIPOLES>
478.8
11.04
5.16
1.01
5.89
2.3
-0.03
-11.75
-0.96
-1.39
0.56
0.79
0.1
-0.15

> <PUBCHEM_SHAPE_SELFOVERLAP>
1000.577

> <PUBCHEM_SHAPE_VOLUME>
273.3

> <PUBCHEM_COORDINATE_TYPE>
2
5
10

$$$$
