135645809
  -OEChem-03292013293D

 41 44  0     0  0  0  0  0  0999 V2000
    5.2571   -0.6241    0.1501 S   0  0  0  0  0  0  0  0  0  0  0  0
    5.4882   -0.1845    1.7046 O   0  0  0  0  0  0  0  0  0  0  0  0
    5.6673   -2.0120    0.0287 O   0  0  0  0  0  0  0  0  0  0  0  0
    5.8224    0.4027   -0.7055 O   0  0  0  0  0  0  0  0  0  0  0  0
   -4.6388   -1.7338   -0.0532 N   0  0  0  0  0  0  0  0  0  0  0  0
   -1.2091   -0.8287    0.4618 N   0  0  0  0  0  0  0  0  0  0  0  0
   -0.6337   -0.7334   -0.6458 N   0  0  0  0  0  0  0  0  0  0  0  0
   -3.5072    0.1708    0.2107 C   0  0  0  0  0  0  0  0  0  0  0  0
   -4.7803   -0.3657    0.0073 C   0  0  0  0  0  0  0  0  0  0  0  0
   -2.5981   -0.9223    0.2698 C   0  0  0  0  0  0  0  0  0  0  0  0
    2.7932    0.6404   -0.1077 C   0  0  0  0  0  0  0  0  0  0  0  0
    1.3913    0.6020   -0.2979 C   0  0  0  0  0  0  0  0  0  0  0  0
   -3.3235   -2.0796    0.1043 C   0  0  0  0  0  0  0  0  0  0  0  0
    3.5158   -0.5635   -0.0801 C   0  0  0  0  0  0  0  0  0  0  0  0
    0.7534   -0.6393   -0.4548 C   0  0  0  0  0  0  0  0  0  0  0  0
    2.8656   -1.7877   -0.2378 C   0  0  0  0  0  0  0  0  0  0  0  0
   -3.3688    1.5695    0.3111 C   0  0  0  0  0  0  0  0  0  0  0  0
    1.4870   -1.8256   -0.4248 C   0  0  0  0  0  0  0  0  0  0  0  0
   -5.9265    0.4298   -0.1014 C   0  0  0  0  0  0  0  0  0  0  0  0
    3.4313    1.8817    0.0493 C   0  0  0  0  0  0  0  0  0  0  0  0
    0.6687    1.8059   -0.3254 C   0  0  0  0  0  0  0  0  0  0  0  0
   -2.9004   -3.4928    0.0794 C   0  0  0  0  0  0  0  0  0  0  0  0
   -4.5066    2.3776    0.2043 C   0  0  0  0  0  0  0  0  0  0  0  0
   -5.7647    1.8144    0.0012 C   0  0  0  0  0  0  0  0  0  0  0  0
    2.6976    3.0680    0.0193 C   0  0  0  0  0  0  0  0  0  0  0  0
    1.3189    3.0302   -0.1677 C   0  0  0  0  0  0  0  0  0  0  0  0
   -5.3987   -2.3853   -0.1944 H   0  0  0  0  0  0  0  0  0  0  0  0
    3.3960   -2.7348   -0.2181 H   0  0  0  0  0  0  0  0  0  0  0  0
   -2.4021    2.0280    0.4875 H   0  0  0  0  0  0  0  0  0  0  0  0
    0.9915   -2.7856   -0.5466 H   0  0  0  0  0  0  0  0  0  0  0  0
   -6.9066   -0.0077   -0.2593 H   0  0  0  0  0  0  0  0  0  0  0  0
    4.4895    1.9955    0.2478 H   0  0  0  0  0  0  0  0  0  0  0  0
   -0.4028    1.8204   -0.4930 H   0  0  0  0  0  0  0  0  0  0  0  0
   -3.6109   -4.1274    0.6196 H   0  0  0  0  0  0  0  0  0  0  0  0
   -2.8341   -3.8527   -0.9523 H   0  0  0  0  0  0  0  0  0  0  0  0
   -1.9191   -3.6227    0.5470 H   0  0  0  0  0  0  0  0  0  0  0  0
   -4.4064    3.4568    0.2853 H   0  0  0  0  0  0  0  0  0  0  0  0
   -6.6351    2.4607   -0.0779 H   0  0  0  0  0  0  0  0  0  0  0  0
    3.2007    4.0215    0.1517 H   0  0  0  0  0  0  0  0  0  0  0  0
    0.7488    3.9543   -0.1939 H   0  0  0  0  0  0  0  0  0  0  0  0
    6.4288   -0.0561    1.9707 H   0  0  0  0  0  0  0  0  0  0  0  0
  1  2  1  0  0  0  0
  1  3  2  0  0  0  0
  1  4  2  0  0  0  0
  1 14  1  0  0  0  0
  2 41  1  0  0  0  0
  5  9  1  0  0  0  0
  5 13  1  0  0  0  0
  5 27  1  0  0  0  0
  6  7  2  0  0  0  0
  6 10  1  0  0  0  0
  7 15  1  0  0  0  0
  8  9  1  0  0  0  0
  8 10  1  0  0  0  0
  8 17  2  0  0  0  0
  9 19  2  0  0  0  0
 10 13  2  0  0  0  0
 11 12  1  0  0  0  0
 11 14  1  0  0  0  0
 11 20  2  0  0  0  0
 12 15  1  0  0  0  0
 12 21  2  0  0  0  0
 13 22  1  0  0  0  0
 14 16  2  0  0  0  0
 15 18  2  0  0  0  0
 16 18  1  0  0  0  0
 16 28  1  0  0  0  0
 17 23  1  0  0  0  0
 17 29  1  0  0  0  0
 18 30  1  0  0  0  0
 19 24  1  0  0  0  0
 19 31  1  0  0  0  0
 20 25  1  0  0  0  0
 20 32  1  0  0  0  0
 21 26  1  0  0  0  0
 21 33  1  0  0  0  0
 22 34  1  0  0  0  0
 22 35  1  0  0  0  0
 22 36  1  0  0  0  0
 23 24  2  0  0  0  0
 23 37  1  0  0  0  0
 24 38  1  0  0  0  0
 25 26  2  0  0  0  0
 25 39  1  0  0  0  0
 26 40  1  0  0  0  0
M  END
> <PUBCHEM_COMPOUND_CID>
135645809

> <PUBCHEM_CONFORMER_RMSD>
0.6

> <PUBCHEM_CONFORMER_DIVERSEORDER>
1
3
19
6
14
11
4
9
10
5
15
7
18
2
13
17
8
16
12

> <PUBCHEM_MMFF94_PARTIAL_CHARGES>
35
1 1.49
10 0.12
13 -0.33
14 -0.01
15 0.18
16 -0.15
17 -0.15
18 -0.15
19 -0.15
2 -0.68
20 -0.15
21 -0.15
22 0.18
23 -0.15
24 -0.15
25 -0.15
26 -0.15
27 0.27
28 0.15
29 0.15
3 -0.65
30 0.15
31 0.15
32 0.15
33 0.15
37 0.15
38 0.15
39 0.15
4 -0.65
40 0.15
41 0.5
5 0.03
6 -0.12
7 -0.18
9 -0.15

> <PUBCHEM_EFFECTIVE_ROTOR_COUNT>
3

> <PUBCHEM_PHARMACOPHORE_FEATURES>
10
1 2 acceptor
1 3 acceptor
1 4 acceptor
1 5 cation
1 5 donor
4 1 2 3 4 anion
5 5 8 9 10 13 rings
6 11 12 14 15 16 18 rings
6 11 12 20 21 25 26 rings
6 8 9 17 19 23 24 rings

> <PUBCHEM_HEAVY_ATOM_COUNT>
26

> <PUBCHEM_ATOM_DEF_STEREO_COUNT>
0

> <PUBCHEM_ATOM_UDEF_STEREO_COUNT>
0

> <PUBCHEM_BOND_DEF_STEREO_COUNT>
0

> <PUBCHEM_BOND_UDEF_STEREO_COUNT>
0

> <PUBCHEM_ISOTOPIC_ATOM_COUNT>
0

> <PUBCHEM_COMPONENT_COUNT>
1

> <PUBCHEM_CACTVS_TAUTO_COUNT>
-1

> <PUBCHEM_CONFORMER_ID>
0815CA7100000001

> <PUBCHEM_MMFF94_ENERGY>
65.2063

> <PUBCHEM_FEATURE_SELFOVERLAP>
50.92

> <PUBCHEM_SHAPE_FINGERPRINT>
10906281 52 18263383446379277790
11405975 8 18335702784018935099
12107183 9 18336825273552751505
12166972 35 18202282511107863409
12403260 363 18339076107336599783
12507557 5 18412546505181035225
12596602 18 14201414776165846845
12633257 1 18334008380697294449
13140716 1 18411412943037088952
13402501 40 18336827494256954869
14341114 176 18337396031994216705
14466204 15 18337106774283460920
14790565 3 17759529159413451316
15183329 4 18409168800791175465
15196674 1 18410857702407448213
15238133 3 18335711494170374660
1601671 61 18412266112646814004
16087824 20 18193841435877598005
17492 89 18192997238722826171
17844677 252 18338243772713012691
1813 80 17167583774037508076
18681886 176 18201152234871835002
20715895 44 18269837524116694593
20739085 24 18260829345366882260
21033648 144 18336817693315730637
21033648 29 17631715132623702922
21065198 57 18337674225568583367
21133410 127 17898000476989702469
21133410 171 17331623336649172911
21267235 1 18410865368813184815
21279426 13 18337955580439048060
21298829 104 18198626523930882209
21315763 129 18411699915487419087
21421861 104 17751071415134262818
21521721 280 7997670026985510718
21709351 56 18341890818248489047
21859007 373 17823400614430320725
22393880 68 18269569392848888516
23227448 37 18412828019171037439
23558518 356 17971197168988073139
23559900 14 18341327868400536513
24771293 8 18200016483011771808
3004659 81 18114186307344459718
335352 9 18410576162805469677
3411729 13 18264766748414982856
350125 39 18410014355487584533
3545911 37 18412547604824427733
3680242 22 18188770535657686610
4015057 19 18341321297612295765
4017518 198 17275107202726446502
4073 2 18041566952674313178
4144715 1 18336838553613320675
4214541 1 18410576193281580007
5104073 3 18337957904010970385
59755656 215 18341056199103532478
6328613 192 18261402169386794044
653340 110 18052253994911141048
67856867 119 18341327902691826345
9709674 26 18339368564739936543
9981440 41 17543069438449031017

> <PUBCHEM_SHAPE_MULTIPOLES>
506.37
14.2
3.41
0.76
1.08
0.36
-0.12
0.05
-1.31
0.95
0.04
-0.54
-0.02
-0.13

> <PUBCHEM_SHAPE_SELFOVERLAP>
1122.527

> <PUBCHEM_SHAPE_VOLUME>
272.3

> <PUBCHEM_COORDINATE_TYPE>
2
5
10

$$$$
