135666519
  -OEChem-03292013293D

 34 35  0     0  0  0  0  0  0999 V2000
   -1.0283   -3.7107   -0.0003 S   0  0  0  0  0  0  0  0  0  0  0  0
    5.8857   -1.2154   -0.0006 O   0  0  0  0  0  0  0  0  0  0  0  0
    1.7489   -0.9510    0.0009 N   0  0  0  0  0  0  0  0  0  0  0  0
   -4.9804   -0.4526   -0.0009 N   0  0  0  0  0  0  0  0  0  0  0  0
    1.1067   -2.1439    0.0005 N   0  0  0  0  0  0  0  0  0  0  0  0
   -0.9186   -0.9863    0.0012 N   0  0  0  0  0  0  0  0  0  0  0  0
   -2.2702   -0.8957    0.0014 N   0  0  0  0  0  0  0  0  0  0  0  0
    3.9078    0.1419   -0.0011 C   0  0  0  0  0  0  0  0  0  0  0  0
    5.2967    0.0137   -0.0017 C   0  0  0  0  0  0  0  0  0  0  0  0
    3.3243    1.4088    0.0003 C   0  0  0  0  0  0  0  0  0  0  0  0
    6.1022    1.1525   -0.0009 C   0  0  0  0  0  0  0  0  0  0  0  0
    4.1298    2.5477    0.0011 C   0  0  0  0  0  0  0  0  0  0  0  0
    5.5188    2.4195    0.0004 C   0  0  0  0  0  0  0  0  0  0  0  0
    3.0385   -1.0477   -0.0002 C   0  0  0  0  0  0  0  0  0  0  0  0
   -4.1574    0.6200    0.0006 C   0  0  0  0  0  0  0  0  0  0  0  0
   -4.5958    1.9343    0.0008 C   0  0  0  0  0  0  0  0  0  0  0  0
   -5.9674    2.1626   -0.0003 C   0  0  0  0  0  0  0  0  0  0  0  0
   -6.8460    1.0848   -0.0015 C   0  0  0  0  0  0  0  0  0  0  0  0
   -2.7151    0.3188    0.0017 C   0  0  0  0  0  0  0  0  0  0  0  0
   -6.3068   -0.1915   -0.0019 C   0  0  0  0  0  0  0  0  0  0  0  0
   -0.2733   -2.2097    0.0006 C   0  0  0  0  0  0  0  0  0  0  0  0
    2.2457    1.5420    0.0010 H   0  0  0  0  0  0  0  0  0  0  0  0
    7.1856    1.0678   -0.0010 H   0  0  0  0  0  0  0  0  0  0  0  0
    3.6758    3.5344    0.0022 H   0  0  0  0  0  0  0  0  0  0  0  0
    6.1458    3.3063    0.0011 H   0  0  0  0  0  0  0  0  0  0  0  0
    3.5390   -2.0332   -0.0010 H   0  0  0  0  0  0  0  0  0  0  0  0
   -3.9033    2.7693    0.0018 H   0  0  0  0  0  0  0  0  0  0  0  0
   -6.3511    3.1784   -0.0001 H   0  0  0  0  0  0  0  0  0  0  0  0
   -7.9190    1.2390   -0.0022 H   0  0  0  0  0  0  0  0  0  0  0  0
   -2.0336    1.1900    0.0023 H   0  0  0  0  0  0  0  0  0  0  0  0
   -6.9492   -1.0659   -0.0030 H   0  0  0  0  0  0  0  0  0  0  0  0
    6.8519   -1.1047   -0.0006 H   0  0  0  0  0  0  0  0  0  0  0  0
    1.6684   -2.9897   -0.0001 H   0  0  0  0  0  0  0  0  0  0  0  0
   -0.3854   -0.1222    0.0015 H   0  0  0  0  0  0  0  0  0  0  0  0
  1 21  2  0  0  0  0
  2  9  1  0  0  0  0
  2 32  1  0  0  0  0
  3  5  1  0  0  0  0
  3 14  2  0  0  0  0
  4 15  1  0  0  0  0
  4 20  2  0  0  0  0
  5 21  1  0  0  0  0
  5 33  1  0  0  0  0
  6  7  1  0  0  0  0
  6 21  1  0  0  0  0
  6 34  1  0  0  0  0
  7 19  2  0  0  0  0
  8  9  1  0  0  0  0
  8 10  2  0  0  0  0
  8 14  1  0  0  0  0
  9 11  2  0  0  0  0
 10 12  1  0  0  0  0
 10 22  1  0  0  0  0
 11 13  1  0  0  0  0
 11 23  1  0  0  0  0
 12 13  2  0  0  0  0
 12 24  1  0  0  0  0
 13 25  1  0  0  0  0
 14 26  1  0  0  0  0
 15 16  2  0  0  0  0
 15 19  1  0  0  0  0
 16 17  1  0  0  0  0
 16 27  1  0  0  0  0
 17 18  2  0  0  0  0
 17 28  1  0  0  0  0
 18 20  1  0  0  0  0
 18 29  1  0  0  0  0
 19 30  1  0  0  0  0
 20 31  1  0  0  0  0
M  END
> <PUBCHEM_COMPOUND_CID>
135666519

> <PUBCHEM_CONFORMER_RMSD>
0.8

> <PUBCHEM_CONFORMER_DIVERSEORDER>
1
143
121
61
138
22
75
182
181
59
108
81
99
151
7
127
71
105
32
140
78
130
164
119
89
72
147
64
26
183
148
167
82
106
163
16
27
79
149
179
118
120
47
170
165
125
122
46
23
176
141
21
103
88
114
77
145
168
98
166
155
150
74
160
109
83
65
116
101
73
126
134
30
35
178
96
33
162
37
55
132
137
102
93
44
175
180
40
52
50
128
29
17
92
129
53
36
95
90
43
173
112
144
10
80
18
139
156
161
62
11
66
124
104
158
131
70
9
100
169
54
171
45
115
113
67
117
12
177
91
136
123
13
39
153
133
58
154
19
157
51
174
135
42
142
60
159
86
76
97
38
57
68
48
34
85
107
110
111
69
41
63
31
172
146
25
56
184
87
49
94
152
84
15
2
3
28
20
6
24
5
14
8
4

> <PUBCHEM_MMFF94_PARTIAL_CHARGES>
34
1 -0.38
10 -0.15
11 -0.15
12 -0.15
13 -0.15
14 0.3
15 0.4
16 -0.15
17 -0.15
18 -0.15
19 0.3
2 -0.53
20 0.16
21 0.5
22 0.15
23 0.15
24 0.15
25 0.15
26 0.06
27 0.15
28 0.15
29 0.15
3 -0.51
30 0.06
31 0.15
32 0.45
33 0.37
34 0.37
4 -0.62
5 -0.37
6 -0.37
7 -0.51
8 0.09
9 0.08

> <PUBCHEM_EFFECTIVE_ROTOR_COUNT>
6

> <PUBCHEM_PHARMACOPHORE_FEATURES>
9
1 1 acceptor
1 2 donor
1 3 acceptor
1 4 acceptor
1 5 donor
1 6 donor
1 7 acceptor
6 4 15 16 17 18 20 rings
6 8 9 10 11 12 13 rings

> <PUBCHEM_HEAVY_ATOM_COUNT>
21

> <PUBCHEM_ATOM_DEF_STEREO_COUNT>
0

> <PUBCHEM_ATOM_UDEF_STEREO_COUNT>
0

> <PUBCHEM_BOND_DEF_STEREO_COUNT>
2

> <PUBCHEM_BOND_UDEF_STEREO_COUNT>
0

> <PUBCHEM_ISOTOPIC_ATOM_COUNT>
0

> <PUBCHEM_COMPONENT_COUNT>
1

> <PUBCHEM_CACTVS_TAUTO_COUNT>
-1

> <PUBCHEM_CONFORMER_ID>
08161B5700000001

> <PUBCHEM_MMFF94_ENERGY>
53.2392

> <PUBCHEM_FEATURE_SELFOVERLAP>
45.722

> <PUBCHEM_SHAPE_FINGERPRINT>
10050765 1 18410573993774359442
10411042 1 17762056541656494178
10835480 77 18190737541276426725
12107183 9 18335691712311106346
13167372 99 18411981334534531440
13402501 40 18409166610316039805
13785724 45 17833545692192947682
14257110 125 18409448093855648621
14528608 73 18412544289104452607
14933364 13 18410295804747173777
15183329 4 18272938206424713520
15322687 12 18271522082713851608
15419008 145 18116420463348727392
17810953 82 18335424577781622012
18335252 114 18340197497190197684
19611394 137 17969798547817270267
20157964 124 18343304747479164310
20281389 69 18260828180876473341
20715895 44 18412826885078229040
23272321 79 18410855465135331103
245318 6 17896337971867182701
2838139 119 18411133636649227567
335352 9 18411140221804848262
3472631 163 18342740736404823854
34797466 226 18059581244189018119
4073 2 17968663829910110362
4325135 7 18343579643119579935
465052 167 10665229241748946200
5104073 3 18042393798709367858
54446538 1 18412824668411055865
59682541 35 18187939395873485731
59682541 52 17131564838453347036
5969126 39 18125156289527377479
59755656 520 18334289877128437919
7808743 9 18410569630287040155

> <PUBCHEM_SHAPE_MULTIPOLES>
405.25
19.34
3.38
0.6
7.57
1.88
0
-13.94
-0.01
-0.45
0
0.01
-0.01
0

> <PUBCHEM_SHAPE_SELFOVERLAP>
844.142

> <PUBCHEM_SHAPE_VOLUME>
231.2

> <PUBCHEM_COORDINATE_TYPE>
2
5
10

$$$$
