135625260
  -OEChem-03292013293D

 39 41  0     1  0  0  0  0  0999 V2000
    4.7906   -1.3013   -1.6191 O   0  0  0  0  0  0  0  0  0  0  0  0
   -4.8582    0.9325    0.5085 O   0  0  0  0  0  0  0  0  0  0  0  0
   -0.5406    0.8315   -0.8191 N   0  0  0  0  0  0  0  0  0  0  0  0
   -2.3232    2.1353   -0.4669 N   0  0  0  0  0  0  0  0  0  0  0  0
   -1.4419   -1.3290   -0.2031 N   0  0  0  0  0  0  0  0  0  0  0  0
   -3.7296   -1.1116    0.4749 N   0  0  0  0  0  0  0  0  0  0  0  0
   -2.6706   -3.2145    0.4717 N   0  0  0  0  0  0  0  0  0  0  0  0
    1.7182    0.1800    0.0432 C   0  0  1  0  0  0  0  0  0  0  0  0
    2.9110   -0.7663   -0.2388 C   0  0  2  0  0  0  0  0  0  0  0  0
    2.1688    1.5055    0.6770 C   0  0  0  0  0  0  0  0  0  0  0  0
    3.7397   -0.9673    1.0425 C   0  0  0  0  0  0  0  0  0  0  0  0
    3.0041    1.2766    1.9339 C   0  0  0  0  0  0  0  0  0  0  0  0
    4.1860    0.3490    1.6749 C   0  0  0  0  0  0  0  0  0  0  0  0
    0.8604    0.4433   -1.1952 C   0  0  0  0  0  0  0  0  0  0  0  0
    3.8042   -0.3112   -1.3995 C   0  0  0  0  0  0  0  0  0  0  0  0
   -1.5352    0.0073   -0.3816 C   0  0  0  0  0  0  0  0  0  0  0  0
   -1.0631    2.1012   -0.8538 C   0  0  0  0  0  0  0  0  0  0  0  0
   -2.6123    0.8349   -0.1750 C   0  0  0  0  0  0  0  0  0  0  0  0
   -3.8480    0.2738    0.2966 C   0  0  0  0  0  0  0  0  0  0  0  0
   -2.5604   -1.8699    0.2289 C   0  0  0  0  0  0  0  0  0  0  0  0
    1.0970   -0.3320    0.7925 H   0  0  0  0  0  0  0  0  0  0  0  0
    2.5076   -1.7525   -0.5091 H   0  0  0  0  0  0  0  0  0  0  0  0
    1.2994    2.1154    0.9472 H   0  0  0  0  0  0  0  0  0  0  0  0
    2.7514    2.0923   -0.0437 H   0  0  0  0  0  0  0  0  0  0  0  0
    4.6149   -1.5996    0.8550 H   0  0  0  0  0  0  0  0  0  0  0  0
    3.1262   -1.5127    1.7721 H   0  0  0  0  0  0  0  0  0  0  0  0
    2.3687    0.8443    2.7169 H   0  0  0  0  0  0  0  0  0  0  0  0
    3.3669    2.2378    2.3154 H   0  0  0  0  0  0  0  0  0  0  0  0
    4.9146    0.8506    1.0279 H   0  0  0  0  0  0  0  0  0  0  0  0
    4.6994    0.1423    2.6211 H   0  0  0  0  0  0  0  0  0  0  0  0
    0.7424   -0.4559   -1.8110 H   0  0  0  0  0  0  0  0  0  0  0  0
    1.2495    1.2511   -1.8246 H   0  0  0  0  0  0  0  0  0  0  0  0
    4.3001    0.6418   -1.1956 H   0  0  0  0  0  0  0  0  0  0  0  0
    3.2264   -0.2079   -2.3227 H   0  0  0  0  0  0  0  0  0  0  0  0
   -0.4791    2.9558   -1.1672 H   0  0  0  0  0  0  0  0  0  0  0  0
    5.3426   -0.9979   -2.3599 H   0  0  0  0  0  0  0  0  0  0  0  0
   -4.5495   -1.6108    0.8075 H   0  0  0  0  0  0  0  0  0  0  0  0
   -1.8863   -3.8404    0.3249 H   0  0  0  0  0  0  0  0  0  0  0  0
   -3.5372   -3.6226    0.8047 H   0  0  0  0  0  0  0  0  0  0  0  0
  1 15  1  0  0  0  0
  1 36  1  0  0  0  0
  2 19  2  0  0  0  0
  3 14  1  0  0  0  0
  3 16  1  0  0  0  0
  3 17  1  0  0  0  0
  4 17  2  0  0  0  0
  4 18  1  0  0  0  0
  5 16  1  0  0  0  0
  5 20  2  0  0  0  0
  6 19  1  0  0  0  0
  6 20  1  0  0  0  0
  6 37  1  0  0  0  0
  7 20  1  0  0  0  0
  7 38  1  0  0  0  0
  7 39  1  0  0  0  0
  8  9  1  0  0  0  0
  8 10  1  0  0  0  0
  8 14  1  0  0  0  0
  8 21  1  0  0  0  0
  9 11  1  0  0  0  0
  9 15  1  0  0  0  0
  9 22  1  0  0  0  0
 10 12  1  0  0  0  0
 10 23  1  0  0  0  0
 10 24  1  0  0  0  0
 11 13  1  0  0  0  0
 11 25  1  0  0  0  0
 11 26  1  0  0  0  0
 12 13  1  0  0  0  0
 12 27  1  0  0  0  0
 12 28  1  0  0  0  0
 13 29  1  0  0  0  0
 13 30  1  0  0  0  0
 14 31  1  0  0  0  0
 14 32  1  0  0  0  0
 15 33  1  0  0  0  0
 15 34  1  0  0  0  0
 16 18  2  0  0  0  0
 17 35  1  0  0  0  0
 18 19  1  0  0  0  0
M  END
> <PUBCHEM_COMPOUND_CID>
135625260

> <PUBCHEM_CONFORMER_RMSD>
0.6

> <PUBCHEM_CONFORMER_DIVERSEORDER>
1
97
41
94
83
22
55
91
69
59
80
52
35
102
12
96
32
88
85
98
77
61
50
57
45
90
14
26
75
36
79
100
10
9
99
86
46
56
62
39
29
63
89
78
23
82
73
15
25
67
87
70
51
92
44
43
84
101
33
16
64
31
2
76
71
40
38
27
28
5
53
34
37
74
58
7
13
42
81
47
11
19
66
95
24
72
4
60
20
93
65
30
54
68
21
8
18
17
6
48
3
49

> <PUBCHEM_MMFF94_PARTIAL_CHARGES>
19
1 -0.68
14 0.26
15 0.28
16 -0.03
17 0.04
18 0.14
19 0.72
2 -0.57
20 0.56
3 0.05
35 0.15
36 0.4
37 0.37
38 0.4
39 0.4
4 -0.57
5 -0.58
6 -0.49
7 -0.85

> <PUBCHEM_EFFECTIVE_ROTOR_COUNT>
4.2

> <PUBCHEM_PHARMACOPHORE_FEATURES>
9
1 1 acceptor
1 1 donor
1 2 acceptor
1 6 donor
1 7 donor
3 3 4 17 cation
5 3 4 16 17 18 rings
6 5 6 16 18 19 20 rings
6 8 9 10 11 12 13 rings

> <PUBCHEM_HEAVY_ATOM_COUNT>
20

> <PUBCHEM_ATOM_DEF_STEREO_COUNT>
1

> <PUBCHEM_ATOM_UDEF_STEREO_COUNT>
1

> <PUBCHEM_BOND_DEF_STEREO_COUNT>
0

> <PUBCHEM_BOND_UDEF_STEREO_COUNT>
0

> <PUBCHEM_ISOTOPIC_ATOM_COUNT>
0

> <PUBCHEM_COMPONENT_COUNT>
1

> <PUBCHEM_CACTVS_TAUTO_COUNT>
-1

> <PUBCHEM_CONFORMER_ID>
08157A2C00000001

> <PUBCHEM_MMFF94_ENERGY>
36.3151

> <PUBCHEM_FEATURE_SELFOVERLAP>
45.85

> <PUBCHEM_SHAPE_FINGERPRINT>
10366900 7 18272650125629552302
10369192 42 17841706607266027224
11132069 177 18410289224962641473
11370993 144 17918281934591634139
11552529 35 17273698860794521583
11640471 11 14189567568172162688
12236239 1 17095531664588524684
12251169 10 18409721872304056728
12507560 40 17988645241356525314
12553582 1 18113619001518818215
12633257 1 18342453725083289442
12670545 47 18343581845541010172
13140716 1 18335980982035663185
13544592 145 18271811189630759503
14081887 123 18338222834399142523
14289901 80 17274254079626941995
15527383 91 16558748976113040726
15653759 3 18412821369965817368
16752209 62 17895741929554105325
17804303 29 18411143523742953783
1813 80 17385720339621471909
19049666 15 18057038008821024596
19422 9 17168428138833082340
200 152 14634863120211688304
20281475 54 18113894953447290814
20361792 2 16298375868726461884
20645477 70 16988841645030629844
21065199 12 18201996685281360722
21650355 55 18335409206088290577
22646028 28 16877936118665421632
23175994 123 17345767278476543924
23366157 5 17606969674506383365
23557571 272 18340483494788466242
23559900 14 18412271644401375700
23598288 3 16516798144478124044
23598291 2 16589151511597211060
2838139 119 15625106309496905465
474 4 14836397051947533972
49207404 50 17987509476257970216
58807428 26 18335707083882578859
602551 16 18335135401944133394
6049 1 18273495676268571804
90316 7 18187077352270684437
9709674 26 18272082837732924462
9981440 41 12891635881936878838

> <PUBCHEM_SHAPE_MULTIPOLES>
374.95
9.28
2.26
1.44
1.04
0.88
-0.09
1.8
-1.57
-1.89
-0.13
2.13
-0.16
1.42

> <PUBCHEM_SHAPE_SELFOVERLAP>
798.763

> <PUBCHEM_SHAPE_VOLUME>
206.3

> <PUBCHEM_COORDINATE_TYPE>
2
5
10

$$$$
