135625251
  -OEChem-03292013293D

 32 34  0     1  0  0  0  0  0999 V2000
    1.2888    2.4039   -0.7046 F   0  0  0  0  0  0  0  0  0  0  0  0
    2.1654   -0.5782    0.8417 O   0  0  0  0  0  0  0  0  0  0  0  0
    3.9397    1.2218   -1.7079 O   0  0  0  0  0  0  0  0  0  0  0  0
    4.6190   -1.8727    1.3711 O   0  0  0  0  0  0  0  0  0  0  0  0
   -4.3705   -1.8045   -0.7070 O   0  0  0  0  0  0  0  0  0  0  0  0
   -0.1258   -0.4408    0.0263 N   0  0  0  0  0  0  0  0  0  0  0  0
   -1.4158   -2.1101   -0.7161 N   0  0  0  0  0  0  0  0  0  0  0  0
   -1.8115    1.1870    0.6328 N   0  0  0  0  0  0  0  0  0  0  0  0
   -4.0005    0.3209    0.1872 N   0  0  0  0  0  0  0  0  0  0  0  0
   -3.7211    2.4770    1.0910 N   0  0  0  0  0  0  0  0  0  0  0  0
    1.1275    0.3167    0.3902 C   0  0  2  0  0  0  0  0  0  0  0  0
    3.1879    1.0402   -0.5242 C   0  0  1  0  0  0  0  0  0  0  0  0
    1.7002    1.1137   -0.7749 C   0  0  2  0  0  0  0  0  0  0  0  0
    3.3363   -0.3612    0.0386 C   0  0  1  0  0  0  0  0  0  0  0  0
    4.5813   -0.5398    0.8879 C   0  0  0  0  0  0  0  0  0  0  0  0
   -1.4143   -0.0121    0.1524 C   0  0  0  0  0  0  0  0  0  0  0  0
   -0.1785   -1.7083   -0.5004 C   0  0  0  0  0  0  0  0  0  0  0  0
   -2.1790   -1.0556   -0.3100 C   0  0  0  0  0  0  0  0  0  0  0  0
   -3.6101   -0.9287   -0.3144 C   0  0  0  0  0  0  0  0  0  0  0  0
   -3.1191    1.3308    0.6403 C   0  0  0  0  0  0  0  0  0  0  0  0
    0.8481    0.9590    1.2330 H   0  0  0  0  0  0  0  0  0  0  0  0
    3.4872    1.8087    0.1977 H   0  0  0  0  0  0  0  0  0  0  0  0
    1.4167    0.7195   -1.7566 H   0  0  0  0  0  0  0  0  0  0  0  0
    3.3282   -1.1180   -0.7564 H   0  0  0  0  0  0  0  0  0  0  0  0
    4.5619    0.1270    1.7563 H   0  0  0  0  0  0  0  0  0  0  0  0
    5.4875   -0.3499    0.3046 H   0  0  0  0  0  0  0  0  0  0  0  0
    0.7115   -2.2862   -0.7086 H   0  0  0  0  0  0  0  0  0  0  0  0
    3.6677    0.5430   -2.3487 H   0  0  0  0  0  0  0  0  0  0  0  0
    5.4236   -1.9592    1.9103 H   0  0  0  0  0  0  0  0  0  0  0  0
   -4.9966    0.5164    0.2285 H   0  0  0  0  0  0  0  0  0  0  0  0
   -3.1727    3.2572    1.4359 H   0  0  0  0  0  0  0  0  0  0  0  0
   -4.7301    2.5788    1.0931 H   0  0  0  0  0  0  0  0  0  0  0  0
  1 13  1  0  0  0  0
  2 11  1  0  0  0  0
  2 14  1  0  0  0  0
  3 12  1  0  0  0  0
  3 28  1  0  0  0  0
  4 15  1  0  0  0  0
  4 29  1  0  0  0  0
  5 19  2  0  0  0  0
  6 11  1  0  0  0  0
  6 16  1  0  0  0  0
  6 17  1  0  0  0  0
  7 17  2  0  0  0  0
  7 18  1  0  0  0  0
  8 16  1  0  0  0  0
  8 20  2  0  0  0  0
  9 19  1  0  0  0  0
  9 20  1  0  0  0  0
  9 30  1  0  0  0  0
 10 20  1  0  0  0  0
 10 31  1  0  0  0  0
 10 32  1  0  0  0  0
 11 13  1  0  0  0  0
 11 21  1  0  0  0  0
 12 13  1  0  0  0  0
 12 14  1  0  0  0  0
 12 22  1  0  0  0  0
 13 23  1  0  0  0  0
 14 15  1  0  0  0  0
 14 24  1  0  0  0  0
 15 25  1  0  0  0  0
 15 26  1  0  0  0  0
 16 18  2  0  0  0  0
 17 27  1  0  0  0  0
 18 19  1  0  0  0  0
M  END
> <PUBCHEM_COMPOUND_CID>
135625251

> <PUBCHEM_CONFORMER_RMSD>
0.6

> <PUBCHEM_CONFORMER_DIVERSEORDER>
1
26
12
28
16
19
23
10
21
13
8
30
27
9
4
6
24
2
17
20
25
18
29
3
14
5
22
7
15
31
11

> <PUBCHEM_MMFF94_PARTIAL_CHARGES>
26
1 -0.34
10 -0.85
11 0.54
12 0.28
13 0.34
14 0.28
15 0.28
16 -0.03
17 0.04
18 0.14
19 0.72
2 -0.56
20 0.56
27 0.15
28 0.4
29 0.4
3 -0.68
30 0.37
31 0.4
32 0.4
4 -0.68
5 -0.57
6 0.05
7 -0.57
8 -0.58
9 -0.49

> <PUBCHEM_EFFECTIVE_ROTOR_COUNT>
3

> <PUBCHEM_PHARMACOPHORE_FEATURES>
12
1 10 donor
1 2 acceptor
1 3 acceptor
1 3 donor
1 4 acceptor
1 4 donor
1 5 acceptor
1 9 donor
3 6 7 17 cation
5 2 11 12 13 14 rings
5 6 7 16 17 18 rings
6 8 9 16 18 19 20 rings

> <PUBCHEM_HEAVY_ATOM_COUNT>
20

> <PUBCHEM_ATOM_DEF_STEREO_COUNT>
3

> <PUBCHEM_ATOM_UDEF_STEREO_COUNT>
1

> <PUBCHEM_BOND_DEF_STEREO_COUNT>
0

> <PUBCHEM_BOND_UDEF_STEREO_COUNT>
0

> <PUBCHEM_ISOTOPIC_ATOM_COUNT>
0

> <PUBCHEM_COMPONENT_COUNT>
1

> <PUBCHEM_CACTVS_TAUTO_COUNT>
-1

> <PUBCHEM_CONFORMER_ID>
08157A2300000001

> <PUBCHEM_MMFF94_ENERGY>
43.3388

> <PUBCHEM_FEATURE_SELFOVERLAP>
61.079

> <PUBCHEM_SHAPE_FINGERPRINT>
10062212 137 18411696573939344971
11578080 2 18046875351668961212
12107183 9 17978789013351872626
12236239 1 18334572447257758426
12403260 363 18271517676261638309
12670546 56 18411692214552664848
13583140 156 17531533058256287073
13760787 5 17676492739570021876
13862211 1 18129372869385509023
14739800 52 18128807737520207880
15042514 8 18200308969910524783
15442244 35 18409165511109866860
16752209 62 18273212023653797271
16945 1 18202002187604146855
17862501 102 18411694396338269227
1813 80 17677333784841375126
19078846 21 18409732850699375204
192875 21 18340194280554936061
19422 9 18333169479195377514
200 152 18336818784279432823
20510252 161 17917435362605135193
20612939 158 17676208005119224806
20645477 70 17313094276866269842
21267235 1 18410860975019644418
23175994 123 15936695882440410781
23366157 5 18192722133114238719
23402539 116 18131057260720942999
23463225 33 18408601435906753454
23532345 12 18410005533629870786
23557571 272 17203338826651712797
23559900 14 17560530517091285092
23598291 2 18333169462010123024
2748010 2 17401777319908184253
2838139 119 17532355484474965813
312423 11 18260835916191681730
5104073 3 18410856576825012400
573450 72 18341607096866699834
633830 44 17968109585443771986
6992083 37 18408044000327356468
7064713 232 18199748046542928560
74978 22 18265336286082585156
77492 1 18334295378970247376
9862522 239 18120927318017865581
9981440 41 17325765280698549576

> <PUBCHEM_SHAPE_MULTIPOLES>
355.93
9.07
2.23
1.08
2.34
0.35
-0.05
-0.69
1.24
-1.15
-0.06
0.9
0.13
-2.32

> <PUBCHEM_SHAPE_SELFOVERLAP>
774.162

> <PUBCHEM_SHAPE_VOLUME>
195.6

> <PUBCHEM_COORDINATE_TYPE>
2
5
10

$$$$
