135625296
  -OEChem-03292013293D

 56 61  0     1  0  0  0  0  0999 V2000
   -3.9600   -1.7028   -0.9330 O   0  0  0  0  0  0  0  0  0  0  0  0
   -3.1360   -4.3917    0.2936 O   0  0  0  0  0  0  0  0  0  0  0  0
   -6.7463   -1.4936   -0.8255 O   0  0  0  0  0  0  0  0  0  0  0  0
   -2.3243    4.4369    0.1910 O   0  0  0  0  0  0  0  0  0  0  0  0
   -2.3402   -0.0719   -0.1005 N   0  0  0  0  0  0  0  0  0  0  0  0
   -1.0571    1.7551    0.0307 N   0  0  0  0  0  0  0  0  0  0  0  0
    0.0325   -0.4421   -0.1005 N   0  0  0  0  0  0  0  0  0  0  0  0
   -4.5436    0.9291   -0.0582 N   0  0  0  0  0  0  0  0  0  0  0  0
   -4.3696    3.3136    0.0975 N   0  0  0  0  0  0  0  0  0  0  0  0
   -6.4756    2.2644    0.0083 N   0  0  0  0  0  0  0  0  0  0  0  0
   -2.7341   -1.5242   -0.1991 C   0  0  1  0  0  0  0  0  0  0  0  0
   -2.9488   -2.1794    1.1608 C   0  0  0  0  0  0  0  0  0  0  0  0
   -3.8956   -3.3067    0.8214 C   0  0  1  0  0  0  0  0  0  0  0  0
   -4.7622   -2.7064   -0.2780 C   0  0  1  0  0  0  0  0  0  0  0  0
   -6.0136   -2.0281    0.2630 C   0  0  0  0  0  0  0  0  0  0  0  0
   -3.1937    0.9900   -0.0405 C   0  0  0  0  0  0  0  0  0  0  0  0
   -1.0661    0.4392   -0.0544 C   0  0  0  0  0  0  0  0  0  0  0  0
   -2.3781    2.0928    0.0391 C   0  0  0  0  0  0  0  0  0  0  0  0
    1.4260   -0.2336   -0.0731 C   0  0  0  0  0  0  0  0  0  0  0  0
   -2.9704    3.3994    0.1173 C   0  0  0  0  0  0  0  0  0  0  0  0
   -5.1132    2.1127    0.0123 C   0  0  0  0  0  0  0  0  0  0  0  0
    2.2972   -1.3169   -0.1341 C   0  0  0  0  0  0  0  0  0  0  0  0
    3.6897   -1.1289   -0.1084 C   0  0  0  0  0  0  0  0  0  0  0  0
    4.2408    0.1761   -0.0193 C   0  0  0  0  0  0  0  0  0  0  0  0
    1.9378    1.0517    0.0145 C   0  0  0  0  0  0  0  0  0  0  0  0
    5.6717    0.3341    0.0047 C   0  0  0  0  0  0  0  0  0  0  0  0
    3.3205    1.2526    0.0408 C   0  0  0  0  0  0  0  0  0  0  0  0
    6.4969   -0.8190   -0.0609 C   0  0  0  0  0  0  0  0  0  0  0  0
    4.5346   -2.2398   -0.1712 C   0  0  0  0  0  0  0  0  0  0  0  0
    5.9170   -2.0872   -0.1478 C   0  0  0  0  0  0  0  0  0  0  0  0
    6.3327    1.5851    0.0911 C   0  0  0  0  0  0  0  0  0  0  0  0
    7.8969   -0.6988   -0.0394 C   0  0  0  0  0  0  0  0  0  0  0  0
    7.7260    1.6906    0.1114 C   0  0  0  0  0  0  0  0  0  0  0  0
    8.5084    0.5481    0.0464 C   0  0  0  0  0  0  0  0  0  0  0  0
   -1.9581   -2.0265   -0.7844 H   0  0  0  0  0  0  0  0  0  0  0  0
   -3.4289   -1.4817    1.8570 H   0  0  0  0  0  0  0  0  0  0  0  0
   -2.0026   -2.5101    1.6001 H   0  0  0  0  0  0  0  0  0  0  0  0
   -4.4563   -3.6753    1.6851 H   0  0  0  0  0  0  0  0  0  0  0  0
   -5.0359   -3.4419   -1.0428 H   0  0  0  0  0  0  0  0  0  0  0  0
   -5.7728   -1.2106    0.9480 H   0  0  0  0  0  0  0  0  0  0  0  0
   -6.6477   -2.7513    0.7858 H   0  0  0  0  0  0  0  0  0  0  0  0
   -3.7647   -5.0870    0.0349 H   0  0  0  0  0  0  0  0  0  0  0  0
   -0.1797   -1.4360   -0.1336 H   0  0  0  0  0  0  0  0  0  0  0  0
   -7.5398   -1.0697   -0.4565 H   0  0  0  0  0  0  0  0  0  0  0  0
   -4.8910    4.1841    0.1484 H   0  0  0  0  0  0  0  0  0  0  0  0
    1.8902   -2.3253   -0.2029 H   0  0  0  0  0  0  0  0  0  0  0  0
    1.3101    1.9333    0.0649 H   0  0  0  0  0  0  0  0  0  0  0  0
    3.6645    2.2815    0.1102 H   0  0  0  0  0  0  0  0  0  0  0  0
    4.1256   -3.2462   -0.2397 H   0  0  0  0  0  0  0  0  0  0  0  0
    6.5380   -2.9797   -0.1988 H   0  0  0  0  0  0  0  0  0  0  0  0
   -7.0926    1.4615   -0.0493 H   0  0  0  0  0  0  0  0  0  0  0  0
   -6.9061    3.1809    0.0632 H   0  0  0  0  0  0  0  0  0  0  0  0
    5.7715    2.5145    0.1449 H   0  0  0  0  0  0  0  0  0  0  0  0
    8.5289   -1.5837   -0.0897 H   0  0  0  0  0  0  0  0  0  0  0  0
    8.1943    2.6683    0.1784 H   0  0  0  0  0  0  0  0  0  0  0  0
    9.5912    0.6249    0.0620 H   0  0  0  0  0  0  0  0  0  0  0  0
  1 11  1  0  0  0  0
  1 14  1  0  0  0  0
  2 13  1  0  0  0  0
  2 42  1  0  0  0  0
  3 15  1  0  0  0  0
  3 44  1  0  0  0  0
  4 20  2  0  0  0  0
  5 11  1  0  0  0  0
  5 16  1  0  0  0  0
  5 17  1  0  0  0  0
  6 17  2  0  0  0  0
  6 18  1  0  0  0  0
  7 17  1  0  0  0  0
  7 19  1  0  0  0  0
  7 43  1  0  0  0  0
  8 16  1  0  0  0  0
  8 21  2  0  0  0  0
  9 20  1  0  0  0  0
  9 21  1  0  0  0  0
  9 45  1  0  0  0  0
 10 21  1  0  0  0  0
 10 51  1  0  0  0  0
 10 52  1  0  0  0  0
 11 12  1  0  0  0  0
 11 35  1  0  0  0  0
 12 13  1  0  0  0  0
 12 36  1  0  0  0  0
 12 37  1  0  0  0  0
 13 14  1  0  0  0  0
 13 38  1  0  0  0  0
 14 15  1  0  0  0  0
 14 39  1  0  0  0  0
 15 40  1  0  0  0  0
 15 41  1  0  0  0  0
 16 18  2  0  0  0  0
 18 20  1  0  0  0  0
 19 22  2  0  0  0  0
 19 25  1  0  0  0  0
 22 23  1  0  0  0  0
 22 46  1  0  0  0  0
 23 24  2  0  0  0  0
 23 29  1  0  0  0  0
 24 26  1  0  0  0  0
 24 27  1  0  0  0  0
 25 27  2  0  0  0  0
 25 47  1  0  0  0  0
 26 28  1  0  0  0  0
 26 31  2  0  0  0  0
 27 48  1  0  0  0  0
 28 30  1  0  0  0  0
 28 32  2  0  0  0  0
 29 30  2  0  0  0  0
 29 49  1  0  0  0  0
 30 50  1  0  0  0  0
 31 33  1  0  0  0  0
 31 53  1  0  0  0  0
 32 34  1  0  0  0  0
 32 54  1  0  0  0  0
 33 34  2  0  0  0  0
 33 55  1  0  0  0  0
 34 56  1  0  0  0  0
M  END
> <PUBCHEM_COMPOUND_CID>
135625296

> <PUBCHEM_CONFORMER_RMSD>
0.8

> <PUBCHEM_CONFORMER_DIVERSEORDER>
1
36
66
91
81
69
39
92
77
18
43
59
45
4
50
58
86
30
95
82
34
60
2
54
68
40
84
78
53
93
16
38
27
19
35
79
49
74
56
64
63
41
26
25
89
72
28
57
61
47
29
21
6
80
85
24
88
8
83
90
62
23
42
13
76
67
71
17
20
73
52
51
7
10
44
70
75
3
9
22
48
14
33
12
87
94
65
15
46
11
5
55
37
32
31

> <PUBCHEM_MMFF94_PARTIAL_CHARGES>
44
1 -0.56
10 -0.85
11 0.54
13 0.28
14 0.28
15 0.28
16 -0.03
17 0.27
18 0.14
19 0.1
2 -0.68
20 0.72
21 0.56
22 -0.15
25 -0.15
27 -0.15
29 -0.15
3 -0.68
30 -0.15
31 -0.15
32 -0.15
33 -0.15
34 -0.15
4 -0.57
42 0.4
43 0.4
44 0.4
45 0.37
46 0.15
47 0.15
48 0.15
49 0.15
5 0.05
50 0.15
51 0.4
52 0.4
53 0.15
54 0.15
55 0.15
56 0.15
6 -0.57
7 -0.58
8 -0.58
9 -0.49

> <PUBCHEM_EFFECTIVE_ROTOR_COUNT>
5

> <PUBCHEM_PHARMACOPHORE_FEATURES>
16
1 1 acceptor
1 10 donor
1 2 acceptor
1 2 donor
1 3 acceptor
1 3 donor
1 4 acceptor
1 7 donor
1 9 donor
4 5 6 7 17 cation
5 1 11 12 13 14 rings
5 5 6 16 17 18 rings
6 19 22 23 24 25 27 rings
6 23 24 26 28 29 30 rings
6 26 28 31 32 33 34 rings
6 8 9 16 18 20 21 rings

> <PUBCHEM_HEAVY_ATOM_COUNT>
34

> <PUBCHEM_ATOM_DEF_STEREO_COUNT>
3

> <PUBCHEM_ATOM_UDEF_STEREO_COUNT>
0

> <PUBCHEM_BOND_DEF_STEREO_COUNT>
0

> <PUBCHEM_BOND_UDEF_STEREO_COUNT>
0

> <PUBCHEM_ISOTOPIC_ATOM_COUNT>
0

> <PUBCHEM_COMPONENT_COUNT>
1

> <PUBCHEM_CACTVS_TAUTO_COUNT>
-1

> <PUBCHEM_CONFORMER_ID>
08157A5000000001

> <PUBCHEM_MMFF94_ENERGY>
108.1535

> <PUBCHEM_FEATURE_SELFOVERLAP>
81.432

> <PUBCHEM_SHAPE_FINGERPRINT>
10050765 1 18338798906222055346
100830 39 18410011018023454884
10319926 262 18341600521667389448
10411042 1 18194402432395917731
10462674 296 17407952653878402502
10595046 47 18409165498625813682
10835480 77 18411979140159528100
11007060 377 18339085874129414473
11315181 36 17967813894093559127
11756154 5 17968387861556617027
12107183 9 17974843965937789594
12788726 201 18334287678653425739
13631057 29 18412261765644109834
14394314 77 18409452454112955497
14461889 52 18341606045612705298
14790565 3 17833833768206473873
14844126 61 18335988648932478323
15042514 8 18410295809633049729
15064986 266 18409738347877770947
15131766 46 15071765176646776951
15361156 5 18201430376874926261
15400415 2 18265896848155755872
1577012 14 18041287647188973500
16087824 20 18410292477276771149
16989713 51 17774434022753180462
17844677 252 18410862079411308220
18608769 82 18413388760857368160
21033648 144 18263354815974633924
21033648 29 17988345036871397832
21130935 74 18409442558993855778
21133410 171 17473768174049587907
21236236 1 18412263930835231899
21792961 116 17703795791390026330
23559900 14 18341041986513586801
24771293 8 18040999588264846460
32027 91 17769670702522794430
335507 130 18335147531189993166
3418910 222 18189629400590290100
4073 2 18334298665327344650
4098825 35 18411700989281737616
4144715 1 18340216172456872194
44802255 64 17168129119637816975
4874694 18 18339916031478609126
5104073 3 18413102845485776178
5109719 28 17844236540640056328
5171179 24 17916289718992401217
5969126 39 18270955847452989183
70634741 139 18408881854337184229
9831232 110 18128827348805137782

> <PUBCHEM_SHAPE_MULTIPOLES>
646.34
22.22
4.41
0.7
28.57
0.61
0.04
-0.83
-0.47
-8.68
0.49
-0.35
-0.24
0.38

> <PUBCHEM_SHAPE_SELFOVERLAP>
1454.404

> <PUBCHEM_SHAPE_VOLUME>
334.8

> <PUBCHEM_COORDINATE_TYPE>
2
5
10

$$$$
