135625322
  -OEChem-03292013293D

 31 33  0     1  0  0  0  0  0999 V2000
   -1.7258   -0.3742    1.0998 O   0  0  0  0  0  0  0  0  0  0  0  0
   -2.5599    2.2572   -1.1904 O   0  0  0  0  0  0  0  0  0  0  0  0
   -4.4057    0.7621    0.1525 O   0  0  0  0  0  0  0  0  0  0  0  0
   -1.6838   -3.1214    0.5435 O   0  0  0  0  0  0  0  0  0  0  0  0
    1.0005   -1.0749   -0.0321 O   0  0  0  0  0  0  0  0  0  0  0  0
    4.5464    1.0204   -0.1426 O   0  0  0  0  0  0  0  0  0  0  0  0
    2.2017   -2.9638   -0.4327 O   0  0  0  0  0  0  0  0  0  0  0  0
    0.5020    2.4240    0.5136 N   0  0  0  0  0  0  0  0  0  0  0  0
    1.8331    2.2701    0.3410 N   0  0  0  0  0  0  0  0  0  0  0  0
    3.3792   -0.9798   -0.2893 N   0  0  0  0  0  0  0  0  0  0  0  0
   -2.1897    0.9464   -0.8123 C   0  0  1  0  0  0  0  0  0  0  0  0
   -1.4605    0.9226    0.5262 C   0  0  2  0  0  0  0  0  0  0  0  0
   -3.3842    0.0510   -0.5465 C   0  0  1  0  0  0  0  0  0  0  0  0
   -2.7954   -1.0142    0.3694 C   0  0  1  0  0  0  0  0  0  0  0  0
    0.0229    1.1789    0.3938 C   0  0  0  0  0  0  0  0  0  0  0  0
   -2.2126   -2.1975   -0.3913 C   0  0  0  0  0  0  0  0  0  0  0  0
    1.0448    0.2576    0.1493 C   0  0  0  0  0  0  0  0  0  0  0  0
    2.2043    0.9781    0.1182 C   0  0  0  0  0  0  0  0  0  0  0  0
    3.4879    0.4020   -0.1085 C   0  0  0  0  0  0  0  0  0  0  0  0
    2.1950   -1.7448   -0.2616 C   0  0  0  0  0  0  0  0  0  0  0  0
   -1.5659    0.5161   -1.6056 H   0  0  0  0  0  0  0  0  0  0  0  0
   -1.8849    1.6680    1.2118 H   0  0  0  0  0  0  0  0  0  0  0  0
   -3.8309   -0.3432   -1.4642 H   0  0  0  0  0  0  0  0  0  0  0  0
   -3.5160   -1.3692    1.1147 H   0  0  0  0  0  0  0  0  0  0  0  0
   -1.4004   -1.8915   -1.0571 H   0  0  0  0  0  0  0  0  0  0  0  0
   -2.9870   -2.6999   -0.9792 H   0  0  0  0  0  0  0  0  0  0  0  0
   -3.1119    2.1853   -1.9877 H   0  0  0  0  0  0  0  0  0  0  0  0
   -5.1232    0.1323    0.3371 H   0  0  0  0  0  0  0  0  0  0  0  0
    2.4219    3.0924    0.3890 H   0  0  0  0  0  0  0  0  0  0  0  0
   -1.3200   -3.8666    0.0358 H   0  0  0  0  0  0  0  0  0  0  0  0
    4.2433   -1.4873   -0.4586 H   0  0  0  0  0  0  0  0  0  0  0  0
  1 12  1  0  0  0  0
  1 14  1  0  0  0  0
  2 11  1  0  0  0  0
  2 27  1  0  0  0  0
  3 13  1  0  0  0  0
  3 28  1  0  0  0  0
  4 16  1  0  0  0  0
  4 30  1  0  0  0  0
  5 17  1  0  0  0  0
  5 20  1  0  0  0  0
  6 19  2  0  0  0  0
  7 20  2  0  0  0  0
  8  9  1  0  0  0  0
  8 15  2  0  0  0  0
  9 18  1  0  0  0  0
  9 29  1  0  0  0  0
 10 19  1  0  0  0  0
 10 20  1  0  0  0  0
 10 31  1  0  0  0  0
 11 12  1  0  0  0  0
 11 13  1  0  0  0  0
 11 21  1  0  0  0  0
 12 15  1  0  0  0  0
 12 22  1  0  0  0  0
 13 14  1  0  0  0  0
 13 23  1  0  0  0  0
 14 16  1  0  0  0  0
 14 24  1  0  0  0  0
 15 17  1  0  0  0  0
 16 25  1  0  0  0  0
 16 26  1  0  0  0  0
 17 18  2  0  0  0  0
 18 19  1  0  0  0  0
M  END
> <PUBCHEM_COMPOUND_CID>
135625322

> <PUBCHEM_CONFORMER_RMSD>
0.6

> <PUBCHEM_CONFORMER_DIVERSEORDER>
1
9
7
15
13
6
14
2
8
10
12
5
4
11
16
3

> <PUBCHEM_MMFF94_PARTIAL_CHARGES>
25
1 -0.56
10 -0.49
11 0.28
12 0.46
13 0.28
14 0.28
15 0.11
16 0.28
17 0.06
18 -0.24
19 0.71
2 -0.68
20 0.78
27 0.4
28 0.4
29 0.27
3 -0.68
30 0.4
31 0.37
4 -0.68
5 -0.21
6 -0.57
7 -0.57
8 -0.71
9 0.3

> <PUBCHEM_EFFECTIVE_ROTOR_COUNT>
3

> <PUBCHEM_PHARMACOPHORE_FEATURES>
15
1 1 acceptor
1 10 donor
1 2 acceptor
1 2 donor
1 3 acceptor
1 3 donor
1 4 acceptor
1 4 donor
1 6 acceptor
1 7 acceptor
1 8 acceptor
1 9 donor
5 1 11 12 13 14 rings
5 8 9 15 17 18 rings
6 5 10 17 18 19 20 rings

> <PUBCHEM_HEAVY_ATOM_COUNT>
20

> <PUBCHEM_ATOM_DEF_STEREO_COUNT>
4

> <PUBCHEM_ATOM_UDEF_STEREO_COUNT>
0

> <PUBCHEM_BOND_DEF_STEREO_COUNT>
0

> <PUBCHEM_BOND_UDEF_STEREO_COUNT>
0

> <PUBCHEM_ISOTOPIC_ATOM_COUNT>
0

> <PUBCHEM_COMPONENT_COUNT>
1

> <PUBCHEM_CACTVS_TAUTO_COUNT>
-1

> <PUBCHEM_CONFORMER_ID>
08157A6A00000001

> <PUBCHEM_MMFF94_ENERGY>
43.3912

> <PUBCHEM_FEATURE_SELFOVERLAP>
76.254

> <PUBCHEM_SHAPE_FINGERPRINT>
10616163 171 18339363092381993182
10967382 1 18412264999844264722
11132069 177 18339359764198648074
12500047 106 18408598180242285573
12553582 1 18270411494465138776
12788726 201 17488755466997273457
13140716 1 18197213861266763344
14115302 16 18334868228876300109
14178342 30 18343017809145648760
14251745 187 18337667637067587674
14790565 3 18123759651687381369
15196674 1 18412265051352353646
15375358 24 18411976962083549352
15635459 17 18271531900966697070
16945 1 18411984680092489544
19107657 46 18412546543540361182
19591789 44 18052259797917541276
19930381 70 18124034533825807143
200 152 17917708028514367445
20201158 50 18410856563982229753
20645477 70 18130787811235793422
221490 88 18194689382912092258
22802520 49 18261674873987148745
2334 1 17835521900580053658
23402539 116 17385715932731876796
23559900 14 18412541008023913992
238 59 17903878285481999919
2748010 2 18266463113565265530
2871803 45 18123179371313710087
34934 24 18412822486657190954
57005193 9 18413100654350938506
69090 78 18409443679209549527
8809292 202 18336265742382903891
9709674 26 18411984675898015327

> <PUBCHEM_SHAPE_MULTIPOLES>
355.56
6.77
2.96
0.82
1.17
1.53
0.03
-0.28
0.81
0.02
0.09
-0.42
-0.12
0.72

> <PUBCHEM_SHAPE_SELFOVERLAP>
776.58

> <PUBCHEM_SHAPE_VOLUME>
189.7

> <PUBCHEM_COORDINATE_TYPE>
2
5
10

$$$$
