135625317
  -OEChem-03292013293D

 53 55  0     1  0  0  0  0  0999 V2000
    5.5461    0.4271    2.4541 O   0  0  0  0  0  0  0  0  0  0  0  0
    3.2730   -3.0162   -0.4418 O   0  0  0  0  0  0  0  0  0  0  0  0
    3.3219    0.3760    2.9024 O   0  0  0  0  0  0  0  0  0  0  0  0
    3.6063    3.5267   -1.9270 O   0  0  0  0  0  0  0  0  0  0  0  0
    5.1921    2.0304   -2.5541 O   0  0  0  0  0  0  0  0  0  0  0  0
   -1.0376    1.7801   -1.6726 O   0  0  0  0  0  0  0  0  0  0  0  0
    2.7818   -1.0534    0.6920 N   0  0  0  0  0  0  0  0  0  0  0  0
   -4.8167    0.6040    0.9624 N   0  0  0  0  0  0  0  0  0  0  0  0
   -2.0148    3.2915   -0.2221 N   0  0  0  0  0  0  0  0  0  0  0  0
   -3.8862    2.7369    1.0944 N   0  0  0  0  0  0  0  0  0  0  0  0
   -2.9433    4.8798    1.2203 N   0  0  0  0  0  0  0  0  0  0  0  0
   -3.1608   -3.5121   -0.2206 C   0  0  0  0  0  0  0  0  0  0  0  0
    4.1392   -0.5869    0.8200 C   0  0  1  0  0  0  0  0  0  0  0  0
   -3.9907   -2.5054   -1.0416 C   0  0  0  0  0  0  0  0  0  0  0  0
    4.5892    0.2610   -0.3757 C   0  0  0  0  0  0  0  0  0  0  0  0
   -1.7075   -3.1849   -0.1472 C   0  0  0  0  0  0  0  0  0  0  0  0
   -3.9162   -1.0965   -0.5057 C   0  0  0  0  0  0  0  0  0  0  0  0
    3.8125    1.5645   -0.6011 C   0  0  0  0  0  0  0  0  0  0  0  0
    1.0110   -2.5738   -0.0106 C   0  0  0  0  0  0  0  0  0  0  0  0
   -0.8312   -3.6839   -1.1110 C   0  0  0  0  0  0  0  0  0  0  0  0
   -1.2245   -2.3805    0.8850 C   0  0  0  0  0  0  0  0  0  0  0  0
    2.4585   -2.2474    0.0621 C   0  0  0  0  0  0  0  0  0  0  0  0
   -2.9368   -0.2143   -0.9438 C   0  0  0  0  0  0  0  0  0  0  0  0
    0.5280   -3.3783   -1.0427 C   0  0  0  0  0  0  0  0  0  0  0  0
    0.1348   -2.0751    0.9533 C   0  0  0  0  0  0  0  0  0  0  0  0
   -2.9072    1.0761   -0.4210 C   0  0  0  0  0  0  0  0  0  0  0  0
    4.2562    0.1240    2.1526 C   0  0  0  0  0  0  0  0  0  0  0  0
   -4.8229   -0.6437    0.4385 C   0  0  0  0  0  0  0  0  0  0  0  0
   -3.8564    1.4518    0.5253 C   0  0  0  0  0  0  0  0  0  0  0  0
    4.2869    2.3578   -1.7994 C   0  0  0  0  0  0  0  0  0  0  0  0
   -1.8951    2.0588   -0.8433 C   0  0  0  0  0  0  0  0  0  0  0  0
   -2.9894    3.6059    0.7189 C   0  0  0  0  0  0  0  0  0  0  0  0
    4.7840   -1.4731    0.8819 H   0  0  0  0  0  0  0  0  0  0  0  0
   -3.2919   -4.5130   -0.6520 H   0  0  0  0  0  0  0  0  0  0  0  0
   -3.5697   -3.5807    0.7966 H   0  0  0  0  0  0  0  0  0  0  0  0
   -5.0380   -2.8327   -1.0620 H   0  0  0  0  0  0  0  0  0  0  0  0
   -3.6559   -2.5103   -2.0873 H   0  0  0  0  0  0  0  0  0  0  0  0
    4.5210   -0.3471   -1.2876 H   0  0  0  0  0  0  0  0  0  0  0  0
    5.6525    0.5082   -0.2583 H   0  0  0  0  0  0  0  0  0  0  0  0
    2.0488   -0.4292    1.0125 H   0  0  0  0  0  0  0  0  0  0  0  0
    3.9118    2.2068    0.2809 H   0  0  0  0  0  0  0  0  0  0  0  0
    2.7513    1.3397   -0.7549 H   0  0  0  0  0  0  0  0  0  0  0  0
   -1.1959   -4.3089   -1.9219 H   0  0  0  0  0  0  0  0  0  0  0  0
   -1.8921   -1.9965    1.6519 H   0  0  0  0  0  0  0  0  0  0  0  0
   -2.2111   -0.5278   -1.6890 H   0  0  0  0  0  0  0  0  0  0  0  0
    1.1939   -3.7721   -1.8060 H   0  0  0  0  0  0  0  0  0  0  0  0
    0.4736   -1.4727    1.7909 H   0  0  0  0  0  0  0  0  0  0  0  0
   -5.6088   -1.2886    0.8198 H   0  0  0  0  0  0  0  0  0  0  0  0
   -1.3449    4.0130   -0.4719 H   0  0  0  0  0  0  0  0  0  0  0  0
    5.6226    0.8732    3.3244 H   0  0  0  0  0  0  0  0  0  0  0  0
    3.9232    4.0524   -2.6922 H   0  0  0  0  0  0  0  0  0  0  0  0
   -3.6147    5.1969    1.9111 H   0  0  0  0  0  0  0  0  0  0  0  0
   -2.2384    5.5427    0.9167 H   0  0  0  0  0  0  0  0  0  0  0  0
  1 27  1  0  0  0  0
  1 50  1  0  0  0  0
  2 22  2  0  0  0  0
  3 27  2  0  0  0  0
  4 30  1  0  0  0  0
  4 51  1  0  0  0  0
  5 30  2  0  0  0  0
  6 31  2  0  0  0  0
  7 13  1  0  0  0  0
  7 22  1  0  0  0  0
  7 40  1  0  0  0  0
  8 28  2  0  0  0  0
  8 29  1  0  0  0  0
  9 31  1  0  0  0  0
  9 32  1  0  0  0  0
  9 49  1  0  0  0  0
 10 29  1  0  0  0  0
 10 32  2  0  0  0  0
 11 32  1  0  0  0  0
 11 52  1  0  0  0  0
 11 53  1  0  0  0  0
 12 14  1  0  0  0  0
 12 16  1  0  0  0  0
 12 34  1  0  0  0  0
 12 35  1  0  0  0  0
 13 15  1  0  0  0  0
 13 27  1  0  0  0  0
 13 33  1  0  0  0  0
 14 17  1  0  0  0  0
 14 36  1  0  0  0  0
 14 37  1  0  0  0  0
 15 18  1  0  0  0  0
 15 38  1  0  0  0  0
 15 39  1  0  0  0  0
 16 20  2  0  0  0  0
 16 21  1  0  0  0  0
 17 23  2  0  0  0  0
 17 28  1  0  0  0  0
 18 30  1  0  0  0  0
 18 41  1  0  0  0  0
 18 42  1  0  0  0  0
 19 22  1  0  0  0  0
 19 24  2  0  0  0  0
 19 25  1  0  0  0  0
 20 24  1  0  0  0  0
 20 43  1  0  0  0  0
 21 25  2  0  0  0  0
 21 44  1  0  0  0  0
 23 26  1  0  0  0  0
 23 45  1  0  0  0  0
 24 46  1  0  0  0  0
 25 47  1  0  0  0  0
 26 29  2  0  0  0  0
 26 31  1  0  0  0  0
 28 48  1  0  0  0  0
M  END
> <PUBCHEM_COMPOUND_CID>
135625317

> <PUBCHEM_CONFORMER_RMSD>
1

> <PUBCHEM_CONFORMER_DIVERSEORDER>
1
98
16
124
56
31
10
94
9
111
25
60
58
117
144
87
95
74
30
80
64
61
51
146
131
107
122
72
69
59
99
35
148
134
128
40
106
89
14
133
112
7
96
5
127
11
47
100
143
49
33
18
15
104
92
29
126
116
91
129
113
17
62
102
6
39
20
32
103
68
3
145
8
108
37
125
27
120
90
118
70
81
19
86
45
140
123
130
50
41
12
54
136
34
121
55
26
79
22
139
85
97
46
132
63
43
21
82
52
36
93
2
71
78
109
65
67
149
23
13
44
105
77
142
135
57
76
53
119
147
137
4
42
141
48
75
73
83
88
24
115
66
28
138
38
110
84
101
114

> <PUBCHEM_MMFF94_PARTIAL_CHARGES>
43
1 -0.65
10 -0.63
11 -0.85
12 0.14
13 0.36
14 0.14
16 -0.14
17 -0.14
18 0.06
19 0.09
2 -0.57
20 -0.15
21 -0.15
22 0.54
23 -0.15
24 -0.15
25 -0.15
26 0.09
27 0.66
28 0.16
29 0.49
3 -0.57
30 0.66
31 0.54
32 0.56
4 -0.65
40 0.37
43 0.15
44 0.15
45 0.15
46 0.15
47 0.15
48 0.15
49 0.37
5 -0.57
50 0.5
51 0.5
52 0.4
53 0.4
6 -0.57
7 -0.73
8 -0.62
9 -0.49

> <PUBCHEM_EFFECTIVE_ROTOR_COUNT>
10

> <PUBCHEM_PHARMACOPHORE_FEATURES>
15
1 1 acceptor
1 11 donor
1 2 acceptor
1 3 acceptor
1 4 acceptor
1 5 acceptor
1 6 acceptor
1 7 donor
1 8 acceptor
1 9 donor
3 1 3 27 anion
3 4 5 30 anion
6 16 19 20 21 24 25 rings
6 8 17 23 26 28 29 rings
6 9 10 26 29 31 32 rings

> <PUBCHEM_HEAVY_ATOM_COUNT>
32

> <PUBCHEM_ATOM_DEF_STEREO_COUNT>
1

> <PUBCHEM_ATOM_UDEF_STEREO_COUNT>
0

> <PUBCHEM_BOND_DEF_STEREO_COUNT>
0

> <PUBCHEM_BOND_UDEF_STEREO_COUNT>
0

> <PUBCHEM_ISOTOPIC_ATOM_COUNT>
0

> <PUBCHEM_COMPONENT_COUNT>
1

> <PUBCHEM_CACTVS_TAUTO_COUNT>
-1

> <PUBCHEM_CONFORMER_ID>
08157A6500000001

> <PUBCHEM_MMFF94_ENERGY>
76.1995

> <PUBCHEM_FEATURE_SELFOVERLAP>
76.321

> <PUBCHEM_SHAPE_FINGERPRINT>
10670039 82 18338240478784398518
11059048 146 18340783567264075940
11513181 2 18272100382922788654
11595378 159 18042102324284323331
12788726 201 18192997238658860092
12925494 130 17764589811919606945
12978246 48 18336261262821860176
13617811 41 18411689986008684657
13642711 20 16917055690141389978
14347329 18 18339933700979411042
14363568 33 17327470623190596747
14400156 266 17845661477940443935
14840074 17 18114190777978270669
15001296 14 18044941409283095356
15021287 119 17749933489577330882
15297060 5 18200052731870585444
15351339 4 17253999065541519516
15968369 153 18127409170859574043
20764821 26 18052241080022895064
21623110 236 18261111919759950263
38570 142 17750251334516374014
45266715 3 16396890242744596175
56611832 218 9165356890259327852
5895379 119 18410009949336214462
6036956 94 18261401100114251349
6287921 2 18267870484259600247
6371009 1 18336811061764652358
6608658 132 18125718130640277967
6700243 42 17553790725329970382

> <PUBCHEM_SHAPE_MULTIPOLES>
598.42
11.65
6.06
1.96
8.91
2.27
0.39
5.63
1.09
-4.13
-0.97
3.31
1.18
-3.2

> <PUBCHEM_SHAPE_SELFOVERLAP>
1283.142

> <PUBCHEM_SHAPE_VOLUME>
325.2

> <PUBCHEM_COORDINATE_TYPE>
2
5
10

$$$$
