135630091
  -OEChem-03292013293D

 30 32  0     0  0  0  0  0  0999 V2000
    0.2872    3.6242    0.6639 S   0  0  0  0  0  0  0  0  0  0  0  0
    1.5833   -1.7573    0.0853 O   0  0  0  0  0  0  0  0  0  0  0  0
   -3.1061    1.1612   -1.9046 O   0  0  0  0  0  0  0  0  0  0  0  0
    1.2044    1.0578    0.3125 N   0  0  0  0  0  0  0  0  0  0  0  0
    2.7242    2.6147    0.0126 N   0  0  0  0  0  0  0  0  0  0  0  0
    3.3486    1.4108   -0.1866 N   0  0  0  0  0  0  0  0  0  0  0  0
    0.0828    0.4023    0.6330 N   0  0  0  0  0  0  0  0  0  0  0  0
    2.4132    0.5173   -0.0079 C   0  0  0  0  0  0  0  0  0  0  0  0
    2.6407   -0.9291   -0.1226 C   0  0  0  0  0  0  0  0  0  0  0  0
    1.3783    2.4196    0.3326 C   0  0  0  0  0  0  0  0  0  0  0  0
   -2.2278    0.0220    0.0151 C   0  0  0  0  0  0  0  0  0  0  0  0
    3.7721   -1.6544   -0.4161 C   0  0  0  0  0  0  0  0  0  0  0  0
   -0.9204    0.6381   -0.1634 C   0  0  0  0  0  0  0  0  0  0  0  0
   -3.2770    0.3024   -0.8602 C   0  0  0  0  0  0  0  0  0  0  0  0
    3.3850   -3.0154   -0.3869 C   0  0  0  0  0  0  0  0  0  0  0  0
   -2.4237   -0.8580    1.0795 C   0  0  0  0  0  0  0  0  0  0  0  0
    2.0447   -3.0249   -0.0774 C   0  0  0  0  0  0  0  0  0  0  0  0
   -4.5222   -0.2970   -0.6709 C   0  0  0  0  0  0  0  0  0  0  0  0
   -3.6690   -1.4574    1.2687 C   0  0  0  0  0  0  0  0  0  0  0  0
   -4.7183   -1.1770    0.3935 C   0  0  0  0  0  0  0  0  0  0  0  0
    4.7551   -1.2574   -0.6260 H   0  0  0  0  0  0  0  0  0  0  0  0
    3.2384    3.4825   -0.0687 H   0  0  0  0  0  0  0  0  0  0  0  0
   -0.7968    1.2971   -1.0425 H   0  0  0  0  0  0  0  0  0  0  0  0
    4.0051   -3.8812   -0.5686 H   0  0  0  0  0  0  0  0  0  0  0  0
   -1.6265   -1.0972    1.7782 H   0  0  0  0  0  0  0  0  0  0  0  0
    1.3137   -3.8088    0.0568 H   0  0  0  0  0  0  0  0  0  0  0  0
   -5.3488   -0.0875   -1.3447 H   0  0  0  0  0  0  0  0  0  0  0  0
   -3.8219   -2.1426    2.0974 H   0  0  0  0  0  0  0  0  0  0  0  0
   -5.6878   -1.6437    0.5410 H   0  0  0  0  0  0  0  0  0  0  0  0
   -3.9410    1.2309   -2.3986 H   0  0  0  0  0  0  0  0  0  0  0  0
  1 10  2  0  0  0  0
  2  9  1  0  0  0  0
  2 17  1  0  0  0  0
  3 14  1  0  0  0  0
  3 30  1  0  0  0  0
  4  7  1  0  0  0  0
  4  8  1  0  0  0  0
  4 10  1  0  0  0  0
  5  6  1  0  0  0  0
  5 10  1  0  0  0  0
  5 22  1  0  0  0  0
  6  8  2  0  0  0  0
  7 13  2  0  0  0  0
  8  9  1  0  0  0  0
  9 12  2  0  0  0  0
 11 13  1  0  0  0  0
 11 14  1  0  0  0  0
 11 16  2  0  0  0  0
 12 15  1  0  0  0  0
 12 21  1  0  0  0  0
 13 23  1  0  0  0  0
 14 18  2  0  0  0  0
 15 17  2  0  0  0  0
 15 24  1  0  0  0  0
 16 19  1  0  0  0  0
 16 25  1  0  0  0  0
 17 26  1  0  0  0  0
 18 20  1  0  0  0  0
 18 27  1  0  0  0  0
 19 20  2  0  0  0  0
 19 28  1  0  0  0  0
 20 29  1  0  0  0  0
M  END
> <PUBCHEM_COMPOUND_CID>
135630091

> <PUBCHEM_CONFORMER_RMSD>
0.6

> <PUBCHEM_CONFORMER_DIVERSEORDER>
1
30
44
42
39
9
5
19
21
45
43
40
24
14
36
38
27
20
3
13
12
15
23
33
32
29
8
2
25
16
35
31
22
26
37
17
6
28
4
10
34
7
41
11
18

> <PUBCHEM_MMFF94_PARTIAL_CHARGES>
30
1 -0.38
10 0.5
11 0.09
12 -0.15
13 0.3
14 0.08
15 -0.15
16 -0.15
17 -0.01
18 -0.15
19 -0.15
2 -0.28
20 -0.15
21 0.15
22 0.37
23 0.06
24 0.15
25 0.15
26 0.15
27 0.15
28 0.15
29 0.15
3 -0.53
30 0.45
4 -0.06
5 -0.37
6 -0.51
7 -0.51
8 0.59
9 0.05

> <PUBCHEM_EFFECTIVE_ROTOR_COUNT>
3

> <PUBCHEM_PHARMACOPHORE_FEATURES>
9
1 1 acceptor
1 2 acceptor
1 3 donor
1 5 donor
1 7 acceptor
3 4 6 8 cation
5 2 9 12 15 17 rings
5 4 5 6 8 10 rings
6 11 14 16 18 19 20 rings

> <PUBCHEM_HEAVY_ATOM_COUNT>
20

> <PUBCHEM_ATOM_DEF_STEREO_COUNT>
0

> <PUBCHEM_ATOM_UDEF_STEREO_COUNT>
0

> <PUBCHEM_BOND_DEF_STEREO_COUNT>
1

> <PUBCHEM_BOND_UDEF_STEREO_COUNT>
0

> <PUBCHEM_ISOTOPIC_ATOM_COUNT>
0

> <PUBCHEM_COMPONENT_COUNT>
1

> <PUBCHEM_CACTVS_TAUTO_COUNT>
-1

> <PUBCHEM_CONFORMER_ID>
08158D0B00000001

> <PUBCHEM_MMFF94_ENERGY>
61.4367

> <PUBCHEM_FEATURE_SELFOVERLAP>
45.678

> <PUBCHEM_SHAPE_FINGERPRINT>
116883 192 18124311610465557452
12107183 9 18055370045919322497
12363563 72 18268435633273479430
12506688 2 18410015411928050994
12553582 1 18123200008615671690
12623949 98 18123213417941952123
12707595 3 18336544923836899194
12788726 201 17762894368655971009
13140716 1 18127698123448427656
13533116 47 18342742961999827195
13544592 145 18186800254081529791
138480 1 18411984646059532330
13911987 19 18048337801287247652
14251757 17 18187921729734058355
14848160 33 18340486677312201270
14866123 147 17475517175162838611
15502722 9 18410576227293191222
15635459 17 18334579061618456395
17818456 19 17344363154941509801
1813 80 17845669031648038422
19049666 15 18334006177690502885
20645477 70 18409162238228846731
20671657 53 18341335478803152842
20693207 138 18187368709834975807
221357 26 18335977572206137741
221490 88 18408328782487056666
2255824 54 18199471150075123664
22943178 12 18187641431799926237
23526113 38 18334009506189742633
23557571 272 17603581958911064885
23559900 14 18187362147050996885
238 59 18122033632899803247
3060560 45 18267586999544266940
3323516 105 18334017202650031763
33824 294 18339081609131540826
3421961 26 18412827979872922386
46194498 28 17822299019252198005
6049 1 18186803582449056157
621550 34 18191585474561719549
6443956 14 18409735027720013732
6669772 16 18127140886677177700
7364860 26 18411701027693745896
7399639 24 18048308144405790345
81228 2 17763735495304433760
8272917 22 18341901826402473565
9709674 26 18261392290956575787

> <PUBCHEM_SHAPE_MULTIPOLES>
383.78
8.48
3.77
1.03
6
1.47
0.16
-4.87
1.03
-4.31
-0.48
1.15
0.06
1.15

> <PUBCHEM_SHAPE_SELFOVERLAP>
832.689

> <PUBCHEM_SHAPE_VOLUME>
212.1

> <PUBCHEM_COORDINATE_TYPE>
2
5
10

$$$$
