135625333
  -OEChem-03292013293D

 56 61  0     1  0  0  0  0  0999 V2000
   -4.0440   -1.7667   -1.2558 O   0  0  0  0  0  0  0  0  0  0  0  0
   -2.8520   -3.8751    0.6276 O   0  0  0  0  0  0  0  0  0  0  0  0
   -6.6681   -2.5087   -1.8735 O   0  0  0  0  0  0  0  0  0  0  0  0
   -2.5770    4.8528   -0.3376 O   0  0  0  0  0  0  0  0  0  0  0  0
   -3.3047    0.3938   -0.3825 N   0  0  0  0  0  0  0  0  0  0  0  0
   -4.2161    2.4065   -0.7289 N   0  0  0  0  0  0  0  0  0  0  0  0
   -1.0580    1.0277    0.2573 N   0  0  0  0  0  0  0  0  0  0  0  0
   -0.8297    3.4127    0.2337 N   0  0  0  0  0  0  0  0  0  0  0  0
    0.9561    2.0379    0.8145 N   0  0  0  0  0  0  0  0  0  0  0  0
    0.1065    0.3046    2.8385 N   0  0  0  0  0  0  0  0  0  0  0  0
   -3.1995   -1.1079   -0.2935 C   0  0  1  0  0  0  0  0  0  0  0  0
   -4.0209   -3.0660    0.7356 C   0  0  1  0  0  0  0  0  0  0  0  0
   -3.5976   -1.6554    1.0728 C   0  0  0  0  0  0  0  0  0  0  0  0
   -4.6646   -2.9114   -0.6362 C   0  0  1  0  0  0  0  0  0  0  0  0
   -6.1625   -2.6485   -0.5574 C   0  0  0  0  0  0  0  0  0  0  0  0
   -2.3234    1.3057   -0.1274 C   0  0  0  0  0  0  0  0  0  0  0  0
   -4.4243    1.1045   -0.7406 C   0  0  0  0  0  0  0  0  0  0  0  0
   -2.9123    2.5271   -0.3482 C   0  0  0  0  0  0  0  0  0  0  0  0
   -2.1374    3.7231   -0.1647 C   0  0  0  0  0  0  0  0  0  0  0  0
   -0.3249    2.1058    0.4328 C   0  0  0  0  0  0  0  0  0  0  0  0
    1.7133    0.8652    1.0834 C   0  0  0  0  0  0  0  0  0  0  0  0
    2.8745    0.5726    0.3480 C   0  0  0  0  0  0  0  0  0  0  0  0
    3.6264   -0.5997    0.6216 C   0  0  0  0  0  0  0  0  0  0  0  0
    4.8113   -0.8702   -0.1505 C   0  0  0  0  0  0  0  0  0  0  0  0
    1.2721    0.0173    2.0946 C   0  0  0  0  0  0  0  0  0  0  0  0
    5.1986    0.0418   -1.1668 C   0  0  0  0  0  0  0  0  0  0  0  0
    3.2881    1.4467   -0.6605 C   0  0  0  0  0  0  0  0  0  0  0  0
    3.1444   -1.4370    1.6588 C   0  0  0  0  0  0  0  0  0  0  0  0
    4.4326    1.1853   -1.4065 C   0  0  0  0  0  0  0  0  0  0  0  0
    1.9878   -1.1343    2.3825 C   0  0  0  0  0  0  0  0  0  0  0  0
    5.6385   -2.0064    0.0337 C   0  0  0  0  0  0  0  0  0  0  0  0
    6.3498   -0.1937   -1.9379 C   0  0  0  0  0  0  0  0  0  0  0  0
    6.7807   -2.2285   -0.7403 C   0  0  0  0  0  0  0  0  0  0  0  0
    7.1363   -1.3217   -1.7267 C   0  0  0  0  0  0  0  0  0  0  0  0
   -2.1604   -1.3520   -0.5449 H   0  0  0  0  0  0  0  0  0  0  0  0
   -4.6733   -3.5138    1.4906 H   0  0  0  0  0  0  0  0  0  0  0  0
   -4.4462   -1.0954    1.4832 H   0  0  0  0  0  0  0  0  0  0  0  0
   -2.7681   -1.5975    1.7846 H   0  0  0  0  0  0  0  0  0  0  0  0
   -4.4690   -3.7698   -1.2886 H   0  0  0  0  0  0  0  0  0  0  0  0
   -6.3787   -1.7207   -0.0183 H   0  0  0  0  0  0  0  0  0  0  0  0
   -6.6801   -3.4797   -0.0687 H   0  0  0  0  0  0  0  0  0  0  0  0
   -3.1391   -4.7654    0.3618 H   0  0  0  0  0  0  0  0  0  0  0  0
   -5.3586    0.6229   -0.9949 H   0  0  0  0  0  0  0  0  0  0  0  0
   -7.6235   -2.3441   -1.7977 H   0  0  0  0  0  0  0  0  0  0  0  0
   -0.1946    4.1896    0.3923 H   0  0  0  0  0  0  0  0  0  0  0  0
    1.5066    2.8915    0.8139 H   0  0  0  0  0  0  0  0  0  0  0  0
    2.7387    2.3519   -0.9078 H   0  0  0  0  0  0  0  0  0  0  0  0
    3.6641   -2.3528    1.9285 H   0  0  0  0  0  0  0  0  0  0  0  0
    4.7181    1.8919   -2.1838 H   0  0  0  0  0  0  0  0  0  0  0  0
    1.6626   -1.8120    3.1679 H   0  0  0  0  0  0  0  0  0  0  0  0
    5.4094   -2.7511    0.7916 H   0  0  0  0  0  0  0  0  0  0  0  0
    6.6462    0.5063   -2.7172 H   0  0  0  0  0  0  0  0  0  0  0  0
    7.3884   -3.1120   -0.5678 H   0  0  0  0  0  0  0  0  0  0  0  0
    8.0227   -1.4899   -2.3306 H   0  0  0  0  0  0  0  0  0  0  0  0
   -0.1840   -0.3246    3.5756 H   0  0  0  0  0  0  0  0  0  0  0  0
   -0.3632    1.1926    2.7336 H   0  0  0  0  0  0  0  0  0  0  0  0
  1 11  1  0  0  0  0
  1 14  1  0  0  0  0
  2 12  1  0  0  0  0
  2 42  1  0  0  0  0
  3 15  1  0  0  0  0
  3 44  1  0  0  0  0
  4 19  2  0  0  0  0
  5 11  1  0  0  0  0
  5 16  1  0  0  0  0
  5 17  1  0  0  0  0
  6 17  2  0  0  0  0
  6 18  1  0  0  0  0
  7 16  1  0  0  0  0
  7 20  2  0  0  0  0
  8 19  1  0  0  0  0
  8 20  1  0  0  0  0
  8 45  1  0  0  0  0
  9 20  1  0  0  0  0
  9 21  1  0  0  0  0
  9 46  1  0  0  0  0
 10 25  1  0  0  0  0
 10 55  1  0  0  0  0
 10 56  1  0  0  0  0
 11 13  1  0  0  0  0
 11 35  1  0  0  0  0
 12 13  1  0  0  0  0
 12 14  1  0  0  0  0
 12 36  1  0  0  0  0
 13 37  1  0  0  0  0
 13 38  1  0  0  0  0
 14 15  1  0  0  0  0
 14 39  1  0  0  0  0
 15 40  1  0  0  0  0
 15 41  1  0  0  0  0
 16 18  2  0  0  0  0
 17 43  1  0  0  0  0
 18 19  1  0  0  0  0
 21 22  1  0  0  0  0
 21 25  2  0  0  0  0
 22 23  2  0  0  0  0
 22 27  1  0  0  0  0
 23 24  1  0  0  0  0
 23 28  1  0  0  0  0
 24 26  1  0  0  0  0
 24 31  2  0  0  0  0
 25 30  1  0  0  0  0
 26 29  1  0  0  0  0
 26 32  2  0  0  0  0
 27 29  2  0  0  0  0
 27 47  1  0  0  0  0
 28 30  2  0  0  0  0
 28 48  1  0  0  0  0
 29 49  1  0  0  0  0
 30 50  1  0  0  0  0
 31 33  1  0  0  0  0
 31 51  1  0  0  0  0
 32 34  1  0  0  0  0
 32 52  1  0  0  0  0
 33 34  2  0  0  0  0
 33 53  1  0  0  0  0
 34 54  1  0  0  0  0
M  END
> <PUBCHEM_COMPOUND_CID>
135625333

> <PUBCHEM_CONFORMER_RMSD>
0.8

> <PUBCHEM_CONFORMER_DIVERSEORDER>
2
9
37
164
182
116
183
60
134
118
162
16
62
129
123
46
161
8
120
176
61
144
112
149
104
22
72
165
131
166
85
14
35
127
147
113
63
101
160
76
67
170
12
171
36
24
157
174
138
80
84
70
99
43
179
158
102
81
91
146
135
56
52
94
151
167
32
141
168
13
173
142
119
53
128
178
155
169
87
90
38
44
17
98
65
68
145
156
96
150
5
19
25
126
148
177
185
3
180
86
57
130
152
181
79
39
136
121
48
125
184
41
89
114
97
30
159
106
172
133
75
109
31
59
111
21
83
88
74
124
103
7
175
139
50
163
29
18
28
66
153
49
110
117
105
140
154
122
42
40
92
143
34
1
69
137
71
95
115
47
15
100
27
107
4
54
33
26
108
64
73
58
77
78
20
82
93
55
11
132
51
6
10
23
45

> <PUBCHEM_MMFF94_PARTIAL_CHARGES>
44
1 -0.56
10 -0.9
11 0.54
12 0.28
14 0.28
15 0.28
16 -0.03
17 0.04
18 0.14
19 0.72
2 -0.68
20 0.56
21 0.1
25 0.1
27 -0.15
28 -0.15
29 -0.15
3 -0.68
30 -0.15
31 -0.15
32 -0.15
33 -0.15
34 -0.15
4 -0.57
42 0.4
43 0.15
44 0.4
45 0.37
46 0.4
47 0.15
48 0.15
49 0.15
5 0.05
50 0.15
51 0.15
52 0.15
53 0.15
54 0.15
55 0.4
56 0.4
6 -0.57
7 -0.58
8 -0.49
9 -0.55

> <PUBCHEM_EFFECTIVE_ROTOR_COUNT>
5

> <PUBCHEM_PHARMACOPHORE_FEATURES>
17
1 1 acceptor
1 10 cation
1 10 donor
1 2 acceptor
1 2 donor
1 3 acceptor
1 3 donor
1 4 acceptor
1 8 donor
1 9 donor
3 5 6 17 cation
5 1 11 12 13 14 rings
5 5 6 16 17 18 rings
6 21 22 23 25 28 30 rings
6 22 23 24 26 27 29 rings
6 24 26 31 32 33 34 rings
6 7 8 16 18 19 20 rings

> <PUBCHEM_HEAVY_ATOM_COUNT>
34

> <PUBCHEM_ATOM_DEF_STEREO_COUNT>
3

> <PUBCHEM_ATOM_UDEF_STEREO_COUNT>
0

> <PUBCHEM_BOND_DEF_STEREO_COUNT>
0

> <PUBCHEM_BOND_UDEF_STEREO_COUNT>
0

> <PUBCHEM_ISOTOPIC_ATOM_COUNT>
0

> <PUBCHEM_COMPONENT_COUNT>
1

> <PUBCHEM_CACTVS_TAUTO_COUNT>
-1

> <PUBCHEM_CONFORMER_ID>
08157A7500000002

> <PUBCHEM_MMFF94_ENERGY>
124.5312

> <PUBCHEM_FEATURE_SELFOVERLAP>
86.516

> <PUBCHEM_SHAPE_FINGERPRINT>
10622 236 17970050172260161802
10838868 217 11886578796718894338
10928967 22 18201148948895416462
117089 54 18341338884902798703
12124843 1 18041553762693182135
12788726 201 18260539039989885803
12969540 114 15285367206412508328
13103583 49 13542462064408140612
13257819 101 13262690231477772680
13673619 4 17917714629562655515
13690498 29 18409730659996743343
13757389 114 18265897956743375477
13782708 43 17632288008346732815
14114206 34 18188191161849389605
14114211 68 16733248115666576035
14251757 5 18335700520760892283
14347332 77 18411138030527501742
14415361 349 17626942324272165527
14931854 50 18040426720366807271
14950920 106 13973387119504657519
14951699 99 9583517621059252082
15082195 135 17896332488021815332
15250474 111 18116706323170256706
15461852 350 18338806629300870814
15510800 12 17632584816367123334
15950262 2 14057817415228413375
15968369 26 17469033823293193237
16994733 274 14201940347483270879
17909252 39 18267590298042207728
18393751 57 10087655814323207255
20505436 4 17679874699624580801
20775438 99 17907848862488664262
21772528 278 16879657906387149561
21781055 127 17552351082040740833
22393880 68 18335420149786163224
23379529 103 18341055211034161706
23559900 14 18342166761529654200
23569914 2 13048206479714062102
2838139 119 15502377825203276772
3117164 225 10231488376192158508
3610482 184 17896343349550644196
42767 28 17749103434795582247
4330586 98 18262809596015865142
439807 62 18411704304717370007
44062 13 18341051830683727916
44880168 125 17846777455612963855
4756326 101 13541641756411187819
484985 159 17632304441181803163
513202 73 18272371983927655159
57527585 21 14851878119615859127
58902169 19 17677342602382431902
613672 6 18049421923962208339
6201320 77 16342601465280976422
6700243 42 17771099088027436780
6823239 73 18271794735901348976
7970288 3 18269271442562740335
86090 222 16773254958190985758

> <PUBCHEM_SHAPE_MULTIPOLES>
646.34
16.61
4.66
1.87
10.43
2.05
0.77
-14.19
-10.92
-8.4
-0.53
1.38
-0.66
-0.48

> <PUBCHEM_SHAPE_SELFOVERLAP>
1458.425

> <PUBCHEM_SHAPE_VOLUME>
337.5

> <PUBCHEM_COORDINATE_TYPE>
2
5
10

$$$$
