135616173
  -OEChem-03292013293D

 32 34  0     1  0  0  0  0  0999 V2000
    1.9422    2.6192   -0.6517 F   0  0  0  0  0  0  0  0  0  0  0  0
    2.2237   -0.0111    1.0092 O   0  0  0  0  0  0  0  0  0  0  0  0
    2.7038   -0.5827   -1.9131 O   0  0  0  0  0  0  0  0  0  0  0  0
    4.7131   -1.0675    1.7718 O   0  0  0  0  0  0  0  0  0  0  0  0
   -4.1280   -2.1043   -0.3795 O   0  0  0  0  0  0  0  0  0  0  0  0
   -0.0457   -0.2420    0.1515 N   0  0  0  0  0  0  0  0  0  0  0  0
   -1.1592   -2.1321   -0.2841 N   0  0  0  0  0  0  0  0  0  0  0  0
   -1.8868    1.3074    0.4143 N   0  0  0  0  0  0  0  0  0  0  0  0
   -3.9755    0.1751    0.1048 N   0  0  0  0  0  0  0  0  0  0  0  0
   -3.9163    2.4780    0.5914 N   0  0  0  0  0  0  0  0  0  0  0  0
    1.1261    0.6843    0.3868 C   0  0  2  0  0  0  0  0  0  0  0  0
    2.9664    0.5847   -1.1491 C   0  0  1  0  0  0  0  0  0  0  0  0
    1.6640    1.3077   -0.8997 C   0  0  2  0  0  0  0  0  0  0  0  0
    3.4231    0.2650    0.2665 C   0  0  2  0  0  0  0  0  0  0  0  0
    4.3761   -0.9075    0.4033 C   0  0  0  0  0  0  0  0  0  0  0  0
   -1.3703    0.0819    0.1742 C   0  0  0  0  0  0  0  0  0  0  0  0
    0.0304   -1.5847   -0.1282 C   0  0  0  0  0  0  0  0  0  0  0  0
   -2.0249   -1.0956   -0.0957 C   0  0  0  0  0  0  0  0  0  0  0  0
   -3.4608   -1.1044   -0.1466 C   0  0  0  0  0  0  0  0  0  0  0  0
   -3.2015    1.3287    0.3739 C   0  0  0  0  0  0  0  0  0  0  0  0
    0.7624    1.4420    1.0896 H   0  0  0  0  0  0  0  0  0  0  0  0
    3.7058    1.1912   -1.6805 H   0  0  0  0  0  0  0  0  0  0  0  0
    0.9571    1.2698   -1.7338 H   0  0  0  0  0  0  0  0  0  0  0  0
    3.8632    1.1570    0.7310 H   0  0  0  0  0  0  0  0  0  0  0  0
    5.2925   -0.7368   -0.1696 H   0  0  0  0  0  0  0  0  0  0  0  0
    3.9076   -1.8398    0.0721 H   0  0  0  0  0  0  0  0  0  0  0  0
    0.9730   -2.1089   -0.2050 H   0  0  0  0  0  0  0  0  0  0  0  0
    2.3712   -0.2964   -2.7809 H   0  0  0  0  0  0  0  0  0  0  0  0
    5.3247   -1.8213    1.8298 H   0  0  0  0  0  0  0  0  0  0  0  0
   -4.9857    0.2820    0.0928 H   0  0  0  0  0  0  0  0  0  0  0  0
   -3.4501    3.3560    0.7920 H   0  0  0  0  0  0  0  0  0  0  0  0
   -4.9298    2.4848    0.5583 H   0  0  0  0  0  0  0  0  0  0  0  0
  1 13  1  0  0  0  0
  2 11  1  0  0  0  0
  2 14  1  0  0  0  0
  3 12  1  0  0  0  0
  3 28  1  0  0  0  0
  4 15  1  0  0  0  0
  4 29  1  0  0  0  0
  5 19  2  0  0  0  0
  6 11  1  0  0  0  0
  6 16  1  0  0  0  0
  6 17  1  0  0  0  0
  7 17  2  0  0  0  0
  7 18  1  0  0  0  0
  8 16  1  0  0  0  0
  8 20  2  0  0  0  0
  9 19  1  0  0  0  0
  9 20  1  0  0  0  0
  9 30  1  0  0  0  0
 10 20  1  0  0  0  0
 10 31  1  0  0  0  0
 10 32  1  0  0  0  0
 11 13  1  0  0  0  0
 11 21  1  0  0  0  0
 12 13  1  0  0  0  0
 12 14  1  0  0  0  0
 12 22  1  0  0  0  0
 13 23  1  0  0  0  0
 14 15  1  0  0  0  0
 14 24  1  0  0  0  0
 15 25  1  0  0  0  0
 15 26  1  0  0  0  0
 16 18  2  0  0  0  0
 17 27  1  0  0  0  0
 18 19  1  0  0  0  0
M  END
> <PUBCHEM_COMPOUND_CID>
135616173

> <PUBCHEM_CONFORMER_RMSD>
0.6

> <PUBCHEM_CONFORMER_DIVERSEORDER>
1
47
51
113
149
64
150
145
105
69
52
31
137
131
63
144
91
2
96
147
121
82
26
80
99
140
92
118
70
123
138
84
23
114
111
101
103
72
3
109
116
29
125
124
49
135
48
143
107
126
57
17
22
19
15
25
119
76
85
129
24
83
127
77
33
11
44
13
73
120
58
40
146
36
14
74
122
112
7
65
110
9
5
45
35
4
37
139
50
98
95
6
117
108
66
61
46
21
16
151
53
43
8
39
12
141
136
75
10
59
142
68
27
41
34
133
62
148
54
81
132
55
87
42
38
32
128
102
30
79
100
71
104
89
20
88
94
18
60
134
28
86
97
78
93
67
90
115
130
56
106

> <PUBCHEM_MMFF94_PARTIAL_CHARGES>
26
1 -0.34
10 -0.85
11 0.54
12 0.28
13 0.34
14 0.28
15 0.28
16 -0.03
17 0.04
18 0.14
19 0.72
2 -0.56
20 0.56
27 0.15
28 0.4
29 0.4
3 -0.68
30 0.37
31 0.4
32 0.4
4 -0.68
5 -0.57
6 0.05
7 -0.57
8 -0.58
9 -0.49

> <PUBCHEM_EFFECTIVE_ROTOR_COUNT>
3

> <PUBCHEM_PHARMACOPHORE_FEATURES>
12
1 10 donor
1 2 acceptor
1 3 acceptor
1 3 donor
1 4 acceptor
1 4 donor
1 5 acceptor
1 9 donor
3 6 7 17 cation
5 2 11 12 13 14 rings
5 6 7 16 17 18 rings
6 8 9 16 18 19 20 rings

> <PUBCHEM_HEAVY_ATOM_COUNT>
20

> <PUBCHEM_ATOM_DEF_STEREO_COUNT>
0

> <PUBCHEM_ATOM_UDEF_STEREO_COUNT>
4

> <PUBCHEM_BOND_DEF_STEREO_COUNT>
0

> <PUBCHEM_BOND_UDEF_STEREO_COUNT>
0

> <PUBCHEM_ISOTOPIC_ATOM_COUNT>
0

> <PUBCHEM_COMPONENT_COUNT>
1

> <PUBCHEM_CACTVS_TAUTO_COUNT>
-1

> <PUBCHEM_CONFORMER_ID>
081556AD00000001

> <PUBCHEM_MMFF94_ENERGY>
43.1484

> <PUBCHEM_FEATURE_SELFOVERLAP>
61.08

> <PUBCHEM_SHAPE_FINGERPRINT>
10062212 137 18408600349163937763
10646746 165 18202563964630498376
10922523 26 17988652895083179807
11132069 177 18272656723079211217
12236239 1 18113335310317792865
12403260 363 18411694422202856239
13140716 1 18411141346400886865
13583140 156 16773499028244578210
13675066 3 17917990572790228770
13862211 1 18269832185625651215
14004511 7 18410291389209375385
14178342 30 18341894035031248339
15375358 24 17346593058826952232
15442244 35 18408040723562721580
16752209 62 18341044194585361859
16945 1 18339652238360140015
17041 49 18334575741877716292
17492 89 18339082691300568038
17862501 102 18408879655092519043
1813 80 17241326842614163686
18186145 218 17702964555465703439
19078846 21 18333733498811972284
19422 9 18113621213448074570
20279233 1 17132115740496039990
20510252 161 18129951186277650145
2255824 54 17894915191431088932
23175994 123 15285359487707346703
23402539 116 18201709635368755148
23557571 272 17703796928585688483
23559900 14 17845383171984160236
23598291 2 18186522120104104828
2838139 119 17387114409440453261
296302 2 13039189216500833063
312423 11 18187938329671867957
3286 77 18261668272216109532
5104073 3 18410575114749099376
573450 72 18409724049799507682
7364860 26 18267302230501706888
74978 22 18261960768284577822
77492 1 18040436607011815713
9709674 26 18271818972222659838
9981440 41 17323799345370937904

> <PUBCHEM_SHAPE_MULTIPOLES>
355.93
8.57
2.2
1.1
0.77
0.5
-0.11
-0.79
1.51
-1.68
-0.12
1.39
-0.06
-1.27

> <PUBCHEM_SHAPE_SELFOVERLAP>
775.378

> <PUBCHEM_SHAPE_VOLUME>
194.8

> <PUBCHEM_COORDINATE_TYPE>
2
5
10

$$$$
