135625327
  -OEChem-03292013293D

 34 35  0     1  0  0  0  0  0999 V2000
   -1.8516   -0.4457   -0.5303 S   0  0  0  0  0  0  0  0  0  0  0  0
    2.4520   -2.4127    0.5413 O   0  0  0  0  0  0  0  0  0  0  0  0
   -4.8389   -0.0835   -2.1708 O   0  0  0  0  0  0  0  0  0  0  0  0
   -6.2107   -0.7125   -0.4772 O   0  0  0  0  0  0  0  0  0  0  0  0
    0.9167    0.1663    0.9681 N   0  0  0  0  0  0  0  0  0  0  0  0
    1.7161    2.1509    0.3393 N   0  0  0  0  0  0  0  0  0  0  0  0
    4.0677   -1.0525   -0.4092 N   0  0  0  0  0  0  0  0  0  0  0  0
    3.8578    1.3312   -0.5983 N   0  0  0  0  0  0  0  0  0  0  0  0
   -5.1366    1.2468    1.1225 N   0  0  0  0  0  0  0  0  0  0  0  0
    5.7657    0.2277   -1.3876 N   0  0  0  0  0  0  0  0  0  0  0  0
    0.0035   -0.8008    1.5275 C   0  0  0  0  0  0  0  0  0  0  0  0
    2.1367   -0.0737    0.4070 C   0  0  0  0  0  0  0  0  0  0  0  0
   -0.8330   -1.5547    0.4909 C   0  0  0  0  0  0  0  0  0  0  0  0
    2.6098    1.1606    0.0273 C   0  0  0  0  0  0  0  0  0  0  0  0
   -3.2009   -0.1814    0.6419 C   0  0  0  0  0  0  0  0  0  0  0  0
    0.7077    1.5195    0.9041 C   0  0  0  0  0  0  0  0  0  0  0  0
   -4.3111    0.6887    0.0496 C   0  0  1  0  0  0  0  0  0  0  0  0
    2.8448   -1.2980    0.2138 C   0  0  0  0  0  0  0  0  0  0  0  0
    4.5314    0.2196   -0.7892 C   0  0  0  0  0  0  0  0  0  0  0  0
   -5.2273   -0.0960   -0.8706 C   0  0  0  0  0  0  0  0  0  0  0  0
    0.5963   -1.5109    2.1152 H   0  0  0  0  0  0  0  0  0  0  0  0
   -0.6385   -0.2788    2.2466 H   0  0  0  0  0  0  0  0  0  0  0  0
   -0.1746   -2.0986   -0.1943 H   0  0  0  0  0  0  0  0  0  0  0  0
   -1.4690   -2.2997    0.9797 H   0  0  0  0  0  0  0  0  0  0  0  0
   -2.7764    0.3100    1.5237 H   0  0  0  0  0  0  0  0  0  0  0  0
   -3.6031   -1.1520    0.9538 H   0  0  0  0  0  0  0  0  0  0  0  0
   -0.1906    1.9872    1.2841 H   0  0  0  0  0  0  0  0  0  0  0  0
   -3.8985    1.5395   -0.5063 H   0  0  0  0  0  0  0  0  0  0  0  0
    4.6662   -1.8505   -0.6015 H   0  0  0  0  0  0  0  0  0  0  0  0
   -5.8213    1.8910    0.7276 H   0  0  0  0  0  0  0  0  0  0  0  0
   -4.5553    1.8025    1.7490 H   0  0  0  0  0  0  0  0  0  0  0  0
    6.1920    1.0935   -1.6996 H   0  0  0  0  0  0  0  0  0  0  0  0
    6.2876   -0.6291   -1.5358 H   0  0  0  0  0  0  0  0  0  0  0  0
   -5.4404   -0.6119   -2.7376 H   0  0  0  0  0  0  0  0  0  0  0  0
  1 13  1  0  0  0  0
  1 15  1  0  0  0  0
  2 18  2  0  0  0  0
  3 20  1  0  0  0  0
  3 34  1  0  0  0  0
  4 20  2  0  0  0  0
  5 11  1  0  0  0  0
  5 12  1  0  0  0  0
  5 16  1  0  0  0  0
  6 14  1  0  0  0  0
  6 16  2  0  0  0  0
  7 18  1  0  0  0  0
  7 19  1  0  0  0  0
  7 29  1  0  0  0  0
  8 14  1  0  0  0  0
  8 19  2  0  0  0  0
  9 17  1  0  0  0  0
  9 30  1  0  0  0  0
  9 31  1  0  0  0  0
 10 19  1  0  0  0  0
 10 32  1  0  0  0  0
 10 33  1  0  0  0  0
 11 13  1  0  0  0  0
 11 21  1  0  0  0  0
 11 22  1  0  0  0  0
 12 14  2  0  0  0  0
 12 18  1  0  0  0  0
 13 23  1  0  0  0  0
 13 24  1  0  0  0  0
 15 17  1  0  0  0  0
 15 25  1  0  0  0  0
 15 26  1  0  0  0  0
 16 27  1  0  0  0  0
 17 20  1  0  0  0  0
 17 28  1  0  0  0  0
M  END
> <PUBCHEM_COMPOUND_CID>
135625327

> <PUBCHEM_CONFORMER_RMSD>
0.8

> <PUBCHEM_CONFORMER_DIVERSEORDER>
1
88
14
51
171
113
158
49
46
147
126
107
141
169
58
215
114
99
196
174
94
37
149
102
56
44
54
164
30
200
130
95
71
122
190
4
34
118
67
105
151
31
92
17
172
187
194
216
10
104
205
40
112
33
22
121
179
157
218
19
45
11
32
83
208
132
180
59
199
29
195
117
9
20
12
7
142
15
155
204
43
206
146
144
38
181
137
23
48
64
111
97
89
65
209
219
60
124
153
131
52
27
108
68
66
62
74
35
186
91
143
127
139
133
80
135
128
75
63
36
84
177
3
77
55
145
148
168
69
217
185
42
192
53
93
175
76
160
72
21
5
166
202
61
41
189
154
183
6
214
165
211
115
173
26
16
81
106
161
152
90
18
167
203
39
136
193
109
178
198
25
201
220
188
134
163
100
156
13
8
87
125
207
82
119
116
24
182
162
120
159
101
73
140
150
110
47
98
96
70
103
197
86
170
2
212
138
176
57
78
210
79
28
129
191
85
50
213
184
123

> <PUBCHEM_MMFF94_PARTIAL_CHARGES>
27
1 -0.46
10 -0.85
11 0.26
12 -0.24
13 0.23
14 0.35
15 0.23
16 0.04
17 0.33
18 0.71
19 0.56
2 -0.57
20 0.66
27 0.15
29 0.37
3 -0.65
30 0.36
31 0.36
32 0.4
33 0.4
34 0.5
4 -0.57
5 0.05
6 -0.57
7 -0.49
8 -0.57
9 -0.99

> <PUBCHEM_EFFECTIVE_ROTOR_COUNT>
6

> <PUBCHEM_PHARMACOPHORE_FEATURES>
11
1 10 donor
1 2 acceptor
1 3 acceptor
1 4 acceptor
1 7 donor
1 9 cation
1 9 donor
3 3 4 20 anion
3 5 6 16 cation
5 5 6 12 14 16 rings
6 7 8 12 14 18 19 rings

> <PUBCHEM_HEAVY_ATOM_COUNT>
20

> <PUBCHEM_ATOM_DEF_STEREO_COUNT>
1

> <PUBCHEM_ATOM_UDEF_STEREO_COUNT>
0

> <PUBCHEM_BOND_DEF_STEREO_COUNT>
0

> <PUBCHEM_BOND_UDEF_STEREO_COUNT>
0

> <PUBCHEM_ISOTOPIC_ATOM_COUNT>
0

> <PUBCHEM_COMPONENT_COUNT>
1

> <PUBCHEM_CACTVS_TAUTO_COUNT>
-1

> <PUBCHEM_CONFORMER_ID>
08157A6F00000001

> <PUBCHEM_MMFF94_ENERGY>
33.1825

> <PUBCHEM_FEATURE_SELFOVERLAP>
56.049

> <PUBCHEM_SHAPE_FINGERPRINT>
10366900 7 17967529082597452065
10498660 4 17167850946926343989
10693767 8 18200881660981720614
11471102 20 18408604764437608938
11796584 16 15482678948403544853
12236239 1 17847065462680302746
12730499 353 18186525427139421155
14251751 18 15338829906845662781
14576447 43 18272089374957985656
15183329 4 18412267224489442678
15475509 35 14548463454258383574
15788980 27 13110960916641972681
17834072 33 18410570708650846407
17834072 8 18410860975061374772
20645477 70 18410293579653817426
21033648 29 17676756631299159349
21637258 2 15984834675586097030
221357 26 18411132533386334589
22224240 67 8502369997640242204
22289505 5 18260540095955605004
231179 274 17458339745372472065
23402539 116 17775570818949581289
23402655 69 18409732871757324450
25 1 18259988193111866602
3009799 131 18412545436240632612
341906 21 14996548552996085439
351380 3 17704352182580136277
4072396 5 18261663832164158354
6442390 28 17095244752146690763
7064713 232 11818996292283114049
7164475 11 18195528082724788720

> <PUBCHEM_SHAPE_MULTIPOLES>
367.95
12.99
1.74
1.31
11.09
0.1
-0.28
-1
-5.94
-1.28
0.42
0.75
-0.02
-0.62

> <PUBCHEM_SHAPE_SELFOVERLAP>
758.643

> <PUBCHEM_SHAPE_VOLUME>
213.1

> <PUBCHEM_COORDINATE_TYPE>
2
5
10

$$$$
