135625323
  -OEChem-03292013293D

 55 57  0     1  0  0  0  0  0999 V2000
    4.4628   -0.1810   -2.6751 O   0  0  0  0  0  0  0  0  0  0  0  0
    7.1212   -3.1837    0.3786 O   0  0  0  0  0  0  0  0  0  0  0  0
    4.9852   -3.0064    1.1246 O   0  0  0  0  0  0  0  0  0  0  0  0
    7.4273    1.8814    2.9893 O   0  0  0  0  0  0  0  0  0  0  0  0
    8.4704    1.8762    0.9746 O   0  0  0  0  0  0  0  0  0  0  0  0
   -6.1471   -0.5512   -2.2453 O   0  0  0  0  0  0  0  0  0  0  0  0
    4.4690   -0.9079   -0.4727 N   0  0  0  0  0  0  0  0  0  0  0  0
   -4.8792    1.0745   -0.4716 N   0  0  0  0  0  0  0  0  0  0  0  0
   -5.4578    0.6824    2.2508 N   0  0  0  0  0  0  0  0  0  0  0  0
   -7.2555   -1.6474   -0.5298 N   0  0  0  0  0  0  0  0  0  0  0  0
   -6.9374   -1.0592    1.7307 N   0  0  0  0  0  0  0  0  0  0  0  0
   -8.4065   -2.7943    1.1534 N   0  0  0  0  0  0  0  0  0  0  0  0
   -1.8687    2.4462   -0.0329 C   0  0  0  0  0  0  0  0  0  0  0  0
   -1.6046    1.3201   -1.0556 C   0  0  0  0  0  0  0  0  0  0  0  0
   -3.3365    2.8910    0.0643 C   0  0  0  0  0  0  0  0  0  0  0  0
    5.8400   -1.3507   -0.4439 C   0  0  1  0  0  0  0  0  0  0  0  0
   -0.1843    0.8874   -1.1972 C   0  0  0  0  0  0  0  0  0  0  0  0
    6.8135   -0.2373   -0.0393 C   0  0  0  0  0  0  0  0  0  0  0  0
    2.4723    0.0787   -1.4631 C   0  0  0  0  0  0  0  0  0  0  0  0
   -4.3092    1.8214    0.4928 C   0  0  0  0  0  0  0  0  0  0  0  0
    0.3152   -0.1404   -0.3974 C   0  0  0  0  0  0  0  0  0  0  0  0
    0.6445    1.5109   -2.1301 C   0  0  0  0  0  0  0  0  0  0  0  0
    6.6231    0.3380    1.3700 C   0  0  0  0  0  0  0  0  0  0  0  0
    3.8872   -0.3518   -1.6037 C   0  0  0  0  0  0  0  0  0  0  0  0
    1.6435   -0.5449   -0.5304 C   0  0  0  0  0  0  0  0  0  0  0  0
    1.9728    1.1065   -2.2630 C   0  0  0  0  0  0  0  0  0  0  0  0
    5.9079   -2.5755    0.4452 C   0  0  0  0  0  0  0  0  0  0  0  0
   -4.5929    1.6291    1.8282 C   0  0  0  0  0  0  0  0  0  0  0  0
   -5.7401    0.1332   -0.0383 C   0  0  0  0  0  0  0  0  0  0  0  0
    7.5999    1.4411    1.7156 C   0  0  0  0  0  0  0  0  0  0  0  0
   -6.0371   -0.0741    1.2956 C   0  0  0  0  0  0  0  0  0  0  0  0
   -6.3851   -0.7050   -1.0539 C   0  0  0  0  0  0  0  0  0  0  0  0
   -7.5136   -1.8071    0.8296 C   0  0  0  0  0  0  0  0  0  0  0  0
   -1.2584    3.3190   -0.2977 H   0  0  0  0  0  0  0  0  0  0  0  0
   -1.5246    2.1165    0.9560 H   0  0  0  0  0  0  0  0  0  0  0  0
   -2.2058    0.4402   -0.7934 H   0  0  0  0  0  0  0  0  0  0  0  0
   -1.9825    1.6378   -2.0368 H   0  0  0  0  0  0  0  0  0  0  0  0
    6.0955   -1.6866   -1.4571 H   0  0  0  0  0  0  0  0  0  0  0  0
   -3.4079    3.7399    0.7560 H   0  0  0  0  0  0  0  0  0  0  0  0
   -3.6560    3.2766   -0.9126 H   0  0  0  0  0  0  0  0  0  0  0  0
    6.7345    0.5839   -0.7642 H   0  0  0  0  0  0  0  0  0  0  0  0
    7.8415   -0.6138   -0.1229 H   0  0  0  0  0  0  0  0  0  0  0  0
    3.9561   -0.9425    0.4022 H   0  0  0  0  0  0  0  0  0  0  0  0
    6.7493   -0.4594    2.1107 H   0  0  0  0  0  0  0  0  0  0  0  0
    5.6131    0.7512    1.4662 H   0  0  0  0  0  0  0  0  0  0  0  0
   -0.3221   -0.6369    0.3298 H   0  0  0  0  0  0  0  0  0  0  0  0
    0.2679    2.3149   -2.7569 H   0  0  0  0  0  0  0  0  0  0  0  0
    1.9830   -1.3691    0.0897 H   0  0  0  0  0  0  0  0  0  0  0  0
    2.6041    1.6080   -2.9917 H   0  0  0  0  0  0  0  0  0  0  0  0
   -4.1368    2.2247    2.6103 H   0  0  0  0  0  0  0  0  0  0  0  0
    7.1591   -3.9857    0.9423 H   0  0  0  0  0  0  0  0  0  0  0  0
   -7.7362   -2.2613   -1.1808 H   0  0  0  0  0  0  0  0  0  0  0  0
    8.0706    2.5841    3.2233 H   0  0  0  0  0  0  0  0  0  0  0  0
   -8.6549   -2.9818    2.1187 H   0  0  0  0  0  0  0  0  0  0  0  0
   -8.8449   -3.3659    0.4397 H   0  0  0  0  0  0  0  0  0  0  0  0
  1 24  2  0  0  0  0
  2 27  1  0  0  0  0
  2 51  1  0  0  0  0
  3 27  2  0  0  0  0
  4 30  1  0  0  0  0
  4 53  1  0  0  0  0
  5 30  2  0  0  0  0
  6 32  2  0  0  0  0
  7 16  1  0  0  0  0
  7 24  1  0  0  0  0
  7 43  1  0  0  0  0
  8 20  1  0  0  0  0
  8 29  2  0  0  0  0
  9 28  1  0  0  0  0
  9 31  2  0  0  0  0
 10 32  1  0  0  0  0
 10 33  1  0  0  0  0
 10 52  1  0  0  0  0
 11 31  1  0  0  0  0
 11 33  2  0  0  0  0
 12 33  1  0  0  0  0
 12 54  1  0  0  0  0
 12 55  1  0  0  0  0
 13 14  1  0  0  0  0
 13 15  1  0  0  0  0
 13 34  1  0  0  0  0
 13 35  1  0  0  0  0
 14 17  1  0  0  0  0
 14 36  1  0  0  0  0
 14 37  1  0  0  0  0
 15 20  1  0  0  0  0
 15 39  1  0  0  0  0
 15 40  1  0  0  0  0
 16 18  1  0  0  0  0
 16 27  1  0  0  0  0
 16 38  1  0  0  0  0
 17 21  2  0  0  0  0
 17 22  1  0  0  0  0
 18 23  1  0  0  0  0
 18 41  1  0  0  0  0
 18 42  1  0  0  0  0
 19 24  1  0  0  0  0
 19 25  2  0  0  0  0
 19 26  1  0  0  0  0
 20 28  2  0  0  0  0
 21 25  1  0  0  0  0
 21 46  1  0  0  0  0
 22 26  2  0  0  0  0
 22 47  1  0  0  0  0
 23 30  1  0  0  0  0
 23 44  1  0  0  0  0
 23 45  1  0  0  0  0
 25 48  1  0  0  0  0
 26 49  1  0  0  0  0
 28 50  1  0  0  0  0
 29 31  1  0  0  0  0
 29 32  1  0  0  0  0
M  END
> <PUBCHEM_COMPOUND_CID>
135625323

> <PUBCHEM_CONFORMER_RMSD>
1

> <PUBCHEM_CONFORMER_DIVERSEORDER>
3
131
62
36
270
173
150
68
41
178
47
219
238
260
137
4
112
184
107
55
242
146
223
187
120
34
269
81
267
250
170
201
5
31
188
99
159
205
164
194
268
37
91
73
152
224
189
280
109
2
278
232
78
114
275
72
281
195
75
17
117
214
247
265
64
135
257
82
104
227
193
251
56
248
44
116
266
12
231
33
19
230
79
256
113
143
191
69
172
130
142
29
88
196
272
132
60
153
249
169
283
234
45
277
122
35
26
171
192
168
25
243
161
179
52
148
181
139
174
207
10
180
246
185
128
61
211
53
63
264
166
215
236
199
27
92
226
213
24
263
93
11
15
77
218
43
83
190
48
111
258
32
245
176
7
66
282
126
102
208
209
157
110
129
240
244
74
136
145
28
118
16
239
144
154
97
254
67
210
182
149
13
22
262
40
85
125
84
76
140
8
123
23
134
274
96
65
50
175
21
222
163
279
108
39
235
217
54
253
18
276
229
101
225
204
57
20
49
115
183
46
228
38
220
202
177
237
9
151
124
241
252
1
42
198
162
95
87
70
255
158
30
200
155
206
233
6
51
98
105
59
58
212
119
86
133
156
160
138
89
100
271
197
167
94
216
103
71
259
80
284
141
165
221
273
203
121
147
186
261
127
14
106
90

> <PUBCHEM_MMFF94_PARTIAL_CHARGES>
42
1 -0.57
10 -0.49
11 -0.63
12 -0.85
14 0.14
15 0.14
16 0.36
17 -0.14
19 0.09
2 -0.65
20 0.17
21 -0.15
22 -0.15
23 0.06
24 0.54
25 -0.15
26 -0.15
27 0.66
28 0.16
29 0.4
3 -0.57
30 0.66
31 0.49
32 0.54
33 0.56
4 -0.65
43 0.37
46 0.15
47 0.15
48 0.15
49 0.15
5 -0.57
50 0.15
51 0.5
52 0.37
53 0.5
54 0.4
55 0.4
6 -0.57
7 -0.73
8 -0.62
9 -0.62

> <PUBCHEM_EFFECTIVE_ROTOR_COUNT>
11

> <PUBCHEM_PHARMACOPHORE_FEATURES>
16
1 1 acceptor
1 10 donor
1 12 donor
1 2 acceptor
1 3 acceptor
1 4 acceptor
1 5 acceptor
1 6 acceptor
1 7 donor
1 8 acceptor
3 2 3 27 anion
3 4 5 30 anion
3 9 11 31 cation
6 10 11 29 31 32 33 rings
6 17 19 21 22 25 26 rings
6 8 9 20 28 29 31 rings

> <PUBCHEM_HEAVY_ATOM_COUNT>
33

> <PUBCHEM_ATOM_DEF_STEREO_COUNT>
1

> <PUBCHEM_ATOM_UDEF_STEREO_COUNT>
0

> <PUBCHEM_BOND_DEF_STEREO_COUNT>
0

> <PUBCHEM_BOND_UDEF_STEREO_COUNT>
0

> <PUBCHEM_ISOTOPIC_ATOM_COUNT>
0

> <PUBCHEM_COMPONENT_COUNT>
1

> <PUBCHEM_CACTVS_TAUTO_COUNT>
-1

> <PUBCHEM_CONFORMER_ID>
08157A6B00000003

> <PUBCHEM_MMFF94_ENERGY>
75.5156

> <PUBCHEM_FEATURE_SELFOVERLAP>
81.408

> <PUBCHEM_SHAPE_FINGERPRINT>
10 15 17418373592740263364
10391435 84 18113612396228479467
12120059 9 17531228540331685706
12708847 88 17387139869859436468
13782708 43 18261397685303390604
14026016 13 17843675802616462952
14664723 55 9079122167933372007
14849402 71 17131827724432468008
15064981 113 14129602407897025819
15150950 15 18200873002459689808
15183329 4 17530975673794718334
15519825 34 18260264183246262560
20028762 73 18041569044096876890
2026 5 17458347420917510699
21130935 74 18336829672069130842
21315764 119 7925623424001137680
21647283 7 17774719758527229072
21987483 16 18196937880043795443
23389318 12 17313398829039788326
3383291 50 17967258611000296555
3504750 166 17680990695304793964
3711267 37 14261352453377780698
397830 11 17989488502556586508
42767 39 17385437717667012218
44880568 143 15285362838510098711
474113 269 15285625587445144256
504579 68 11530477852564051085
5109719 28 17418373619227485232
531348 171 14201403781149977417
5874358 3 17022893562818316554
5937810 71 9510876194309506630
6201320 221 14779806258066105776
6697151 62 16081377366545130980
9689198 14 11815893470168667940

> <PUBCHEM_SHAPE_MULTIPOLES>
614.02
28.76
2.96
2.39
3.56
1.16
-0.15
13.06
-15.58
0.58
-1.03
1.56
-0.89
1.58

> <PUBCHEM_SHAPE_SELFOVERLAP>
1307.26

> <PUBCHEM_SHAPE_VOLUME>
337.1

> <PUBCHEM_COORDINATE_TYPE>
2
5
10

$$$$
