135625328
  -OEChem-03292013293D

 34 36  0     1  0  0  0  0  0999 V2000
   -2.1526   -0.6362   -0.7855 O   0  0  0  0  0  0  0  0  0  0  0  0
   -4.0310    1.2412    1.6178 O   0  0  0  0  0  0  0  0  0  0  0  0
   -4.5975   -1.8849   -1.4239 O   0  0  0  0  0  0  0  0  0  0  0  0
    4.3987   -1.7655    0.7098 O   0  0  0  0  0  0  0  0  0  0  0  0
    0.1325   -0.4496    0.0149 N   0  0  0  0  0  0  0  0  0  0  0  0
   -1.2207    2.4444    0.8902 N   0  0  0  0  0  0  0  0  0  0  0  0
    1.4467   -2.0898    0.7792 N   0  0  0  0  0  0  0  0  0  0  0  0
    1.7960    1.1721   -0.6649 N   0  0  0  0  0  0  0  0  0  0  0  0
    3.9984    0.3325   -0.2347 N   0  0  0  0  0  0  0  0  0  0  0  0
    3.6884    2.4614   -1.1911 N   0  0  0  0  0  0  0  0  0  0  0  0
   -1.7340    1.0837    0.8164 C   0  0  2  0  0  0  0  0  0  0  0  0
   -1.1325    0.2898   -0.3472 C   0  0  2  0  0  0  0  0  0  0  0  0
   -3.2137    1.0487    0.4799 C   0  0  1  0  0  0  0  0  0  0  0  0
   -3.3608   -0.3653   -0.0576 C   0  0  1  0  0  0  0  0  0  0  0  0
   -4.5596   -0.5412   -0.9721 C   0  0  0  0  0  0  0  0  0  0  0  0
    1.4155   -0.0160   -0.1453 C   0  0  0  0  0  0  0  0  0  0  0  0
    0.2031   -1.7020    0.5746 C   0  0  0  0  0  0  0  0  0  0  0  0
    2.1954   -1.0418    0.3315 C   0  0  0  0  0  0  0  0  0  0  0  0
    3.6254   -0.9056    0.3073 C   0  0  0  0  0  0  0  0  0  0  0  0
    3.1022    1.3241   -0.6992 C   0  0  0  0  0  0  0  0  0  0  0  0
   -1.5468    0.5869    1.7770 H   0  0  0  0  0  0  0  0  0  0  0  0
   -0.8779    0.9162   -1.2110 H   0  0  0  0  0  0  0  0  0  0  0  0
   -3.4724    1.7951   -0.2812 H   0  0  0  0  0  0  0  0  0  0  0  0
   -3.4168   -1.1019    0.7545 H   0  0  0  0  0  0  0  0  0  0  0  0
   -4.4768    0.1025   -1.8540 H   0  0  0  0  0  0  0  0  0  0  0  0
   -5.4932   -0.3185   -0.4464 H   0  0  0  0  0  0  0  0  0  0  0  0
   -0.2237    2.4242    1.1000 H   0  0  0  0  0  0  0  0  0  0  0  0
   -1.6695    2.9387    1.6599 H   0  0  0  0  0  0  0  0  0  0  0  0
   -3.7851    0.5809    2.2877 H   0  0  0  0  0  0  0  0  0  0  0  0
   -0.6794   -2.2794    0.8140 H   0  0  0  0  0  0  0  0  0  0  0  0
   -5.3718   -1.9696   -2.0060 H   0  0  0  0  0  0  0  0  0  0  0  0
    4.9923    0.5332   -0.2988 H   0  0  0  0  0  0  0  0  0  0  0  0
    3.1288    3.2286   -1.5472 H   0  0  0  0  0  0  0  0  0  0  0  0
    4.6965    2.5696   -1.2137 H   0  0  0  0  0  0  0  0  0  0  0  0
  1 12  1  0  0  0  0
  1 14  1  0  0  0  0
  2 13  1  0  0  0  0
  2 29  1  0  0  0  0
  3 15  1  0  0  0  0
  3 31  1  0  0  0  0
  4 19  2  0  0  0  0
  5 12  1  0  0  0  0
  5 16  1  0  0  0  0
  5 17  1  0  0  0  0
  6 11  1  0  0  0  0
  6 27  1  0  0  0  0
  6 28  1  0  0  0  0
  7 17  2  0  0  0  0
  7 18  1  0  0  0  0
  8 16  1  0  0  0  0
  8 20  2  0  0  0  0
  9 19  1  0  0  0  0
  9 20  1  0  0  0  0
  9 32  1  0  0  0  0
 10 20  1  0  0  0  0
 10 33  1  0  0  0  0
 10 34  1  0  0  0  0
 11 12  1  0  0  0  0
 11 13  1  0  0  0  0
 11 21  1  0  0  0  0
 12 22  1  0  0  0  0
 13 14  1  0  0  0  0
 13 23  1  0  0  0  0
 14 15  1  0  0  0  0
 14 24  1  0  0  0  0
 15 25  1  0  0  0  0
 15 26  1  0  0  0  0
 16 18  2  0  0  0  0
 17 30  1  0  0  0  0
 18 19  1  0  0  0  0
M  END
> <PUBCHEM_COMPOUND_CID>
135625328

> <PUBCHEM_CONFORMER_RMSD>
0.6

> <PUBCHEM_CONFORMER_DIVERSEORDER>
1
24
8
3
17
19
7
10
20
11
12
21
4
18
25
9
5
13
23
2
6
14
16
15
22

> <PUBCHEM_MMFF94_PARTIAL_CHARGES>
28
1 -0.56
10 -0.85
11 0.27
12 0.54
13 0.28
14 0.28
15 0.28
16 -0.03
17 0.04
18 0.14
19 0.72
2 -0.68
20 0.56
27 0.36
28 0.36
29 0.4
3 -0.68
30 0.15
31 0.4
32 0.37
33 0.4
34 0.4
4 -0.57
5 0.05
6 -0.99
7 -0.57
8 -0.58
9 -0.49

> <PUBCHEM_EFFECTIVE_ROTOR_COUNT>
3

> <PUBCHEM_PHARMACOPHORE_FEATURES>
14
1 1 acceptor
1 10 donor
1 2 acceptor
1 2 donor
1 3 acceptor
1 3 donor
1 4 acceptor
1 6 cation
1 6 donor
1 9 donor
3 5 7 17 cation
5 1 11 12 13 14 rings
5 5 7 16 17 18 rings
6 8 9 16 18 19 20 rings

> <PUBCHEM_HEAVY_ATOM_COUNT>
20

> <PUBCHEM_ATOM_DEF_STEREO_COUNT>
3

> <PUBCHEM_ATOM_UDEF_STEREO_COUNT>
1

> <PUBCHEM_BOND_DEF_STEREO_COUNT>
0

> <PUBCHEM_BOND_UDEF_STEREO_COUNT>
0

> <PUBCHEM_ISOTOPIC_ATOM_COUNT>
0

> <PUBCHEM_COMPONENT_COUNT>
1

> <PUBCHEM_CACTVS_TAUTO_COUNT>
-1

> <PUBCHEM_CONFORMER_ID>
08157A7000000001

> <PUBCHEM_MMFF94_ENERGY>
42.2141

> <PUBCHEM_FEATURE_SELFOVERLAP>
71.23

> <PUBCHEM_SHAPE_FINGERPRINT>
10062212 137 18341330020210657321
11471102 20 18114178631858216990
11578080 2 18125405731989076489
11615757 297 18334008367691092846
12236239 1 18342172263097053295
12403260 363 18260821579902019064
12616971 3 18410017606893709705
13009979 54 18127410055960570922
13140716 1 18186810209710318258
13583140 156 16153702167303514496
13760787 5 18407762538636285829
13862211 1 18115017486659482122
14787075 74 18118407482417457235
15375462 189 18413394220135283025
16752209 62 17703494533619935887
16945 1 18114181883217090250
17862501 102 18338509751426711514
18186145 218 18335145275941837726
18222031 100 18188760636127587482
19050596 39 18340210700067176753
192875 21 18334851701979165096
19422 9 18343584031864123063
200 152 18408597055098049455
20645477 70 17895185602007925942
21267235 1 18410862040187338543
21709351 56 18261670372460333702
2255824 54 18260834774257986154
22854114 111 18334019371698011496
23402539 116 18272362049267105974
23557571 272 17132115736306639234
23559900 14 18335412474410827018
312423 11 18413395332020148423
3286 77 18130495401309406528
4409770 3 16030711488232064798
474 4 18187930624806740908
5104073 3 18410857654951403041
57096353 35 18340769333647089429
602551 16 16558455495943570463
633830 44 18338253599297298014
67856867 119 18339071683615399312
77492 1 18342177752081062237
9981440 41 17688584279716397696

> <PUBCHEM_SHAPE_MULTIPOLES>
358.23
9.06
2.25
1.12
2.22
0.42
0
-0.79
1.46
-1
-0.09
0.83
0.15
-2.45

> <PUBCHEM_SHAPE_SELFOVERLAP>
775.678

> <PUBCHEM_SHAPE_VOLUME>
195.8

> <PUBCHEM_COORDINATE_TYPE>
2
5
10

$$$$
