135600312
  -OEChem-03292013293D

 53 55  0     1  0  0  0  0  0999 V2000
   -1.8335   -2.7631    0.1119 O   0  0  0  0  0  0  0  0  0  0  0  0
    7.7424   -0.6799    0.1104 O   0  0  0  0  0  0  0  0  0  0  0  0
    6.0666   -1.6572    1.2879 O   0  0  0  0  0  0  0  0  0  0  0  0
    3.4917   -0.6803   -2.5992 O   0  0  0  0  0  0  0  0  0  0  0  0
    5.0347    3.9799    1.9866 O   0  0  0  0  0  0  0  0  0  0  0  0
    5.6342    4.1411   -0.1955 O   0  0  0  0  0  0  0  0  0  0  0  0
   -5.4473   -0.4442   -2.2354 O   0  0  0  0  0  0  0  0  0  0  0  0
    4.1799   -0.7278   -0.3849 N   0  0  0  0  0  0  0  0  0  0  0  0
   -4.4714   -1.1021    0.2163 N   0  0  0  0  0  0  0  0  0  0  0  0
   -4.3369    0.9565    2.1253 N   0  0  0  0  0  0  0  0  0  0  0  0
   -5.7629    1.7561   -1.5785 N   0  0  0  0  0  0  0  0  0  0  0  0
   -5.2195    2.4947    0.5932 N   0  0  0  0  0  0  0  0  0  0  0  0
   -6.1056    3.9917   -0.9802 N   0  0  0  0  0  0  0  0  0  0  0  0
    5.5153   -0.2358   -0.6113 C   0  0  1  0  0  0  0  0  0  0  0  0
    5.5982    1.2947   -0.5648 C   0  0  0  0  0  0  0  0  0  0  0  0
    5.2308    1.9437    0.7757 C   0  0  0  0  0  0  0  0  0  0  0  0
    6.4329   -0.9286    0.3751 C   0  0  0  0  0  0  0  0  0  0  0  0
    3.2668   -0.9113   -1.4141 C   0  0  0  0  0  0  0  0  0  0  0  0
    1.9228   -1.4003   -1.0123 C   0  0  0  0  0  0  0  0  0  0  0  0
   -3.5506   -2.7110    1.8089 C   0  0  0  0  0  0  0  0  0  0  0  0
   -2.0719   -2.9305    1.5087 C   0  0  0  0  0  0  0  0  0  0  0  0
   -4.0056   -1.3144    1.4616 C   0  0  0  0  0  0  0  0  0  0  0  0
   -0.6016   -2.3163   -0.2566 C   0  0  0  0  0  0  0  0  0  0  0  0
    5.3168    3.4545    0.7657 C   0  0  0  0  0  0  0  0  0  0  0  0
    0.8079   -1.0967   -1.7937 C   0  0  0  0  0  0  0  0  0  0  0  0
    1.7754   -2.1621    0.1468 C   0  0  0  0  0  0  0  0  0  0  0  0
   -0.4543   -1.5546   -1.4159 C   0  0  0  0  0  0  0  0  0  0  0  0
    0.5132   -2.6200    0.5248 C   0  0  0  0  0  0  0  0  0  0  0  0
   -4.8648    0.1597   -0.0444 C   0  0  0  0  0  0  0  0  0  0  0  0
   -3.9398   -0.3048    2.3981 C   0  0  0  0  0  0  0  0  0  0  0  0
   -4.8059    1.1846    0.8811 C   0  0  0  0  0  0  0  0  0  0  0  0
   -5.3798    0.4378   -1.3888 C   0  0  0  0  0  0  0  0  0  0  0  0
   -5.6783    2.7462   -0.6025 C   0  0  0  0  0  0  0  0  0  0  0  0
    5.8213   -0.5717   -1.6105 H   0  0  0  0  0  0  0  0  0  0  0  0
    6.6170    1.6054   -0.8314 H   0  0  0  0  0  0  0  0  0  0  0  0
    4.9442    1.7094   -1.3434 H   0  0  0  0  0  0  0  0  0  0  0  0
    5.9075    1.5792    1.5564 H   0  0  0  0  0  0  0  0  0  0  0  0
    4.2038    1.6747    1.0464 H   0  0  0  0  0  0  0  0  0  0  0  0
    3.8968   -0.8624    0.5802 H   0  0  0  0  0  0  0  0  0  0  0  0
   -4.1500   -3.4177    1.2212 H   0  0  0  0  0  0  0  0  0  0  0  0
   -3.7575   -2.9198    2.8651 H   0  0  0  0  0  0  0  0  0  0  0  0
   -1.7918   -3.9508    1.7948 H   0  0  0  0  0  0  0  0  0  0  0  0
   -1.4931   -2.2157    2.1086 H   0  0  0  0  0  0  0  0  0  0  0  0
    0.9012   -0.5004   -2.6976 H   0  0  0  0  0  0  0  0  0  0  0  0
    2.6219   -2.4520    0.7623 H   0  0  0  0  0  0  0  0  0  0  0  0
   -1.3199   -1.3135   -2.0269 H   0  0  0  0  0  0  0  0  0  0  0  0
    0.4469   -3.2393    1.4144 H   0  0  0  0  0  0  0  0  0  0  0  0
   -3.5647   -0.4676    3.4018 H   0  0  0  0  0  0  0  0  0  0  0  0
    8.3364   -1.1416    0.7399 H   0  0  0  0  0  0  0  0  0  0  0  0
   -6.1291    2.0160   -2.4896 H   0  0  0  0  0  0  0  0  0  0  0  0
    5.1071    4.9582    1.9890 H   0  0  0  0  0  0  0  0  0  0  0  0
   -6.0804    4.7737   -0.3349 H   0  0  0  0  0  0  0  0  0  0  0  0
   -6.4592    4.1690   -1.9141 H   0  0  0  0  0  0  0  0  0  0  0  0
  1 21  1  0  0  0  0
  1 23  1  0  0  0  0
  2 17  1  0  0  0  0
  2 49  1  0  0  0  0
  3 17  2  0  0  0  0
  4 18  2  0  0  0  0
  5 24  1  0  0  0  0
  5 51  1  0  0  0  0
  6 24  2  0  0  0  0
  7 32  2  0  0  0  0
  8 14  1  0  0  0  0
  8 18  1  0  0  0  0
  8 39  1  0  0  0  0
  9 22  1  0  0  0  0
  9 29  2  0  0  0  0
 10 30  1  0  0  0  0
 10 31  2  0  0  0  0
 11 32  1  0  0  0  0
 11 33  1  0  0  0  0
 11 50  1  0  0  0  0
 12 31  1  0  0  0  0
 12 33  2  0  0  0  0
 13 33  1  0  0  0  0
 13 52  1  0  0  0  0
 13 53  1  0  0  0  0
 14 15  1  0  0  0  0
 14 17  1  0  0  0  0
 14 34  1  0  0  0  0
 15 16  1  0  0  0  0
 15 35  1  0  0  0  0
 15 36  1  0  0  0  0
 16 24  1  0  0  0  0
 16 37  1  0  0  0  0
 16 38  1  0  0  0  0
 18 19  1  0  0  0  0
 19 25  2  0  0  0  0
 19 26  1  0  0  0  0
 20 21  1  0  0  0  0
 20 22  1  0  0  0  0
 20 40  1  0  0  0  0
 20 41  1  0  0  0  0
 21 42  1  0  0  0  0
 21 43  1  0  0  0  0
 22 30  2  0  0  0  0
 23 27  2  0  0  0  0
 23 28  1  0  0  0  0
 25 27  1  0  0  0  0
 25 44  1  0  0  0  0
 26 28  2  0  0  0  0
 26 45  1  0  0  0  0
 27 46  1  0  0  0  0
 28 47  1  0  0  0  0
 29 31  1  0  0  0  0
 29 32  1  0  0  0  0
 30 48  1  0  0  0  0
M  END
> <PUBCHEM_COMPOUND_CID>
135600312

> <PUBCHEM_CONFORMER_RMSD>
1

> <PUBCHEM_CONFORMER_DIVERSEORDER>
1
81
68
221
71
99
66
62
30
87
18
185
53
27
54
86
214
21
113
139
117
175
131
102
242
195
28
56
247
73
107
36
147
120
6
116
121
128
171
19
63
151
31
98
137
180
67
39
57
29
230
238
58
109
184
191
159
189
26
154
226
133
76
78
69
88
89
193
183
104
222
240
123
129
74
105
210
169
8
7
75
197
110
150
187
77
178
213
82
234
97
182
164
155
208
186
5
138
202
134
223
17
200
50
16
148
25
245
132
33
85
206
218
241
90
153
35
243
167
209
46
220
232
40
61
79
24
20
47
136
49
64
14
196
204
37
201
124
217
179
225
9
198
140
10
55
11
83
161
166
144
181
60
70
237
192
13
96
229
34
92
168
236
101
38
143
3
158
80
114
142
2
94
84
203
224
163
42
248
244
190
246
174
199
233
112
176
32
125
65
207
211
228
95
108
149
135
235
106
165
126
162
119
160
194
227
145
172
130
219
4
152
100
188
115
52
59
103
91
15
22
118
23
215
212
44
122
216
51
173
127
239
177
43
12
205
111
156
231
93
48
45
157
141
170
72
146
41

> <PUBCHEM_MMFF94_PARTIAL_CHARGES>
43
1 -0.36
10 -0.62
11 -0.49
12 -0.63
13 -0.85
14 0.36
16 0.06
17 0.66
18 0.54
19 0.09
2 -0.65
20 0.14
21 0.28
22 0.17
23 0.08
24 0.66
25 -0.15
26 -0.15
27 -0.15
28 -0.15
29 0.4
3 -0.57
30 0.16
31 0.49
32 0.54
33 0.56
39 0.37
4 -0.57
44 0.15
45 0.15
46 0.15
47 0.15
48 0.15
49 0.5
5 -0.65
50 0.37
51 0.5
52 0.4
53 0.4
6 -0.57
7 -0.57
8 -0.73
9 -0.62

> <PUBCHEM_EFFECTIVE_ROTOR_COUNT>
11

> <PUBCHEM_PHARMACOPHORE_FEATURES>
17
1 1 acceptor
1 11 donor
1 13 donor
1 2 acceptor
1 3 acceptor
1 4 acceptor
1 5 acceptor
1 6 acceptor
1 7 acceptor
1 8 donor
1 9 acceptor
3 10 12 31 cation
3 2 3 17 anion
3 5 6 24 anion
6 11 12 29 31 32 33 rings
6 19 23 25 26 27 28 rings
6 9 10 22 29 30 31 rings

> <PUBCHEM_HEAVY_ATOM_COUNT>
33

> <PUBCHEM_ATOM_DEF_STEREO_COUNT>
1

> <PUBCHEM_ATOM_UDEF_STEREO_COUNT>
0

> <PUBCHEM_BOND_DEF_STEREO_COUNT>
0

> <PUBCHEM_BOND_UDEF_STEREO_COUNT>
0

> <PUBCHEM_ISOTOPIC_ATOM_COUNT>
0

> <PUBCHEM_COMPONENT_COUNT>
1

> <PUBCHEM_CACTVS_TAUTO_COUNT>
-1

> <PUBCHEM_CONFORMER_ID>
081518B800000001

> <PUBCHEM_MMFF94_ENERGY>
83.9228

> <PUBCHEM_FEATURE_SELFOVERLAP>
86.486

> <PUBCHEM_SHAPE_FINGERPRINT>
10554248 39 16845307038097436406
10811444 77 18131346415020440752
10904742 38 18408599258501038529
11103572 155 8357993198304809671
11387372 6 9078847303142977543
12422481 6 17168145637306986430
13103583 49 15140974971160429395
13383661 66 9439111079001812765
13941219 33 11097846385665455711
14223995 32 18261111816200882021
14251764 30 9655283839888185367
14739800 52 18334573533879710266
14950920 106 14707510125770802911
14951699 99 18189907589890099716
16708801 149 17988655064390220904
18470217 77 18046068434888354651
20058555 10 18268994348505191352
21033648 29 17896054148086490783
21599406 157 11311787167611542088
21814621 53 18113623400182833458
22122407 14 18272089443930715298
23569914 2 17771309189300990672
2748736 6 18410008823321566604
2838139 119 18341892991338520550
3117164 225 17749676280728180542
3459 39 17967818245138289355
4144715 1 18115880757573585210
437795 171 17480569882265639480
437795 96 18261675887605491509
484985 159 12973890360143550979
6371009 1 18131351865534153008
999808 66 12035447238186133474

> <PUBCHEM_SHAPE_MULTIPOLES>
608.15
20.66
4.68
2.13
12.65
4.74
-0.03
16.58
1.06
0.66
1.41
-1.68
-0.12
3.69

> <PUBCHEM_SHAPE_SELFOVERLAP>
1300.032

> <PUBCHEM_SHAPE_VOLUME>
332.6

> <PUBCHEM_COORDINATE_TYPE>
2
5
10

$$$$
