135625319
  -OEChem-03292013293D

 34 36  0     1  0  0  0  0  0999 V2000
   -1.5322   -0.4601   -0.9976 O   0  0  0  0  0  0  0  0  0  0  0  0
   -3.4549    1.7037    1.0911 O   0  0  0  0  0  0  0  0  0  0  0  0
   -1.2252    0.3221    1.8558 O   0  0  0  0  0  0  0  0  0  0  0  0
   -4.9996   -0.1505    0.1394 O   0  0  0  0  0  0  0  0  0  0  0  0
    1.9855    2.2139   -0.9201 O   0  0  0  0  0  0  0  0  0  0  0  0
    0.7573   -0.4335   -0.0948 N   0  0  0  0  0  0  0  0  0  0  0  0
    1.9860   -2.1603    0.6023 N   0  0  0  0  0  0  0  0  0  0  0  0
    4.0064    1.2053   -0.4102 N   0  0  0  0  0  0  0  0  0  0  0  0
    4.1998   -1.0600    0.3931 N   0  0  0  0  0  0  0  0  0  0  0  0
   -2.7921    0.1987   -0.7483 C   0  0  2  0  0  0  0  0  0  0  0  0
   -2.4808    1.4268    0.1085 C   0  0  2  0  0  0  0  0  0  0  0  0
   -1.1095    1.1283    0.6867 C   0  0  2  0  0  0  0  0  0  0  0  0
   -0.4711    0.3596   -0.4673 C   0  0  2  0  0  0  0  0  0  0  0  0
   -3.7682   -0.8054   -0.1553 C   0  0  2  0  0  0  0  0  0  0  0  0
    2.0564   -0.0183   -0.1373 C   0  0  0  0  0  0  0  0  0  0  0  0
   -4.0387   -1.9665   -1.1023 C   0  0  0  0  0  0  0  0  0  0  0  0
    0.7663   -1.7282    0.3560 C   0  0  0  0  0  0  0  0  0  0  0  0
    2.7945   -1.0980    0.2963 C   0  0  0  0  0  0  0  0  0  0  0  0
    2.6182    1.2381   -0.5306 C   0  0  0  0  0  0  0  0  0  0  0  0
    4.7019    0.0844    0.0345 C   0  0  0  0  0  0  0  0  0  0  0  0
   -3.1810    0.5461   -1.7142 H   0  0  0  0  0  0  0  0  0  0  0  0
   -2.4075    2.2997   -0.5529 H   0  0  0  0  0  0  0  0  0  0  0  0
   -0.5550    2.0297    0.9619 H   0  0  0  0  0  0  0  0  0  0  0  0
   -0.1652    1.0282   -1.2794 H   0  0  0  0  0  0  0  0  0  0  0  0
   -3.3762   -1.2161    0.7808 H   0  0  0  0  0  0  0  0  0  0  0  0
   -4.4731   -1.6110   -2.0431 H   0  0  0  0  0  0  0  0  0  0  0  0
   -4.7679   -2.6562   -0.6633 H   0  0  0  0  0  0  0  0  0  0  0  0
   -3.1274   -2.5290   -1.3263 H   0  0  0  0  0  0  0  0  0  0  0  0
   -3.1228    2.4394    1.6331 H   0  0  0  0  0  0  0  0  0  0  0  0
   -1.5585   -0.5524    1.5986 H   0  0  0  0  0  0  0  0  0  0  0  0
   -0.1397   -2.3043    0.4861 H   0  0  0  0  0  0  0  0  0  0  0  0
   -5.5952   -0.8085    0.5366 H   0  0  0  0  0  0  0  0  0  0  0  0
    4.5312    2.0387   -0.6591 H   0  0  0  0  0  0  0  0  0  0  0  0
    5.7901    0.2515    0.0617 H   0  0  0  0  0  0  0  0  0  0  0  0
  1 10  1  0  0  0  0
  1 13  1  0  0  0  0
  2 11  1  0  0  0  0
  2 29  1  0  0  0  0
  3 12  1  0  0  0  0
  3 30  1  0  0  0  0
  4 14  1  0  0  0  0
  4 32  1  0  0  0  0
  5 19  2  0  0  0  0
  6 13  1  0  0  0  0
  6 15  1  0  0  0  0
  6 17  1  0  0  0  0
  7 17  2  0  0  0  0
  7 18  1  0  0  0  0
  8 19  1  0  0  0  0
  8 20  1  0  0  0  0
  8 33  1  0  0  0  0
  9 18  1  0  0  0  0
  9 20  2  0  0  0  0
 10 11  1  0  0  0  0
 10 14  1  0  0  0  0
 10 21  1  0  0  0  0
 11 12  1  0  0  0  0
 11 22  1  0  0  0  0
 12 13  1  0  0  0  0
 12 23  1  0  0  0  0
 13 24  1  0  0  0  0
 14 16  1  0  0  0  0
 14 25  1  0  0  0  0
 15 18  2  0  0  0  0
 15 19  1  0  0  0  0
 16 26  1  0  0  0  0
 16 27  1  0  0  0  0
 16 28  1  0  0  0  0
 17 31  1  0  0  0  0
 20 34  1  0  0  0  0
M  END
> <PUBCHEM_COMPOUND_CID>
135625319

> <PUBCHEM_CONFORMER_RMSD>
0.6

> <PUBCHEM_CONFORMER_DIVERSEORDER>
2
16
11
17
12
15
10
7
6
14
18
13
4
8
3
5
9
19
1

> <PUBCHEM_MMFF94_PARTIAL_CHARGES>
25
1 -0.56
10 0.28
11 0.28
12 0.28
13 0.54
14 0.28
15 -0.24
17 0.04
18 0.35
19 0.71
2 -0.68
20 0.45
29 0.4
3 -0.68
30 0.4
31 0.15
32 0.4
33 0.37
34 0.06
4 -0.68
5 -0.57
6 0.05
7 -0.57
8 -0.49
9 -0.57

> <PUBCHEM_EFFECTIVE_ROTOR_COUNT>
3

> <PUBCHEM_PHARMACOPHORE_FEATURES>
13
1 1 acceptor
1 2 acceptor
1 2 donor
1 3 acceptor
1 3 donor
1 4 acceptor
1 4 donor
1 5 acceptor
1 8 donor
3 6 7 17 cation
5 1 10 11 12 13 rings
5 6 7 15 17 18 rings
6 8 9 15 18 19 20 rings

> <PUBCHEM_HEAVY_ATOM_COUNT>
20

> <PUBCHEM_ATOM_DEF_STEREO_COUNT>
5

> <PUBCHEM_ATOM_UDEF_STEREO_COUNT>
0

> <PUBCHEM_BOND_DEF_STEREO_COUNT>
0

> <PUBCHEM_BOND_UDEF_STEREO_COUNT>
0

> <PUBCHEM_ISOTOPIC_ATOM_COUNT>
0

> <PUBCHEM_COMPONENT_COUNT>
1

> <PUBCHEM_CACTVS_TAUTO_COUNT>
-1

> <PUBCHEM_CONFORMER_ID>
08157A6700000002

> <PUBCHEM_MMFF94_ENERGY>
54.4408

> <PUBCHEM_FEATURE_SELFOVERLAP>
66.139

> <PUBCHEM_SHAPE_FINGERPRINT>
10062212 137 18411696565196436033
10366900 7 17458069248595816472
10616163 171 18343018908879341983
11578080 2 17984104194015718737
11615757 297 18408321085942195798
11806522 49 18409443708921003334
12107183 9 17691407408563278315
12236239 1 18344145886431981388
12403814 3 18336548231747564117
12553582 1 17916288606580229111
12670545 47 16877952654389640334
128620 24 18202563990426558886
13009979 54 17985264071893643362
13167823 11 18411418401570964751
13760787 19 18341895173645818655
13862211 1 18187922817173713250
14251717 144 18260546727706752766
14251764 3 16226037920745805451
14289901 80 18410573955303023283
14341114 328 18343024401941449019
15196674 1 18408884014790208132
15375462 189 18342737459846105323
16752209 62 17631719505248192759
17349148 13 18040711485003091034
17492 89 18340486655953753519
17862501 102 18409442592276965986
18186145 218 18336547123123366278
19050596 39 18411420613737409595
19422 9 18342457023750184063
200 152 18409164428725276299
20279233 1 16153430527801729538
21267235 1 18410581668964352118
21709351 56 18260261932583289676
23402539 116 18272644675284574150
23402655 69 18334853879327104693
23557571 272 17275110500506363248
23559900 14 18335696173858323729
23598288 3 17917136200984761215
3286 77 18411412951489782732
474 4 18260552259651302564
5104073 3 18410571760616894536
602551 16 16343129363468536591
77492 1 18272928289376407524
9709674 26 18335988601097312211
9981440 41 17548122794575981432

> <PUBCHEM_SHAPE_MULTIPOLES>
362.32
9.01
2
1.04
0.65
0.17
0.18
0.95
-0.61
0.05
-0.04
0.53
-0.11
-1.48

> <PUBCHEM_SHAPE_SELFOVERLAP>
783.816

> <PUBCHEM_SHAPE_VOLUME>
195.4

> <PUBCHEM_COORDINATE_TYPE>
2
5
10

$$$$
