135600345
  -OEChem-03292013293D

 36 38  0     1  0  0  0  0  0999 V2000
    3.6166    2.9565   -1.1164 S   0  0  0  0  0  0  0  0  0  0  0  0
    4.4597    1.6027   -0.0093 P   0  0  0  0  0  0  0  0  0  0  0  0
    1.0444   -0.8229    1.0427 O   0  0  0  0  0  0  0  0  0  0  0  0
   -0.7901   -2.8949   -1.2640 O   0  0  0  0  0  0  0  0  0  0  0  0
    1.2669   -3.7627    0.3449 O   0  0  0  0  0  0  0  0  0  0  0  0
    3.5121    0.4074    0.5447 O   0  0  0  0  0  0  0  0  0  0  0  0
    5.1451    2.1689    1.3474 O   0  0  0  0  0  0  0  0  0  0  0  0
    5.6961    0.8027   -0.6897 O   0  0  0  0  0  0  0  0  0  0  0  0
   -4.6213    2.7469   -0.3520 O   0  0  0  0  0  0  0  0  0  0  0  0
   -1.1114   -0.0523    0.1965 N   0  0  0  0  0  0  0  0  0  0  0  0
   -1.7346    2.0489   -0.2532 N   0  0  0  0  0  0  0  0  0  0  0  0
   -3.2769   -1.1060    0.4725 N   0  0  0  0  0  0  0  0  0  0  0  0
   -5.0341    0.5052    0.1528 N   0  0  0  0  0  0  0  0  0  0  0  0
    0.1844   -1.9599   -0.8464 C   0  0  2  0  0  0  0  0  0  0  0  0
    1.4992   -2.6073   -0.4596 C   0  0  1  0  0  0  0  0  0  0  0  0
   -0.1996   -1.2320    0.4376 C   0  0  1  0  0  0  0  0  0  0  0  0
    2.1349   -1.5405    0.4228 C   0  0  1  0  0  0  0  0  0  0  0  0
    2.9779   -0.5431   -0.3599 C   0  0  0  0  0  0  0  0  0  0  0  0
   -2.4748   -0.0454    0.2225 C   0  0  0  0  0  0  0  0  0  0  0  0
   -0.7132    1.2301   -0.0934 C   0  0  0  0  0  0  0  0  0  0  0  0
   -2.8263    1.2556   -0.0569 C   0  0  0  0  0  0  0  0  0  0  0  0
   -4.2202    1.6159   -0.1081 C   0  0  0  0  0  0  0  0  0  0  0  0
   -4.5346   -0.7738    0.4245 C   0  0  0  0  0  0  0  0  0  0  0  0
    0.3433   -1.2426   -1.6609 H   0  0  0  0  0  0  0  0  0  0  0  0
    2.1029   -2.9122   -1.3191 H   0  0  0  0  0  0  0  0  0  0  0  0
   -0.7345   -1.8752    1.1466 H   0  0  0  0  0  0  0  0  0  0  0  0
    2.7300   -1.9699    1.2367 H   0  0  0  0  0  0  0  0  0  0  0  0
    2.3718   -0.0123   -1.1002 H   0  0  0  0  0  0  0  0  0  0  0  0
    3.7978   -1.0559   -0.8722 H   0  0  0  0  0  0  0  0  0  0  0  0
   -0.4193   -3.3855   -2.0172 H   0  0  0  0  0  0  0  0  0  0  0  0
    2.1352   -4.1208    0.5970 H   0  0  0  0  0  0  0  0  0  0  0  0
    0.3284    1.5071   -0.1777 H   0  0  0  0  0  0  0  0  0  0  0  0
   -5.3317   -1.5121    0.6030 H   0  0  0  0  0  0  0  0  0  0  0  0
   -6.0412    0.6388    0.1430 H   0  0  0  0  0  0  0  0  0  0  0  0
    6.3589    1.3091   -1.2058 H   0  0  0  0  0  0  0  0  0  0  0  0
    5.6740    2.9937    1.3003 H   0  0  0  0  0  0  0  0  0  0  0  0
  1  2  2  0  0  0  0
  2  6  1  0  0  0  0
  2  7  1  0  0  0  0
  2  8  1  0  0  0  0
  3 16  1  0  0  0  0
  3 17  1  0  0  0  0
  4 14  1  0  0  0  0
  4 30  1  0  0  0  0
  5 15  1  0  0  0  0
  5 31  1  0  0  0  0
  6 18  1  0  0  0  0
  7 36  1  0  0  0  0
  8 35  1  0  0  0  0
  9 22  2  0  0  0  0
 10 16  1  0  0  0  0
 10 19  1  0  0  0  0
 10 20  1  0  0  0  0
 11 20  2  0  0  0  0
 11 21  1  0  0  0  0
 12 19  1  0  0  0  0
 12 23  2  0  0  0  0
 13 22  1  0  0  0  0
 13 23  1  0  0  0  0
 13 34  1  0  0  0  0
 14 15  1  0  0  0  0
 14 16  1  0  0  0  0
 14 24  1  0  0  0  0
 15 17  1  0  0  0  0
 15 25  1  0  0  0  0
 16 26  1  0  0  0  0
 17 18  1  0  0  0  0
 17 27  1  0  0  0  0
 18 28  1  0  0  0  0
 18 29  1  0  0  0  0
 19 21  2  0  0  0  0
 20 32  1  0  0  0  0
 21 22  1  0  0  0  0
 23 33  1  0  0  0  0
M  END
> <PUBCHEM_COMPOUND_CID>
135600345

> <PUBCHEM_CONFORMER_RMSD>
0.8

> <PUBCHEM_CONFORMER_DIVERSEORDER>
1
166
161
146
78
57
106
86
16
36
129
108
128
149
95
165
33
6
107
136
64
169
137
83
101
41
158
10
151
62
116
79
53
100
167
156
47
120
51
97
130
28
114
35
60
126
44
67
31
179
139
133
140
84
88
55
77
93
40
145
12
68
4
122
170
75
150
72
134
38
3
115
160
131
22
25
23
123
13
112
174
29
30
42
175
82
24
49
171
110
102
142
113
73
63
18
81
144
173
103
180
152
132
54
104
148
159
21
157
14
178
46
52
89
61
27
11
71
69
109
162
105
121
70
127
9
172
66
155
58
168
43
118
85
92
147
164
7
37
65
111
15
138
163
17
96
5
87
153
141
74
91
125
2
59
143
39
119
8
45
117
90
26
177
32
80
34
94
20
98
135
48
124
56
176
76
19
50
99
154

> <PUBCHEM_MMFF94_PARTIAL_CHARGES>
30
1 -0.68
10 0.05
11 -0.57
12 -0.58
13 -0.49
14 0.28
15 0.28
16 0.54
17 0.28
18 0.28
19 -0.03
2 1.49
20 0.04
21 0.14
22 0.72
23 0.45
3 -0.56
30 0.4
31 0.4
32 0.15
33 0.06
34 0.37
35 0.5
36 0.5
4 -0.68
5 -0.68
6 -0.55
7 -0.77
8 -0.77
9 -0.57

> <PUBCHEM_EFFECTIVE_ROTOR_COUNT>
5

> <PUBCHEM_PHARMACOPHORE_FEATURES>
13
1 13 donor
1 3 acceptor
1 4 acceptor
1 4 donor
1 5 acceptor
1 5 donor
1 7 acceptor
1 8 acceptor
1 9 acceptor
3 10 11 20 cation
5 10 11 19 20 21 rings
5 3 14 15 16 17 rings
6 12 13 19 21 22 23 rings

> <PUBCHEM_HEAVY_ATOM_COUNT>
23

> <PUBCHEM_ATOM_DEF_STEREO_COUNT>
4

> <PUBCHEM_ATOM_UDEF_STEREO_COUNT>
0

> <PUBCHEM_BOND_DEF_STEREO_COUNT>
0

> <PUBCHEM_BOND_UDEF_STEREO_COUNT>
0

> <PUBCHEM_ISOTOPIC_ATOM_COUNT>
0

> <PUBCHEM_COMPONENT_COUNT>
1

> <PUBCHEM_CACTVS_TAUTO_COUNT>
-1

> <PUBCHEM_CONFORMER_ID>
081518D900000001

> <PUBCHEM_MMFF94_ENERGY>
29.4206

> <PUBCHEM_FEATURE_SELFOVERLAP>
66.144

> <PUBCHEM_SHAPE_FINGERPRINT>
10090160 65 18334008423673497111
10498660 4 18412266107909040248
10871710 139 17978513357765664982
11578080 2 16444451400330384727
12403259 118 18335408059009925264
12788726 201 17467357059834845210
13583140 156 17242427478863884426
14341114 328 17385441046641206336
14528608 73 18341610404160387669
1454969 45 18268149932713535839
14790565 3 18339648939793959017
15196674 1 18408886209038402960
19591789 44 18195529426796409633
21524375 3 18413112783876789058
22113638 7 18263643038466837748
22620623 9 16843878887634399630
23227448 37 18197780105728924500
23559900 14 18050845520658027235
245318 6 17460897308377761092
2838139 119 18412819209924386628
3298306 158 18413107277291015148
350125 39 18337390440411144358
474 4 18334018293650761596
5104073 3 18189340074344017921
67856867 119 18264200331678876026
7064713 232 18336542819814737604
7808743 9 18194118758200733904
9709674 26 17981046311098729815
9981440 41 18334296495630499322

> <PUBCHEM_SHAPE_MULTIPOLES>
420.02
10.73
3.75
0.94
2.1
1.19
0.03
-9.06
-0.69
1.48
0.81
0.7
0.01
0.11

> <PUBCHEM_SHAPE_SELFOVERLAP>
874.357

> <PUBCHEM_SHAPE_VOLUME>
242.6

> <PUBCHEM_COORDINATE_TYPE>
2
5
10

$$$$
