135666653
  -OEChem-03292013293D

 45 47  0     0  0  0  0  0  0999 V2000
   -1.1709   -4.3302    0.0347 S   0  0  0  0  0  0  0  0  0  0  0  0
    5.8694   -2.1008   -0.0171 O   0  0  0  0  0  0  0  0  0  0  0  0
    6.4152    2.6323   -0.0238 O   0  0  0  0  0  0  0  0  0  0  0  0
   -2.2431   -1.4370    0.0426 N   0  0  0  0  0  0  0  0  0  0  0  0
   -4.6176    1.2577   -0.0292 N   0  0  0  0  0  0  0  0  0  0  0  0
   -0.9018   -1.6164    0.0282 N   0  0  0  0  0  0  0  0  0  0  0  0
    1.0519   -2.8821    0.0076 N   0  0  0  0  0  0  0  0  0  0  0  0
    1.7429   -1.7171   -0.0001 N   0  0  0  0  0  0  0  0  0  0  0  0
   -1.8479    0.9902    0.0297 C   0  0  0  0  0  0  0  0  0  0  0  0
   -2.7063   -0.2193    0.0250 C   0  0  0  0  0  0  0  0  0  0  0  0
   -4.1936   -0.0258   -0.0071 C   0  0  0  0  0  0  0  0  0  0  0  0
   -1.4686    1.5721    1.2394 C   0  0  0  0  0  0  0  0  0  0  0  0
   -1.4187    1.5448   -1.1759 C   0  0  0  0  0  0  0  0  0  0  0  0
   -0.6600    2.7088    1.2433 C   0  0  0  0  0  0  0  0  0  0  0  0
   -0.6101    2.6814   -1.1720 C   0  0  0  0  0  0  0  0  0  0  0  0
    3.9286   -0.6911   -0.0117 C   0  0  0  0  0  0  0  0  0  0  0  0
   -5.0401   -1.1227   -0.0127 C   0  0  0  0  0  0  0  0  0  0  0  0
   -0.2309    3.2634    0.0376 C   0  0  0  0  0  0  0  0  0  0  0  0
    5.3136   -0.8564   -0.0169 C   0  0  0  0  0  0  0  0  0  0  0  0
    3.3791    0.5910   -0.0111 C   0  0  0  0  0  0  0  0  0  0  0  0
    6.1491    0.2603   -0.0215 C   0  0  0  0  0  0  0  0  0  0  0  0
    5.5998    1.5425   -0.0210 C   0  0  0  0  0  0  0  0  0  0  0  0
   -6.4101   -0.8870   -0.0432 C   0  0  0  0  0  0  0  0  0  0  0  0
    4.2147    1.7079   -0.0158 C   0  0  0  0  0  0  0  0  0  0  0  0
   -6.8849    0.4197   -0.0666 C   0  0  0  0  0  0  0  0  0  0  0  0
   -5.9558    1.4476   -0.0584 C   0  0  0  0  0  0  0  0  0  0  0  0
    3.0276   -1.8572   -0.0064 C   0  0  0  0  0  0  0  0  0  0  0  0
   -0.3314   -2.8766    0.0225 C   0  0  0  0  0  0  0  0  0  0  0  0
   -1.7966    1.1471    2.1844 H   0  0  0  0  0  0  0  0  0  0  0  0
   -1.7074    1.0985   -2.1240 H   0  0  0  0  0  0  0  0  0  0  0  0
   -0.3638    3.1614    2.1851 H   0  0  0  0  0  0  0  0  0  0  0  0
   -0.2750    3.1127   -2.1107 H   0  0  0  0  0  0  0  0  0  0  0  0
   -4.6780   -2.1447    0.0055 H   0  0  0  0  0  0  0  0  0  0  0  0
    0.3998    4.1476    0.0405 H   0  0  0  0  0  0  0  0  0  0  0  0
    2.3046    0.7534   -0.0069 H   0  0  0  0  0  0  0  0  0  0  0  0
    7.2290    0.1330   -0.0252 H   0  0  0  0  0  0  0  0  0  0  0  0
    3.7807    2.7041   -0.0150 H   0  0  0  0  0  0  0  0  0  0  0  0
   -7.1068   -1.7198   -0.0486 H   0  0  0  0  0  0  0  0  0  0  0  0
   -7.9485    0.6270   -0.0904 H   0  0  0  0  0  0  0  0  0  0  0  0
    3.4967   -2.8578   -0.0068 H   0  0  0  0  0  0  0  0  0  0  0  0
   -6.2744    2.4846   -0.0757 H   0  0  0  0  0  0  0  0  0  0  0  0
   -0.3036   -0.7984    0.0158 H   0  0  0  0  0  0  0  0  0  0  0  0
    1.5754   -3.7518    0.0041 H   0  0  0  0  0  0  0  0  0  0  0  0
    6.8383   -2.0168   -0.0209 H   0  0  0  0  0  0  0  0  0  0  0  0
    7.3409    2.3339   -0.0268 H   0  0  0  0  0  0  0  0  0  0  0  0
  1 28  2  0  0  0  0
  2 19  1  0  0  0  0
  2 44  1  0  0  0  0
  3 22  1  0  0  0  0
  3 45  1  0  0  0  0
  4  6  1  0  0  0  0
  4 10  2  0  0  0  0
  5 11  1  0  0  0  0
  5 26  2  0  0  0  0
  6 28  1  0  0  0  0
  6 42  1  0  0  0  0
  7  8  1  0  0  0  0
  7 28  1  0  0  0  0
  7 43  1  0  0  0  0
  8 27  2  0  0  0  0
  9 10  1  0  0  0  0
  9 12  2  0  0  0  0
  9 13  1  0  0  0  0
 10 11  1  0  0  0  0
 11 17  2  0  0  0  0
 12 14  1  0  0  0  0
 12 29  1  0  0  0  0
 13 15  2  0  0  0  0
 13 30  1  0  0  0  0
 14 18  2  0  0  0  0
 14 31  1  0  0  0  0
 15 18  1  0  0  0  0
 15 32  1  0  0  0  0
 16 19  2  0  0  0  0
 16 20  1  0  0  0  0
 16 27  1  0  0  0  0
 17 23  1  0  0  0  0
 17 33  1  0  0  0  0
 18 34  1  0  0  0  0
 19 21  1  0  0  0  0
 20 24  2  0  0  0  0
 20 35  1  0  0  0  0
 21 22  2  0  0  0  0
 21 36  1  0  0  0  0
 22 24  1  0  0  0  0
 23 25  2  0  0  0  0
 23 38  1  0  0  0  0
 24 37  1  0  0  0  0
 25 26  1  0  0  0  0
 25 39  1  0  0  0  0
 26 41  1  0  0  0  0
 27 40  1  0  0  0  0
M  END
> <PUBCHEM_COMPOUND_CID>
135666653

> <PUBCHEM_CONFORMER_RMSD>
1

> <PUBCHEM_CONFORMER_DIVERSEORDER>
1
87
64
113
91
36
69
110
98
81
56
42
107
45
63
128
11
61
32
73
94
59
48
131
14
20
121
104
66
130
108
76
101
65
120
90
79
77
106
57
33
58
6
51
82
85
17
60
119
124
123
70
129
30
103
105
41
49
24
86
97
31
112
53
26
100
126
92
88
125
93
72
4
16
96
38
116
22
122
83
50
114
44
28
84
62
109
111
71
25
89
47
75
37
46
29
67
78
12
55
95
39
43
127
80
18
118
19
27
13
3
23
102
52
115
2
74
68
34
40
8
35
21
7
9
54
117
99
10
15
5

> <PUBCHEM_MMFF94_PARTIAL_CHARGES>
45
1 -0.38
10 0.28
11 0.4
12 -0.15
13 -0.15
14 -0.15
15 -0.15
16 0.09
17 -0.15
18 -0.15
19 0.08
2 -0.53
20 -0.15
21 -0.15
22 0.08
23 -0.15
24 -0.15
25 -0.15
26 0.16
27 0.3
28 0.5
29 0.15
3 -0.53
30 0.15
31 0.15
32 0.15
33 0.15
34 0.15
35 0.15
36 0.15
37 0.15
38 0.15
39 0.15
4 -0.51
40 0.06
41 0.15
42 0.37
43 0.37
44 0.45
45 0.45
5 -0.62
6 -0.37
7 -0.37
8 -0.51
9 0.09

> <PUBCHEM_EFFECTIVE_ROTOR_COUNT>
7

> <PUBCHEM_PHARMACOPHORE_FEATURES>
11
1 1 acceptor
1 2 donor
1 3 donor
1 4 acceptor
1 5 acceptor
1 6 donor
1 7 donor
1 8 acceptor
6 16 19 20 21 22 24 rings
6 5 11 17 23 25 26 rings
6 9 12 13 14 15 18 rings

> <PUBCHEM_HEAVY_ATOM_COUNT>
28

> <PUBCHEM_ATOM_DEF_STEREO_COUNT>
0

> <PUBCHEM_ATOM_UDEF_STEREO_COUNT>
0

> <PUBCHEM_BOND_DEF_STEREO_COUNT>
2

> <PUBCHEM_BOND_UDEF_STEREO_COUNT>
0

> <PUBCHEM_ISOTOPIC_ATOM_COUNT>
0

> <PUBCHEM_COMPONENT_COUNT>
1

> <PUBCHEM_CACTVS_TAUTO_COUNT>
-1

> <PUBCHEM_CONFORMER_ID>
08161BDD00000001

> <PUBCHEM_MMFF94_ENERGY>
87.4337

> <PUBCHEM_FEATURE_SELFOVERLAP>
55.868

> <PUBCHEM_SHAPE_FINGERPRINT>
1100329 8 18267305507181568863
11112241 14 16986009474259635809
11135609 187 18411418423331183937
11578080 2 16986850558738887202
12166972 35 17967818228005718148
12788726 201 17703800201472711720
12838862 33 18338780308660105880
13402501 40 18410292514480257296
1361 2 18408323297845442416
14028597 1 17845954956875383057
14117953 113 18335143085540614132
14394314 77 18340772623608648169
14790565 3 18411984633301601345
14840074 17 18114187436129892740
15575132 122 18186800236237126725
15840311 113 17982466906155500873
15927050 60 17766557232862401180
19611394 137 18115039626936500555
20642791 178 18188503475007822589
21315764 268 18334572396467393086
21779490 112 16388200793856443548
221357 26 18272092656819382422
23559900 14 18341324608884973025
3004659 81 18333167258918987528
3178227 256 18337404833131357979
350125 39 18338234856540254234
392239 28 18340775840527843419
4197921 191 18260833658162679118
46194498 28 17845380942791178366
5486654 2 18411422816981773132
59755656 215 18339930316329235566
6138700 20 18410293588512329131

> <PUBCHEM_SHAPE_MULTIPOLES>
543.43
16.25
4.3
0.82
3.55
2.32
-0.02
-2.9
0.41
1
-0.07
-0.24
-0.47
0

> <PUBCHEM_SHAPE_SELFOVERLAP>
1160.88

> <PUBCHEM_SHAPE_VOLUME>
302.8

> <PUBCHEM_COORDINATE_TYPE>
2
5
10

$$$$
