135625242
  -OEChem-03292013293D

 31 33  0     1  0  0  0  0  0999 V2000
   -3.9997    3.1160   -0.5484 I   0  0  0  0  0  0  0  0  0  0  0  0
   -2.0970    0.4462   -0.9366 O   0  0  0  0  0  0  0  0  0  0  0  0
   -1.1666   -2.3834    1.0616 O   0  0  0  0  0  0  0  0  0  0  0  0
   -3.4697   -2.2355   -0.3942 O   0  0  0  0  0  0  0  0  0  0  0  0
    4.6496    1.4058    0.4513 O   0  0  0  0  0  0  0  0  0  0  0  0
    1.6702    1.8625    0.4471 N   0  0  0  0  0  0  0  0  0  0  0  0
    1.8871   -1.5287   -0.6109 N   0  0  0  0  0  0  0  0  0  0  0  0
    4.1394   -0.7450   -0.2517 N   0  0  0  0  0  0  0  0  0  0  0  0
   -1.0920   -0.4507   -0.4204 C   0  0  2  0  0  0  0  0  0  0  0  0
   -1.7038   -1.0990    0.8164 C   0  0  1  0  0  0  0  0  0  0  0  0
   -3.1789   -1.1349    0.4671 C   0  0  1  0  0  0  0  0  0  0  0  0
   -3.3637    0.1677   -0.3004 C   0  0  1  0  0  0  0  0  0  0  0  0
    0.2016    0.2734   -0.1272 C   0  0  0  0  0  0  0  0  0  0  0  0
   -3.7147    1.3445    0.5998 C   0  0  0  0  0  0  0  0  0  0  0  0
    1.5078   -0.2352   -0.2221 C   0  0  0  0  0  0  0  0  0  0  0  0
    0.3307    1.5834    0.2922 C   0  0  0  0  0  0  0  0  0  0  0  0
    2.4003    0.7488    0.1322 C   0  0  0  0  0  0  0  0  0  0  0  0
    3.8219    0.5555    0.1421 C   0  0  0  0  0  0  0  0  0  0  0  0
    3.1774   -1.6914   -0.5978 C   0  0  0  0  0  0  0  0  0  0  0  0
   -0.9044   -1.2013   -1.1991 H   0  0  0  0  0  0  0  0  0  0  0  0
   -1.5427   -0.4770    1.7055 H   0  0  0  0  0  0  0  0  0  0  0  0
   -3.8202   -1.2327    1.3482 H   0  0  0  0  0  0  0  0  0  0  0  0
   -4.1101    0.0560   -1.0957 H   0  0  0  0  0  0  0  0  0  0  0  0
   -2.9156    1.5322    1.3254 H   0  0  0  0  0  0  0  0  0  0  0  0
   -4.6286    1.1267    1.1631 H   0  0  0  0  0  0  0  0  0  0  0  0
   -0.4063    2.3469    0.4981 H   0  0  0  0  0  0  0  0  0  0  0  0
   -1.6759   -2.7778    1.7900 H   0  0  0  0  0  0  0  0  0  0  0  0
   -4.4150   -2.1878   -0.6171 H   0  0  0  0  0  0  0  0  0  0  0  0
    2.0495    2.7504    0.7464 H   0  0  0  0  0  0  0  0  0  0  0  0
    5.1192   -1.0108   -0.2866 H   0  0  0  0  0  0  0  0  0  0  0  0
    3.6239   -2.6579   -0.8800 H   0  0  0  0  0  0  0  0  0  0  0  0
  1 14  1  0  0  0  0
  2  9  1  0  0  0  0
  2 12  1  0  0  0  0
  3 10  1  0  0  0  0
  3 27  1  0  0  0  0
  4 11  1  0  0  0  0
  4 28  1  0  0  0  0
  5 18  2  0  0  0  0
  6 16  1  0  0  0  0
  6 17  1  0  0  0  0
  6 29  1  0  0  0  0
  7 15  1  0  0  0  0
  7 19  2  0  0  0  0
  8 18  1  0  0  0  0
  8 19  1  0  0  0  0
  8 30  1  0  0  0  0
  9 10  1  0  0  0  0
  9 13  1  0  0  0  0
  9 20  1  0  0  0  0
 10 11  1  0  0  0  0
 10 21  1  0  0  0  0
 11 12  1  0  0  0  0
 11 22  1  0  0  0  0
 12 14  1  0  0  0  0
 12 23  1  0  0  0  0
 13 15  1  0  0  0  0
 13 16  2  0  0  0  0
 14 24  1  0  0  0  0
 14 25  1  0  0  0  0
 15 17  2  0  0  0  0
 16 26  1  0  0  0  0
 17 18  1  0  0  0  0
 19 31  1  0  0  0  0
M  END
> <PUBCHEM_COMPOUND_CID>
135625242

> <PUBCHEM_CONFORMER_RMSD>
0.6

> <PUBCHEM_CONFORMER_DIVERSEORDER>
1
14
21
12
7
19
18
20
11
5
3
22
8
24
17
9
4
10
16
26
2
23
27
25
6
15
28
13
29

> <PUBCHEM_MMFF94_PARTIAL_CHARGES>
25
1 -0.19
10 0.28
11 0.28
12 0.28
13 -0.18
14 0.19
15 0.12
16 -0.3
17 -0.24
18 0.71
19 0.45
2 -0.56
26 0.15
27 0.4
28 0.4
29 0.27
3 -0.68
30 0.37
31 0.06
4 -0.68
5 -0.57
6 0.03
7 -0.57
8 -0.49
9 0.46

> <PUBCHEM_EFFECTIVE_ROTOR_COUNT>
3

> <PUBCHEM_PHARMACOPHORE_FEATURES>
13
1 1 hydrophobe
1 2 acceptor
1 3 acceptor
1 3 donor
1 4 acceptor
1 4 donor
1 5 acceptor
1 6 cation
1 6 donor
1 8 donor
5 2 9 10 11 12 rings
5 6 13 15 16 17 rings
6 7 8 15 17 18 19 rings

> <PUBCHEM_HEAVY_ATOM_COUNT>
19

> <PUBCHEM_ATOM_DEF_STEREO_COUNT>
4

> <PUBCHEM_ATOM_UDEF_STEREO_COUNT>
0

> <PUBCHEM_BOND_DEF_STEREO_COUNT>
0

> <PUBCHEM_BOND_UDEF_STEREO_COUNT>
0

> <PUBCHEM_ISOTOPIC_ATOM_COUNT>
0

> <PUBCHEM_COMPONENT_COUNT>
1

> <PUBCHEM_CACTVS_TAUTO_COUNT>
-1

> <PUBCHEM_CONFORMER_ID>
08157A1A00000001

> <PUBCHEM_MMFF94_ENERGY>
41.1587

> <PUBCHEM_FEATURE_SELFOVERLAP>
66.102

> <PUBCHEM_SHAPE_FINGERPRINT>
10608611 8 18411698811438120369
1100329 8 16392401357289974561
11405975 8 18335417916160342402
11471102 20 18343299262810955252
11578080 2 16700581650637102729
116883 192 17984709909321762596
12403259 226 18126844026499423011
12500047 106 18410571764912042829
13296908 3 18341897393917349766
13464514 151 18051129199258552133
13544592 145 18194690263137756198
13675066 3 18262248728704324393
15196674 1 18412826889199109830
15219456 202 18411702097177577750
15375358 24 18411980260876830538
16945 1 18121229928438546627
18186145 218 18188490172723843454
19049666 15 18410294705092965467
19591789 44 17688310084155274269
200 152 17845649373893934703
20510252 161 18410295830843993081
20645477 56 18410014321439225321
20645477 70 17632016351733449558
21421861 104 17679575645746855450
21501502 16 18336835302491369325
23402539 116 18188478172606330485
23559900 14 18269553837147306894
25 1 18192147101554086717
296302 2 18413392055287032160
335352 9 18194965132533919366
4214541 1 18412263917602209365
495365 180 17774422902913454048
5104073 3 18412543206524781394
633830 44 18266452101649148029
6438718 38 15768668455797798289
8809292 202 18408327674427380530
9709674 26 18338804510552847030

> <PUBCHEM_SHAPE_MULTIPOLES>
364.53
8.72
2.79
0.87
2.14
0.23
0.01
3.45
-0.49
-2.55
0.1
-0.27
-0.08
1.02

> <PUBCHEM_SHAPE_SELFOVERLAP>
770.884

> <PUBCHEM_SHAPE_VOLUME>
209.5

> <PUBCHEM_COORDINATE_TYPE>
2
5
10

$$$$
