135625274
  -OEChem-03292013293D

 58 64  0     1  0  0  0  0  0999 V2000
    4.2842   -1.6775    0.9253 O   0  0  0  0  0  0  0  0  0  0  0  0
    3.5921   -4.3983   -0.3123 O   0  0  0  0  0  0  0  0  0  0  0  0
    7.0563   -1.3292    0.8126 O   0  0  0  0  0  0  0  0  0  0  0  0
    2.3419    4.3782   -0.1658 O   0  0  0  0  0  0  0  0  0  0  0  0
    2.5831   -0.1255    0.1041 N   0  0  0  0  0  0  0  0  0  0  0  0
    0.2327   -0.6127    0.1077 N   0  0  0  0  0  0  0  0  0  0  0  0
    1.2102    1.6358   -0.0155 N   0  0  0  0  0  0  0  0  0  0  0  0
    4.7339    0.9842    0.0618 N   0  0  0  0  0  0  0  0  0  0  0  0
    4.4409    3.3578   -0.0823 N   0  0  0  0  0  0  0  0  0  0  0  0
    6.5967    2.4144   -0.0027 N   0  0  0  0  0  0  0  0  0  0  0  0
    3.0491   -1.5568    0.1950 C   0  0  1  0  0  0  0  0  0  0  0  0
    3.2928   -2.1942   -1.1685 C   0  0  0  0  0  0  0  0  0  0  0  0
    4.2954   -3.2745   -0.8366 C   0  0  1  0  0  0  0  0  0  0  0  0
    5.1337   -2.6368    0.2638 C   0  0  1  0  0  0  0  0  0  0  0  0
    6.3485   -1.8945   -0.2768 C   0  0  0  0  0  0  0  0  0  0  0  0
    1.2850    0.3217    0.0634 C   0  0  0  0  0  0  0  0  0  0  0  0
    3.3826    0.9779    0.0474 C   0  0  0  0  0  0  0  0  0  0  0  0
    2.5128    2.0390   -0.0251 C   0  0  0  0  0  0  0  0  0  0  0  0
   -1.1711   -0.4722    0.0844 C   0  0  0  0  0  0  0  0  0  0  0  0
   -3.9610   -0.1940    0.0373 C   0  0  0  0  0  0  0  0  0  0  0  0
   -5.3709   -0.0533    0.0136 C   0  0  0  0  0  0  0  0  0  0  0  0
   -3.1352    0.9528   -0.0214 C   0  0  0  0  0  0  0  0  0  0  0  0
   -3.3803   -1.4810    0.1198 C   0  0  0  0  0  0  0  0  0  0  0  0
   -1.7416    0.7970    0.0031 C   0  0  0  0  0  0  0  0  0  0  0  0
   -1.9833   -1.6035    0.1423 C   0  0  0  0  0  0  0  0  0  0  0  0
    3.0391    3.3738   -0.0985 C   0  0  0  0  0  0  0  0  0  0  0  0
   -6.1967   -1.2000    0.0723 C   0  0  0  0  0  0  0  0  0  0  0  0
   -5.9515    1.2337   -0.0689 C   0  0  0  0  0  0  0  0  0  0  0  0
    5.2436    2.1950   -0.0045 C   0  0  0  0  0  0  0  0  0  0  0  0
   -3.7283    2.2198   -0.1028 C   0  0  0  0  0  0  0  0  0  0  0  0
   -4.2144   -2.6056    0.1771 C   0  0  0  0  0  0  0  0  0  0  0  0
   -5.6036   -2.4670    0.1537 C   0  0  0  0  0  0  0  0  0  0  0  0
   -5.1175    2.3584   -0.1262 C   0  0  0  0  0  0  0  0  0  0  0  0
   -7.5903   -1.0442    0.0478 C   0  0  0  0  0  0  0  0  0  0  0  0
   -7.3485    1.3562   -0.0914 C   0  0  0  0  0  0  0  0  0  0  0  0
   -8.1607    0.2250   -0.0334 C   0  0  0  0  0  0  0  0  0  0  0  0
    2.3005   -2.0999    0.7797 H   0  0  0  0  0  0  0  0  0  0  0  0
    3.7359   -1.4701   -1.8624 H   0  0  0  0  0  0  0  0  0  0  0  0
    2.3632   -2.5695   -1.6073 H   0  0  0  0  0  0  0  0  0  0  0  0
    4.8717   -3.6107   -1.7032 H   0  0  0  0  0  0  0  0  0  0  0  0
    5.4456   -3.3613    1.0244 H   0  0  0  0  0  0  0  0  0  0  0  0
    6.0655   -1.0869   -0.9573 H   0  0  0  0  0  0  0  0  0  0  0  0
    7.0165   -2.5828   -0.8044 H   0  0  0  0  0  0  0  0  0  0  0  0
    4.2553   -5.0627   -0.0582 H   0  0  0  0  0  0  0  0  0  0  0  0
    0.4932   -1.5952    0.1359 H   0  0  0  0  0  0  0  0  0  0  0  0
   -1.1329    1.6935   -0.0432 H   0  0  0  0  0  0  0  0  0  0  0  0
   -1.5289   -2.5911    0.2057 H   0  0  0  0  0  0  0  0  0  0  0  0
    7.8268   -0.8647    0.4438 H   0  0  0  0  0  0  0  0  0  0  0  0
   -3.1139    3.1168   -0.1490 H   0  0  0  0  0  0  0  0  0  0  0  0
   -3.7905   -3.6058    0.2408 H   0  0  0  0  0  0  0  0  0  0  0  0
    4.9181    4.2534   -0.1303 H   0  0  0  0  0  0  0  0  0  0  0  0
   -6.2187   -3.3634    0.1998 H   0  0  0  0  0  0  0  0  0  0  0  0
   -5.5416    3.3585   -0.1899 H   0  0  0  0  0  0  0  0  0  0  0  0
   -8.2454   -1.9117    0.0919 H   0  0  0  0  0  0  0  0  0  0  0  0
   -7.8176    2.3359   -0.1545 H   0  0  0  0  0  0  0  0  0  0  0  0
   -9.2415    0.3327   -0.0517 H   0  0  0  0  0  0  0  0  0  0  0  0
    7.2531    1.6430    0.0497 H   0  0  0  0  0  0  0  0  0  0  0  0
    6.9809    3.3515   -0.0542 H   0  0  0  0  0  0  0  0  0  0  0  0
  1 11  1  0  0  0  0
  1 14  1  0  0  0  0
  2 13  1  0  0  0  0
  2 44  1  0  0  0  0
  3 15  1  0  0  0  0
  3 48  1  0  0  0  0
  4 26  2  0  0  0  0
  5 11  1  0  0  0  0
  5 16  1  0  0  0  0
  5 17  1  0  0  0  0
  6 16  1  0  0  0  0
  6 19  1  0  0  0  0
  6 45  1  0  0  0  0
  7 16  2  0  0  0  0
  7 18  1  0  0  0  0
  8 17  1  0  0  0  0
  8 29  2  0  0  0  0
  9 26  1  0  0  0  0
  9 29  1  0  0  0  0
  9 51  1  0  0  0  0
 10 29  1  0  0  0  0
 10 57  1  0  0  0  0
 10 58  1  0  0  0  0
 11 12  1  0  0  0  0
 11 37  1  0  0  0  0
 12 13  1  0  0  0  0
 12 38  1  0  0  0  0
 12 39  1  0  0  0  0
 13 14  1  0  0  0  0
 13 40  1  0  0  0  0
 14 15  1  0  0  0  0
 14 41  1  0  0  0  0
 15 42  1  0  0  0  0
 15 43  1  0  0  0  0
 17 18  2  0  0  0  0
 18 26  1  0  0  0  0
 19 24  2  0  0  0  0
 19 25  1  0  0  0  0
 20 21  1  0  0  0  0
 20 22  2  0  0  0  0
 20 23  1  0  0  0  0
 21 27  2  0  0  0  0
 21 28  1  0  0  0  0
 22 24  1  0  0  0  0
 22 30  1  0  0  0  0
 23 25  2  0  0  0  0
 23 31  1  0  0  0  0
 24 46  1  0  0  0  0
 25 47  1  0  0  0  0
 27 32  1  0  0  0  0
 27 34  1  0  0  0  0
 28 33  1  0  0  0  0
 28 35  2  0  0  0  0
 30 33  2  0  0  0  0
 30 49  1  0  0  0  0
 31 32  2  0  0  0  0
 31 50  1  0  0  0  0
 32 52  1  0  0  0  0
 33 53  1  0  0  0  0
 34 36  2  0  0  0  0
 34 54  1  0  0  0  0
 35 36  1  0  0  0  0
 35 55  1  0  0  0  0
 36 56  1  0  0  0  0
M  END
> <PUBCHEM_COMPOUND_CID>
135625274

> <PUBCHEM_CONFORMER_RMSD>
0.8

> <PUBCHEM_CONFORMER_DIVERSEORDER>
1
52
97
91
75
45
15
40
25
67
83
93
61
78
96
37
80
65
81
31
17
63
76
35
101
71
2
94
89
103
8
24
56
26
86
59
39
82
3
85
10
53
99
88
74
92
19
41
32
90
73
33
77
16
34
27
12
51
9
57
98
84
18
55
49
102
58
5
36
7
66
68
72
48
23
13
62
87
70
42
100
46
30
44
14
6
43
79
64
60
95
22
20
50
4
47
28
21
69
54
38
29
11

> <PUBCHEM_MMFF94_PARTIAL_CHARGES>
44
1 -0.56
10 -0.85
11 0.54
13 0.28
14 0.28
15 0.28
16 0.27
17 -0.03
18 0.14
19 0.1
2 -0.68
24 -0.15
25 -0.15
26 0.72
29 0.56
3 -0.68
30 -0.15
31 -0.15
32 -0.15
33 -0.15
34 -0.15
35 -0.15
36 -0.15
4 -0.57
44 0.4
45 0.4
46 0.15
47 0.15
48 0.4
49 0.15
5 0.05
50 0.15
51 0.37
52 0.15
53 0.15
54 0.15
55 0.15
56 0.15
57 0.4
58 0.4
6 -0.58
7 -0.57
8 -0.58
9 -0.49

> <PUBCHEM_EFFECTIVE_ROTOR_COUNT>
5

> <PUBCHEM_PHARMACOPHORE_FEATURES>
17
1 1 acceptor
1 10 donor
1 2 acceptor
1 2 donor
1 3 acceptor
1 3 donor
1 4 acceptor
1 6 donor
1 9 donor
4 5 6 7 16 cation
5 1 11 12 13 14 rings
5 5 7 16 17 18 rings
6 19 20 22 23 24 25 rings
6 20 21 22 28 30 33 rings
6 20 21 23 27 31 32 rings
6 21 27 28 34 35 36 rings
6 8 9 17 18 26 29 rings

> <PUBCHEM_HEAVY_ATOM_COUNT>
36

> <PUBCHEM_ATOM_DEF_STEREO_COUNT>
2

> <PUBCHEM_ATOM_UDEF_STEREO_COUNT>
1

> <PUBCHEM_BOND_DEF_STEREO_COUNT>
0

> <PUBCHEM_BOND_UDEF_STEREO_COUNT>
0

> <PUBCHEM_ISOTOPIC_ATOM_COUNT>
0

> <PUBCHEM_COMPONENT_COUNT>
1

> <PUBCHEM_CACTVS_TAUTO_COUNT>
-1

> <PUBCHEM_CONFORMER_ID>
08157A3A00000001

> <PUBCHEM_MMFF94_ENERGY>
115.9531

> <PUBCHEM_FEATURE_SELFOVERLAP>
86.591

> <PUBCHEM_SHAPE_FINGERPRINT>
10050765 1 18410012178208236107
10411042 1 18194683658327770270
10580692 12 18410293631630742241
10595046 47 18340205314584544493
10835480 77 18410008862604078085
11062273 19 18411991260916109356
11719270 70 18341328985608829186
12107183 9 18125167035076064353
12107698 1 18411418388928967735
12166972 35 18201436930884087993
131258 43 17130729193101194542
13533116 47 18272650138683259131
13782708 43 17894912871705936347
13785724 45 18055079761627837174
13811026 1 18411696565096072721
14295345 954 18334298699001001259
15001296 14 18260542342899052587
15064986 96 17917717881390768094
15183329 4 18410859824216160139
15361156 5 18114754805863124335
15400415 2 18267585899589215473
1577012 14 18131358488558521393
15911013 46 18260269624928336275
16992752 21 18050294666282623198
17844677 252 18411424986167117299
18681886 176 18412537682965165018
19958102 18 18261106362541878231
20721686 56 18334860541586148369
21033648 29 17841979273064347968
21057603 40 16988292971802436686
21133410 127 17896875658945074645
21859007 373 17677880250552027133
23559900 14 18411695461753889915
24771750 20 18261968448293207116
249057 3 18410291385310306735
255183 451 18128828456368233470
3004659 81 18335138670002750010
3411729 13 18335700589955161424
4073 2 18114185292951891683
4098825 35 18409729564743153027
4144715 1 18334301976535840945
4874694 18 18337944688591902075
5104073 3 18409175419936919147
6695519 79 17623028092941632187
9831232 110 18411984620285298711
99344 41 18412260632015551035
9962374 69 18340760520707026807

> <PUBCHEM_SHAPE_MULTIPOLES>
687.5
21.75
4.56
0.7
13.87
0.66
0.04
-2.44
-0.42
-7.23
0.45
-0.35
-0.23
0.55

> <PUBCHEM_SHAPE_SELFOVERLAP>
1573.765

> <PUBCHEM_SHAPE_VOLUME>
351.3

> <PUBCHEM_COORDINATE_TYPE>
2
5
10

$$$$
