135625266
  -OEChem-03292013293D

 39 41  0     1  0  0  0  0  0999 V2000
   -1.7690   -3.5807   -1.1441 F   0  0  0  0  0  0  0  0  0  0  0  0
    2.4003   -0.4282   -0.9392 O   0  0  0  0  0  0  0  0  0  0  0  0
    4.2383    1.9879   -0.4277 O   0  0  0  0  0  0  0  0  0  0  0  0
    2.0723    2.3496    1.1704 O   0  5  0  0  0  0  0  0  0  0  0  0
    3.9160   -2.7336   -0.4651 O   0  0  0  0  0  0  0  0  0  0  0  0
   -4.3173   -0.4796    0.5865 O   0  0  0  0  0  0  0  0  0  0  0  0
    0.2029    0.0458   -0.0300 N   0  3  0  0  0  0  0  0  0  0  0  0
   -1.3619   -1.3344    0.5320 N   0  0  0  0  0  0  0  0  0  0  0  0
   -1.1467    2.0523   -0.4739 N   0  0  0  0  0  0  0  0  0  0  0  0
   -3.4616    1.5563   -0.0920 N   0  0  0  0  0  0  0  0  0  0  0  0
   -2.7887    3.6963   -0.7833 N   0  0  0  0  0  0  0  0  0  0  0  0
    1.5800    0.5976   -0.3334 C   0  0  1  0  0  0  0  0  0  0  0  0
    2.3527    1.0865    0.9104 C   0  0  1  0  0  0  0  0  0  0  0  0
    3.8033    0.9245    0.4260 C   0  0  1  0  0  0  0  0  0  0  0  0
    3.7395   -0.3517   -0.4111 C   0  0  1  0  0  0  0  0  0  0  0  0
   -0.9804    0.7530   -0.1133 C   0  0  0  0  0  0  0  0  0  0  0  0
    4.0091   -1.6135    0.3976 C   0  0  0  0  0  0  0  0  0  0  0  0
   -0.0423   -1.2097    0.3598 C   0  0  0  0  0  0  0  0  0  0  0  0
   -1.9713   -0.1365    0.2470 C   0  0  0  0  0  0  0  0  0  0  0  0
   -2.0219   -2.5524    0.9546 C   0  0  0  0  0  0  0  0  0  0  0  0
   -3.3459    0.2099    0.2871 C   0  0  0  0  0  0  0  0  0  0  0  0
   -2.4063    2.4214   -0.4521 C   0  0  0  0  0  0  0  0  0  0  0  0
   -2.7011   -3.2609   -0.2062 C   0  0  0  0  0  0  0  0  0  0  0  0
    1.4565    1.3770   -1.0985 H   0  0  0  0  0  0  0  0  0  0  0  0
    2.2003    0.3247    1.6894 H   0  0  0  0  0  0  0  0  0  0  0  0
    4.5250    0.8550    1.2477 H   0  0  0  0  0  0  0  0  0  0  0  0
    4.4159   -0.3142   -1.2728 H   0  0  0  0  0  0  0  0  0  0  0  0
    3.2697   -1.7472    1.1931 H   0  0  0  0  0  0  0  0  0  0  0  0
    5.0115   -1.5899    0.8361 H   0  0  0  0  0  0  0  0  0  0  0  0
    0.6925   -1.9844    0.5109 H   0  0  0  0  0  0  0  0  0  0  0  0
    4.1669    2.8116    0.0840 H   0  0  0  0  0  0  0  0  0  0  0  0
   -2.7422   -2.3164    1.7446 H   0  0  0  0  0  0  0  0  0  0  0  0
   -1.2633   -3.2133    1.3895 H   0  0  0  0  0  0  0  0  0  0  0  0
    4.0939   -3.5246    0.0717 H   0  0  0  0  0  0  0  0  0  0  0  0
   -4.4001    1.9457   -0.1089 H   0  0  0  0  0  0  0  0  0  0  0  0
   -3.4535   -2.6354   -0.6916 H   0  0  0  0  0  0  0  0  0  0  0  0
   -3.1746   -4.1883    0.1278 H   0  0  0  0  0  0  0  0  0  0  0  0
   -2.1058    4.3946   -1.0563 H   0  0  0  0  0  0  0  0  0  0  0  0
   -3.7626    3.9783   -0.7652 H   0  0  0  0  0  0  0  0  0  0  0  0
  1 23  1  0  0  0  0
  2 12  1  0  0  0  0
  2 15  1  0  0  0  0
  3 14  1  0  0  0  0
  3 31  1  0  0  0  0
  4 13  1  0  0  0  0
  5 17  1  0  0  0  0
  5 34  1  0  0  0  0
  6 21  2  0  0  0  0
  7 12  1  0  0  0  0
  7 16  1  0  0  0  0
  7 18  2  0  0  0  0
  8 18  1  0  0  0  0
  8 19  1  0  0  0  0
  8 20  1  0  0  0  0
  9 16  1  0  0  0  0
  9 22  2  0  0  0  0
 10 21  1  0  0  0  0
 10 22  1  0  0  0  0
 10 35  1  0  0  0  0
 11 22  1  0  0  0  0
 11 38  1  0  0  0  0
 11 39  1  0  0  0  0
 12 13  1  0  0  0  0
 12 24  1  0  0  0  0
 13 14  1  0  0  0  0
 13 25  1  0  0  0  0
 14 15  1  0  0  0  0
 14 26  1  0  0  0  0
 15 17  1  0  0  0  0
 15 27  1  0  0  0  0
 16 19  2  0  0  0  0
 17 28  1  0  0  0  0
 17 29  1  0  0  0  0
 18 30  1  0  0  0  0
 19 21  1  0  0  0  0
 20 23  1  0  0  0  0
 20 32  1  0  0  0  0
 20 33  1  0  0  0  0
 23 36  1  0  0  0  0
 23 37  1  0  0  0  0
M  CHG  2   4  -1   7   1
M  END
> <PUBCHEM_COMPOUND_CID>
135625266

> <PUBCHEM_CONFORMER_RMSD>
0.8

> <PUBCHEM_CONFORMER_DIVERSEORDER>
1
28
25
31
14
32
5
29
24
11
21
27
16
2
8
18
10
23
19
13
17
26
6
3
7
12
30
22
4
9
15
20

> <PUBCHEM_MMFF94_PARTIAL_CHARGES>
29
1 -0.34
10 -0.49
11 -0.85
12 0.79
13 -0.07
14 0.28
15 0.28
16 0.49
17 0.28
18 0.65
19 0.28
2 -0.56
20 0.51
21 0.7
22 0.56
23 0.34
3 -0.68
30 0.15
31 0.4
34 0.4
35 0.37
38 0.4
39 0.4
4 -0.93
5 -0.68
6 -0.57
7 -0.76
8 -0.76
9 -0.59

> <PUBCHEM_EFFECTIVE_ROTOR_COUNT>
5

> <PUBCHEM_PHARMACOPHORE_FEATURES>
13
1 10 donor
1 11 donor
1 2 acceptor
1 3 acceptor
1 3 donor
1 4 acceptor
1 5 acceptor
1 5 donor
1 6 acceptor
3 7 8 18 cation
5 2 12 13 14 15 rings
5 7 8 16 18 19 rings
6 9 10 16 19 21 22 rings

> <PUBCHEM_HEAVY_ATOM_COUNT>
23

> <PUBCHEM_ATOM_DEF_STEREO_COUNT>
4

> <PUBCHEM_ATOM_UDEF_STEREO_COUNT>
0

> <PUBCHEM_BOND_DEF_STEREO_COUNT>
0

> <PUBCHEM_BOND_UDEF_STEREO_COUNT>
0

> <PUBCHEM_ISOTOPIC_ATOM_COUNT>
0

> <PUBCHEM_COMPONENT_COUNT>
1

> <PUBCHEM_CACTVS_TAUTO_COUNT>
-1

> <PUBCHEM_CONFORMER_ID>
08157A3200000001

> <PUBCHEM_MMFF94_ENERGY>
50.5802

> <PUBCHEM_FEATURE_SELFOVERLAP>
66.158

> <PUBCHEM_SHAPE_FINGERPRINT>
10366900 7 18270677705070394872
10608611 8 18411135844531780704
10616163 171 18338802328999487686
1100329 8 15673512024840462512
11552529 35 17844814891517797779
11578080 2 17344895532932492467
12173636 292 18335416803774771781
12403259 226 18411416198426977713
12500047 106 18337105670819847972
12553582 1 17759254272219746467
12633257 1 18129958800801186594
13004483 165 18126268977518497823
13140716 1 18119256305457079185
13583140 156 17916572254699036786
14178342 30 18262787571322668666
14223421 5 18340482395582773784
14866123 147 16758043992489521474
15042514 8 18334584568367942659
16752209 62 18261381205513758769
16945 1 18335136518582830665
17492 89 18409168848374205482
17804303 29 18337115562044978678
18186145 218 18199192793308018888
19049666 15 18412260619246680872
19591789 44 18336828563719427875
20510252 161 18410857642346699025
20645477 70 17775292638544745526
21065198 57 18409448064381792696
21524375 3 18117559531223683899
23557571 272 18197508530372191070
23558518 356 18187082888430203282
23559900 14 18411699872922562596
2748010 2 18194403531321411443
3084891 72 17979911606033767368
3298306 158 18123754140853690919
350125 39 18191311472743682017
5104073 3 18336830796933818872
532947 4 17692811493291607079
559249 180 18044372717538868714
69090 78 18412825789545258627
7364860 26 17545315281580055597
7399639 24 17840292647468894776
81228 2 18187924057690800281
9709674 26 18411984646086243974

> <PUBCHEM_SHAPE_MULTIPOLES>
411.8
8.04
3.95
0.9
4.76
0.92
-0.04
0.15
0.01
-2.79
0.8
0.11
0.08
0.8

> <PUBCHEM_SHAPE_SELFOVERLAP>
884.865

> <PUBCHEM_SHAPE_VOLUME>
227.5

> <PUBCHEM_COORDINATE_TYPE>
2
5
10

$$$$
