135618532
  -OEChem-03292013293D

 48 51  0     0  0  0  0  0  0999 V2000
   -5.3543    1.5961    0.0185 S   0  0  0  0  0  0  0  0  0  0  0  0
   -5.6755    2.6904    0.9270 O   0  0  0  0  0  0  0  0  0  0  0  0
   -5.8529    1.6508   -1.3503 O   0  0  0  0  0  0  0  0  0  0  0  0
    4.5350   -2.3657    1.3135 O   0  0  0  0  0  0  0  0  0  0  0  0
   -4.7362   -2.6085   -1.2235 O   0  0  0  0  0  0  0  0  0  0  0  0
    0.5461    1.0439   -0.1355 N   0  0  0  0  0  0  0  0  0  0  0  0
    4.8594    1.8829   -0.6823 N   0  0  0  0  0  0  0  0  0  0  0  0
    3.3543    0.0466    0.7416 N   0  0  0  0  0  0  0  0  0  0  0  0
   -5.8571    0.1228    0.7571 N   0  0  0  0  0  0  0  0  0  0  0  0
    6.7060    0.3484   -0.7712 N   0  0  0  0  0  0  0  0  0  0  0  0
    6.4786   -1.7535    0.2438 N   0  0  0  0  0  0  0  0  0  0  0  0
    8.4721   -1.1898   -0.8250 N   0  0  0  0  0  0  0  0  0  0  0  0
   -5.2145   -1.3089   -1.1095 N   0  0  0  0  0  0  0  0  0  0  0  0
    2.8305    1.1987    0.4525 C   0  0  0  0  0  0  0  0  0  0  0  0
    1.4219    1.4785    0.9102 C   0  0  0  0  0  0  0  0  0  0  0  0
    3.5318    2.2957   -0.3154 C   0  0  0  0  0  0  0  0  0  0  0  0
   -0.8399    1.1736   -0.0983 C   0  0  0  0  0  0  0  0  0  0  0  0
    5.4168    0.6542   -0.3739 C   0  0  0  0  0  0  0  0  0  0  0  0
    4.6388   -0.2064    0.3236 C   0  0  0  0  0  0  0  0  0  0  0  0
   -3.6166    1.4334   -0.0261 C   0  0  0  0  0  0  0  0  0  0  0  0
   -1.6109    0.7195   -1.1683 C   0  0  0  0  0  0  0  0  0  0  0  0
   -1.4573    1.7578    1.0078 C   0  0  0  0  0  0  0  0  0  0  0  0
   -2.9993    0.8493   -1.1322 C   0  0  0  0  0  0  0  0  0  0  0  0
   -2.8456    1.8876    1.0439 C   0  0  0  0  0  0  0  0  0  0  0  0
    5.1906   -1.5422    0.6819 C   0  0  0  0  0  0  0  0  0  0  0  0
    7.2041   -0.8151   -0.4665 C   0  0  0  0  0  0  0  0  0  0  0  0
   -5.3712   -1.1121    0.2027 C   0  0  0  0  0  0  0  0  0  0  0  0
   -5.0113   -2.2413    0.9584 C   0  0  0  0  0  0  0  0  0  0  0  0
   -4.6195   -3.1534    0.0145 C   0  0  0  0  0  0  0  0  0  0  0  0
   -4.1241   -4.5336    0.0809 C   0  0  0  0  0  0  0  0  0  0  0  0
    1.3227    2.5519    1.1045 H   0  0  0  0  0  0  0  0  0  0  0  0
    1.2362    0.9275    1.8391 H   0  0  0  0  0  0  0  0  0  0  0  0
    2.9502    2.5287   -1.2127 H   0  0  0  0  0  0  0  0  0  0  0  0
    3.5797    3.1911    0.3121 H   0  0  0  0  0  0  0  0  0  0  0  0
    0.9428    0.6018   -0.9584 H   0  0  0  0  0  0  0  0  0  0  0  0
    5.4470    2.5238   -1.2050 H   0  0  0  0  0  0  0  0  0  0  0  0
   -1.1422    0.2688   -2.0395 H   0  0  0  0  0  0  0  0  0  0  0  0
   -0.8931    2.1210    1.8618 H   0  0  0  0  0  0  0  0  0  0  0  0
   -3.5689    0.5163   -1.9940 H   0  0  0  0  0  0  0  0  0  0  0  0
   -3.3055    2.3386    1.9187 H   0  0  0  0  0  0  0  0  0  0  0  0
   -5.9932    0.1360    1.7763 H   0  0  0  0  0  0  0  0  0  0  0  0
    6.9170   -2.6452    0.4540 H   0  0  0  0  0  0  0  0  0  0  0  0
   -5.0325   -2.3753    2.0300 H   0  0  0  0  0  0  0  0  0  0  0  0
    9.0762   -0.5651   -1.3478 H   0  0  0  0  0  0  0  0  0  0  0  0
    8.8440   -2.1007   -0.5791 H   0  0  0  0  0  0  0  0  0  0  0  0
   -4.7883   -5.2078   -0.4687 H   0  0  0  0  0  0  0  0  0  0  0  0
   -3.1233   -4.6046   -0.3562 H   0  0  0  0  0  0  0  0  0  0  0  0
   -4.0672   -4.8838    1.1162 H   0  0  0  0  0  0  0  0  0  0  0  0
  1  2  2  0  0  0  0
  1  3  2  0  0  0  0
  1  9  1  0  0  0  0
  1 20  1  0  0  0  0
  4 25  2  0  0  0  0
  5 13  1  0  0  0  0
  5 29  1  0  0  0  0
  6 15  1  0  0  0  0
  6 17  1  0  0  0  0
  6 35  1  0  0  0  0
  7 16  1  0  0  0  0
  7 18  1  0  0  0  0
  7 36  1  0  0  0  0
  8 14  2  0  0  0  0
  8 19  1  0  0  0  0
  9 27  1  0  0  0  0
  9 41  1  0  0  0  0
 10 18  1  0  0  0  0
 10 26  2  0  0  0  0
 11 25  1  0  0  0  0
 11 26  1  0  0  0  0
 11 42  1  0  0  0  0
 12 26  1  0  0  0  0
 12 44  1  0  0  0  0
 12 45  1  0  0  0  0
 13 27  2  0  0  0  0
 14 15  1  0  0  0  0
 14 16  1  0  0  0  0
 15 31  1  0  0  0  0
 15 32  1  0  0  0  0
 16 33  1  0  0  0  0
 16 34  1  0  0  0  0
 17 21  2  0  0  0  0
 17 22  1  0  0  0  0
 18 19  2  0  0  0  0
 19 25  1  0  0  0  0
 20 23  2  0  0  0  0
 20 24  1  0  0  0  0
 21 23  1  0  0  0  0
 21 37  1  0  0  0  0
 22 24  2  0  0  0  0
 22 38  1  0  0  0  0
 23 39  1  0  0  0  0
 24 40  1  0  0  0  0
 27 28  1  0  0  0  0
 28 29  2  0  0  0  0
 28 43  1  0  0  0  0
 29 30  1  0  0  0  0
 30 46  1  0  0  0  0
 30 47  1  0  0  0  0
 30 48  1  0  0  0  0
M  END
> <PUBCHEM_COMPOUND_CID>
135618532

> <PUBCHEM_CONFORMER_RMSD>
1

> <PUBCHEM_CONFORMER_DIVERSEORDER>
3
118
193
210
133
234
166
198
180
190
230
27
163
111
179
219
170
47
235
159
92
128
139
46
223
208
176
177
125
232
217
33
19
79
78
153
28
236
220
93
35
194
229
152
196
60
192
129
140
167
231
122
2
138
85
77
205
89
187
39
233
109
84
204
63
165
224
155
104
65
41
114
207
203
32
171
1
9
11
172
44
226
158
151
86
211
200
201
117
30
185
53
34
142
99
214
51
206
213
137
132
202
227
160
186
174
145
74
237
156
146
8
102
61
42
6
183
56
144
161
101
197
31
218
164
82
115
119
136
173
38
21
26
24
5
75
90
209
216
36
87
154
120
45
150
67
64
54
143
70
182
181
134
162
191
175
37
141
91
189
49
110
105
66
76
98
69
127
221
106
48
97
195
169
225
215
50
13
72
29
100
14
113
16
4
148
22
184
188
23
57
178
103
126
17
107
147
212
7
88
68
55
10
43
199
130
112
81
15
157
135
222
83
228
116
52
20
18
96
124
168
62
94
123
58
40
131
73
95
12
71
80
108
121
25
59
149

> <PUBCHEM_MMFF94_PARTIAL_CHARGES>
41
1 1.45
10 -0.62
11 -0.49
12 -0.85
13 -0.41
14 0.33
15 0.43
16 0.43
17 0.1
18 0.27
19 0.19
2 -0.65
20 -0.01
21 -0.15
22 -0.15
23 -0.15
24 -0.15
25 0.62
26 0.56
27 0.43
28 -0.15
29 -0.04
3 -0.65
30 0.18
35 0.4
36 0.4
37 0.15
38 0.15
39 0.15
4 -0.57
40 0.15
41 0.42
42 0.37
43 0.15
44 0.4
45 0.4
5 -0.02
6 -0.87
7 -0.87
8 -0.62
9 -0.7

> <PUBCHEM_EFFECTIVE_ROTOR_COUNT>
6.4

> <PUBCHEM_PHARMACOPHORE_FEATURES>
16
1 11 donor
1 12 donor
1 13 acceptor
1 2 acceptor
1 3 acceptor
1 4 acceptor
1 6 cation
1 6 donor
1 7 cation
1 7 donor
1 8 acceptor
1 9 donor
5 5 13 27 28 29 rings
6 10 11 18 19 25 26 rings
6 17 20 21 22 23 24 rings
6 7 8 14 16 18 19 rings

> <PUBCHEM_HEAVY_ATOM_COUNT>
30

> <PUBCHEM_ATOM_DEF_STEREO_COUNT>
0

> <PUBCHEM_ATOM_UDEF_STEREO_COUNT>
0

> <PUBCHEM_BOND_DEF_STEREO_COUNT>
0

> <PUBCHEM_BOND_UDEF_STEREO_COUNT>
0

> <PUBCHEM_ISOTOPIC_ATOM_COUNT>
0

> <PUBCHEM_COMPONENT_COUNT>
1

> <PUBCHEM_CACTVS_TAUTO_COUNT>
-1

> <PUBCHEM_CONFORMER_ID>
08155FE400000003

> <PUBCHEM_MMFF94_ENERGY>
73.407

> <PUBCHEM_FEATURE_SELFOVERLAP>
81.301

> <PUBCHEM_SHAPE_FINGERPRINT>
10299344 5 18408608032813067824
10369192 42 14057002685933488345
11135609 99 18342175566755118022
11524674 6 17561361782136101663
117089 54 18265901439360543379
12236239 1 18343585123050164408
12522641 33 18189886519598366405
1361 4 18267587003707293934
13690498 29 18113897165582431621
13782708 43 18201157753740981004
13911987 19 13984654867922820073
14211702 104 18271815626669840094
14461889 52 18268700796576200448
14856354 85 18343302561588639797
15082195 135 17606128531216037260
15183329 4 18186796989262988762
15230672 131 18335978649736948971
15250474 111 18334845121936657435
15289351 153 9295294903113388492
15352257 5 18410012139215965778
15361156 5 17821739329000001932
15799311 1 18336839635955245251
17913733 40 15482400793431162751
220451 1 18334016068625769232
23516275 137 17974027062767973899
23522609 53 18192180185461516452
23559900 14 18340759447023426785
249057 3 18333447634890914557
2838139 119 8862950463170570930
3004659 81 18408884015096377704
335507 130 17968104152589990332
4073 2 18411136961054238928
439807 62 18409732902159764115
44802255 64 17604138239597654455
484985 159 18412257377221793975
5104073 3 17917710235848386337
531348 171 18114738236290908745
6441014 3 17907859849205658539
8863177 126 18271523212263363202
999808 66 18202285809916799686

> <PUBCHEM_SHAPE_MULTIPOLES>
557.91
22.19
3.82
1.14
26.33
3.97
0.06
9.44
2.74
-6
-0.38
-0.57
-0.07
-0.87

> <PUBCHEM_SHAPE_SELFOVERLAP>
1199.453

> <PUBCHEM_SHAPE_VOLUME>
307.4

> <PUBCHEM_COORDINATE_TYPE>
2
5
10

$$$$
