135625335
  -OEChem-03292013293D

 62 64  0     1  0  0  0  0  0999 V2000
    5.8213    0.6367   -2.5729 O   0  0  0  0  0  0  0  0  0  0  0  0
   -3.3283    0.8993    2.4301 O   0  0  0  0  0  0  0  0  0  0  0  0
   -7.7657   -0.8704    1.7630 O   0  0  0  0  0  0  0  0  0  0  0  0
   -6.7359   -1.6002   -0.1230 O   0  0  0  0  0  0  0  0  0  0  0  0
   -6.5771    2.7838   -3.1396 O   0  0  0  0  0  0  0  0  0  0  0  0
   -6.6824    3.9409   -1.1911 O   0  0  0  0  0  0  0  0  0  0  0  0
    1.5355   -2.0786   -0.4081 N   0  0  3  0  0  0  0  0  0  0  0  0
    6.4613    1.9443    1.2228 N   0  0  0  0  0  0  0  0  0  0  0  0
    6.8703    2.0528   -1.0881 N   0  0  0  0  0  0  0  0  0  0  0  0
    7.9770    3.5107    0.3607 N   0  0  0  0  0  0  0  0  0  0  0  0
   -4.4821   -0.2132    0.7544 N   0  0  0  0  0  0  0  0  0  0  0  0
    3.4060   -0.9744    0.6733 C   0  0  1  0  0  0  0  0  0  0  0  0
    4.2260   -0.9997    1.9657 C   0  0  0  0  0  0  0  0  0  0  0  0
    4.3207   -0.6777   -0.5260 C   0  0  0  0  0  0  0  0  0  0  0  0
    2.6552   -2.2886    0.4709 C   0  0  0  0  0  0  0  0  0  0  0  0
    4.9225    0.3439    2.1969 C   0  0  0  0  0  0  0  0  0  0  0  0
    5.3019    0.4300   -0.2604 C   0  0  0  0  0  0  0  0  0  0  0  0
    5.5798    0.9188    0.9637 C   0  0  0  0  0  0  0  0  0  0  0  0
    6.0057    1.0309   -1.4256 C   0  0  0  0  0  0  0  0  0  0  0  0
    0.3289   -1.5296    0.0555 C   0  0  0  0  0  0  0  0  0  0  0  0
    1.6711   -2.4433   -1.8217 C   0  0  0  0  0  0  0  0  0  0  0  0
    7.0807    2.4854    0.2121 C   0  0  0  0  0  0  0  0  0  0  0  0
   -0.7326   -1.3347   -0.8283 C   0  0  0  0  0  0  0  0  0  0  0  0
    0.1913   -1.1798    1.3989 C   0  0  0  0  0  0  0  0  0  0  0  0
   -1.9316   -0.7901   -0.3687 C   0  0  0  0  0  0  0  0  0  0  0  0
   -1.0077   -0.6352    1.8582 C   0  0  0  0  0  0  0  0  0  0  0  0
   -2.0692   -0.4401    0.9746 C   0  0  0  0  0  0  0  0  0  0  0  0
    1.0708   -3.7550   -2.0773 C   0  0  0  0  0  0  0  0  0  0  0  0
   -5.7945    0.2886    1.0929 C   0  0  1  0  0  0  0  0  0  0  0  0
   -3.3187    0.1288    1.4537 C   0  0  0  0  0  0  0  0  0  0  0  0
   -6.1224    1.6113    0.3896 C   0  0  0  0  0  0  0  0  0  0  0  0
   -6.1745    1.5588   -1.1425 C   0  0  0  0  0  0  0  0  0  0  0  0
    0.5796   -4.8294   -2.2910 C   0  0  0  0  0  0  0  0  0  0  0  0
   -6.7935   -0.8159    0.8152 C   0  0  0  0  0  0  0  0  0  0  0  0
   -6.4892    2.8909   -1.7880 C   0  0  0  0  0  0  0  0  0  0  0  0
    2.6968   -0.1398    0.7613 H   0  0  0  0  0  0  0  0  0  0  0  0
    4.9777   -1.7984    1.9137 H   0  0  0  0  0  0  0  0  0  0  0  0
    3.5849   -1.2227    2.8268 H   0  0  0  0  0  0  0  0  0  0  0  0
    3.6963   -0.4043   -1.3850 H   0  0  0  0  0  0  0  0  0  0  0  0
    4.8891   -1.5734   -0.8072 H   0  0  0  0  0  0  0  0  0  0  0  0
    2.3348   -2.7313    1.4218 H   0  0  0  0  0  0  0  0  0  0  0  0
    3.3345   -3.0451    0.0547 H   0  0  0  0  0  0  0  0  0  0  0  0
    5.6691    0.2138    2.9902 H   0  0  0  0  0  0  0  0  0  0  0  0
    4.1888    1.0718    2.5664 H   0  0  0  0  0  0  0  0  0  0  0  0
    1.2922   -1.6661   -2.4944 H   0  0  0  0  0  0  0  0  0  0  0  0
    2.7356   -2.5170   -2.0788 H   0  0  0  0  0  0  0  0  0  0  0  0
    7.3833    2.5105   -1.8357 H   0  0  0  0  0  0  0  0  0  0  0  0
   -0.6938   -1.5827   -1.8829 H   0  0  0  0  0  0  0  0  0  0  0  0
    0.9792   -1.3041    2.1334 H   0  0  0  0  0  0  0  0  0  0  0  0
   -2.7214   -0.6264   -1.0961 H   0  0  0  0  0  0  0  0  0  0  0  0
   -1.0972   -0.3720    2.9091 H   0  0  0  0  0  0  0  0  0  0  0  0
    8.1931    3.8908    1.2758 H   0  0  0  0  0  0  0  0  0  0  0  0
    8.4502    3.9196   -0.4377 H   0  0  0  0  0  0  0  0  0  0  0  0
   -5.7962    0.4671    2.1758 H   0  0  0  0  0  0  0  0  0  0  0  0
   -7.0934    1.9707    0.7551 H   0  0  0  0  0  0  0  0  0  0  0  0
   -5.3848    2.3674    0.6894 H   0  0  0  0  0  0  0  0  0  0  0  0
   -4.4311   -0.8709   -0.0167 H   0  0  0  0  0  0  0  0  0  0  0  0
   -5.2077    1.2232   -1.5335 H   0  0  0  0  0  0  0  0  0  0  0  0
   -6.9481    0.8512   -1.4597 H   0  0  0  0  0  0  0  0  0  0  0  0
    0.1434   -5.7823   -2.4800 H   0  0  0  0  0  0  0  0  0  0  0  0
   -8.4029   -1.5962    1.5914 H   0  0  0  0  0  0  0  0  0  0  0  0
   -6.7990    3.6417   -3.5605 H   0  0  0  0  0  0  0  0  0  0  0  0
  1 19  2  0  0  0  0
  2 30  2  0  0  0  0
  3 34  1  0  0  0  0
  3 61  1  0  0  0  0
  4 34  2  0  0  0  0
  5 35  1  0  0  0  0
  5 62  1  0  0  0  0
  6 35  2  0  0  0  0
  7 15  1  0  0  0  0
  7 20  1  0  0  0  0
  7 21  1  0  0  0  0
  8 18  1  0  0  0  0
  8 22  2  0  0  0  0
  9 19  1  0  0  0  0
  9 22  1  0  0  0  0
  9 47  1  0  0  0  0
 10 22  1  0  0  0  0
 10 52  1  0  0  0  0
 10 53  1  0  0  0  0
 11 29  1  0  0  0  0
 11 30  1  0  0  0  0
 11 57  1  0  0  0  0
 12 13  1  0  0  0  0
 12 14  1  0  0  0  0
 12 15  1  0  0  0  0
 12 36  1  0  0  0  0
 13 16  1  0  0  0  0
 13 37  1  0  0  0  0
 13 38  1  0  0  0  0
 14 17  1  0  0  0  0
 14 39  1  0  0  0  0
 14 40  1  0  0  0  0
 15 41  1  0  0  0  0
 15 42  1  0  0  0  0
 16 18  1  0  0  0  0
 16 43  1  0  0  0  0
 16 44  1  0  0  0  0
 17 18  2  0  0  0  0
 17 19  1  0  0  0  0
 20 23  2  0  0  0  0
 20 24  1  0  0  0  0
 21 28  1  0  0  0  0
 21 45  1  0  0  0  0
 21 46  1  0  0  0  0
 23 25  1  0  0  0  0
 23 48  1  0  0  0  0
 24 26  2  0  0  0  0
 24 49  1  0  0  0  0
 25 27  2  0  0  0  0
 25 50  1  0  0  0  0
 26 27  1  0  0  0  0
 26 51  1  0  0  0  0
 27 30  1  0  0  0  0
 28 33  3  0  0  0  0
 29 31  1  0  0  0  0
 29 34  1  0  0  0  0
 29 54  1  0  0  0  0
 31 32  1  0  0  0  0
 31 55  1  0  0  0  0
 31 56  1  0  0  0  0
 32 35  1  0  0  0  0
 32 58  1  0  0  0  0
 32 59  1  0  0  0  0
 33 60  1  0  0  0  0
M  END
> <PUBCHEM_COMPOUND_CID>
135625335

> <PUBCHEM_CONFORMER_RMSD>
1.2

> <PUBCHEM_CONFORMER_DIVERSEORDER>
4
34
139
119
86
152
114
45
50
78
130
72
154
151
138
157
80
142
126
53
69
105
144
101
59
148
155
71
85
51
25
40
100
158
149
97
65
61
79
43
44
103
123
14
102
99
134
121
82
84
165
29
30
107
161
92
60
116
58
109
140
41
83
3
128
163
150
153
49
118
106
64
19
94
81
143
32
129
77
20
73
15
74
141
133
35
48
110
156
124
56
91
98
168
115
13
166
37
10
162
87
132
135
167
66
108
147
120
127
22
5
1
145
160
76
21
90
159
96
52
113
18
146
16
57
67
9
36
63
136
137
28
47
24
27
54
164
8
89
26
39
104
6
33
46
112
42
75
70
111
17
7
38
117
2
131
55
23
95
88
12
11
125
31
62
93
68
122

> <PUBCHEM_MMFF94_PARTIAL_CHARGES>
43
1 -0.57
10 -0.85
11 -0.73
14 0.14
15 0.37
16 0.14
17 -0.12
18 0.03
19 0.62
2 -0.57
20 0.1
21 0.57
22 0.56
23 -0.15
24 -0.15
25 -0.15
26 -0.15
27 0.09
28 -0.2
29 0.36
3 -0.65
30 0.54
32 0.06
33 -0.18
34 0.66
35 0.66
4 -0.57
47 0.37
48 0.15
49 0.15
5 -0.65
50 0.15
51 0.15
52 0.4
53 0.4
57 0.37
6 -0.57
60 0.18
61 0.5
62 0.5
7 -0.84
8 -0.62
9 -0.49

> <PUBCHEM_EFFECTIVE_ROTOR_COUNT>
11.8

> <PUBCHEM_PHARMACOPHORE_FEATURES>
16
1 1 acceptor
1 10 donor
1 11 donor
1 2 acceptor
1 3 acceptor
1 33 hydrophobe
1 4 acceptor
1 5 acceptor
1 6 acceptor
1 7 cation
1 9 donor
3 3 4 34 anion
3 5 6 35 anion
6 12 13 14 16 17 18 rings
6 20 23 24 25 26 27 rings
6 8 9 17 18 19 22 rings

> <PUBCHEM_HEAVY_ATOM_COUNT>
35

> <PUBCHEM_ATOM_DEF_STEREO_COUNT>
1

> <PUBCHEM_ATOM_UDEF_STEREO_COUNT>
1

> <PUBCHEM_BOND_DEF_STEREO_COUNT>
0

> <PUBCHEM_BOND_UDEF_STEREO_COUNT>
0

> <PUBCHEM_ISOTOPIC_ATOM_COUNT>
0

> <PUBCHEM_COMPONENT_COUNT>
1

> <PUBCHEM_CACTVS_TAUTO_COUNT>
-1

> <PUBCHEM_CONFORMER_ID>
08157A7700000004

> <PUBCHEM_MMFF94_ENERGY>
87.6384

> <PUBCHEM_FEATURE_SELFOVERLAP>
81.383

> <PUBCHEM_SHAPE_FINGERPRINT>
10554248 39 18128808651619910023
11476731 118 18335979792135784237
12013929 112 13254254731109439737
12661589 4 11887371600367977844
14068700 686 18270972228426464347
14294032 229 18339634650611507814
15021287 119 12540702531053908843
15183329 4 12175630572343289955
15350500 55 18187359935459798436
16994733 274 18186234026683265025
17686467 74 18187369883299706785
18365409 1 17844248638487015935
19246450 95 12829753095560857309
19301679 30 11819260179843598642
19304144 158 18408884027790966293
19841028 212 10735889361473370716
20505436 4 18338513153795716922
21033648 29 17603586300769592482
21130935 74 17240760645217087955
21792934 111 13695854961258116795
22122407 14 17604161422818988868
2303208 19 10015283746964193147
3103668 31 17628910428875617175
5104073 3 13768800944043759337
6058803 2 16698942085437214595
9555976 147 15936991711567343449
9831232 110 12247684850661463056

> <PUBCHEM_SHAPE_MULTIPOLES>
660.16
23.98
4.29
2.55
11.33
1.7
-0.83
-26.57
-2.98
-1.15
-3.95
1.37
-0.21
3.69

> <PUBCHEM_SHAPE_SELFOVERLAP>
1393.888

> <PUBCHEM_SHAPE_VOLUME>
365

> <PUBCHEM_COORDINATE_TYPE>
2
5
10

$$$$
