135625340
  -OEChem-03292013293D

 54 56  0     1  0  0  0  0  0999 V2000
    7.8492    2.2173   -1.2286 O   0  0  0  0  0  0  0  0  0  0  0  0
    4.3145    1.2272    2.2262 O   0  0  0  0  0  0  0  0  0  0  0  0
    5.8197    2.0169   -2.2241 O   0  0  0  0  0  0  0  0  0  0  0  0
    7.4288   -3.4703   -1.4292 O   0  0  0  0  0  0  0  0  0  0  0  0
   -6.5419    2.4972    0.0995 O   0  0  0  0  0  0  0  0  0  0  0  0
    8.2164   -2.7256    0.5638 O   0  0  0  0  0  0  0  0  0  0  0  0
    4.7117    0.9129   -0.0367 N   0  0  0  0  0  0  0  0  0  0  0  0
   -1.6030    0.0114    0.2677 N   0  0  0  0  0  0  0  0  0  0  0  0
   -8.1395    1.0137   -0.6593 N   0  0  0  0  0  0  0  0  0  0  0  0
   -7.7489   -1.3147   -0.7636 N   0  0  0  0  0  0  0  0  0  0  0  0
    6.1420    1.1136    0.0146 C   0  0  1  0  0  0  0  0  0  0  0  0
    6.9124   -0.1829    0.2924 C   0  0  0  0  0  0  0  0  0  0  0  0
    6.7717   -1.2840   -0.7664 C   0  0  0  0  0  0  0  0  0  0  0  0
   -3.8649   -0.7025    0.7546 C   0  0  0  0  0  0  0  0  0  0  0  0
   -2.4869   -0.5049    1.2902 C   0  0  0  0  0  0  0  0  0  0  0  0
   -5.9899    0.2005    0.0573 C   0  0  0  0  0  0  0  0  0  0  0  0
   -4.7005    0.3963    0.5606 C   0  0  0  0  0  0  0  0  0  0  0  0
   -0.2548    0.2502    0.4698 C   0  0  0  0  0  0  0  0  0  0  0  0
    2.4627    0.7331    0.8753 C   0  0  0  0  0  0  0  0  0  0  0  0
   -6.4564   -1.0851   -0.2557 C   0  0  0  0  0  0  0  0  0  0  0  0
    3.8794    0.9836    1.0866 C   0  0  0  0  0  0  0  0  0  0  0  0
   -4.3150   -1.9858    0.4478 C   0  0  0  0  0  0  0  0  0  0  0  0
    6.5542    1.8074   -1.2674 C   0  0  0  0  0  0  0  0  0  0  0  0
   -5.6039   -2.1759   -0.0547 C   0  0  0  0  0  0  0  0  0  0  0  0
    0.3215   -0.0084    1.7135 C   0  0  0  0  0  0  0  0  0  0  0  0
    0.5276    0.7502   -0.5711 C   0  0  0  0  0  0  0  0  0  0  0  0
    1.6802    0.2331    1.9162 C   0  0  0  0  0  0  0  0  0  0  0  0
    1.8863    0.9918   -0.3683 C   0  0  0  0  0  0  0  0  0  0  0  0
   -6.8934    1.3516   -0.1569 C   0  0  0  0  0  0  0  0  0  0  0  0
    7.5404   -2.5460   -0.4397 C   0  0  0  0  0  0  0  0  0  0  0  0
   -8.5141   -0.2842   -0.9391 C   0  0  0  0  0  0  0  0  0  0  0  0
   -9.9058   -0.4376   -1.4752 C   0  0  0  0  0  0  0  0  0  0  0  0
    6.3400    1.8200    0.8307 H   0  0  0  0  0  0  0  0  0  0  0  0
    7.9786    0.0526    0.4068 H   0  0  0  0  0  0  0  0  0  0  0  0
    6.5881   -0.5873    1.2605 H   0  0  0  0  0  0  0  0  0  0  0  0
    7.1382   -0.9138   -1.7302 H   0  0  0  0  0  0  0  0  0  0  0  0
    5.7169   -1.5600   -0.8734 H   0  0  0  0  0  0  0  0  0  0  0  0
   -2.5359    0.1860    2.1419 H   0  0  0  0  0  0  0  0  0  0  0  0
   -2.1070   -1.4598    1.6754 H   0  0  0  0  0  0  0  0  0  0  0  0
    4.3251    0.6319   -0.9319 H   0  0  0  0  0  0  0  0  0  0  0  0
   -4.3444    1.3947    0.8012 H   0  0  0  0  0  0  0  0  0  0  0  0
   -1.9816    0.2120   -0.6520 H   0  0  0  0  0  0  0  0  0  0  0  0
   -3.6723   -2.8504    0.5923 H   0  0  0  0  0  0  0  0  0  0  0  0
   -5.9391   -3.1834   -0.2893 H   0  0  0  0  0  0  0  0  0  0  0  0
   -0.2494   -0.3962    2.5518 H   0  0  0  0  0  0  0  0  0  0  0  0
    0.0896    0.9626   -1.5432 H   0  0  0  0  0  0  0  0  0  0  0  0
    2.1114    0.0212    2.8913 H   0  0  0  0  0  0  0  0  0  0  0  0
    2.4514    1.4104   -1.1960 H   0  0  0  0  0  0  0  0  0  0  0  0
   -8.7977    1.7701   -0.8236 H   0  0  0  0  0  0  0  0  0  0  0  0
  -10.4788   -1.0815   -0.8014 H   0  0  0  0  0  0  0  0  0  0  0  0
   -9.8596   -0.9199   -2.4561 H   0  0  0  0  0  0  0  0  0  0  0  0
  -10.4196    0.5219   -1.5737 H   0  0  0  0  0  0  0  0  0  0  0  0
    8.1107    2.6804   -2.0529 H   0  0  0  0  0  0  0  0  0  0  0  0
    7.9406   -4.2830   -1.2295 H   0  0  0  0  0  0  0  0  0  0  0  0
  1 23  1  0  0  0  0
  1 53  1  0  0  0  0
  2 21  2  0  0  0  0
  3 23  2  0  0  0  0
  4 30  1  0  0  0  0
  4 54  1  0  0  0  0
  5 29  2  0  0  0  0
  6 30  2  0  0  0  0
  7 11  1  0  0  0  0
  7 21  1  0  0  0  0
  7 40  1  0  0  0  0
  8 15  1  0  0  0  0
  8 18  1  0  0  0  0
  8 42  1  0  0  0  0
  9 29  1  0  0  0  0
  9 31  1  0  0  0  0
  9 49  1  0  0  0  0
 10 20  1  0  0  0  0
 10 31  2  0  0  0  0
 11 12  1  0  0  0  0
 11 23  1  0  0  0  0
 11 33  1  0  0  0  0
 12 13  1  0  0  0  0
 12 34  1  0  0  0  0
 12 35  1  0  0  0  0
 13 30  1  0  0  0  0
 13 36  1  0  0  0  0
 13 37  1  0  0  0  0
 14 15  1  0  0  0  0
 14 17  2  0  0  0  0
 14 22  1  0  0  0  0
 15 38  1  0  0  0  0
 15 39  1  0  0  0  0
 16 17  1  0  0  0  0
 16 20  2  0  0  0  0
 16 29  1  0  0  0  0
 17 41  1  0  0  0  0
 18 25  2  0  0  0  0
 18 26  1  0  0  0  0
 19 21  1  0  0  0  0
 19 27  2  0  0  0  0
 19 28  1  0  0  0  0
 20 24  1  0  0  0  0
 22 24  2  0  0  0  0
 22 43  1  0  0  0  0
 24 44  1  0  0  0  0
 25 27  1  0  0  0  0
 25 45  1  0  0  0  0
 26 28  2  0  0  0  0
 26 46  1  0  0  0  0
 27 47  1  0  0  0  0
 28 48  1  0  0  0  0
 31 32  1  0  0  0  0
 32 50  1  0  0  0  0
 32 51  1  0  0  0  0
 32 52  1  0  0  0  0
M  END
> <PUBCHEM_COMPOUND_CID>
135625340

> <PUBCHEM_CONFORMER_RMSD>
1

> <PUBCHEM_CONFORMER_DIVERSEORDER>
1
17
70
66
40
81
54
8
59
46
69
15
36
64
60
67
85
50
39
53
84
72
56
78
58
25
23
62
19
6
42
80
63
57
55
83
75
29
52
48
49
82
38
22
76
16
43
68
30
87
86
79
21
24
74
47
35
18
61
12
89
73
10
37
51
65
41
71
20
33
34
77
88
32
14
26
31
3
11
13
44
28
5
45
7
4
9
27
2

> <PUBCHEM_MMFF94_PARTIAL_CHARGES>
43
1 -0.65
10 -0.63
11 0.36
13 0.06
14 -0.14
15 0.51
16 0.09
17 -0.15
18 0.1
19 0.09
2 -0.57
20 0.18
21 0.54
22 -0.15
23 0.66
24 -0.15
25 -0.15
26 -0.15
27 -0.15
28 -0.15
29 0.54
3 -0.57
30 0.66
31 0.45
32 0.06
4 -0.65
40 0.37
41 0.15
42 0.4
43 0.15
44 0.15
45 0.15
46 0.15
47 0.15
48 0.15
49 0.37
5 -0.57
53 0.5
54 0.5
6 -0.57
7 -0.73
8 -0.87
9 -0.49

> <PUBCHEM_EFFECTIVE_ROTOR_COUNT>
10

> <PUBCHEM_PHARMACOPHORE_FEATURES>
15
1 1 acceptor
1 2 acceptor
1 3 acceptor
1 4 acceptor
1 5 acceptor
1 6 acceptor
1 7 donor
1 8 cation
1 8 donor
1 9 donor
3 1 3 23 anion
3 4 6 30 anion
6 14 16 17 20 22 24 rings
6 18 19 25 26 27 28 rings
6 9 10 16 20 29 31 rings

> <PUBCHEM_HEAVY_ATOM_COUNT>
32

> <PUBCHEM_ATOM_DEF_STEREO_COUNT>
1

> <PUBCHEM_ATOM_UDEF_STEREO_COUNT>
0

> <PUBCHEM_BOND_DEF_STEREO_COUNT>
0

> <PUBCHEM_BOND_UDEF_STEREO_COUNT>
0

> <PUBCHEM_ISOTOPIC_ATOM_COUNT>
0

> <PUBCHEM_COMPONENT_COUNT>
1

> <PUBCHEM_CACTVS_TAUTO_COUNT>
-1

> <PUBCHEM_CONFORMER_ID>
08157A7C00000001

> <PUBCHEM_MMFF94_ENERGY>
88.6441

> <PUBCHEM_FEATURE_SELFOVERLAP>
76.271

> <PUBCHEM_SHAPE_FINGERPRINT>
10066227 49 18201721713070421406
10319688 67 13973955494223605638
11135609 127 18264771138183036132
11315181 36 17894911867685694537
11408170 132 17313375678427402182
11719270 70 17918276437614335350
12082328 90 18408885157541555391
12522641 33 18187370978685223692
13692114 37 14261348081122302340
13782708 43 17346605183414341808
15183329 4 18113612409324410593
15276724 80 17023171735055094149
15461852 350 18337106874180908655
15475509 8 17749394750111820340
1577012 14 17022892493661590635
1754908 1 11167941372706005215
195137 175 17895193333450335613
20105231 36 18342739663924444859
2026 5 17917150489993698510
23576562 1 17897447426887028253
3711267 37 15140684665651441558
4073 2 17022619810535923347
474113 269 17775005644340387030
504579 68 18114176458657480101
5758199 1 16588019139053366753
59682541 35 11383830489452032983
6081469 158 18343016692754857433
6328613 192 17604150427755315641
9831232 110 18410860924245155438

> <PUBCHEM_SHAPE_MULTIPOLES>
603.41
33.39
2.54
1.55
12.84
1.55
0.14
7.27
-15.74
-5.17
-0.89
-1.67
-0.35
-0.19

> <PUBCHEM_SHAPE_SELFOVERLAP>
1291.41

> <PUBCHEM_SHAPE_VOLUME>
330.9

> <PUBCHEM_COORDINATE_TYPE>
2
5
10

$$$$
