135618583
  -OEChem-03292013293D

 29 30  0     1  0  0  0  0  0999 V2000
    2.6883   -1.6021   -1.3282 O   0  0  0  0  0  0  0  0  0  0  0  0
    3.2961    0.5736    1.5365 O   0  0  0  0  0  0  0  0  0  0  0  0
    1.8220    2.2850   -0.4989 O   0  0  0  0  0  0  0  0  0  0  0  0
   -3.1405    2.2718    0.1571 O   0  0  0  0  0  0  0  0  0  0  0  0
   -0.4121    1.7418   -0.1996 N   0  0  0  0  0  0  0  0  0  0  0  0
    0.3412   -0.9310   -0.2787 N   0  0  0  0  0  0  0  0  0  0  0  0
   -3.5848    0.0064    0.2336 N   0  0  0  0  0  0  0  0  0  0  0  0
   -1.8683   -1.5907    0.0182 N   0  0  0  0  0  0  0  0  0  0  0  0
   -4.0912   -2.2713    0.3178 N   0  0  0  0  0  0  0  0  0  0  0  0
    2.6868   -0.3900   -0.5922 C   0  0  2  0  0  0  0  0  0  0  0  0
    3.4096   -0.6021    0.7358 C   0  0  1  0  0  0  0  0  0  0  0  0
    1.2460   -0.0098   -0.4052 C   0  0  0  0  0  0  0  0  0  0  0  0
   -1.3359    0.7449   -0.0700 C   0  0  0  0  0  0  0  0  0  0  0  0
    0.9232    1.4683   -0.3739 C   0  0  0  0  0  0  0  0  0  0  0  0
   -0.9731   -0.5496   -0.1081 C   0  0  0  0  0  0  0  0  0  0  0  0
    4.8821   -0.9480    0.5569 C   0  0  0  0  0  0  0  0  0  0  0  0
   -2.7591    1.1070    0.1156 C   0  0  0  0  0  0  0  0  0  0  0  0
   -3.1301   -1.3041    0.1833 C   0  0  0  0  0  0  0  0  0  0  0  0
    3.1977    0.3713   -1.1912 H   0  0  0  0  0  0  0  0  0  0  0  0
    2.9278   -1.4194    1.2868 H   0  0  0  0  0  0  0  0  0  0  0  0
    5.4130   -0.1359    0.0483 H   0  0  0  0  0  0  0  0  0  0  0  0
    5.0140   -1.8687   -0.0191 H   0  0  0  0  0  0  0  0  0  0  0  0
    5.3666   -1.0775    1.5307 H   0  0  0  0  0  0  0  0  0  0  0  0
   -0.7258    2.7071   -0.1655 H   0  0  0  0  0  0  0  0  0  0  0  0
    2.3386   -1.4092   -2.2150 H   0  0  0  0  0  0  0  0  0  0  0  0
   -4.5793    0.1661    0.3642 H   0  0  0  0  0  0  0  0  0  0  0  0
    3.7380    0.3955    2.3842 H   0  0  0  0  0  0  0  0  0  0  0  0
   -3.8517   -3.2565    0.2934 H   0  0  0  0  0  0  0  0  0  0  0  0
   -5.0684   -2.0320    0.4454 H   0  0  0  0  0  0  0  0  0  0  0  0
  1 10  1  0  0  0  0
  1 25  1  0  0  0  0
  2 11  1  0  0  0  0
  2 27  1  0  0  0  0
  3 14  2  0  0  0  0
  4 17  2  0  0  0  0
  5 13  1  0  0  0  0
  5 14  1  0  0  0  0
  5 24  1  0  0  0  0
  6 12  2  0  0  0  0
  6 15  1  0  0  0  0
  7 17  1  0  0  0  0
  7 18  1  0  0  0  0
  7 26  1  0  0  0  0
  8 15  1  0  0  0  0
  8 18  2  0  0  0  0
  9 18  1  0  0  0  0
  9 28  1  0  0  0  0
  9 29  1  0  0  0  0
 10 11  1  0  0  0  0
 10 12  1  0  0  0  0
 10 19  1  0  0  0  0
 11 16  1  0  0  0  0
 11 20  1  0  0  0  0
 12 14  1  0  0  0  0
 13 15  2  0  0  0  0
 13 17  1  0  0  0  0
 16 21  1  0  0  0  0
 16 22  1  0  0  0  0
 16 23  1  0  0  0  0
M  END
> <PUBCHEM_COMPOUND_CID>
135618583

> <PUBCHEM_CONFORMER_RMSD>
0.6

> <PUBCHEM_CONFORMER_DIVERSEORDER>
1
10
6
13
2
9
14
7
12
5
3
8
4
11

> <PUBCHEM_MMFF94_PARTIAL_CHARGES>
23
1 -0.68
10 0.34
11 0.28
12 0.39
13 0.12
14 0.63
15 0.34
17 0.62
18 0.56
2 -0.68
24 0.37
25 0.4
26 0.37
27 0.4
28 0.4
29 0.4
3 -0.57
4 -0.57
5 -0.54
6 -0.62
7 -0.49
8 -0.62
9 -0.85

> <PUBCHEM_EFFECTIVE_ROTOR_COUNT>
2

> <PUBCHEM_PHARMACOPHORE_FEATURES>
12
1 1 acceptor
1 1 donor
1 2 acceptor
1 2 donor
1 3 acceptor
1 4 acceptor
1 5 donor
1 6 acceptor
1 7 donor
1 9 donor
6 5 6 12 13 14 15 rings
6 7 8 13 15 17 18 rings

> <PUBCHEM_HEAVY_ATOM_COUNT>
18

> <PUBCHEM_ATOM_DEF_STEREO_COUNT>
2

> <PUBCHEM_ATOM_UDEF_STEREO_COUNT>
0

> <PUBCHEM_BOND_DEF_STEREO_COUNT>
0

> <PUBCHEM_BOND_UDEF_STEREO_COUNT>
0

> <PUBCHEM_ISOTOPIC_ATOM_COUNT>
0

> <PUBCHEM_COMPONENT_COUNT>
1

> <PUBCHEM_CACTVS_TAUTO_COUNT>
-1

> <PUBCHEM_CONFORMER_ID>
0815601700000001

> <PUBCHEM_MMFF94_ENERGY>
43.5865

> <PUBCHEM_FEATURE_SELFOVERLAP>
60.991

> <PUBCHEM_SHAPE_FINGERPRINT>
10062212 137 18113616751056233939
10922523 26 18273501152051155159
11132069 177 18338240345049418781
11769659 78 18334295417820040887
12251169 10 18409167692763355697
12382932 28 18342174427792264400
12507560 40 18201992257660773424
13140716 1 18410578387736075065
13214271 11 18271236145307804830
13296908 3 18341336617111859286
13544592 145 17912935980440541974
14178342 30 18338516335321354507
15196674 1 18409449202263328492
15219456 202 17988642943876245190
15375462 189 17749387023280837576
15442244 35 18408042922348600340
15536298 74 18340207496280341740
16945 1 18263647273045485389
17804303 29 18413388718118652640
1813 80 16806734958861613774
200 152 18200581597269702527
20281475 54 18187364320399303046
20559304 39 18267308805616400852
20645477 70 18264770042253783951
20715346 28 17988646272238379894
21267235 1 18336274491215701802
21501502 16 18335993059346893813
21501925 9 18338230573946040267
2255824 54 17749679600790206180
23184049 29 18336830891575728525
232386 152 18260552220890861598
2334 1 18337678640831932565
23366157 5 17896043311731081004
23402539 116 18339350894764433046
23463225 33 18335985362612388588
23532345 42 18410568501090124520
23557571 272 18272932704402405826
23559900 14 18197786497036218398
25147074 1 18263379108257015973
2748010 2 18198071287184232591
312423 11 18042137590360380221
474 4 16951989464306126684
5104073 3 18411141363232194145
5902787 121 18333730230157016346
7364860 26 18268997668620373780
77492 1 17386012740936850558
90316 7 18041552521315374292
9709674 26 18411989082508119751

> <PUBCHEM_SHAPE_MULTIPOLES>
322.05
7.78
2.21
0.88
2.23
0.46
0.05
-3.03
1.86
-1.53
-0.14
0.84
-0.08
0.17

> <PUBCHEM_SHAPE_SELFOVERLAP>
691.551

> <PUBCHEM_SHAPE_VOLUME>
175.5

> <PUBCHEM_COORDINATE_TYPE>
2
5
10

$$$$
