135779804
  -OEChem-03292013293D

 23 23  0     0  0  0  0  0  0999 V2000
    5.6019    0.7183   -0.7831 Cl  0  0  0  0  0  0  0  0  0  0  0  0
    2.7053    0.1667   -1.1744 S   0  0  0  0  0  0  0  0  0  0  0  0
   -4.3779   -0.4027   -1.3060 O   0  5  0  0  0  0  0  0  0  0  0  0
   -4.4697   -0.8724    0.8198 O   0  0  0  0  0  0  0  0  0  0  0  0
   -0.4101    0.2447    0.1116 N   0  0  0  0  0  0  0  0  0  0  0  0
   -2.3401    1.5553    0.3014 N   0  0  0  0  0  0  0  0  0  0  0  0
    3.9999   -0.5300    0.9520 N   0  0  0  0  0  0  0  0  0  0  0  0
   -2.4868   -0.7984   -0.1936 N   0  0  0  0  0  0  0  0  0  0  0  0
   -3.8313   -0.6770   -0.2262 N   0  3  0  0  0  0  0  0  0  0  0  0
    0.3753   -0.9490   -0.1022 C   0  0  0  0  0  0  0  0  0  0  0  0
    1.8404   -0.6521    0.0596 C   0  0  0  0  0  0  0  0  0  0  0  0
   -1.7973    0.2940    0.0623 C   0  0  0  0  0  0  0  0  0  0  0  0
    2.6901   -0.9400    1.1071 C   0  0  0  0  0  0  0  0  0  0  0  0
   -1.6235    2.7778    0.5855 C   0  0  0  0  0  0  0  0  0  0  0  0
    4.1237    0.0647   -0.2137 C   0  0  0  0  0  0  0  0  0  0  0  0
    0.1847   -1.3526   -1.1038 H   0  0  0  0  0  0  0  0  0  0  0  0
    0.0823   -1.7184    0.6220 H   0  0  0  0  0  0  0  0  0  0  0  0
    0.1062    1.0980    0.3023 H   0  0  0  0  0  0  0  0  0  0  0  0
    2.4049   -1.4518    2.0167 H   0  0  0  0  0  0  0  0  0  0  0  0
   -3.3516    1.6535    0.2787 H   0  0  0  0  0  0  0  0  0  0  0  0
   -1.0356    2.6808    1.5032 H   0  0  0  0  0  0  0  0  0  0  0  0
   -2.3340    3.5981    0.7268 H   0  0  0  0  0  0  0  0  0  0  0  0
   -0.9632    3.0447   -0.2452 H   0  0  0  0  0  0  0  0  0  0  0  0
  1 15  1  0  0  0  0
  2 11  1  0  0  0  0
  2 15  1  0  0  0  0
  3  9  1  0  0  0  0
  4  9  2  0  0  0  0
  5 10  1  0  0  0  0
  5 12  1  0  0  0  0
  5 18  1  0  0  0  0
  6 12  1  0  0  0  0
  6 14  1  0  0  0  0
  6 20  1  0  0  0  0
  7 13  1  0  0  0  0
  7 15  2  0  0  0  0
  8  9  1  0  0  0  0
  8 12  2  3  0  0  0
 10 11  1  0  0  0  0
 10 16  1  0  0  0  0
 10 17  1  0  0  0  0
 11 13  2  0  0  0  0
 13 19  1  0  0  0  0
 14 21  1  0  0  0  0
 14 22  1  0  0  0  0
 14 23  1  0  0  0  0
M  CHG  2   3  -1   9   1
M  END
> <PUBCHEM_COMPOUND_CID>
135779804

> <PUBCHEM_CONFORMER_RMSD>
0.6

> <PUBCHEM_CONFORMER_DIVERSEORDER>
1
262
32
223
204
179
183
117
239
7
234
83
76
220
79
26
53
233
222
137
231
149
113
230
240
256
50
148
186
146
265
107
133
253
218
268
155
167
200
98
207
121
171
269
60
15
201
213
65
39
248
215
20
249
29
162
217
90
21
5
202
100
189
226
224
168
115
219
181
157
6
141
61
170
211
193
19
247
52
143
43
236
151
237
31
64
258
165
158
192
245
243
172
24
227
166
67
130
30
119
225
11
25
255
198
271
124
73
36
103
266
194
199
84
163
206
238
129
33
132
38
28
97
235
62
41
34
102
75
111
59
142
257
177
105
229
138
250
120
241
131
214
96
4
126
232
71
210
188
108
169
264
178
112
69
254
66
209
156
51
164
135
49
72
122
92
2
180
88
87
154
187
58
212
89
160
261
246
190
56
74
203
77
175
18
91
174
263
3
35
54
176
80
37
152
242
185
10
159
40
118
27
216
161
14
17
23
196
99
150
42
128
147
48
228
95
22
68
123
144
47
94
81
197
114
106
173
86
101
116
252
153
244
205
270
208
93
16
13
184
195
251
82
44
46
260
85
8
45
104
136
70
182
267
145
12
63
109
191
55
259
57
134
140
221
78
110
139
125
9
127

> <PUBCHEM_MMFF94_PARTIAL_CHARGES>
18
1 -0.12
10 0.55
11 -0.14
12 0.55
13 0.08
14 0.37
15 0.5
18 0.4
19 0.15
2 -0.08
20 0.4
3 -0.52
4 -0.52
5 -0.82
6 -0.82
7 -0.57
8 -0.5
9 1.09

> <PUBCHEM_EFFECTIVE_ROTOR_COUNT>
5

> <PUBCHEM_PHARMACOPHORE_FEATURES>
7
1 3 acceptor
1 4 acceptor
1 5 donor
1 6 donor
1 7 acceptor
4 5 6 8 12 cation
5 2 7 11 13 15 rings

> <PUBCHEM_HEAVY_ATOM_COUNT>
15

> <PUBCHEM_ATOM_DEF_STEREO_COUNT>
0

> <PUBCHEM_ATOM_UDEF_STEREO_COUNT>
0

> <PUBCHEM_BOND_DEF_STEREO_COUNT>
0

> <PUBCHEM_BOND_UDEF_STEREO_COUNT>
1

> <PUBCHEM_ISOTOPIC_ATOM_COUNT>
0

> <PUBCHEM_COMPONENT_COUNT>
1

> <PUBCHEM_CACTVS_TAUTO_COUNT>
-1

> <PUBCHEM_CONFORMER_ID>
0817D5DC00000001

> <PUBCHEM_MMFF94_ENERGY>
27.313

> <PUBCHEM_FEATURE_SELFOVERLAP>
35.651

> <PUBCHEM_SHAPE_FINGERPRINT>
10366900 7 18272929444548855410
10498660 4 18342176609905163224
124424 183 13406796635886585254
12916748 109 18412271644765086318
12932764 1 17060043814368711566
13675066 3 11672060843870549286
13897977 58 18411986857624999713
17834072 33 17967533502018585550
18186145 218 15554438583760100790
200 152 18113615698831418207
20300324 65 18341897380842524228
20645477 70 15936397911074870514
21618674 57 13190332470296262508
22169311 14 11963397370709513726
2297311 6 18131081436638171284
23048698 100 17603581916003466186
23402539 116 18342171176438724591
23402655 69 17822004307207626478
23557571 272 17846790576294590060
312423 11 18261961721973318866
3268164 11 18130499760606448477
58051976 378 18413110567483890414
603831 33 18410001126766929055
6430166 295 9367352530598639323
74978 22 8574131848345374199

> <PUBCHEM_SHAPE_MULTIPOLES>
277.77
10.6
1.63
1.06
1.85
1.46
-0.09
-0.43
-1.6
-1.34
0.43
0.31
-0.07
-0.94

> <PUBCHEM_SHAPE_SELFOVERLAP>
537.332

> <PUBCHEM_SHAPE_VOLUME>
170

> <PUBCHEM_COORDINATE_TYPE>
2
5
10

$$$$
