135754250
  -OEChem-03292013293D

 35 35  0     1  0  0  0  0  0999 V2000
    0.3343    1.5354    0.9549 S   0  0  0  0  0  0  0  0  0  0  0  0
   -0.6090   -1.7824   -1.0102 O   0  0  0  0  0  0  0  0  0  0  0  0
   -1.9973    2.5600    0.2796 O   0  0  0  0  0  0  0  0  0  0  0  0
   -4.1034   -1.5489   -0.1074 O   0  0  0  0  0  0  0  0  0  0  0  0
   -4.5644    0.6397    0.4208 N   0  0  0  0  0  0  0  0  0  0  0  0
    0.6839   -0.1728    0.3666 C   0  0  1  0  0  0  0  0  0  0  0  0
    0.8794   -1.0775    1.5868 C   0  0  0  0  0  0  0  0  0  0  0  0
   -0.5501   -0.5403   -0.4160 C   0  0  0  0  0  0  0  0  0  0  0  0
   -1.5530    0.3439   -0.5100 C   0  0  0  0  0  0  0  0  0  0  0  0
    1.9156   -0.1223   -0.4875 C   0  0  0  0  0  0  0  0  0  0  0  0
   -1.2505    1.5973    0.2084 C   0  0  0  0  0  0  0  0  0  0  0  0
    1.0230   -2.5286    1.1765 C   0  0  0  0  0  0  0  0  0  0  0  0
   -2.8491    0.1860   -1.2229 C   0  0  0  0  0  0  0  0  0  0  0  0
    3.1820    0.1697   -0.1247 C   0  0  0  0  0  0  0  0  0  0  0  0
    3.6013    0.5045    1.2829 C   0  0  0  0  0  0  0  0  0  0  0  0
   -3.8908   -0.3480   -0.2622 C   0  0  0  0  0  0  0  0  0  0  0  0
    4.2228    0.1610   -1.1532 C   0  0  0  0  0  0  0  0  0  0  0  0
    5.5250    0.4232   -0.9828 C   0  0  0  0  0  0  0  0  0  0  0  0
    1.7265   -0.8209    2.2220 H   0  0  0  0  0  0  0  0  0  0  0  0
    0.0040   -1.0142    2.2498 H   0  0  0  0  0  0  0  0  0  0  0  0
    1.7439   -0.3446   -1.5428 H   0  0  0  0  0  0  0  0  0  0  0  0
    1.4072   -3.1032    2.0281 H   0  0  0  0  0  0  0  0  0  0  0  0
    1.7258   -2.6811    0.3524 H   0  0  0  0  0  0  0  0  0  0  0  0
    0.0626   -2.9879    0.9265 H   0  0  0  0  0  0  0  0  0  0  0  0
   -2.7793   -0.4975   -2.0754 H   0  0  0  0  0  0  0  0  0  0  0  0
   -3.1819    1.1427   -1.6427 H   0  0  0  0  0  0  0  0  0  0  0  0
   -1.4847   -1.9130   -1.4068 H   0  0  0  0  0  0  0  0  0  0  0  0
    4.2959    1.3530    1.2874 H   0  0  0  0  0  0  0  0  0  0  0  0
    4.1077   -0.3507    1.7432 H   0  0  0  0  0  0  0  0  0  0  0  0
    2.8021    0.8319    1.9444 H   0  0  0  0  0  0  0  0  0  0  0  0
    3.9030   -0.0783   -2.1664 H   0  0  0  0  0  0  0  0  0  0  0  0
   -4.3702    1.6264    0.2836 H   0  0  0  0  0  0  0  0  0  0  0  0
   -5.2857    0.4076    1.0955 H   0  0  0  0  0  0  0  0  0  0  0  0
    6.1970    0.3867   -1.8348 H   0  0  0  0  0  0  0  0  0  0  0  0
    5.9652    0.6668   -0.0236 H   0  0  0  0  0  0  0  0  0  0  0  0
  1  6  1  0  0  0  0
  1 11  1  0  0  0  0
  2  8  1  0  0  0  0
  2 27  1  0  0  0  0
  3 11  2  0  0  0  0
  4 16  2  0  0  0  0
  5 16  1  0  0  0  0
  5 32  1  0  0  0  0
  5 33  1  0  0  0  0
  6  7  1  0  0  0  0
  6  8  1  0  0  0  0
  6 10  1  0  0  0  0
  7 12  1  0  0  0  0
  7 19  1  0  0  0  0
  7 20  1  0  0  0  0
  8  9  2  0  0  0  0
  9 11  1  0  0  0  0
  9 13  1  0  0  0  0
 10 14  2  0  0  0  0
 10 21  1  0  0  0  0
 12 22  1  0  0  0  0
 12 23  1  0  0  0  0
 12 24  1  0  0  0  0
 13 16  1  0  0  0  0
 13 25  1  0  0  0  0
 13 26  1  0  0  0  0
 14 15  1  0  0  0  0
 14 17  1  0  0  0  0
 15 28  1  0  0  0  0
 15 29  1  0  0  0  0
 15 30  1  0  0  0  0
 17 18  2  0  0  0  0
 17 31  1  0  0  0  0
 18 34  1  0  0  0  0
 18 35  1  0  0  0  0
M  END
> <PUBCHEM_COMPOUND_CID>
135754250

> <PUBCHEM_CONFORMER_RMSD>
0.8

> <PUBCHEM_CONFORMER_DIVERSEORDER>
23
34
22
35
12
2
25
27
20
3
30
10
31
16
9
29
33
28
14
17
15
5
19
8
24
26
4
18
32
13
21
11
6
7
1

> <PUBCHEM_MMFF94_PARTIAL_CHARGES>
23
1 -0.37
10 -0.29
11 0.7
13 0.2
14 -0.14
15 0.14
16 0.57
17 -0.15
18 -0.3
2 -0.53
21 0.15
27 0.45
3 -0.57
31 0.15
32 0.37
33 0.37
34 0.15
35 0.15
4 -0.57
5 -0.8
6 0.51
8 -0.06
9 -0.12

> <PUBCHEM_EFFECTIVE_ROTOR_COUNT>
5.4

> <PUBCHEM_PHARMACOPHORE_FEATURES>
7
1 12 hydrophobe
1 15 hydrophobe
1 18 hydrophobe
1 2 donor
1 4 acceptor
1 5 donor
5 1 6 8 9 11 rings

> <PUBCHEM_HEAVY_ATOM_COUNT>
18

> <PUBCHEM_ATOM_DEF_STEREO_COUNT>
1

> <PUBCHEM_ATOM_UDEF_STEREO_COUNT>
0

> <PUBCHEM_BOND_DEF_STEREO_COUNT>
1

> <PUBCHEM_BOND_UDEF_STEREO_COUNT>
0

> <PUBCHEM_ISOTOPIC_ATOM_COUNT>
0

> <PUBCHEM_COMPONENT_COUNT>
1

> <PUBCHEM_CACTVS_TAUTO_COUNT>
-1

> <PUBCHEM_CONFORMER_ID>
0817720A00000017

> <PUBCHEM_MMFF94_ENERGY>
34.8596

> <PUBCHEM_FEATURE_SELFOVERLAP>
35.523

> <PUBCHEM_SHAPE_FINGERPRINT>
10756046 5 18124037832238890606
10759866 29 18190739730812591305
12011746 2 18341607153513807439
12186901 62 18130508535113948756
12236239 1 18113898260819872820
12507560 18 14333415548989336759
12592029 89 16805314479747413074
13221675 6 18343574153460252789
13760787 19 18260544494497793143
14787075 74 18115309015420857163
15048467 5 17749388140341911541
15375462 189 18333444348955511811
16945 1 18341878714888106664
1813 80 13542476375524261064
18186145 218 18335412513107529148
187816 3 18408891754394972604
19784866 140 18342176639674197550
19784866 170 18271534100559508513
19873495 37 18408599279727903374
200 152 16588021316232455237
20871999 31 18202289078413551820
21501502 16 18121494661859415569
21524375 3 17749392564041928050
22094290 60 18202284688566377445
228727 97 18410855434574817920
23175994 123 15626227917929240448
23402539 116 18413670223043986316
23419403 2 17697892705921876818
23557571 272 17917721153771329156
23559900 14 17973702710847617474
23566358 27 18046070349984695866
238078 22 18335424616414851651
296302 2 14273453678089058809
3286 77 13046762597438920224
53812653 8 18339918229858156419
57426455 19 18187370951617779059
633830 44 18341606057495325964

> <PUBCHEM_SHAPE_MULTIPOLES>
351.69
8.53
1.95
1.32
2.7
0.36
-0.15
-1.03
2.63
-0.87
-0.66
0.78
0.17
-0.55

> <PUBCHEM_SHAPE_SELFOVERLAP>
708.369

> <PUBCHEM_SHAPE_VOLUME>
207.7

> <PUBCHEM_COORDINATE_TYPE>
2
5
10

$$$$
