135718449
  -OEChem-03292013293D

 31 32  0     1  0  0  0  0  0999 V2000
    1.4176    0.2153   -0.7875 O   0  0  0  0  0  0  0  0  0  0  0  0
    2.0057   -1.4734    0.7637 O   0  0  0  0  0  0  0  0  0  0  0  0
    6.0599   -0.4975    0.0333 O   0  0  0  0  0  0  0  0  0  0  0  0
   -4.1994    1.0990    0.6647 O   0  0  0  0  0  0  0  0  0  0  0  0
    0.1654    0.6816   -0.4261 N   0  0  0  0  0  0  0  0  0  0  0  0
   -1.4538    2.1111    0.1542 N   0  0  0  0  0  0  0  0  0  0  0  0
   -1.0621   -1.4047   -0.4225 N   0  0  0  0  0  0  0  0  0  0  0  0
   -3.3509   -1.0205    0.1724 N   0  0  0  0  0  0  0  0  0  0  0  0
   -2.5829   -3.1929   -0.3087 N   0  0  0  0  0  0  0  0  0  0  0  0
   -0.9630   -0.0666   -0.2618 C   0  0  0  0  0  0  0  0  0  0  0  0
    2.3066   -0.1763    0.2552 C   0  0  1  0  0  0  0  0  0  0  0  0
   -0.1806    1.9850   -0.1648 C   0  0  0  0  0  0  0  0  0  0  0  0
   -1.9354    0.8369    0.0929 C   0  0  0  0  0  0  0  0  0  0  0  0
    3.7193   -0.1555   -0.3372 C   0  0  0  0  0  0  0  0  0  0  0  0
   -3.2703    0.3685    0.3445 C   0  0  0  0  0  0  0  0  0  0  0  0
    4.7926   -0.5294    0.6762 C   0  0  0  0  0  0  0  0  0  0  0  0
    0.8063    3.0809   -0.2501 C   0  0  0  0  0  0  0  0  0  0  0  0
   -2.2751   -1.8616   -0.1982 C   0  0  0  0  0  0  0  0  0  0  0  0
    2.2420    0.5365    1.0853 H   0  0  0  0  0  0  0  0  0  0  0  0
    3.9335    0.8336   -0.7622 H   0  0  0  0  0  0  0  0  0  0  0  0
    3.7773   -0.8469   -1.1887 H   0  0  0  0  0  0  0  0  0  0  0  0
    4.6351   -1.5376    1.0711 H   0  0  0  0  0  0  0  0  0  0  0  0
    4.8053    0.1816    1.5083 H   0  0  0  0  0  0  0  0  0  0  0  0
    1.5571    2.9884    0.5405 H   0  0  0  0  0  0  0  0  0  0  0  0
    1.3162    3.0753   -1.2186 H   0  0  0  0  0  0  0  0  0  0  0  0
    0.3139    4.0517   -0.1355 H   0  0  0  0  0  0  0  0  0  0  0  0
   -4.2550   -1.4577    0.3263 H   0  0  0  0  0  0  0  0  0  0  0  0
    2.4124   -2.1315    0.1754 H   0  0  0  0  0  0  0  0  0  0  0  0
   -1.8787   -3.8746   -0.5693 H   0  0  0  0  0  0  0  0  0  0  0  0
   -3.5213   -3.5351   -0.1336 H   0  0  0  0  0  0  0  0  0  0  0  0
    6.7249   -0.7346    0.7020 H   0  0  0  0  0  0  0  0  0  0  0  0
  1  5  1  0  0  0  0
  1 11  1  0  0  0  0
  2 11  1  0  0  0  0
  2 28  1  0  0  0  0
  3 16  1  0  0  0  0
  3 31  1  0  0  0  0
  4 15  2  0  0  0  0
  5 10  1  0  0  0  0
  5 12  1  0  0  0  0
  6 12  2  0  0  0  0
  6 13  1  0  0  0  0
  7 10  1  0  0  0  0
  7 18  2  0  0  0  0
  8 15  1  0  0  0  0
  8 18  1  0  0  0  0
  8 27  1  0  0  0  0
  9 18  1  0  0  0  0
  9 29  1  0  0  0  0
  9 30  1  0  0  0  0
 10 13  2  0  0  0  0
 11 14  1  0  0  0  0
 11 19  1  0  0  0  0
 12 17  1  0  0  0  0
 13 15  1  0  0  0  0
 14 16  1  0  0  0  0
 14 20  1  0  0  0  0
 14 21  1  0  0  0  0
 16 22  1  0  0  0  0
 16 23  1  0  0  0  0
 17 24  1  0  0  0  0
 17 25  1  0  0  0  0
 17 26  1  0  0  0  0
M  END
> <PUBCHEM_COMPOUND_CID>
135718449

> <PUBCHEM_CONFORMER_RMSD>
0.6

> <PUBCHEM_CONFORMER_DIVERSEORDER>
1
40
53
66
48
45
44
61
24
46
34
63
67
49
31
60
51
16
6
65
42
17
4
43
13
37
59
8
21
58
30
56
57
47
9
28
41
20
52
39
27
7
11
5
2
64
38
54
22
10
29
23
3
50
15
26
14
55
19
35
12
33
25
18
32
62
36

> <PUBCHEM_MMFF94_PARTIAL_CHARGES>
22
1 -0.42
10 -0.03
11 0.56
12 0.01
13 0.14
15 0.72
16 0.28
17 0.18
18 0.56
2 -0.68
27 0.37
28 0.4
29 0.4
3 -0.68
30 0.4
31 0.4
4 -0.57
5 0.44
6 -0.57
7 -0.58
8 -0.49
9 -0.85

> <PUBCHEM_EFFECTIVE_ROTOR_COUNT>
4

> <PUBCHEM_PHARMACOPHORE_FEATURES>
10
1 2 acceptor
1 2 donor
1 3 acceptor
1 3 donor
1 4 acceptor
1 8 donor
1 9 donor
3 5 6 12 cation
5 5 6 10 12 13 rings
6 7 8 10 13 15 18 rings

> <PUBCHEM_HEAVY_ATOM_COUNT>
18

> <PUBCHEM_ATOM_DEF_STEREO_COUNT>
0

> <PUBCHEM_ATOM_UDEF_STEREO_COUNT>
1

> <PUBCHEM_BOND_DEF_STEREO_COUNT>
0

> <PUBCHEM_BOND_UDEF_STEREO_COUNT>
0

> <PUBCHEM_ISOTOPIC_ATOM_COUNT>
0

> <PUBCHEM_COMPONENT_COUNT>
1

> <PUBCHEM_CACTVS_TAUTO_COUNT>
-1

> <PUBCHEM_CONFORMER_ID>
0816E63100000001

> <PUBCHEM_MMFF94_ENERGY>
29.4078

> <PUBCHEM_FEATURE_SELFOVERLAP>
50.925

> <PUBCHEM_SHAPE_FINGERPRINT>
10616163 171 18411419510052880926
11132069 177 18341335517568368494
11578080 2 17751055085241615212
12236239 1 17822296760537197644
12251169 10 18412827962603473136
12553582 1 18335410270891858210
13140716 1 18340775960971608977
13214271 11 18273492373006042430
15042514 8 18410580595544333395
15375462 189 18114180834865034800
15442244 35 18339646766745748317
16945 1 18341063951571976133
17804303 29 18343585156955676520
1813 80 17458636562447365030
200 152 15936411113677555284
20510252 161 18056762018227790624
20600515 1 18272664427923999516
21029758 27 18260275135149616549
21267235 1 18409174337099114995
21339142 126 18187642466639404316
21501502 16 18195816395236764973
21637258 2 16153718664895313009
21650355 55 18411978053052949088
2297311 6 18342187626949347812
23184049 29 18196374951375183095
232386 152 18337397131268383606
2334 1 18051981612738092893
23366157 5 17971474258729581452
23402539 116 18343012268458313124
23557571 272 18130796595098340060
23559900 14 18343582915784360878
23622692 118 18199180883664283863
25147074 1 18198072571822480981
2748010 2 18196659716529042093
335352 9 18410575085227757189
34934 24 18262232222997104939
5104073 3 18340772649330310768
5902787 121 18338234972214175452
7364860 26 18125723640930200713

> <PUBCHEM_SHAPE_MULTIPOLES>
322.05
8.4
2.77
0.73
11.32
0.33
0.02
-3.16
1.51
-1.92
-0.25
0.11
-0.02
-0.65

> <PUBCHEM_SHAPE_SELFOVERLAP>
678.294

> <PUBCHEM_SHAPE_VOLUME>
179.1

> <PUBCHEM_COORDINATE_TYPE>
2
5
10

$$$$
