135742509
  -OEChem-03292013293D

 36 38  0     1  0  0  0  0  0999 V2000
   -1.8771   -0.6291    1.2465 O   0  0  0  0  0  0  0  0  0  0  0  0
   -3.8522    1.2058   -1.1265 O   0  0  0  0  0  0  0  0  0  0  0  0
   -1.9773    2.4370    0.4379 O   0  0  0  0  0  0  0  0  0  0  0  0
   -4.1876   -2.2031    1.6417 O   0  0  0  0  0  0  0  0  0  0  0  0
    4.4170   -1.6973   -1.1821 O   0  0  0  0  0  0  0  0  0  0  0  0
    0.3105   -0.4070    0.1912 N   0  0  0  0  0  0  0  0  0  0  0  0
    1.4766   -1.9882   -0.8774 N   0  0  0  0  0  0  0  0  0  0  0  0
    2.0830    1.1357    0.7719 N   0  0  0  0  0  0  0  0  0  0  0  0
    4.1902    0.3160   -0.0208 N   0  0  0  0  0  0  0  0  0  0  0  0
    4.0547    2.3589    1.1419 N   0  0  0  0  0  0  0  0  0  0  0  0
   -2.7809    0.4199   -0.6508 C   0  0  1  0  0  0  0  0  0  0  0  0
   -1.5770    1.2365   -0.2224 C   0  0  2  0  0  0  0  0  0  0  0  0
   -0.8820    0.3124    0.7820 C   0  0  1  0  0  0  0  0  0  0  0  0
   -3.1357   -0.3180    0.6273 C   0  0  1  0  0  0  0  0  0  0  0  0
   -3.9221   -1.5950    0.3900 C   0  0  0  0  0  0  0  0  0  0  0  0
    1.6120   -0.0003    0.2118 C   0  0  0  0  0  0  0  0  0  0  0  0
    0.2798   -1.6078   -0.4750 C   0  0  0  0  0  0  0  0  0  0  0  0
    2.2998   -0.9888   -0.4498 C   0  0  0  0  0  0  0  0  0  0  0  0
   -3.6394    1.6076   -2.4706 C   0  0  0  0  0  0  0  0  0  0  0  0
    3.7227   -0.8679   -0.6081 C   0  0  0  0  0  0  0  0  0  0  0  0
    3.3848    1.2726    0.6416 C   0  0  0  0  0  0  0  0  0  0  0  0
   -2.4729   -0.3156   -1.4076 H   0  0  0  0  0  0  0  0  0  0  0  0
   -0.9441    1.5268   -1.0669 H   0  0  0  0  0  0  0  0  0  0  0  0
   -0.4938    0.8439    1.6582 H   0  0  0  0  0  0  0  0  0  0  0  0
   -3.6911    0.3262    1.3211 H   0  0  0  0  0  0  0  0  0  0  0  0
   -4.8722   -1.3859   -0.1110 H   0  0  0  0  0  0  0  0  0  0  0  0
   -3.3445   -2.3066   -0.2089 H   0  0  0  0  0  0  0  0  0  0  0  0
   -1.1680    2.8908    0.7292 H   0  0  0  0  0  0  0  0  0  0  0  0
   -0.6372   -2.1567   -0.6392 H   0  0  0  0  0  0  0  0  0  0  0  0
   -4.4990    2.2045   -2.7879 H   0  0  0  0  0  0  0  0  0  0  0  0
   -3.5659    0.7364   -3.1292 H   0  0  0  0  0  0  0  0  0  0  0  0
   -2.7419    2.2265   -2.5606 H   0  0  0  0  0  0  0  0  0  0  0  0
   -4.6907   -3.0162    1.4645 H   0  0  0  0  0  0  0  0  0  0  0  0
    5.1875    0.5016   -0.0756 H   0  0  0  0  0  0  0  0  0  0  0  0
    3.5636    3.0981    1.6328 H   0  0  0  0  0  0  0  0  0  0  0  0
    5.0587    2.4558    1.0365 H   0  0  0  0  0  0  0  0  0  0  0  0
  1 13  1  0  0  0  0
  1 14  1  0  0  0  0
  2 11  1  0  0  0  0
  2 19  1  0  0  0  0
  3 12  1  0  0  0  0
  3 28  1  0  0  0  0
  4 15  1  0  0  0  0
  4 33  1  0  0  0  0
  5 20  2  0  0  0  0
  6 13  1  0  0  0  0
  6 16  1  0  0  0  0
  6 17  1  0  0  0  0
  7 17  2  0  0  0  0
  7 18  1  0  0  0  0
  8 16  1  0  0  0  0
  8 21  2  0  0  0  0
  9 20  1  0  0  0  0
  9 21  1  0  0  0  0
  9 34  1  0  0  0  0
 10 21  1  0  0  0  0
 10 35  1  0  0  0  0
 10 36  1  0  0  0  0
 11 12  1  0  0  0  0
 11 14  1  0  0  0  0
 11 22  1  0  0  0  0
 12 13  1  0  0  0  0
 12 23  1  0  0  0  0
 13 24  1  0  0  0  0
 14 15  1  0  0  0  0
 14 25  1  0  0  0  0
 15 26  1  0  0  0  0
 15 27  1  0  0  0  0
 16 18  2  0  0  0  0
 17 29  1  0  0  0  0
 18 20  1  0  0  0  0
 19 30  1  0  0  0  0
 19 31  1  0  0  0  0
 19 32  1  0  0  0  0
M  END
> <PUBCHEM_COMPOUND_CID>
135742509

> <PUBCHEM_CONFORMER_RMSD>
0.6

> <PUBCHEM_CONFORMER_DIVERSEORDER>
3
16
8
10
2
17
24
29
9
22
19
18
1
21
12
7
11
25
4
27
5
14
23
26
20
15
6
13
30
31
28

> <PUBCHEM_MMFF94_PARTIAL_CHARGES>
27
1 -0.56
10 -0.85
11 0.28
12 0.28
13 0.54
14 0.28
15 0.28
16 -0.03
17 0.04
18 0.14
19 0.28
2 -0.56
20 0.72
21 0.56
28 0.4
29 0.15
3 -0.68
33 0.4
34 0.37
35 0.4
36 0.4
4 -0.68
5 -0.57
6 0.05
7 -0.57
8 -0.58
9 -0.49

> <PUBCHEM_EFFECTIVE_ROTOR_COUNT>
4

> <PUBCHEM_PHARMACOPHORE_FEATURES>
13
1 1 acceptor
1 10 donor
1 2 acceptor
1 3 acceptor
1 3 donor
1 4 acceptor
1 4 donor
1 5 acceptor
1 9 donor
3 6 7 17 cation
5 1 11 12 13 14 rings
5 6 7 16 17 18 rings
6 8 9 16 18 20 21 rings

> <PUBCHEM_HEAVY_ATOM_COUNT>
21

> <PUBCHEM_ATOM_DEF_STEREO_COUNT>
4

> <PUBCHEM_ATOM_UDEF_STEREO_COUNT>
0

> <PUBCHEM_BOND_DEF_STEREO_COUNT>
0

> <PUBCHEM_BOND_UDEF_STEREO_COUNT>
0

> <PUBCHEM_ISOTOPIC_ATOM_COUNT>
0

> <PUBCHEM_COMPONENT_COUNT>
1

> <PUBCHEM_CACTVS_TAUTO_COUNT>
-1

> <PUBCHEM_CONFORMER_ID>
0817442D00000003

> <PUBCHEM_MMFF94_ENERGY>
54.5807

> <PUBCHEM_FEATURE_SELFOVERLAP>
66.16

> <PUBCHEM_SHAPE_FINGERPRINT>
10498660 4 17967812717462905228
10608611 8 18341050731330381600
10646746 165 18113331998992959532
10871710 139 16533982845569663292
11640471 11 16009584660383239821
12236239 1 16343703218580928139
12403259 226 18341618088146783554
12403259 415 18410015450677702156
12788726 201 15142395604438955113
12916754 54 18272941517654367099
13224815 77 18342173371093049035
13583140 156 18187911872794981954
14289901 80 17458350736135844642
15099037 37 18114177596776165561
15219456 202 18412545422443016811
15961568 22 17459756023898057724
18186145 218 18335422326796388744
200 152 17489299746553278285
20645477 56 18041843900997898277
20645477 70 18131344181278341606
20681677 76 18410289216082608528
20693207 138 18339099136635126238
21065201 7 17894347774184315250
21639500 275 17917705829601836440
221490 88 18343310240826621366
22182313 1 18410853291333383068
22943178 12 18408885131022710658
23402539 116 17967533480042641135
23557571 272 18186526496965682991
23559900 14 18187925019927199558
23598288 3 16415213221605674905
3268164 11 17749103413842797055
341906 21 17385716998142248788
4028521 119 18188482463600808989
474 4 16126658627105160960
5104073 3 18413394219755507906
6049 1 18410019822748733200
633830 44 17632309968414004228
77492 1 16343704326497835304
9709674 26 18199751336624669951

> <PUBCHEM_SHAPE_MULTIPOLES>
377.92
9.06
2.34
1.45
1.84
0.21
-0.49
0.05
-0.75
-0.45
0.1
-1.2
0.26
3.1

> <PUBCHEM_SHAPE_SELFOVERLAP>
814.148

> <PUBCHEM_SHAPE_VOLUME>
207.7

> <PUBCHEM_COORDINATE_TYPE>
2
5
10

$$$$
