135743577
  -OEChem-03292013293D

 49 51  0     0  0  0  0  0  0999 V2000
    7.1097    0.3394   -2.5307 Cl  0  0  0  0  0  0  0  0  0  0  0  0
   -4.1989   -0.1522    1.4831 S   0  0  0  0  0  0  0  0  0  0  0  0
   -4.1376   -2.8163   -2.1425 O   0  0  0  0  0  0  0  0  0  0  0  0
   -3.3242   -0.6437    2.5261 O   0  0  0  0  0  0  0  0  0  0  0  0
   -5.5101    0.3742    1.7969 O   0  0  0  0  0  0  0  0  0  0  0  0
    0.8582    3.1145   -0.3307 O   0  0  0  0  0  0  0  0  0  0  0  0
    4.3726   -1.2778    2.4082 O   0  0  0  0  0  0  0  0  0  0  0  0
   -4.3562   -1.3530    0.2728 N   0  0  0  0  0  0  0  0  0  0  0  0
    0.8567    0.8297    0.0456 N   0  0  0  0  0  0  0  0  0  0  0  0
    2.2071    0.7678    0.0311 N   0  0  0  0  0  0  0  0  0  0  0  0
   -3.1006   -2.0774   -0.0810 C   0  0  0  0  0  0  0  0  0  0  0  0
   -5.0975   -0.9361   -0.9535 C   0  0  0  0  0  0  0  0  0  0  0  0
   -5.3663   -2.1688   -1.8050 C   0  0  0  0  0  0  0  0  0  0  0  0
   -3.4532   -3.2620   -0.9697 C   0  0  0  0  0  0  0  0  0  0  0  0
   -3.3200    1.0839    0.5794 C   0  0  0  0  0  0  0  0  0  0  0  0
   -1.9251    1.0835    0.5734 C   0  0  0  0  0  0  0  0  0  0  0  0
   -4.0201    2.0620   -0.1271 C   0  0  0  0  0  0  0  0  0  0  0  0
   -1.2304    2.0611   -0.1390 C   0  0  0  0  0  0  0  0  0  0  0  0
   -3.3254    3.0393   -0.8399 C   0  0  0  0  0  0  0  0  0  0  0  0
   -1.9305    3.0391   -0.8456 C   0  0  0  0  0  0  0  0  0  0  0  0
    0.2238    2.0602   -0.1454 C   0  0  0  0  0  0  0  0  0  0  0  0
    2.7688   -0.3911    0.2116 C   0  0  0  0  0  0  0  0  0  0  0  0
    4.2555   -0.4595    0.1560 C   0  0  0  0  0  0  0  0  0  0  0  0
    4.9932   -0.8994    1.2552 C   0  0  0  0  0  0  0  0  0  0  0  0
    4.9098   -0.0762   -1.0147 C   0  0  0  0  0  0  0  0  0  0  0  0
    2.0146   -1.6798    0.4754 C   0  0  0  0  0  0  0  0  0  0  0  0
    6.3851   -0.9558    1.1837 C   0  0  0  0  0  0  0  0  0  0  0  0
    6.3018   -0.1330   -1.0865 C   0  0  0  0  0  0  0  0  0  0  0  0
    7.0394   -0.5728    0.0128 C   0  0  0  0  0  0  0  0  0  0  0  0
   -2.5993   -2.4428    0.8199 H   0  0  0  0  0  0  0  0  0  0  0  0
   -4.4906   -0.2391   -1.5393 H   0  0  0  0  0  0  0  0  0  0  0  0
   -6.0481   -0.4651   -0.6870 H   0  0  0  0  0  0  0  0  0  0  0  0
   -2.4274   -1.4084   -0.6263 H   0  0  0  0  0  0  0  0  0  0  0  0
   -5.8589   -1.8794   -2.7386 H   0  0  0  0  0  0  0  0  0  0  0  0
   -6.0212   -2.8802   -1.2878 H   0  0  0  0  0  0  0  0  0  0  0  0
   -4.0783   -3.9907   -0.4398 H   0  0  0  0  0  0  0  0  0  0  0  0
   -2.5408   -3.7748   -1.2898 H   0  0  0  0  0  0  0  0  0  0  0  0
   -1.3978    0.3310    1.1518 H   0  0  0  0  0  0  0  0  0  0  0  0
   -5.1062    2.0815   -0.1380 H   0  0  0  0  0  0  0  0  0  0  0  0
   -3.8707    3.7997   -1.3913 H   0  0  0  0  0  0  0  0  0  0  0  0
   -1.4082    3.8066   -1.4107 H   0  0  0  0  0  0  0  0  0  0  0  0
    0.3437   -0.0370    0.1488 H   0  0  0  0  0  0  0  0  0  0  0  0
    4.3343    0.2636   -1.8731 H   0  0  0  0  0  0  0  0  0  0  0  0
    1.4496   -1.5921    1.4077 H   0  0  0  0  0  0  0  0  0  0  0  0
    1.3306   -1.8834   -0.3538 H   0  0  0  0  0  0  0  0  0  0  0  0
    2.6971   -2.5302    0.5582 H   0  0  0  0  0  0  0  0  0  0  0  0
    6.9724   -1.2963    2.0323 H   0  0  0  0  0  0  0  0  0  0  0  0
    8.1245   -0.6222   -0.0288 H   0  0  0  0  0  0  0  0  0  0  0  0
    5.0446   -1.5525    3.0554 H   0  0  0  0  0  0  0  0  0  0  0  0
  1 28  1  0  0  0  0
  2  4  2  0  0  0  0
  2  5  2  0  0  0  0
  2  8  1  0  0  0  0
  2 15  1  0  0  0  0
  3 13  1  0  0  0  0
  3 14  1  0  0  0  0
  6 21  2  0  0  0  0
  7 24  1  0  0  0  0
  7 49  1  0  0  0  0
  8 11  1  0  0  0  0
  8 12  1  0  0  0  0
  9 10  1  0  0  0  0
  9 21  1  0  0  0  0
  9 42  1  0  0  0  0
 10 22  2  0  0  0  0
 11 14  1  0  0  0  0
 11 30  1  0  0  0  0
 11 33  1  0  0  0  0
 12 13  1  0  0  0  0
 12 31  1  0  0  0  0
 12 32  1  0  0  0  0
 13 34  1  0  0  0  0
 13 35  1  0  0  0  0
 14 36  1  0  0  0  0
 14 37  1  0  0  0  0
 15 16  1  0  0  0  0
 15 17  2  0  0  0  0
 16 18  2  0  0  0  0
 16 38  1  0  0  0  0
 17 19  1  0  0  0  0
 17 39  1  0  0  0  0
 18 20  1  0  0  0  0
 18 21  1  0  0  0  0
 19 20  2  0  0  0  0
 19 40  1  0  0  0  0
 20 41  1  0  0  0  0
 22 23  1  0  0  0  0
 22 26  1  0  0  0  0
 23 24  2  0  0  0  0
 23 25  1  0  0  0  0
 24 27  1  0  0  0  0
 25 28  2  0  0  0  0
 25 43  1  0  0  0  0
 26 44  1  0  0  0  0
 26 45  1  0  0  0  0
 26 46  1  0  0  0  0
 27 29  2  0  0  0  0
 27 47  1  0  0  0  0
 28 29  1  0  0  0  0
 29 48  1  0  0  0  0
M  END
> <PUBCHEM_COMPOUND_CID>
135743577

> <PUBCHEM_CONFORMER_RMSD>
1

> <PUBCHEM_CONFORMER_DIVERSEORDER>
5
8
53
83
60
86
87
7
54
49
37
24
84
64
26
31
61
51
4
72
48
74
44
59
95
75
14
71
40
19
57
79
65
42
66
78
96
30
89
81
68
70
9
97
69
16
13
80
36
62
10
38
88
92
63
1
58
76
94
27
85
67
2
45
77
22
23
98
52
93
46
33
21
20
90
17
6
50
25
47
15
3
32
11
39
12
56
82
18
73
55
35
91
28
41
43
29
34

> <PUBCHEM_MMFF94_PARTIAL_CHARGES>
38
1 -0.18
10 -0.51
11 0.36
12 0.36
13 0.28
14 0.28
15 -0.01
16 -0.15
17 -0.15
18 0.09
19 -0.15
2 1.45
20 -0.15
21 0.54
22 0.3
23 0.09
24 0.08
25 -0.15
26 0.06
27 -0.15
28 0.18
29 -0.15
3 -0.56
38 0.15
39 0.15
4 -0.65
40 0.15
41 0.15
42 0.37
43 0.15
47 0.15
48 0.15
49 0.45
5 -0.65
6 -0.57
7 -0.53
8 -0.85
9 -0.37

> <PUBCHEM_EFFECTIVE_ROTOR_COUNT>
7.2

> <PUBCHEM_PHARMACOPHORE_FEATURES>
10
1 10 acceptor
1 3 acceptor
1 4 acceptor
1 5 acceptor
1 6 acceptor
1 7 donor
1 9 donor
6 15 16 17 18 19 20 rings
6 23 24 25 27 28 29 rings
6 3 8 11 12 13 14 rings

> <PUBCHEM_HEAVY_ATOM_COUNT>
29

> <PUBCHEM_ATOM_DEF_STEREO_COUNT>
0

> <PUBCHEM_ATOM_UDEF_STEREO_COUNT>
0

> <PUBCHEM_BOND_DEF_STEREO_COUNT>
1

> <PUBCHEM_BOND_UDEF_STEREO_COUNT>
0

> <PUBCHEM_ISOTOPIC_ATOM_COUNT>
0

> <PUBCHEM_COMPONENT_COUNT>
1

> <PUBCHEM_CACTVS_TAUTO_COUNT>
-1

> <PUBCHEM_CONFORMER_ID>
0817485900000005

> <PUBCHEM_MMFF94_ENERGY>
72.2774

> <PUBCHEM_FEATURE_SELFOVERLAP>
50.772

> <PUBCHEM_SHAPE_FINGERPRINT>
10010297 198 18190457156457213242
10290309 65 18126009269530794015
10483366 6 18266434587610967173
10595046 47 17458916942360603208
10622 236 17823680989779099154
10815517 723 17773866670268461102
11135609 149 14346621693810536976
11315621 246 18341900718317164934
11524674 6 17632576020495380501
13690498 29 18334580135323617213
13782708 43 17274545330877841846
14068700 675 18339632434492746301
14114206 34 17603572033347333345
14117953 113 18272926151131827319
14429380 30 18264767830029225651
14674994 50 17488720386131089829
14856354 85 18410015476416592174
14930077 153 17095234788313207549
15183329 4 18411420635497791078
15250474 111 18040707040160768242
15274700 147 12765949758699456206
15289351 153 8717956775292840186
15352257 5 17846509093345260430
15361156 5 18187653500553267029
15537594 2 18408610235930889451
15685185 35 16954254480129938020
17857418 61 18409162225280375008
18927931 339 18408889529459468997
19841028 212 18053376889184972943
20511986 3 17459180798991108024
21315759 148 16773800294699620766
21796203 349 17974326293181462921
2303208 19 17417813916348259908
23559900 14 18267853042867422625
23622692 118 18341323492013718629
312425 54 17346606239744382898
335507 130 18261402126848161550
397830 11 17774425188384812024
4015057 19 16733282204579449532
4098825 35 16298104281233874005
484985 159 18339346527526440191
504579 68 17603592890024923822
6431902 208 18186522111308591658

> <PUBCHEM_SHAPE_MULTIPOLES>
558.24
18.4
3.4
1.95
25.56
0.75
0.04
-7.5
-3.29
-6.02
-1.54
0.35
-0.94
-2.71

> <PUBCHEM_SHAPE_SELFOVERLAP>
1165.772

> <PUBCHEM_SHAPE_VOLUME>
316.4

> <PUBCHEM_COORDINATE_TYPE>
2
5
10

$$$$
