135794128
  -OEChem-03292013293D

 46 49  0     1  0  0  0  0  0999 V2000
    3.0632   -1.3998   -2.0592 O   0  0  0  0  0  0  0  0  0  0  0  0
    3.3899    0.7891    0.8608 O   0  0  0  0  0  0  0  0  0  0  0  0
    3.3532   -3.4537   -0.1523 O   0  0  0  0  0  0  0  0  0  0  0  0
    0.8024   -2.8726    1.3362 O   0  0  0  0  0  0  0  0  0  0  0  0
   -1.7583   -2.7560    0.1614 O   0  0  0  0  0  0  0  0  0  0  0  0
   -2.4390    2.5521   -0.3256 O   0  0  0  0  0  0  0  0  0  0  0  0
    4.2162    2.6414   -0.2453 O   0  0  0  0  0  0  0  0  0  0  0  0
   -5.0024    2.3055   -0.1385 O   0  0  0  0  0  0  0  0  0  0  0  0
    0.6239    2.5255   -0.4467 N   0  3  0  0  0  0  0  0  0  0  0  0
    0.8628    3.6370   -0.6021 N   0  5  0  0  0  0  0  0  0  0  0  0
    3.4188   -1.0881   -0.7033 C   0  0  1  0  0  0  0  0  0  0  0  0
    2.8259    0.3028   -0.3536 C   0  0  1  0  0  0  0  0  0  0  0  0
    2.8135   -2.1810    0.2143 C   0  0  1  0  0  0  0  0  0  0  0  0
    1.2687   -2.2597    0.1327 C   0  0  2  0  0  0  0  0  0  0  0  0
    1.3541    0.2049   -0.1869 C   0  0  0  0  0  0  0  0  0  0  0  0
    0.6337   -0.9117   -0.0048 C   0  0  0  0  0  0  0  0  0  0  0  0
   -0.7779   -0.6041    0.0022 C   0  0  0  0  0  0  0  0  0  0  0  0
    0.3517    1.2565   -0.2693 C   0  0  0  0  0  0  0  0  0  0  0  0
    4.9509   -1.0843   -0.6280 C   0  0  0  0  0  0  0  0  0  0  0  0
   -0.9908    0.7072   -0.1402 C   0  0  0  0  0  0  0  0  0  0  0  0
   -1.9125   -1.5433    0.1032 C   0  0  0  0  0  0  0  0  0  0  0  0
   -2.3058    1.3457   -0.1774 C   0  0  0  0  0  0  0  0  0  0  0  0
   -3.2730   -0.9473    0.1145 C   0  0  0  0  0  0  0  0  0  0  0  0
   -3.4623    0.4360   -0.0210 C   0  0  0  0  0  0  0  0  0  0  0  0
    4.0619    1.9760    0.7700 C   0  0  0  0  0  0  0  0  0  0  0  0
   -4.7554    0.9709   -0.0124 C   0  0  0  0  0  0  0  0  0  0  0  0
   -4.3836   -1.7877    0.2575 C   0  0  0  0  0  0  0  0  0  0  0  0
   -5.8562    0.1262    0.1317 C   0  0  0  0  0  0  0  0  0  0  0  0
   -5.6709   -1.2488    0.2663 C   0  0  0  0  0  0  0  0  0  0  0  0
    4.5975    2.3613    2.1155 C   0  0  0  0  0  0  0  0  0  0  0  0
    3.0150    0.9715   -1.2033 H   0  0  0  0  0  0  0  0  0  0  0  0
    3.1283   -1.9988    1.2504 H   0  0  0  0  0  0  0  0  0  0  0  0
    0.9644   -2.9052   -0.6991 H   0  0  0  0  0  0  0  0  0  0  0  0
    5.3105   -0.9590    0.3982 H   0  0  0  0  0  0  0  0  0  0  0  0
    5.3658   -0.2760   -1.2411 H   0  0  0  0  0  0  0  0  0  0  0  0
    5.3689   -2.0147   -1.0286 H   0  0  0  0  0  0  0  0  0  0  0  0
    3.4600   -0.7253   -2.6365 H   0  0  0  0  0  0  0  0  0  0  0  0
    2.9619   -4.1166    0.4420 H   0  0  0  0  0  0  0  0  0  0  0  0
    1.0219   -2.2864    2.0808 H   0  0  0  0  0  0  0  0  0  0  0  0
   -4.2684   -2.8631    0.3640 H   0  0  0  0  0  0  0  0  0  0  0  0
   -6.8640    0.5331    0.1400 H   0  0  0  0  0  0  0  0  0  0  0  0
   -6.5309   -1.9030    0.3780 H   0  0  0  0  0  0  0  0  0  0  0  0
    3.7717    2.4884    2.8199 H   0  0  0  0  0  0  0  0  0  0  0  0
    5.1356    3.3100    2.0338 H   0  0  0  0  0  0  0  0  0  0  0  0
    5.2924    1.5959    2.4700 H   0  0  0  0  0  0  0  0  0  0  0  0
   -4.1750    2.8057   -0.1983 H   0  0  0  0  0  0  0  0  0  0  0  0
  1 11  1  0  0  0  0
  1 37  1  0  0  0  0
  2 12  1  0  0  0  0
  2 25  1  0  0  0  0
  3 13  1  0  0  0  0
  3 38  1  0  0  0  0
  4 14  1  0  0  0  0
  4 39  1  0  0  0  0
  5 21  2  0  0  0  0
  6 22  2  0  0  0  0
  7 25  2  0  0  0  0
  8 26  1  0  0  0  0
  8 46  1  0  0  0  0
  9 10  2  0  0  0  0
  9 18  2  0  0  0  0
 11 12  1  0  0  0  0
 11 13  1  0  0  0  0
 11 19  1  0  0  0  0
 12 15  1  0  0  0  0
 12 31  1  0  0  0  0
 13 14  1  0  0  0  0
 13 32  1  0  0  0  0
 14 16  1  0  0  0  0
 14 33  1  0  0  0  0
 15 16  2  0  0  0  0
 15 18  1  0  0  0  0
 16 17  1  0  0  0  0
 17 20  2  0  0  0  0
 17 21  1  0  0  0  0
 18 20  1  0  0  0  0
 19 34  1  0  0  0  0
 19 35  1  0  0  0  0
 19 36  1  0  0  0  0
 20 22  1  0  0  0  0
 21 23  1  0  0  0  0
 22 24  1  0  0  0  0
 23 24  2  0  0  0  0
 23 27  1  0  0  0  0
 24 26  1  0  0  0  0
 25 30  1  0  0  0  0
 26 28  2  0  0  0  0
 27 29  2  0  0  0  0
 27 40  1  0  0  0  0
 28 29  1  0  0  0  0
 28 41  1  0  0  0  0
 29 42  1  0  0  0  0
 30 43  1  0  0  0  0
 30 44  1  0  0  0  0
 30 45  1  0  0  0  0
M  CHG  2   9   1  10  -1
M  END
> <PUBCHEM_COMPOUND_CID>
135794128

> <PUBCHEM_CONFORMER_RMSD>
0.8

> <PUBCHEM_CONFORMER_DIVERSEORDER>
1
2

> <PUBCHEM_MMFF94_PARTIAL_CHARGES>
36
1 -0.68
10 -0.37
11 0.28
12 0.42
13 0.28
14 0.42
15 -0.12
16 -0.14
17 0.01
18 -0.02
2 -0.43
20 0.03
21 0.47
22 0.47
23 0.09
24 0.09
25 0.66
26 0.08
27 -0.15
28 -0.15
29 -0.15
3 -0.68
30 0.06
37 0.4
38 0.4
39 0.4
4 -0.68
40 0.15
41 0.15
42 0.15
46 0.45
5 -0.57
6 -0.57
7 -0.57
8 -0.53
9 0.36

> <PUBCHEM_EFFECTIVE_ROTOR_COUNT>
2.8

> <PUBCHEM_PHARMACOPHORE_FEATURES>
15
1 1 acceptor
1 1 donor
1 3 acceptor
1 3 donor
1 4 acceptor
1 4 donor
1 5 acceptor
1 6 acceptor
1 7 acceptor
1 8 donor
1 9 acceptor
5 15 16 17 18 20 rings
6 11 12 13 14 15 16 rings
6 17 20 21 22 23 24 rings
6 23 24 26 27 28 29 rings

> <PUBCHEM_HEAVY_ATOM_COUNT>
30

> <PUBCHEM_ATOM_DEF_STEREO_COUNT>
4

> <PUBCHEM_ATOM_UDEF_STEREO_COUNT>
0

> <PUBCHEM_BOND_DEF_STEREO_COUNT>
0

> <PUBCHEM_BOND_UDEF_STEREO_COUNT>
1

> <PUBCHEM_ISOTOPIC_ATOM_COUNT>
0

> <PUBCHEM_COMPONENT_COUNT>
1

> <PUBCHEM_CACTVS_TAUTO_COUNT>
-1

> <PUBCHEM_CONFORMER_ID>
08180DD000000001

> <PUBCHEM_MMFF94_ENERGY>
85.0346

> <PUBCHEM_FEATURE_SELFOVERLAP>
76.294

> <PUBCHEM_SHAPE_FINGERPRINT>
10906281 52 18117850021247545720
10967382 1 18408887368726980711
11112241 14 17201341117098452816
11578080 2 16986860466410995403
12236239 1 17676495994870759518
12403259 226 18121497951894080534
12403259 415 18409446960390782853
13140716 1 18192705644755011401
13224815 77 18408603656030117234
13402501 40 18410854395377459008
138480 1 18408608093211940805
14466204 15 18337945813420218537
14790565 3 17975984476917541780
15081414 286 18340495550867511497
15196674 1 18410294705451667951
17349148 13 17312824866088365289
17844677 252 18341339916052904921
1813 80 17168143459826587237
19591789 44 18264209119261032615
21033648 29 17917135140154115617
21267235 1 18337965505882011703
21279426 13 18264208007201892639
21421861 104 18114168701830519258
21452121 103 18341604932720166882
21792934 111 18336538331837131377
21859007 373 17534320268086696917
22149856 69 18265636410688504179
22182313 1 18334845096208863141
22393880 68 18337392634791130391
23559900 14 18411699863915786244
239999 70 18272375256777013390
3004659 81 17969511411546785134
335352 9 18192714450049911125
3411729 13 18271238417746587104
34797466 226 17703795825312129415
34934 24 18342453802577654487
350125 39 18409730638880602702
3633792 109 18411129226878545973
3680242 22 18260543433118827048
4093350 32 17489880331858623509
4340502 62 18341608256755724584
495365 180 17704066322494680882
5104073 3 18410294684008565291
5265222 85 17836087050196131864
59755656 215 18411984676393439332
9709674 26 18336551624555411179
9981440 41 17615972552849873209

> <PUBCHEM_SHAPE_MULTIPOLES>
560.47
11.47
3.74
1.02
7.58
0.46
-0.16
1.49
-1.24
-2.58
-0.23
-1.36
0.13
1.59

> <PUBCHEM_SHAPE_SELFOVERLAP>
1257.36

> <PUBCHEM_SHAPE_VOLUME>
291.6

> <PUBCHEM_COORDINATE_TYPE>
2
5
10

$$$$
