135789
  -OEChem-03292013323D

 50 52  0     1  0  0  0  0  0999 V2000
   -1.8879   -1.7481   -0.0989 O   0  0  0  0  0  0  0  0  0  0  0  0
   -0.6637   -3.3117   -1.2885 O   0  0  0  0  0  0  0  0  0  0  0  0
    4.0541   -0.0265   -1.5423 O   0  0  0  0  0  0  0  0  0  0  0  0
    3.2172    1.9225   -0.6146 O   0  0  0  0  0  0  0  0  0  0  0  0
   -2.3047    3.9482    1.4745 O   0  5  0  0  0  0  0  0  0  0  0  0
   -1.1506    2.5280    2.6872 O   0  0  0  0  0  0  0  0  0  0  0  0
    2.0031   -1.6382    1.8890 N   0  0  0  0  0  0  0  0  0  0  0  0
   -1.5410    2.9575    1.5747 N   0  3  0  0  0  0  0  0  0  0  0  0
   -4.2566   -1.4616   -0.1339 C   0  0  0  0  0  0  0  0  0  0  0  0
   -4.3013    0.0163   -0.3696 C   0  0  0  0  0  0  0  0  0  0  0  0
   -5.2522   -0.8899   -1.0953 C   0  0  0  0  0  0  0  0  0  0  0  0
   -3.1052   -2.2439   -0.6655 C   0  0  0  0  0  0  0  0  0  0  0  0
    1.0844   -0.6200   -0.5915 C   0  0  2  0  0  0  0  0  0  0  0  0
    0.3913   -1.7607    0.1602 C   0  0  0  0  0  0  0  0  0  0  0  0
   -0.7632   -2.3832   -0.5081 C   0  0  0  0  0  0  0  0  0  0  0  0
    2.4126   -0.2056    0.0499 C   0  0  0  0  0  0  0  0  0  0  0  0
    0.8531   -2.1960    1.3542 C   0  0  0  0  0  0  0  0  0  0  0  0
    0.1676    0.5657   -0.6834 C   0  0  0  0  0  0  0  0  0  0  0  0
    2.7969   -0.7004    1.2483 C   0  0  0  0  0  0  0  0  0  0  0  0
    0.2184   -3.2713    2.1945 C   0  0  0  0  0  0  0  0  0  0  0  0
   -0.2551    1.2000    0.4787 C   0  0  0  0  0  0  0  0  0  0  0  0
   -0.2477    1.0176   -1.9303 C   0  0  0  0  0  0  0  0  0  0  0  0
    3.2621    0.7114   -0.7275 C   0  0  0  0  0  0  0  0  0  0  0  0
    4.0534   -0.3229    1.9854 C   0  0  0  0  0  0  0  0  0  0  0  0
   -1.1054    2.3022    0.3927 C   0  0  0  0  0  0  0  0  0  0  0  0
   -1.0981    2.1198   -2.0163 C   0  0  0  0  0  0  0  0  0  0  0  0
   -1.5270    2.7621   -0.8548 C   0  0  0  0  0  0  0  0  0  0  0  0
    4.9456    0.7290   -2.3689 C   0  0  0  0  0  0  0  0  0  0  0  0
   -4.6044   -1.8226    0.8255 H   0  0  0  0  0  0  0  0  0  0  0  0
   -4.7012    0.6420    0.4185 H   0  0  0  0  0  0  0  0  0  0  0  0
   -3.5178    0.4769   -0.9556 H   0  0  0  0  0  0  0  0  0  0  0  0
   -5.1003   -1.0299   -2.1584 H   0  0  0  0  0  0  0  0  0  0  0  0
   -6.2924   -0.8744   -0.7931 H   0  0  0  0  0  0  0  0  0  0  0  0
   -3.2287   -3.2994   -0.3962 H   0  0  0  0  0  0  0  0  0  0  0  0
   -3.0437   -2.1669   -1.7579 H   0  0  0  0  0  0  0  0  0  0  0  0
    1.3194   -0.9997   -1.5964 H   0  0  0  0  0  0  0  0  0  0  0  0
    2.3204   -1.9871    2.7865 H   0  0  0  0  0  0  0  0  0  0  0  0
    0.9191   -4.1005    2.3394 H   0  0  0  0  0  0  0  0  0  0  0  0
   -0.6908   -3.6823    1.7469 H   0  0  0  0  0  0  0  0  0  0  0  0
   -0.0515   -2.8715    3.1779 H   0  0  0  0  0  0  0  0  0  0  0  0
    0.0789    0.8339    1.4458 H   0  0  0  0  0  0  0  0  0  0  0  0
    0.0782    0.5269   -2.8432 H   0  0  0  0  0  0  0  0  0  0  0  0
    4.6467    0.4304    1.4596 H   0  0  0  0  0  0  0  0  0  0  0  0
    3.8048    0.0848    2.9712 H   0  0  0  0  0  0  0  0  0  0  0  0
    4.6880   -1.2044    2.1263 H   0  0  0  0  0  0  0  0  0  0  0  0
   -1.4268    2.4770   -2.9878 H   0  0  0  0  0  0  0  0  0  0  0  0
   -2.1899    3.6171   -0.9604 H   0  0  0  0  0  0  0  0  0  0  0  0
    5.6354    1.3101   -1.7493 H   0  0  0  0  0  0  0  0  0  0  0  0
    5.5243    0.0270   -2.9750 H   0  0  0  0  0  0  0  0  0  0  0  0
    4.3786    1.3852   -3.0363 H   0  0  0  0  0  0  0  0  0  0  0  0
  1 12  1  0  0  0  0
  1 15  1  0  0  0  0
  2 15  2  0  0  0  0
  3 23  1  0  0  0  0
  3 28  1  0  0  0  0
  4 23  2  0  0  0  0
  5  8  1  0  0  0  0
  6  8  2  0  0  0  0
  7 17  1  0  0  0  0
  7 19  1  0  0  0  0
  7 37  1  0  0  0  0
  8 25  1  0  0  0  0
  9 10  1  0  0  0  0
  9 11  1  0  0  0  0
  9 12  1  0  0  0  0
  9 29  1  0  0  0  0
 10 11  1  0  0  0  0
 10 30  1  0  0  0  0
 10 31  1  0  0  0  0
 11 32  1  0  0  0  0
 11 33  1  0  0  0  0
 12 34  1  0  0  0  0
 12 35  1  0  0  0  0
 13 14  1  0  0  0  0
 13 16  1  0  0  0  0
 13 18  1  0  0  0  0
 13 36  1  0  0  0  0
 14 15  1  0  0  0  0
 14 17  2  0  0  0  0
 16 19  2  0  0  0  0
 16 23  1  0  0  0  0
 17 20  1  0  0  0  0
 18 21  2  0  0  0  0
 18 22  1  0  0  0  0
 19 24  1  0  0  0  0
 20 38  1  0  0  0  0
 20 39  1  0  0  0  0
 20 40  1  0  0  0  0
 21 25  1  0  0  0  0
 21 41  1  0  0  0  0
 22 26  2  0  0  0  0
 22 42  1  0  0  0  0
 24 43  1  0  0  0  0
 24 44  1  0  0  0  0
 24 45  1  0  0  0  0
 25 27  2  0  0  0  0
 26 27  1  0  0  0  0
 26 46  1  0  0  0  0
 27 47  1  0  0  0  0
 28 48  1  0  0  0  0
 28 49  1  0  0  0  0
 28 50  1  0  0  0  0
M  CHG  2   5  -1   8   1
M  END
> <PUBCHEM_COMPOUND_CID>
135789

> <PUBCHEM_CONFORMER_RMSD>
1

> <PUBCHEM_CONFORMER_DIVERSEORDER>
9
48
36
52
53
57
15
26
43
10
2
44
32
7
29
49
3
16
54
56
12
41
20
40
50
37
31
6
51
11
46
25
28
55
35
33
18
27
39
21
22
24
19
14
38
47
42
34
8
45
5
13
30
1
4
17
23

> <PUBCHEM_MMFF94_PARTIAL_CHARGES>
38
1 -0.43
10 -0.2
11 -0.2
12 0.38
13 0.42
14 -0.12
15 0.71
16 -0.12
17 -0.04
18 -0.14
19 -0.04
2 -0.57
20 0.14
21 -0.15
22 -0.15
23 0.71
24 0.14
25 0.13
26 -0.15
27 -0.15
28 0.28
29 0.1
3 -0.43
30 0.1
31 0.1
32 0.1
33 0.1
37 0.4
4 -0.57
41 0.15
42 0.15
46 0.15
47 0.15
5 -0.52
6 -0.52
7 -0.6
8 0.91
9 -0.19

> <PUBCHEM_EFFECTIVE_ROTOR_COUNT>
9

> <PUBCHEM_PHARMACOPHORE_FEATURES>
9
1 2 acceptor
1 4 acceptor
1 5 acceptor
1 5 anion
1 6 acceptor
1 7 cation
1 7 donor
6 18 21 22 25 26 27 rings
6 7 13 14 16 17 19 rings

> <PUBCHEM_HEAVY_ATOM_COUNT>
28

> <PUBCHEM_ATOM_DEF_STEREO_COUNT>
0

> <PUBCHEM_ATOM_UDEF_STEREO_COUNT>
1

> <PUBCHEM_BOND_DEF_STEREO_COUNT>
0

> <PUBCHEM_BOND_UDEF_STEREO_COUNT>
0

> <PUBCHEM_ISOTOPIC_ATOM_COUNT>
0

> <PUBCHEM_COMPONENT_COUNT>
1

> <PUBCHEM_CACTVS_TAUTO_COUNT>
3

> <PUBCHEM_CONFORMER_ID>
0002126D00000009

> <PUBCHEM_MMFF94_ENERGY>
80.2114

> <PUBCHEM_FEATURE_SELFOVERLAP>
45.753

> <PUBCHEM_SHAPE_FINGERPRINT>
104564 63 18410572847523298567
10759866 29 17967526839959885351
11582403 64 15146000594150735285
12035759 4 18114188557321734790
12788726 201 18339929315469681224
12954195 1 18199768980677298388
13132413 78 18118964938864620407
13140716 1 17533200098135881570
14081887 123 18201146651551389889
14787075 74 18196930187240734901
14790565 3 17677339457612082533
14840074 17 18189071862200235053
14955137 171 18053967292141725027
1601671 61 18410571820915702367
16752209 62 18411136926678552806
17492 54 18041281058065095269
20600515 1 18194104442467672020
20642791 239 17679314219319130532
20691752 17 17682083884724703683
20715895 44 17539947509195982693
23419403 2 16971336547705999228
244849 19 16988275353719629134
350125 39 18041547084392588502
3797600 57 18271233950316109972
392239 28 18198318771678947865
394222 165 16588576621645055058
7226269 152 18265328598365711136
81228 2 18191320453646807588

> <PUBCHEM_SHAPE_MULTIPOLES>
531.05
7.5
4.16
2.29
0.61
0.63
-0.69
-0.56
2.88
2.48
-1.69
-1.21
0.87
-2.36

> <PUBCHEM_SHAPE_SELFOVERLAP>
1131.231

> <PUBCHEM_SHAPE_VOLUME>
296.5

> <PUBCHEM_COORDINATE_TYPE>
2
5
10

$$$$
