135703731
  -OEChem-03292013293D

 33 35  0     1  0  0  0  0  0999 V2000
   -2.2891   -0.2337    0.9067 O   0  0  0  0  0  0  0  0  0  0  0  0
   -3.2733    2.5185   -0.0262 O   0  0  0  0  0  0  0  0  0  0  0  0
   -4.3639   -2.0786    0.5755 O   0  0  0  0  0  0  0  0  0  0  0  0
    1.2385    2.2882    0.4429 O   0  0  0  0  0  0  0  0  0  0  0  0
   -0.0038   -0.4397    0.0632 N   0  0  0  0  0  0  0  0  0  0  0  0
    3.4680   -1.1678   -0.1945 N   0  0  0  0  0  0  0  0  0  0  0  0
    3.2630    1.1934    0.1876 N   0  0  0  0  0  0  0  0  0  0  0  0
    5.3676    0.1946   -0.0569 N   0  0  0  0  0  0  0  0  0  0  0  0
   -1.2046    0.4523    0.2534 C   0  0  1  0  0  0  0  0  0  0  0  0
   -1.7649    0.9890   -1.0591 C   0  0  0  0  0  0  0  0  0  0  0  0
   -3.2063    1.2627   -0.6978 C   0  0  1  0  0  0  0  0  0  0  0  0
   -3.5326    0.1414    0.2802 C   0  0  1  0  0  0  0  0  0  0  0  0
   -4.1033   -1.0918   -0.4070 C   0  0  0  0  0  0  0  0  0  0  0  0
    1.3074   -0.0490    0.0712 C   0  0  0  0  0  0  0  0  0  0  0  0
   -0.0682   -1.7985   -0.1488 C   0  0  0  0  0  0  0  0  0  0  0  0
    2.0686   -1.1715   -0.1376 C   0  0  0  0  0  0  0  0  0  0  0  0
    1.2193   -2.2822   -0.2782 C   0  0  0  0  0  0  0  0  0  0  0  0
    1.8700    1.2538    0.2543 C   0  0  0  0  0  0  0  0  0  0  0  0
    4.0076    0.0188   -0.0289 C   0  0  0  0  0  0  0  0  0  0  0  0
   -0.8946    1.2535    0.9307 H   0  0  0  0  0  0  0  0  0  0  0  0
   -1.7126    0.2260   -1.8447 H   0  0  0  0  0  0  0  0  0  0  0  0
   -1.2159    1.8728   -1.3983 H   0  0  0  0  0  0  0  0  0  0  0  0
   -3.8687    1.3084   -1.5669 H   0  0  0  0  0  0  0  0  0  0  0  0
   -4.2050    0.4684    1.0812 H   0  0  0  0  0  0  0  0  0  0  0  0
   -3.3933   -1.5160   -1.1241 H   0  0  0  0  0  0  0  0  0  0  0  0
   -5.0389   -0.8539   -0.9225 H   0  0  0  0  0  0  0  0  0  0  0  0
   -1.0188   -2.3121   -0.1950 H   0  0  0  0  0  0  0  0  0  0  0  0
   -4.1979    2.6547    0.2424 H   0  0  0  0  0  0  0  0  0  0  0  0
    1.4933   -3.3129   -0.4534 H   0  0  0  0  0  0  0  0  0  0  0  0
   -4.7283   -2.8533    0.1143 H   0  0  0  0  0  0  0  0  0  0  0  0
    3.7763    2.0624    0.3039 H   0  0  0  0  0  0  0  0  0  0  0  0
    5.9950   -0.5881   -0.2065 H   0  0  0  0  0  0  0  0  0  0  0  0
    5.7856    1.1097    0.0708 H   0  0  0  0  0  0  0  0  0  0  0  0
  1  9  1  0  0  0  0
  1 12  1  0  0  0  0
  2 11  1  0  0  0  0
  2 28  1  0  0  0  0
  3 13  1  0  0  0  0
  3 30  1  0  0  0  0
  4 18  2  0  0  0  0
  5  9  1  0  0  0  0
  5 14  1  0  0  0  0
  5 15  1  0  0  0  0
  6 16  1  0  0  0  0
  6 19  2  0  0  0  0
  7 18  1  0  0  0  0
  7 19  1  0  0  0  0
  7 31  1  0  0  0  0
  8 19  1  0  0  0  0
  8 32  1  0  0  0  0
  8 33  1  0  0  0  0
  9 10  1  0  0  0  0
  9 20  1  0  0  0  0
 10 11  1  0  0  0  0
 10 21  1  0  0  0  0
 10 22  1  0  0  0  0
 11 12  1  0  0  0  0
 11 23  1  0  0  0  0
 12 13  1  0  0  0  0
 12 24  1  0  0  0  0
 13 25  1  0  0  0  0
 13 26  1  0  0  0  0
 14 16  2  0  0  0  0
 14 18  1  0  0  0  0
 15 17  2  0  0  0  0
 15 27  1  0  0  0  0
 16 17  1  0  0  0  0
 17 29  1  0  0  0  0
M  END
> <PUBCHEM_COMPOUND_CID>
135703731

> <PUBCHEM_CONFORMER_RMSD>
0.6

> <PUBCHEM_CONFORMER_DIVERSEORDER>
1
9
11
7
3
10
8
2
5
4
6

> <PUBCHEM_MMFF94_PARTIAL_CHARGES>
25
1 -0.56
11 0.28
12 0.28
13 0.28
14 -0.24
15 -0.3
16 0.12
17 -0.15
18 0.71
19 0.56
2 -0.68
27 0.15
28 0.4
29 0.15
3 -0.68
30 0.4
31 0.37
32 0.4
33 0.4
4 -0.57
5 0.05
6 -0.57
7 -0.49
8 -0.85
9 0.54

> <PUBCHEM_EFFECTIVE_ROTOR_COUNT>
3

> <PUBCHEM_PHARMACOPHORE_FEATURES>
12
1 1 acceptor
1 2 acceptor
1 2 donor
1 3 acceptor
1 3 donor
1 4 acceptor
1 5 cation
1 7 donor
1 8 donor
5 1 9 10 11 12 rings
5 5 14 15 16 17 rings
6 6 7 14 16 18 19 rings

> <PUBCHEM_HEAVY_ATOM_COUNT>
19

> <PUBCHEM_ATOM_DEF_STEREO_COUNT>
3

> <PUBCHEM_ATOM_UDEF_STEREO_COUNT>
0

> <PUBCHEM_BOND_DEF_STEREO_COUNT>
0

> <PUBCHEM_BOND_UDEF_STEREO_COUNT>
0

> <PUBCHEM_ISOTOPIC_ATOM_COUNT>
0

> <PUBCHEM_COMPONENT_COUNT>
1

> <PUBCHEM_CACTVS_TAUTO_COUNT>
-1

> <PUBCHEM_CONFORMER_ID>
0816ACB300000001

> <PUBCHEM_MMFF94_ENERGY>
43.8451

> <PUBCHEM_FEATURE_SELFOVERLAP>
61.061

> <PUBCHEM_SHAPE_FINGERPRINT>
10366900 7 18186804720283171515
10608611 8 18337106770257720149
11471102 20 18340482258175449284
11615757 297 18060140946456203339
12236239 1 17203610371679898393
12403259 226 18339074994750224481
12403259 415 18343297102305534840
12403260 363 18336259128138386708
12670546 56 16805311185544484872
13862211 1 18412822474315971670
15196674 1 18411136896935489478
15219456 202 18335985264023059653
16945 1 18271805666798747466
17802600 8 18410290349848427607
18186145 218 18131357388408134970
19591789 44 18411418423288816654
200 152 18131344220412964943
20645477 56 18189335680766871485
20645477 70 18058161717983472862
21267235 1 18340495538140748222
21501502 16 18262512581525041643
21524375 3 18411420656655882242
221490 88 18411424985698261951
23402539 116 17821723948990932463
23402655 69 18271520897091588548
23557571 272 18040714771243909685
23559900 14 18051124801122883354
25 1 18338511937570034524
2748010 2 18270122452125388978
2871803 45 18335975450487440791
3286 77 18409445929181887484
350125 39 18338802345910123532
3545911 37 18410573947082671805
474229 33 18410574032597058230
4990 188 18059863839867447350
5104073 3 18411134693332586810
58051976 378 18413105061298711791
81228 2 17477462670530416514
9709674 26 18409736140412559595

> <PUBCHEM_SHAPE_MULTIPOLES>
347.61
8.65
2.3
0.76
1.44
0
-0.06
-0.11
-0.02
-0.96
0.01
-0.38
0.04
0.62

> <PUBCHEM_SHAPE_SELFOVERLAP>
754.403

> <PUBCHEM_SHAPE_VOLUME>
188.4

> <PUBCHEM_COORDINATE_TYPE>
2
5
10

$$$$
