135777637
  -OEChem-03292013293D

 37 39  0     1  0  0  0  0  0999 V2000
    1.7676    0.4761    1.0725 O   0  0  0  0  0  0  0  0  0  0  0  0
    2.3231   -2.0563   -1.4292 O   0  0  0  0  0  0  0  0  0  0  0  0
    4.2846   -0.9255    0.1349 O   0  0  0  0  0  0  0  0  0  0  0  0
    2.0925    3.2367    0.7196 O   0  0  0  0  0  0  0  0  0  0  0  0
   -0.3509   -3.1897    0.4196 O   0  0  0  0  0  0  0  0  0  0  0  0
   -4.5266    0.0162   -0.2817 O   0  0  0  0  0  0  0  0  0  0  0  0
   -0.1225   -0.8365    0.2586 N   0  0  0  0  0  0  0  0  0  0  0  0
   -2.1629   -1.7400    0.1096 N   0  0  0  0  0  0  0  0  0  0  0  0
   -0.6580    1.5118    0.0174 N   0  0  0  0  0  0  0  0  0  0  0  0
   -3.0202    1.8006   -0.2593 N   0  0  0  0  0  0  0  0  0  0  0  0
   -1.5755    3.6588   -0.2488 N   0  0  0  0  0  0  0  0  0  0  0  0
    1.3771   -0.7472    0.4150 C   0  0  1  0  0  0  0  0  0  0  0  0
    2.1165   -0.7541   -0.9190 C   0  0  1  0  0  0  0  0  0  0  0  0
    3.4083   -0.0442   -0.5662 C   0  0  1  0  0  0  0  0  0  0  0  0
    2.9318    1.0215    0.4126 C   0  0  1  0  0  0  0  0  0  0  0  0
    2.5278    2.3211   -0.2701 C   0  0  0  0  0  0  0  0  0  0  0  0
   -0.9879    0.2029    0.0842 C   0  0  0  0  0  0  0  0  0  0  0  0
   -0.8767   -1.9845    0.2671 C   0  0  0  0  0  0  0  0  0  0  0  0
   -2.2277   -0.3826   -0.0035 C   0  0  0  0  0  0  0  0  0  0  0  0
   -3.3844    0.4484   -0.1928 C   0  0  0  0  0  0  0  0  0  0  0  0
   -1.6992    2.2968   -0.1559 C   0  0  0  0  0  0  0  0  0  0  0  0
   -1.2367   -4.3305    0.4154 C   0  0  0  0  0  0  0  0  0  0  0  0
    1.6554   -1.5898    1.0591 H   0  0  0  0  0  0  0  0  0  0  0  0
    1.5620   -0.1759   -1.6681 H   0  0  0  0  0  0  0  0  0  0  0  0
    3.9451    0.3402   -1.4381 H   0  0  0  0  0  0  0  0  0  0  0  0
    3.6680    1.2286    1.1976 H   0  0  0  0  0  0  0  0  0  0  0  0
    1.7121    2.1750   -0.9830 H   0  0  0  0  0  0  0  0  0  0  0  0
    3.3815    2.7596   -0.7966 H   0  0  0  0  0  0  0  0  0  0  0  0
    2.8907   -1.9748   -2.2144 H   0  0  0  0  0  0  0  0  0  0  0  0
    5.0800   -0.4179    0.3704 H   0  0  0  0  0  0  0  0  0  0  0  0
    1.8461    4.0583    0.2616 H   0  0  0  0  0  0  0  0  0  0  0  0
   -3.7654    2.4782   -0.3924 H   0  0  0  0  0  0  0  0  0  0  0  0
   -0.6284   -5.2284    0.5523 H   0  0  0  0  0  0  0  0  0  0  0  0
   -1.7591   -4.3979   -0.5439 H   0  0  0  0  0  0  0  0  0  0  0  0
   -1.9508   -4.2557    1.2414 H   0  0  0  0  0  0  0  0  0  0  0  0
   -0.6687    4.1086   -0.1869 H   0  0  0  0  0  0  0  0  0  0  0  0
   -2.3844    4.2556   -0.3825 H   0  0  0  0  0  0  0  0  0  0  0  0
  1 12  1  0  0  0  0
  1 15  1  0  0  0  0
  2 13  1  0  0  0  0
  2 29  1  0  0  0  0
  3 14  1  0  0  0  0
  3 30  1  0  0  0  0
  4 16  1  0  0  0  0
  4 31  1  0  0  0  0
  5 18  1  0  0  0  0
  5 22  1  0  0  0  0
  6 20  2  0  0  0  0
  7 12  1  0  0  0  0
  7 17  1  0  0  0  0
  7 18  1  0  0  0  0
  8 18  2  0  0  0  0
  8 19  1  0  0  0  0
  9 17  1  0  0  0  0
  9 21  2  0  0  0  0
 10 20  1  0  0  0  0
 10 21  1  0  0  0  0
 10 32  1  0  0  0  0
 11 21  1  0  0  0  0
 11 36  1  0  0  0  0
 11 37  1  0  0  0  0
 12 13  1  0  0  0  0
 12 23  1  0  0  0  0
 13 14  1  0  0  0  0
 13 24  1  0  0  0  0
 14 15  1  0  0  0  0
 14 25  1  0  0  0  0
 15 16  1  0  0  0  0
 15 26  1  0  0  0  0
 16 27  1  0  0  0  0
 16 28  1  0  0  0  0
 17 19  2  0  0  0  0
 19 20  1  0  0  0  0
 22 33  1  0  0  0  0
 22 34  1  0  0  0  0
 22 35  1  0  0  0  0
M  END
> <PUBCHEM_COMPOUND_CID>
135777637

> <PUBCHEM_CONFORMER_RMSD>
0.6

> <PUBCHEM_CONFORMER_DIVERSEORDER>
1
33
29
35
24
10
19
16
26
28
13
30
23
4
21
32
20
34
31
14
18
6
11
8
25
22
2
27
7
3
9
17
5
15
12

> <PUBCHEM_MMFF94_PARTIAL_CHARGES>
28
1 -0.56
10 -0.49
11 -0.85
12 0.54
13 0.28
14 0.28
15 0.28
16 0.28
17 -0.03
18 0.25
19 0.14
2 -0.68
20 0.72
21 0.56
22 0.28
29 0.4
3 -0.68
30 0.4
31 0.4
32 0.37
36 0.4
37 0.4
4 -0.68
5 -0.34
6 -0.57
7 0.05
8 -0.57
9 -0.58

> <PUBCHEM_EFFECTIVE_ROTOR_COUNT>
4

> <PUBCHEM_PHARMACOPHORE_FEATURES>
14
1 1 acceptor
1 10 donor
1 11 donor
1 2 acceptor
1 2 donor
1 3 acceptor
1 3 donor
1 4 acceptor
1 4 donor
1 6 acceptor
3 7 8 18 cation
5 1 12 13 14 15 rings
5 7 8 17 18 19 rings
6 9 10 17 19 20 21 rings

> <PUBCHEM_HEAVY_ATOM_COUNT>
22

> <PUBCHEM_ATOM_DEF_STEREO_COUNT>
4

> <PUBCHEM_ATOM_UDEF_STEREO_COUNT>
0

> <PUBCHEM_BOND_DEF_STEREO_COUNT>
0

> <PUBCHEM_BOND_UDEF_STEREO_COUNT>
0

> <PUBCHEM_ISOTOPIC_ATOM_COUNT>
0

> <PUBCHEM_COMPONENT_COUNT>
1

> <PUBCHEM_CACTVS_TAUTO_COUNT>
-1

> <PUBCHEM_CONFORMER_ID>
0817CD6500000001

> <PUBCHEM_MMFF94_ENERGY>
54.6492

> <PUBCHEM_FEATURE_SELFOVERLAP>
71.242

> <PUBCHEM_SHAPE_FINGERPRINT>
10498660 4 18263077726275764973
10608611 8 18340205314283708304
10616163 171 18050289472658709988
10693767 8 18057862784814459151
10967382 1 18337952397689108617
12173636 292 18408881832693510533
12403259 226 18337952290161685669
12403260 363 18337943506906021028
12553582 1 17398965254100271595
13140716 1 18194680590966253618
14223421 5 18051132793829518328
14790565 3 18410300211964413881
15042514 8 18334860562449834715
16945 1 18410009931444240890
18186145 218 18199474259594145885
19591789 44 18194404390040914899
20510252 161 18341332197791186225
20905425 154 17189254898865222590
21524375 3 18114181878426452251
22802520 49 18341621455084671530
2334 1 17978792642330179248
23366157 5 17465107042010698411
23402539 116 18339912762433549150
23557571 272 18124043583178818982
23559900 14 18341330085152124874
238 59 18051098476962040485
2748010 2 17981327003863293560
3084891 72 18051131394029103234
350125 39 17975698281871174291
43471831 8 18191021205968981459
7097593 13 18043786810995521002
7364860 26 17833265320684532907
81228 2 18195242454356798243
9709674 26 18342180019977223798

> <PUBCHEM_SHAPE_MULTIPOLES>
392.63
6.09
4.32
0.82
0.72
1.13
0.09
-1.19
0.62
-1.58
-0.33
0.45
0.16
0.88

> <PUBCHEM_SHAPE_SELFOVERLAP>
848.874

> <PUBCHEM_SHAPE_VOLUME>
212.8

> <PUBCHEM_COORDINATE_TYPE>
2
5
10

$$$$
