135718444
  -OEChem-03292013293D

 50 52  0     1  0  0  0  0  0999 V2000
    7.5508    2.2593   -1.1106 O   0  0  0  0  0  0  0  0  0  0  0  0
    3.9597    1.1923    2.2622 O   0  0  0  0  0  0  0  0  0  0  0  0
    5.5403    2.0677   -2.1456 O   0  0  0  0  0  0  0  0  0  0  0  0
    7.1611   -3.4257   -1.4193 O   0  0  0  0  0  0  0  0  0  0  0  0
    7.9095   -2.7130    0.6004 O   0  0  0  0  0  0  0  0  0  0  0  0
   -6.9153    2.4337   -0.0102 O   0  0  0  0  0  0  0  0  0  0  0  0
    4.4030    0.9206    0.0019 N   0  0  0  0  0  0  0  0  0  0  0  0
   -1.9406   -0.0246    0.1733 N   0  0  0  0  0  0  0  0  0  0  0  0
   -8.0697   -1.3084   -0.9490 N   0  0  0  0  0  0  0  0  0  0  0  0
   -8.4603    0.9258   -0.8029 N   0  0  0  0  0  0  0  0  0  0  0  0
   -8.8416   -0.3377   -1.1169 N   0  0  0  0  0  0  0  0  0  0  0  0
    5.8270    1.1261    0.0821 C   0  0  1  0  0  0  0  0  0  0  0  0
    6.5983   -0.1717    0.3506 C   0  0  0  0  0  0  0  0  0  0  0  0
    6.4819   -1.2544   -0.7297 C   0  0  0  0  0  0  0  0  0  0  0  0
   -2.8160   -0.5580    1.1707 C   0  0  0  0  0  0  0  0  0  0  0  0
   -4.2001   -0.7425    0.6133 C   0  0  0  0  0  0  0  0  0  0  0  0
    2.1350    0.7122    0.8701 C   0  0  0  0  0  0  0  0  0  0  0  0
    3.5768    0.9719    1.1163 C   0  0  0  0  0  0  0  0  0  0  0  0
   -0.5721    0.2223    0.4078 C   0  0  0  0  0  0  0  0  0  0  0  0
    6.2586    1.8444   -1.1798 C   0  0  0  0  0  0  0  0  0  0  0  0
   -5.0349    0.3591    0.4385 C   0  0  0  0  0  0  0  0  0  0  0  0
   -6.3180    0.1682   -0.0801 C   0  0  0  0  0  0  0  0  0  0  0  0
    1.3369    0.1899    1.8880 C   0  0  0  0  0  0  0  0  0  0  0  0
    1.5793    0.9897   -0.3788 C   0  0  0  0  0  0  0  0  0  0  0  0
   -0.0166   -0.0552    1.6569 C   0  0  0  0  0  0  0  0  0  0  0  0
    0.2258    0.7447   -0.6100 C   0  0  0  0  0  0  0  0  0  0  0  0
   -4.6495   -2.0170    0.2717 C   0  0  0  0  0  0  0  0  0  0  0  0
   -6.7859   -1.0945   -0.4272 C   0  0  0  0  0  0  0  0  0  0  0  0
    7.2507   -2.5185   -0.4117 C   0  0  0  0  0  0  0  0  0  0  0  0
   -5.9355   -2.1910   -0.2457 C   0  0  0  0  0  0  0  0  0  0  0  0
   -7.2385    1.2842   -0.2863 C   0  0  0  0  0  0  0  0  0  0  0  0
    6.0101    1.8192    0.9133 H   0  0  0  0  0  0  0  0  0  0  0  0
    6.2594   -0.5948    1.3057 H   0  0  0  0  0  0  0  0  0  0  0  0
    7.6612    0.0666    0.4880 H   0  0  0  0  0  0  0  0  0  0  0  0
    6.8638   -0.8655   -1.6801 H   0  0  0  0  0  0  0  0  0  0  0  0
    5.4305   -1.5332   -0.8606 H   0  0  0  0  0  0  0  0  0  0  0  0
    4.0272    0.6523   -0.9016 H   0  0  0  0  0  0  0  0  0  0  0  0
   -2.8791    0.1116    2.0383 H   0  0  0  0  0  0  0  0  0  0  0  0
   -2.4454   -1.5238    1.5373 H   0  0  0  0  0  0  0  0  0  0  0  0
   -2.2961    0.1903   -0.7523 H   0  0  0  0  0  0  0  0  0  0  0  0
   -4.6854    1.3530    0.7047 H   0  0  0  0  0  0  0  0  0  0  0  0
    1.7526   -0.0367    2.8663 H   0  0  0  0  0  0  0  0  0  0  0  0
    2.1573    1.4259   -1.1881 H   0  0  0  0  0  0  0  0  0  0  0  0
   -0.6010   -0.4613    2.4769 H   0  0  0  0  0  0  0  0  0  0  0  0
   -0.1970    0.9716   -1.5855 H   0  0  0  0  0  0  0  0  0  0  0  0
   -4.0095   -2.8859    0.4003 H   0  0  0  0  0  0  0  0  0  0  0  0
   -6.2703   -3.1921   -0.5075 H   0  0  0  0  0  0  0  0  0  0  0  0
    7.8247    2.7381   -1.9217 H   0  0  0  0  0  0  0  0  0  0  0  0
   -9.1671    1.6322   -0.9809 H   0  0  0  0  0  0  0  0  0  0  0  0
    7.6732   -4.2395   -1.2248 H   0  0  0  0  0  0  0  0  0  0  0  0
  1 20  1  0  0  0  0
  1 48  1  0  0  0  0
  2 18  2  0  0  0  0
  3 20  2  0  0  0  0
  4 29  1  0  0  0  0
  4 50  1  0  0  0  0
  5 29  2  0  0  0  0
  6 31  2  0  0  0  0
  7 12  1  0  0  0  0
  7 18  1  0  0  0  0
  7 37  1  0  0  0  0
  8 15  1  0  0  0  0
  8 19  1  0  0  0  0
  8 40  1  0  0  0  0
  9 11  2  0  0  0  0
  9 28  1  0  0  0  0
 10 11  1  0  0  0  0
 10 31  1  0  0  0  0
 10 49  1  0  0  0  0
 12 13  1  0  0  0  0
 12 20  1  0  0  0  0
 12 32  1  0  0  0  0
 13 14  1  0  0  0  0
 13 33  1  0  0  0  0
 13 34  1  0  0  0  0
 14 29  1  0  0  0  0
 14 35  1  0  0  0  0
 14 36  1  0  0  0  0
 15 16  1  0  0  0  0
 15 38  1  0  0  0  0
 15 39  1  0  0  0  0
 16 21  2  0  0  0  0
 16 27  1  0  0  0  0
 17 18  1  0  0  0  0
 17 23  2  0  0  0  0
 17 24  1  0  0  0  0
 19 25  2  0  0  0  0
 19 26  1  0  0  0  0
 21 22  1  0  0  0  0
 21 41  1  0  0  0  0
 22 28  2  0  0  0  0
 22 31  1  0  0  0  0
 23 25  1  0  0  0  0
 23 42  1  0  0  0  0
 24 26  2  0  0  0  0
 24 43  1  0  0  0  0
 25 44  1  0  0  0  0
 26 45  1  0  0  0  0
 27 30  2  0  0  0  0
 27 46  1  0  0  0  0
 28 30  1  0  0  0  0
 30 47  1  0  0  0  0
M  END
> <PUBCHEM_COMPOUND_CID>
135718444

> <PUBCHEM_CONFORMER_RMSD>
1

> <PUBCHEM_CONFORMER_DIVERSEORDER>
1
44
107
67
83
124
136
91
51
111
64
131
61
37
71
48
98
79
12
125
95
76
10
105
96
16
62
93
21
88
30
127
81
54
49
89
42
53
74
97
17
101
122
50
11
25
102
133
119
19
90
3
46
68
130
140
18
139
114
60
13
134
31
43
15
116
65
135
66
99
40
73
39
34
78
35
137
94
52
109
24
55
115
113
59
45
85
27
47
33
141
123
9
70
120
4
126
117
112
80
87
29
22
92
77
6
128
20
32
106
110
118
56
104
100
23
28
57
108
5
26
36
58
38
8
129
41
63
132
7
121
103
84
75
86
82
138
2
69
72
14

> <PUBCHEM_MMFF94_PARTIAL_CHARGES>
42
1 -0.65
10 -0.37
11 -0.06
12 0.36
14 0.06
15 0.51
16 -0.14
17 0.09
18 0.54
19 0.1
2 -0.57
20 0.66
21 -0.15
22 0.09
23 -0.15
24 -0.15
25 -0.15
26 -0.15
27 -0.15
28 0.18
29 0.66
3 -0.57
30 -0.15
31 0.54
37 0.37
4 -0.65
40 0.4
41 0.15
42 0.15
43 0.15
44 0.15
45 0.15
46 0.15
47 0.15
48 0.5
49 0.37
5 -0.57
50 0.5
6 -0.57
7 -0.73
8 -0.87
9 -0.18

> <PUBCHEM_EFFECTIVE_ROTOR_COUNT>
10

> <PUBCHEM_PHARMACOPHORE_FEATURES>
15
1 1 acceptor
1 10 donor
1 2 acceptor
1 3 acceptor
1 4 acceptor
1 5 acceptor
1 6 acceptor
1 7 donor
1 8 cation
1 8 donor
3 1 3 20 anion
3 4 5 29 anion
6 16 21 22 27 28 30 rings
6 17 19 23 24 25 26 rings
6 9 10 11 22 28 31 rings

> <PUBCHEM_HEAVY_ATOM_COUNT>
31

> <PUBCHEM_ATOM_DEF_STEREO_COUNT>
1

> <PUBCHEM_ATOM_UDEF_STEREO_COUNT>
0

> <PUBCHEM_BOND_DEF_STEREO_COUNT>
0

> <PUBCHEM_BOND_UDEF_STEREO_COUNT>
0

> <PUBCHEM_ISOTOPIC_ATOM_COUNT>
0

> <PUBCHEM_COMPONENT_COUNT>
1

> <PUBCHEM_CACTVS_TAUTO_COUNT>
-1

> <PUBCHEM_CONFORMER_ID>
0816E62C00000001

> <PUBCHEM_MMFF94_ENERGY>
92.6298

> <PUBCHEM_FEATURE_SELFOVERLAP>
76.272

> <PUBCHEM_SHAPE_FINGERPRINT>
10066227 49 18201721712885824614
10319688 67 13901897900043265934
11135609 127 18265614467849073772
11315181 36 17894629301787199689
11408170 132 17241034410294582031
11719270 70 17846500318415974566
12082328 90 18335701672292370351
12522641 33 18187651358429501580
13008946 282 15266762425904264594
13692114 37 14117793639628975396
13782708 43 17346604087991933456
14849402 71 9367051268692525354
15183329 4 18341617026831094841
15276724 80 17095510808391112829
15461852 350 18337951303432375239
15475509 8 17821732719440764372
1577012 14 17313093186134104369
1754908 1 11024107663996740399
17852330 31 9871465363036384300
195137 175 17968095352471169053
19841028 212 18270400487335345594
21344244 78 14908181941865065178
3711267 37 15068344497009195622
4073 2 17530683243015748187
445580 37 18409730673509840897
474113 269 17632015247974787966
5758199 1 16732978752170143825
59682541 35 11167938082882388415
59682541 52 18411422843300514928
6081469 158 18343861113511438905
6328613 192 17676488397411268241
6438161 24 18131346393740679234
9831232 110 18411422774560374494

> <PUBCHEM_SHAPE_MULTIPOLES>
577.84
30.83
2.6
1.48
12.68
1.57
0.26
6.48
-12.56
-4.71
-0.98
-1.79
-0.35
-0.16

> <PUBCHEM_SHAPE_SELFOVERLAP>
1239.763

> <PUBCHEM_SHAPE_VOLUME>
314.2

> <PUBCHEM_COORDINATE_TYPE>
2
5
10

$$$$
