135753
  -OEChem-03292013323D

 38 39  0     0  0  0  0  0  0999 V2000
    7.8785   -0.0793    0.4619 S   0  0  0  0  0  0  0  0  0  0  0  0
   -3.4518    0.2296    0.8835 O   0  0  0  0  0  0  0  0  0  0  0  0
   -5.1340    2.3729   -0.0245 O   0  0  0  0  0  0  0  0  0  0  0  0
   -5.0723   -2.1414    0.9043 O   0  0  0  0  0  0  0  0  0  0  0  0
    2.1850   -0.3209   -1.1881 O   0  0  0  0  0  0  0  0  0  0  0  0
   -2.8762   -0.2776   -1.2950 O   0  0  0  0  0  0  0  0  0  0  0  0
    1.6096    0.2177    1.0138 O   0  0  0  0  0  0  0  0  0  0  0  0
   -4.7919    0.1224    0.4512 N   0  0  0  0  0  0  0  0  0  0  0  0
   -6.8524    0.7051   -0.3764 C   0  0  0  0  0  0  0  0  0  0  0  0
   -6.8321   -0.7935   -0.0679 C   0  0  0  0  0  0  0  0  0  0  0  0
   -5.4947    1.2077    0.0340 C   0  0  0  0  0  0  0  0  0  0  0  0
   -5.4638   -1.0575    0.5001 C   0  0  0  0  0  0  0  0  0  0  0  0
   -1.1640    0.1205    0.3893 C   0  0  0  0  0  0  0  0  0  0  0  0
   -0.1065   -0.1432   -0.6800 C   0  0  0  0  0  0  0  0  0  0  0  0
   -2.5770   -0.0098   -0.1392 C   0  0  0  0  0  0  0  0  0  0  0  0
    1.3060   -0.0524   -0.1402 C   0  0  0  0  0  0  0  0  0  0  0  0
    3.5257   -0.2638   -0.8003 C   0  0  0  0  0  0  0  0  0  0  0  0
    4.1304   -1.4126   -0.3405 C   0  0  0  0  0  0  0  0  0  0  0  0
    4.1906    0.9388   -0.8921 C   0  0  0  0  0  0  0  0  0  0  0  0
    6.1685   -0.1516   -0.0345 C   0  0  0  0  0  0  0  0  0  0  0  0
    5.4692   -1.3556    0.0475 C   0  0  0  0  0  0  0  0  0  0  0  0
    5.5292    0.9956   -0.5043 C   0  0  0  0  0  0  0  0  0  0  0  0
    7.8238    1.1488    1.7974 C   0  0  0  0  0  0  0  0  0  0  0  0
   -7.6277    1.2184    0.1999 H   0  0  0  0  0  0  0  0  0  0  0  0
   -7.0087    0.8891   -1.4433 H   0  0  0  0  0  0  0  0  0  0  0  0
   -7.5966   -1.0575    0.6686 H   0  0  0  0  0  0  0  0  0  0  0  0
   -6.9779   -1.3880   -0.9745 H   0  0  0  0  0  0  0  0  0  0  0  0
   -1.0388    1.1338    0.7884 H   0  0  0  0  0  0  0  0  0  0  0  0
   -1.0409   -0.5938    1.2119 H   0  0  0  0  0  0  0  0  0  0  0  0
   -0.2479   -1.1471   -1.0971 H   0  0  0  0  0  0  0  0  0  0  0  0
   -0.2121    0.5876   -1.4901 H   0  0  0  0  0  0  0  0  0  0  0  0
    3.5862   -2.3496   -0.2773 H   0  0  0  0  0  0  0  0  0  0  0  0
    3.6934    1.8309   -1.2598 H   0  0  0  0  0  0  0  0  0  0  0  0
    5.9503   -2.2602    0.4114 H   0  0  0  0  0  0  0  0  0  0  0  0
    6.0559    1.9434   -0.5836 H   0  0  0  0  0  0  0  0  0  0  0  0
    7.5518    2.1331    1.4079 H   0  0  0  0  0  0  0  0  0  0  0  0
    7.1025    0.8475    2.5619 H   0  0  0  0  0  0  0  0  0  0  0  0
    8.8125    1.2200    2.2585 H   0  0  0  0  0  0  0  0  0  0  0  0
  1 20  1  0  0  0  0
  1 23  1  0  0  0  0
  2  8  1  0  0  0  0
  2 15  1  0  0  0  0
  3 11  2  0  0  0  0
  4 12  2  0  0  0  0
  5 16  1  0  0  0  0
  5 17  1  0  0  0  0
  6 15  2  0  0  0  0
  7 16  2  0  0  0  0
  8 11  1  0  0  0  0
  8 12  1  0  0  0  0
  9 10  1  0  0  0  0
  9 11  1  0  0  0  0
  9 24  1  0  0  0  0
  9 25  1  0  0  0  0
 10 12  1  0  0  0  0
 10 26  1  0  0  0  0
 10 27  1  0  0  0  0
 13 14  1  0  0  0  0
 13 15  1  0  0  0  0
 13 28  1  0  0  0  0
 13 29  1  0  0  0  0
 14 16  1  0  0  0  0
 14 30  1  0  0  0  0
 14 31  1  0  0  0  0
 17 18  2  0  0  0  0
 17 19  1  0  0  0  0
 18 21  1  0  0  0  0
 18 32  1  0  0  0  0
 19 22  2  0  0  0  0
 19 33  1  0  0  0  0
 20 21  2  0  0  0  0
 20 22  1  0  0  0  0
 21 34  1  0  0  0  0
 22 35  1  0  0  0  0
 23 36  1  0  0  0  0
 23 37  1  0  0  0  0
 23 38  1  0  0  0  0
M  END
> <PUBCHEM_COMPOUND_CID>
135753

> <PUBCHEM_CONFORMER_RMSD>
0.8

> <PUBCHEM_CONFORMER_DIVERSEORDER>
1
304
177
145
237
123
160
117
274
255
270
163
190
142
171
182
265
244
157
305
239
74
292
8
260
240
229
296
69
223
288
78
176
217
19
269
268
195
75
224
25
189
27
216
225
161
201
151
281
272
215
204
12
188
252
245
298
278
202
28
7
191
205
243
92
250
83
67
207
249
275
181
131
211
140
89
21
2
65
61
273
247
263
213
31
58
138
232
64
45
299
173
253
259
228
105
221
302
6
219
162
120
179
107
254
297
206
126
227
301
149
280
106
91
98
306
146
168
134
289
169
127
52
165
94
50
258
53
55
95
200
214
88
87
193
109
174
71
231
241
246
70
80
86
230
178
130
276
14
218
34
42
279
235
17
242
102
185
10
194
180
236
114
5
153
212
4
154
266
99
267
226
283
81
203
73
63
196
166
210
43
262
284
79
293
135
285
144
257
35
96
198
32
141
124
148
113
136
158
277
175
37
209
256
23
150
11
155
100
111
282
54
233
234
156
290
172
125
294
167
220
187
82
18
208
199
57
122
22
103
186
15
300
26
13
33
47
222
147
76
51
251
248
97
128
116
261
139
110
137
48
118
62
303
271
93
77
101
287
184
90
183
3
164
264
84
40
72
238
44
133
39
85
68
9
60
112
170
295
132
56
115
20
291
159
286
16
36
152
38
41
49
121
104
30
108
59
29
143
192
46
129
197
119
66
24

> <PUBCHEM_MMFF94_PARTIAL_CHARGES>
27
1 -0.33
10 0.06
11 0.57
12 0.57
13 0.06
14 0.06
15 0.66
16 0.66
17 0.08
18 -0.15
19 -0.15
2 -0.19
20 0.1
21 -0.15
22 -0.15
23 0.23
3 -0.57
32 0.15
33 0.15
34 0.15
35 0.15
4 -0.57
5 -0.23
6 -0.57
7 -0.57
8 -0.08
9 0.06

> <PUBCHEM_EFFECTIVE_ROTOR_COUNT>
8.6

> <PUBCHEM_PHARMACOPHORE_FEATURES>
7
1 23 hydrophobe
1 3 acceptor
1 4 acceptor
1 6 acceptor
1 7 acceptor
5 8 9 10 11 12 rings
6 17 18 19 20 21 22 rings

> <PUBCHEM_HEAVY_ATOM_COUNT>
23

> <PUBCHEM_ATOM_DEF_STEREO_COUNT>
0

> <PUBCHEM_ATOM_UDEF_STEREO_COUNT>
0

> <PUBCHEM_BOND_DEF_STEREO_COUNT>
0

> <PUBCHEM_BOND_UDEF_STEREO_COUNT>
0

> <PUBCHEM_ISOTOPIC_ATOM_COUNT>
0

> <PUBCHEM_COMPONENT_COUNT>
1

> <PUBCHEM_CACTVS_TAUTO_COUNT>
3

> <PUBCHEM_CONFORMER_ID>
0002124900000001

> <PUBCHEM_MMFF94_ENERGY>
52.1207

> <PUBCHEM_FEATURE_SELFOVERLAP>
35.523

> <PUBCHEM_SHAPE_FINGERPRINT>
10 15 18131630097551857742
10968037 39 15697998535474941949
11315181 36 18113623396109079909
11719270 70 18343584014959164822
12091667 2 18202563977984749367
12166972 35 13984666953702426390
12236239 1 18334298655935309734
125118 31 18343303661142998152
12516196 113 18202283597855687312
12596602 18 18410858745978837610
13073987 5 18342741767365708082
13533116 47 17895474722701670098
13885169 127 18261110742548377813
14251764 18 17458065971905125932
14251764 46 18260266347603798150
14461889 52 18411701019610655594
14598715 104 18130210584954362616
14849402 71 12966832576902380618
14933364 13 18408326574942301973
15183329 4 17967255273461891010
15716309 27 16805041826164101222
17093844 174 18335137588372390425
17844677 252 18409177614444005005
19489759 90 18334299756349010921
20281389 69 18131632279300428480
21130935 74 18338237068322396114
21150785 3 14045739335556834148
21315763 28 18334859428377319701
22224240 67 17989203759442079574
23035841 295 16442783526911013259
23081809 10 17385453132452122614
23402539 116 18113339713091879039
23536379 177 18334580122374833195
23559900 14 18335982082254510569
28498 318 13551464857057987002
29717793 49 11746935383184528738
300161 21 17988922267211373838
328311 84 10809344425614379960
34797466 226 15267348435763780920
4073 2 17677061242863773610
4340502 62 18410011044716905502
59755656 215 14201392772863409248
6438161 24 8070039861668840416

> <PUBCHEM_SHAPE_MULTIPOLES>
436.98
24.91
1.46
1.09
3.31
0.07
0.14
2.37
5.33
-1.08
0.18
1.1
0.1
1.11

> <PUBCHEM_SHAPE_SELFOVERLAP>
901.307

> <PUBCHEM_SHAPE_VOLUME>
252.9

> <PUBCHEM_COORDINATE_TYPE>
2
5
10

$$$$
