135771870
  -OEChem-03292013293D

 34 36  0     1  0  0  0  0  0999 V2000
   -1.8645   -0.4357    0.9645 O   0  0  0  0  0  0  0  0  0  0  0  0
   -4.3070    1.0142   -0.1954 O   0  0  0  0  0  0  0  0  0  0  0  0
   -2.3111   -3.1917    0.8106 O   0  0  0  0  0  0  0  0  0  0  0  0
    4.4746   -0.2251   -0.2545 O   0  0  0  0  0  0  0  0  0  0  0  0
    1.0875    4.1205    0.6800 O   0  5  0  0  0  0  0  0  0  0  0  0
   -0.7732    3.4737   -0.2887 O   0  0  0  0  0  0  0  0  0  0  0  0
    0.0850    0.7765    0.1241 N   0  0  0  0  0  0  0  0  0  0  0  0
    2.1536    1.6142   -0.0218 N   0  0  0  0  0  0  0  0  0  0  0  0
    0.5585   -1.5953    0.0266 N   0  0  0  0  0  0  0  0  0  0  0  0
    0.3783    3.2104    0.1627 N   0  3  0  0  0  0  0  0  0  0  0  0
    2.9175   -1.9636   -0.1727 N   0  0  0  0  0  0  0  0  0  0  0  0
    1.4195   -3.7780   -0.0956 N   0  0  0  0  0  0  0  0  0  0  0  0
   -1.4173    0.7291    0.2459 C   0  0  1  0  0  0  0  0  0  0  0  0
   -2.1260    0.6990   -1.1038 C   0  0  0  0  0  0  0  0  0  0  0  0
   -3.4372    0.0337   -0.7563 C   0  0  1  0  0  0  0  0  0  0  0  0
   -3.0375   -0.9699    0.3177 C   0  0  1  0  0  0  0  0  0  0  0  0
   -2.6777   -2.3339   -0.2557 C   0  0  0  0  0  0  0  0  0  0  0  0
    0.9242   -0.2943    0.0296 C   0  0  0  0  0  0  0  0  0  0  0  0
    0.8715    1.9021    0.0888 C   0  0  0  0  0  0  0  0  0  0  0  0
    2.1821    0.2514   -0.0582 C   0  0  0  0  0  0  0  0  0  0  0  0
    3.3186   -0.6202   -0.1715 C   0  0  0  0  0  0  0  0  0  0  0  0
    1.5805   -2.4169   -0.0764 C   0  0  0  0  0  0  0  0  0  0  0  0
   -1.7136    1.5848    0.8600 H   0  0  0  0  0  0  0  0  0  0  0  0
   -1.5704    0.0805   -1.8187 H   0  0  0  0  0  0  0  0  0  0  0  0
   -2.2431    1.6975   -1.5334 H   0  0  0  0  0  0  0  0  0  0  0  0
   -3.9398   -0.4096   -1.6207 H   0  0  0  0  0  0  0  0  0  0  0  0
   -3.8042   -1.0800    1.0927 H   0  0  0  0  0  0  0  0  0  0  0  0
   -1.8369   -2.2760   -0.9524 H   0  0  0  0  0  0  0  0  0  0  0  0
   -3.5365   -2.7724   -0.7740 H   0  0  0  0  0  0  0  0  0  0  0  0
   -5.1253    0.5594    0.0677 H   0  0  0  0  0  0  0  0  0  0  0  0
   -2.0887   -4.0545    0.4210 H   0  0  0  0  0  0  0  0  0  0  0  0
    3.6459   -2.6677   -0.2487 H   0  0  0  0  0  0  0  0  0  0  0  0
    0.4987   -4.1982   -0.0316 H   0  0  0  0  0  0  0  0  0  0  0  0
    2.2137   -4.4037   -0.1747 H   0  0  0  0  0  0  0  0  0  0  0  0
  1 13  1  0  0  0  0
  1 16  1  0  0  0  0
  2 15  1  0  0  0  0
  2 30  1  0  0  0  0
  3 17  1  0  0  0  0
  3 31  1  0  0  0  0
  4 21  2  0  0  0  0
  5 10  1  0  0  0  0
  6 10  2  0  0  0  0
  7 13  1  0  0  0  0
  7 18  1  0  0  0  0
  7 19  1  0  0  0  0
  8 19  2  0  0  0  0
  8 20  1  0  0  0  0
  9 18  1  0  0  0  0
  9 22  2  0  0  0  0
 10 19  1  0  0  0  0
 11 21  1  0  0  0  0
 11 22  1  0  0  0  0
 11 32  1  0  0  0  0
 12 22  1  0  0  0  0
 12 33  1  0  0  0  0
 12 34  1  0  0  0  0
 13 14  1  0  0  0  0
 13 23  1  0  0  0  0
 14 15  1  0  0  0  0
 14 24  1  0  0  0  0
 14 25  1  0  0  0  0
 15 16  1  0  0  0  0
 15 26  1  0  0  0  0
 16 17  1  0  0  0  0
 16 27  1  0  0  0  0
 17 28  1  0  0  0  0
 17 29  1  0  0  0  0
 18 20  2  0  0  0  0
 20 21  1  0  0  0  0
M  CHG  2   5  -1  10   1
M  END
> <PUBCHEM_COMPOUND_CID>
135771870

> <PUBCHEM_CONFORMER_RMSD>
0.6

> <PUBCHEM_CONFORMER_DIVERSEORDER>
1
22
20
9
13
8
21
7
3
15
14
19
16
17
4
12
6
18
10
5
11
2

> <PUBCHEM_MMFF94_PARTIAL_CHARGES>
26
1 -0.56
10 0.96
11 -0.49
12 -0.85
13 0.54
15 0.28
16 0.28
17 0.28
18 -0.03
19 0.27
2 -0.68
20 0.14
21 0.72
22 0.56
3 -0.68
30 0.4
31 0.4
32 0.37
33 0.4
34 0.4
4 -0.57
5 -0.52
6 -0.52
7 0.05
8 -0.57
9 -0.58

> <PUBCHEM_EFFECTIVE_ROTOR_COUNT>
4

> <PUBCHEM_PHARMACOPHORE_FEATURES>
14
1 1 acceptor
1 11 donor
1 12 donor
1 2 acceptor
1 2 donor
1 3 acceptor
1 3 donor
1 4 acceptor
1 5 acceptor
1 6 acceptor
4 7 8 10 19 cation
5 1 13 14 15 16 rings
5 7 8 18 19 20 rings
6 9 11 18 20 21 22 rings

> <PUBCHEM_HEAVY_ATOM_COUNT>
22

> <PUBCHEM_ATOM_DEF_STEREO_COUNT>
3

> <PUBCHEM_ATOM_UDEF_STEREO_COUNT>
0

> <PUBCHEM_BOND_DEF_STEREO_COUNT>
0

> <PUBCHEM_BOND_UDEF_STEREO_COUNT>
0

> <PUBCHEM_ISOTOPIC_ATOM_COUNT>
0

> <PUBCHEM_COMPONENT_COUNT>
1

> <PUBCHEM_CACTVS_TAUTO_COUNT>
-1

> <PUBCHEM_CONFORMER_ID>
0817B6DE00000001

> <PUBCHEM_MMFF94_ENERGY>
55.7715

> <PUBCHEM_FEATURE_SELFOVERLAP>
71.314

> <PUBCHEM_SHAPE_FINGERPRINT>
10967382 1 18410573946502059231
116883 192 17980761532553060150
12553582 1 18339644438520026514
12788726 201 18049718521017465336
13027679 85 18410857655099355165
13140716 1 18410850005862574594
14178342 30 18342169020586662313
1420 336 17544475254211599282
14790565 3 18339089301608833268
16945 1 18338240345334222810
193761 8 17547011192435125834
19591789 44 17905332076056404492
20645477 70 18048303742238385199
221490 88 18120660381278319114
2334 1 18194402418724538594
23557571 272 18129103312715697700
23558518 356 17545603357589333634
23559900 14 18268136734004267345
238 59 18050817173942199279
2748010 2 18265892651708716740
34934 24 18411131398913477706
350125 39 18049730920572172377
458136 41 17544495496656229025
7364860 26 18195807585905484345
81228 2 18047758091933236488
8809292 202 18333452062200031371
9709674 26 18193271025966338383

> <PUBCHEM_SHAPE_MULTIPOLES>
387.65
5.96
4.4
0.76
0.83
1.33
0.03
-1.93
0.7
-0.93
-0.58
0.36
0.01
0.63

> <PUBCHEM_SHAPE_SELFOVERLAP>
843.248

> <PUBCHEM_SHAPE_VOLUME>
207.4

> <PUBCHEM_COORDINATE_TYPE>
2
5
10

$$$$
