135767898
  -OEChem-03292013293D

 24 26  0     0  0  0  0  0  0999 V2000
    0.6326    1.2994    0.0003 S   0  0  0  0  0  0  0  0  0  0  0  0
   -2.0226   -2.1224   -0.0008 S   0  0  0  0  0  0  0  0  0  0  0  0
    5.8413    1.2232   -0.0017 O   0  0  0  0  0  0  0  0  0  0  0  0
   -4.3827    2.0922    0.0015 O   0  0  0  0  0  0  0  0  0  0  0  0
   -5.8877    0.3888   -0.0022 O   0  0  0  0  0  0  0  0  0  0  0  0
    0.8811   -1.2678    0.0002 N   0  0  0  0  0  0  0  0  0  0  0  0
   -2.2748    0.4503    0.0012 N   0  0  0  0  0  0  0  0  0  0  0  0
    2.2325    0.6565   -0.0001 C   0  0  0  0  0  0  0  0  0  0  0  0
    2.1641   -0.7400    0.0004 C   0  0  0  0  0  0  0  0  0  0  0  0
    0.0040   -0.2913    0.0009 C   0  0  0  0  0  0  0  0  0  0  0  0
   -1.3941   -0.5256    0.0006 C   0  0  0  0  0  0  0  0  0  0  0  0
    3.4598    1.3387   -0.0006 C   0  0  0  0  0  0  0  0  0  0  0  0
    3.3682   -1.4773    0.0008 C   0  0  0  0  0  0  0  0  0  0  0  0
    4.6365    0.5852   -0.0002 C   0  0  0  0  0  0  0  0  0  0  0  0
    4.5936   -0.8046    0.0005 C   0  0  0  0  0  0  0  0  0  0  0  0
   -3.5443   -0.0940    0.0005 C   0  0  0  0  0  0  0  0  0  0  0  0
   -3.6094   -1.4717   -0.0008 C   0  0  0  0  0  0  0  0  0  0  0  0
   -4.6982    0.7605   -0.0003 C   0  0  0  0  0  0  0  0  0  0  0  0
    3.4889    2.4245   -0.0012 H   0  0  0  0  0  0  0  0  0  0  0  0
    3.3461   -2.5635    0.0012 H   0  0  0  0  0  0  0  0  0  0  0  0
    5.5159   -1.3801    0.0006 H   0  0  0  0  0  0  0  0  0  0  0  0
   -4.4795   -2.1132   -0.0018 H   0  0  0  0  0  0  0  0  0  0  0  0
    5.6897    2.1840   -0.0024 H   0  0  0  0  0  0  0  0  0  0  0  0
   -5.1862    2.6551    0.0010 H   0  0  0  0  0  0  0  0  0  0  0  0
  1  8  1  0  0  0  0
  1 10  1  0  0  0  0
  2 11  1  0  0  0  0
  2 17  1  0  0  0  0
  3 14  1  0  0  0  0
  3 23  1  0  0  0  0
  4 18  1  0  0  0  0
  4 24  1  0  0  0  0
  5 18  2  0  0  0  0
  6  9  1  0  0  0  0
  6 10  2  0  0  0  0
  7 11  2  0  0  0  0
  7 16  1  0  0  0  0
  8  9  2  0  0  0  0
  8 12  1  0  0  0  0
  9 13  1  0  0  0  0
 10 11  1  0  0  0  0
 12 14  2  0  0  0  0
 12 19  1  0  0  0  0
 13 15  2  0  0  0  0
 13 20  1  0  0  0  0
 14 15  1  0  0  0  0
 15 21  1  0  0  0  0
 16 17  2  0  0  0  0
 16 18  1  0  0  0  0
 17 22  1  0  0  0  0
M  END
> <PUBCHEM_COMPOUND_CID>
135767898

> <PUBCHEM_CONFORMER_RMSD>
0.6

> <PUBCHEM_CONFORMER_DIVERSEORDER>
1
3
5
4
2

> <PUBCHEM_MMFF94_PARTIAL_CHARGES>
24
1 -0.08
10 0.38
11 0.38
12 -0.15
13 -0.15
14 0.08
15 -0.15
16 0.14
17 -0.11
18 0.81
19 0.15
2 -0.08
20 0.15
21 0.15
22 0.15
23 0.45
24 0.5
3 -0.53
4 -0.65
5 -0.57
6 -0.57
7 -0.57
8 0.04
9 0.23

> <PUBCHEM_EFFECTIVE_ROTOR_COUNT>
2

> <PUBCHEM_PHARMACOPHORE_FEATURES>
9
1 3 donor
1 4 acceptor
1 5 acceptor
1 6 acceptor
1 7 acceptor
3 4 5 18 anion
5 1 6 8 9 10 rings
5 2 7 11 16 17 rings
6 8 9 12 13 14 15 rings

> <PUBCHEM_HEAVY_ATOM_COUNT>
18

> <PUBCHEM_ATOM_DEF_STEREO_COUNT>
0

> <PUBCHEM_ATOM_UDEF_STEREO_COUNT>
0

> <PUBCHEM_BOND_DEF_STEREO_COUNT>
0

> <PUBCHEM_BOND_UDEF_STEREO_COUNT>
0

> <PUBCHEM_ISOTOPIC_ATOM_COUNT>
0

> <PUBCHEM_COMPONENT_COUNT>
1

> <PUBCHEM_CACTVS_TAUTO_COUNT>
-1

> <PUBCHEM_CONFORMER_ID>
0817A75A00000001

> <PUBCHEM_MMFF94_ENERGY>
26.7656

> <PUBCHEM_FEATURE_SELFOVERLAP>
45.808

> <PUBCHEM_SHAPE_FINGERPRINT>
10014705 185 18408884044775753903
10366900 7 16343705430273230258
11089746 13 17775277287994259520
11401426 45 18411698802747640698
11471102 20 18412262835618389558
12107183 9 17762336912050013699
12236239 1 17988924465881149223
12500047 106 18342453785329213395
12916748 109 18410017615657646097
13167823 11 18410008861987295754
13533116 47 17774723060840107702
13675066 3 18113907065028108347
13760787 19 18410855486230677742
14341114 176 18409454673745591585
15048467 5 18408323311131192796
15196674 1 18410855477413857314
15242433 33 18410575089190362694
15375358 24 18343586230639673231
1601671 61 18410292527908861508
17834072 33 18273210919667737351
17834072 8 18343589525353972806
1813 80 16732706034362471254
18186145 218 17821721745530395094
19141452 34 18408885156966808807
200 152 17918272069479113751
20281389 69 18260264140054353237
20645477 56 18408885152998603049
20645477 70 18201441324699207966
21065198 57 18410012177823185762
21267235 1 18410583893762712083
21279426 13 18196091045062043156
212847 35 18342174458025840664
21421861 104 17822842062549459458
21452121 103 18200582709814107272
23402539 116 18272364295555990463
23402655 69 18413387653003654094
23559900 14 18272647987179216928
29717793 49 17418100888761757588
300161 21 18412257354897247978
3004659 81 18335704902060479382
335352 9 18410856543251536382
34797466 226 17417819486393679188
34934 24 18411133654161652770
3545911 37 18412265047020196761
4073 2 18041002890535430314
4214541 1 18410573998352890115
42788 4 18410856551049854983
474 4 17822296820176376148
495365 180 17418080053759457706
5104073 3 18408885152518796442
542803 24 18411135839893493222
543358 83 18410014312775125954
59755656 215 18341338799635766926
633830 44 17749107833174207810
77779 3 18410293631256410126
8272917 22 18342460292468664558
9709674 26 18411987987207271094

> <PUBCHEM_SHAPE_MULTIPOLES>
350.56
12.22
1.89
0.6
1.45
0.19
0
-3.56
0
0.62
0
-0.02
0.02
0

> <PUBCHEM_SHAPE_SELFOVERLAP>
755.208

> <PUBCHEM_SHAPE_VOLUME>
194.6

> <PUBCHEM_COORDINATE_TYPE>
2
5
10

$$$$
