135783055
  -OEChem-03292013293D

 40 42  0     1  0  0  0  0  0999 V2000
    3.7372    1.7458    0.9245 P   0  0  0  0  0  0  0  0  0  0  0  0
    1.1328   -1.2744   -1.9502 O   0  0  0  0  0  0  0  0  0  0  0  0
    3.6484    0.3815    0.0708 O   0  0  0  0  0  0  0  0  0  0  0  0
    4.0441   -2.7175   -0.3431 O   0  0  0  0  0  0  0  0  0  0  0  0
   -4.6511   -0.6864    1.7090 O   0  0  0  0  0  0  0  0  0  0  0  0
    5.2086    1.6641    1.5922 O   0  0  0  0  0  0  0  0  0  0  0  0
    2.7579    1.4892    2.1867 O   0  0  0  0  0  0  0  0  0  0  0  0
    3.4697    3.0158    0.1707 O   0  0  0  0  0  0  0  0  0  0  0  0
   -0.7294   -0.5586   -0.6598 N   0  0  3  0  0  0  0  0  0  0  0  0
   -1.9447   -1.6500    0.9261 N   0  0  3  0  0  0  0  0  0  0  0  0
   -2.4108    1.2488   -1.1250 N   0  0  0  0  0  0  0  0  0  0  0  0
   -4.3740    1.0324    0.1798 N   0  0  0  0  0  0  0  0  0  0  0  0
   -4.1583    2.7973   -1.3409 N   0  0  0  0  0  0  0  0  0  0  0  0
    0.3995   -0.1362   -1.4461 C   0  0  1  0  0  0  0  0  0  0  0  0
   -0.6386   -1.7031    0.2601 C   0  0  0  0  0  0  0  0  0  0  0  0
   -1.9513    0.1170   -0.4969 C   0  0  0  0  0  0  0  0  0  0  0  0
    2.4653   -1.2585   -1.3853 C   0  0  1  0  0  0  0  0  0  0  0  0
   -2.6475   -0.5594    0.4434 C   0  0  0  0  0  0  0  0  0  0  0  0
    1.3527    0.6247   -0.5982 C   0  0  0  0  0  0  0  0  0  0  0  0
    2.5169   -0.0201   -0.5732 C   0  0  0  0  0  0  0  0  0  0  0  0
    2.6582   -2.5312   -0.5754 C   0  0  0  0  0  0  0  0  0  0  0  0
   -2.3080   -2.5903    1.9513 C   0  0  0  0  0  0  0  0  0  0  0  0
   -3.9815   -0.1107    0.8610 C   0  0  0  0  0  0  0  0  0  0  0  0
   -3.5963    1.6797   -0.7814 C   0  0  0  0  0  0  0  0  0  0  0  0
    0.0828    0.4586   -2.3098 H   0  0  0  0  0  0  0  0  0  0  0  0
    0.1591   -1.5642    0.9957 H   0  0  0  0  0  0  0  0  0  0  0  0
   -0.5155   -2.6450   -0.2840 H   0  0  0  0  0  0  0  0  0  0  0  0
    3.1821   -1.2042   -2.2123 H   0  0  0  0  0  0  0  0  0  0  0  0
    1.1181    1.5571   -0.1083 H   0  0  0  0  0  0  0  0  0  0  0  0
    2.2769   -3.3988   -1.1249 H   0  0  0  0  0  0  0  0  0  0  0  0
    2.1450   -2.4951    0.3897 H   0  0  0  0  0  0  0  0  0  0  0  0
   -1.5414   -3.3633    2.0694 H   0  0  0  0  0  0  0  0  0  0  0  0
   -3.2487   -3.0908    1.7009 H   0  0  0  0  0  0  0  0  0  0  0  0
   -2.4248   -2.0833    2.9143 H   0  0  0  0  0  0  0  0  0  0  0  0
   -5.2859    1.4238    0.3972 H   0  0  0  0  0  0  0  0  0  0  0  0
    4.1412   -3.5410    0.1648 H   0  0  0  0  0  0  0  0  0  0  0  0
   -3.6677    3.3336   -2.0483 H   0  0  0  0  0  0  0  0  0  0  0  0
   -5.0790    3.1210   -1.0653 H   0  0  0  0  0  0  0  0  0  0  0  0
    5.5457    2.4374    2.0927 H   0  0  0  0  0  0  0  0  0  0  0  0
    2.5987    2.2214    2.8197 H   0  0  0  0  0  0  0  0  0  0  0  0
  1  3  1  0  0  0  0
  1  6  1  0  0  0  0
  1  7  1  0  0  0  0
  1  8  2  0  0  0  0
  2 14  1  0  0  0  0
  2 17  1  0  0  0  0
  3 20  1  0  0  0  0
  4 21  1  0  0  0  0
  4 36  1  0  0  0  0
  5 23  2  0  0  0  0
  6 39  1  0  0  0  0
  7 40  1  0  0  0  0
  9 14  1  0  0  0  0
  9 15  1  0  0  0  0
  9 16  1  0  0  0  0
 10 15  1  0  0  0  0
 10 18  1  0  0  0  0
 10 22  1  0  0  0  0
 11 16  1  0  0  0  0
 11 24  2  0  0  0  0
 12 23  1  0  0  0  0
 12 24  1  0  0  0  0
 12 35  1  0  0  0  0
 13 24  1  0  0  0  0
 13 37  1  0  0  0  0
 13 38  1  0  0  0  0
 14 19  1  0  0  0  0
 14 25  1  0  0  0  0
 15 26  1  0  0  0  0
 15 27  1  0  0  0  0
 16 18  2  0  0  0  0
 17 20  1  0  0  0  0
 17 21  1  0  0  0  0
 17 28  1  0  0  0  0
 18 23  1  0  0  0  0
 19 20  2  0  0  0  0
 19 29  1  0  0  0  0
 21 30  1  0  0  0  0
 21 31  1  0  0  0  0
 22 32  1  0  0  0  0
 22 33  1  0  0  0  0
 22 34  1  0  0  0  0
M  END
> <PUBCHEM_COMPOUND_CID>
135783055

> <PUBCHEM_CONFORMER_RMSD>
0.8

> <PUBCHEM_CONFORMER_DIVERSEORDER>
1
17
7
18
22
9
4
23
11
6
15
14
20
5
25
16
24
12
3
8
21
10
19
13
2

> <PUBCHEM_MMFF94_PARTIAL_CHARGES>
31
1 1.51
10 -0.84
11 -0.62
12 -0.49
13 -0.85
14 0.79
15 0.74
16 0.27
17 0.42
18 0.11
19 -0.29
2 -0.56
20 -0.06
21 0.28
22 0.37
23 0.62
24 0.56
29 0.15
3 -0.35
35 0.37
36 0.4
37 0.4
38 0.4
39 0.5
4 -0.68
40 0.5
5 -0.57
6 -0.77
7 -0.77
8 -0.7
9 -0.84

> <PUBCHEM_EFFECTIVE_ROTOR_COUNT>
5.2

> <PUBCHEM_PHARMACOPHORE_FEATURES>
15
1 10 cation
1 12 donor
1 13 donor
1 2 acceptor
1 4 acceptor
1 4 donor
1 5 acceptor
1 6 acceptor
1 7 acceptor
1 8 acceptor
1 9 cation
4 1 6 7 8 anion
5 2 14 17 19 20 rings
5 9 10 15 16 18 rings
6 11 12 16 18 23 24 rings

> <PUBCHEM_HEAVY_ATOM_COUNT>
24

> <PUBCHEM_ATOM_DEF_STEREO_COUNT>
2

> <PUBCHEM_ATOM_UDEF_STEREO_COUNT>
0

> <PUBCHEM_BOND_DEF_STEREO_COUNT>
0

> <PUBCHEM_BOND_UDEF_STEREO_COUNT>
0

> <PUBCHEM_ISOTOPIC_ATOM_COUNT>
0

> <PUBCHEM_COMPONENT_COUNT>
1

> <PUBCHEM_CACTVS_TAUTO_COUNT>
-1

> <PUBCHEM_CONFORMER_ID>
0817E28F00000001

> <PUBCHEM_MMFF94_ENERGY>
38.7946

> <PUBCHEM_FEATURE_SELFOVERLAP>
76.358

> <PUBCHEM_SHAPE_FINGERPRINT>
10319926 262 18187359931180045250
10366900 7 18339366390942886502
1100329 8 16245183342889322375
11595378 159 17095524032141885716
11640471 11 16559029410958683700
11725454 13 18341879776103718693
12403259 415 18336554815620971853
12507560 40 18335424543020690590
12549972 3 18262247629087273562
12553582 1 17322144524499714675
12596602 18 16660924499179227297
12633257 1 18042115613065786232
12788726 201 17401211075915943534
12892183 10 17822284729875112664
13134695 92 17915176815461267950
13140716 1 17534060770969004491
13583140 156 18412827984004638702
13675066 3 18334300838026726487
14178342 30 17895195557731809154
14251764 38 18271523079115018105
14341114 328 17386846304317288204
14866123 147 15961468639666626606
15295992 7 18267031565719920121
1813 80 14707480357489663402
18219364 16 17773877682532439104
19049666 15 18337115566060468702
192875 21 16916501437317167298
19784866 170 18410575136862439908
20681677 76 18341892995696622687
20832881 197 17905044755397186310
21033648 29 18187928326915127509
21065199 12 18335144201925797843
21065201 7 17749116539078009783
212916 134 17968089773213459165
21756936 100 17907014333669760124
23175994 123 18055925285752825926
23558518 356 18128267696125764793
23559900 14 18188780435441213838
268830 7 17774734069173181547
2838139 119 14979107146216221952
474 4 17132117973984581072
49207404 50 18338803424052312468
495365 180 18272079453409549630
5104073 3 18337962190572921995
57724786 102 17988653990542868616
7970288 3 13623792930877955112
90316 7 16660358169513617757
9709674 26 18334584559218903687
9981440 41 18199166538183046490

> <PUBCHEM_SHAPE_MULTIPOLES>
431.77
9.61
3.05
1.77
0
0.01
-0.44
4.28
-3.19
-1.26
-0.3
-0.26
-0.06
3.63

> <PUBCHEM_SHAPE_SELFOVERLAP>
909.765

> <PUBCHEM_SHAPE_VOLUME>
245.2

> <PUBCHEM_COORDINATE_TYPE>
2
5
10

$$$$
