135777634
  -OEChem-03292013293D

 26 27  0     1  0  0  0  0  0999 V2000
   -3.4637   -0.5668    1.2213 O   0  0  0  0  0  0  0  0  0  0  0  0
   -0.1747    2.1886   -0.4896 O   0  0  0  0  0  0  0  0  0  0  0  0
   -0.9104   -0.7524   -0.4884 N   0  0  0  0  0  0  0  0  0  0  0  0
    0.5833   -2.3576   -0.0828 N   0  0  0  0  0  0  0  0  0  0  0  0
    1.9604    1.4432    0.0102 N   0  0  0  0  0  0  0  0  0  0  0  0
    2.5376   -0.8734    0.2578 N   0  0  0  0  0  0  0  0  0  0  0  0
    4.1539    0.8004    0.5153 N   0  0  0  0  0  0  0  0  0  0  0  0
   -2.1829   -0.1438   -0.7931 C   0  0  0  0  0  0  0  0  0  0  0  0
   -2.8471    0.4619    0.4488 C   0  0  1  0  0  0  0  0  0  0  0  0
    0.2784   -0.1208   -0.2675 C   0  0  0  0  0  0  0  0  0  0  0  0
    1.1824   -1.1273   -0.0198 C   0  0  0  0  0  0  0  0  0  0  0  0
   -0.6762   -2.0973   -0.3662 C   0  0  0  0  0  0  0  0  0  0  0  0
    0.6062    1.2685   -0.2716 C   0  0  0  0  0  0  0  0  0  0  0  0
   -3.9146    1.4788    0.0647 C   0  0  0  0  0  0  0  0  0  0  0  0
    2.8674    0.3980    0.2609 C   0  0  0  0  0  0  0  0  0  0  0  0
   -1.9947    0.6157   -1.5602 H   0  0  0  0  0  0  0  0  0  0  0  0
   -2.8222   -0.9154   -1.2385 H   0  0  0  0  0  0  0  0  0  0  0  0
   -2.1066    0.9517    1.0908 H   0  0  0  0  0  0  0  0  0  0  0  0
   -1.4563   -2.8359   -0.4921 H   0  0  0  0  0  0  0  0  0  0  0  0
   -4.7058    1.0085   -0.5295 H   0  0  0  0  0  0  0  0  0  0  0  0
   -4.3948    1.8896    0.9594 H   0  0  0  0  0  0  0  0  0  0  0  0
   -3.4873    2.3061   -0.5101 H   0  0  0  0  0  0  0  0  0  0  0  0
    2.3166    2.3942    0.0357 H   0  0  0  0  0  0  0  0  0  0  0  0
   -3.8558   -0.1496    2.0073 H   0  0  0  0  0  0  0  0  0  0  0  0
    4.8863    0.1259    0.7084 H   0  0  0  0  0  0  0  0  0  0  0  0
    4.4108    1.7815    0.5179 H   0  0  0  0  0  0  0  0  0  0  0  0
  1  9  1  0  0  0  0
  1 24  1  0  0  0  0
  2 13  2  0  0  0  0
  3  8  1  0  0  0  0
  3 10  1  0  0  0  0
  3 12  1  0  0  0  0
  4 11  1  0  0  0  0
  4 12  2  0  0  0  0
  5 13  1  0  0  0  0
  5 15  1  0  0  0  0
  5 23  1  0  0  0  0
  6 11  1  0  0  0  0
  6 15  2  0  0  0  0
  7 15  1  0  0  0  0
  7 25  1  0  0  0  0
  7 26  1  0  0  0  0
  8  9  1  0  0  0  0
  8 16  1  0  0  0  0
  8 17  1  0  0  0  0
  9 14  1  0  0  0  0
  9 18  1  0  0  0  0
 10 11  2  0  0  0  0
 10 13  1  0  0  0  0
 12 19  1  0  0  0  0
 14 20  1  0  0  0  0
 14 21  1  0  0  0  0
 14 22  1  0  0  0  0
M  END
> <PUBCHEM_COMPOUND_CID>
135777634

> <PUBCHEM_CONFORMER_RMSD>
0.6

> <PUBCHEM_CONFORMER_DIVERSEORDER>
1
7
6
5
2
4
3

> <PUBCHEM_MMFF94_PARTIAL_CHARGES>
19
1 -0.68
10 -0.24
11 0.35
12 0.04
13 0.71
15 0.56
19 0.15
2 -0.57
23 0.37
24 0.4
25 0.4
26 0.4
3 0.05
4 -0.57
5 -0.49
6 -0.57
7 -0.85
8 0.26
9 0.28

> <PUBCHEM_EFFECTIVE_ROTOR_COUNT>
2

> <PUBCHEM_PHARMACOPHORE_FEATURES>
8
1 1 acceptor
1 1 donor
1 2 acceptor
1 5 donor
1 7 donor
3 3 4 12 cation
5 3 4 10 11 12 rings
6 5 6 10 11 13 15 rings

> <PUBCHEM_HEAVY_ATOM_COUNT>
15

> <PUBCHEM_ATOM_DEF_STEREO_COUNT>
0

> <PUBCHEM_ATOM_UDEF_STEREO_COUNT>
1

> <PUBCHEM_BOND_DEF_STEREO_COUNT>
0

> <PUBCHEM_BOND_UDEF_STEREO_COUNT>
0

> <PUBCHEM_ISOTOPIC_ATOM_COUNT>
0

> <PUBCHEM_COMPONENT_COUNT>
1

> <PUBCHEM_CACTVS_TAUTO_COUNT>
-1

> <PUBCHEM_CONFORMER_ID>
0817CD6200000001

> <PUBCHEM_MMFF94_ENERGY>
25.4047

> <PUBCHEM_FEATURE_SELFOVERLAP>
40.766

> <PUBCHEM_SHAPE_FINGERPRINT>
10219947 1 18410012113382520679
10465860 228 18127982914239766521
10967382 1 18339075986734442236
10980938 120 18410294674991387943
11132069 177 18271516555232963080
11471102 20 18338509734146472669
11471102 22 18261970603791315051
12251169 10 18261117421591866291
12382932 28 18411134744671577643
12491281 212 18340205296987807634
12696612 119 18335148634590432389
13172582 1 18408318912667703420
15309172 13 18409727378393783043
15775835 57 18060699481420718561
161256 15 18125165926652378078
16945 1 18409719664975436966
17844478 74 17749105586637182973
18186145 218 17989216940174126918
18534176 82 14333123117840768991
193761 8 17689432006885081292
21256008 23 18334862739913246872
21501502 16 17976821213850003628
21524375 3 18272652397947034375
2334 1 17905038515009814524
23463225 33 18334856112757532116
23493267 7 17386835123984225004
2748010 2 18049710829089649894
305870 269 18412262805179305939
528886 8 18411691106345672354
53812653 166 18341890788067659976
63268167 104 18271805692299370089

> <PUBCHEM_SHAPE_MULTIPOLES>
272.05
5.8
2.15
0.79
1.05
0.45
0.06
-2.39
1.63
-0.07
-0.22
0.39
0.03
0.1

> <PUBCHEM_SHAPE_SELFOVERLAP>
580.493

> <PUBCHEM_SHAPE_VOLUME>
151.2

> <PUBCHEM_COORDINATE_TYPE>
2
5
10

$$$$
