135765000
  -OEChem-03292013293D

 49 51  0     1  0  0  0  0  0999 V2000
    7.7443    1.4974   -1.4234 O   0  0  0  0  0  0  0  0  0  0  0  0
    4.0552    1.5857    2.0106 O   0  0  0  0  0  0  0  0  0  0  0  0
    5.7217    1.4098   -2.4487 O   0  0  0  0  0  0  0  0  0  0  0  0
    6.5372   -4.0340   -0.7074 O   0  0  0  0  0  0  0  0  0  0  0  0
    7.3915   -3.0800    1.1654 O   0  0  0  0  0  0  0  0  0  0  0  0
   -6.1949   -3.0120    0.2117 O   0  0  0  0  0  0  0  0  0  0  0  0
    4.4424    0.8469   -0.1535 N   0  0  0  0  0  0  0  0  0  0  0  0
   -1.9701    0.8641    0.0529 N   0  0  0  0  0  0  0  0  0  0  0  0
   -4.8688   -0.6522    0.4786 N   0  0  0  0  0  0  0  0  0  0  0  0
   -6.2320    1.6780   -0.3123 N   0  0  0  0  0  0  0  0  0  0  0  0
   -8.0601   -1.9325   -0.6408 N   0  0  0  0  0  0  0  0  0  0  0  0
   -8.1172    0.4196   -0.9187 N   0  0  0  0  0  0  0  0  0  0  0  0
    5.8816    0.8581   -0.0819 C   0  0  1  0  0  0  0  0  0  0  0  0
    6.4592   -0.4658    0.4329 C   0  0  0  0  0  0  0  0  0  0  0  0
    6.1820   -1.6991   -0.4361 C   0  0  0  0  0  0  0  0  0  0  0  0
    3.6384    1.2174    0.9156 C   0  0  0  0  0  0  0  0  0  0  0  0
    2.1729    1.1259    0.6903 C   0  0  0  0  0  0  0  0  0  0  0  0
    6.4054    1.2657   -1.4436 C   0  0  0  0  0  0  0  0  0  0  0  0
   -0.5791    0.9516    0.2676 C   0  0  0  0  0  0  0  0  0  0  0  0
   -2.9079    0.6516    1.1118 C   0  0  0  0  0  0  0  0  0  0  0  0
    1.3133    0.9168    1.7689 C   0  0  0  0  0  0  0  0  0  0  0  0
    1.6562    1.2480   -0.5995 C   0  0  0  0  0  0  0  0  0  0  0  0
   -0.0626    0.8295    1.5576 C   0  0  0  0  0  0  0  0  0  0  0  0
    0.2802    1.1607   -0.8110 C   0  0  0  0  0  0  0  0  0  0  0  0
    6.7622   -2.9809    0.1213 C   0  0  0  0  0  0  0  0  0  0  0  0
   -4.3071    0.5684    0.5681 C   0  0  0  0  0  0  0  0  0  0  0  0
   -6.1224   -0.6748   -0.0138 C   0  0  0  0  0  0  0  0  0  0  0  0
   -4.9753    1.7107    0.1804 C   0  0  0  0  0  0  0  0  0  0  0  0
   -6.8084    0.4622   -0.4078 C   0  0  0  0  0  0  0  0  0  0  0  0
   -6.7743   -1.9882   -0.1282 C   0  0  0  0  0  0  0  0  0  0  0  0
   -8.6638   -0.7484   -1.0070 C   0  0  0  0  0  0  0  0  0  0  0  0
    6.1672    1.6574    0.6139 H   0  0  0  0  0  0  0  0  0  0  0  0
    7.5461   -0.3608    0.5472 H   0  0  0  0  0  0  0  0  0  0  0  0
    6.0680   -0.6554    1.4414 H   0  0  0  0  0  0  0  0  0  0  0  0
    6.6108   -1.5482   -1.4330 H   0  0  0  0  0  0  0  0  0  0  0  0
    5.1007   -1.8441   -0.5364 H   0  0  0  0  0  0  0  0  0  0  0  0
    4.0270    0.4751   -1.0013 H   0  0  0  0  0  0  0  0  0  0  0  0
   -2.8673    1.4635    1.8487 H   0  0  0  0  0  0  0  0  0  0  0  0
   -2.6885   -0.2855    1.6389 H   0  0  0  0  0  0  0  0  0  0  0  0
    1.6973    0.8148    2.7806 H   0  0  0  0  0  0  0  0  0  0  0  0
    2.2866    1.4426   -1.4621 H   0  0  0  0  0  0  0  0  0  0  0  0
   -2.2958    0.9551   -0.9035 H   0  0  0  0  0  0  0  0  0  0  0  0
   -0.6953    0.6664    2.4248 H   0  0  0  0  0  0  0  0  0  0  0  0
   -0.1107    1.2644   -1.8200 H   0  0  0  0  0  0  0  0  0  0  0  0
   -4.5287    2.6958    0.2500 H   0  0  0  0  0  0  0  0  0  0  0  0
    8.0800    1.7766   -2.3019 H   0  0  0  0  0  0  0  0  0  0  0  0
    6.9277   -4.8635   -0.3583 H   0  0  0  0  0  0  0  0  0  0  0  0
   -8.5757   -2.8009   -0.7495 H   0  0  0  0  0  0  0  0  0  0  0  0
   -9.6851   -0.8815   -1.3947 H   0  0  0  0  0  0  0  0  0  0  0  0
  1 18  1  0  0  0  0
  1 46  1  0  0  0  0
  2 16  2  0  0  0  0
  3 18  2  0  0  0  0
  4 25  1  0  0  0  0
  4 47  1  0  0  0  0
  5 25  2  0  0  0  0
  6 30  2  0  0  0  0
  7 13  1  0  0  0  0
  7 16  1  0  0  0  0
  7 37  1  0  0  0  0
  8 19  1  0  0  0  0
  8 20  1  0  0  0  0
  8 42  1  0  0  0  0
  9 26  1  0  0  0  0
  9 27  2  0  0  0  0
 10 28  1  0  0  0  0
 10 29  2  0  0  0  0
 11 30  1  0  0  0  0
 11 31  1  0  0  0  0
 11 48  1  0  0  0  0
 12 29  1  0  0  0  0
 12 31  2  0  0  0  0
 13 14  1  0  0  0  0
 13 18  1  0  0  0  0
 13 32  1  0  0  0  0
 14 15  1  0  0  0  0
 14 33  1  0  0  0  0
 14 34  1  0  0  0  0
 15 25  1  0  0  0  0
 15 35  1  0  0  0  0
 15 36  1  0  0  0  0
 16 17  1  0  0  0  0
 17 21  2  0  0  0  0
 17 22  1  0  0  0  0
 19 23  2  0  0  0  0
 19 24  1  0  0  0  0
 20 26  1  0  0  0  0
 20 38  1  0  0  0  0
 20 39  1  0  0  0  0
 21 23  1  0  0  0  0
 21 40  1  0  0  0  0
 22 24  2  0  0  0  0
 22 41  1  0  0  0  0
 23 43  1  0  0  0  0
 24 44  1  0  0  0  0
 26 28  2  0  0  0  0
 27 29  1  0  0  0  0
 27 30  1  0  0  0  0
 28 45  1  0  0  0  0
 31 49  1  0  0  0  0
M  END
> <PUBCHEM_COMPOUND_CID>
135765000

> <PUBCHEM_CONFORMER_RMSD>
1

> <PUBCHEM_CONFORMER_DIVERSEORDER>
1
43
31
6
66
76
78
41
74
65
38
56
77
42
75
57
52
35
40
81
29
59
55
24
47
49
51
44
80
39
60
79
58
23
46
72
50
70
20
53
48
73
9
26
17
37
7
11
15
22
21
61
69
32
45
19
28
30
68
34
10
16
67
64
8
71
63
25
36
27
62
2
33
13
5
14
18
82
4
12
54
3

> <PUBCHEM_MMFF94_PARTIAL_CHARGES>
41
1 -0.65
10 -0.62
11 -0.49
12 -0.63
13 0.36
15 0.06
16 0.54
17 0.09
18 0.66
19 0.1
2 -0.57
20 0.51
21 -0.15
22 -0.15
23 -0.15
24 -0.15
25 0.66
26 0.17
27 0.4
28 0.16
29 0.49
3 -0.57
30 0.54
31 0.45
37 0.37
4 -0.65
40 0.15
41 0.15
42 0.4
43 0.15
44 0.15
45 0.15
46 0.5
47 0.5
48 0.37
49 0.06
5 -0.57
6 -0.57
7 -0.73
8 -0.87
9 -0.62

> <PUBCHEM_EFFECTIVE_ROTOR_COUNT>
10

> <PUBCHEM_PHARMACOPHORE_FEATURES>
17
1 1 acceptor
1 11 donor
1 2 acceptor
1 3 acceptor
1 4 acceptor
1 5 acceptor
1 6 acceptor
1 7 donor
1 8 cation
1 8 donor
1 9 acceptor
3 1 3 18 anion
3 10 12 29 cation
3 4 5 25 anion
6 11 12 27 29 30 31 rings
6 17 19 21 22 23 24 rings
6 9 10 26 27 28 29 rings

> <PUBCHEM_HEAVY_ATOM_COUNT>
31

> <PUBCHEM_ATOM_DEF_STEREO_COUNT>
1

> <PUBCHEM_ATOM_UDEF_STEREO_COUNT>
0

> <PUBCHEM_BOND_DEF_STEREO_COUNT>
0

> <PUBCHEM_BOND_UDEF_STEREO_COUNT>
0

> <PUBCHEM_ISOTOPIC_ATOM_COUNT>
0

> <PUBCHEM_COMPONENT_COUNT>
1

> <PUBCHEM_CACTVS_TAUTO_COUNT>
-1

> <PUBCHEM_CONFORMER_ID>
08179C0800000001

> <PUBCHEM_MMFF94_ENERGY>
82.434

> <PUBCHEM_FEATURE_SELFOVERLAP>
86.441

> <PUBCHEM_SHAPE_FINGERPRINT>
10049733 168 17130993053911584222
10066227 49 18340767052935526499
10816530 90 12179848307996393654
11386260 185 17530972397568167804
11408170 132 16154257317738608213
11456790 92 10303821939232524798
12082328 90 18410290303347995557
125118 31 8286201652016704326
12522641 33 17895201035154430612
12539765 74 11241969248426221328
13782708 43 18131350803970394128
14849402 71 10879693404031307971
15131766 46 10738158787806464922
15183329 4 17603579751556441281
15198563 99 16515962554185184732
15352257 5 18413389838925996167
15475509 35 18059849546606884442
16994733 274 9079107856506113334
17134984 74 18201725059598381558
1754908 1 13038902253141370855
19841028 212 18268429024242263106
2026 5 18269834229281231719
21150785 3 17967813885699193173
21267235 1 15984833644251250296
21424621 283 10375870787999898589
21792934 111 13901911090098490897
23522609 53 18124910947746661440
23559900 14 18195233642017681009
23569943 247 18194402186876083002
23576562 1 16371578149517646167
33532 11 18342172258691452514
3383291 50 16559033804863462215
3711267 37 12757151255530220710
444735 82 9367338258670650610
504579 68 17531242885796702389
5470011 282 18187930615905498661
5718773 13 18343018857043847994
59682541 52 18261397767245736300
636775 72 10809884282526423767
9831232 110 18265050241825615862

> <PUBCHEM_SHAPE_MULTIPOLES>
572.86
30.04
3
1.46
16.66
4.03
-0.08
17.32
-9.61
-4.64
-0.04
-2.18
-0.64
-1.43

> <PUBCHEM_SHAPE_SELFOVERLAP>
1227.811

> <PUBCHEM_SHAPE_VOLUME>
311.4

> <PUBCHEM_COORDINATE_TYPE>
2
5
10

$$$$
