135783053
  -OEChem-03292013293D

 30 33  0     1  0  0  0  0  0999 V2000
   -2.3953    0.5256    1.2582 O   0  0  0  0  0  0  0  0  0  0  0  0
   -4.3803    1.2709   -0.9772 O   0  0  0  0  0  0  0  0  0  0  0  0
   -2.1649   -2.4062    1.1061 O   0  0  0  0  0  0  0  0  0  0  0  0
    3.3549   -2.1778   -0.7079 O   0  0  0  0  0  0  0  0  0  0  0  0
   -0.3220    0.2358    0.2608 N   0  0  0  0  0  0  0  0  0  0  0  0
    0.4423   -1.7783   -0.3206 N   0  0  0  0  0  0  0  0  0  0  0  0
    1.7436    1.5022    0.3646 N   0  0  0  0  0  0  0  0  0  0  0  0
    3.5958    0.0822   -0.1736 N   0  0  0  0  0  0  0  0  0  0  0  0
    3.9339    2.3519    0.3486 N   0  0  0  0  0  0  0  0  0  0  0  0
   -3.0111   -0.3063    0.2394 C   0  0  1  0  0  0  0  0  0  0  0  0
   -1.3479    1.2208    0.5521 C   0  0  1  0  0  0  0  0  0  0  0  0
   -3.1058    0.6341   -0.9664 C   0  0  2  0  0  0  0  0  0  0  0  0
   -2.0375    1.6992   -0.7175 C   0  0  0  0  0  0  0  0  0  0  0  0
   -2.0651   -1.5072    0.0056 C   0  0  1  0  0  0  0  0  0  0  0  0
   -0.6374   -1.0739   -0.0392 C   0  0  0  0  0  0  0  0  0  0  0  0
    1.0239    0.3753    0.1625 C   0  0  0  0  0  0  0  0  0  0  0  0
    1.4654   -0.8794   -0.1941 C   0  0  0  0  0  0  0  0  0  0  0  0
    2.8721   -1.0980   -0.3911 C   0  0  0  0  0  0  0  0  0  0  0  0
    3.0353    1.3290    0.1897 C   0  0  0  0  0  0  0  0  0  0  0  0
   -3.9894   -0.6307    0.6090 H   0  0  0  0  0  0  0  0  0  0  0  0
   -0.9267    2.0181    1.1698 H   0  0  0  0  0  0  0  0  0  0  0  0
   -2.9844    0.1113   -1.9200 H   0  0  0  0  0  0  0  0  0  0  0  0
   -1.3452    1.7948   -1.5607 H   0  0  0  0  0  0  0  0  0  0  0  0
   -2.4962    2.6802   -0.5467 H   0  0  0  0  0  0  0  0  0  0  0  0
   -2.3343   -2.0524   -0.9048 H   0  0  0  0  0  0  0  0  0  0  0  0
   -4.3943    1.8803   -1.7351 H   0  0  0  0  0  0  0  0  0  0  0  0
   -3.0857   -2.7164    1.1474 H   0  0  0  0  0  0  0  0  0  0  0  0
    4.6044    0.0383   -0.2875 H   0  0  0  0  0  0  0  0  0  0  0  0
    3.6284    3.2834    0.6084 H   0  0  0  0  0  0  0  0  0  0  0  0
    4.9284    2.2084    0.2113 H   0  0  0  0  0  0  0  0  0  0  0  0
  1 10  1  0  0  0  0
  1 11  1  0  0  0  0
  2 12  1  0  0  0  0
  2 26  1  0  0  0  0
  3 14  1  0  0  0  0
  3 27  1  0  0  0  0
  4 18  2  0  0  0  0
  5 11  1  0  0  0  0
  5 15  1  0  0  0  0
  5 16  1  0  0  0  0
  6 15  2  0  0  0  0
  6 17  1  0  0  0  0
  7 16  1  0  0  0  0
  7 19  2  0  0  0  0
  8 18  1  0  0  0  0
  8 19  1  0  0  0  0
  8 28  1  0  0  0  0
  9 19  1  0  0  0  0
  9 29  1  0  0  0  0
  9 30  1  0  0  0  0
 10 12  1  0  0  0  0
 10 14  1  0  0  0  0
 10 20  1  0  0  0  0
 11 13  1  0  0  0  0
 11 21  1  0  0  0  0
 12 13  1  0  0  0  0
 12 22  1  0  0  0  0
 13 23  1  0  0  0  0
 13 24  1  0  0  0  0
 14 15  1  0  0  0  0
 14 25  1  0  0  0  0
 16 17  2  0  0  0  0
 17 18  1  0  0  0  0
M  END
> <PUBCHEM_COMPOUND_CID>
135783053

> <PUBCHEM_CONFORMER_RMSD>
0.6

> <PUBCHEM_CONFORMER_DIVERSEORDER>
1

> <PUBCHEM_MMFF94_PARTIAL_CHARGES>
23
1 -0.56
10 0.28
11 0.54
12 0.28
14 0.46
15 0.01
16 -0.03
17 0.14
18 0.72
19 0.56
2 -0.68
26 0.4
27 0.4
28 0.37
29 0.4
3 -0.68
30 0.4
4 -0.57
5 0.05
6 -0.57
7 -0.58
8 -0.49
9 -0.85

> <PUBCHEM_EFFECTIVE_ROTOR_COUNT>
0.8

> <PUBCHEM_PHARMACOPHORE_FEATURES>
12
1 1 acceptor
1 2 acceptor
1 2 donor
1 3 acceptor
1 3 donor
1 4 acceptor
1 8 donor
1 9 donor
3 5 6 15 cation
5 5 6 15 16 17 rings
6 7 8 16 17 18 19 rings
8 1 5 10 11 12 13 14 15 rings

> <PUBCHEM_HEAVY_ATOM_COUNT>
19

> <PUBCHEM_ATOM_DEF_STEREO_COUNT>
4

> <PUBCHEM_ATOM_UDEF_STEREO_COUNT>
0

> <PUBCHEM_BOND_DEF_STEREO_COUNT>
0

> <PUBCHEM_BOND_UDEF_STEREO_COUNT>
0

> <PUBCHEM_ISOTOPIC_ATOM_COUNT>
0

> <PUBCHEM_COMPONENT_COUNT>
1

> <PUBCHEM_CACTVS_TAUTO_COUNT>
-1

> <PUBCHEM_CONFORMER_ID>
0817E28D00000001

> <PUBCHEM_MMFF94_ENERGY>
47.8914

> <PUBCHEM_FEATURE_SELFOVERLAP>
61.107

> <PUBCHEM_SHAPE_FINGERPRINT>
10608611 8 18410009953056396204
10967382 1 18413110571635932394
11471102 20 18341890745117883172
11680986 33 18411984663244786610
12403259 415 18260549979176649421
12553582 1 17909001910999946390
12730499 353 17971188128720147197
13140716 1 18411427197780174786
13380535 21 18339655524131115978
13380535 76 18410849936958695591
13583140 156 17313101942929329865
13897977 150 18341613741254939976
14223421 5 18337676428928971834
14250199 8 18272088249370521084
14911166 2 18266742385223961478
15196674 1 18411980286319567229
15219456 202 18410293631166479503
15442244 35 18199193884566939018
16945 1 18267590108657289106
17357779 13 18051397767964384391
18186145 218 18271535225424052844
200 152 17703498909785330957
20510252 161 18338801242166897395
20645477 56 18187363229472620997
20645477 70 18060142033251890510
21501502 16 18343587356073871058
221490 88 18411709802697430166
22182313 1 18339371862789445318
2334 1 18340209703687686666
23419403 2 15261976436071117251
23493267 7 18187635963858217985
23557571 272 18115033007800188981
23559900 14 18340763750538056218
25 1 18120369853011487653
2748010 2 18340212980621152486
4028521 119 18334851697779117469
5104073 3 18410013242922075179
6049 1 18264790859648849194
633830 44 18267289951248178429
69090 78 18411695474543761727
7364860 26 18272936016513189870
74978 22 18337954493617272922
77492 1 17131835334966361441
81228 2 17970080035235998035
8809292 202 18335991886678475115
9709674 26 18411419531168709542

> <PUBCHEM_SHAPE_MULTIPOLES>
342.63
6.77
2.34
0.9
1.51
0.34
-0.03
-1.92
0.99
0.83
-0.07
-0.57
-0.01
1.18

> <PUBCHEM_SHAPE_SELFOVERLAP>
774.603

> <PUBCHEM_SHAPE_VOLUME>
177

> <PUBCHEM_COORDINATE_TYPE>
2
5
10

$$$$
