135764867
  -OEChem-03292013293D

 41 43  0     0  0  0  0  0  0999 V2000
   -1.2091   -1.9997   -0.9004 O   0  0  0  0  0  0  0  0  0  0  0  0
    5.1562   -2.1241   -1.0749 O   0  5  0  0  0  0  0  0  0  0  0  0
    5.2339   -2.5405    1.0790 O   0  0  0  0  0  0  0  0  0  0  0  0
   -4.4669    2.3054    0.0574 N   0  0  0  0  0  0  0  0  0  0  0  0
   -8.2476   -2.0588    0.7591 N   0  0  0  0  0  0  0  0  0  0  0  0
    0.0567    0.4504   -0.4720 N   0  0  0  0  0  0  0  0  0  0  0  0
    0.5248    0.2579    0.6736 N   0  0  0  0  0  0  0  0  0  0  0  0
    4.8665   -1.8355    0.1099 N   0  3  0  0  0  0  0  0  0  0  0  0
    6.1029    0.6959    0.5537 N   0  0  0  0  0  0  0  0  0  0  0  0
    6.5414    0.9591   -0.5862 N   0  3  0  0  0  0  0  0  0  0  0  0
    6.9507    1.1994   -1.6241 N   0  5  0  0  0  0  0  0  0  0  0  0
   -5.5307    0.3860   -0.2761 C   0  0  0  0  0  0  0  0  0  0  0  0
   -4.1323    0.1426   -0.3753 C   0  0  0  0  0  0  0  0  0  0  0  0
   -3.4877    1.3630   -0.1623 C   0  0  0  0  0  0  0  0  0  0  0  0
   -6.6097   -0.6109   -0.4290 C   0  0  0  0  0  0  0  0  0  0  0  0
   -5.7049    1.7245   -0.0094 C   0  0  0  0  0  0  0  0  0  0  0  0
   -3.3506   -1.0024   -0.6266 C   0  0  0  0  0  0  0  0  0  0  0  0
   -2.0949    1.4961   -0.1882 C   0  0  0  0  0  0  0  0  0  0  0  0
   -7.2037   -1.0529    0.9221 C   0  0  0  0  0  0  0  0  0  0  0  0
   -1.3401    0.3468   -0.4395 C   0  0  0  0  0  0  0  0  0  0  0  0
   -1.9562   -0.8844   -0.6555 C   0  0  0  0  0  0  0  0  0  0  0  0
    1.9261    0.3612    0.6416 C   0  0  0  0  0  0  0  0  0  0  0  0
    2.7034   -0.7702    0.3945 C   0  0  0  0  0  0  0  0  0  0  0  0
    4.0943   -0.6678    0.3636 C   0  0  0  0  0  0  0  0  0  0  0  0
    2.5395    1.5952    0.8579 C   0  0  0  0  0  0  0  0  0  0  0  0
    4.7077    0.5661    0.5799 C   0  0  0  0  0  0  0  0  0  0  0  0
    3.9302    1.6975    0.8272 C   0  0  0  0  0  0  0  0  0  0  0  0
   -7.4069   -0.1862   -1.0537 H   0  0  0  0  0  0  0  0  0  0  0  0
   -6.2411   -1.4916   -0.9696 H   0  0  0  0  0  0  0  0  0  0  0  0
   -6.5971    2.3169    0.1393 H   0  0  0  0  0  0  0  0  0  0  0  0
   -4.2958    3.2843    0.2414 H   0  0  0  0  0  0  0  0  0  0  0  0
   -3.8272   -1.9643   -0.7941 H   0  0  0  0  0  0  0  0  0  0  0  0
   -1.6227    2.4590   -0.0197 H   0  0  0  0  0  0  0  0  0  0  0  0
   -7.6207   -0.1875    1.4507 H   0  0  0  0  0  0  0  0  0  0  0  0
   -6.4120   -1.4671    1.5573 H   0  0  0  0  0  0  0  0  0  0  0  0
   -9.0041   -1.6774    0.1924 H   0  0  0  0  0  0  0  0  0  0  0  0
   -8.6526   -2.2763    1.6687 H   0  0  0  0  0  0  0  0  0  0  0  0
   -1.8030   -2.7597   -1.0254 H   0  0  0  0  0  0  0  0  0  0  0  0
    2.2197   -1.7306    0.2272 H   0  0  0  0  0  0  0  0  0  0  0  0
    1.9422    2.4823    1.0523 H   0  0  0  0  0  0  0  0  0  0  0  0
    4.3975    2.6640    0.9983 H   0  0  0  0  0  0  0  0  0  0  0  0
  1 21  1  0  0  0  0
  1 38  1  0  0  0  0
  2  8  1  0  0  0  0
  3  8  2  0  0  0  0
  4 14  1  0  0  0  0
  4 16  1  0  0  0  0
  4 31  1  0  0  0  0
  5 19  1  0  0  0  0
  5 36  1  0  0  0  0
  5 37  1  0  0  0  0
  6  7  2  0  0  0  0
  6 20  1  0  0  0  0
  7 22  1  0  0  0  0
  8 24  1  0  0  0  0
  9 10  2  0  0  0  0
  9 26  1  0  0  0  0
 10 11  2  0  0  0  0
 12 13  1  0  0  0  0
 12 15  1  0  0  0  0
 12 16  2  0  0  0  0
 13 14  1  0  0  0  0
 13 17  2  0  0  0  0
 14 18  2  0  0  0  0
 15 19  1  0  0  0  0
 15 28  1  0  0  0  0
 15 29  1  0  0  0  0
 16 30  1  0  0  0  0
 17 21  1  0  0  0  0
 17 32  1  0  0  0  0
 18 20  1  0  0  0  0
 18 33  1  0  0  0  0
 19 34  1  0  0  0  0
 19 35  1  0  0  0  0
 20 21  2  0  0  0  0
 22 23  2  0  0  0  0
 22 25  1  0  0  0  0
 23 24  1  0  0  0  0
 23 39  1  0  0  0  0
 24 26  2  0  0  0  0
 25 27  2  0  0  0  0
 25 40  1  0  0  0  0
 26 27  1  0  0  0  0
 27 41  1  0  0  0  0
M  CHG  4   2  -1   8   1  10   1  11  -1
M  END
> <PUBCHEM_COMPOUND_CID>
135764867

> <PUBCHEM_CONFORMER_RMSD>
0.8

> <PUBCHEM_CONFORMER_DIVERSEORDER>
1
34
19
41
28
21
48
61
37
9
47
44
45
50
57
30
35
52
59
11
16
40
26
38
42
17
43
29
8
18
20
23
32
46
12
15
39
27
5
24
6
25
56
36
54
14
58
55
7
2
13
60
53
51
31
49
22
3
4
33
10

> <PUBCHEM_MMFF94_PARTIAL_CHARGES>
36
1 -0.53
10 0.69
11 -0.37
12 -0.18
14 -0.15
15 0.18
16 -0.3
17 -0.15
18 -0.15
19 0.27
2 -0.52
20 0.18
21 0.08
22 0.18
23 -0.15
24 0.13
25 -0.15
26 0.18
27 -0.15
3 -0.52
30 0.15
31 0.27
32 0.15
33 0.15
36 0.36
37 0.36
38 0.45
39 0.15
4 0.03
40 0.15
41 0.15
5 -0.99
6 -0.18
7 -0.18
8 0.91
9 -0.5

> <PUBCHEM_EFFECTIVE_ROTOR_COUNT>
6

> <PUBCHEM_PHARMACOPHORE_FEATURES>
11
1 1 donor
1 2 acceptor
1 2 anion
1 3 acceptor
1 4 cation
1 4 donor
1 5 cation
1 5 donor
5 4 12 13 14 16 rings
6 13 14 17 18 20 21 rings
6 22 23 24 25 26 27 rings

> <PUBCHEM_HEAVY_ATOM_COUNT>
27

> <PUBCHEM_ATOM_DEF_STEREO_COUNT>
0

> <PUBCHEM_ATOM_UDEF_STEREO_COUNT>
0

> <PUBCHEM_BOND_DEF_STEREO_COUNT>
0

> <PUBCHEM_BOND_UDEF_STEREO_COUNT>
0

> <PUBCHEM_ISOTOPIC_ATOM_COUNT>
0

> <PUBCHEM_COMPONENT_COUNT>
1

> <PUBCHEM_CACTVS_TAUTO_COUNT>
-1

> <PUBCHEM_CONFORMER_ID>
08179B8300000001

> <PUBCHEM_MMFF94_ENERGY>
60.5064

> <PUBCHEM_FEATURE_SELFOVERLAP>
55.993

> <PUBCHEM_SHAPE_FINGERPRINT>
10299344 5 18410575076073150816
10673678 19 17896897637051629276
11524674 6 16056876962149618543
12107183 9 17621315741110254593
12166972 35 18343301487578355705
12236239 1 18260264118790344389
12596602 18 18259981553134527705
12730499 353 18411417337120578720
12788726 201 17417814989657872968
13073987 5 18342452612755669144
13533116 47 17417809513711745746
13685833 64 18411981356009250987
13782708 43 18262514793306929915
13914758 101 11887681662667881759
14251764 18 18272651259922989239
14341114 176 18343018882671187785
14617045 38 18343302582926248102
14856354 85 16128653086017401399
14933364 13 18412825780892072545
15183329 4 17989202629422354285
1577012 14 18343018857223507801
17844677 252 18412826850196686441
1813 80 17386001750189763996
18222031 100 16587740928314941877
18335252 98 18334579065886926595
18608769 82 18337672035103822059
20105231 36 18201167631981763102
21150785 3 17530966916619743205
21267235 1 18412265064553799185
220451 1 17346593092891369671
23522609 53 18267608847927461224
23559900 14 17917700340612806232
23569943 247 17607235459624710098
3004659 81 18340767032267519230
3383291 50 17822577213750289899
34797466 226 17775007929521594268
3545911 37 18272366490374326064
4073 2 18260547870326601810
5104073 3 18343012272806067417
9996256 80 18343297076904885423

> <PUBCHEM_SHAPE_MULTIPOLES>
498.19
21.3
2.24
1.01
5.62
0.54
-0.08
3.99
0.8
-0.27
0.14
-0.75
0.11
0.35

> <PUBCHEM_SHAPE_SELFOVERLAP>
1089.281

> <PUBCHEM_SHAPE_VOLUME>
269.9

> <PUBCHEM_COORDINATE_TYPE>
2
5
10

$$$$
