135764860
  -OEChem-03292013293D

 31 32  0     1  0  0  0  0  0999 V2000
    1.8325   -0.3860   -0.2066 O   0  0  0  0  0  0  0  0  0  0  0  0
    3.1806    2.3678   -2.1123 O   0  0  0  0  0  0  0  0  0  0  0  0
   -4.3224    1.5054    0.2033 O   0  0  0  0  0  0  0  0  0  0  0  0
    1.4266   -2.7866    0.8760 O   0  0  0  0  0  0  0  0  0  0  0  0
    4.3948   -0.7188    0.5428 O   0  0  0  0  0  0  0  0  0  0  0  0
   -0.0616    0.2653    1.0536 N   0  0  0  0  0  0  0  0  0  0  0  0
   -1.6901    1.7108    1.5644 N   0  0  0  0  0  0  0  0  0  0  0  0
   -1.1774   -1.0896   -0.6133 N   0  0  0  0  0  0  0  0  0  0  0  0
   -3.4180   -0.3114   -0.9520 N   0  0  0  0  0  0  0  0  0  0  0  0
   -2.5883   -2.1525   -2.1626 N   0  0  0  0  0  0  0  0  0  0  0  0
    1.2317   -0.3737    1.0854 C   0  0  1  0  0  0  0  0  0  0  0  0
   -1.1312   -0.0760    0.2792 C   0  0  0  0  0  0  0  0  0  0  0  0
   -2.1108    0.8269    0.6149 C   0  0  0  0  0  0  0  0  0  0  0  0
    2.6979    0.7212   -0.4255 C   0  0  2  0  0  0  0  0  0  0  0  0
   -0.4469    1.3456    1.8094 C   0  0  0  0  0  0  0  0  0  0  0  0
   -3.3915    0.7455   -0.0313 C   0  0  0  0  0  0  0  0  0  0  0  0
    1.1025   -1.8115    1.5467 C   0  0  0  0  0  0  0  0  0  0  0  0
    2.7237    1.0379   -1.9125 C   0  0  0  0  0  0  0  0  0  0  0  0
   -2.3400   -1.1878   -1.2208 C   0  0  0  0  0  0  0  0  0  0  0  0
    4.0879    0.3673    0.0612 C   0  0  0  0  0  0  0  0  0  0  0  0
    1.8660    0.1343    1.8227 H   0  0  0  0  0  0  0  0  0  0  0  0
    2.3622    1.6042    0.1330 H   0  0  0  0  0  0  0  0  0  0  0  0
    0.2181    1.8219    2.5171 H   0  0  0  0  0  0  0  0  0  0  0  0
    0.6990   -1.9452    2.5660 H   0  0  0  0  0  0  0  0  0  0  0  0
    1.7189    0.9539   -2.3410 H   0  0  0  0  0  0  0  0  0  0  0  0
    3.3808    0.3522   -2.4587 H   0  0  0  0  0  0  0  0  0  0  0  0
   -4.2809   -0.4594   -1.4675 H   0  0  0  0  0  0  0  0  0  0  0  0
    4.8391    1.1709   -0.0301 H   0  0  0  0  0  0  0  0  0  0  0  0
   -1.8772   -2.8270   -2.4231 H   0  0  0  0  0  0  0  0  0  0  0  0
   -3.4879   -2.2204   -2.6258 H   0  0  0  0  0  0  0  0  0  0  0  0
    3.1763    2.5303   -3.0711 H   0  0  0  0  0  0  0  0  0  0  0  0
  1 11  1  0  0  0  0
  1 14  1  0  0  0  0
  2 18  1  0  0  0  0
  2 31  1  0  0  0  0
  3 16  2  0  0  0  0
  4 17  2  0  0  0  0
  5 20  2  0  0  0  0
  6 11  1  0  0  0  0
  6 12  1  0  0  0  0
  6 15  1  0  0  0  0
  7 13  1  0  0  0  0
  7 15  2  0  0  0  0
  8 12  1  0  0  0  0
  8 19  2  0  0  0  0
  9 16  1  0  0  0  0
  9 19  1  0  0  0  0
  9 27  1  0  0  0  0
 10 19  1  0  0  0  0
 10 29  1  0  0  0  0
 10 30  1  0  0  0  0
 11 17  1  0  0  0  0
 11 21  1  0  0  0  0
 12 13  2  0  0  0  0
 13 16  1  0  0  0  0
 14 18  1  0  0  0  0
 14 20  1  0  0  0  0
 14 22  1  0  0  0  0
 15 23  1  0  0  0  0
 17 24  1  0  0  0  0
 18 25  1  0  0  0  0
 18 26  1  0  0  0  0
 20 28  1  0  0  0  0
M  END
> <PUBCHEM_COMPOUND_CID>
135764860

> <PUBCHEM_CONFORMER_RMSD>
0.8

> <PUBCHEM_CONFORMER_DIVERSEORDER>
1
25
26
24
10
15
33
28
16
7
19
5
11
8
31
22
12
13
20
17
23
32
29
27
21
9
30
6
18
2
3
4
14

> <PUBCHEM_MMFF94_PARTIAL_CHARGES>
27
1 -0.56
10 -0.85
11 0.6
12 -0.03
13 0.14
14 0.34
15 0.04
16 0.72
17 0.45
18 0.28
19 0.56
2 -0.68
20 0.45
23 0.15
24 0.06
27 0.37
28 0.06
29 0.4
3 -0.57
30 0.4
31 0.4
4 -0.57
5 -0.57
6 0.05
7 -0.57
8 -0.58
9 -0.49

> <PUBCHEM_EFFECTIVE_ROTOR_COUNT>
6

> <PUBCHEM_PHARMACOPHORE_FEATURES>
11
1 1 acceptor
1 10 donor
1 2 acceptor
1 2 donor
1 3 acceptor
1 4 acceptor
1 5 acceptor
1 9 donor
3 6 7 15 cation
5 6 7 12 13 15 rings
6 8 9 12 13 16 19 rings

> <PUBCHEM_HEAVY_ATOM_COUNT>
20

> <PUBCHEM_ATOM_DEF_STEREO_COUNT>
2

> <PUBCHEM_ATOM_UDEF_STEREO_COUNT>
0

> <PUBCHEM_BOND_DEF_STEREO_COUNT>
0

> <PUBCHEM_BOND_UDEF_STEREO_COUNT>
0

> <PUBCHEM_ISOTOPIC_ATOM_COUNT>
0

> <PUBCHEM_COMPONENT_COUNT>
1

> <PUBCHEM_CACTVS_TAUTO_COUNT>
-1

> <PUBCHEM_CONFORMER_ID>
08179B7C00000001

> <PUBCHEM_MMFF94_ENERGY>
34.5983

> <PUBCHEM_FEATURE_SELFOVERLAP>
56.016

> <PUBCHEM_SHAPE_FINGERPRINT>
11578080 2 17834067010642870024
11640471 11 18337681836087108164
12173636 292 17970362609296769365
12202030 40 15410898461307742222
12236239 1 18410852123075755642
13134695 92 17096071508097869626
13538477 17 18201144469333509011
14115302 16 18272367551220328346
14790565 3 17560252297521100297
15342168 16 17387149734612629828
15375358 24 16271922705610034956
15375462 175 17489025951231372083
16752209 62 17630881604410501553
16945 1 17703244965285386520
18186145 218 16805600404083596476
192875 21 18260547831735374484
19765921 60 18335988652557162112
19786989 88 17458059369954952947
20600515 1 17346876745348324169
20645476 183 18411415082067640655
20871999 31 17917703643494975447
21486144 27 16878515531418243233
21639500 275 17676486172570313964
23402539 116 18059564802790438488
23419403 2 16397494956511356674
23557571 272 16558476301187112760
23559900 14 17418371373027901424
23598291 2 17905335022192739442
2748010 2 17415533636421811905
4340502 62 17895487942594845427
474 4 18113624482197781136
77492 1 18410569561493508954
81228 2 16343158929991487352
9709674 26 16415206645926582148
9981440 41 17835794580255585784

> <PUBCHEM_SHAPE_MULTIPOLES>
357.34
7.04
2.18
1.94
1.65
0.74
0.58
-1.78
2.37
0.04
0.14
0.33
-0.13
-2.57

> <PUBCHEM_SHAPE_SELFOVERLAP>
760.073

> <PUBCHEM_SHAPE_VOLUME>
196

> <PUBCHEM_COORDINATE_TYPE>
2
5
10

$$$$
