135718473
  -OEChem-03292013293D

 30 31  0     1  0  0  0  0  0999 V2000
   -1.7190   -0.1896   -1.4110 O   0  0  0  0  0  0  0  0  0  0  0  0
   -4.2157    0.7171   -1.5336 O   0  0  0  0  0  0  0  0  0  0  0  0
    1.7110    2.6002    0.5801 O   0  0  0  0  0  0  0  0  0  0  0  0
   -0.3546    0.7672    0.9273 N   0  0  0  0  0  0  0  0  0  0  0  0
    0.1665   -1.8464    0.3740 N   0  0  0  0  0  0  0  0  0  0  0  0
    2.4167   -1.2959   -0.3248 N   0  0  0  0  0  0  0  0  0  0  0  0
    3.1206    0.9412   -0.1770 N   0  0  0  0  0  0  0  0  0  0  0  0
    4.5888   -0.6923   -0.9621 N   0  0  0  0  0  0  0  0  0  0  0  0
   -1.4997   -0.1243    0.9542 C   0  0  2  0  0  0  0  0  0  0  0  0
   -1.0482   -1.5782    1.1308 C   0  0  0  0  0  0  0  0  0  0  0  0
    0.8869    0.3736    0.4752 C   0  0  0  0  0  0  0  0  0  0  0  0
   -2.2512    0.0578   -0.3284 C   0  0  0  0  0  0  0  0  0  0  0  0
    1.1828   -0.9128    0.1676 C   0  0  0  0  0  0  0  0  0  0  0  0
   -3.6838    0.5633   -0.2277 C   0  0  2  0  0  0  0  0  0  0  0  0
    1.9236    1.4228    0.3081 C   0  0  0  0  0  0  0  0  0  0  0  0
   -4.5656   -0.4123    0.5308 C   0  0  0  0  0  0  0  0  0  0  0  0
    3.3408   -0.3914   -0.4836 C   0  0  0  0  0  0  0  0  0  0  0  0
   -2.1389    0.1610    1.7950 H   0  0  0  0  0  0  0  0  0  0  0  0
   -0.8335   -1.7652    2.1899 H   0  0  0  0  0  0  0  0  0  0  0  0
   -1.8330   -2.2794    0.8268 H   0  0  0  0  0  0  0  0  0  0  0  0
   -0.4995    1.7581    1.0918 H   0  0  0  0  0  0  0  0  0  0  0  0
    0.3999   -2.8095    0.1555 H   0  0  0  0  0  0  0  0  0  0  0  0
   -3.6680    1.5467    0.2537 H   0  0  0  0  0  0  0  0  0  0  0  0
   -4.5383   -1.4044    0.0654 H   0  0  0  0  0  0  0  0  0  0  0  0
   -5.6102   -0.0828    0.5114 H   0  0  0  0  0  0  0  0  0  0  0  0
   -4.2621   -0.5218    1.5755 H   0  0  0  0  0  0  0  0  0  0  0  0
    3.8798    1.6005   -0.3199 H   0  0  0  0  0  0  0  0  0  0  0  0
   -5.0589    1.1948   -1.4524 H   0  0  0  0  0  0  0  0  0  0  0  0
    4.8401   -1.6423   -1.2128 H   0  0  0  0  0  0  0  0  0  0  0  0
    5.2971    0.0239   -1.0798 H   0  0  0  0  0  0  0  0  0  0  0  0
  1 12  2  0  0  0  0
  2 14  1  0  0  0  0
  2 28  1  0  0  0  0
  3 15  2  0  0  0  0
  4  9  1  0  0  0  0
  4 11  1  0  0  0  0
  4 21  1  0  0  0  0
  5 10  1  0  0  0  0
  5 13  1  0  0  0  0
  5 22  1  0  0  0  0
  6 13  1  0  0  0  0
  6 17  2  0  0  0  0
  7 15  1  0  0  0  0
  7 17  1  0  0  0  0
  7 27  1  0  0  0  0
  8 17  1  0  0  0  0
  8 29  1  0  0  0  0
  8 30  1  0  0  0  0
  9 10  1  0  0  0  0
  9 12  1  0  0  0  0
  9 18  1  0  0  0  0
 10 19  1  0  0  0  0
 10 20  1  0  0  0  0
 11 13  2  0  0  0  0
 11 15  1  0  0  0  0
 12 14  1  0  0  0  0
 14 16  1  0  0  0  0
 14 23  1  0  0  0  0
 16 24  1  0  0  0  0
 16 25  1  0  0  0  0
 16 26  1  0  0  0  0
M  END
> <PUBCHEM_COMPOUND_CID>
135718473

> <PUBCHEM_CONFORMER_RMSD>
0.6

> <PUBCHEM_CONFORMER_DIVERSEORDER>
1
14
9
15
29
19
20
12
25
11
13
8
28
16
10
24
21
7
18
26
2
6
3
4
23
22
17
5
27

> <PUBCHEM_MMFF94_PARTIAL_CHARGES>
22
1 -0.57
10 0.37
11 0.11
12 0.45
13 0.27
14 0.34
15 0.62
17 0.56
2 -0.68
21 0.4
22 0.4
27 0.37
28 0.4
29 0.4
3 -0.57
30 0.4
4 -0.87
5 -0.87
6 -0.62
7 -0.49
8 -0.85
9 0.43

> <PUBCHEM_EFFECTIVE_ROTOR_COUNT>
2.8

> <PUBCHEM_PHARMACOPHORE_FEATURES>
12
1 1 acceptor
1 2 acceptor
1 2 donor
1 3 acceptor
1 4 cation
1 4 donor
1 5 cation
1 5 donor
1 7 donor
1 8 donor
6 4 5 9 10 11 13 rings
6 6 7 11 13 15 17 rings

> <PUBCHEM_HEAVY_ATOM_COUNT>
17

> <PUBCHEM_ATOM_DEF_STEREO_COUNT>
2

> <PUBCHEM_ATOM_UDEF_STEREO_COUNT>
0

> <PUBCHEM_BOND_DEF_STEREO_COUNT>
0

> <PUBCHEM_BOND_UDEF_STEREO_COUNT>
0

> <PUBCHEM_ISOTOPIC_ATOM_COUNT>
0

> <PUBCHEM_COMPONENT_COUNT>
1

> <PUBCHEM_CACTVS_TAUTO_COUNT>
-1

> <PUBCHEM_CONFORMER_ID>
0816E64900000001

> <PUBCHEM_MMFF94_ENERGY>
44.157

> <PUBCHEM_FEATURE_SELFOVERLAP>
60.989

> <PUBCHEM_SHAPE_FINGERPRINT>
10498660 4 17240752953004383453
10608611 8 18263362654089332561
11471102 20 18413390947027220760
12236239 1 17346887736628128459
12403259 415 18187083979399719789
12654215 9 18408604773307183152
12730499 353 18187645774402402219
13294875 104 18116410653241853858
13571099 22 18202006546853352096
14115302 16 18188225272310849166
14350558 41 15841558452856412292
14911166 2 18410863148552326734
14943859 89 16588030108167465370
14993402 34 18060142016098362334
15219456 202 18265058105203424402
15775835 57 17676487241627008058
16945 1 18412257316026407651
18186145 218 18410851071083126545
19422 9 17775002431815145151
200 152 17632300055560971826
20233049 118 18114178610272656140
20645477 56 18043251434178348784
20645477 70 18201447990672703694
21029758 11 18273219681870721128
21069387 34 17489597761633688398
21119208 17 17775284945625360839
21486144 27 18263357143625277093
221357 26 18340200804921917357
221490 88 18268998763457161186
22713019 99 18201727227982054486
23402539 116 18058737892531276298
23402655 69 18413106130645198605
23559900 14 18410301320318482318
25 1 18334576793896576187
2748010 2 18123479529487322546
3060560 45 18412252926543515959
3286 77 18187355494062317491
3323516 105 18409449206674340467
4990 188 18411983550721760511
633830 44 18411411817982276949
77492 1 17275111625998557745
9981440 41 17052993994962006344

> <PUBCHEM_SHAPE_MULTIPOLES>
307.34
7.58
1.69
1.11
2.38
0.35
0.19
0.4
2.55
-0.96
-0.41
0.57
0.02
0.91

> <PUBCHEM_SHAPE_SELFOVERLAP>
650.944

> <PUBCHEM_SHAPE_VOLUME>
169.2

> <PUBCHEM_COORDINATE_TYPE>
2
5
10

$$$$
