135718454
  -OEChem-03292013293D

 34 37  0     0  0  0  0  0  0999 V2000
    4.3240    2.5494   -0.5486 O   0  0  0  0  0  0  0  0  0  0  0  0
   -0.6705    0.5061   -0.4864 N   0  0  0  0  0  0  0  0  0  0  0  0
    1.5875    1.2623   -0.4677 N   0  0  0  0  0  0  0  0  0  0  0  0
    1.2850   -0.8738    0.0964 N   0  0  0  0  0  0  0  0  0  0  0  0
    5.1003    0.4661    0.1124 N   0  0  0  0  0  0  0  0  0  0  0  0
    3.6684   -1.4224    0.4927 N   0  0  0  0  0  0  0  0  0  0  0  0
    5.9851   -1.5964    0.7783 N   0  0  0  0  0  0  0  0  0  0  0  0
   -1.8287   -0.3022   -0.3791 C   0  0  0  0  0  0  0  0  0  0  0  0
   -3.0761    0.2423   -0.0330 C   0  0  0  0  0  0  0  0  0  0  0  0
    0.6924    0.2423   -0.2745 C   0  0  0  0  0  0  0  0  0  0  0  0
   -4.2017   -0.6106    0.0604 C   0  0  0  0  0  0  0  0  0  0  0  0
    2.8269    0.7586   -0.2015 C   0  0  0  0  0  0  0  0  0  0  0  0
    2.6168   -0.5561    0.1436 C   0  0  0  0  0  0  0  0  0  0  0  0
   -1.6929   -1.6680   -0.6297 C   0  0  0  0  0  0  0  0  0  0  0  0
   -3.2311    1.6145    0.2227 C   0  0  0  0  0  0  0  0  0  0  0  0
   -4.0466   -1.9829   -0.1952 C   0  0  0  0  0  0  0  0  0  0  0  0
    4.1108    1.3811   -0.2443 C   0  0  0  0  0  0  0  0  0  0  0  0
   -2.7997   -2.5066   -0.5380 C   0  0  0  0  0  0  0  0  0  0  0  0
   -5.4490   -0.0662    0.4066 C   0  0  0  0  0  0  0  0  0  0  0  0
   -4.4780    2.1382    0.5654 C   0  0  0  0  0  0  0  0  0  0  0  0
   -5.5848    1.2995    0.6572 C   0  0  0  0  0  0  0  0  0  0  0  0
    4.8621   -0.8750    0.4623 C   0  0  0  0  0  0  0  0  0  0  0  0
   -0.8881    1.4626   -0.7531 H   0  0  0  0  0  0  0  0  0  0  0  0
    1.3668    2.2072   -0.7532 H   0  0  0  0  0  0  0  0  0  0  0  0
   -0.7423   -2.1065   -0.9188 H   0  0  0  0  0  0  0  0  0  0  0  0
   -2.4026    2.3154    0.1807 H   0  0  0  0  0  0  0  0  0  0  0  0
   -4.8982   -2.6570   -0.1304 H   0  0  0  0  0  0  0  0  0  0  0  0
   -2.6948   -3.5691   -0.7378 H   0  0  0  0  0  0  0  0  0  0  0  0
   -6.3278   -0.7030    0.4844 H   0  0  0  0  0  0  0  0  0  0  0  0
    6.0623    0.7926    0.1196 H   0  0  0  0  0  0  0  0  0  0  0  0
   -4.5845    3.2008    0.7640 H   0  0  0  0  0  0  0  0  0  0  0  0
   -6.5550    1.7079    0.9248 H   0  0  0  0  0  0  0  0  0  0  0  0
    5.9237   -2.5731    1.0445 H   0  0  0  0  0  0  0  0  0  0  0  0
    6.9078   -1.1762    0.7555 H   0  0  0  0  0  0  0  0  0  0  0  0
  1 17  2  0  0  0  0
  2  8  1  0  0  0  0
  2 10  1  0  0  0  0
  2 23  1  0  0  0  0
  3 10  1  0  0  0  0
  3 12  1  0  0  0  0
  3 24  1  0  0  0  0
  4 10  2  0  0  0  0
  4 13  1  0  0  0  0
  5 17  1  0  0  0  0
  5 22  1  0  0  0  0
  5 30  1  0  0  0  0
  6 13  1  0  0  0  0
  6 22  2  0  0  0  0
  7 22  1  0  0  0  0
  7 33  1  0  0  0  0
  7 34  1  0  0  0  0
  8  9  1  0  0  0  0
  8 14  2  0  0  0  0
  9 11  1  0  0  0  0
  9 15  2  0  0  0  0
 11 16  1  0  0  0  0
 11 19  2  0  0  0  0
 12 13  2  0  0  0  0
 12 17  1  0  0  0  0
 14 18  1  0  0  0  0
 14 25  1  0  0  0  0
 15 20  1  0  0  0  0
 15 26  1  0  0  0  0
 16 18  2  0  0  0  0
 16 27  1  0  0  0  0
 18 28  1  0  0  0  0
 19 21  1  0  0  0  0
 19 29  1  0  0  0  0
 20 21  2  0  0  0  0
 20 31  1  0  0  0  0
 21 32  1  0  0  0  0
M  END
> <PUBCHEM_COMPOUND_CID>
135718454

> <PUBCHEM_CONFORMER_RMSD>
0.6

> <PUBCHEM_CONFORMER_DIVERSEORDER>
2
21
7
1
19
16
25
26
23
22
28
3
10
20
14
27
15
6
13
5
4
8
12
11
18
17
24
9

> <PUBCHEM_MMFF94_PARTIAL_CHARGES>
32
1 -0.57
10 0.27
12 -0.24
13 0.35
14 -0.15
15 -0.15
16 -0.15
17 0.71
18 -0.15
19 -0.15
2 -0.58
20 -0.15
21 -0.15
22 0.56
23 0.4
24 0.27
25 0.15
26 0.15
27 0.15
28 0.15
29 0.15
3 0.03
30 0.37
31 0.15
32 0.15
33 0.4
34 0.4
4 -0.57
5 -0.49
6 -0.57
7 -0.85
8 0.1

> <PUBCHEM_EFFECTIVE_ROTOR_COUNT>
2

> <PUBCHEM_PHARMACOPHORE_FEATURES>
10
1 1 acceptor
1 2 donor
1 3 donor
1 5 donor
1 7 donor
4 2 3 4 10 cation
5 3 4 10 12 13 rings
6 5 6 12 13 17 22 rings
6 8 9 11 14 16 18 rings
6 9 11 15 19 20 21 rings

> <PUBCHEM_HEAVY_ATOM_COUNT>
22

> <PUBCHEM_ATOM_DEF_STEREO_COUNT>
0

> <PUBCHEM_ATOM_UDEF_STEREO_COUNT>
0

> <PUBCHEM_BOND_DEF_STEREO_COUNT>
0

> <PUBCHEM_BOND_UDEF_STEREO_COUNT>
0

> <PUBCHEM_ISOTOPIC_ATOM_COUNT>
0

> <PUBCHEM_COMPONENT_COUNT>
1

> <PUBCHEM_CACTVS_TAUTO_COUNT>
-1

> <PUBCHEM_CONFORMER_ID>
0816E63600000002

> <PUBCHEM_MMFF94_ENERGY>
68.7778

> <PUBCHEM_FEATURE_SELFOVERLAP>
50.978

> <PUBCHEM_SHAPE_FINGERPRINT>
10595046 47 18266177412562275308
11089746 13 17346586470004397752
11315181 36 18408320008063672899
11405975 8 18410853270016652914
12107183 9 18050003294481534802
12236239 1 18333733528876561417
12390115 104 17916325874259337225
12596602 18 18040157340270833505
12616971 3 18260826007992163270
12633257 1 18410853231061240950
12788726 201 17489035855336728361
13073987 5 18337953505684935730
13167823 11 18408882962285960650
13785724 45 17980484456372862630
14341114 176 18408610274712019825
14420673 8 18266181634521259390
14739800 52 18058442287339853672
14849402 71 18262235647036424080
15042514 8 18268151032425876935
15196674 1 18410011069594847431
15238133 3 17917996040273281488
15250474 111 18339912814079307726
15461852 350 16988550334088428268
15788980 27 18410013242937853162
17844677 252 18411707616157883512
1813 80 17095529465391202742
19489759 90 17704067383298809907
21065198 48 18410011078153016727
21065198 57 18341893042883136408
21267235 1 18408328778292257622
21859007 373 17751915818716366965
23402539 116 18202275901759524741
23503953 91 18412256229731867634
23522609 53 17970373467692077644
23559900 14 17916880010396366614
3004659 81 18412269424224757372
34797466 226 17417543534655402908
3545911 37 18343587330277628541
3633792 109 18115008776497129863
4073 2 18041284378375716466
4214541 1 18411699880958602757
5104073 3 18409728495159101328
542803 24 18131353015936346325
559249 180 18410288073653281131
573450 72 18412257354760260355
5924683 9 18130780222509135911
67856867 119 18339076103247653112
7226269 152 17775283816360341785
77779 3 18410575114870333350
9981440 41 18270689671540482355

> <PUBCHEM_SHAPE_MULTIPOLES>
416.99
14.27
2.38
0.76
6.86
0.06
-0.02
-1.51
-3.03
-0.9
0.14
0.05
0.02
-1.66

> <PUBCHEM_SHAPE_SELFOVERLAP>
940.845

> <PUBCHEM_SHAPE_VOLUME>
215.6

> <PUBCHEM_COORDINATE_TYPE>
2
5
10

$$$$
