135742144
  -OEChem-03292013293D

 38 40  0     1  0  0  0  0  0999 V2000
   -2.6964   -0.1431   -0.9334 O   0  0  0  0  0  0  0  0  0  0  0  0
   -3.0805   -2.9625    0.2141 O   0  0  0  0  0  0  0  0  0  0  0  0
   -5.1337    1.2186   -0.7798 O   0  0  0  0  0  0  0  0  0  0  0  0
    3.1125    3.2687    0.2620 O   0  0  0  0  0  0  0  0  0  0  0  0
   -0.5372    0.6278   -0.0847 N   0  0  0  0  0  0  0  0  0  0  0  0
    0.1946    2.7317    0.1158 N   0  0  0  0  0  0  0  0  0  0  0  0
    1.5645   -0.5727   -0.1119 N   0  0  0  0  0  0  0  0  0  0  0  0
    3.3977    0.9581    0.0793 N   0  0  0  0  0  0  0  0  0  0  0  0
    3.7788   -1.3584   -0.1000 N   0  0  0  0  0  0  0  0  0  0  0  0
   -1.5075   -0.5193   -0.2135 C   0  0  1  0  0  0  0  0  0  0  0  0
   -3.3098   -1.6741    0.7796 C   0  0  1  0  0  0  0  0  0  0  0  0
   -1.9746   -1.0614    1.1329 C   0  0  0  0  0  0  0  0  0  0  0  0
   -3.8452   -0.7329   -0.2918 C   0  0  1  0  0  0  0  0  0  0  0  0
   -4.6919    0.3940    0.2843 C   0  0  0  0  0  0  0  0  0  0  0  0
    0.8240    0.5557   -0.0435 C   0  0  0  0  0  0  0  0  0  0  0  0
   -0.8679    1.9573    0.0145 C   0  0  0  0  0  0  0  0  0  0  0  0
    1.2416    1.8589    0.0794 C   0  0  0  0  0  0  0  0  0  0  0  0
    2.6486    2.1409    0.1519 C   0  0  0  0  0  0  0  0  0  0  0  0
    2.8583   -0.3439   -0.0479 C   0  0  0  0  0  0  0  0  0  0  0  0
    3.3962   -2.7302   -0.2273 C   0  0  0  0  0  0  0  0  0  0  0  0
    4.6281   -3.6132   -0.2802 C   0  0  0  0  0  0  0  0  0  0  0  0
   -0.9918   -1.2844   -0.8059 H   0  0  0  0  0  0  0  0  0  0  0  0
   -3.9712   -1.7963    1.6421 H   0  0  0  0  0  0  0  0  0  0  0  0
   -2.1132   -0.2461    1.8528 H   0  0  0  0  0  0  0  0  0  0  0  0
   -1.2549   -1.7727    1.5500 H   0  0  0  0  0  0  0  0  0  0  0  0
   -4.4061   -1.2622   -1.0702 H   0  0  0  0  0  0  0  0  0  0  0  0
   -4.1128    1.0197    0.9708 H   0  0  0  0  0  0  0  0  0  0  0  0
   -5.5672   -0.0030    0.8077 H   0  0  0  0  0  0  0  0  0  0  0  0
   -1.8935    2.3003    0.0108 H   0  0  0  0  0  0  0  0  0  0  0  0
   -3.9446   -3.3202   -0.0523 H   0  0  0  0  0  0  0  0  0  0  0  0
   -5.6723    1.9275   -0.3887 H   0  0  0  0  0  0  0  0  0  0  0  0
    4.4092    1.0438    0.1217 H   0  0  0  0  0  0  0  0  0  0  0  0
    4.7679   -1.1332   -0.0450 H   0  0  0  0  0  0  0  0  0  0  0  0
    2.7747   -3.0315    0.6236 H   0  0  0  0  0  0  0  0  0  0  0  0
    2.8105   -2.8787   -1.1416 H   0  0  0  0  0  0  0  0  0  0  0  0
    5.2637   -3.3521   -1.1331 H   0  0  0  0  0  0  0  0  0  0  0  0
    4.3404   -4.6646   -0.3781 H   0  0  0  0  0  0  0  0  0  0  0  0
    5.2286   -3.5067    0.6296 H   0  0  0  0  0  0  0  0  0  0  0  0
  1 10  1  0  0  0  0
  1 13  1  0  0  0  0
  2 11  1  0  0  0  0
  2 30  1  0  0  0  0
  3 14  1  0  0  0  0
  3 31  1  0  0  0  0
  4 18  2  0  0  0  0
  5 10  1  0  0  0  0
  5 15  1  0  0  0  0
  5 16  1  0  0  0  0
  6 16  2  0  0  0  0
  6 17  1  0  0  0  0
  7 15  1  0  0  0  0
  7 19  2  0  0  0  0
  8 18  1  0  0  0  0
  8 19  1  0  0  0  0
  8 32  1  0  0  0  0
  9 19  1  0  0  0  0
  9 20  1  0  0  0  0
  9 33  1  0  0  0  0
 10 12  1  0  0  0  0
 10 22  1  0  0  0  0
 11 12  1  0  0  0  0
 11 13  1  0  0  0  0
 11 23  1  0  0  0  0
 12 24  1  0  0  0  0
 12 25  1  0  0  0  0
 13 14  1  0  0  0  0
 13 26  1  0  0  0  0
 14 27  1  0  0  0  0
 14 28  1  0  0  0  0
 15 17  2  0  0  0  0
 16 29  1  0  0  0  0
 17 18  1  0  0  0  0
 20 21  1  0  0  0  0
 20 34  1  0  0  0  0
 20 35  1  0  0  0  0
 21 36  1  0  0  0  0
 21 37  1  0  0  0  0
 21 38  1  0  0  0  0
M  END
> <PUBCHEM_COMPOUND_CID>
135742144

> <PUBCHEM_CONFORMER_RMSD>
0.8

> <PUBCHEM_CONFORMER_DIVERSEORDER>
1
24
16
17
21
3
26
20
9
8
23
14
27
13
4
5
22
12
19
11
18
2
7
25
10
15
28
6

> <PUBCHEM_MMFF94_PARTIAL_CHARGES>
24
1 -0.56
10 0.54
11 0.28
13 0.28
14 0.28
15 -0.03
16 0.04
17 0.14
18 0.72
19 0.56
2 -0.68
20 0.37
29 0.15
3 -0.68
30 0.4
31 0.4
32 0.37
33 0.4
4 -0.57
5 0.05
6 -0.57
7 -0.58
8 -0.49
9 -0.82

> <PUBCHEM_EFFECTIVE_ROTOR_COUNT>
5

> <PUBCHEM_PHARMACOPHORE_FEATURES>
12
1 1 acceptor
1 2 acceptor
1 2 donor
1 3 acceptor
1 3 donor
1 4 acceptor
1 8 donor
1 9 donor
3 5 6 16 cation
5 1 10 11 12 13 rings
5 5 6 15 16 17 rings
6 7 8 15 17 18 19 rings

> <PUBCHEM_HEAVY_ATOM_COUNT>
21

> <PUBCHEM_ATOM_DEF_STEREO_COUNT>
3

> <PUBCHEM_ATOM_UDEF_STEREO_COUNT>
0

> <PUBCHEM_BOND_DEF_STEREO_COUNT>
0

> <PUBCHEM_BOND_UDEF_STEREO_COUNT>
0

> <PUBCHEM_ISOTOPIC_ATOM_COUNT>
0

> <PUBCHEM_COMPONENT_COUNT>
1

> <PUBCHEM_CACTVS_TAUTO_COUNT>
-1

> <PUBCHEM_CONFORMER_ID>
081742C000000001

> <PUBCHEM_MMFF94_ENERGY>
40.82

> <PUBCHEM_FEATURE_SELFOVERLAP>
61.08

> <PUBCHEM_SHAPE_FINGERPRINT>
1100329 8 16894824342569462931
116883 192 18339644425782941100
12107183 9 18126859205124896073
12363563 72 18267593416320592966
12553582 1 18196392350288173222
12760667 363 18197215841363101310
12788726 201 17901669267748567490
13533116 47 18271241737883186419
13544592 145 18260546680430516063
13583140 156 17701815716497261665
13675066 3 18041284352558322641
138480 1 18411139126123866298
14178342 30 17696452350142562970
14790565 3 16898778182352371872
14863182 85 17974862975267258374
14866123 147 17764030168646910825
15042514 8 17763466115235196550
15196674 1 18265614458161126681
15352361 1 18338799992632477438
15375358 24 18263358260359017673
15442244 35 18341055129361263409
17492 89 18339644563507426299
18186145 218 17749380481982354805
19591789 44 17186165266806657033
20403669 9 18197783198137753734
20645477 70 18409724097081213887
20681651 13 17773885388025917835
20832881 197 18262802835167102659
21065198 57 18410013264686983103
21065199 12 18263647436570487451
21279426 13 18191580861856501845
21478907 32 18050567348542263450
221490 88 18408609188322612378
23559900 14 18410569583247842280
3004659 81 18041284249500797590
314173 41 18337393730071561830
335352 9 18266178336207000085
3421961 26 18412544306236985434
5104073 3 18337107990086513833
5207 123 18269553836503644430
6443956 14 18337676313017628390
9709674 26 18408885157035269919

> <PUBCHEM_SHAPE_MULTIPOLES>
383.79
9.4
3.84
0.76
3.09
0.61
0.05
5.35
-0.81
-4.63
0.17
0.47
0.12
1

> <PUBCHEM_SHAPE_SELFOVERLAP>
819.472

> <PUBCHEM_SHAPE_VOLUME>
212

> <PUBCHEM_COORDINATE_TYPE>
2
5
10

$$$$
