135764862
  -OEChem-03292013293D

 34 35  0     1  0  0  0  0  0999 V2000
    4.2348    1.8482   -0.0314 P   0  0  0  0  0  0  0  0  0  0  0  0
    0.5136   -1.4437   -0.3383 O   0  0  0  0  0  0  0  0  0  0  0  0
    3.2990    0.6693    0.5609 O   0  0  0  0  0  0  0  0  0  0  0  0
   -1.0026   -3.3471   -1.4240 O   0  0  0  0  0  0  0  0  0  0  0  0
   -4.3368    2.7026    0.6504 O   0  0  0  0  0  0  0  0  0  0  0  0
    2.2447   -3.4308    0.2023 O   0  0  0  0  0  0  0  0  0  0  0  0
    3.1950    2.8088   -0.8130 O   0  0  0  0  0  0  0  0  0  0  0  0
    5.0292    1.1073   -1.2293 O   0  0  0  0  0  0  0  0  0  0  0  0
    5.1075    2.5343    0.9785 O   0  0  0  0  0  0  0  0  0  0  0  0
   -1.4724   -0.7954    0.7734 N   0  0  0  0  0  0  0  0  0  0  0  0
   -2.6689    0.6452    1.9976 N   0  0  0  0  0  0  0  0  0  0  0  0
   -2.0498   -0.0605   -1.4631 N   0  0  0  0  0  0  0  0  0  0  0  0
   -3.5744    1.7972   -1.3619 N   0  0  0  0  0  0  0  0  0  0  0  0
   -0.5756   -1.8838    0.4683 C   0  0  1  0  0  0  0  0  0  0  0  0
    1.6590   -1.0861    0.4252 C   0  0  2  0  0  0  0  0  0  0  0  0
   -2.1230    0.0102   -0.1139 C   0  0  0  0  0  0  0  0  0  0  0  0
   -2.8472    0.8821    0.6665 C   0  0  0  0  0  0  0  0  0  0  0  0
    2.4440   -0.0279   -0.3337 C   0  0  0  0  0  0  0  0  0  0  0  0
   -1.8330   -0.3744    2.0303 C   0  0  0  0  0  0  0  0  0  0  0  0
   -1.3027   -2.9731   -0.2945 C   0  0  0  0  0  0  0  0  0  0  0  0
   -3.6636    1.8862    0.0338 C   0  0  0  0  0  0  0  0  0  0  0  0
    2.5124   -2.3181    0.6446 C   0  0  0  0  0  0  0  0  0  0  0  0
   -2.7894    0.8493   -2.0286 C   0  0  0  0  0  0  0  0  0  0  0  0
   -0.2288   -2.3378    1.4051 H   0  0  0  0  0  0  0  0  0  0  0  0
    1.3735   -0.6961    1.4104 H   0  0  0  0  0  0  0  0  0  0  0  0
    1.7531    0.6862   -0.7951 H   0  0  0  0  0  0  0  0  0  0  0  0
    3.0359   -0.4831   -1.1354 H   0  0  0  0  0  0  0  0  0  0  0  0
   -1.4557   -0.8464    2.9274 H   0  0  0  0  0  0  0  0  0  0  0  0
   -2.1431   -3.4454    0.2443 H   0  0  0  0  0  0  0  0  0  0  0  0
    3.4174   -2.1623    1.2571 H   0  0  0  0  0  0  0  0  0  0  0  0
   -4.1096    2.4585   -1.9174 H   0  0  0  0  0  0  0  0  0  0  0  0
   -2.8517    0.9408   -3.1240 H   0  0  0  0  0  0  0  0  0  0  0  0
    3.5254    3.6432   -1.2089 H   0  0  0  0  0  0  0  0  0  0  0  0
    5.7404    1.5929   -1.6987 H   0  0  0  0  0  0  0  0  0  0  0  0
  1  3  1  0  0  0  0
  1  7  1  0  0  0  0
  1  8  1  0  0  0  0
  1  9  2  0  0  0  0
  2 14  1  0  0  0  0
  2 15  1  0  0  0  0
  3 18  1  0  0  0  0
  4 20  2  0  0  0  0
  5 21  2  0  0  0  0
  6 22  2  0  0  0  0
  7 33  1  0  0  0  0
  8 34  1  0  0  0  0
 10 14  1  0  0  0  0
 10 16  1  0  0  0  0
 10 19  1  0  0  0  0
 11 17  1  0  0  0  0
 11 19  2  0  0  0  0
 12 16  1  0  0  0  0
 12 23  2  0  0  0  0
 13 21  1  0  0  0  0
 13 23  1  0  0  0  0
 13 31  1  0  0  0  0
 14 20  1  0  0  0  0
 14 24  1  0  0  0  0
 15 18  1  0  0  0  0
 15 22  1  0  0  0  0
 15 25  1  0  0  0  0
 16 17  2  0  0  0  0
 17 21  1  0  0  0  0
 18 26  1  0  0  0  0
 18 27  1  0  0  0  0
 19 28  1  0  0  0  0
 20 29  1  0  0  0  0
 22 30  1  0  0  0  0
 23 32  1  0  0  0  0
M  END
> <PUBCHEM_COMPOUND_CID>
135764862

> <PUBCHEM_CONFORMER_RMSD>
0.8

> <PUBCHEM_CONFORMER_DIVERSEORDER>
1
48
72
14
77
64
67
20
18
41
60
22
54
26
75
6
52
61
46
80
44
12
30
71
37
33
43
36
32
73
70
29
78
40
17
55
58
76
57
63
81
51
50
35
42
31
15
49
4
47
69
74
23
66
68
53
27
13
38
25
34
19
3
56
8
21
65
59
9
79
16
39
45
24
62
28
5
7
11
10
2

> <PUBCHEM_MMFF94_PARTIAL_CHARGES>
30
1 1.51
10 0.05
11 -0.57
12 -0.58
13 -0.49
14 0.6
15 0.34
16 -0.03
17 0.14
18 0.28
19 0.04
2 -0.56
20 0.45
21 0.72
22 0.45
23 0.45
28 0.15
29 0.06
3 -0.55
30 0.06
31 0.37
32 0.06
33 0.5
34 0.5
4 -0.57
5 -0.57
6 -0.57
7 -0.77
8 -0.77
9 -0.7

> <PUBCHEM_EFFECTIVE_ROTOR_COUNT>
8

> <PUBCHEM_PHARMACOPHORE_FEATURES>
12
1 13 donor
1 2 acceptor
1 4 acceptor
1 5 acceptor
1 6 acceptor
1 7 acceptor
1 8 acceptor
1 9 acceptor
3 10 11 19 cation
4 1 7 8 9 anion
5 10 11 16 17 19 rings
6 12 13 16 17 21 23 rings

> <PUBCHEM_HEAVY_ATOM_COUNT>
23

> <PUBCHEM_ATOM_DEF_STEREO_COUNT>
2

> <PUBCHEM_ATOM_UDEF_STEREO_COUNT>
0

> <PUBCHEM_BOND_DEF_STEREO_COUNT>
0

> <PUBCHEM_BOND_UDEF_STEREO_COUNT>
0

> <PUBCHEM_ISOTOPIC_ATOM_COUNT>
0

> <PUBCHEM_COMPONENT_COUNT>
1

> <PUBCHEM_CACTVS_TAUTO_COUNT>
-1

> <PUBCHEM_CONFORMER_ID>
08179B7E00000001

> <PUBCHEM_MMFF94_ENERGY>
5.0453

> <PUBCHEM_FEATURE_SELFOVERLAP>
61.092

> <PUBCHEM_SHAPE_FINGERPRINT>
10871710 139 17975423730028310772
11552529 35 15576413582204000168
11582403 64 16374899610614809647
11640471 11 17988638541276121947
11725454 13 16880162574135601991
12173636 292 18059589000198516395
12633257 1 16298394586188994180
12788726 201 18123449829594181527
13134695 92 17758111497523723298
13583140 156 17749667372712989947
14142880 1 18335136552921281791
14251751 93 18263926721040199480
15295992 7 17824550655994334219
15342168 16 18410294670891735877
1813 80 17481996627461850438
19930381 70 18336825304061023481
21033648 29 16516528772893359101
21475661 188 17538278441522924293
21756936 100 17560257880508300226
22907989 373 17845647170185607727
27216 239 18114467854676439401
283562 15 18049715519089279818
469060 322 17972605660436497139
474 4 18196929981324456051
5048184 11 18411138060666242636
5252454 2 18408893948954748064
57724786 102 18189060798148261076
9981440 41 18336816606657187474

> <PUBCHEM_SHAPE_MULTIPOLES>
410.3
8.85
3.88
1.6
7.86
1.82
0.01
-9.63
0.17
1.63
0.52
-1.36
-0.23
-0.29

> <PUBCHEM_SHAPE_SELFOVERLAP>
851.548

> <PUBCHEM_SHAPE_VOLUME>
234.5

> <PUBCHEM_COORDINATE_TYPE>
2
5
10

$$$$
