135742423
  -OEChem-03292013293D

 46 47  0     0  0  0  0  0  0999 V2000
   -4.7741   -2.4286    0.1221 O   0  0  0  0  0  0  0  0  0  0  0  0
    4.8221   -2.3886    0.3588 O   0  0  0  0  0  0  0  0  0  0  0  0
   -4.7890    2.3498   -0.2028 O   0  0  0  0  0  0  0  0  0  0  0  0
    4.8135    2.3898    0.0337 O   0  0  0  0  0  0  0  0  0  0  0  0
   -6.0804   -0.0772   -0.5387 O   0  0  0  0  0  0  0  0  0  0  0  0
    6.1045    0.0391    0.7255 O   0  0  0  0  0  0  0  0  0  0  0  0
    0.2075    0.0244    0.6883 N   0  0  0  0  0  0  0  0  0  0  0  0
   -0.1524   -0.0675   -0.6515 N   0  0  0  0  0  0  0  0  0  0  0  0
   -2.2015    0.0356    0.9412 C   0  0  0  0  0  0  0  0  0  0  0  0
    2.2621   -0.0747   -0.8468 C   0  0  0  0  0  0  0  0  0  0  0  0
   -4.1522   -1.2265    0.2780 C   0  0  0  0  0  0  0  0  0  0  0  0
    4.2002   -1.2228    0.0268 C   0  0  0  0  0  0  0  0  0  0  0  0
   -4.1598    1.1840    0.1147 C   0  0  0  0  0  0  0  0  0  0  0  0
    4.1961    1.1876   -0.1376 C   0  0  0  0  0  0  0  0  0  0  0  0
    4.8435    0.0015    0.2083 C   0  0  0  0  0  0  0  0  0  0  0  0
   -4.8075   -0.0403   -0.0518 C   0  0  0  0  0  0  0  0  0  0  0  0
   -2.8492   -1.1886    0.7746 C   0  0  0  0  0  0  0  0  0  0  0  0
    2.9095   -1.2609   -0.5007 C   0  0  0  0  0  0  0  0  0  0  0  0
   -2.8568    1.2217    0.6113 C   0  0  0  0  0  0  0  0  0  0  0  0
    2.9054    1.1494   -0.6653 C   0  0  0  0  0  0  0  0  0  0  0  0
   -0.8426    0.0740    1.4580 C   0  0  0  0  0  0  0  0  0  0  0  0
    0.8992   -0.1159   -1.4027 C   0  0  0  0  0  0  0  0  0  0  0  0
   -4.6179   -3.0801   -1.1371 C   0  0  0  0  0  0  0  0  0  0  0  0
    4.0941   -3.5958    0.1415 C   0  0  0  0  0  0  0  0  0  0  0  0
   -4.0559    3.5568   -0.0026 C   0  0  0  0  0  0  0  0  0  0  0  0
    4.0816    3.5539   -0.3453 C   0  0  0  0  0  0  0  0  0  0  0  0
   -2.3418   -2.1157    1.0316 H   0  0  0  0  0  0  0  0  0  0  0  0
    2.3575   -2.1805   -0.6659 H   0  0  0  0  0  0  0  0  0  0  0  0
   -2.3013    2.1415    0.7632 H   0  0  0  0  0  0  0  0  0  0  0  0
    2.3503    2.0361   -0.9536 H   0  0  0  0  0  0  0  0  0  0  0  0
   -0.7092    0.1486    2.5492 H   0  0  0  0  0  0  0  0  0  0  0  0
    0.7967   -0.1904   -2.4971 H   0  0  0  0  0  0  0  0  0  0  0  0
   -6.3695    0.8357   -0.7113 H   0  0  0  0  0  0  0  0  0  0  0  0
    6.3900   -0.8737    0.9046 H   0  0  0  0  0  0  0  0  0  0  0  0
    3.1913   -3.6400    0.7601 H   0  0  0  0  0  0  0  0  0  0  0  0
    3.8809   -3.7531   -0.9214 H   0  0  0  0  0  0  0  0  0  0  0  0
    4.7381   -4.4217    0.4611 H   0  0  0  0  0  0  0  0  0  0  0  0
   -5.0186   -2.4595   -1.9449 H   0  0  0  0  0  0  0  0  0  0  0  0
   -3.5630   -3.3050   -1.3239 H   0  0  0  0  0  0  0  0  0  0  0  0
   -5.1761   -4.0198   -1.1083 H   0  0  0  0  0  0  0  0  0  0  0  0
    3.1781    3.6784    0.2615 H   0  0  0  0  0  0  0  0  0  0  0  0
    3.8684    3.5650   -1.4196 H   0  0  0  0  0  0  0  0  0  0  0  0
   -3.8176    3.7141    1.0549 H   0  0  0  0  0  0  0  0  0  0  0  0
   -3.1679    3.6010   -0.6424 H   0  0  0  0  0  0  0  0  0  0  0  0
   -4.7071    4.3830   -0.3069 H   0  0  0  0  0  0  0  0  0  0  0  0
    4.7225    4.4178   -0.1404 H   0  0  0  0  0  0  0  0  0  0  0  0
  1 11  1  0  0  0  0
  1 23  1  0  0  0  0
  2 12  1  0  0  0  0
  2 24  1  0  0  0  0
  3 13  1  0  0  0  0
  3 25  1  0  0  0  0
  4 14  1  0  0  0  0
  4 26  1  0  0  0  0
  5 16  1  0  0  0  0
  5 33  1  0  0  0  0
  6 15  1  0  0  0  0
  6 34  1  0  0  0  0
  7  8  1  0  0  0  0
  7 21  2  0  0  0  0
  8 22  2  0  0  0  0
  9 17  2  0  0  0  0
  9 19  1  0  0  0  0
  9 21  1  0  0  0  0
 10 18  2  0  0  0  0
 10 20  1  0  0  0  0
 10 22  1  0  0  0  0
 11 16  2  0  0  0  0
 11 17  1  0  0  0  0
 12 15  2  0  0  0  0
 12 18  1  0  0  0  0
 13 16  1  0  0  0  0
 13 19  2  0  0  0  0
 14 15  1  0  0  0  0
 14 20  2  0  0  0  0
 17 27  1  0  0  0  0
 18 28  1  0  0  0  0
 19 29  1  0  0  0  0
 20 30  1  0  0  0  0
 21 31  1  0  0  0  0
 22 32  1  0  0  0  0
 23 38  1  0  0  0  0
 23 39  1  0  0  0  0
 23 40  1  0  0  0  0
 24 35  1  0  0  0  0
 24 36  1  0  0  0  0
 24 37  1  0  0  0  0
 25 43  1  0  0  0  0
 25 44  1  0  0  0  0
 25 45  1  0  0  0  0
 26 41  1  0  0  0  0
 26 42  1  0  0  0  0
 26 46  1  0  0  0  0
M  END
> <PUBCHEM_COMPOUND_CID>
135742423

> <PUBCHEM_CONFORMER_RMSD>
0.8

> <PUBCHEM_CONFORMER_DIVERSEORDER>
1
15
26
12
20
13
16
5
14
34
25
4
22
35
2
30
31
7
9
19
18
32
28
21
33
3
29
27
17
8
24
6
10
23
11

> <PUBCHEM_MMFF94_PARTIAL_CHARGES>
34
1 -0.36
10 0.09
11 0.08
12 0.08
13 0.08
14 0.08
15 0.08
16 0.08
17 -0.15
18 -0.15
19 -0.15
2 -0.36
20 -0.15
21 0.3
22 0.3
23 0.28
24 0.28
25 0.28
26 0.28
27 0.15
28 0.15
29 0.15
3 -0.36
30 0.15
31 0.06
32 0.06
33 0.45
34 0.45
4 -0.36
5 -0.53
6 -0.53
7 -0.45
8 -0.45
9 0.09

> <PUBCHEM_EFFECTIVE_ROTOR_COUNT>
7

> <PUBCHEM_PHARMACOPHORE_FEATURES>
10
1 1 acceptor
1 2 acceptor
1 3 acceptor
1 4 acceptor
1 5 donor
1 6 donor
1 7 acceptor
1 8 acceptor
6 10 12 14 15 18 20 rings
6 9 11 13 16 17 19 rings

> <PUBCHEM_HEAVY_ATOM_COUNT>
26

> <PUBCHEM_ATOM_DEF_STEREO_COUNT>
0

> <PUBCHEM_ATOM_UDEF_STEREO_COUNT>
0

> <PUBCHEM_BOND_DEF_STEREO_COUNT>
2

> <PUBCHEM_BOND_UDEF_STEREO_COUNT>
0

> <PUBCHEM_ISOTOPIC_ATOM_COUNT>
0

> <PUBCHEM_COMPONENT_COUNT>
1

> <PUBCHEM_CACTVS_TAUTO_COUNT>
-1

> <PUBCHEM_CONFORMER_ID>
081743D700000001

> <PUBCHEM_MMFF94_ENERGY>
128.6657

> <PUBCHEM_FEATURE_SELFOVERLAP>
52.217

> <PUBCHEM_SHAPE_FINGERPRINT>
10595046 47 18410856607042750397
11405975 8 18337678511771728721
12107183 9 17977948986188598770
12403259 118 18413102875265937384
13167823 11 18410293605455204731
13533116 47 18408045091412683906
13583140 156 18060129951213286002
13911987 19 17131838698200372605
14251764 38 18409736152997002036
14347332 77 18411416246172725891
15183329 4 18334859376900905283
15250474 111 18342169011707421591
15788980 27 18186807980215979491
17492 89 18410580582269418210
17844677 252 18410864243362948233
19489759 90 18409167714417442977
20157964 124 18410013260244446196
20511986 3 18340193107728599587
20715895 44 18125725578235082833
21065198 57 18409732820228292348
21315763 129 18409448098515015656
21315764 268 18334856095841914125
22393880 68 18341346525638328326
23402539 116 18260828241559793151
23559900 14 18269556044391160642
34797466 226 17988656223604050637
4073 2 18113907086730032418
4214541 1 18409451349725922969
439807 62 18269552913893479335
5104073 3 18410020909475595657
5283173 99 18338797814878265329
5326457 24 18410572872966554815
5924683 9 18410855477930698799
633830 44 17023199205280543563
67856867 119 18411419544354116360
7495541 125 17775003543736934554
77296 10 18411138021731630819
9971528 1 17749114391631343852

> <PUBCHEM_SHAPE_MULTIPOLES>
489.89
15.34
3.77
1.02
0.44
0.5
0.02
-0.58
0.21
-0.41
0.46
0.22
-0.18
-0.98

> <PUBCHEM_SHAPE_SELFOVERLAP>
1041.49

> <PUBCHEM_SHAPE_VOLUME>
276.7

> <PUBCHEM_COORDINATE_TYPE>
2
5
10

$$$$
