135784
  -OEChem-03292013323D

 54 56  0     1  0  0  0  0  0999 V2000
   -6.6431   -1.2811    0.6553 S   0  0  0  0  0  0  0  0  0  0  0  0
   -4.6898   -2.2793   -1.7365 O   0  0  0  0  0  0  0  0  0  0  0  0
   -7.4708   -2.5389    0.0116 O   0  0  0  0  0  0  0  0  0  0  0  0
   -6.8689   -0.1345   -0.2200 O   0  0  0  0  0  0  0  0  0  0  0  0
   -7.0307   -1.1910    2.0599 O   0  0  0  0  0  0  0  0  0  0  0  0
   -0.5262   -0.8165    1.3030 O   0  0  0  0  0  0  0  0  0  0  0  0
    1.6448   -1.4170   -1.9434 O   0  0  0  0  0  0  0  0  0  0  0  0
    3.5095    0.9126    1.0425 O   0  0  0  0  0  0  0  0  0  0  0  0
    6.1277    0.9706    1.0232 O   0  0  0  0  0  0  0  0  0  0  0  0
   -1.6620    5.8302    0.1853 O   0  0  0  0  0  0  0  0  0  0  0  0
   -5.0281   -1.7452    0.5539 N   0  0  0  0  0  0  0  0  0  0  0  0
   -2.0001   -0.9574   -0.4811 N   0  0  0  0  0  0  0  0  0  0  0  0
    3.4860   -0.7085   -0.6755 N   0  0  0  0  0  0  0  0  0  0  0  0
    1.3463    0.2775   -0.4166 N   0  0  0  0  0  0  0  0  0  0  0  0
    6.1802   -1.1655    0.0855 N   0  0  0  0  0  0  0  0  0  0  0  0
   -2.9559   -1.8756    0.1625 C   0  0  1  0  0  0  0  0  0  0  0  0
   -3.8337   -1.2212    1.2506 C   0  0  0  0  0  0  0  0  0  0  0  0
   -4.2984   -2.0573   -0.6144 C   0  0  0  0  0  0  0  0  0  0  0  0
   -0.0575    0.4729   -0.6966 C   0  0  1  0  0  0  0  0  0  0  0  0
   -0.8528   -0.5042    0.1594 C   0  0  0  0  0  0  0  0  0  0  0  0
    4.3635   -1.5867   -1.4465 C   0  0  0  0  0  0  0  0  0  0  0  0
    5.4039   -2.2143   -0.5455 C   0  0  0  0  0  0  0  0  0  0  0  0
   -0.4855    1.9026   -0.4618 C   0  0  0  0  0  0  0  0  0  0  0  0
    2.1156   -0.6760   -1.0755 C   0  0  0  0  0  0  0  0  0  0  0  0
    4.0788    0.1118    0.3079 C   0  0  0  0  0  0  0  0  0  0  0  0
    7.5865   -1.4238    0.3458 C   0  0  0  0  0  0  0  0  0  0  0  0
    5.5748    0.0105    0.4984 C   0  0  0  0  0  0  0  0  0  0  0  0
   -0.9594    2.6729   -1.5238 C   0  0  0  0  0  0  0  0  0  0  0  0
   -0.4070    2.4524    0.8178 C   0  0  0  0  0  0  0  0  0  0  0  0
    7.7851   -2.1275    1.6724 C   0  0  0  0  0  0  0  0  0  0  0  0
   -1.3546    3.9928   -1.3064 C   0  0  0  0  0  0  0  0  0  0  0  0
   -0.8021    3.7723    1.0354 C   0  0  0  0  0  0  0  0  0  0  0  0
   -1.2759    4.5424   -0.0268 C   0  0  0  0  0  0  0  0  0  0  0  0
   -2.4971   -2.8300    0.4422 H   0  0  0  0  0  0  0  0  0  0  0  0
   -3.7127   -1.6273    2.2580 H   0  0  0  0  0  0  0  0  0  0  0  0
   -3.8168   -0.1270    1.2861 H   0  0  0  0  0  0  0  0  0  0  0  0
   -2.1863   -0.6267   -1.4250 H   0  0  0  0  0  0  0  0  0  0  0  0
   -0.2173    0.2141   -1.7512 H   0  0  0  0  0  0  0  0  0  0  0  0
    3.7909   -2.3719   -1.9500 H   0  0  0  0  0  0  0  0  0  0  0  0
    4.8378   -0.9699   -2.2200 H   0  0  0  0  0  0  0  0  0  0  0  0
    6.0611   -2.8616   -1.1352 H   0  0  0  0  0  0  0  0  0  0  0  0
    4.9396   -2.8118    0.2472 H   0  0  0  0  0  0  0  0  0  0  0  0
    1.7638    0.8186    0.3321 H   0  0  0  0  0  0  0  0  0  0  0  0
    8.1198   -0.4667    0.3728 H   0  0  0  0  0  0  0  0  0  0  0  0
    8.0096   -2.0086   -0.4778 H   0  0  0  0  0  0  0  0  0  0  0  0
   -8.4500   -2.4263   -0.0165 H   0  0  0  0  0  0  0  0  0  0  0  0
   -1.0267    2.2587   -2.5262 H   0  0  0  0  0  0  0  0  0  0  0  0
   -0.0367    1.8717    1.6581 H   0  0  0  0  0  0  0  0  0  0  0  0
    7.3835   -1.5328    2.4996 H   0  0  0  0  0  0  0  0  0  0  0  0
    7.2782   -3.0980    1.6835 H   0  0  0  0  0  0  0  0  0  0  0  0
    8.8500   -2.2970    1.8590 H   0  0  0  0  0  0  0  0  0  0  0  0
   -1.7230    4.5878   -2.1376 H   0  0  0  0  0  0  0  0  0  0  0  0
   -0.7352    4.1891    2.0366 H   0  0  0  0  0  0  0  0  0  0  0  0
   -1.5412    6.0444    1.1263 H   0  0  0  0  0  0  0  0  0  0  0  0
  1  3  1  0  0  0  0
  1  4  2  0  0  0  0
  1  5  2  0  0  0  0
  1 11  1  0  0  0  0
  2 18  2  0  0  0  0
  3 46  1  0  0  0  0
  6 20  2  0  0  0  0
  7 24  2  0  0  0  0
  8 25  2  0  0  0  0
  9 27  2  0  0  0  0
 10 33  1  0  0  0  0
 10 54  1  0  0  0  0
 11 17  1  0  0  0  0
 11 18  1  0  0  0  0
 12 16  1  0  0  0  0
 12 20  1  0  0  0  0
 12 37  1  0  0  0  0
 13 21  1  0  0  0  0
 13 24  1  0  0  0  0
 13 25  1  0  0  0  0
 14 19  1  0  0  0  0
 14 24  1  0  0  0  0
 14 43  1  0  0  0  0
 15 22  1  0  0  0  0
 15 26  1  0  0  0  0
 15 27  1  0  0  0  0
 16 17  1  0  0  0  0
 16 18  1  0  0  0  0
 16 34  1  0  0  0  0
 17 35  1  0  0  0  0
 17 36  1  0  0  0  0
 19 20  1  0  0  0  0
 19 23  1  0  0  0  0
 19 38  1  0  0  0  0
 21 22  1  0  0  0  0
 21 39  1  0  0  0  0
 21 40  1  0  0  0  0
 22 41  1  0  0  0  0
 22 42  1  0  0  0  0
 23 28  2  0  0  0  0
 23 29  1  0  0  0  0
 25 27  1  0  0  0  0
 26 30  1  0  0  0  0
 26 44  1  0  0  0  0
 26 45  1  0  0  0  0
 28 31  1  0  0  0  0
 28 47  1  0  0  0  0
 29 32  2  0  0  0  0
 29 48  1  0  0  0  0
 30 49  1  0  0  0  0
 30 50  1  0  0  0  0
 30 51  1  0  0  0  0
 31 33  2  0  0  0  0
 31 52  1  0  0  0  0
 32 33  1  0  0  0  0
 32 53  1  0  0  0  0
M  END
> <PUBCHEM_COMPOUND_CID>
135784

> <PUBCHEM_CONFORMER_RMSD>
1

> <PUBCHEM_CONFORMER_DIVERSEORDER>
1
31
22
21
58
8
26
27
46
33
34
20
43
53
32
51
12
60
38
52
57
36
9
13
7
39
6
25
55
45
30
14
48
42
11
41
16
50
19
40
23
37
59
35
56
49
61
28
44
54
5
47
18
29
10
17
15
24
3
4
2

> <PUBCHEM_MMFF94_PARTIAL_CHARGES>
40
1 1.62
10 -0.53
11 -0.68
12 -0.65
13 -0.42
14 -0.73
15 -0.66
16 0.28
17 0.31
18 0.75
19 0.5
2 -0.57
20 0.57
21 0.3
22 0.3
23 -0.14
24 0.69
25 0.63
26 0.3
27 0.63
28 -0.15
29 -0.15
3 -0.68
31 -0.15
32 -0.15
33 0.08
37 0.37
4 -0.65
43 0.37
46 0.5
47 0.15
48 0.15
5 -0.65
52 0.15
53 0.15
54 0.45
6 -0.57
7 -0.57
8 -0.57
9 -0.57

> <PUBCHEM_EFFECTIVE_ROTOR_COUNT>
10.4

> <PUBCHEM_PHARMACOPHORE_FEATURES>
15
1 10 donor
1 12 donor
1 14 donor
1 2 acceptor
1 3 acceptor
1 4 acceptor
1 5 acceptor
1 6 acceptor
1 7 acceptor
1 8 acceptor
1 9 acceptor
4 1 3 4 5 anion
4 11 16 17 18 rings
6 13 15 21 22 25 27 rings
6 23 28 29 31 32 33 rings

> <PUBCHEM_HEAVY_ATOM_COUNT>
33

> <PUBCHEM_ATOM_DEF_STEREO_COUNT>
2

> <PUBCHEM_ATOM_UDEF_STEREO_COUNT>
0

> <PUBCHEM_BOND_DEF_STEREO_COUNT>
0

> <PUBCHEM_BOND_UDEF_STEREO_COUNT>
0

> <PUBCHEM_ISOTOPIC_ATOM_COUNT>
0

> <PUBCHEM_COMPONENT_COUNT>
1

> <PUBCHEM_CACTVS_TAUTO_COUNT>
8

> <PUBCHEM_CONFORMER_ID>
0002126800000001

> <PUBCHEM_MMFF94_ENERGY>
64.0341

> <PUBCHEM_FEATURE_SELFOVERLAP>
76.197

> <PUBCHEM_SHAPE_FINGERPRINT>
11007060 377 11386371447844255719
11331351 85 18342741840802554489
11456790 92 18188790417984128331
11646440 116 18261402173544481291
12107698 1 18408601457929904474
12166972 35 17240767310763484262
12516196 113 18411140272627219191
12539745 222 18261386682277737970
12788726 201 18260822653311787635
12977781 61 17699017184236944134
13004483 165 18411704308964299260
13383665 225 18265639644635646612
13383668 254 15625639662603570266
13540713 4 17771352976792870302
13590594 115 18410019858032014577
14028597 1 17822293431547439651
14068700 675 18260270750351523876
14150022 121 18059861627717067360
14347332 77 18336823109596284690
14394314 77 18411982464412006907
15021287 119 18270122435383785599
15131766 46 16413207897544832304
15183329 4 14273731858900401542
16090146 7 16805616841239976250
17980427 23 17417817309346043623
19301679 30 18337399231534609267
20238998 120 18341333366175583113
2132832 1 18113910363969512172
23845131 108 17618791258472048817
283562 15 18261393299835956154
3103668 31 18261388889828274701
4258327 124 11599426053763180786
4408954 87 17339031563499322201
5080951 261 18269542850019408229
508180 173 15213012744066354846
5219985 9 18409733984348916119
5969126 39 18411132515625775228
6004065 56 18267026235761074947
6669772 16 8646502815982446057
6698420 124 17481431478532594528

> <PUBCHEM_SHAPE_MULTIPOLES>
605.25
19.12
5.16
1.51
8.07
10.02
-0.07
-22.15
6.83
-5.87
-0.16
-0.03
-0.28
0.56

> <PUBCHEM_SHAPE_SELFOVERLAP>
1262.138

> <PUBCHEM_SHAPE_VOLUME>
343.2

> <PUBCHEM_COORDINATE_TYPE>
2
5
10

$$$$
