135783059
  -OEChem-03292013293D

 34 36  0     1  0  0  0  0  0999 V2000
    2.3996   -1.6670    1.1880 F   0  0  0  0  0  0  0  0  0  0  0  0
    4.0350    0.4131   -2.1817 O   0  0  0  0  0  0  0  0  0  0  0  0
    4.4904    0.5886    2.1645 O   0  0  0  0  0  0  0  0  0  0  0  0
   -4.4057    1.9281    0.3118 O   0  0  0  0  0  0  0  0  0  0  0  0
   -0.2153    0.3100   -0.1748 N   0  0  0  0  0  0  0  0  0  0  0  0
   -1.4557    2.1574    0.0491 N   0  0  0  0  0  0  0  0  0  0  0  0
   -1.9366   -1.3908   -0.1126 N   0  0  0  0  0  0  0  0  0  0  0  0
   -4.0933   -0.3804    0.1481 N   0  0  0  0  0  0  0  0  0  0  0  0
   -3.8718   -2.7191   -0.0092 N   0  0  0  0  0  0  0  0  0  0  0  0
    1.0155   -0.5533   -0.3408 C   0  0  2  0  0  0  0  0  0  0  0  0
    3.2765    0.2492    0.1347 C   0  0  2  0  0  0  0  0  0  0  0  0
    2.0585   -0.4069    0.7859 C   0  0  2  0  0  0  0  0  0  0  0  0
    3.2525   -0.3393   -1.2745 C   0  0  1  0  0  0  0  0  0  0  0  0
    1.7754   -0.2525   -1.6467 C   0  0  0  0  0  0  0  0  0  0  0  0
    4.5764   -0.0079    0.8816 C   0  0  0  0  0  0  0  0  0  0  0  0
   -1.5095   -0.1091   -0.0780 C   0  0  0  0  0  0  0  0  0  0  0  0
   -0.2344    1.6810   -0.0932 C   0  0  0  0  0  0  0  0  0  0  0  0
   -2.2434    1.0443    0.0580 C   0  0  0  0  0  0  0  0  0  0  0  0
   -3.6718    0.9561    0.1865 C   0  0  0  0  0  0  0  0  0  0  0  0
   -3.2423   -1.5015    0.0031 C   0  0  0  0  0  0  0  0  0  0  0  0
    0.6438   -1.5847   -0.3606 H   0  0  0  0  0  0  0  0  0  0  0  0
    3.1125    1.3347    0.0836 H   0  0  0  0  0  0  0  0  0  0  0  0
    1.6957    0.1368    1.6629 H   0  0  0  0  0  0  0  0  0  0  0  0
    3.5987   -1.3799   -1.2790 H   0  0  0  0  0  0  0  0  0  0  0  0
    1.5241   -0.9754   -2.4309 H   0  0  0  0  0  0  0  0  0  0  0  0
    1.5364    0.7372   -2.0546 H   0  0  0  0  0  0  0  0  0  0  0  0
    5.4210    0.4401    0.3480 H   0  0  0  0  0  0  0  0  0  0  0  0
    4.7716   -1.0785    1.0017 H   0  0  0  0  0  0  0  0  0  0  0  0
    3.8991    0.0355   -3.0674 H   0  0  0  0  0  0  0  0  0  0  0  0
    0.6674    2.2758   -0.1412 H   0  0  0  0  0  0  0  0  0  0  0  0
    5.3335    0.4166    2.6173 H   0  0  0  0  0  0  0  0  0  0  0  0
   -5.0903   -0.5575    0.2311 H   0  0  0  0  0  0  0  0  0  0  0  0
   -3.3463   -3.5808   -0.1087 H   0  0  0  0  0  0  0  0  0  0  0  0
   -4.8791   -2.7947    0.0807 H   0  0  0  0  0  0  0  0  0  0  0  0
  1 12  1  0  0  0  0
  2 13  1  0  0  0  0
  2 29  1  0  0  0  0
  3 15  1  0  0  0  0
  3 31  1  0  0  0  0
  4 19  2  0  0  0  0
  5 10  1  0  0  0  0
  5 16  1  0  0  0  0
  5 17  1  0  0  0  0
  6 17  2  0  0  0  0
  6 18  1  0  0  0  0
  7 16  1  0  0  0  0
  7 20  2  0  0  0  0
  8 19  1  0  0  0  0
  8 20  1  0  0  0  0
  8 32  1  0  0  0  0
  9 20  1  0  0  0  0
  9 33  1  0  0  0  0
  9 34  1  0  0  0  0
 10 12  1  0  0  0  0
 10 14  1  0  0  0  0
 10 21  1  0  0  0  0
 11 12  1  0  0  0  0
 11 13  1  0  0  0  0
 11 15  1  0  0  0  0
 11 22  1  0  0  0  0
 12 23  1  0  0  0  0
 13 14  1  0  0  0  0
 13 24  1  0  0  0  0
 14 25  1  0  0  0  0
 14 26  1  0  0  0  0
 15 27  1  0  0  0  0
 15 28  1  0  0  0  0
 16 18  2  0  0  0  0
 17 30  1  0  0  0  0
 18 19  1  0  0  0  0
M  END
> <PUBCHEM_COMPOUND_CID>
135783059

> <PUBCHEM_CONFORMER_RMSD>
0.6

> <PUBCHEM_CONFORMER_DIVERSEORDER>
1
26
32
23
22
9
17
29
25
6
28
18
2
3
8
31
16
30
19
11
24
13
20
27
4
21
7
5
15
12
10
14

> <PUBCHEM_MMFF94_PARTIAL_CHARGES>
24
1 -0.34
10 0.26
12 0.34
13 0.28
15 0.28
16 -0.03
17 0.04
18 0.14
19 0.72
2 -0.68
20 0.56
29 0.4
3 -0.68
30 0.15
31 0.4
32 0.37
33 0.4
34 0.4
4 -0.57
5 0.05
6 -0.57
7 -0.58
8 -0.49
9 -0.85

> <PUBCHEM_EFFECTIVE_ROTOR_COUNT>
3

> <PUBCHEM_PHARMACOPHORE_FEATURES>
11
1 2 acceptor
1 2 donor
1 3 acceptor
1 3 donor
1 4 acceptor
1 8 donor
1 9 donor
3 5 6 17 cation
5 10 11 12 13 14 rings
5 5 6 16 17 18 rings
6 7 8 16 18 19 20 rings

> <PUBCHEM_HEAVY_ATOM_COUNT>
20

> <PUBCHEM_ATOM_DEF_STEREO_COUNT>
3

> <PUBCHEM_ATOM_UDEF_STEREO_COUNT>
1

> <PUBCHEM_BOND_DEF_STEREO_COUNT>
0

> <PUBCHEM_BOND_UDEF_STEREO_COUNT>
0

> <PUBCHEM_ISOTOPIC_ATOM_COUNT>
0

> <PUBCHEM_COMPONENT_COUNT>
1

> <PUBCHEM_CACTVS_TAUTO_COUNT>
-1

> <PUBCHEM_CONFORMER_ID>
0817E29300000001

> <PUBCHEM_MMFF94_ENERGY>
48.0723

> <PUBCHEM_FEATURE_SELFOVERLAP>
56

> <PUBCHEM_SHAPE_FINGERPRINT>
10062212 137 17967814959503891915
10319926 262 18271227341163165626
11132069 177 18412827967009164717
11370993 144 16845310318851115259
11552529 35 14188716606428349335
12173636 292 18194962938001206077
12236239 1 17821734922832632468
12553582 1 18265623254713526459
12616971 3 17313105237184705804
13140716 1 18340208591660604313
13214271 11 18202556293913879229
13296908 3 18202569483568476287
13538477 17 18333735680343921071
13583140 156 18125128638305320872
13760787 19 18187655686527434439
13760787 5 16877664573605516054
14081887 123 18341606005918684936
14178342 30 18409726240296164459
14341114 328 18335415786073120960
15099037 37 18271519892264393903
15219456 202 17561084696141044334
15375358 24 17989482996308019661
15375462 189 18113903766625022563
15415430 112 18337685173587608909
15669948 3 18409170991551440303
16945 1 18339930307833862973
17349148 13 17240479204562743370
19026448 4 17632301176520990854
19050596 39 18040998431836799432
192875 21 17023179435926096076
200 152 16443339875388917796
20279233 1 17917993853981602366
20281475 54 18260547831386922599
20510252 161 18057886836198611097
21065201 7 18413113840064119646
23175994 123 13840264771247495407
23366157 5 17825954998563177733
23402539 116 18409161121658539286
23532345 42 18271810167423177517
23557571 272 18273221923442410878
23559900 14 18199479783280869806
2838139 119 14044634202349605963
474 4 17024893673438592676
495365 180 16844155741278702359
5104073 3 18273213071457182138
573450 72 18187079559482447627
6049 1 17703801288462998516
633830 44 13829587465348534596
7615 1 17748828497138657676
77492 1 17749114391325368934
90127 26 16702029646857059001

> <PUBCHEM_SHAPE_MULTIPOLES>
361.8
9.34
1.91
1.35
1.04
0.28
0.18
0.29
-1.53
-2.8
-0.19
2.59
0
0.06

> <PUBCHEM_SHAPE_SELFOVERLAP>
785.699

> <PUBCHEM_SHAPE_VOLUME>
199.9

> <PUBCHEM_COORDINATE_TYPE>
2
5
10

$$$$
