135740394
  -OEChem-03292013293D

 32 34  0     1  0  0  0  0  0999 V2000
    1.8666   -0.0412    1.0534 O   0  0  0  0  0  0  0  0  0  0  0  0
    1.9836   -2.7280   -0.5592 O   0  0  0  0  0  0  0  0  0  0  0  0
    1.9760    0.6368   -1.8676 O   0  0  0  0  0  0  0  0  0  0  0  0
    4.1194    1.5334    1.6009 O   0  0  0  0  0  0  0  0  0  0  0  0
   -0.3385   -0.0895    0.2081 N   0  0  0  0  0  0  0  0  0  0  0  0
   -1.9303   -1.9175    0.5588 N   0  0  0  0  0  0  0  0  0  0  0  0
   -3.7538   -0.6714    0.2134 N   0  0  0  0  0  0  0  0  0  0  0  0
   -1.3312    2.0881   -0.2771 N   0  0  0  0  0  0  0  0  0  0  0  0
   -3.6494    2.2996   -0.4418 N   0  0  0  0  0  0  0  0  0  0  0  0
    1.4123   -1.4490   -0.8203 C   0  0  1  0  0  0  0  0  0  0  0  0
    0.8444   -0.8726    0.4749 C   0  0  1  0  0  0  0  0  0  0  0  0
    2.5204   -0.4790   -1.1745 C   0  0  2  0  0  0  0  0  0  0  0  0
    3.0246   -0.0640    0.2017 C   0  0  1  0  0  0  0  0  0  0  0  0
    3.7198    1.2839    0.2630 C   0  0  0  0  0  0  0  0  0  0  0  0
   -1.5847   -0.6255    0.2835 C   0  0  0  0  0  0  0  0  0  0  0  0
   -0.3322    1.2759   -0.0640 C   0  0  0  0  0  0  0  0  0  0  0  0
   -2.6877    0.1684    0.0690 C   0  0  0  0  0  0  0  0  0  0  0  0
   -2.6116    1.5647   -0.2306 C   0  0  0  0  0  0  0  0  0  0  0  0
   -3.2476   -1.9131    0.5085 C   0  0  0  0  0  0  0  0  0  0  0  0
    0.6661   -1.5652   -1.6132 H   0  0  0  0  0  0  0  0  0  0  0  0
    0.6337   -1.6588    1.2099 H   0  0  0  0  0  0  0  0  0  0  0  0
    3.3220   -0.9142   -1.7794 H   0  0  0  0  0  0  0  0  0  0  0  0
    3.6830   -0.8387    0.6151 H   0  0  0  0  0  0  0  0  0  0  0  0
    3.0501    2.0978   -0.0302 H   0  0  0  0  0  0  0  0  0  0  0  0
    4.6058    1.2958   -0.3792 H   0  0  0  0  0  0  0  0  0  0  0  0
    1.2596   -3.3208   -0.2945 H   0  0  0  0  0  0  0  0  0  0  0  0
    1.6152    0.3091   -2.7091 H   0  0  0  0  0  0  0  0  0  0  0  0
    0.6724    1.7188   -0.0755 H   0  0  0  0  0  0  0  0  0  0  0  0
    4.5664    2.3970    1.6101 H   0  0  0  0  0  0  0  0  0  0  0  0
   -4.7317   -0.4288    0.1245 H   0  0  0  0  0  0  0  0  0  0  0  0
   -3.8917   -2.7651    0.6740 H   0  0  0  0  0  0  0  0  0  0  0  0
   -3.3423    3.2596   -0.6337 H   0  0  0  0  0  0  0  0  0  0  0  0
  1 11  1  0  0  0  0
  1 13  1  0  0  0  0
  2 10  1  0  0  0  0
  2 26  1  0  0  0  0
  3 12  1  0  0  0  0
  3 27  1  0  0  0  0
  4 14  1  0  0  0  0
  4 29  1  0  0  0  0
  5 11  1  0  0  0  0
  5 15  1  0  0  0  0
  5 16  1  0  0  0  0
  6 15  1  0  0  0  0
  6 19  2  0  0  0  0
  7 17  1  0  0  0  0
  7 19  1  0  0  0  0
  7 30  1  0  0  0  0
  8 16  2  0  0  0  0
  8 18  1  0  0  0  0
  9 18  2  0  0  0  0
  9 32  1  0  0  0  0
 10 11  1  0  0  0  0
 10 12  1  0  0  0  0
 10 20  1  0  0  0  0
 11 21  1  0  0  0  0
 12 13  1  0  0  0  0
 12 22  1  0  0  0  0
 13 14  1  0  0  0  0
 13 23  1  0  0  0  0
 14 24  1  0  0  0  0
 14 25  1  0  0  0  0
 15 17  2  0  0  0  0
 16 28  1  0  0  0  0
 17 18  1  0  0  0  0
 19 31  1  0  0  0  0
M  END
> <PUBCHEM_COMPOUND_CID>
135740394

> <PUBCHEM_CONFORMER_RMSD>
0.6

> <PUBCHEM_CONFORMER_DIVERSEORDER>
1
11
12
5
6
9
13
4
14
10
3
7
2
8

> <PUBCHEM_MMFF94_PARTIAL_CHARGES>
26
1 -0.56
10 0.28
11 0.65
12 0.28
13 0.28
14 0.28
15 0.31
16 0.44
17 -0.24
18 0.75
19 0.04
2 -0.68
26 0.4
27 0.4
28 0.06
29 0.4
3 -0.68
30 0.27
31 0.15
32 0.4
4 -0.68
5 -0.5
6 -0.57
7 0.03
8 -0.66
9 -0.85

> <PUBCHEM_EFFECTIVE_ROTOR_COUNT>
3

> <PUBCHEM_PHARMACOPHORE_FEATURES>
15
1 1 acceptor
1 2 acceptor
1 2 donor
1 3 acceptor
1 3 donor
1 4 acceptor
1 4 donor
1 7 donor
1 9 donor
3 5 8 16 cation
3 6 7 19 cation
3 8 9 18 cation
5 1 10 11 12 13 rings
5 6 7 15 17 19 rings
6 5 8 15 16 17 18 rings

> <PUBCHEM_HEAVY_ATOM_COUNT>
19

> <PUBCHEM_ATOM_DEF_STEREO_COUNT>
4

> <PUBCHEM_ATOM_UDEF_STEREO_COUNT>
0

> <PUBCHEM_BOND_DEF_STEREO_COUNT>
0

> <PUBCHEM_BOND_UDEF_STEREO_COUNT>
0

> <PUBCHEM_ISOTOPIC_ATOM_COUNT>
0

> <PUBCHEM_COMPONENT_COUNT>
1

> <PUBCHEM_CACTVS_TAUTO_COUNT>
-1

> <PUBCHEM_CONFORMER_ID>
08173BEA00000001

> <PUBCHEM_MMFF94_ENERGY>
45.7019

> <PUBCHEM_FEATURE_SELFOVERLAP>
76.382

> <PUBCHEM_SHAPE_FINGERPRINT>
10608611 8 18412261696898252648
10646746 165 18409448081350762748
107287 299 17704072902015345486
10871710 139 16394926523578534080
11132069 177 18336547208822330001
11715629 250 18412827988309785039
12173636 292 18263079912609154685
12403259 415 18201720695674537512
12500047 106 18264490589704977181
12553582 1 18119546572263986643
12892183 10 18115852148959405000
13134695 92 14129331923382994502
13140716 1 17904489850170510475
13214271 11 18340479053792320741
13296908 3 17988932145272151087
13965767 371 17461709598045870885
14178342 30 18187644686910447953
15219456 202 18343582915103911338
15375358 24 18412537721814678737
16945 1 18335715982558898055
17980427 23 17968092075178981676
18186145 218 18201168649914742472
19010151 120 16588574422357964132
19049666 15 18270684147389145403
19786989 88 16988848293376305230
20279233 1 18342738494489813139
20510252 161 18412829054057988161
20525323 117 18408036321099735631
20645477 56 18335705979759589089
20645477 70 17489591112692057054
22802520 49 18198351653996051007
23227448 37 17623282085167114720
2334 1 18336272245332739443
23402539 116 18263070175258904694
23557571 272 18410863173984539860
23559900 14 18339360747915152166
2748010 2 18338246959547227839
495365 180 17701520840900755977
5104073 3 18410012104692425258
6049 1 18271542917489018334
633830 44 16199603492566790280
7097593 13 17680403599356360922
7364860 26 18197214746420474422
7615 1 17240769509612399892
77492 1 17167866369620978083
81228 2 18260844673983393929
90316 7 17458892773999471292
9709674 26 18340770334258820887
9925002 15 17334769172611473694

> <PUBCHEM_SHAPE_MULTIPOLES>
342.63
6.85
2.41
1.09
0.47
0.16
0.13
-1.65
-1.02
-1.03
0.13
1.06
-0.11
1.28

> <PUBCHEM_SHAPE_SELFOVERLAP>
749.58

> <PUBCHEM_SHAPE_VOLUME>
184.3

> <PUBCHEM_COORDINATE_TYPE>
2
5
10

$$$$
