135797
  -OEChem-03292013323D

 65 65  0     1  0  0  0  0  0999 V2000
    4.5190   -0.0448    0.3997 O   0  0  0  0  0  0  0  0  0  0  0  0
    0.5864   -0.1784    2.2041 O   0  0  0  0  0  0  0  0  0  0  0  0
   -1.7105   -1.7654    1.9747 O   0  0  0  0  0  0  0  0  0  0  0  0
    2.8631   -0.8232   -0.9885 O   0  0  0  0  0  0  0  0  0  0  0  0
   -1.5576   -6.0841   -1.1022 O   0  0  0  0  0  0  0  0  0  0  0  0
    2.4786    0.8932    0.5254 N   0  0  0  0  0  0  0  0  0  0  0  0
   -0.8519   -0.3051    0.3736 N   0  0  0  0  0  0  0  0  0  0  0  0
   -3.1853   -2.9859    0.0282 N   0  0  0  0  0  0  0  0  0  0  0  0
    0.6796    2.5797    0.5217 C   0  0  0  0  0  0  0  0  0  0  0  0
    1.4861    3.6522   -0.2374 C   0  0  0  0  0  0  0  0  0  0  0  0
    1.0908    1.1324    0.2249 C   0  0  2  0  0  0  0  0  0  0  0  0
   -2.8562   -1.5704   -0.1518 C   0  0  1  0  0  0  0  0  0  0  0  0
    0.2645    0.1660    1.0692 C   0  0  0  0  0  0  0  0  0  0  0  0
    1.3194    3.4519   -1.7464 C   0  0  0  0  0  0  0  0  0  0  0  0
    1.0636    5.0721    0.1420 C   0  0  0  0  0  0  0  0  0  0  0  0
   -4.0999   -0.6955    0.0670 C   0  0  0  0  0  0  0  0  0  0  0  0
   -1.7675   -1.2375    0.8656 C   0  0  0  0  0  0  0  0  0  0  0  0
    5.4313   -0.9919   -0.1673 C   0  0  0  0  0  0  0  0  0  0  0  0
    3.2494   -0.0643   -0.1057 C   0  0  0  0  0  0  0  0  0  0  0  0
   -3.8307    0.7792   -0.1222 C   0  0  0  0  0  0  0  0  0  0  0  0
   -2.1964   -3.8294   -0.6231 C   0  0  0  0  0  0  0  0  0  0  0  0
    5.5501   -0.7158   -1.6654 C   0  0  0  0  0  0  0  0  0  0  0  0
    6.7801   -0.8013    0.5229 C   0  0  0  0  0  0  0  0  0  0  0  0
    4.8920   -2.3989    0.0863 C   0  0  0  0  0  0  0  0  0  0  0  0
   -3.4295    1.5596    0.9622 C   0  0  0  0  0  0  0  0  0  0  0  0
   -3.9827    1.3602   -1.3812 C   0  0  0  0  0  0  0  0  0  0  0  0
   -2.5383   -5.2991   -0.4369 C   0  0  0  0  0  0  0  0  0  0  0  0
   -3.1808    2.9210    0.7876 C   0  0  0  0  0  0  0  0  0  0  0  0
   -3.7338    2.7215   -1.5557 C   0  0  0  0  0  0  0  0  0  0  0  0
   -3.3329    3.5019   -0.4713 C   0  0  0  0  0  0  0  0  0  0  0  0
   -0.3845    2.7006    0.2932 H   0  0  0  0  0  0  0  0  0  0  0  0
    0.7789    2.7688    1.5995 H   0  0  0  0  0  0  0  0  0  0  0  0
    2.5497    3.5494    0.0096 H   0  0  0  0  0  0  0  0  0  0  0  0
    0.9290    0.8952   -0.8324 H   0  0  0  0  0  0  0  0  0  0  0  0
   -2.4880   -1.3940   -1.1713 H   0  0  0  0  0  0  0  0  0  0  0  0
    0.2625    3.4372   -2.0339 H   0  0  0  0  0  0  0  0  0  0  0  0
    1.8052    4.2639   -2.2990 H   0  0  0  0  0  0  0  0  0  0  0  0
    1.7825    2.5202   -2.0846 H   0  0  0  0  0  0  0  0  0  0  0  0
    1.1954    5.2391    1.2161 H   0  0  0  0  0  0  0  0  0  0  0  0
    1.6667    5.8157   -0.3895 H   0  0  0  0  0  0  0  0  0  0  0  0
    0.0106    5.2505   -0.1012 H   0  0  0  0  0  0  0  0  0  0  0  0
    2.9089    1.4203    1.2796 H   0  0  0  0  0  0  0  0  0  0  0  0
   -4.9008   -1.0002   -0.6203 H   0  0  0  0  0  0  0  0  0  0  0  0
   -4.5036   -0.8519    1.0771 H   0  0  0  0  0  0  0  0  0  0  0  0
   -1.0115    0.0609   -0.5616 H   0  0  0  0  0  0  0  0  0  0  0  0
   -4.1011   -3.1793   -0.3773 H   0  0  0  0  0  0  0  0  0  0  0  0
   -1.1908   -3.6531   -0.2220 H   0  0  0  0  0  0  0  0  0  0  0  0
   -2.1433   -3.6138   -1.6981 H   0  0  0  0  0  0  0  0  0  0  0  0
    4.7069   -1.0724   -2.2623 H   0  0  0  0  0  0  0  0  0  0  0  0
    5.6532    0.3582   -1.8599 H   0  0  0  0  0  0  0  0  0  0  0  0
    6.4341   -1.2172   -2.0773 H   0  0  0  0  0  0  0  0  0  0  0  0
    6.6873   -0.9508    1.6047 H   0  0  0  0  0  0  0  0  0  0  0  0
    7.1470    0.2220    0.3823 H   0  0  0  0  0  0  0  0  0  0  0  0
    7.5358   -1.4955    0.1411 H   0  0  0  0  0  0  0  0  0  0  0  0
    4.5493   -2.5061    1.1222 H   0  0  0  0  0  0  0  0  0  0  0  0
    4.0595   -2.6905   -0.5588 H   0  0  0  0  0  0  0  0  0  0  0  0
    5.6759   -3.1458   -0.0867 H   0  0  0  0  0  0  0  0  0  0  0  0
   -3.3108    1.1220    1.9498 H   0  0  0  0  0  0  0  0  0  0  0  0
   -4.2918    0.7619   -2.2341 H   0  0  0  0  0  0  0  0  0  0  0  0
   -2.5402   -5.5718    0.6238 H   0  0  0  0  0  0  0  0  0  0  0  0
   -3.5178   -5.5350   -0.8663 H   0  0  0  0  0  0  0  0  0  0  0  0
   -2.8672    3.5284    1.6315 H   0  0  0  0  0  0  0  0  0  0  0  0
   -3.8506    3.1737   -2.5362 H   0  0  0  0  0  0  0  0  0  0  0  0
   -3.1368    4.5614   -0.6074 H   0  0  0  0  0  0  0  0  0  0  0  0
   -1.7988   -7.0163   -0.9671 H   0  0  0  0  0  0  0  0  0  0  0  0
  1 18  1  0  0  0  0
  1 19  1  0  0  0  0
  2 13  2  0  0  0  0
  3 17  2  0  0  0  0
  4 19  2  0  0  0  0
  5 27  1  0  0  0  0
  5 65  1  0  0  0  0
  6 11  1  0  0  0  0
  6 19  1  0  0  0  0
  6 42  1  0  0  0  0
  7 13  1  0  0  0  0
  7 17  1  0  0  0  0
  7 45  1  0  0  0  0
  8 12  1  0  0  0  0
  8 21  1  0  0  0  0
  8 46  1  0  0  0  0
  9 10  1  0  0  0  0
  9 11  1  0  0  0  0
  9 31  1  0  0  0  0
  9 32  1  0  0  0  0
 10 14  1  0  0  0  0
 10 15  1  0  0  0  0
 10 33  1  0  0  0  0
 11 13  1  0  0  0  0
 11 34  1  0  0  0  0
 12 16  1  0  0  0  0
 12 17  1  0  0  0  0
 12 35  1  0  0  0  0
 14 36  1  0  0  0  0
 14 37  1  0  0  0  0
 14 38  1  0  0  0  0
 15 39  1  0  0  0  0
 15 40  1  0  0  0  0
 15 41  1  0  0  0  0
 16 20  1  0  0  0  0
 16 43  1  0  0  0  0
 16 44  1  0  0  0  0
 18 22  1  0  0  0  0
 18 23  1  0  0  0  0
 18 24  1  0  0  0  0
 20 25  2  0  0  0  0
 20 26  1  0  0  0  0
 21 27  1  0  0  0  0
 21 47  1  0  0  0  0
 21 48  1  0  0  0  0
 22 49  1  0  0  0  0
 22 50  1  0  0  0  0
 22 51  1  0  0  0  0
 23 52  1  0  0  0  0
 23 53  1  0  0  0  0
 23 54  1  0  0  0  0
 24 55  1  0  0  0  0
 24 56  1  0  0  0  0
 24 57  1  0  0  0  0
 25 28  1  0  0  0  0
 25 58  1  0  0  0  0
 26 29  2  0  0  0  0
 26 59  1  0  0  0  0
 27 60  1  0  0  0  0
 27 61  1  0  0  0  0
 28 30  2  0  0  0  0
 28 62  1  0  0  0  0
 29 30  1  0  0  0  0
 29 63  1  0  0  0  0
 30 64  1  0  0  0  0
M  END
> <PUBCHEM_COMPOUND_CID>
135797

> <PUBCHEM_CONFORMER_RMSD>
1.2

> <PUBCHEM_CONFORMER_DIVERSEORDER>
1
61
18
62
31
32
28
72
46
83
85
88
89
27
29
11
12
63
75
70
45
26
23
22
64
40
66
44
19
54
82
74
69
35
41
96
87
90
92
68
53
71
56
73
95
86
3
79
20
9
16
65
81
6
94
38
91
59
47
50
97
93
80
36
57
77
60
21
25
13
76
78
2
84
7
48
55
34
17
10
37
15
67
8
52
39
58
42
24
51
30
33
43
49
14
4
5

> <PUBCHEM_MMFF94_PARTIAL_CHARGES>
32
1 -0.43
11 0.36
12 0.33
13 0.57
16 0.14
17 0.57
18 0.28
19 0.78
2 -0.57
20 -0.14
21 0.27
25 -0.15
26 -0.15
27 0.28
28 -0.15
29 -0.15
3 -0.57
30 -0.15
4 -0.57
42 0.37
45 0.37
46 0.36
5 -0.68
58 0.15
59 0.15
6 -0.73
62 0.15
63 0.15
64 0.15
65 0.4
7 -0.49
8 -0.9

> <PUBCHEM_EFFECTIVE_ROTOR_COUNT>
15

> <PUBCHEM_PHARMACOPHORE_FEATURES>
12
1 2 acceptor
1 3 acceptor
1 4 acceptor
1 5 acceptor
1 5 donor
1 6 donor
1 7 donor
1 8 cation
1 8 donor
3 10 14 15 hydrophobe
4 18 22 23 24 hydrophobe
6 20 25 26 28 29 30 rings

> <PUBCHEM_HEAVY_ATOM_COUNT>
30

> <PUBCHEM_ATOM_DEF_STEREO_COUNT>
2

> <PUBCHEM_ATOM_UDEF_STEREO_COUNT>
0

> <PUBCHEM_BOND_DEF_STEREO_COUNT>
0

> <PUBCHEM_BOND_UDEF_STEREO_COUNT>
0

> <PUBCHEM_ISOTOPIC_ATOM_COUNT>
0

> <PUBCHEM_COMPONENT_COUNT>
1

> <PUBCHEM_CACTVS_TAUTO_COUNT>
6

> <PUBCHEM_CONFORMER_ID>
0002127500000001

> <PUBCHEM_MMFF94_ENERGY>
63.7583

> <PUBCHEM_FEATURE_SELFOVERLAP>
60.9

> <PUBCHEM_SHAPE_FINGERPRINT>
10675989 125 17689998929672792863
10940486 97 18336269024117700564
11014199 57 18193836170072918206
11513181 2 17975134558438791348
13690498 29 18193012601831270374
14251757 5 18335146336725348572
15183329 4 18262519170157874034
15297060 5 18054505803325135289
15484559 13 14359243876490969638
17492 89 18122905596976010226
19311894 1 18337953381331565145
19958102 18 18339640031957700606
20600515 1 18201170870845890372
20775438 99 17407351139865791317
23402539 116 18265614282426533896
23559900 14 18268138928426958025
340366 18 18410016558647376533
4015057 19 16702003288916934282
44062 13 18411703226638568678
5283173 99 18335137549560072288
70251023 43 18192149519557826083
7226269 152 18189055296469345304

> <PUBCHEM_SHAPE_MULTIPOLES>
573.1
11.44
7.17
1.43
18.11
5.76
0
2.82
1.95
-6.4
2.42
-0.14
-0.19
0.08

> <PUBCHEM_SHAPE_SELFOVERLAP>
1149.797

> <PUBCHEM_SHAPE_VOLUME>
336.3

> <PUBCHEM_COORDINATE_TYPE>
2
5
10

$$$$
