135765026
  -OEChem-03292013293D

 36 38  0     0  0  0  0  0  0999 V2000
    0.0247   -3.6450   -0.0680 O   0  0  0  0  0  0  0  0  0  0  0  0
   -0.0248    3.6450   -0.0686 O   0  0  0  0  0  0  0  0  0  0  0  0
    4.8304    0.2054    0.5668 O   0  0  0  0  0  0  0  0  0  0  0  0
   -4.8306   -0.2055    0.5666 O   0  0  0  0  0  0  0  0  0  0  0  0
    3.4910    1.6851   -0.5800 O   0  0  0  0  0  0  0  0  0  0  0  0
   -3.4908   -1.6850   -0.5801 O   0  0  0  0  0  0  0  0  0  0  0  0
    0.8989    1.0433   -0.0690 N   0  0  0  0  0  0  0  0  0  0  0  0
   -0.8989   -1.0432   -0.0684 N   0  0  0  0  0  0  0  0  0  0  0  0
    1.3343   -0.2265   -0.0689 C   0  0  0  0  0  0  0  0  0  0  0  0
   -1.3343    0.2266   -0.0686 C   0  0  0  0  0  0  0  0  0  0  0  0
    0.4213   -1.2862   -0.0687 C   0  0  0  0  0  0  0  0  0  0  0  0
   -0.4214    1.2862   -0.0687 C   0  0  0  0  0  0  0  0  0  0  0  0
    2.6996   -0.5053   -0.0693 C   0  0  0  0  0  0  0  0  0  0  0  0
   -2.6995    0.5052   -0.0689 C   0  0  0  0  0  0  0  0  0  0  0  0
    0.8991   -2.5951   -0.0686 C   0  0  0  0  0  0  0  0  0  0  0  0
   -0.8990    2.5952   -0.0684 C   0  0  0  0  0  0  0  0  0  0  0  0
    3.1710   -1.8168   -0.0693 C   0  0  0  0  0  0  0  0  0  0  0  0
   -3.1709    1.8167   -0.0688 C   0  0  0  0  0  0  0  0  0  0  0  0
    2.2658   -2.8675   -0.0688 C   0  0  0  0  0  0  0  0  0  0  0  0
   -2.2657    2.8675   -0.0685 C   0  0  0  0  0  0  0  0  0  0  0  0
    3.6790    0.5755   -0.0695 C   0  0  0  0  0  0  0  0  0  0  0  0
   -3.6790   -0.5756   -0.0694 C   0  0  0  0  0  0  0  0  0  0  0  0
    5.8722    1.1851    0.6328 C   0  0  0  0  0  0  0  0  0  0  0  0
   -5.8723   -1.1852    0.6323 C   0  0  0  0  0  0  0  0  0  0  0  0
    4.2318   -2.0506   -0.0856 H   0  0  0  0  0  0  0  0  0  0  0  0
   -4.2318    2.0505   -0.0850 H   0  0  0  0  0  0  0  0  0  0  0  0
    2.6326   -3.8900   -0.0721 H   0  0  0  0  0  0  0  0  0  0  0  0
   -2.6325    3.8900   -0.0719 H   0  0  0  0  0  0  0  0  0  0  0  0
    0.5267   -4.4780   -0.0676 H   0  0  0  0  0  0  0  0  0  0  0  0
   -0.5268    4.4780   -0.0683 H   0  0  0  0  0  0  0  0  0  0  0  0
    5.5272    2.0659    1.1824 H   0  0  0  0  0  0  0  0  0  0  0  0
    6.1952    1.4605   -0.3755 H   0  0  0  0  0  0  0  0  0  0  0  0
    6.7192    0.7461    1.1666 H   0  0  0  0  0  0  0  0  0  0  0  0
   -6.1951   -1.4605   -0.3762 H   0  0  0  0  0  0  0  0  0  0  0  0
   -5.5275   -2.0661    1.1818 H   0  0  0  0  0  0  0  0  0  0  0  0
   -6.7194   -0.7463    1.1658 H   0  0  0  0  0  0  0  0  0  0  0  0
  1 15  1  0  0  0  0
  1 29  1  0  0  0  0
  2 16  1  0  0  0  0
  2 30  1  0  0  0  0
  3 21  1  0  0  0  0
  3 23  1  0  0  0  0
  4 22  1  0  0  0  0
  4 24  1  0  0  0  0
  5 21  2  0  0  0  0
  6 22  2  0  0  0  0
  7  9  2  0  0  0  0
  7 12  1  0  0  0  0
  8 10  1  0  0  0  0
  8 11  2  0  0  0  0
  9 11  1  0  0  0  0
  9 13  1  0  0  0  0
 10 12  1  0  0  0  0
 10 14  2  0  0  0  0
 11 15  1  0  0  0  0
 12 16  2  0  0  0  0
 13 17  2  0  0  0  0
 13 21  1  0  0  0  0
 14 18  1  0  0  0  0
 14 22  1  0  0  0  0
 15 19  2  0  0  0  0
 16 20  1  0  0  0  0
 17 19  1  0  0  0  0
 17 25  1  0  0  0  0
 18 20  2  0  0  0  0
 18 26  1  0  0  0  0
 19 27  1  0  0  0  0
 20 28  1  0  0  0  0
 23 31  1  0  0  0  0
 23 32  1  0  0  0  0
 23 33  1  0  0  0  0
 24 34  1  0  0  0  0
 24 35  1  0  0  0  0
 24 36  1  0  0  0  0
M  END
> <PUBCHEM_COMPOUND_CID>
135765026

> <PUBCHEM_CONFORMER_RMSD>
0.8

> <PUBCHEM_CONFORMER_DIVERSEORDER>
1
4
3
2

> <PUBCHEM_MMFF94_PARTIAL_CHARGES>
30
1 -0.53
10 0.31
11 0.31
12 0.31
13 0.09
14 0.09
15 0.08
16 0.08
17 -0.15
18 -0.15
19 -0.15
2 -0.53
20 -0.15
21 0.63
22 0.63
23 0.28
24 0.28
25 0.15
26 0.15
27 0.15
28 0.15
29 0.45
3 -0.43
30 0.45
4 -0.43
5 -0.57
6 -0.57
7 -0.62
8 -0.62
9 0.31

> <PUBCHEM_EFFECTIVE_ROTOR_COUNT>
4

> <PUBCHEM_PHARMACOPHORE_FEATURES>
9
1 1 donor
1 2 donor
1 5 acceptor
1 6 acceptor
1 7 acceptor
1 8 acceptor
6 10 12 14 16 18 20 rings
6 7 8 9 10 11 12 rings
6 9 11 13 15 17 19 rings

> <PUBCHEM_HEAVY_ATOM_COUNT>
24

> <PUBCHEM_ATOM_DEF_STEREO_COUNT>
0

> <PUBCHEM_ATOM_UDEF_STEREO_COUNT>
0

> <PUBCHEM_BOND_DEF_STEREO_COUNT>
0

> <PUBCHEM_BOND_UDEF_STEREO_COUNT>
0

> <PUBCHEM_ISOTOPIC_ATOM_COUNT>
0

> <PUBCHEM_COMPONENT_COUNT>
1

> <PUBCHEM_CACTVS_TAUTO_COUNT>
-1

> <PUBCHEM_CONFORMER_ID>
08179C2200000001

> <PUBCHEM_MMFF94_ENERGY>
81.9746

> <PUBCHEM_FEATURE_SELFOVERLAP>
45.761

> <PUBCHEM_SHAPE_FINGERPRINT>
10090160 65 18261107499843028446
10616163 171 18267586797527660735
10670039 82 18262252040815304284
10906281 52 18190201086374620737
10967382 1 18410576222840039910
1100329 8 18122343742143725606
11578080 2 17025139727318424446
11963148 33 18335134353704140387
12035758 1 18266741466053215065
12390115 104 18272382936247389664
12403259 226 18193838146205903348
12553582 1 18411973685540649159
12838862 33 18339905104986693597
12839892 36 18265879303383241738
13140716 1 18050286165285667048
138480 1 17618502082834747526
14178342 30 17977089172628223330
14223421 5 18194965136554475814
14787075 74 18187648067324185379
14790565 3 18266472081726842933
15042514 8 18264770046501310866
15196674 1 18338797805960691717
15927050 60 17403745939237272412
16945 1 17906453225280635012
17349148 13 17967535674923682804
17492 89 18265332798554154547
1813 80 17531259326904949765
19591789 44 17977950407965191581
20028762 73 18057605580392132071
20510252 161 18343019956655774072
21267235 1 18410020922344912926
21421861 104 18116996572538293643
221490 88 18195251009847216526
22393880 68 18195534692721649134
2334 1 18410855447248534749
23366157 5 17898577471411223098
23402539 116 18270673281264428406
23558518 356 18044384820144590664
23559900 14 17907570333701022802
34934 24 18339635651628654349
350125 39 18339362942743725546
469060 322 18339375114169788633
474229 33 18410009957462003394
5104073 3 18266741285664588658
5486654 2 18339084890486457564
59554788 170 18270688562668780166
59755656 215 18409731733807509478
7097593 13 17177988220443231211
7364860 26 18052253995358637150
9709674 26 17836927802596078575
9981440 41 18335135376111111098

> <PUBCHEM_SHAPE_MULTIPOLES>
448.73
9.7
3.73
0.67
0
0
-0.03
0
-2.1
0
0.21
0
0
0.38

> <PUBCHEM_SHAPE_SELFOVERLAP>
1004.634

> <PUBCHEM_SHAPE_VOLUME>
237.4

> <PUBCHEM_COORDINATE_TYPE>
2
5
10

$$$$
