135765032
  -OEChem-03292013293D

 43 45  0     0  0  0  0  0  0999 V2000
    0.6780   -4.3088    0.0092 S   0  0  0  0  0  0  0  0  0  0  0  0
   -6.1803   -1.5700   -0.0019 O   0  0  0  0  0  0  0  0  0  0  0  0
    4.3692    1.1988    0.0122 N   0  0  0  0  0  0  0  0  0  0  0  0
    1.2564    1.3630   -1.1890 N   0  0  0  0  0  0  0  0  0  0  0  0
    1.9592   -1.5019   -0.0074 N   0  0  0  0  0  0  0  0  0  0  0  0
    0.6083   -1.5826   -0.0012 N   0  0  0  0  0  0  0  0  0  0  0  0
   -1.4330   -2.7018    0.0134 N   0  0  0  0  0  0  0  0  0  0  0  0
   -2.0368   -1.4893    0.0100 N   0  0  0  0  0  0  0  0  0  0  0  0
    2.5102   -0.3212    0.0064 C   0  0  0  0  0  0  0  0  0  0  0  0
    1.6128    0.8809    0.0227 C   0  0  0  0  0  0  0  0  0  0  0  0
    3.9758   -0.0946    0.0016 C   0  0  0  0  0  0  0  0  0  0  0  0
   -4.1414   -0.3061    0.0011 C   0  0  0  0  0  0  0  0  0  0  0  0
    4.8484   -1.1707   -0.0132 C   0  0  0  0  0  0  0  0  0  0  0  0
    1.2012    1.4283    1.2271 C   0  0  0  0  0  0  0  0  0  0  0  0
   -5.5348   -0.3696   -0.0032 C   0  0  0  0  0  0  0  0  0  0  0  0
   -3.4998    0.9324   -0.0029 C   0  0  0  0  0  0  0  0  0  0  0  0
    0.3699    2.5421    1.1853 C   0  0  0  0  0  0  0  0  0  0  0  0
    6.2126   -0.9022   -0.0171 C   0  0  0  0  0  0  0  0  0  0  0  0
   -6.2865    0.8053   -0.0116 C   0  0  0  0  0  0  0  0  0  0  0  0
   -4.2515    2.1074   -0.0113 C   0  0  0  0  0  0  0  0  0  0  0  0
   -5.6449    2.0439   -0.0156 C   0  0  0  0  0  0  0  0  0  0  0  0
    6.6563    0.4156   -0.0062 C   0  0  0  0  0  0  0  0  0  0  0  0
   -0.0187    3.0669   -0.0424 C   0  0  0  0  0  0  0  0  0  0  0  0
    5.7028    1.4208    0.0080 C   0  0  0  0  0  0  0  0  0  0  0  0
    0.4477    2.4463   -1.1900 C   0  0  0  0  0  0  0  0  0  0  0  0
   -3.3283   -1.5350    0.0084 C   0  0  0  0  0  0  0  0  0  0  0  0
   -0.0528   -2.7977    0.0078 C   0  0  0  0  0  0  0  0  0  0  0  0
    1.5107    1.0088    2.1782 H   0  0  0  0  0  0  0  0  0  0  0  0
    4.5035   -2.1989   -0.0215 H   0  0  0  0  0  0  0  0  0  0  0  0
   -2.4169    1.0137    0.0000 H   0  0  0  0  0  0  0  0  0  0  0  0
    6.9290   -1.7181   -0.0286 H   0  0  0  0  0  0  0  0  0  0  0  0
    0.0243    2.9994    2.1074 H   0  0  0  0  0  0  0  0  0  0  0  0
   -7.3727    0.7710   -0.0155 H   0  0  0  0  0  0  0  0  0  0  0  0
   -3.7518    3.0718   -0.0146 H   0  0  0  0  0  0  0  0  0  0  0  0
   -6.2300    2.9588   -0.0222 H   0  0  0  0  0  0  0  0  0  0  0  0
    7.7149    0.6485   -0.0090 H   0  0  0  0  0  0  0  0  0  0  0  0
   -0.6677    3.9332   -0.0990 H   0  0  0  0  0  0  0  0  0  0  0  0
    0.1728    2.8162   -2.1722 H   0  0  0  0  0  0  0  0  0  0  0  0
    5.9966    2.4652    0.0168 H   0  0  0  0  0  0  0  0  0  0  0  0
   -3.8694   -2.4986    0.0110 H   0  0  0  0  0  0  0  0  0  0  0  0
    0.0581   -0.7326   -0.0159 H   0  0  0  0  0  0  0  0  0  0  0  0
   -2.0187   -3.5308    0.0182 H   0  0  0  0  0  0  0  0  0  0  0  0
   -7.1404   -1.4146   -0.0061 H   0  0  0  0  0  0  0  0  0  0  0  0
  1 27  2  0  0  0  0
  2 15  1  0  0  0  0
  2 43  1  0  0  0  0
  3 11  1  0  0  0  0
  3 24  2  0  0  0  0
  4 10  1  0  0  0  0
  4 25  2  0  0  0  0
  5  6  1  0  0  0  0
  5  9  2  0  0  0  0
  6 27  1  0  0  0  0
  6 41  1  0  0  0  0
  7  8  1  0  0  0  0
  7 27  1  0  0  0  0
  7 42  1  0  0  0  0
  8 26  2  0  0  0  0
  9 10  1  0  0  0  0
  9 11  1  0  0  0  0
 10 14  2  0  0  0  0
 11 13  2  0  0  0  0
 12 15  1  0  0  0  0
 12 16  2  0  0  0  0
 12 26  1  0  0  0  0
 13 18  1  0  0  0  0
 13 29  1  0  0  0  0
 14 17  1  0  0  0  0
 14 28  1  0  0  0  0
 15 19  2  0  0  0  0
 16 20  1  0  0  0  0
 16 30  1  0  0  0  0
 17 23  2  0  0  0  0
 17 32  1  0  0  0  0
 18 22  2  0  0  0  0
 18 31  1  0  0  0  0
 19 21  1  0  0  0  0
 19 33  1  0  0  0  0
 20 21  2  0  0  0  0
 20 34  1  0  0  0  0
 21 35  1  0  0  0  0
 22 24  1  0  0  0  0
 22 36  1  0  0  0  0
 23 25  1  0  0  0  0
 23 37  1  0  0  0  0
 24 39  1  0  0  0  0
 25 38  1  0  0  0  0
 26 40  1  0  0  0  0
M  END
> <PUBCHEM_COMPOUND_CID>
135765032

> <PUBCHEM_CONFORMER_RMSD>
1

> <PUBCHEM_CONFORMER_DIVERSEORDER>
1
130
107
42
67
89
122
106
134
147
96
157
113
144
38
91
105
54
7
95
132
153
140
82
167
62
165
152
117
23
164
73
35
99
156
141
146
124
123
77
69
55
145
158
138
75
119
57
87
148
48
92
53
116
21
58
118
163
78
30
97
115
45
100
104
151
94
22
166
17
70
103
81
46
79
43
120
26
135
114
149
52
160
112
56
137
128
61
102
49
125
31
161
50
121
109
159
28
93
64
76
98
47
110
85
18
25
59
88
40
142
19
44
37
101
72
60
32
108
126
129
33
131
80
51
66
136
5
12
71
39
133
139
36
154
41
65
4
150
127
68
34
24
16
90
27
86
63
13
8
74
9
162
111
84
155
11
14
10
20
83
143
15
29
6
3
2

> <PUBCHEM_MMFF94_PARTIAL_CHARGES>
43
1 -0.38
10 0.4
11 0.4
12 0.09
13 -0.15
14 -0.15
15 0.08
16 -0.15
17 -0.15
18 -0.15
19 -0.15
2 -0.53
20 -0.15
21 -0.15
22 -0.15
23 -0.15
24 0.16
25 0.16
26 0.3
27 0.5
28 0.15
29 0.15
3 -0.62
30 0.15
31 0.15
32 0.15
33 0.15
34 0.15
35 0.15
36 0.15
37 0.15
38 0.15
39 0.15
4 -0.62
40 0.06
41 0.37
42 0.37
43 0.45
5 -0.51
6 -0.37
7 -0.37
8 -0.51
9 0.28

> <PUBCHEM_EFFECTIVE_ROTOR_COUNT>
7

> <PUBCHEM_PHARMACOPHORE_FEATURES>
11
1 1 acceptor
1 2 donor
1 3 acceptor
1 4 acceptor
1 5 acceptor
1 6 donor
1 7 donor
1 8 acceptor
6 12 15 16 19 20 21 rings
6 3 11 13 18 22 24 rings
6 4 10 14 17 23 25 rings

> <PUBCHEM_HEAVY_ATOM_COUNT>
27

> <PUBCHEM_ATOM_DEF_STEREO_COUNT>
0

> <PUBCHEM_ATOM_UDEF_STEREO_COUNT>
0

> <PUBCHEM_BOND_DEF_STEREO_COUNT>
1

> <PUBCHEM_BOND_UDEF_STEREO_COUNT>
0

> <PUBCHEM_ISOTOPIC_ATOM_COUNT>
0

> <PUBCHEM_COMPONENT_COUNT>
1

> <PUBCHEM_CACTVS_TAUTO_COUNT>
-1

> <PUBCHEM_CONFORMER_ID>
08179C2800000001

> <PUBCHEM_MMFF94_ENERGY>
86.3961

> <PUBCHEM_FEATURE_SELFOVERLAP>
55.869

> <PUBCHEM_SHAPE_FINGERPRINT>
10940486 97 18119533377838909292
11578080 2 16843580907857492898
11646440 116 18201447990582890395
12838862 33 18338217298703697533
13402501 40 18410855451886445333
14394314 77 18340773637521740601
14466204 15 18410012134952510723
14765038 42 18057903367601580169
14790565 3 18409451397076240324
15183329 4 18410009918559306691
15815584 197 18265638522958663143
1601671 61 18410007723878581986
16087824 20 18409450249993333916
17980427 23 16271664372101745448
18336668 15 18260269659382767109
18608769 82 18409734002188545211
18681886 176 18410288155320937641
19611394 137 18042137612463640699
20028762 73 18271807870191122486
20642791 178 18115319976356589157
21033648 29 18200583817308904498
21279426 13 18341334379623750358
21298829 104 18268995289757403873
21421861 104 17968360275071215490
23559900 14 18339634646881360785
3004659 81 18334858299475972160
3178227 256 18337403724729134771
350125 39 18338237175975418947
5265222 85 18338241578011390820
5385378 56 18339651023148341059
5486654 2 18411704279453857684
59755656 215 18341337674264950358
6009941 240 17385445449003751554
6328613 192 18337393846072511220

> <PUBCHEM_SHAPE_MULTIPOLES>
523.74
15.43
4
0.81
1.94
2.7
0.02
-2.58
-0.24
0.79
0.03
-0.16
-0.42
0.04

> <PUBCHEM_SHAPE_SELFOVERLAP>
1116.757

> <PUBCHEM_SHAPE_VOLUME>
293.4

> <PUBCHEM_COORDINATE_TYPE>
2
5
10

$$$$
