135777638
  -OEChem-03292013293D

 33 35  0     1  0  0  0  0  0999 V2000
    2.1003    2.4876    0.2399 O   0  0  0  0  0  0  0  0  0  0  0  0
    4.0653    1.0862    1.4464 O   0  0  0  0  0  0  0  0  0  0  0  0
    4.2972   -1.9280   -1.7222 O   0  0  0  0  0  0  0  0  0  0  0  0
   -4.7891   -1.0530    0.8732 O   0  0  0  0  0  0  0  0  0  0  0  0
   -0.4304   -0.0734    0.1676 N   0  0  0  0  0  0  0  0  0  0  0  0
   -1.8720   -1.2598    1.4003 N   0  0  0  0  0  0  0  0  0  0  0  0
   -1.9615    1.0749   -1.3197 N   0  0  0  0  0  0  0  0  0  0  0  0
   -4.2309    0.4516   -0.8224 N   0  0  0  0  0  0  0  0  0  0  0  0
    0.8930    0.4683   -0.3285 C   0  0  2  0  0  0  0  0  0  0  0  0
    3.2264   -0.2333   -0.4225 C   0  0  1  0  0  0  0  0  0  0  0  0
    1.8221   -0.6404   -0.8722 C   0  0  0  0  0  0  0  0  0  0  0  0
    1.7159    1.2107    0.7524 C   0  0  1  0  0  0  0  0  0  0  0  0
    2.9608    0.3463    0.9644 C   0  0  2  0  0  0  0  0  0  0  0  0
    4.2100   -1.3933   -0.4124 C   0  0  0  0  0  0  0  0  0  0  0  0
   -1.6735    0.2268   -0.3056 C   0  0  0  0  0  0  0  0  0  0  0  0
   -0.6019   -0.9717    1.1927 C   0  0  0  0  0  0  0  0  0  0  0  0
   -2.5349   -0.5152    0.4698 C   0  0  0  0  0  0  0  0  0  0  0  0
   -3.9529   -0.4310    0.2301 C   0  0  0  0  0  0  0  0  0  0  0  0
   -3.2440    1.1466   -1.5311 C   0  0  0  0  0  0  0  0  0  0  0  0
    0.6316    1.1509   -1.1466 H   0  0  0  0  0  0  0  0  0  0  0  0
    3.6117    0.5432   -1.0977 H   0  0  0  0  0  0  0  0  0  0  0  0
    1.7534   -0.7081   -1.9636 H   0  0  0  0  0  0  0  0  0  0  0  0
    1.5545   -1.6251   -0.4708 H   0  0  0  0  0  0  0  0  0  0  0  0
    1.1784    1.3800    1.6906 H   0  0  0  0  0  0  0  0  0  0  0  0
    2.7424   -0.4599    1.6759 H   0  0  0  0  0  0  0  0  0  0  0  0
    3.8840   -2.1884    0.2665 H   0  0  0  0  0  0  0  0  0  0  0  0
    5.2044   -1.0560   -0.1031 H   0  0  0  0  0  0  0  0  0  0  0  0
    1.2856    3.0002    0.1010 H   0  0  0  0  0  0  0  0  0  0  0  0
    3.7916    1.5083    2.2784 H   0  0  0  0  0  0  0  0  0  0  0  0
    0.2309   -1.3781    1.7501 H   0  0  0  0  0  0  0  0  0  0  0  0
    4.9320   -2.6637   -1.6894 H   0  0  0  0  0  0  0  0  0  0  0  0
   -3.6618    1.7905   -2.3206 H   0  0  0  0  0  0  0  0  0  0  0  0
   -5.2027    0.5928   -1.0826 H   0  0  0  0  0  0  0  0  0  0  0  0
  1 12  1  0  0  0  0
  1 28  1  0  0  0  0
  2 13  1  0  0  0  0
  2 29  1  0  0  0  0
  3 14  1  0  0  0  0
  3 31  1  0  0  0  0
  4 18  2  0  0  0  0
  5  9  1  0  0  0  0
  5 15  1  0  0  0  0
  5 16  1  0  0  0  0
  6 16  2  0  0  0  0
  6 17  1  0  0  0  0
  7 15  1  0  0  0  0
  7 19  2  0  0  0  0
  8 18  1  0  0  0  0
  8 19  1  0  0  0  0
  8 33  1  0  0  0  0
  9 11  1  0  0  0  0
  9 12  1  0  0  0  0
  9 20  1  0  0  0  0
 10 11  1  0  0  0  0
 10 13  1  0  0  0  0
 10 14  1  0  0  0  0
 10 21  1  0  0  0  0
 11 22  1  0  0  0  0
 11 23  1  0  0  0  0
 12 13  1  0  0  0  0
 12 24  1  0  0  0  0
 13 25  1  0  0  0  0
 14 26  1  0  0  0  0
 14 27  1  0  0  0  0
 15 17  2  0  0  0  0
 16 30  1  0  0  0  0
 17 18  1  0  0  0  0
 19 32  1  0  0  0  0
M  END
> <PUBCHEM_COMPOUND_CID>
135777638

> <PUBCHEM_CONFORMER_RMSD>
0.6

> <PUBCHEM_CONFORMER_DIVERSEORDER>
1
4
13
7
10
6
11
12
15
14
18
9
16
5
17
3
2
8

> <PUBCHEM_MMFF94_PARTIAL_CHARGES>
23
1 -0.68
12 0.28
13 0.28
14 0.28
15 -0.03
16 0.04
17 0.14
18 0.72
19 0.45
2 -0.68
28 0.4
29 0.4
3 -0.68
30 0.15
31 0.4
32 0.06
33 0.37
4 -0.57
5 0.05
6 -0.57
7 -0.58
8 -0.49
9 0.26

> <PUBCHEM_EFFECTIVE_ROTOR_COUNT>
3

> <PUBCHEM_PHARMACOPHORE_FEATURES>
12
1 1 acceptor
1 1 donor
1 2 acceptor
1 2 donor
1 3 acceptor
1 3 donor
1 4 acceptor
1 8 donor
3 5 6 16 cation
5 5 6 15 16 17 rings
5 9 10 11 12 13 rings
6 7 8 15 17 18 19 rings

> <PUBCHEM_HEAVY_ATOM_COUNT>
19

> <PUBCHEM_ATOM_DEF_STEREO_COUNT>
4

> <PUBCHEM_ATOM_UDEF_STEREO_COUNT>
0

> <PUBCHEM_BOND_DEF_STEREO_COUNT>
0

> <PUBCHEM_BOND_UDEF_STEREO_COUNT>
0

> <PUBCHEM_ISOTOPIC_ATOM_COUNT>
0

> <PUBCHEM_COMPONENT_COUNT>
1

> <PUBCHEM_CACTVS_TAUTO_COUNT>
-1

> <PUBCHEM_CONFORMER_ID>
0817CD6600000001

> <PUBCHEM_MMFF94_ENERGY>
47.4832

> <PUBCHEM_FEATURE_SELFOVERLAP>
61.052

> <PUBCHEM_SHAPE_FINGERPRINT>
10062212 137 15482663576942380703
10498660 4 17095235900192427493
10751810 167 16805611356012700962
12186901 62 17603588500135629007
12236239 1 15913328000828636890
12403259 415 18333449837570287933
13134695 92 17846492630487616600
13296908 3 18410855451923323094
13538477 17 15936694868833397179
13581323 91 17458616839419211257
13631057 29 13264120777277742057
13862211 1 17458904968213296251
14386348 63 18410015433793394530
15219456 202 18410851083588324101
15806764 133 18334297556651035709
16752209 62 17095517414082208643
17804303 29 17967249801789678225
17834072 33 13767934537048993899
1813 80 17058955272688660428
18186145 218 18409445865068406513
19049666 15 18263074431713673056
19050596 39 15195564593591632190
200 152 17489585636735302687
20279233 1 18409444804290553714
20510252 161 18113333133234065001
20645476 183 15502388849720090043
20645477 70 18202284693373138582
20871999 31 17531543004904503446
21065201 7 17967809427301262571
21069387 34 17703790305888712110
23175994 123 18341620273794877684
23402539 116 17822839992380490271
23557571 272 18041279954248418196
23559900 14 18113341920520381580
2838139 119 12974698406579860647
3286 77 18342746221151842029
474 4 16556759014232240472
5161694 15 18408604734246380222
5281201 14 18410857663473070508
6049 1 18261399982757556768
633830 44 18334285470813109101
69090 78 18338791325309080019
77492 1 16056879147639144092
9709674 26 18262518220490268163

> <PUBCHEM_SHAPE_MULTIPOLES>
347.61
9.08
1.64
1.43
0.95
0.36
0.18
-1.92
1.18
-0.65
0
-0.69
-0.1
2.33

> <PUBCHEM_SHAPE_SELFOVERLAP>
753.024

> <PUBCHEM_SHAPE_VOLUME>
188.4

> <PUBCHEM_COORDINATE_TYPE>
2
5
10

$$$$
