135777640
  -OEChem-03292013293D

 56 58  0     1  0  0  0  0  0999 V2000
    6.1317    1.2104    2.4010 O   0  0  0  0  0  0  0  0  0  0  0  0
    4.1691   -2.5476   -0.3258 O   0  0  0  0  0  0  0  0  0  0  0  0
    3.8958    1.0687    2.7632 O   0  0  0  0  0  0  0  0  0  0  0  0
   -3.3070    1.9303    2.6150 O   0  0  0  0  0  0  0  0  0  0  0  0
    4.2259    3.8833   -2.2667 O   0  0  0  0  0  0  0  0  0  0  0  0
    5.9131    2.4362   -2.7204 O   0  0  0  0  0  0  0  0  0  0  0  0
   -2.1459   -3.3570   -0.3146 N   0  0  3  0  0  0  0  0  0  0  0  0
    3.5236   -0.5417    0.6420 N   0  0  0  0  0  0  0  0  0  0  0  0
   -4.9808    2.2852   -1.0955 N   0  0  0  0  0  0  0  0  0  0  0  0
   -4.2941    3.2018    0.9597 N   0  0  0  0  0  0  0  0  0  0  0  0
   -5.2859    4.5676   -0.6559 N   0  0  0  0  0  0  0  0  0  0  0  0
   -3.1449   -2.8451    0.5983 C   0  0  0  0  0  0  0  0  0  0  0  0
    4.8520    0.0082    0.7900 C   0  0  1  0  0  0  0  0  0  0  0  0
    5.3089    0.7936   -0.4452 C   0  0  0  0  0  0  0  0  0  0  0  0
   -3.6203   -1.4981    0.1686 C   0  0  0  0  0  0  0  0  0  0  0  0
   -0.8034   -2.9711   -0.2157 C   0  0  0  0  0  0  0  0  0  0  0  0
    4.4760    2.0334   -0.7949 C   0  0  0  0  0  0  0  0  0  0  0  0
   -3.4870   -0.4063    1.0246 C   0  0  0  0  0  0  0  0  0  0  0  0
    1.8706   -2.2018   -0.0164 C   0  0  0  0  0  0  0  0  0  0  0  0
   -3.9362    0.8514    0.6114 C   0  0  0  0  0  0  0  0  0  0  0  0
   -4.1970   -1.3326   -1.0897 C   0  0  0  0  0  0  0  0  0  0  0  0
    0.1388   -3.4870   -1.1055 C   0  0  0  0  0  0  0  0  0  0  0  0
   -0.4087   -2.0707    0.7738 C   0  0  0  0  0  0  0  0  0  0  0  0
    3.2644   -1.8001    0.0865 C   0  0  0  0  0  0  0  0  0  0  0  0
   -2.5659   -4.3011   -1.3493 C   0  0  0  0  0  0  0  0  0  0  0  0
   -4.5181    1.0337   -0.6500 C   0  0  0  0  0  0  0  0  0  0  0  0
    1.4757   -3.1024   -1.0057 C   0  0  0  0  0  0  0  0  0  0  0  0
    0.9284   -1.6862    0.8736 C   0  0  0  0  0  0  0  0  0  0  0  0
   -4.6433   -0.0735   -1.4963 C   0  0  0  0  0  0  0  0  0  0  0  0
    4.8737    0.8163    2.0712 C   0  0  0  0  0  0  0  0  0  0  0  0
   -3.8071    2.0228    1.5002 C   0  0  0  0  0  0  0  0  0  0  0  0
    4.9601    2.7654   -2.0279 C   0  0  0  0  0  0  0  0  0  0  0  0
   -4.8622    3.3136   -0.3038 C   0  0  0  0  0  0  0  0  0  0  0  0
   -2.8005   -2.8621    1.6399 H   0  0  0  0  0  0  0  0  0  0  0  0
   -4.0197   -3.5103    0.6167 H   0  0  0  0  0  0  0  0  0  0  0  0
    5.5362   -0.8364    0.9406 H   0  0  0  0  0  0  0  0  0  0  0  0
    6.3518    1.1062   -0.3042 H   0  0  0  0  0  0  0  0  0  0  0  0
    5.3115    0.1200   -1.3125 H   0  0  0  0  0  0  0  0  0  0  0  0
    2.7505    0.0669    0.8906 H   0  0  0  0  0  0  0  0  0  0  0  0
    4.5034    2.7405    0.0414 H   0  0  0  0  0  0  0  0  0  0  0  0
    3.4356    1.7402   -0.9739 H   0  0  0  0  0  0  0  0  0  0  0  0
   -3.0516   -0.5354    2.0117 H   0  0  0  0  0  0  0  0  0  0  0  0
   -4.3242   -2.1707   -1.7680 H   0  0  0  0  0  0  0  0  0  0  0  0
   -0.1166   -4.1886   -1.8933 H   0  0  0  0  0  0  0  0  0  0  0  0
   -1.0782   -1.6558    1.5149 H   0  0  0  0  0  0  0  0  0  0  0  0
   -3.6401   -4.5106   -1.2942 H   0  0  0  0  0  0  0  0  0  0  0  0
   -2.0557   -5.2636   -1.2313 H   0  0  0  0  0  0  0  0  0  0  0  0
   -2.3725   -3.9005   -2.3506 H   0  0  0  0  0  0  0  0  0  0  0  0
    2.1939   -3.5117   -1.7115 H   0  0  0  0  0  0  0  0  0  0  0  0
    1.1998   -1.0114    1.6804 H   0  0  0  0  0  0  0  0  0  0  0  0
   -5.0938    0.0377   -2.4798 H   0  0  0  0  0  0  0  0  0  0  0  0
   -4.2311    4.0416    1.5277 H   0  0  0  0  0  0  0  0  0  0  0  0
    6.1469    1.7200    3.2391 H   0  0  0  0  0  0  0  0  0  0  0  0
   -5.7131    4.7433   -1.5588 H   0  0  0  0  0  0  0  0  0  0  0  0
   -5.1857    5.3563   -0.0263 H   0  0  0  0  0  0  0  0  0  0  0  0
    4.5481    4.3707   -3.0547 H   0  0  0  0  0  0  0  0  0  0  0  0
  1 30  1  0  0  0  0
  1 53  1  0  0  0  0
  2 24  2  0  0  0  0
  3 30  2  0  0  0  0
  4 31  2  0  0  0  0
  5 32  1  0  0  0  0
  5 56  1  0  0  0  0
  6 32  2  0  0  0  0
  7 12  1  0  0  0  0
  7 16  1  0  0  0  0
  7 25  1  0  0  0  0
  8 13  1  0  0  0  0
  8 24  1  0  0  0  0
  8 39  1  0  0  0  0
  9 26  1  0  0  0  0
  9 33  2  0  0  0  0
 10 31  1  0  0  0  0
 10 33  1  0  0  0  0
 10 52  1  0  0  0  0
 11 33  1  0  0  0  0
 11 54  1  0  0  0  0
 11 55  1  0  0  0  0
 12 15  1  0  0  0  0
 12 34  1  0  0  0  0
 12 35  1  0  0  0  0
 13 14  1  0  0  0  0
 13 30  1  0  0  0  0
 13 36  1  0  0  0  0
 14 17  1  0  0  0  0
 14 37  1  0  0  0  0
 14 38  1  0  0  0  0
 15 18  2  0  0  0  0
 15 21  1  0  0  0  0
 16 22  2  0  0  0  0
 16 23  1  0  0  0  0
 17 32  1  0  0  0  0
 17 40  1  0  0  0  0
 17 41  1  0  0  0  0
 18 20  1  0  0  0  0
 18 42  1  0  0  0  0
 19 24  1  0  0  0  0
 19 27  2  0  0  0  0
 19 28  1  0  0  0  0
 20 26  2  0  0  0  0
 20 31  1  0  0  0  0
 21 29  2  0  0  0  0
 21 43  1  0  0  0  0
 22 27  1  0  0  0  0
 22 44  1  0  0  0  0
 23 28  2  0  0  0  0
 23 45  1  0  0  0  0
 25 46  1  0  0  0  0
 25 47  1  0  0  0  0
 25 48  1  0  0  0  0
 26 29  1  0  0  0  0
 27 49  1  0  0  0  0
 28 50  1  0  0  0  0
 29 51  1  0  0  0  0
M  END
> <PUBCHEM_COMPOUND_CID>
135777640

> <PUBCHEM_CONFORMER_RMSD>
1

> <PUBCHEM_CONFORMER_DIVERSEORDER>
1
142
58
145
45
91
27
166
86
57
16
124
63
29
120
64
140
179
174
159
170
121
127
30
21
146
131
133
153
141
130
135
59
115
42
34
71
67
172
13
98
114
110
139
155
92
158
178
163
177
97
77
68
136
56
90
157
102
96
73
69
49
14
53
95
10
23
176
126
51
150
154
106
113
79
50
94
156
169
152
168
100
129
89
60
112
74
104
167
22
78
28
116
61
19
4
93
65
37
26
117
134
31
43
36
84
149
160
118
173
39
180
128
107
7
119
33
88
15
122
3
125
87
138
82
111
12
72
54
175
164
2
24
165
80
105
108
182
109
35
148
66
83
55
62
181
46
52
132
103
76
47
147
18
8
48
17
171
151
101
161
162
99
70
81
5
25
11
40
20
38
75
9
143
144
137
32
6
44
123
85
41

> <PUBCHEM_MMFF94_PARTIAL_CHARGES>
45
1 -0.65
10 -0.49
11 -0.85
12 0.51
13 0.36
15 -0.14
16 0.1
17 0.06
18 -0.15
19 0.09
2 -0.57
20 0.09
21 -0.15
22 -0.15
23 -0.15
24 0.54
25 0.37
26 0.18
27 -0.15
28 -0.15
29 -0.15
3 -0.57
30 0.66
31 0.54
32 0.66
33 0.56
39 0.37
4 -0.57
42 0.15
43 0.15
44 0.15
45 0.15
49 0.15
5 -0.65
50 0.15
51 0.15
52 0.37
53 0.5
54 0.4
55 0.4
56 0.5
6 -0.57
7 -0.84
8 -0.73
9 -0.63

> <PUBCHEM_EFFECTIVE_ROTOR_COUNT>
10

> <PUBCHEM_PHARMACOPHORE_FEATURES>
15
1 1 acceptor
1 10 donor
1 11 donor
1 2 acceptor
1 3 acceptor
1 4 acceptor
1 5 acceptor
1 6 acceptor
1 7 cation
1 8 donor
3 1 3 30 anion
3 5 6 32 anion
6 15 18 20 21 26 29 rings
6 16 19 22 23 27 28 rings
6 9 10 20 26 31 33 rings

> <PUBCHEM_HEAVY_ATOM_COUNT>
33

> <PUBCHEM_ATOM_DEF_STEREO_COUNT>
1

> <PUBCHEM_ATOM_UDEF_STEREO_COUNT>
0

> <PUBCHEM_BOND_DEF_STEREO_COUNT>
0

> <PUBCHEM_BOND_UDEF_STEREO_COUNT>
0

> <PUBCHEM_ISOTOPIC_ATOM_COUNT>
0

> <PUBCHEM_COMPONENT_COUNT>
1

> <PUBCHEM_CACTVS_TAUTO_COUNT>
-1

> <PUBCHEM_CONFORMER_ID>
0817CD6800000001

> <PUBCHEM_MMFF94_ENERGY>
97.5183

> <PUBCHEM_FEATURE_SELFOVERLAP>
76.313

> <PUBCHEM_SHAPE_FINGERPRINT>
100830 2 18188225302481908364
10462674 125 15870295520831191010
10670039 82 18197228151108052246
12104220 4 17823142224475369060
12422481 6 17967526844629106788
12633257 1 15215305153239031687
13383661 66 12677449934514025317
14347329 18 18339654446489905144
14932702 115 18131633408702904304
15001296 14 18050850219193948376
15064981 194 18129391419348623417
15513586 35 17533219910202384573
16067689 391 16556250842613127900
16708801 149 18409719677686570900
19053607 189 18409443657339749816
19302320 297 18046068155456705105
20691028 202 18341337678406910985
22033318 11 17968083189419140920
22122407 14 17750517454694844296
23559900 14 17917151590070048966
27425 322 17822295652240450513
2838139 119 18272073998959741946
376196 1 18195242218487446779
4144715 1 18409449189632693674
4173938 77 17549560513240040977
6034566 193 18338811022324485689
6036956 94 18189342440871615013
6608658 132 17980762958625147366
7970288 3 11637170570173804149

> <PUBCHEM_SHAPE_MULTIPOLES>
619
15.73
6.12
2.22
11.18
0.82
0.36
16.76
-1.38
-4.45
-2.82
2.94
1.99
-2.58

> <PUBCHEM_SHAPE_SELFOVERLAP>
1327.22

> <PUBCHEM_SHAPE_VOLUME>
338.9

> <PUBCHEM_COORDINATE_TYPE>
2
5
10

$$$$
