135858154
  -OEChem-03292013293D

 33 33  0     0  0  0  0  0  0999 V2000
    7.8487   -1.2019   -0.0154 O   0  0  0  0  0  0  0  0  0  0  0  0
   -2.1971    3.2459   -0.0111 O   0  0  0  0  0  0  0  0  0  0  0  0
   -4.8532   -2.4368   -0.0070 O   0  5  0  0  0  0  0  0  0  0  0  0
   -2.7348   -3.0119    0.0122 O   0  0  0  0  0  0  0  0  0  0  0  0
    4.5262    0.3808   -0.0026 N   0  0  0  0  0  0  0  0  0  0  0  0
    0.8096    0.3990    0.0257 N   0  0  0  0  0  0  0  0  0  0  0  0
   -3.6347   -2.1378    0.0004 N   0  3  0  0  0  0  0  0  0  0  0  0
    3.1723   -0.1575    0.0186 C   0  0  0  0  0  0  0  0  0  0  0  0
    2.1526    0.9723    0.0342 C   0  0  0  0  0  0  0  0  0  0  0  0
    5.5121   -0.6910   -0.0285 C   0  0  0  0  0  0  0  0  0  0  0  0
   -1.5496    0.9363    0.0058 C   0  0  0  0  0  0  0  0  0  0  0  0
    6.9224   -0.1236   -0.0066 C   0  0  0  0  0  0  0  0  0  0  0  0
   -0.1365    1.2881    0.0159 C   0  0  0  0  0  0  0  0  0  0  0  0
   -1.9144   -0.4099    0.0073 C   0  0  0  0  0  0  0  0  0  0  0  0
   -2.5332    1.9253   -0.0074 C   0  0  0  0  0  0  0  0  0  0  0  0
   -3.2627   -0.7672   -0.0046 C   0  0  0  0  0  0  0  0  0  0  0  0
   -3.8815    1.5681   -0.0192 C   0  0  0  0  0  0  0  0  0  0  0  0
   -4.2462    0.2218   -0.0178 C   0  0  0  0  0  0  0  0  0  0  0  0
    3.0243   -0.7922    0.9014 H   0  0  0  0  0  0  0  0  0  0  0  0
    3.0007   -0.7833   -0.8662 H   0  0  0  0  0  0  0  0  0  0  0  0
    2.2940    1.5880    0.9319 H   0  0  0  0  0  0  0  0  0  0  0  0
    2.2959    1.6115   -0.8468 H   0  0  0  0  0  0  0  0  0  0  0  0
    5.3893   -1.3077   -0.9275 H   0  0  0  0  0  0  0  0  0  0  0  0
    5.3840   -1.3615    0.8309 H   0  0  0  0  0  0  0  0  0  0  0  0
    4.6758    0.9681    0.8175 H   0  0  0  0  0  0  0  0  0  0  0  0
    7.0953    0.4715    0.8964 H   0  0  0  0  0  0  0  0  0  0  0  0
    7.1093    0.5022   -0.8857 H   0  0  0  0  0  0  0  0  0  0  0  0
    0.1196    2.3629    0.0151 H   0  0  0  0  0  0  0  0  0  0  0  0
   -1.1443   -1.1775    0.0180 H   0  0  0  0  0  0  0  0  0  0  0  0
   -4.6581    2.3283   -0.0298 H   0  0  0  0  0  0  0  0  0  0  0  0
   -5.3061   -0.0193   -0.0268 H   0  0  0  0  0  0  0  0  0  0  0  0
    8.7396   -0.8125   -0.0017 H   0  0  0  0  0  0  0  0  0  0  0  0
   -3.0094    3.7806   -0.0212 H   0  0  0  0  0  0  0  0  0  0  0  0
  1 12  1  0  0  0  0
  1 32  1  0  0  0  0
  2 15  1  0  0  0  0
  2 33  1  0  0  0  0
  3  7  1  0  0  0  0
  4  7  2  0  0  0  0
  5  8  1  0  0  0  0
  5 10  1  0  0  0  0
  5 25  1  0  0  0  0
  6  9  1  0  0  0  0
  6 13  2  0  0  0  0
  7 16  1  0  0  0  0
  8  9  1  0  0  0  0
  8 19  1  0  0  0  0
  8 20  1  0  0  0  0
  9 21  1  0  0  0  0
  9 22  1  0  0  0  0
 10 12  1  0  0  0  0
 10 23  1  0  0  0  0
 10 24  1  0  0  0  0
 11 13  1  0  0  0  0
 11 14  1  0  0  0  0
 11 15  2  0  0  0  0
 12 26  1  0  0  0  0
 12 27  1  0  0  0  0
 13 28  1  0  0  0  0
 14 16  2  0  0  0  0
 14 29  1  0  0  0  0
 15 17  1  0  0  0  0
 16 18  1  0  0  0  0
 17 18  2  0  0  0  0
 17 30  1  0  0  0  0
 18 31  1  0  0  0  0
M  CHG  2   3  -1   7   1
M  END
> <PUBCHEM_COMPOUND_CID>
135858154

> <PUBCHEM_CONFORMER_RMSD>
0.8

> <PUBCHEM_CONFORMER_DIVERSEORDER>
1
51
15
46
20
3
45
14
53
56
22
38
7
8
13
44
33
43
50
32
30
28
4
36
11
24
37
39
57
47
10
12
42
55
31
49
54
48
52
17
5
40
6
2
29
19
9
18
16
25
23
27
21
26
41
35
34

> <PUBCHEM_MMFF94_PARTIAL_CHARGES>
25
1 -0.68
10 0.27
11 0.09
12 0.28
13 0.3
14 -0.15
15 0.08
16 0.13
17 -0.15
18 -0.15
2 -0.53
25 0.36
28 0.06
29 0.15
3 -0.52
30 0.15
31 0.15
32 0.4
33 0.45
4 -0.52
5 -0.9
6 -0.7
7 0.91
8 0.27
9 0.25

> <PUBCHEM_EFFECTIVE_ROTOR_COUNT>
7

> <PUBCHEM_PHARMACOPHORE_FEATURES>
10
1 1 acceptor
1 1 donor
1 2 donor
1 3 acceptor
1 3 anion
1 4 acceptor
1 5 cation
1 5 donor
1 6 acceptor
6 11 14 15 16 17 18 rings

> <PUBCHEM_HEAVY_ATOM_COUNT>
18

> <PUBCHEM_ATOM_DEF_STEREO_COUNT>
0

> <PUBCHEM_ATOM_UDEF_STEREO_COUNT>
0

> <PUBCHEM_BOND_DEF_STEREO_COUNT>
0

> <PUBCHEM_BOND_UDEF_STEREO_COUNT>
0

> <PUBCHEM_ISOTOPIC_ATOM_COUNT>
0

> <PUBCHEM_COMPONENT_COUNT>
1

> <PUBCHEM_CACTVS_TAUTO_COUNT>
-1

> <PUBCHEM_CONFORMER_ID>
081907EA00000001

> <PUBCHEM_MMFF94_ENERGY>
36.1358

> <PUBCHEM_FEATURE_SELFOVERLAP>
50.828

> <PUBCHEM_SHAPE_FINGERPRINT>
10411042 1 18266460004895497763
10595046 47 18334297578821918356
10616163 171 18410575089085153455
11315181 36 18409450280490309784
11524674 6 17060337426844146590
11809386 21 18259698991246371474
12091667 2 16950567645378912836
12757275 245 18410012152221868673
12760667 363 18340767147878351295
12916754 54 18339644546000119849
13167372 99 10087639300427440554
13167823 11 18334574625386452138
13288520 33 18410856572867680309
13631057 29 18412260653363813082
13740256 8 18413108381566861720
14251732 16 18340204189762152904
14251751 18 18413109485410159088
14508225 48 18337378453215775477
15042514 8 18409733997750750105
15483637 11 11637718126738473126
17834072 33 18260834813092124540
17844677 252 18412550916455800784
18927931 339 18411142441374447415
21054139 6 18113898269679248666
21267235 1 18335143132990806643
21426921 1 18410011009602851549
21623969 137 17275108310922401366
220451 1 18187650151026629480
2297311 6 18342181063559194436
23081809 10 17676493818366468324
23402539 116 18334011692428309732
23466295 7 17605850341694174931
23559900 14 18340196492268577352
335352 9 18410008841435378901
4214541 1 18410855439017750912
5104073 3 18273494598300561008
531348 171 17532358773912907180
559249 180 18407758127446539927
6327066 14 17681547031347040941
67856867 119 18261679280951265956
7062679 117 18408886239609478718
77188 2 18194964282690135173

> <PUBCHEM_SHAPE_MULTIPOLES>
332.01
15.77
2.67
0.58
38.41
0.65
0
6.97
0.15
-4.97
0
0
-0.03
0.03

> <PUBCHEM_SHAPE_SELFOVERLAP>
673.509

> <PUBCHEM_SHAPE_VOLUME>
193.5

> <PUBCHEM_COORDINATE_TYPE>
2
5
10

$$$$
