135854983
  -OEChem-03292013293D

 26 26  0     0  0  0  0  0  0999 V2000
    3.3641   -0.7480   -1.2361 O   0  0  0  0  0  0  0  0  0  0  0  0
   -0.5289    2.4297    0.2155 O   0  0  0  0  0  0  0  0  0  0  0  0
    3.0730   -0.1037    1.6917 O   0  0  0  0  0  0  0  0  0  0  0  0
    1.1910    0.2893    0.3403 N   0  0  0  0  0  0  0  0  0  0  0  0
   -2.3416    1.0340   -0.0300 N   0  0  0  0  0  0  0  0  0  0  0  0
   -2.0897   -1.2979   -0.0762 N   0  0  0  0  0  0  0  0  0  0  0  0
    0.0671   -2.2785    0.1336 N   0  0  0  0  0  0  0  0  0  0  0  0
   -4.2131   -0.3313   -0.2828 N   0  0  0  0  0  0  0  0  0  0  0  0
   -0.1515    0.0797    0.1841 C   0  0  0  0  0  0  0  0  0  0  0  0
    1.8939    1.0640   -0.6760 C   0  0  0  0  0  0  0  0  0  0  0  0
   -0.7196   -1.1465    0.0818 C   0  0  0  0  0  0  0  0  0  0  0  0
   -1.0003    1.2998    0.1278 C   0  0  0  0  0  0  0  0  0  0  0  0
    2.4310    0.1749   -1.7826 C   0  0  0  0  0  0  0  0  0  0  0  0
   -2.8544   -0.2456   -0.1283 C   0  0  0  0  0  0  0  0  0  0  0  0
    1.8789   -0.2197    1.4373 C   0  0  0  0  0  0  0  0  0  0  0  0
    2.7321    1.5764   -0.1882 H   0  0  0  0  0  0  0  0  0  0  0  0
    1.2573    1.8308   -1.1236 H   0  0  0  0  0  0  0  0  0  0  0  0
    2.9444    0.7781   -2.5379 H   0  0  0  0  0  0  0  0  0  0  0  0
    1.6275   -0.3892   -2.2670 H   0  0  0  0  0  0  0  0  0  0  0  0
   -2.9850    1.8183   -0.0771 H   0  0  0  0  0  0  0  0  0  0  0  0
    1.2148   -0.7563    2.1367 H   0  0  0  0  0  0  0  0  0  0  0  0
    1.0757   -2.2098    0.1581 H   0  0  0  0  0  0  0  0  0  0  0  0
   -0.3794   -3.1816    0.0347 H   0  0  0  0  0  0  0  0  0  0  0  0
    3.6879   -1.2953   -1.9717 H   0  0  0  0  0  0  0  0  0  0  0  0
   -4.6769   -1.2296   -0.3633 H   0  0  0  0  0  0  0  0  0  0  0  0
   -4.7946    0.4987   -0.3214 H   0  0  0  0  0  0  0  0  0  0  0  0
  1 13  1  0  0  0  0
  1 24  1  0  0  0  0
  2 12  2  0  0  0  0
  3 15  2  0  0  0  0
  4  9  1  0  0  0  0
  4 10  1  0  0  0  0
  4 15  1  0  0  0  0
  5 12  1  0  0  0  0
  5 14  1  0  0  0  0
  5 20  1  0  0  0  0
  6 11  1  0  0  0  0
  6 14  2  0  0  0  0
  7 11  1  0  0  0  0
  7 22  1  0  0  0  0
  7 23  1  0  0  0  0
  8 14  1  0  0  0  0
  8 25  1  0  0  0  0
  8 26  1  0  0  0  0
  9 11  2  0  0  0  0
  9 12  1  0  0  0  0
 10 13  1  0  0  0  0
 10 16  1  0  0  0  0
 10 17  1  0  0  0  0
 13 18  1  0  0  0  0
 13 19  1  0  0  0  0
 15 21  1  0  0  0  0
M  END
> <PUBCHEM_COMPOUND_CID>
135854983

> <PUBCHEM_CONFORMER_RMSD>
0.6

> <PUBCHEM_CONFORMER_DIVERSEORDER>
1
23
7
20
13
21
8
6
19
18
16
9
11
10
5
22
12
14
2
4
15
17
3

> <PUBCHEM_MMFF94_PARTIAL_CHARGES>
22
1 -0.68
10 0.3
11 0.27
12 0.62
13 0.28
14 0.56
15 0.57
2 -0.57
20 0.37
21 0.06
22 0.4
23 0.4
24 0.4
25 0.4
26 0.4
3 -0.57
4 -0.47
5 -0.49
6 -0.62
7 -0.9
8 -0.85
9 0.12

> <PUBCHEM_EFFECTIVE_ROTOR_COUNT>
4

> <PUBCHEM_PHARMACOPHORE_FEATURES>
9
1 1 acceptor
1 1 donor
1 2 acceptor
1 3 acceptor
1 5 donor
1 7 cation
1 7 donor
1 8 donor
6 5 6 9 11 12 14 rings

> <PUBCHEM_HEAVY_ATOM_COUNT>
15

> <PUBCHEM_ATOM_DEF_STEREO_COUNT>
0

> <PUBCHEM_ATOM_UDEF_STEREO_COUNT>
0

> <PUBCHEM_BOND_DEF_STEREO_COUNT>
0

> <PUBCHEM_BOND_UDEF_STEREO_COUNT>
0

> <PUBCHEM_ISOTOPIC_ATOM_COUNT>
0

> <PUBCHEM_COMPONENT_COUNT>
1

> <PUBCHEM_CACTVS_TAUTO_COUNT>
-1

> <PUBCHEM_CONFORMER_ID>
0818FB8700000001

> <PUBCHEM_MMFF94_ENERGY>
56.9339

> <PUBCHEM_FEATURE_SELFOVERLAP>
45.717

> <PUBCHEM_SHAPE_FINGERPRINT>
11031198 65 15502382252776624998
12423570 1 17464250530889335344
12524768 44 18055916734303835337
13538477 17 17968093182916358306
15219456 202 17274815835948746312
15375462 175 18410867550561528242
15775835 57 17458350774864215284
16945 1 18410291406790151641
19765921 60 17317059257413984476
20559304 39 18186512194429214272
20645476 183 17603873363520042479
21061003 4 15840723867907417044
22802520 49 18200052714453547358
232386 152 18262503896937574058
23402539 116 18128797776646210532
23419403 2 16332096941542387317
23463225 33 18260817181681447947
23552423 10 18116997667886757307
23559900 14 18272657801664447182
2748010 2 17977379761815387175
3286 77 16702308931416032620
5084963 1 18131080298429594180
53812653 8 18261116270181895669
53812654 25 18335969956575084961
77492 1 17749388156999300448

> <PUBCHEM_SHAPE_MULTIPOLES>
266.18
5.19
1.73
1.27
1.72
0.14
-0.01
-0.58
0.9
0.42
-0.06
-1.67
-0.06
-0.23

> <PUBCHEM_SHAPE_SELFOVERLAP>
550.634

> <PUBCHEM_SHAPE_VOLUME>
150.8

> <PUBCHEM_COORDINATE_TYPE>
2
5
10

$$$$
