135854980
  -OEChem-03292013293D

 54 58  0     1  0  0  0  0  0999 V2000
   -2.4677    1.9552    0.9911 O   0  0  0  0  0  0  0  0  0  0  0  0
   -0.5793    4.0551   -0.2082 O   0  0  0  0  0  0  0  0  0  0  0  0
   -5.0663    2.9874    0.9802 O   0  0  0  0  0  0  0  0  0  0  0  0
   -3.7020   -4.2430   -0.3219 O   0  0  0  0  0  0  0  0  0  0  0  0
   -1.7446   -0.1893    0.0666 N   0  0  0  0  0  0  0  0  0  0  0  0
   -1.3893   -2.3866   -0.1508 N   0  0  0  0  0  0  0  0  0  0  0  0
   -4.1644   -0.1305    0.0838 N   0  0  0  0  0  0  0  0  0  0  0  0
   -5.0505   -2.3463   -0.1294 N   0  0  0  0  0  0  0  0  0  0  0  0
   -6.4861   -0.4898    0.0592 N   0  0  0  0  0  0  0  0  0  0  0  0
    8.9269    0.4136    0.0847 N   0  0  0  0  0  0  0  0  0  0  0  0
   -1.4610    1.2848    0.2098 C   0  0  1  0  0  0  0  0  0  0  0  0
   -1.3992    2.0145   -1.1275 C   0  0  0  0  0  0  0  0  0  0  0  0
   -1.7493    3.4297   -0.7306 C   0  0  1  0  0  0  0  0  0  0  0  0
   -2.7651    3.2303    0.3867 C   0  0  1  0  0  0  0  0  0  0  0  0
   -4.1994    3.1857   -0.1227 C   0  0  0  0  0  0  0  0  0  0  0  0
   -0.8221   -1.2017   -0.0371 C   0  0  0  0  0  0  0  0  0  0  0  0
   -2.9768   -0.7716    0.0153 C   0  0  0  0  0  0  0  0  0  0  0  0
   -2.7253   -2.1157   -0.1179 C   0  0  0  0  0  0  0  0  0  0  0  0
    0.6048   -0.9658   -0.0207 C   0  0  0  0  0  0  0  0  0  0  0  0
   -3.8295   -3.0311   -0.2024 C   0  0  0  0  0  0  0  0  0  0  0  0
    1.2876   -0.7340   -1.2149 C   0  0  0  0  0  0  0  0  0  0  0  0
    1.2981   -0.9705    1.1896 C   0  0  0  0  0  0  0  0  0  0  0  0
   -5.1943   -0.9453    0.0088 C   0  0  0  0  0  0  0  0  0  0  0  0
    2.6636   -0.5067   -1.1985 C   0  0  0  0  0  0  0  0  0  0  0  0
    2.6742   -0.7433    1.2059 C   0  0  0  0  0  0  0  0  0  0  0  0
    3.3570   -0.5112    0.0119 C   0  0  0  0  0  0  0  0  0  0  0  0
    4.7842   -0.2744    0.0301 C   0  0  0  0  0  0  0  0  0  0  0  0
    5.3695    0.5355   -0.9432 C   0  0  0  0  0  0  0  0  0  0  0  0
    5.5748   -0.8554    1.0215 C   0  0  0  0  0  0  0  0  0  0  0  0
    6.7452    0.7643   -0.9251 C   0  0  0  0  0  0  0  0  0  0  0  0
    6.9506   -0.6267    1.0396 C   0  0  0  0  0  0  0  0  0  0  0  0
    7.5358    0.1831    0.0663 C   0  0  0  0  0  0  0  0  0  0  0  0
   -0.5207    1.3700    0.7646 H   0  0  0  0  0  0  0  0  0  0  0  0
   -2.1521    1.6207   -1.8204 H   0  0  0  0  0  0  0  0  0  0  0  0
   -0.4149    1.9177   -1.5952 H   0  0  0  0  0  0  0  0  0  0  0  0
   -2.1124    4.0357   -1.5655 H   0  0  0  0  0  0  0  0  0  0  0  0
   -2.6714    3.9845    1.1760 H   0  0  0  0  0  0  0  0  0  0  0  0
   -4.4653    4.1306   -0.6071 H   0  0  0  0  0  0  0  0  0  0  0  0
   -4.3565    2.3690   -0.8325 H   0  0  0  0  0  0  0  0  0  0  0  0
   -0.8342    4.9456    0.0877 H   0  0  0  0  0  0  0  0  0  0  0  0
   -5.9737    2.9652    0.6313 H   0  0  0  0  0  0  0  0  0  0  0  0
    0.7614   -0.7335   -2.1666 H   0  0  0  0  0  0  0  0  0  0  0  0
    0.7781   -1.1428    2.1290 H   0  0  0  0  0  0  0  0  0  0  0  0
   -5.9001   -2.9010   -0.1799 H   0  0  0  0  0  0  0  0  0  0  0  0
    3.1573   -0.3607   -2.1553 H   0  0  0  0  0  0  0  0  0  0  0  0
    3.1658   -0.7254    2.1747 H   0  0  0  0  0  0  0  0  0  0  0  0
   -6.6902    0.4989    0.1566 H   0  0  0  0  0  0  0  0  0  0  0  0
   -7.2741   -1.1254    0.0004 H   0  0  0  0  0  0  0  0  0  0  0  0
    4.7903    1.0337   -1.7159 H   0  0  0  0  0  0  0  0  0  0  0  0
    5.1686   -1.5175    1.7813 H   0  0  0  0  0  0  0  0  0  0  0  0
    7.1891    1.4026   -1.6849 H   0  0  0  0  0  0  0  0  0  0  0  0
    7.5575   -1.0905    1.8131 H   0  0  0  0  0  0  0  0  0  0  0  0
    9.3520    1.0010   -0.6202 H   0  0  0  0  0  0  0  0  0  0  0  0
    9.5003   -0.0071    0.8037 H   0  0  0  0  0  0  0  0  0  0  0  0
  1 11  1  0  0  0  0
  1 14  1  0  0  0  0
  2 13  1  0  0  0  0
  2 40  1  0  0  0  0
  3 15  1  0  0  0  0
  3 41  1  0  0  0  0
  4 20  2  0  0  0  0
  5 11  1  0  0  0  0
  5 16  1  0  0  0  0
  5 17  1  0  0  0  0
  6 16  2  0  0  0  0
  6 18  1  0  0  0  0
  7 17  1  0  0  0  0
  7 23  2  0  0  0  0
  8 20  1  0  0  0  0
  8 23  1  0  0  0  0
  8 44  1  0  0  0  0
  9 23  1  0  0  0  0
  9 47  1  0  0  0  0
  9 48  1  0  0  0  0
 10 32  1  0  0  0  0
 10 53  1  0  0  0  0
 10 54  1  0  0  0  0
 11 12  1  0  0  0  0
 11 33  1  0  0  0  0
 12 13  1  0  0  0  0
 12 34  1  0  0  0  0
 12 35  1  0  0  0  0
 13 14  1  0  0  0  0
 13 36  1  0  0  0  0
 14 15  1  0  0  0  0
 14 37  1  0  0  0  0
 15 38  1  0  0  0  0
 15 39  1  0  0  0  0
 16 19  1  0  0  0  0
 17 18  2  0  0  0  0
 18 20  1  0  0  0  0
 19 21  2  0  0  0  0
 19 22  1  0  0  0  0
 21 24  1  0  0  0  0
 21 42  1  0  0  0  0
 22 25  2  0  0  0  0
 22 43  1  0  0  0  0
 24 26  2  0  0  0  0
 24 45  1  0  0  0  0
 25 26  1  0  0  0  0
 25 46  1  0  0  0  0
 26 27  1  0  0  0  0
 27 28  2  0  0  0  0
 27 29  1  0  0  0  0
 28 30  1  0  0  0  0
 28 49  1  0  0  0  0
 29 31  2  0  0  0  0
 29 50  1  0  0  0  0
 30 32  2  0  0  0  0
 30 51  1  0  0  0  0
 31 32  1  0  0  0  0
 31 52  1  0  0  0  0
M  END
> <PUBCHEM_COMPOUND_CID>
135854980

> <PUBCHEM_CONFORMER_RMSD>
0.8

> <PUBCHEM_CONFORMER_DIVERSEORDER>
1
9
5
8
3
4
6
7
2

> <PUBCHEM_MMFF94_PARTIAL_CHARGES>
44
1 -0.56
10 -0.9
11 0.54
13 0.28
14 0.28
15 0.28
16 0.13
17 -0.03
18 0.14
19 0.05
2 -0.68
20 0.72
21 -0.15
22 -0.15
23 0.56
24 -0.15
25 -0.15
28 -0.15
29 -0.15
3 -0.68
30 -0.15
31 -0.15
32 0.1
4 -0.57
40 0.4
41 0.4
42 0.15
43 0.15
44 0.37
45 0.15
46 0.15
47 0.4
48 0.4
49 0.15
5 0.05
50 0.15
51 0.15
52 0.15
53 0.4
54 0.4
6 -0.57
7 -0.58
8 -0.49
9 -0.85

> <PUBCHEM_EFFECTIVE_ROTOR_COUNT>
5

> <PUBCHEM_PHARMACOPHORE_FEATURES>
16
1 1 acceptor
1 10 cation
1 10 donor
1 2 acceptor
1 2 donor
1 3 acceptor
1 3 donor
1 4 acceptor
1 8 donor
1 9 donor
3 5 6 16 cation
5 1 11 12 13 14 rings
5 5 6 16 17 18 rings
6 19 21 22 24 25 26 rings
6 27 28 29 30 31 32 rings
6 7 8 17 18 20 23 rings

> <PUBCHEM_HEAVY_ATOM_COUNT>
32

> <PUBCHEM_ATOM_DEF_STEREO_COUNT>
3

> <PUBCHEM_ATOM_UDEF_STEREO_COUNT>
0

> <PUBCHEM_BOND_DEF_STEREO_COUNT>
0

> <PUBCHEM_BOND_UDEF_STEREO_COUNT>
0

> <PUBCHEM_ISOTOPIC_ATOM_COUNT>
0

> <PUBCHEM_COMPONENT_COUNT>
1

> <PUBCHEM_CACTVS_TAUTO_COUNT>
-1

> <PUBCHEM_CONFORMER_ID>
0818FB8400000001

> <PUBCHEM_MMFF94_ENERGY>
104.9758

> <PUBCHEM_FEATURE_SELFOVERLAP>
81.383

> <PUBCHEM_SHAPE_FINGERPRINT>
10050765 1 18266740182539254254
100830 39 18410008798322168764
10087517 78 18409729560437772540
10411042 1 18123469651517086087
10580692 12 18337670820530287106
10595046 47 18334574672990087306
10670039 82 18408036304473942776
1100329 8 18336832013290368427
11101153 10 18264489662694226324
12107183 9 17829882141224026490
12107698 1 18409447029305353884
12166972 35 17603865671549704924
12236239 1 17894909654744075246
12788726 201 18261104158548298875
13140716 1 18265901453157457867
13782708 43 17775005713260499710
13911987 19 18263062385143129583
14068700 675 18262797496517245308
14294032 229 18337112250367464777
14856354 85 18339083795038559102
14910302 57 18129958796907308870
15131766 46 14927088120632825191
15289351 153 18116719707486447708
15328684 2 17968641749884272752
15328829 1 17821730520238186678
15419008 47 17989203772606654264
1577012 14 18187364295304706600
15876981 60 18335142046036916895
16087824 20 18337389345785691573
17686467 74 18196930183688962264
18336668 15 18113340829936707901
20511986 3 17604141519908773757
21033648 29 17631433649774021048
21033650 10 18191894278942543774
21236236 1 18411699859293953165
21304303 172 18342455989475630887
21792961 116 17632581514333856702
21796203 349 17685525390781010539
23522609 53 17750254534641660036
23557571 272 18273500056676095964
23559900 14 18270676588246912331
24771293 8 18202009794687372161
249057 25 18040721398695010812
25147074 1 17968108533704487748
255183 451 17909826871328379319
335352 9 18410568518818957943
350125 39 18411418418919807952
3504750 166 18262219033802158546
3633792 109 17241032228641515095
4280585 95 18339359777157552367
469060 322 18339092535275232217
59567204 34 18411699872675032481
5969126 39 18272361018923497663
6677587 24 15438986375425247253
6700243 42 17770254774728972534
7226269 152 18334573564461406339
7808743 9 18338234847792350128

> <PUBCHEM_SHAPE_MULTIPOLES>
605.18
18.06
4.08
1.04
33.22
2.2
0
-0.63
1.33
-9.36
-0.25
0.82
0.12
-1.32

> <PUBCHEM_SHAPE_SELFOVERLAP>
1348.305

> <PUBCHEM_SHAPE_VOLUME>
318.9

> <PUBCHEM_COORDINATE_TYPE>
2
5
10

$$$$
