135804808
  -OEChem-03292013293D

 31 33  0     1  0  0  0  0  0999 V2000
    2.0289    0.4885   -0.9905 O   0  0  0  0  0  0  0  0  0  0  0  0
    1.1824   -2.2902    1.1141 O   0  0  0  0  0  0  0  0  0  0  0  0
    3.4689   -2.1417   -0.3675 O   0  0  0  0  0  0  0  0  0  0  0  0
    3.7686    2.6042   -0.3512 O   0  0  0  0  0  0  0  0  0  0  0  0
   -4.6295    1.3551    0.4284 O   0  0  0  0  0  0  0  0  0  0  0  0
   -0.2583    0.2880   -0.1568 N   0  0  0  0  0  0  0  0  0  0  0  0
   -0.2514    1.5908    0.1938 N   0  0  0  0  0  0  0  0  0  0  0  0
   -1.7970   -1.5308   -0.5417 N   0  0  0  0  0  0  0  0  0  0  0  0
   -4.0656   -0.8196   -0.1950 N   0  0  0  0  0  0  0  0  0  0  0  0
    1.6875   -1.0036    0.8182 C   0  0  1  0  0  0  0  0  0  0  0  0
    3.1598   -1.0181    0.4566 C   0  0  2  0  0  0  0  0  0  0  0  0
    1.0505   -0.4143   -0.4352 C   0  0  2  0  0  0  0  0  0  0  0  0
    3.3078    0.2603   -0.3586 C   0  0  2  0  0  0  0  0  0  0  0  0
    3.6418    1.4755    0.4958 C   0  0  0  0  0  0  0  0  0  0  0  0
   -1.5083   -0.2483   -0.2160 C   0  0  0  0  0  0  0  0  0  0  0  0
   -2.3708    0.7705    0.1172 C   0  0  0  0  0  0  0  0  0  0  0  0
   -1.5486    1.8790    0.3596 C   0  0  0  0  0  0  0  0  0  0  0  0
   -3.7884    0.5110    0.1439 C   0  0  0  0  0  0  0  0  0  0  0  0
   -3.0782   -1.7563   -0.5148 C   0  0  0  0  0  0  0  0  0  0  0  0
    1.5235   -0.3538    1.6864 H   0  0  0  0  0  0  0  0  0  0  0  0
    0.8188   -1.1752   -1.1900 H   0  0  0  0  0  0  0  0  0  0  0  0
    3.8110   -1.0689    1.3343 H   0  0  0  0  0  0  0  0  0  0  0  0
    4.0430    0.1582   -1.1648 H   0  0  0  0  0  0  0  0  0  0  0  0
    4.5862    1.3303    1.0293 H   0  0  0  0  0  0  0  0  0  0  0  0
    2.8473    1.6903    1.2174 H   0  0  0  0  0  0  0  0  0  0  0  0
    0.2266   -2.2026    1.2686 H   0  0  0  0  0  0  0  0  0  0  0  0
    4.4092   -2.0763   -0.6066 H   0  0  0  0  0  0  0  0  0  0  0  0
   -1.8270    2.8822    0.6487 H   0  0  0  0  0  0  0  0  0  0  0  0
    3.9854    3.3646    0.2148 H   0  0  0  0  0  0  0  0  0  0  0  0
   -3.4932   -2.7479   -0.7533 H   0  0  0  0  0  0  0  0  0  0  0  0
   -5.0371   -1.1165   -0.2084 H   0  0  0  0  0  0  0  0  0  0  0  0
  1 12  1  0  0  0  0
  1 13  1  0  0  0  0
  2 10  1  0  0  0  0
  2 26  1  0  0  0  0
  3 11  1  0  0  0  0
  3 27  1  0  0  0  0
  4 14  1  0  0  0  0
  4 29  1  0  0  0  0
  5 18  2  0  0  0  0
  6  7  1  0  0  0  0
  6 12  1  0  0  0  0
  6 15  1  0  0  0  0
  7 17  2  0  0  0  0
  8 15  1  0  0  0  0
  8 19  2  0  0  0  0
  9 18  1  0  0  0  0
  9 19  1  0  0  0  0
  9 31  1  0  0  0  0
 10 11  1  0  0  0  0
 10 12  1  0  0  0  0
 10 20  1  0  0  0  0
 11 13  1  0  0  0  0
 11 22  1  0  0  0  0
 12 21  1  0  0  0  0
 13 14  1  0  0  0  0
 13 23  1  0  0  0  0
 14 24  1  0  0  0  0
 14 25  1  0  0  0  0
 15 16  2  0  0  0  0
 16 17  1  0  0  0  0
 16 18  1  0  0  0  0
 17 28  1  0  0  0  0
 19 30  1  0  0  0  0
M  END
> <PUBCHEM_COMPOUND_CID>
135804808

> <PUBCHEM_CONFORMER_RMSD>
0.6

> <PUBCHEM_CONFORMER_DIVERSEORDER>
1
11
13
5
7
8
4
2
12
3
14
9
15
6
10

> <PUBCHEM_MMFF94_PARTIAL_CHARGES>
25
1 -0.56
10 0.28
11 0.28
12 0.54
13 0.28
14 0.28
15 -0.03
16 -0.09
17 0.14
18 0.72
19 0.45
2 -0.68
26 0.4
27 0.4
28 0.15
29 0.4
3 -0.68
30 0.06
31 0.37
4 -0.68
5 -0.57
6 0.31
7 -0.71
8 -0.58
9 -0.49

> <PUBCHEM_EFFECTIVE_ROTOR_COUNT>
3

> <PUBCHEM_PHARMACOPHORE_FEATURES>
13
1 1 acceptor
1 2 acceptor
1 2 donor
1 3 acceptor
1 3 donor
1 4 acceptor
1 4 donor
1 5 acceptor
1 7 acceptor
1 9 donor
5 1 10 11 12 13 rings
5 6 7 15 16 17 rings
6 8 9 15 16 18 19 rings

> <PUBCHEM_HEAVY_ATOM_COUNT>
19

> <PUBCHEM_ATOM_DEF_STEREO_COUNT>
4

> <PUBCHEM_ATOM_UDEF_STEREO_COUNT>
0

> <PUBCHEM_BOND_DEF_STEREO_COUNT>
0

> <PUBCHEM_BOND_UDEF_STEREO_COUNT>
0

> <PUBCHEM_ISOTOPIC_ATOM_COUNT>
0

> <PUBCHEM_COMPONENT_COUNT>
1

> <PUBCHEM_CACTVS_TAUTO_COUNT>
-1

> <PUBCHEM_CONFORMER_ID>
0818378800000001

> <PUBCHEM_MMFF94_ENERGY>
44.973

> <PUBCHEM_FEATURE_SELFOVERLAP>
66.114

> <PUBCHEM_SHAPE_FINGERPRINT>
10616163 171 18343302595352675463
11132069 177 18341605997486908219
11578080 2 17896579761319685012
11806522 49 18194678400591097655
12251169 10 18340483353307687606
12403814 3 18040431084364589261
12670545 47 16056871455616350583
13296908 3 18413106164878375303
13538477 17 18411416185446863911
13675066 3 18041003921126841369
14289901 80 18413388756525334776
14787075 74 18050002495643977938
15196674 1 18412262839755146751
15375462 189 18407759222969058435
15442244 35 18268148660869920432
15536298 74 18412262831064965894
15669948 3 18202275935734258215
16945 1 18192981622057661810
17492 89 18411138030359385246
18186145 218 17894346661677125959
19050596 39 18408881828303565026
19422 9 18342739606733602347
20281475 54 18343858927035267271
20510252 161 17987800679436190561
20645477 70 18411696556648797119
21267235 1 18411145722835242151
221490 88 18409456886113107298
22445834 79 18117556223714127579
2255824 54 18114185207616833258
22854114 111 18333732403410617528
23463225 33 18338234860587373247
23557571 272 17988088910200850012
23559900 14 18201719509936249734
34934 24 18341890822685997677
4340502 62 17385730188550999201
4409770 3 16818542438080040958
474 4 17969224602225629844
5104073 3 18410857659483825083
6333272 397 18189616223466542992
67856867 119 18410847798661100832
7097593 13 17974562494607193042
7364860 26 18341331102859056814
77779 3 18413109463344602383
9709674 26 18411705374153767838
9981440 41 18048595117230576472

> <PUBCHEM_SHAPE_MULTIPOLES>
341.74
8.12
2.35
0.82
1.82
0.07
-0.05
1.27
0
-1.09
-0.15
-0.27
-0.15
-0.73

> <PUBCHEM_SHAPE_SELFOVERLAP>
741.97

> <PUBCHEM_SHAPE_VOLUME>
184.7

> <PUBCHEM_COORDINATE_TYPE>
2
5
10

$$$$
