135839
  -OEChem-03292013323D

 49 50  0     1  0  0  0  0  0999 V2000
   -8.9548   -1.0233   -0.1856 Br  0  0  0  0  0  0  0  0  0  0  0  0
    5.4976   -2.8596   -0.5362 S   0  0  0  0  0  0  0  0  0  0  0  0
    6.7577   -3.4667    0.3030 O   0  0  0  0  0  0  0  0  0  0  0  0
    5.9792   -2.3774   -1.8177 O   0  0  0  0  0  0  0  0  0  0  0  0
    4.3856   -3.7880   -0.4436 O   0  0  0  0  0  0  0  0  0  0  0  0
    2.8588    1.5247    0.1439 N   0  0  3  0  0  0  0  0  0  0  0  0
   -0.7932   -1.2302    1.7581 N   0  0  0  0  0  0  0  0  0  0  0  0
   -2.6407    0.5321    0.5180 N   0  0  0  0  0  0  0  0  0  0  0  0
   -3.0112   -0.1815   -0.4426 N   0  0  0  0  0  0  0  0  0  0  0  0
   -5.1790    0.4850   -0.9831 N   0  0  0  0  0  0  0  0  0  0  0  0
    3.8296    0.6600    0.7715 C   0  0  0  0  0  0  0  0  0  0  0  0
    4.1175   -0.5594   -0.0986 C   0  0  0  0  0  0  0  0  0  0  0  0
    3.3370    2.6946   -0.5946 C   0  0  0  0  0  0  0  0  0  0  0  0
    1.4833    1.2715    0.2411 C   0  0  0  0  0  0  0  0  0  0  0  0
    5.1710   -1.4756    0.5099 C   0  0  0  0  0  0  0  0  0  0  0  0
    3.2795    3.9444    0.2775 C   0  0  0  0  0  0  0  0  0  0  0  0
    1.0188    0.1551    0.9450 C   0  0  0  0  0  0  0  0  0  0  0  0
    0.5628    2.1330   -0.3656 C   0  0  0  0  0  0  0  0  0  0  0  0
    3.8095    5.1835   -0.4308 C   0  0  0  0  0  0  0  0  0  0  0  0
   -0.3497   -0.0967    1.0414 C   0  0  0  0  0  0  0  0  0  0  0  0
   -0.8058    1.8810   -0.2693 C   0  0  0  0  0  0  0  0  0  0  0  0
   -1.2620    0.7662    0.4340 C   0  0  0  0  0  0  0  0  0  0  0  0
   -4.3942   -0.4164   -0.3578 C   0  0  0  0  0  0  0  0  0  0  0  0
   -4.8621   -1.5165    0.3356 C   0  0  0  0  0  0  0  0  0  0  0  0
   -6.2384   -1.7062    0.3919 C   0  0  0  0  0  0  0  0  0  0  0  0
   -6.5111    0.2677   -0.9067 C   0  0  0  0  0  0  0  0  0  0  0  0
   -7.0856   -0.8016   -0.2386 C   0  0  0  0  0  0  0  0  0  0  0  0
    3.5384    0.3743    1.7893 H   0  0  0  0  0  0  0  0  0  0  0  0
    4.7707    1.2090    0.9122 H   0  0  0  0  0  0  0  0  0  0  0  0
    3.2029   -1.1346   -0.2826 H   0  0  0  0  0  0  0  0  0  0  0  0
    4.4547   -0.2213   -1.0873 H   0  0  0  0  0  0  0  0  0  0  0  0
    2.8157    2.8288   -1.5494 H   0  0  0  0  0  0  0  0  0  0  0  0
    4.3829    2.5289   -0.8875 H   0  0  0  0  0  0  0  0  0  0  0  0
    6.1128   -0.9326    0.6395 H   0  0  0  0  0  0  0  0  0  0  0  0
    4.8445   -1.8604    1.4810 H   0  0  0  0  0  0  0  0  0  0  0  0
    2.2567    4.1462    0.6130 H   0  0  0  0  0  0  0  0  0  0  0  0
    3.8706    3.7818    1.1876 H   0  0  0  0  0  0  0  0  0  0  0  0
    1.6893   -0.5451    1.4332 H   0  0  0  0  0  0  0  0  0  0  0  0
    0.8479    3.0173   -0.9246 H   0  0  0  0  0  0  0  0  0  0  0  0
    4.8525    5.0452   -0.7326 H   0  0  0  0  0  0  0  0  0  0  0  0
    3.2181    5.4035   -1.3252 H   0  0  0  0  0  0  0  0  0  0  0  0
    3.7594    6.0517    0.2336 H   0  0  0  0  0  0  0  0  0  0  0  0
   -1.5091    2.5602   -0.7447 H   0  0  0  0  0  0  0  0  0  0  0  0
    7.5933   -2.9456    0.2503 H   0  0  0  0  0  0  0  0  0  0  0  0
   -0.1241   -1.8508    2.1937 H   0  0  0  0  0  0  0  0  0  0  0  0
   -1.7836   -1.4216    1.8312 H   0  0  0  0  0  0  0  0  0  0  0  0
   -4.1892   -2.2142    0.8221 H   0  0  0  0  0  0  0  0  0  0  0  0
   -6.6350   -2.5629    0.9302 H   0  0  0  0  0  0  0  0  0  0  0  0
   -7.1166    1.0093   -1.4191 H   0  0  0  0  0  0  0  0  0  0  0  0
  1 27  1  0  0  0  0
  2  3  1  0  0  0  0
  2  4  2  0  0  0  0
  2  5  2  0  0  0  0
  2 15  1  0  0  0  0
  3 44  1  0  0  0  0
  6 11  1  0  0  0  0
  6 13  1  0  0  0  0
  6 14  1  0  0  0  0
  7 20  1  0  0  0  0
  7 45  1  0  0  0  0
  7 46  1  0  0  0  0
  8  9  2  0  0  0  0
  8 22  1  0  0  0  0
  9 23  1  0  0  0  0
 10 23  2  0  0  0  0
 10 26  1  0  0  0  0
 11 12  1  0  0  0  0
 11 28  1  0  0  0  0
 11 29  1  0  0  0  0
 12 15  1  0  0  0  0
 12 30  1  0  0  0  0
 12 31  1  0  0  0  0
 13 16  1  0  0  0  0
 13 32  1  0  0  0  0
 13 33  1  0  0  0  0
 14 17  2  0  0  0  0
 14 18  1  0  0  0  0
 15 34  1  0  0  0  0
 15 35  1  0  0  0  0
 16 19  1  0  0  0  0
 16 36  1  0  0  0  0
 16 37  1  0  0  0  0
 17 20  1  0  0  0  0
 17 38  1  0  0  0  0
 18 21  2  0  0  0  0
 18 39  1  0  0  0  0
 19 40  1  0  0  0  0
 19 41  1  0  0  0  0
 19 42  1  0  0  0  0
 20 22  2  0  0  0  0
 21 22  1  0  0  0  0
 21 43  1  0  0  0  0
 23 24  1  0  0  0  0
 24 25  2  0  0  0  0
 24 47  1  0  0  0  0
 25 27  1  0  0  0  0
 25 48  1  0  0  0  0
 26 27  2  0  0  0  0
 26 49  1  0  0  0  0
M  END
> <PUBCHEM_COMPOUND_CID>
135839

> <PUBCHEM_CONFORMER_RMSD>
1

> <PUBCHEM_CONFORMER_DIVERSEORDER>
1
99
95
43
76
79
49
17
68
101
39
85
46
50
20
98
70
89
38
63
36
93
45
28
6
100
92
55
51
67
64
41
44
69
83
77
72
62
30
59
84
94
57
74
61
29
21
12
91
52
88
34
81
54
4
33
23
65
32
31
58
96
86
2
90
87
97
14
48
53
26
15
66
35
75
16
22
56
24
42
78
13
11
37
60
10
9
27
73
3
18
82
25
40
7
19
47
71
80
5
8

> <PUBCHEM_MMFF94_PARTIAL_CHARGES>
33
1 -0.11
10 -0.62
11 0.37
13 0.37
14 0.1
15 0.11
17 -0.15
18 -0.15
2 1.38
20 0.1
21 -0.15
22 0.18
23 0.49
24 -0.15
25 -0.15
26 0.16
27 0.11
3 -0.68
38 0.15
39 0.15
4 -0.65
43 0.15
44 0.5
45 0.4
46 0.4
47 0.15
48 0.15
49 0.15
5 -0.65
6 -0.84
7 -0.9
8 -0.18
9 -0.18

> <PUBCHEM_EFFECTIVE_ROTOR_COUNT>
9

> <PUBCHEM_PHARMACOPHORE_FEATURES>
12
1 1 hydrophobe
1 19 hydrophobe
1 3 acceptor
1 4 acceptor
1 5 acceptor
1 6 cation
1 7 cation
1 7 donor
3 9 10 23 cation
4 2 3 4 5 anion
6 10 23 24 25 26 27 rings
6 14 17 18 20 21 22 rings

> <PUBCHEM_HEAVY_ATOM_COUNT>
27

> <PUBCHEM_ATOM_DEF_STEREO_COUNT>
0

> <PUBCHEM_ATOM_UDEF_STEREO_COUNT>
0

> <PUBCHEM_BOND_DEF_STEREO_COUNT>
0

> <PUBCHEM_BOND_UDEF_STEREO_COUNT>
0

> <PUBCHEM_ISOTOPIC_ATOM_COUNT>
0

> <PUBCHEM_COMPONENT_COUNT>
1

> <PUBCHEM_CACTVS_TAUTO_COUNT>
1

> <PUBCHEM_CONFORMER_ID>
0002129F00000001

> <PUBCHEM_MMFF94_ENERGY>
78.0291

> <PUBCHEM_FEATURE_SELFOVERLAP>
60.948

> <PUBCHEM_SHAPE_FINGERPRINT>
10411042 1 18338233744491760840
10693767 8 18410285900384420899
12107183 9 18127141770765564649
12236239 1 18341049731367977113
13533116 47 18342457079490053896
13540713 4 17678753442687323776
13540713 5 18129683927458943752
1361 4 18195244653760147535
13955234 65 18199464536321633296
14216079 64 18341611495377824135
15840311 113 18259984908126815917
20105231 36 17821734932230338923
2026 5 18342453687057500503
20771845 140 16343985806155136111
21033650 10 16878788171879659573
21130935 74 18340207518340773539
21267235 1 18187644722414814017
21279426 13 18259977159472706325
21344244 181 18261114088719006867
21641784 216 15792004542045676397
21682296 61 18411140217124960147
22224240 67 10879986961362171925
23081809 10 17917713556728186153
23559900 14 18408038528939714408
23569914 2 11669538379788099915
255183 451 18342746183135602596
3004659 81 18186516613771207193
34797466 226 18334852879201253989
4073 2 17679018451244964801
46194498 28 18187359944017805860
5718773 13 18267300920764048146
6025842 7 18338518663848055324
6695519 79 17476662226360678960
70251023 43 18409730634348720224
9831232 110 18409164385659936007
9962374 69 18270669961112634406

> <PUBCHEM_SHAPE_MULTIPOLES>
522.93
21.27
4.76
1.05
34.77
2.5
0
-16.13
4.66
-14.85
1.04
-0.38
-0.33
1.22

> <PUBCHEM_SHAPE_SELFOVERLAP>
1059.897

> <PUBCHEM_SHAPE_VOLUME>
310

> <PUBCHEM_COORDINATE_TYPE>
2
5
10

$$$$
