135883818
  -OEChem-03292013293D

 56 60  0     1  0  0  0  0  0999 V2000
   -1.3242   -0.4639    1.3338 O   0  0  0  0  0  0  0  0  0  0  0  0
    0.6453    0.0768   -0.5042 O   0  0  0  0  0  0  0  0  0  0  0  0
   -2.6044    4.0609    0.6924 O   0  0  0  0  0  0  0  0  0  0  0  0
    3.9687   -2.2566   -0.8358 O   0  0  0  0  0  0  0  0  0  0  0  0
    3.2119    4.0615   -0.2247 O   0  0  0  0  0  0  0  0  0  0  0  0
    5.3408   -0.8514    1.5958 O   0  0  0  0  0  0  0  0  0  0  0  0
   -4.9812   -1.7799   -0.3014 N   0  0  0  0  0  0  0  0  0  0  0  0
   -1.4231   -1.7984    0.7883 C   0  0  1  0  0  0  0  0  0  0  0  0
   -2.8695   -2.3338    0.8169 C   0  0  0  0  0  0  0  0  0  0  0  0
   -0.8196   -1.8201   -0.6275 C   0  0  0  0  0  0  0  0  0  0  0  0
   -3.8215   -1.3302    0.2302 C   0  0  0  0  0  0  0  0  0  0  0  0
   -0.5530   -2.6820    1.6951 C   0  0  0  0  0  0  0  0  0  0  0  0
   -3.4875    0.0191    0.3301 C   0  0  0  0  0  0  0  0  0  0  0  0
   -2.2704    0.4258    0.8897 C   0  0  0  0  0  0  0  0  0  0  0  0
    0.5699   -1.3012   -0.6288 C   0  0  0  0  0  0  0  0  0  0  0  0
   -4.4111    0.9732   -0.1377 C   0  0  0  0  0  0  0  0  0  0  0  0
   -1.9801    1.7825    1.0255 C   0  0  0  0  0  0  0  0  0  0  0  0
   -5.6107    0.5245   -0.7006 C   0  0  0  0  0  0  0  0  0  0  0  0
   -5.8401   -0.8424   -0.7593 C   0  0  0  0  0  0  0  0  0  0  0  0
   -4.0964    2.3363   -0.0138 C   0  0  0  0  0  0  0  0  0  0  0  0
    1.6346   -2.1090   -0.7406 C   0  0  0  0  0  0  0  0  0  0  0  0
   -2.8914    2.7352    0.5704 C   0  0  0  0  0  0  0  0  0  0  0  0
    3.0689   -0.0653   -0.6018 C   0  0  0  0  0  0  0  0  0  0  0  0
    1.8855    0.6638   -0.4933 C   0  0  0  0  0  0  0  0  0  0  0  0
    2.9912   -1.5285   -0.7343 C   0  0  0  0  0  0  0  0  0  0  0  0
    4.3045    0.5858   -0.5842 C   0  0  0  0  0  0  0  0  0  0  0  0
   -7.1152   -1.3420   -1.3533 C   0  0  0  0  0  0  0  0  0  0  0  0
    1.9317    2.0523   -0.3663 C   0  0  0  0  0  0  0  0  0  0  0  0
    5.6142   -0.1250   -0.6953 C   0  0  0  0  0  0  0  0  0  0  0  0
    4.3475    1.9746   -0.4568 C   0  0  0  0  0  0  0  0  0  0  0  0
    3.1640    2.7065   -0.3483 C   0  0  0  0  0  0  0  0  0  0  0  0
    6.0396   -0.8314    0.5834 C   0  0  0  0  0  0  0  0  0  0  0  0
    7.3809   -1.5178    0.5561 C   0  0  0  0  0  0  0  0  0  0  0  0
   -3.1914   -2.5009    1.8529 H   0  0  0  0  0  0  0  0  0  0  0  0
   -2.9443   -3.2894    0.2852 H   0  0  0  0  0  0  0  0  0  0  0  0
   -1.4093   -1.2081   -1.3214 H   0  0  0  0  0  0  0  0  0  0  0  0
   -0.8561   -2.8411   -1.0304 H   0  0  0  0  0  0  0  0  0  0  0  0
    0.4437   -2.2601    1.8631 H   0  0  0  0  0  0  0  0  0  0  0  0
   -0.4527   -3.6988    1.3009 H   0  0  0  0  0  0  0  0  0  0  0  0
   -0.9992   -2.7541    2.6948 H   0  0  0  0  0  0  0  0  0  0  0  0
   -1.0415    2.0989    1.4733 H   0  0  0  0  0  0  0  0  0  0  0  0
   -6.3482    1.2273   -1.0781 H   0  0  0  0  0  0  0  0  0  0  0  0
   -4.7991    3.0882   -0.3679 H   0  0  0  0  0  0  0  0  0  0  0  0
    1.5413   -3.1846   -0.8357 H   0  0  0  0  0  0  0  0  0  0  0  0
   -7.2053   -1.0131   -2.3935 H   0  0  0  0  0  0  0  0  0  0  0  0
   -7.1527   -2.4363   -1.3413 H   0  0  0  0  0  0  0  0  0  0  0  0
   -7.9722   -0.9684   -0.7840 H   0  0  0  0  0  0  0  0  0  0  0  0
    1.0119    2.6254   -0.2827 H   0  0  0  0  0  0  0  0  0  0  0  0
    5.6230   -0.8212   -1.5396 H   0  0  0  0  0  0  0  0  0  0  0  0
    6.4096    0.5977   -0.9228 H   0  0  0  0  0  0  0  0  0  0  0  0
    5.3015    2.4968   -0.4381 H   0  0  0  0  0  0  0  0  0  0  0  0
   -3.3418    4.5787    0.3262 H   0  0  0  0  0  0  0  0  0  0  0  0
    4.1418    4.3467   -0.2305 H   0  0  0  0  0  0  0  0  0  0  0  0
    8.1656   -0.7810    0.3682 H   0  0  0  0  0  0  0  0  0  0  0  0
    7.3843   -2.2813   -0.2257 H   0  0  0  0  0  0  0  0  0  0  0  0
    7.5696   -1.9983    1.5200 H   0  0  0  0  0  0  0  0  0  0  0  0
  1  8  1  0  0  0  0
  1 14  1  0  0  0  0
  2 15  1  0  0  0  0
  2 24  1  0  0  0  0
  3 22  1  0  0  0  0
  3 52  1  0  0  0  0
  4 25  2  0  0  0  0
  5 31  1  0  0  0  0
  5 53  1  0  0  0  0
  6 32  2  0  0  0  0
  7 11  2  0  0  0  0
  7 19  1  0  0  0  0
  8  9  1  0  0  0  0
  8 10  1  0  0  0  0
  8 12  1  0  0  0  0
  9 11  1  0  0  0  0
  9 34  1  0  0  0  0
  9 35  1  0  0  0  0
 10 15  1  0  0  0  0
 10 36  1  0  0  0  0
 10 37  1  0  0  0  0
 11 13  1  0  0  0  0
 12 38  1  0  0  0  0
 12 39  1  0  0  0  0
 12 40  1  0  0  0  0
 13 14  2  0  0  0  0
 13 16  1  0  0  0  0
 14 17  1  0  0  0  0
 15 21  2  0  0  0  0
 16 18  1  0  0  0  0
 16 20  2  0  0  0  0
 17 22  2  0  0  0  0
 17 41  1  0  0  0  0
 18 19  2  0  0  0  0
 18 42  1  0  0  0  0
 19 27  1  0  0  0  0
 20 22  1  0  0  0  0
 20 43  1  0  0  0  0
 21 25  1  0  0  0  0
 21 44  1  0  0  0  0
 23 24  1  0  0  0  0
 23 25  1  0  0  0  0
 23 26  2  0  0  0  0
 24 28  2  0  0  0  0
 26 29  1  0  0  0  0
 26 30  1  0  0  0  0
 27 45  1  0  0  0  0
 27 46  1  0  0  0  0
 27 47  1  0  0  0  0
 28 31  1  0  0  0  0
 28 48  1  0  0  0  0
 29 32  1  0  0  0  0
 29 49  1  0  0  0  0
 29 50  1  0  0  0  0
 30 31  2  0  0  0  0
 30 51  1  0  0  0  0
 32 33  1  0  0  0  0
 33 54  1  0  0  0  0
 33 55  1  0  0  0  0
 33 56  1  0  0  0  0
M  END
> <PUBCHEM_COMPOUND_CID>
135883818

> <PUBCHEM_CONFORMER_RMSD>
0.8

> <PUBCHEM_CONFORMER_DIVERSEORDER>
1
174
163
58
112
168
73
165
192
101
190
122
203
75
189
178
156
141
62
160
204
161
149
104
167
106
129
186
121
132
80
194
181
173
53
140
37
171
65
111
175
127
199
94
164
138
183
12
139
201
176
68
118
55
33
191
76
82
93
2
103
158
87
188
7
98
159
97
8
17
43
172
155
147
144
162
64
116
177
196
100
67
90
59
169
128
36
157
148
130
50
95
25
125
99
61
150
34
72
46
179
42
193
77
27
70
198
142
45
21
115
133
137
56
10
109
113
38
153
126
105
195
63
13
49
146
182
20
108
86
6
18
135
151
41
91
81
51
35
184
180
200
60
26
47
31
79
154
152
120
69
136
114
131
89
83
123
202
197
52
66
40
84
143
22
16
102
48
23
57
19
117
187
14
5
30
11
71
74
78
170
39
96
88
107
119
15
24
124
54
110
9
134
92
3
166
32
4
185
85
29
145
44
28

> <PUBCHEM_MMFF94_PARTIAL_CHARGES>
38
1 -0.36
10 0.14
11 0.17
14 0.08
15 -0.06
17 -0.15
18 -0.15
19 0.17
2 -0.16
20 -0.15
21 -0.14
22 0.08
23 0.09
24 0.08
25 0.47
26 -0.14
27 0.14
28 -0.15
29 0.2
3 -0.53
30 -0.15
31 0.08
32 0.45
33 0.06
4 -0.57
41 0.15
42 0.15
43 0.15
44 0.15
48 0.15
5 -0.53
51 0.15
52 0.45
53 0.45
6 -0.57
7 -0.62
8 0.28
9 0.14

> <PUBCHEM_EFFECTIVE_ROTOR_COUNT>
4.6

> <PUBCHEM_PHARMACOPHORE_FEATURES>
12
1 1 acceptor
1 2 acceptor
1 3 donor
1 4 acceptor
1 5 donor
1 6 acceptor
1 7 acceptor
6 1 8 9 11 13 14 rings
6 13 14 16 17 20 22 rings
6 2 15 21 23 24 25 rings
6 23 24 26 28 30 31 rings
6 7 11 13 16 18 19 rings

> <PUBCHEM_HEAVY_ATOM_COUNT>
33

> <PUBCHEM_ATOM_DEF_STEREO_COUNT>
0

> <PUBCHEM_ATOM_UDEF_STEREO_COUNT>
1

> <PUBCHEM_BOND_DEF_STEREO_COUNT>
0

> <PUBCHEM_BOND_UDEF_STEREO_COUNT>
0

> <PUBCHEM_ISOTOPIC_ATOM_COUNT>
0

> <PUBCHEM_COMPONENT_COUNT>
1

> <PUBCHEM_CACTVS_TAUTO_COUNT>
-1

> <PUBCHEM_CONFORMER_ID>
08196C2A00000001

> <PUBCHEM_MMFF94_ENERGY>
101.2316

> <PUBCHEM_FEATURE_SELFOVERLAP>
61.022

> <PUBCHEM_SHAPE_FINGERPRINT>
10439779 11 18338795603207082160
12107698 1 18412542119639676431
12166972 35 18201719553038994736
12403260 363 18411703187930764656
12633257 1 18260834757030579256
12645989 146 18343027670601745374
12838863 1 18411688885779424270
13560911 43 18260261975412110704
13914758 101 17894904097240620871
14068700 675 18413668024105750013
14251764 38 18411424994346030373
14466204 15 18337955589324212610
14790565 3 18265912409677091492
15183329 4 18186236221247847146
15420108 30 17905042556358165241
15461852 350 17775283876848683726
17349148 13 18410295826026805452
18681886 176 18343860022457766626
19958102 18 18114454643546707173
20028762 73 18273214188407219790
21033648 29 17095789006117560893
21315763 129 18411139138739814454
21315764 268 18335134336365340068
23559900 14 18338233894067056281
2838139 119 18408318896041742063
335352 9 18409169926927221390
350125 39 18412266159601544340
3633792 109 17677038050272671595
392239 28 18410305713505764329
4017518 198 17775008969310350182
508706 21 18337686225622572092
5104073 3 18337120067302149136
513202 73 16371841834613144486
6086070 43 17969203590971317924
6328613 192 18041573524464678700
6371009 1 18411416219885853356
6669772 16 17414980633043527537
67856867 119 18412542141082903176
9709674 26 18340220634236939359
9981440 41 18335990779051965827

> <PUBCHEM_SHAPE_MULTIPOLES>
638.93
15.76
3.78
1.18
4.51
3.17
0.23
-3.21
-2.37
-0.08
0.53
-0.2
-0.46
-1.09

> <PUBCHEM_SHAPE_SELFOVERLAP>
1432.823

> <PUBCHEM_SHAPE_VOLUME>
338.8

> <PUBCHEM_COORDINATE_TYPE>
2
5
10

$$$$
