135886446
  -OEChem-03292013293D

 58 61  0     1  0  0  0  0  0999 V2000
    1.1711   -3.9866    1.4666 S   0  0  0  0  0  0  0  0  0  0  0  0
    4.0782    1.6446    0.6177 S   0  0  0  0  0  0  0  0  0  0  0  0
   -3.4009   -3.0283    0.0453 S   0  0  0  0  0  0  0  0  0  0  0  0
    4.3871   -2.1249   -1.1379 O   0  0  0  0  0  0  0  0  0  0  0  0
    0.3882    3.7894    2.2409 O   0  0  0  0  0  0  0  0  0  0  0  0
   -0.4868    2.0151    1.1087 O   0  0  0  0  0  0  0  0  0  0  0  0
   -1.9673    1.0311   -1.3123 O   0  0  0  0  0  0  0  0  0  0  0  0
    1.2894   -1.4235    0.7210 N   0  0  0  0  0  0  0  0  0  0  0  0
    1.6635    1.6940   -0.3858 N   0  0  0  0  0  0  0  0  0  0  0  0
   -1.5279   -1.2303    0.1655 N   0  0  0  0  0  0  0  0  0  0  0  0
    2.2545   -2.1731   -0.1053 C   0  0  1  0  0  0  0  0  0  0  0  0
    3.4416   -1.2870   -0.4668 C   0  0  2  0  0  0  0  0  0  0  0  0
    3.0893   -0.0552   -1.3433 C   0  0  0  0  0  0  0  0  0  0  0  0
    0.3219   -2.3935    1.2539 C   0  0  1  0  0  0  0  0  0  0  0  0
    2.6937   -3.3987    0.6930 C   0  0  0  0  0  0  0  0  0  0  0  0
   -0.8709   -2.5467    0.3163 C   0  0  1  0  0  0  0  0  0  0  0  0
    2.8083    1.0989   -0.4425 C   0  0  0  0  0  0  0  0  0  0  0  0
    1.8070   -0.2810   -2.1562 C   0  0  0  0  0  0  0  0  0  0  0  0
    4.2335    0.3500   -2.2834 C   0  0  0  0  0  0  0  0  0  0  0  0
    1.7288    2.8236    0.5676 C   0  0  1  0  0  0  0  0  0  0  0  0
   -1.8791   -3.5559    0.8492 C   0  0  0  0  0  0  0  0  0  0  0  0
    2.8768    2.6115    1.5562 C   0  0  0  0  0  0  0  0  0  0  0  0
    1.8448    4.1305   -0.2173 C   0  0  0  0  0  0  0  0  0  0  0  0
   -2.7989   -1.3845   -0.0338 C   0  0  0  0  0  0  0  0  0  0  0  0
    0.4238    2.8046    1.3103 C   0  0  0  0  0  0  0  0  0  0  0  0
   -3.7161   -0.2473   -0.2818 C   0  0  0  0  0  0  0  0  0  0  0  0
   -3.2643    0.9129   -0.9105 C   0  0  0  0  0  0  0  0  0  0  0  0
   -5.0467   -0.3477    0.1241 C   0  0  0  0  0  0  0  0  0  0  0  0
   -4.1433    1.9728   -1.1333 C   0  0  0  0  0  0  0  0  0  0  0  0
   -5.9257    0.7123   -0.0986 C   0  0  0  0  0  0  0  0  0  0  0  0
   -5.4741    1.8726   -0.7274 C   0  0  0  0  0  0  0  0  0  0  0  0
    1.7710   -2.5449   -1.0181 H   0  0  0  0  0  0  0  0  0  0  0  0
    3.9518   -1.0011    0.4574 H   0  0  0  0  0  0  0  0  0  0  0  0
   -0.0195   -2.0420    2.2346 H   0  0  0  0  0  0  0  0  0  0  0  0
    3.1213   -4.1792    0.0571 H   0  0  0  0  0  0  0  0  0  0  0  0
    3.4116   -3.1472    1.4807 H   0  0  0  0  0  0  0  0  0  0  0  0
    1.7953   -1.0148    1.5081 H   0  0  0  0  0  0  0  0  0  0  0  0
   -0.5340   -2.8608   -0.6830 H   0  0  0  0  0  0  0  0  0  0  0  0
    4.3364   -0.3633   -3.1092 H   0  0  0  0  0  0  0  0  0  0  0  0
    4.0556    1.3365   -2.7289 H   0  0  0  0  0  0  0  0  0  0  0  0
    5.2007    0.3933   -1.7703 H   0  0  0  0  0  0  0  0  0  0  0  0
    1.9098   -1.1576   -2.8070 H   0  0  0  0  0  0  0  0  0  0  0  0
    1.6209    0.5693   -2.8267 H   0  0  0  0  0  0  0  0  0  0  0  0
    0.8927   -0.4018   -1.5692 H   0  0  0  0  0  0  0  0  0  0  0  0
   -1.6371   -4.5885    0.5846 H   0  0  0  0  0  0  0  0  0  0  0  0
   -2.0144   -3.4781    1.9329 H   0  0  0  0  0  0  0  0  0  0  0  0
    3.9686   -2.4538   -1.9520 H   0  0  0  0  0  0  0  0  0  0  0  0
    3.3169    3.5476    1.9126 H   0  0  0  0  0  0  0  0  0  0  0  0
    2.5705    2.0200    2.4261 H   0  0  0  0  0  0  0  0  0  0  0  0
    0.9755    4.2747   -0.8699 H   0  0  0  0  0  0  0  0  0  0  0  0
    1.9036    4.9997    0.4472 H   0  0  0  0  0  0  0  0  0  0  0  0
    2.7343    4.1374   -0.8569 H   0  0  0  0  0  0  0  0  0  0  0  0
   -0.4580    3.7944    2.7369 H   0  0  0  0  0  0  0  0  0  0  0  0
   -5.4348   -1.2224    0.6369 H   0  0  0  0  0  0  0  0  0  0  0  0
   -3.8048    2.8830   -1.6211 H   0  0  0  0  0  0  0  0  0  0  0  0
   -6.9606    0.6368    0.2221 H   0  0  0  0  0  0  0  0  0  0  0  0
   -6.1582    2.6984   -0.8995 H   0  0  0  0  0  0  0  0  0  0  0  0
   -1.8386    1.9047   -1.7199 H   0  0  0  0  0  0  0  0  0  0  0  0
  1 14  1  0  0  0  0
  1 15  1  0  0  0  0
  2 17  1  0  0  0  0
  2 22  1  0  0  0  0
  3 21  1  0  0  0  0
  3 24  1  0  0  0  0
  4 12  1  0  0  0  0
  4 47  1  0  0  0  0
  5 25  1  0  0  0  0
  5 53  1  0  0  0  0
  6 25  2  0  0  0  0
  7 27  1  0  0  0  0
  7 58  1  0  0  0  0
  8 11  1  0  0  0  0
  8 14  1  0  0  0  0
  8 37  1  0  0  0  0
  9 17  2  0  0  0  0
  9 20  1  0  0  0  0
 10 16  1  0  0  0  0
 10 24  2  0  0  0  0
 11 12  1  0  0  0  0
 11 15  1  0  0  0  0
 11 32  1  0  0  0  0
 12 13  1  0  0  0  0
 12 33  1  0  0  0  0
 13 17  1  0  0  0  0
 13 18  1  0  0  0  0
 13 19  1  0  0  0  0
 14 16  1  0  0  0  0
 14 34  1  0  0  0  0
 15 35  1  0  0  0  0
 15 36  1  0  0  0  0
 16 21  1  0  0  0  0
 16 38  1  0  0  0  0
 18 42  1  0  0  0  0
 18 43  1  0  0  0  0
 18 44  1  0  0  0  0
 19 39  1  0  0  0  0
 19 40  1  0  0  0  0
 19 41  1  0  0  0  0
 20 22  1  0  0  0  0
 20 23  1  0  0  0  0
 20 25  1  0  0  0  0
 21 45  1  0  0  0  0
 21 46  1  0  0  0  0
 22 48  1  0  0  0  0
 22 49  1  0  0  0  0
 23 50  1  0  0  0  0
 23 51  1  0  0  0  0
 23 52  1  0  0  0  0
 24 26  1  0  0  0  0
 26 27  1  0  0  0  0
 26 28  2  0  0  0  0
 27 29  2  0  0  0  0
 28 30  1  0  0  0  0
 28 54  1  0  0  0  0
 29 31  1  0  0  0  0
 29 55  1  0  0  0  0
 30 31  2  0  0  0  0
 30 56  1  0  0  0  0
 31 57  1  0  0  0  0
M  END
> <PUBCHEM_COMPOUND_CID>
135886446

> <PUBCHEM_CONFORMER_RMSD>
1.2

> <PUBCHEM_CONFORMER_DIVERSEORDER>
1
203
25
196
36
186
174
41
40
98
62
229
112
200
84
176
88
101
118
139
217
75
202
129
150
245
33
14
246
132
113
234
127
240
208
52
147
93
161
189
94
131
247
66
128
43
24
215
82
159
104
5
190
183
133
242
103
16
81
4
225
42
182
126
233
188
216
65
237
201
106
212
18
191
85
226
76
115
210
168
59
105
173
223
11
10
15
77
163
135
136
171
177
108
199
13
125
172
22
137
214
27
90
146
73
107
193
51
97
166
58
156
71
178
165
99
143
209
219
180
109
53
179
230
95
195
164
37
64
239
184
6
241
19
220
8
102
56
144
231
34
162
222
197
20
3
70
50
80
142
87
38
86
248
224
235
213
114
48
79
17
119
117
152
31
39
154
54
55
92
232
205
44
111
151
170
116
45
46
167
47
175
185
60
244
149
110
78
26
160
249
140
243
21
187
61
122
100
9
57
72
236
91
89
206
169
23
218
158
155
204
63
69
68
141
192
148
194
138
74
83
227
12
7
121
67
157
211
123
153
130
32
96
198
49
134
228
238
124
145
181
120
221
30
35
2
207
29
28

> <PUBCHEM_MMFF94_PARTIAL_CHARGES>
36
1 -0.46
10 -0.7
11 0.27
12 0.28
13 0.06
14 0.5
15 0.23
16 0.25
17 0.53
2 -0.37
20 0.31
21 0.23
22 0.23
24 0.5
25 0.66
26 0.09
27 0.08
28 -0.15
29 -0.15
3 -0.37
30 -0.15
31 -0.15
37 0.36
4 -0.68
47 0.4
5 -0.65
53 0.5
54 0.15
55 0.15
56 0.15
57 0.15
58 0.45
6 -0.57
7 -0.53
8 -0.9
9 -0.7

> <PUBCHEM_EFFECTIVE_ROTOR_COUNT>
8.2

> <PUBCHEM_PHARMACOPHORE_FEATURES>
15
1 10 acceptor
1 4 acceptor
1 4 donor
1 5 acceptor
1 6 acceptor
1 7 donor
1 8 cation
1 8 donor
1 9 acceptor
3 13 18 19 hydrophobe
3 5 6 25 anion
5 1 8 11 14 15 rings
5 2 9 17 20 22 rings
5 3 10 16 21 24 rings
6 26 27 28 29 30 31 rings

> <PUBCHEM_HEAVY_ATOM_COUNT>
31

> <PUBCHEM_ATOM_DEF_STEREO_COUNT>
4

> <PUBCHEM_ATOM_UDEF_STEREO_COUNT>
1

> <PUBCHEM_BOND_DEF_STEREO_COUNT>
0

> <PUBCHEM_BOND_UDEF_STEREO_COUNT>
0

> <PUBCHEM_ISOTOPIC_ATOM_COUNT>
0

> <PUBCHEM_COMPONENT_COUNT>
1

> <PUBCHEM_CACTVS_TAUTO_COUNT>
-1

> <PUBCHEM_CONFORMER_ID>
0819766E00000001

> <PUBCHEM_MMFF94_ENERGY>
88.8544

> <PUBCHEM_FEATURE_SELFOVERLAP>
76.187

> <PUBCHEM_SHAPE_FINGERPRINT>
10165383 225 18114189626710569293
10190206 1 17977690631939507246
10439779 11 18337656568846993928
10675989 125 18410855438680667392
10764073 3 18193528209024488384
1100329 8 18336538305292309251
11513181 2 17261604971824171510
12156800 1 15654610488135505176
12769317 202 18188763942862067119
12788726 201 17984707718413512384
12925494 130 18119524346335964877
13009979 54 17616243685397752490
13402501 40 17907579477533214032
13617811 41 17968372438434383157
14068700 675 17975408019634553882
14114206 34 17909872822792874764
14114211 68 17970093100099270599
14251757 17 18341614862399666681
14251764 38 18050281762965319949
14347329 18 17896331388045580326
14466204 15 18265321975699909144
14931854 50 18338525135746170428
15322687 12 18335696101450638513
15351339 4 18267297643270952537
17093844 170 18411412951616617240
17921350 177 18202286926202381695
18608769 82 18117292556157324139
20764821 26 18264201594372601125
22122407 14 18125169239053793777
23536364 44 18194714573095964870
23559900 14 18412265068621822524
238918 7 17623563559758268416
3298306 158 18198336454101515705
508706 21 18192147311870561379
513532 50 17846201263752381962
5252454 2 18187082849781013071
5265222 85 18045506567356498548
5776283 40 18045239355908065228
7399639 24 17119722312127548641

> <PUBCHEM_SHAPE_MULTIPOLES>
611.09
10.01
5.64
1.69
11.06
1.01
-0.21
-3.09
-3.32
-1.92
2.89
-1.61
-0.64
1.55

> <PUBCHEM_SHAPE_SELFOVERLAP>
1271.278

> <PUBCHEM_SHAPE_VOLUME>
352.8

> <PUBCHEM_COORDINATE_TYPE>
2
5
10

$$$$
