135808
  -OEChem-03292013323D

 26 25  0     0  0  0  0  0  0999 V2000
   -2.5360    0.0366    0.1153 S   0  0  0  0  0  0  0  0  0  0  0  0
   -0.2923   -2.6429    0.3455 O   0  0  0  0  0  0  0  0  0  0  0  0
   -0.0188   -1.7991   -1.7339 O   0  0  0  0  0  0  0  0  0  0  0  0
   -3.6809   -0.2115    1.2502 O   0  0  0  0  0  0  0  0  0  0  0  0
    3.5636    0.3568    0.5471 O   0  0  0  0  0  0  0  0  0  0  0  0
    1.1857    3.0339   -1.1464 O   0  0  0  0  0  0  0  0  0  0  0  0
   -2.6029   -1.0649   -0.8274 O   0  0  0  0  0  0  0  0  0  0  0  0
   -2.6754    1.4034   -0.3525 O   0  0  0  0  0  0  0  0  0  0  0  0
    2.9238   -1.7303   -0.0981 O   0  0  0  0  0  0  0  0  0  0  0  0
    0.1648    2.5471    0.8236 O   0  0  0  0  0  0  0  0  0  0  0  0
   -1.0614   -0.0548    0.9756 N   0  0  0  0  0  0  0  0  0  0  0  0
    0.1815   -0.2841    0.1800 C   0  0  0  0  0  0  0  0  0  0  0  0
    1.3776   -0.3291    1.1444 C   0  0  0  0  0  0  0  0  0  0  0  0
    0.3026    0.8293   -0.8740 C   0  0  0  0  0  0  0  0  0  0  0  0
   -0.0501   -1.6245   -0.5215 C   0  0  0  0  0  0  0  0  0  0  0  0
    2.6839   -0.6719    0.4649 C   0  0  0  0  0  0  0  0  0  0  0  0
    0.5344    2.2060   -0.2928 C   0  0  0  0  0  0  0  0  0  0  0  0
    1.2248   -1.0949    1.9170 H   0  0  0  0  0  0  0  0  0  0  0  0
    1.4915    0.6070    1.7024 H   0  0  0  0  0  0  0  0  0  0  0  0
    1.1742    0.6060   -1.5055 H   0  0  0  0  0  0  0  0  0  0  0  0
   -0.5458    0.8822   -1.5623 H   0  0  0  0  0  0  0  0  0  0  0  0
   -0.9427    0.6316    1.7328 H   0  0  0  0  0  0  0  0  0  0  0  0
   -0.4342   -3.4939   -0.1215 H   0  0  0  0  0  0  0  0  0  0  0  0
   -3.6139   -1.0667    1.7363 H   0  0  0  0  0  0  0  0  0  0  0  0
    4.4132    0.1484    0.1034 H   0  0  0  0  0  0  0  0  0  0  0  0
    1.3239    3.9244   -0.7588 H   0  0  0  0  0  0  0  0  0  0  0  0
  1  4  1  0  0  0  0
  1  7  2  0  0  0  0
  1  8  2  0  0  0  0
  1 11  1  0  0  0  0
  2 15  1  0  0  0  0
  2 23  1  0  0  0  0
  3 15  2  0  0  0  0
  4 24  1  0  0  0  0
  5 16  1  0  0  0  0
  5 25  1  0  0  0  0
  6 17  1  0  0  0  0
  6 26  1  0  0  0  0
  9 16  2  0  0  0  0
 10 17  2  0  0  0  0
 11 12  1  0  0  0  0
 11 22  1  0  0  0  0
 12 13  1  0  0  0  0
 12 14  1  0  0  0  0
 12 15  1  0  0  0  0
 13 16  1  0  0  0  0
 13 18  1  0  0  0  0
 13 19  1  0  0  0  0
 14 17  1  0  0  0  0
 14 20  1  0  0  0  0
 14 21  1  0  0  0  0
M  END
> <PUBCHEM_COMPOUND_CID>
135808

> <PUBCHEM_CONFORMER_RMSD>
0.8

> <PUBCHEM_CONFORMER_DIVERSEORDER>
1
10
40
31
25
27
21
34
41
11
19
30
18
36
17
37
22
12
24
23
26
8
38
29
39
20
13
33
2
7
14
15
35
6
28
16
3
32
9
4
5

> <PUBCHEM_MMFF94_PARTIAL_CHARGES>
22
1 1.62
10 -0.57
11 -0.91
12 0.42
13 0.06
14 0.06
15 0.66
16 0.66
17 0.66
2 -0.65
22 0.42
23 0.5
24 0.5
25 0.5
26 0.5
3 -0.57
4 -0.68
5 -0.65
6 -0.65
7 -0.65
8 -0.65
9 -0.57

> <PUBCHEM_EFFECTIVE_ROTOR_COUNT>
7

> <PUBCHEM_PHARMACOPHORE_FEATURES>
14
1 10 acceptor
1 11 donor
1 2 acceptor
1 3 acceptor
1 4 acceptor
1 5 acceptor
1 6 acceptor
1 7 acceptor
1 8 acceptor
1 9 acceptor
3 2 3 15 anion
3 5 9 16 anion
3 6 10 17 anion
4 1 4 7 8 anion

> <PUBCHEM_HEAVY_ATOM_COUNT>
17

> <PUBCHEM_ATOM_DEF_STEREO_COUNT>
0

> <PUBCHEM_ATOM_UDEF_STEREO_COUNT>
0

> <PUBCHEM_BOND_DEF_STEREO_COUNT>
0

> <PUBCHEM_BOND_UDEF_STEREO_COUNT>
0

> <PUBCHEM_ISOTOPIC_ATOM_COUNT>
0

> <PUBCHEM_COMPONENT_COUNT>
1

> <PUBCHEM_CACTVS_TAUTO_COUNT>
1

> <PUBCHEM_CONFORMER_ID>
0002128000000001

> <PUBCHEM_MMFF94_ENERGY>
38.4444

> <PUBCHEM_FEATURE_SELFOVERLAP>
71.295

> <PUBCHEM_SHAPE_FINGERPRINT>
10219947 1 18412545379614793091
10980938 120 18336824311881302288
11132069 177 18129647609188341458
12423570 1 13542465414266262803
12491281 212 17131833166071492435
13132413 78 18410011013739427029
13172582 1 18412266137926052779
14181834 199 18115865372715517524
14614273 12 17832414307258562720
14993402 34 18411693313885094022
15219459 52 18338793541121613310
16945 1 18261959664277529150
193761 8 17904482148935348274
20473742 2 18042111214913403381
20511035 2 18128254690916786579
21501502 16 18049165771727630675
22344851 262 18272084942767870899
23388829 49 18413390929705160641
23402539 116 18338218389809766714
2748010 2 18265318543625699116
5084963 1 18200583813151125435
589210 1 17905044003703816146
68250623 7 17975422626179790291
68419 9 17625534970852586670
7364860 26 18052813934075896808
81228 2 17903362498100725240

> <PUBCHEM_SHAPE_MULTIPOLES>
295.9
4.31
2.78
1.19
0.69
1.33
0.13
-0.69
-1.13
-0.75
0.73
0.17
-0.07
-0.21

> <PUBCHEM_SHAPE_SELFOVERLAP>
583.861

> <PUBCHEM_SHAPE_VOLUME>
175.9

> <PUBCHEM_COORDINATE_TYPE>
2
5
10

$$$$
