135854130
  -OEChem-03292013293D

 61 63  0     0  0  0  0  0  0999 V2000
   -4.8642   -1.8948   -2.5916 O   0  0  0  0  0  0  0  0  0  0  0  0
   -3.8737   -4.2066    0.8558 O   0  0  0  0  0  0  0  0  0  0  0  0
   -4.3657   -2.0881    1.5109 O   0  0  0  0  0  0  0  0  0  0  0  0
   -3.5689    3.5902    3.0109 O   0  0  0  0  0  0  0  0  0  0  0  0
   -3.0823    4.6214    1.0461 O   0  0  0  0  0  0  0  0  0  0  0  0
    5.7246    2.0948   -1.8491 O   0  0  0  0  0  0  0  0  0  0  0  0
    1.3596    0.0776   -0.4942 N   0  0  0  0  0  0  0  0  0  0  0  0
   -2.7836   -0.9215   -2.1509 N   0  0  0  0  0  0  0  0  0  0  0  0
    4.1339    1.0403   -0.5214 N   0  0  0  0  0  0  0  0  0  0  0  0
   -0.4020   -0.7609    0.6547 C   0  0  0  0  0  0  0  0  0  0  0  0
   -0.0045   -0.0505   -0.5674 C   0  0  0  0  0  0  0  0  0  0  0  0
    0.7133   -1.0164    1.3798 C   0  0  0  0  0  0  0  0  0  0  0  0
   -2.2771    0.2170   -1.5802 C   0  0  0  0  0  0  0  0  0  0  0  0
   -3.3388    0.9834   -1.1532 C   0  0  0  0  0  0  0  0  0  0  0  0
    1.8696   -0.4802    0.6508 C   0  0  0  0  0  0  0  0  0  0  0  0
   -1.8190   -1.1017    0.9631 C   0  0  0  0  0  0  0  0  0  0  0  0
   -0.8138    0.3774   -1.5428 C   0  0  0  0  0  0  0  0  0  0  0  0
   -4.5255    0.2811   -1.4792 C   0  0  0  0  0  0  0  0  0  0  0  0
   -3.2573    2.2962   -0.4789 C   0  0  0  0  0  0  0  0  0  0  0  0
   -2.1318   -2.5754    0.7316 C   0  0  0  0  0  0  0  0  0  0  0  0
   -4.1526   -0.8931   -2.0952 C   0  0  0  0  0  0  0  0  0  0  0  0
    0.8400   -1.7115    2.6913 C   0  0  0  0  0  0  0  0  0  0  0  0
    3.1505   -0.5316    1.0335 C   0  0  0  0  0  0  0  0  0  0  0  0
   -3.4654    2.2362    1.0444 C   0  0  0  0  0  0  0  0  0  0  0  0
   -5.9099    0.7216   -1.2111 C   0  0  0  0  0  0  0  0  0  0  0  0
    4.2305    0.0161    0.2664 C   0  0  0  0  0  0  0  0  0  0  0  0
    5.5710   -0.5773    0.3308 C   0  0  0  0  0  0  0  0  0  0  0  0
   -3.5615   -2.9074    1.0853 C   0  0  0  0  0  0  0  0  0  0  0  0
    6.2885    0.1895   -0.5002 C   0  0  0  0  0  0  0  0  0  0  0  0
   -3.3392    3.6024    1.6746 C   0  0  0  0  0  0  0  0  0  0  0  0
    5.3857    1.2304   -1.0556 C   0  0  0  0  0  0  0  0  0  0  0  0
    5.9577   -1.7506    1.1503 C   0  0  0  0  0  0  0  0  0  0  0  0
    7.6720    0.0919   -0.8441 C   0  0  0  0  0  0  0  0  0  0  0  0
    8.6400   -0.2000    0.0347 C   0  0  0  0  0  0  0  0  0  0  0  0
   -2.5892   -0.4424    0.6082 H   0  0  0  0  0  0  0  0  0  0  0  0
   -1.9272   -0.9431    2.0489 H   0  0  0  0  0  0  0  0  0  0  0  0
   -0.3834    0.8975   -2.3957 H   0  0  0  0  0  0  0  0  0  0  0  0
    1.9190    0.5283   -1.2023 H   0  0  0  0  0  0  0  0  0  0  0  0
   -3.9980    2.9772   -0.9183 H   0  0  0  0  0  0  0  0  0  0  0  0
   -2.2843    2.7603   -0.6885 H   0  0  0  0  0  0  0  0  0  0  0  0
   -2.2359   -1.6697   -2.5539 H   0  0  0  0  0  0  0  0  0  0  0  0
   -1.4845   -3.2085    1.3491 H   0  0  0  0  0  0  0  0  0  0  0  0
   -1.9729   -2.8420   -0.3182 H   0  0  0  0  0  0  0  0  0  0  0  0
    1.4608   -2.6082    2.5939 H   0  0  0  0  0  0  0  0  0  0  0  0
   -0.1298   -2.0264    3.0871 H   0  0  0  0  0  0  0  0  0  0  0  0
    1.2958   -1.0505    3.4358 H   0  0  0  0  0  0  0  0  0  0  0  0
    3.4130   -1.0248    1.9647 H   0  0  0  0  0  0  0  0  0  0  0  0
   -2.7061    1.5986    1.5065 H   0  0  0  0  0  0  0  0  0  0  0  0
   -4.4573    1.8366    1.2790 H   0  0  0  0  0  0  0  0  0  0  0  0
   -6.0582    1.7619   -1.5178 H   0  0  0  0  0  0  0  0  0  0  0  0
   -6.6386    0.1123   -1.7559 H   0  0  0  0  0  0  0  0  0  0  0  0
   -6.1376    0.6397   -0.1436 H   0  0  0  0  0  0  0  0  0  0  0  0
   -4.2485   -2.5591   -2.9479 H   0  0  0  0  0  0  0  0  0  0  0  0
    6.0347   -1.4722    2.2059 H   0  0  0  0  0  0  0  0  0  0  0  0
    6.9095   -2.1882    0.8383 H   0  0  0  0  0  0  0  0  0  0  0  0
    5.2116   -2.5471    1.0582 H   0  0  0  0  0  0  0  0  0  0  0  0
    7.9406    0.2904   -1.8777 H   0  0  0  0  0  0  0  0  0  0  0  0
   -4.8088   -4.4031    1.0777 H   0  0  0  0  0  0  0  0  0  0  0  0
   -3.4960    4.4863    3.4033 H   0  0  0  0  0  0  0  0  0  0  0  0
    9.6727   -0.2484   -0.2960 H   0  0  0  0  0  0  0  0  0  0  0  0
    8.4490   -0.3718    1.0880 H   0  0  0  0  0  0  0  0  0  0  0  0
  1 21  1  0  0  0  0
  1 53  1  0  0  0  0
  2 28  1  0  0  0  0
  2 58  1  0  0  0  0
  3 28  2  0  0  0  0
  4 30  1  0  0  0  0
  4 59  1  0  0  0  0
  5 30  2  0  0  0  0
  6 31  2  0  0  0  0
  7 11  1  0  0  0  0
  7 15  1  0  0  0  0
  7 38  1  0  0  0  0
  8 13  1  0  0  0  0
  8 21  1  0  0  0  0
  8 41  1  0  0  0  0
  9 26  2  0  0  0  0
  9 31  1  0  0  0  0
 10 11  1  0  0  0  0
 10 12  2  0  0  0  0
 10 16  1  0  0  0  0
 11 17  2  0  0  0  0
 12 15  1  0  0  0  0
 12 22  1  0  0  0  0
 13 14  2  0  0  0  0
 13 17  1  0  0  0  0
 14 18  1  0  0  0  0
 14 19  1  0  0  0  0
 15 23  2  0  0  0  0
 16 20  1  0  0  0  0
 16 35  1  0  0  0  0
 16 36  1  0  0  0  0
 17 37  1  0  0  0  0
 18 21  2  0  0  0  0
 18 25  1  0  0  0  0
 19 24  1  0  0  0  0
 19 39  1  0  0  0  0
 19 40  1  0  0  0  0
 20 28  1  0  0  0  0
 20 42  1  0  0  0  0
 20 43  1  0  0  0  0
 22 44  1  0  0  0  0
 22 45  1  0  0  0  0
 22 46  1  0  0  0  0
 23 26  1  0  0  0  0
 23 47  1  0  0  0  0
 24 30  1  0  0  0  0
 24 48  1  0  0  0  0
 24 49  1  0  0  0  0
 25 50  1  0  0  0  0
 25 51  1  0  0  0  0
 25 52  1  0  0  0  0
 26 27  1  0  0  0  0
 27 29  2  0  0  0  0
 27 32  1  0  0  0  0
 29 31  1  0  0  0  0
 29 33  1  0  0  0  0
 32 54  1  0  0  0  0
 32 55  1  0  0  0  0
 32 56  1  0  0  0  0
 33 34  2  0  0  0  0
 33 57  1  0  0  0  0
 34 60  1  0  0  0  0
 34 61  1  0  0  0  0
M  END
> <PUBCHEM_COMPOUND_CID>
135854130

> <PUBCHEM_CONFORMER_RMSD>
1

> <PUBCHEM_CONFORMER_DIVERSEORDER>
1
22
8
30
2
16
34
28
18
29
12
15
33
5
13
27
20
25
3
19
32
26
23
10
7
17
21
11
31
14
9
4
24
6

> <PUBCHEM_MMFF94_PARTIAL_CHARGES>
44
1 -0.51
10 -0.14
11 0.1
12 -0.14
13 -0.2
14 -0.18
15 0.1
16 0.14
17 -0.11
18 -0.18
19 0.18
2 -0.65
20 0.06
21 -0.09
22 0.14
23 -0.14
24 0.06
25 0.18
26 0.42
27 -0.12
28 0.66
29 0.01
3 -0.57
30 0.66
31 0.77
32 0.14
33 -0.15
34 -0.3
37 0.15
38 0.4
4 -0.65
41 0.27
47 0.15
5 -0.57
53 0.45
57 0.15
58 0.5
59 0.5
6 -0.57
60 0.15
61 0.15
7 -0.6
8 0.03
9 -0.66

> <PUBCHEM_EFFECTIVE_ROTOR_COUNT>
9

> <PUBCHEM_PHARMACOPHORE_FEATURES>
18
1 1 donor
1 2 acceptor
1 3 acceptor
1 34 hydrophobe
1 4 acceptor
1 5 acceptor
1 6 acceptor
1 7 cation
1 7 donor
1 8 cation
1 8 donor
1 9 acceptor
1 9 donor
3 2 3 28 anion
3 4 5 30 anion
5 7 10 11 12 15 rings
5 8 13 14 18 21 rings
5 9 26 27 29 31 rings

> <PUBCHEM_HEAVY_ATOM_COUNT>
34

> <PUBCHEM_ATOM_DEF_STEREO_COUNT>
0

> <PUBCHEM_ATOM_UDEF_STEREO_COUNT>
0

> <PUBCHEM_BOND_DEF_STEREO_COUNT>
2

> <PUBCHEM_BOND_UDEF_STEREO_COUNT>
0

> <PUBCHEM_ISOTOPIC_ATOM_COUNT>
0

> <PUBCHEM_COMPONENT_COUNT>
1

> <PUBCHEM_CACTVS_TAUTO_COUNT>
-1

> <PUBCHEM_CONFORMER_ID>
0818F83200000001

> <PUBCHEM_MMFF94_ENERGY>
85.9224

> <PUBCHEM_FEATURE_SELFOVERLAP>
91.553

> <PUBCHEM_SHAPE_FINGERPRINT>
10290309 65 17111847626782314196
10670039 82 17917703552831975613
11007060 377 17894628175788739596
1200032 147 16913985669452170513
12104220 1 18409733950253162321
12788726 201 18271230631187170177
13631057 29 17823130284767200355
13782708 43 15983957389360024031
14856354 85 18059850688603753887
15183329 4 17917424307533401420
15289351 153 18339922741088840480
15392192 29 18050854308931878546
15513586 35 18200045073581128264
15799311 1 18041003882614872414
17844677 252 17846210090464498288
21033650 10 17917427584118656064
21236236 1 17603584170487152930
21756936 100 18340494361172081497
23198884 109 18411695474591072284
23559900 14 17967806181239552910
3552219 110 17824284780840015907
3610482 184 18339659870738863796
376196 1 15434501497512658005
46194498 28 16701721857101360536
4918590 53 18114463461690033448
497634 4 18113619010003361879
531348 171 17846217687892230790
59755656 520 18040428872250638407
6086070 43 17676758869050914960

> <PUBCHEM_SHAPE_MULTIPOLES>
649.55
17.89
3.75
2.37
36.87
1.17
0.38
2.45
-5.24
-7.31
2.96
-3.31
0.63
-3.26

> <PUBCHEM_SHAPE_SELFOVERLAP>
1397.526

> <PUBCHEM_SHAPE_VOLUME>
357.9

> <PUBCHEM_COORDINATE_TYPE>
2
5
10

$$$$
