135853766
  -OEChem-03292013293D

 60 64  0     1  0  0  0  0  0999 V2000
   -7.2997   -1.3894   -1.0720 O   0  0  0  0  0  0  0  0  0  0  0  0
   -6.1666   -3.4268    1.1408 O   0  0  0  0  0  0  0  0  0  0  0  0
    2.2339    3.9167    0.1804 O   0  0  0  0  0  0  0  0  0  0  0  0
    7.5933   -2.6554    1.1118 O   0  0  0  0  0  0  0  0  0  0  0  0
    8.3682   -2.0571   -0.9396 O   0  0  0  0  0  0  0  0  0  0  0  0
    2.2176    1.1754    0.5666 N   0  0  0  0  0  0  0  0  0  0  0  0
    2.6041    0.8013   -0.5632 N   0  0  0  0  0  0  0  0  0  0  0  0
   -5.0643   -0.4613   -0.5584 C   0  0  1  0  0  0  0  0  0  0  0  0
   -3.9832   -1.0099    0.3966 C   0  0  2  0  0  0  0  0  0  0  0  0
   -2.6271   -0.3378    0.1807 C   0  0  1  0  0  0  0  0  0  0  0  0
   -2.7742    1.1868    0.4717 C   0  0  2  0  0  0  0  0  0  0  0  0
   -6.2423   -1.3586   -0.1299 C   0  0  2  0  0  0  0  0  0  0  0  0
   -5.2518    1.0310   -0.2580 C   0  0  0  0  0  0  0  0  0  0  0  0
   -4.1004   -2.5268    0.2418 C   0  0  0  0  0  0  0  0  0  0  0  0
   -5.6083   -2.7592    0.0168 C   0  0  1  0  0  0  0  0  0  0  0  0
   -3.9258    1.8086   -0.3631 C   0  0  0  0  0  0  0  0  0  0  0  0
   -1.5346   -0.9134    1.0837 C   0  0  0  0  0  0  0  0  0  0  0  0
   -4.7581   -0.6476   -2.0654 C   0  0  0  0  0  0  0  0  0  0  0  0
   -1.4320    1.9046    0.3578 C   0  0  0  0  0  0  0  0  0  0  0  0
   -0.1855   -0.3022    0.7171 C   0  0  0  0  0  0  0  0  0  0  0  0
   -0.2225    1.1934    0.5190 C   0  0  0  0  0  0  0  0  0  0  0  0
   -1.3648    3.2981    0.1806 C   0  0  0  0  0  0  0  0  0  0  0  0
    1.0056    1.8743    0.4461 C   0  0  0  0  0  0  0  0  0  0  0  0
   -0.1383    3.9632    0.1192 C   0  0  0  0  0  0  0  0  0  0  0  0
    1.0472    3.2512    0.2471 C   0  0  0  0  0  0  0  0  0  0  0  0
    3.8174    0.1023   -0.4434 C   0  0  0  0  0  0  0  0  0  0  0  0
    4.7427    0.1273   -1.4869 C   0  0  0  0  0  0  0  0  0  0  0  0
    4.0961   -0.6167    0.7190 C   0  0  0  0  0  0  0  0  0  0  0  0
    5.9468   -0.5665   -1.3679 C   0  0  0  0  0  0  0  0  0  0  0  0
    5.3003   -1.3105    0.8379 C   0  0  0  0  0  0  0  0  0  0  0  0
    6.2257   -1.2853   -0.2055 C   0  0  0  0  0  0  0  0  0  0  0  0
    7.4806   -2.0097   -0.0814 C   0  0  0  0  0  0  0  0  0  0  0  0
   -4.2867   -0.7881    1.4337 H   0  0  0  0  0  0  0  0  0  0  0  0
   -2.3069   -0.4848   -0.8589 H   0  0  0  0  0  0  0  0  0  0  0  0
   -3.0653    1.2966    1.5280 H   0  0  0  0  0  0  0  0  0  0  0  0
   -6.6664   -1.0338    0.8289 H   0  0  0  0  0  0  0  0  0  0  0  0
   -5.6484    1.1608    0.7575 H   0  0  0  0  0  0  0  0  0  0  0  0
   -5.9922    1.4732   -0.9354 H   0  0  0  0  0  0  0  0  0  0  0  0
   -3.7165   -3.0539    1.1213 H   0  0  0  0  0  0  0  0  0  0  0  0
   -3.5324   -2.8665   -0.6316 H   0  0  0  0  0  0  0  0  0  0  0  0
   -5.7863   -3.3860   -0.8639 H   0  0  0  0  0  0  0  0  0  0  0  0
   -3.6209    1.8883   -1.4135 H   0  0  0  0  0  0  0  0  0  0  0  0
   -4.1282    2.8319   -0.0264 H   0  0  0  0  0  0  0  0  0  0  0  0
   -1.4679   -2.0024    0.9826 H   0  0  0  0  0  0  0  0  0  0  0  0
   -1.7669   -0.7040    2.1359 H   0  0  0  0  0  0  0  0  0  0  0  0
   -4.6469   -1.7003   -2.3435 H   0  0  0  0  0  0  0  0  0  0  0  0
   -3.8422   -0.1383   -2.3764 H   0  0  0  0  0  0  0  0  0  0  0  0
   -5.5702   -0.2381   -2.6773 H   0  0  0  0  0  0  0  0  0  0  0  0
    0.1657   -0.7620   -0.2157 H   0  0  0  0  0  0  0  0  0  0  0  0
    0.5263   -0.5655    1.5087 H   0  0  0  0  0  0  0  0  0  0  0  0
   -7.6280   -0.4796   -1.1709 H   0  0  0  0  0  0  0  0  0  0  0  0
   -5.7225   -4.2884    1.2185 H   0  0  0  0  0  0  0  0  0  0  0  0
   -2.2657    3.8979    0.0941 H   0  0  0  0  0  0  0  0  0  0  0  0
   -0.1282    5.0404   -0.0253 H   0  0  0  0  0  0  0  0  0  0  0  0
    2.0605    4.8632    0.0387 H   0  0  0  0  0  0  0  0  0  0  0  0
    4.5333    0.6851   -2.3959 H   0  0  0  0  0  0  0  0  0  0  0  0
    3.3938   -0.6802    1.5465 H   0  0  0  0  0  0  0  0  0  0  0  0
    6.6544   -0.5345   -2.1922 H   0  0  0  0  0  0  0  0  0  0  0  0
    5.4750   -1.8615    1.7578 H   0  0  0  0  0  0  0  0  0  0  0  0
    8.4428   -3.1405    1.1854 H   0  0  0  0  0  0  0  0  0  0  0  0
  1 12  1  0  0  0  0
  1 51  1  0  0  0  0
  2 15  1  0  0  0  0
  2 52  1  0  0  0  0
  3 25  1  0  0  0  0
  3 55  1  0  0  0  0
  4 32  1  0  0  0  0
  4 60  1  0  0  0  0
  5 32  2  0  0  0  0
  6  7  2  0  0  0  0
  6 23  1  0  0  0  0
  7 26  1  0  0  0  0
  8  9  1  0  0  0  0
  8 12  1  0  0  0  0
  8 13  1  0  0  0  0
  8 18  1  0  0  0  0
  9 10  1  0  0  0  0
  9 14  1  0  0  0  0
  9 33  1  0  0  0  0
 10 11  1  0  0  0  0
 10 17  1  0  0  0  0
 10 34  1  0  0  0  0
 11 16  1  0  0  0  0
 11 19  1  0  0  0  0
 11 35  1  0  0  0  0
 12 15  1  0  0  0  0
 12 36  1  0  0  0  0
 13 16  1  0  0  0  0
 13 37  1  0  0  0  0
 13 38  1  0  0  0  0
 14 15  1  0  0  0  0
 14 39  1  0  0  0  0
 14 40  1  0  0  0  0
 15 41  1  0  0  0  0
 16 42  1  0  0  0  0
 16 43  1  0  0  0  0
 17 20  1  0  0  0  0
 17 44  1  0  0  0  0
 17 45  1  0  0  0  0
 18 46  1  0  0  0  0
 18 47  1  0  0  0  0
 18 48  1  0  0  0  0
 19 21  2  0  0  0  0
 19 22  1  0  0  0  0
 20 21  1  0  0  0  0
 20 49  1  0  0  0  0
 20 50  1  0  0  0  0
 21 23  1  0  0  0  0
 22 24  2  0  0  0  0
 22 53  1  0  0  0  0
 23 25  2  0  0  0  0
 24 25  1  0  0  0  0
 24 54  1  0  0  0  0
 26 27  2  0  0  0  0
 26 28  1  0  0  0  0
 27 29  1  0  0  0  0
 27 56  1  0  0  0  0
 28 30  2  0  0  0  0
 28 57  1  0  0  0  0
 29 31  2  0  0  0  0
 29 58  1  0  0  0  0
 30 31  1  0  0  0  0
 30 59  1  0  0  0  0
 31 32  1  0  0  0  0
M  END
> <PUBCHEM_COMPOUND_CID>
135853766

> <PUBCHEM_CONFORMER_RMSD>
0.8

> <PUBCHEM_CONFORMER_DIVERSEORDER>
1
2

> <PUBCHEM_MMFF94_PARTIAL_CHARGES>
34
1 -0.68
11 0.14
12 0.28
15 0.28
19 -0.14
2 -0.68
20 0.14
21 -0.14
22 -0.15
23 0.18
24 -0.15
25 0.08
26 0.18
27 -0.15
28 -0.15
29 -0.15
3 -0.53
30 -0.15
31 0.09
32 0.63
4 -0.65
5 -0.57
51 0.4
52 0.4
53 0.15
54 0.15
55 0.45
56 0.15
57 0.15
58 0.15
59 0.15
6 -0.18
60 0.5
7 -0.18

> <PUBCHEM_EFFECTIVE_ROTOR_COUNT>
4.4

> <PUBCHEM_PHARMACOPHORE_FEATURES>
13
1 1 acceptor
1 1 donor
1 2 acceptor
1 2 donor
1 3 donor
1 4 acceptor
1 5 acceptor
3 4 5 32 anion
5 8 9 12 14 15 rings
6 10 11 17 19 20 21 rings
6 19 21 22 23 24 25 rings
6 26 27 28 29 30 31 rings
6 8 9 10 11 13 16 rings

> <PUBCHEM_HEAVY_ATOM_COUNT>
32

> <PUBCHEM_ATOM_DEF_STEREO_COUNT>
6

> <PUBCHEM_ATOM_UDEF_STEREO_COUNT>
0

> <PUBCHEM_BOND_DEF_STEREO_COUNT>
0

> <PUBCHEM_BOND_UDEF_STEREO_COUNT>
0

> <PUBCHEM_ISOTOPIC_ATOM_COUNT>
0

> <PUBCHEM_COMPONENT_COUNT>
1

> <PUBCHEM_CACTVS_TAUTO_COUNT>
-1

> <PUBCHEM_CONFORMER_ID>
0818F6C600000001

> <PUBCHEM_MMFF94_ENERGY>
113.3171

> <PUBCHEM_FEATURE_SELFOVERLAP>
66.128

> <PUBCHEM_SHAPE_FINGERPRINT>
10 15 10735878387246113631
10050765 1 18411982476791065392
10411042 1 18411702105662374745
10917259 69 18198902510466993357
11273773 46 18408882941597205335
11297750 10 18341322345252942440
11410812 94 16805594817021981990
117089 54 18336834207528728683
11963148 33 17909263933657992470
12013929 94 18341333281400103618
12166972 35 17968100849506659732
12422481 6 17060625507564824533
12522641 68 11314313858043721392
12645989 146 18341047519011647927
12760667 363 18412263917375206785
13540713 4 18339624737906843569
13540713 5 18269014075211517040
13631057 29 18338800010223147472
13690498 29 18186517696731070701
13782708 43 18115587196611657299
13811026 1 18411974780535529704
14068700 675 18335422336104163940
14347332 77 18336828589768773844
14420673 8 18410294722958682219
14866123 147 18341337691640147865
14931854 50 17967527960956989906
15082195 135 17896051004360497300
15183329 4 17022619758764270914
15510800 12 18059584559503376910
16126227 98 9078823091932814446
16990366 60 18409161143386668234
16992752 21 18339934740736036900
17492 89 18195245740291089851
17686467 74 18342170073708490784
18393751 57 10952052260434798853
19303781 99 18340759433621391550
19841028 212 17843674711520267631
20105231 36 18114187475966611027
2026 5 18201999915388022335
20691028 202 9006756684901933822
20775438 99 17833817653357752346
21033650 10 16877931729647195349
21130935 74 17981048832682473803
21267235 1 18409450306581457867
21279426 13 18262227937421713677
21682296 61 18341897437373424867
21772523 7 15286799901015789094
22393880 68 18041826411980927933
23522609 53 18051167840616045497
23536364 44 18335408042257824325
23559900 14 18338512066424880513
23569914 2 13120557621834232046
249057 3 18413105040451830357
25025965 108 17986655018143064310
255183 313 17908725933064988872
2748736 6 9007064530286290763
3004659 81 18040997337179197658
32027 91 18270114751016983715
335352 9 18337950096288569933
3383291 50 18410290328416816090
3504750 166 17538555514874821362
4046055 25 18113902641539556500
4280585 95 18411417280531967373
439807 62 18334580156972299231
4756088 132 18049154772423329850
4756326 101 14404360348168150779
484989 97 18042132105624522483
5104073 3 18060144279630907257
5718773 13 18413107247616484678
5758199 1 8142086472467362639
57676310 184 17534647080971007947
58902169 19 17386297484821556636
6138700 20 18410856542745120827
6700243 42 17841744840975096644
7970288 3 18411699885285738274
86090 222 16701200641334417470

> <PUBCHEM_SHAPE_MULTIPOLES>
619.24
20.48
4.2
1.16
22.62
2.83
-0.36
-24.26
-4.2
-1.12
0.81
0.13
-0.43
0.12

> <PUBCHEM_SHAPE_SELFOVERLAP>
1363.634

> <PUBCHEM_SHAPE_VOLUME>
330.7

> <PUBCHEM_COORDINATE_TYPE>
2
5
10

$$$$
