135879920
  -OEChem-03292013293D

 42 43  0     1  0  0  0  0  0999 V2000
    6.4356   -1.3042   -0.4962 O   0  5  0  0  0  0  0  0  0  0  0  0
    4.4974   -2.5041   -0.5766 O   0  0  0  0  0  0  0  0  0  0  0  0
    1.1879    0.2026   -0.3463 N   0  0  0  0  0  0  0  0  0  0  0  0
    5.2903    0.6598    1.0501 N   0  3  0  0  0  0  0  0  0  0  0  0
   -1.0404    2.8215    0.0546 N   0  0  0  0  0  0  0  0  0  0  0  0
    1.1861    2.6223    0.0302 N   0  0  0  0  0  0  0  0  0  0  0  0
   -1.0106   -0.8331   -0.5518 N   0  0  0  0  0  0  0  0  0  0  0  0
   -2.9341    0.4682   -0.3227 N   0  0  0  0  0  0  0  0  0  0  0  0
    3.1465   -0.5060    0.9087 C   0  0  0  0  0  0  0  0  0  0  0  0
    2.6274    0.0676   -0.4109 C   0  0  0  0  0  0  0  0  0  0  0  0
    4.6673   -0.6983    0.9618 C   0  0  1  0  0  0  0  0  0  0  0  0
    0.5925    1.4075   -0.1617 C   0  0  0  0  0  0  0  0  0  0  0  0
   -0.7804    1.4982   -0.1550 C   0  0  0  0  0  0  0  0  0  0  0  0
    0.2944   -0.8439   -0.5446 C   0  0  0  0  0  0  0  0  0  0  0  0
   -1.6484    0.3772   -0.3418 C   0  0  0  0  0  0  0  0  0  0  0  0
    5.2589   -1.5968   -0.1380 C   0  0  0  0  0  0  0  0  0  0  0  0
    0.1730    3.4559    0.1580 C   0  0  0  0  0  0  0  0  0  0  0  0
   -3.6321   -0.7927   -0.5337 C   0  0  0  0  0  0  0  0  0  0  0  0
   -5.1102   -0.5576   -0.5111 C   0  0  0  0  0  0  0  0  0  0  0  0
   -6.0184   -1.1075    0.3171 C   0  0  0  0  0  0  0  0  0  0  0  0
   -5.7016   -2.0534    1.4405 C   0  0  0  0  0  0  0  0  0  0  0  0
   -7.4812   -0.7832    0.1696 C   0  0  0  0  0  0  0  0  0  0  0  0
    2.8264    0.1363    1.7404 H   0  0  0  0  0  0  0  0  0  0  0  0
    2.6661   -1.4772    1.0883 H   0  0  0  0  0  0  0  0  0  0  0  0
    2.8854   -0.5863   -1.2511 H   0  0  0  0  0  0  0  0  0  0  0  0
    3.1043    1.0313   -0.6239 H   0  0  0  0  0  0  0  0  0  0  0  0
    4.9187   -1.1759    1.9168 H   0  0  0  0  0  0  0  0  0  0  0  0
    4.8922    1.2148    1.8196 H   0  0  0  0  0  0  0  0  0  0  0  0
    5.1675    1.1956    0.1810 H   0  0  0  0  0  0  0  0  0  0  0  0
    6.3023    0.5880    1.2203 H   0  0  0  0  0  0  0  0  0  0  0  0
    0.8080   -1.8047   -0.7165 H   0  0  0  0  0  0  0  0  0  0  0  0
   -1.9513    3.2565    0.1185 H   0  0  0  0  0  0  0  0  0  0  0  0
    0.2451    4.5211    0.3255 H   0  0  0  0  0  0  0  0  0  0  0  0
   -3.3275   -1.5343    0.2093 H   0  0  0  0  0  0  0  0  0  0  0  0
   -3.3915   -1.1998   -1.5250 H   0  0  0  0  0  0  0  0  0  0  0  0
   -5.4696    0.1185   -1.2864 H   0  0  0  0  0  0  0  0  0  0  0  0
   -8.0545   -1.6975   -0.0156 H   0  0  0  0  0  0  0  0  0  0  0  0
   -7.8600   -0.3139    1.0835 H   0  0  0  0  0  0  0  0  0  0  0  0
   -7.6752   -0.0963   -0.6610 H   0  0  0  0  0  0  0  0  0  0  0  0
   -6.1301   -1.6780    2.3764 H   0  0  0  0  0  0  0  0  0  0  0  0
   -6.1383   -3.0365    1.2356 H   0  0  0  0  0  0  0  0  0  0  0  0
   -4.6348   -2.1950    1.6197 H   0  0  0  0  0  0  0  0  0  0  0  0
  1 16  1  0  0  0  0
  2 16  2  0  0  0  0
  3 10  1  0  0  0  0
  3 12  1  0  0  0  0
  3 14  1  0  0  0  0
  4 11  1  0  0  0  0
  4 28  1  0  0  0  0
  4 29  1  0  0  0  0
  4 30  1  0  0  0  0
  5 13  1  0  0  0  0
  5 17  1  0  0  0  0
  5 32  1  0  0  0  0
  6 12  1  0  0  0  0
  6 17  2  0  0  0  0
  7 14  2  0  0  0  0
  7 15  1  0  0  0  0
  8 15  2  0  0  0  0
  8 18  1  0  0  0  0
  9 10  1  0  0  0  0
  9 11  1  0  0  0  0
  9 23  1  0  0  0  0
  9 24  1  0  0  0  0
 10 25  1  0  0  0  0
 10 26  1  0  0  0  0
 11 16  1  0  0  0  0
 11 27  1  0  0  0  0
 12 13  2  0  0  0  0
 13 15  1  0  0  0  0
 14 31  1  0  0  0  0
 17 33  1  0  0  0  0
 18 19  1  0  0  0  0
 18 34  1  0  0  0  0
 18 35  1  0  0  0  0
 19 20  2  0  0  0  0
 19 36  1  0  0  0  0
 20 21  1  0  0  0  0
 20 22  1  0  0  0  0
 21 40  1  0  0  0  0
 21 41  1  0  0  0  0
 21 42  1  0  0  0  0
 22 37  1  0  0  0  0
 22 38  1  0  0  0  0
 22 39  1  0  0  0  0
M  CHG  2   1  -1   4   1
M  END
> <PUBCHEM_COMPOUND_CID>
135879920

> <PUBCHEM_CONFORMER_RMSD>
0.8

> <PUBCHEM_CONFORMER_DIVERSEORDER>
2
242
172
53
64
258
223
128
55
222
54
207
156
167
233
147
224
63
197
251
236
90
148
72
262
56
95
179
28
205
165
215
152
235
169
252
187
184
238
200
166
250
188
129
256
257
244
92
114
196
44
192
132
138
206
65
259
164
247
158
94
219
124
246
248
106
66
123
208
213
126
221
183
180
230
170
209
231
118
237
93
4
57
109
42
105
140
116
157
204
149
171
47
199
176
190
81
210
161
125
24
220
160
225
18
217
243
229
110
191
249
142
122
178
175
144
101
155
130
35
202
82
211
103
86
76
62
194
186
73
240
48
98
189
241
67
61
120
227
254
127
89
198
46
111
38
154
100
34
30
40
36
137
80
99
181
6
163
239
96
232
214
212
168
74
50
45
75
3
119
255
104
134
69
193
151
13
91
88
41
135
185
226
145
71
59
9
245
51
79
218
31
27
173
83
133
12
203
162
253
43
29
78
20
1
23
263
58
195
136
146
260
68
108
5
182
39
33
16
26
102
77
143
14
52
22
113
60
141
228
174
177
150
21
261
7
84
25
19
85
201
131
11
87
117
10
15
234
8
159
37
32
17
97
70
216
139
153
115
121
49
112
107

> <PUBCHEM_MMFF94_PARTIAL_CHARGES>
28
1 -0.9
10 0.37
11 0.4
12 0.31
13 -0.24
14 0.44
15 0.75
16 0.91
17 0.04
18 0.38
19 -0.29
2 -0.9
20 -0.28
21 0.14
22 0.14
28 0.45
29 0.45
3 -0.5
30 0.45
31 0.06
32 0.27
33 0.15
36 0.15
4 -0.85
5 0.03
6 -0.57
7 -0.66
8 -0.7

> <PUBCHEM_EFFECTIVE_ROTOR_COUNT>
6

> <PUBCHEM_PHARMACOPHORE_FEATURES>
12
1 1 acceptor
1 2 acceptor
1 4 cation
1 4 donor
1 5 donor
3 1 2 16 anion
3 20 21 22 hydrophobe
3 3 7 14 cation
3 5 6 17 cation
3 7 8 15 cation
5 5 6 12 13 17 rings
6 3 7 12 13 14 15 rings

> <PUBCHEM_HEAVY_ATOM_COUNT>
22

> <PUBCHEM_ATOM_DEF_STEREO_COUNT>
0

> <PUBCHEM_ATOM_UDEF_STEREO_COUNT>
1

> <PUBCHEM_BOND_DEF_STEREO_COUNT>
0

> <PUBCHEM_BOND_UDEF_STEREO_COUNT>
0

> <PUBCHEM_ISOTOPIC_ATOM_COUNT>
0

> <PUBCHEM_COMPONENT_COUNT>
1

> <PUBCHEM_CACTVS_TAUTO_COUNT>
-1

> <PUBCHEM_CONFORMER_ID>
08195CF000000002

> <PUBCHEM_MMFF94_ENERGY>
39.9984

> <PUBCHEM_FEATURE_SELFOVERLAP>
61.205

> <PUBCHEM_SHAPE_FINGERPRINT>
10411042 1 18411138017463459685
11265709 11 18411698781362780389
11796584 16 17603297168362110947
12166972 35 17894353271958634924
12516196 113 18409727369819848275
13257819 101 12319464247198874585
13533116 47 18130785706855123904
13673619 4 17988926631246357938
13685833 64 18408041823190380995
13740256 8 18333733533166325443
13862211 1 18413386549244765887
14123256 34 18334582343110666003
14955137 171 18341613745729209859
15042514 8 18268431239548302861
15475509 84 17847067683654039297
15927050 60 17764028360650321468
17492 89 18194398884510383590
18006028 8 18410855460413141503
18222031 100 18341879805894260975
19141452 34 17774714354899259815
19784866 240 18334299768864634697
20028762 73 18201435952144033503
20645477 56 9150877409042161654
20832881 197 18334859446248103673
21150785 3 16515409577325210622
21267235 1 18410858750300139390
21521239 73 12468628426517954929
21792934 111 18341883087154732521
2297311 6 18341054021602189774
23559900 14 17532091764734170037
23845131 108 17193773917594764313
25147074 1 18338535078633175733
2767999 5 10015864279970736667
2838139 119 11167938026810820163
3004659 81 17894632565012960774
314194 84 18341325686451739511
335352 9 18410571791388540551
3421961 26 18339359776931017305
465052 167 18411142462854695015
5104073 3 18129089036254773898
59682541 35 18338225064505534552
59682541 52 15213013856004161746
6327066 14 9727342528821261010
636775 8 18337118874167254790
7495541 125 18115310106801200461
77188 2 18410856572536312980
8863177 126 17897173631417760339

> <PUBCHEM_SHAPE_MULTIPOLES>
411.13
16.05
2.85
0.92
10.33
2.48
-0.21
-14.03
-2.79
-1.2
-0.22
0.03
-0.31
1.18

> <PUBCHEM_SHAPE_SELFOVERLAP>
856.358

> <PUBCHEM_SHAPE_VOLUME>
232.6

> <PUBCHEM_COORDINATE_TYPE>
2
5
10

$$$$
