135855769
  -OEChem-03292013293D

 34 36  0     1  0  0  0  0  0999 V2000
    2.2210   -1.9374   -1.8426 F   0  0  0  0  0  0  0  0  0  0  0  0
    2.2795    1.4472   -0.9715 O   0  0  0  0  0  0  0  0  0  0  0  0
    5.0999    1.1138    0.7365 O   0  0  0  0  0  0  0  0  0  0  0  0
   -4.7935   -0.0882    0.2398 O   0  0  0  0  0  0  0  0  0  0  0  0
   -0.4445   -1.3125    0.1968 N   0  0  0  0  0  0  0  0  0  0  0  0
   -2.5519   -2.0300    0.4101 N   0  0  0  0  0  0  0  0  0  0  0  0
   -0.8133    1.0570   -0.1325 N   0  0  0  0  0  0  0  0  0  0  0  0
   -3.1581    1.5469   -0.0844 N   0  0  0  0  0  0  0  0  0  0  0  0
   -1.5779    3.2603   -0.4167 N   0  0  0  0  0  0  0  0  0  0  0  0
    1.0642   -1.3658    0.1278 C   0  0  2  0  0  0  0  0  0  0  0  0
    3.1131   -0.2067    0.6110 C   0  0  1  0  0  0  0  0  0  0  0  0
    1.7452   -0.5215    1.2158 C   0  0  0  0  0  0  0  0  0  0  0  0
    2.7702    0.1182   -0.8456 C   0  0  1  0  0  0  0  0  0  0  0  0
    1.6597   -0.8700   -1.2060 C   0  0  1  0  0  0  0  0  0  0  0  0
    3.8439    0.8983    1.3572 C   0  0  0  0  0  0  0  0  0  0  0  0
   -1.2370   -0.2093    0.0752 C   0  0  0  0  0  0  0  0  0  0  0  0
   -1.2815   -2.3831    0.3970 C   0  0  0  0  0  0  0  0  0  0  0  0
   -2.5202   -0.6816    0.2103 C   0  0  0  0  0  0  0  0  0  0  0  0
   -3.6191    0.2407    0.1312 C   0  0  0  0  0  0  0  0  0  0  0  0
   -1.7999    1.9237   -0.2093 C   0  0  0  0  0  0  0  0  0  0  0  0
    1.3147   -2.4254    0.2681 H   0  0  0  0  0  0  0  0  0  0  0  0
    3.7285   -1.1174    0.6202 H   0  0  0  0  0  0  0  0  0  0  0  0
    1.8351   -1.0809    2.1533 H   0  0  0  0  0  0  0  0  0  0  0  0
    1.1955    0.3988    1.4398 H   0  0  0  0  0  0  0  0  0  0  0  0
    3.6451    0.0105   -1.4949 H   0  0  0  0  0  0  0  0  0  0  0  0
    0.9144   -0.4432   -1.8837 H   0  0  0  0  0  0  0  0  0  0  0  0
    4.0192    0.6026    2.3969 H   0  0  0  0  0  0  0  0  0  0  0  0
    3.2831    1.8385    1.3584 H   0  0  0  0  0  0  0  0  0  0  0  0
    2.0509    1.5870   -1.9063 H   0  0  0  0  0  0  0  0  0  0  0  0
   -0.9092   -3.3902    0.5260 H   0  0  0  0  0  0  0  0  0  0  0  0
    5.5508    1.8142    1.2380 H   0  0  0  0  0  0  0  0  0  0  0  0
   -3.8559    2.2818   -0.1566 H   0  0  0  0  0  0  0  0  0  0  0  0
   -0.6376    3.6264   -0.5187 H   0  0  0  0  0  0  0  0  0  0  0  0
   -2.3448    3.9213   -0.4744 H   0  0  0  0  0  0  0  0  0  0  0  0
  1 14  1  0  0  0  0
  2 13  1  0  0  0  0
  2 29  1  0  0  0  0
  3 15  1  0  0  0  0
  3 31  1  0  0  0  0
  4 19  2  0  0  0  0
  5 10  1  0  0  0  0
  5 16  1  0  0  0  0
  5 17  1  0  0  0  0
  6 17  2  0  0  0  0
  6 18  1  0  0  0  0
  7 16  1  0  0  0  0
  7 20  2  0  0  0  0
  8 19  1  0  0  0  0
  8 20  1  0  0  0  0
  8 32  1  0  0  0  0
  9 20  1  0  0  0  0
  9 33  1  0  0  0  0
  9 34  1  0  0  0  0
 10 12  1  0  0  0  0
 10 14  1  0  0  0  0
 10 21  1  0  0  0  0
 11 12  1  0  0  0  0
 11 13  1  0  0  0  0
 11 15  1  0  0  0  0
 11 22  1  0  0  0  0
 12 23  1  0  0  0  0
 12 24  1  0  0  0  0
 13 14  1  0  0  0  0
 13 25  1  0  0  0  0
 14 26  1  0  0  0  0
 15 27  1  0  0  0  0
 15 28  1  0  0  0  0
 16 18  2  0  0  0  0
 17 30  1  0  0  0  0
 18 19  1  0  0  0  0
M  END
> <PUBCHEM_COMPOUND_CID>
135855769

> <PUBCHEM_CONFORMER_RMSD>
0.6

> <PUBCHEM_CONFORMER_DIVERSEORDER>
1
24
122
114
7
107
120
49
145
20
5
115
84
62
129
43
63
61
95
130
146
127
140
4
70
67
10
147
138
100
9
3
79
22
71
23
137
104
13
2
98
6
94
106
33
139
91
92
121
77
99
54
108
85
35
8
39
112
60
34
69
133
128
74
36
50
97
14
29
15
45
59
41
126
125
72
89
32
17
58
57
28
113
90
38
64
11
81
119
27
37
124
12
21
141
75
101
68
66
48
87
19
31
80
96
26
44
116
51
47
46
142
117
65
111
18
25
83
143
30
73
55
88
135
136
134
40
42
56
109
132
76
131
102
103
53
105
52
110
78
16
118
123
82
93
144
86

> <PUBCHEM_MMFF94_PARTIAL_CHARGES>
24
1 -0.34
10 0.26
13 0.28
14 0.34
15 0.28
16 -0.03
17 0.04
18 0.14
19 0.72
2 -0.68
20 0.56
29 0.4
3 -0.68
30 0.15
31 0.4
32 0.37
33 0.4
34 0.4
4 -0.57
5 0.05
6 -0.57
7 -0.58
8 -0.49
9 -0.85

> <PUBCHEM_EFFECTIVE_ROTOR_COUNT>
3

> <PUBCHEM_PHARMACOPHORE_FEATURES>
11
1 2 acceptor
1 2 donor
1 3 acceptor
1 3 donor
1 4 acceptor
1 8 donor
1 9 donor
3 5 6 17 cation
5 10 11 12 13 14 rings
5 5 6 16 17 18 rings
6 7 8 16 18 19 20 rings

> <PUBCHEM_HEAVY_ATOM_COUNT>
20

> <PUBCHEM_ATOM_DEF_STEREO_COUNT>
0

> <PUBCHEM_ATOM_UDEF_STEREO_COUNT>
4

> <PUBCHEM_BOND_DEF_STEREO_COUNT>
0

> <PUBCHEM_BOND_UDEF_STEREO_COUNT>
0

> <PUBCHEM_ISOTOPIC_ATOM_COUNT>
0

> <PUBCHEM_COMPONENT_COUNT>
1

> <PUBCHEM_CACTVS_TAUTO_COUNT>
-1

> <PUBCHEM_CONFORMER_ID>
0818FE9900000001

> <PUBCHEM_MMFF94_ENERGY>
47.103

> <PUBCHEM_FEATURE_SELFOVERLAP>
56

> <PUBCHEM_SHAPE_FINGERPRINT>
10498660 4 18264206920475121573
10608611 8 18342174419276046354
10646746 165 18410572869045503728
10871710 139 16181559699417867520
11132069 177 18411703205352921755
11640471 11 17024051391401358734
11715629 250 18343018852627320983
11759241 127 17988350559445102669
12173636 292 18264767649925221765
12236239 1 17385439938449726146
12251169 10 18114176454151360360
12596602 18 16950560030227895728
13140716 1 18192152813713157393
13214271 11 18270676592552545911
13538477 17 17894917346982808915
13583140 156 16588020217306357417
13764800 53 18260843574397971651
13965767 371 17391910353736535788
15219456 202 18202849846491801774
15375358 24 18272649064741020451
16945 1 18261965050504349307
17846911 113 18408319990968238843
17980427 23 18191578855837697524
18186145 218 18196661691960556637
20510252 161 18341331085457940697
20559304 39 17895195454805223874
20645477 70 16917077629039910438
20715895 44 17751905936028442621
22802520 49 18128832853713007070
23114952 82 17917160381555834886
23402539 116 18339349876841469983
23557571 272 18270684297708161274
23559900 14 18339372867986035222
2748010 2 18047196254465567341
350125 39 18048039566967767867
3524813 1 18201990071164055128
474 4 16662070229413955556
5104073 3 18264492793492660123
5939293 188 18265618860560984756
7097593 13 17968642844757956882
7364860 26 18267582403792467402
77492 1 17240486930887440850
81228 2 18337125496409888025
9709674 26 18341898476006528399
9925002 15 16763936841747683702

> <PUBCHEM_SHAPE_MULTIPOLES>
361.8
7.51
2.49
1.13
1.61
0.81
-0.2
2.16
1.61
-1.38
-0.31
1.25
-0.22
0.85

> <PUBCHEM_SHAPE_SELFOVERLAP>
785.863

> <PUBCHEM_SHAPE_VOLUME>
199.9

> <PUBCHEM_COORDINATE_TYPE>
2
5
10

$$$$
