135816739
  -OEChem-03292013293D

 33 35  0     1  0  0  0  0  0999 V2000
   -2.3291   -0.1589    0.9255 O   0  0  0  0  0  0  0  0  0  0  0  0
   -3.3870    2.5465   -0.0619 O   0  0  0  0  0  0  0  0  0  0  0  0
    4.1576   -1.9478   -0.3134 O   0  0  0  0  0  0  0  0  0  0  0  0
   -0.0366   -0.3170    0.0912 N   0  0  0  0  0  0  0  0  0  0  0  0
   -4.4093   -2.1201    0.6128 N   0  0  0  0  0  0  0  0  0  0  0  0
    1.1962   -2.1578   -0.2145 N   0  0  0  0  0  0  0  0  0  0  0  0
    1.7014    1.3606    0.2469 N   0  0  0  0  0  0  0  0  0  0  0  0
    3.8589    0.3450    0.0145 N   0  0  0  0  0  0  0  0  0  0  0  0
    3.6517    2.6672    0.3420 N   0  0  0  0  0  0  0  0  0  0  0  0
   -1.2624    0.5446    0.2617 C   0  0  1  0  0  0  0  0  0  0  0  0
   -3.2832    1.2806   -0.7093 C   0  0  1  0  0  0  0  0  0  0  0  0
   -1.8338    1.0404   -1.0620 C   0  0  0  0  0  0  0  0  0  0  0  0
   -3.5809    0.1694    0.2891 C   0  0  1  0  0  0  0  0  0  0  0  0
   -4.1150   -1.0921   -0.3758 C   0  0  0  0  0  0  0  0  0  0  0  0
    1.2647    0.0912    0.0913 C   0  0  0  0  0  0  0  0  0  0  0  0
   -0.0263   -1.6777   -0.0961 C   0  0  0  0  0  0  0  0  0  0  0  0
    1.9937   -1.0580   -0.0978 C   0  0  0  0  0  0  0  0  0  0  0  0
    3.4273   -0.9789   -0.1487 C   0  0  0  0  0  0  0  0  0  0  0  0
    3.0122    1.4626    0.2045 C   0  0  0  0  0  0  0  0  0  0  0  0
   -0.9595    1.3733    0.9126 H   0  0  0  0  0  0  0  0  0  0  0  0
   -3.9436    1.2919   -1.5810 H   0  0  0  0  0  0  0  0  0  0  0  0
   -1.7574    0.2645   -1.8329 H   0  0  0  0  0  0  0  0  0  0  0  0
   -1.3082    1.9327   -1.4162 H   0  0  0  0  0  0  0  0  0  0  0  0
   -4.2710    0.5085    1.0708 H   0  0  0  0  0  0  0  0  0  0  0  0
   -3.3830   -1.4978   -1.0830 H   0  0  0  0  0  0  0  0  0  0  0  0
   -5.0306   -0.8649   -0.9319 H   0  0  0  0  0  0  0  0  0  0  0  0
   -0.9346   -2.2628   -0.1407 H   0  0  0  0  0  0  0  0  0  0  0  0
   -4.3169    2.6645    0.1971 H   0  0  0  0  0  0  0  0  0  0  0  0
   -3.5599   -2.3561    1.1243 H   0  0  0  0  0  0  0  0  0  0  0  0
   -4.7046   -2.9724    0.1386 H   0  0  0  0  0  0  0  0  0  0  0  0
    4.8604    0.5148   -0.0054 H   0  0  0  0  0  0  0  0  0  0  0  0
    3.1300    3.5256    0.4821 H   0  0  0  0  0  0  0  0  0  0  0  0
    4.6629    2.7362    0.3078 H   0  0  0  0  0  0  0  0  0  0  0  0
  1 10  1  0  0  0  0
  1 13  1  0  0  0  0
  2 11  1  0  0  0  0
  2 28  1  0  0  0  0
  3 18  2  0  0  0  0
  4 10  1  0  0  0  0
  4 15  1  0  0  0  0
  4 16  1  0  0  0  0
  5 14  1  0  0  0  0
  5 29  1  0  0  0  0
  5 30  1  0  0  0  0
  6 16  2  0  0  0  0
  6 17  1  0  0  0  0
  7 15  1  0  0  0  0
  7 19  2  0  0  0  0
  8 18  1  0  0  0  0
  8 19  1  0  0  0  0
  8 31  1  0  0  0  0
  9 19  1  0  0  0  0
  9 32  1  0  0  0  0
  9 33  1  0  0  0  0
 10 12  1  0  0  0  0
 10 20  1  0  0  0  0
 11 12  1  0  0  0  0
 11 13  1  0  0  0  0
 11 21  1  0  0  0  0
 12 22  1  0  0  0  0
 12 23  1  0  0  0  0
 13 14  1  0  0  0  0
 13 24  1  0  0  0  0
 14 25  1  0  0  0  0
 14 26  1  0  0  0  0
 15 17  2  0  0  0  0
 16 27  1  0  0  0  0
 17 18  1  0  0  0  0
M  END
> <PUBCHEM_COMPOUND_CID>
135816739

> <PUBCHEM_CONFORMER_RMSD>
0.6

> <PUBCHEM_CONFORMER_DIVERSEORDER>
1
6
9
12
13
10
14
5
4
16
11
7
15
2
3
8

> <PUBCHEM_MMFF94_PARTIAL_CHARGES>
25
1 -0.56
10 0.54
11 0.28
13 0.28
14 0.27
15 -0.03
16 0.04
17 0.14
18 0.72
19 0.56
2 -0.68
27 0.15
28 0.4
29 0.36
3 -0.57
30 0.36
31 0.37
32 0.4
33 0.4
4 0.05
5 -0.99
6 -0.57
7 -0.58
8 -0.49
9 -0.85

> <PUBCHEM_EFFECTIVE_ROTOR_COUNT>
3

> <PUBCHEM_PHARMACOPHORE_FEATURES>
12
1 1 acceptor
1 2 acceptor
1 2 donor
1 3 acceptor
1 5 cation
1 5 donor
1 8 donor
1 9 donor
3 4 6 16 cation
5 1 10 11 12 13 rings
5 4 6 15 16 17 rings
6 7 8 15 17 18 19 rings

> <PUBCHEM_HEAVY_ATOM_COUNT>
19

> <PUBCHEM_ATOM_DEF_STEREO_COUNT>
3

> <PUBCHEM_ATOM_UDEF_STEREO_COUNT>
0

> <PUBCHEM_BOND_DEF_STEREO_COUNT>
0

> <PUBCHEM_BOND_UDEF_STEREO_COUNT>
0

> <PUBCHEM_ISOTOPIC_ATOM_COUNT>
0

> <PUBCHEM_COMPONENT_COUNT>
1

> <PUBCHEM_CACTVS_TAUTO_COUNT>
-1

> <PUBCHEM_CONFORMER_ID>
0818662300000001

> <PUBCHEM_MMFF94_ENERGY>
38.4927

> <PUBCHEM_FEATURE_SELFOVERLAP>
61.076

> <PUBCHEM_SHAPE_FINGERPRINT>
10608611 8 18408601431353394821
11405975 8 18338234860587269601
11471102 20 18340201887058087692
11615757 297 18202568362566155267
12403259 226 18408600340558159300
12403259 415 18408041818462942524
12403260 363 18408875244113490330
12500047 106 18116993278641067189
12507557 5 18340763741657646664
12916754 54 18413110558835615011
13583140 156 17459725130039268090
13675066 3 17988914540412194794
14289901 80 18412822495331456729
15196674 1 18411136930815192924
15219456 202 18408322168268848393
16945 1 18270403776599013158
17492 89 18411417306381360059
18186145 218 18202291281594215280
19930381 70 18195523920722806425
200 152 18131343103726742735
20645477 56 18116434744141080765
20645477 70 18272083851397993150
20681677 76 18335696148294462581
21065198 57 18337953389884413845
21524375 3 18268991054364995498
21709351 56 18341044125591345078
221490 88 18410859858306957466
22854114 111 18411699885385406372
23402539 116 16950567623170730158
23402655 69 18343017748926467820
23557571 272 17748826294084081613
23559900 14 18267296547853760034
2748010 2 18339651147855002822
2871803 45 18334569166515070103
3286 77 18408322172732478150
350125 39 18339083791027661534
4214541 1 18338517439491868229
5104073 3 18410854343489471745
5283173 99 18041825252534840149
6333272 397 18337106890458658760
77779 3 18411700976233350469
9709674 26 18335424594665961971

> <PUBCHEM_SHAPE_MULTIPOLES>
343.52
8.7
2.52
0.76
1.39
0.4
0.05
-0.2
-0.12
-0.46
-0.02
0.38
0.05
0.89

> <PUBCHEM_SHAPE_SELFOVERLAP>
744.323

> <PUBCHEM_SHAPE_VOLUME>
186.9

> <PUBCHEM_COORDINATE_TYPE>
2
5
10

$$$$
