135853
  -OEChem-03292013323D

 46 47  0     0  0  0  0  0  0999 V2000
   -1.1114    0.0089    1.9355 O   0  0  0  0  0  0  0  0  0  0  0  0
   -1.1198   -0.0360   -1.9331 O   0  0  0  0  0  0  0  0  0  0  0  0
    1.7269   -0.1579    1.5507 O   0  0  0  0  0  0  0  0  0  0  0  0
    1.7146    0.1990   -1.5544 O   0  0  0  0  0  0  0  0  0  0  0  0
   -1.0547   -4.4363   -0.9952 O   0  0  0  0  0  0  0  0  0  0  0  0
   -1.1634    4.4094    0.9976 O   0  0  0  0  0  0  0  0  0  0  0  0
    3.4447   -0.1668    3.0954 O   0  0  0  0  0  0  0  0  0  0  0  0
    3.4283    0.2492   -3.1030 O   0  0  0  0  0  0  0  0  0  0  0  0
   -3.5076   -0.5605    0.5621 C   0  0  0  0  0  0  0  0  0  0  0  0
   -3.5215    0.4792   -0.5542 C   0  0  0  0  0  0  0  0  0  0  0  0
   -2.2969   -1.4389    0.4829 C   0  0  0  0  0  0  0  0  0  0  0  0
   -2.3365    1.3831   -0.4778 C   0  0  0  0  0  0  0  0  0  0  0  0
   -1.0990   -1.0172    1.2610 C   0  0  0  0  0  0  0  0  0  0  0  0
   -1.1305    0.9903   -1.2586 C   0  0  0  0  0  0  0  0  0  0  0  0
    0.1146   -1.8785    1.1961 C   0  0  0  0  0  0  0  0  0  0  0  0
    0.0622    1.8804   -1.1963 C   0  0  0  0  0  0  0  0  0  0  0  0
   -2.2676   -2.5584   -0.2489 C   0  0  0  0  0  0  0  0  0  0  0  0
   -2.3325    2.5029    0.2538 C   0  0  0  0  0  0  0  0  0  0  0  0
    0.1138   -2.9924    0.4554 C   0  0  0  0  0  0  0  0  0  0  0  0
    0.0362    2.9940   -0.4556 C   0  0  0  0  0  0  0  0  0  0  0  0
   -1.0684   -3.4137   -0.3188 C   0  0  0  0  0  0  0  0  0  0  0  0
   -1.1541    3.3868    0.3211 C   0  0  0  0  0  0  0  0  0  0  0  0
    1.3084   -1.4383    1.9869 C   0  0  0  0  0  0  0  0  0  0  0  0
    1.2645    1.4690   -1.9896 C   0  0  0  0  0  0  0  0  0  0  0  0
    2.8164    0.3693    2.1928 C   0  0  0  0  0  0  0  0  0  0  0  0
    2.8150   -0.3019   -2.1989 C   0  0  0  0  0  0  0  0  0  0  0  0
    3.1431    1.7190    1.6294 C   0  0  0  0  0  0  0  0  0  0  0  0
    3.1753   -1.6434   -1.6363 C   0  0  0  0  0  0  0  0  0  0  0  0
   -3.5828   -0.0801    1.5457 H   0  0  0  0  0  0  0  0  0  0  0  0
   -4.4137   -1.1750    0.4751 H   0  0  0  0  0  0  0  0  0  0  0  0
   -3.5885   -0.0039   -1.5371 H   0  0  0  0  0  0  0  0  0  0  0  0
   -4.4428    1.0703   -0.4651 H   0  0  0  0  0  0  0  0  0  0  0  0
   -3.1309   -2.8781   -0.8235 H   0  0  0  0  0  0  0  0  0  0  0  0
   -3.2019    2.8020    0.8303 H   0  0  0  0  0  0  0  0  0  0  0  0
    0.9889   -3.6314    0.3950 H   0  0  0  0  0  0  0  0  0  0  0  0
    0.8958    3.6537   -0.3971 H   0  0  0  0  0  0  0  0  0  0  0  0
    1.0430   -1.3983    3.0506 H   0  0  0  0  0  0  0  0  0  0  0  0
    2.1371   -2.1475    1.8698 H   0  0  0  0  0  0  0  0  0  0  0  0
    0.9978    1.4227   -3.0528 H   0  0  0  0  0  0  0  0  0  0  0  0
    2.0762    2.1979   -1.8742 H   0  0  0  0  0  0  0  0  0  0  0  0
    2.3014    2.3980    1.7853 H   0  0  0  0  0  0  0  0  0  0  0  0
    3.3773    1.6305    0.5659 H   0  0  0  0  0  0  0  0  0  0  0  0
    4.0179    2.1250    2.1452 H   0  0  0  0  0  0  0  0  0  0  0  0
    2.3498   -2.3425   -1.7905 H   0  0  0  0  0  0  0  0  0  0  0  0
    3.4096   -1.5494   -0.5734 H   0  0  0  0  0  0  0  0  0  0  0  0
    4.0586   -2.0282   -2.1539 H   0  0  0  0  0  0  0  0  0  0  0  0
  1 13  2  0  0  0  0
  2 14  2  0  0  0  0
  3 23  1  0  0  0  0
  3 25  1  0  0  0  0
  4 24  1  0  0  0  0
  4 26  1  0  0  0  0
  5 21  2  0  0  0  0
  6 22  2  0  0  0  0
  7 25  2  0  0  0  0
  8 26  2  0  0  0  0
  9 10  1  0  0  0  0
  9 11  1  0  0  0  0
  9 29  1  0  0  0  0
  9 30  1  0  0  0  0
 10 12  1  0  0  0  0
 10 31  1  0  0  0  0
 10 32  1  0  0  0  0
 11 13  1  0  0  0  0
 11 17  2  0  0  0  0
 12 14  1  0  0  0  0
 12 18  2  0  0  0  0
 13 15  1  0  0  0  0
 14 16  1  0  0  0  0
 15 19  2  0  0  0  0
 15 23  1  0  0  0  0
 16 20  2  0  0  0  0
 16 24  1  0  0  0  0
 17 21  1  0  0  0  0
 17 33  1  0  0  0  0
 18 22  1  0  0  0  0
 18 34  1  0  0  0  0
 19 21  1  0  0  0  0
 19 35  1  0  0  0  0
 20 22  1  0  0  0  0
 20 36  1  0  0  0  0
 23 37  1  0  0  0  0
 23 38  1  0  0  0  0
 24 39  1  0  0  0  0
 24 40  1  0  0  0  0
 25 27  1  0  0  0  0
 26 28  1  0  0  0  0
 27 41  1  0  0  0  0
 27 42  1  0  0  0  0
 27 43  1  0  0  0  0
 28 44  1  0  0  0  0
 28 45  1  0  0  0  0
 28 46  1  0  0  0  0
M  END
> <PUBCHEM_COMPOUND_CID>
135853

> <PUBCHEM_CONFORMER_RMSD>
1

> <PUBCHEM_CONFORMER_DIVERSEORDER>
1
25
29
95
49
79
69
76
30
89
93
11
125
60
133
66
54
144
52
7
128
88
120
147
165
36
9
47
6
142
56
130
162
134
161
140
154
81
12
50
70
73
135
112
122
4
14
107
61
99
121
111
164
72
34
158
87
13
96
64
129
71
105
171
145
33
39
55
37
83
91
67
136
156
141
62
152
137
94
20
10
51
153
17
77
40
19
22
101
103
78
123
80
8
102
117
126
15
27
150
110
109
138
98
114
53
163
63
38
124
84
48
160
118
42
32
149
44
97
35
119
167
82
146
92
157
43
28
169
108
75
90
151
46
45
104
5
68
168
59
143
3
26
86
155
2
57
115
74
159
31
132
170
113
85
139
100
21
148
106
58
23
116
16
127
131
65
24
166
18
41

> <PUBCHEM_MMFF94_PARTIAL_CHARGES>
32
1 -0.57
10 0.14
11 -0.12
12 -0.12
13 0.54
14 0.54
15 -0.12
16 -0.12
17 -0.14
18 -0.14
19 -0.14
2 -0.57
20 -0.14
21 0.54
22 0.54
23 0.42
24 0.42
25 0.66
26 0.66
27 0.06
28 0.06
3 -0.43
33 0.15
34 0.15
35 0.15
36 0.15
4 -0.43
5 -0.57
6 -0.57
7 -0.57
8 -0.57
9 0.14

> <PUBCHEM_EFFECTIVE_ROTOR_COUNT>
9

> <PUBCHEM_PHARMACOPHORE_FEATURES>
8
1 1 acceptor
1 2 acceptor
1 5 acceptor
1 6 acceptor
1 7 acceptor
1 8 acceptor
6 11 13 15 17 19 21 rings
6 12 14 16 18 20 22 rings

> <PUBCHEM_HEAVY_ATOM_COUNT>
28

> <PUBCHEM_ATOM_DEF_STEREO_COUNT>
0

> <PUBCHEM_ATOM_UDEF_STEREO_COUNT>
0

> <PUBCHEM_BOND_DEF_STEREO_COUNT>
0

> <PUBCHEM_BOND_UDEF_STEREO_COUNT>
0

> <PUBCHEM_ISOTOPIC_ATOM_COUNT>
0

> <PUBCHEM_COMPONENT_COUNT>
1

> <PUBCHEM_CACTVS_TAUTO_COUNT>
10

> <PUBCHEM_CONFORMER_ID>
000212AD00000001

> <PUBCHEM_MMFF94_ENERGY>
42.3514

> <PUBCHEM_FEATURE_SELFOVERLAP>
40.601

> <PUBCHEM_SHAPE_FINGERPRINT>
11244481 83 17126740056576043604
11578080 2 17199416976070808450
12539773 59 17894911823712459616
12788726 201 18050044113914389900
14955137 171 18263085581802598371
15876981 60 17972860730555138658
20905425 154 17326324931805077593
23419403 2 17273716427226411022
23559900 14 17480599560356466647
35225 105 17973128847867158076
3524813 1 15670124429588747855
6287921 2 17472700221966758607

> <PUBCHEM_SHAPE_MULTIPOLES>
529.27
5.05
4.7
2.71
2.04
0.08
0.01
-0.08
-0.01
-2.61
0
3.73
-0.04
-0.05

> <PUBCHEM_SHAPE_SELFOVERLAP>
1121.177

> <PUBCHEM_SHAPE_VOLUME>
291.4

> <PUBCHEM_COORDINATE_TYPE>
2
5
10

$$$$
