135807
  -OEChem-03292013323D

 43 44  0     0  0  0  0  0  0999 V2000
    3.1466    0.9945   -2.7621 S   0  0  0  0  0  0  0  0  0  0  0  0
   -3.0772    1.2036   -1.2308 O   0  0  0  0  0  0  0  0  0  0  0  0
    2.3275   -1.3422    0.9476 O   0  0  0  0  0  0  0  0  0  0  0  0
   -2.6416    1.5568    1.0153 O   0  0  0  0  0  0  0  0  0  0  0  0
    2.5080   -1.7381   -1.3262 O   0  0  0  0  0  0  0  0  0  0  0  0
   -1.6684   -2.7149    0.0963 N   0  0  0  0  0  0  0  0  0  0  0  0
    0.9256    2.0828   -1.5067 N   0  0  0  0  0  0  0  0  0  0  0  0
   -0.3296   -0.2751   -0.4253 C   0  0  0  0  0  0  0  0  0  0  0  0
   -1.8288   -0.3627   -0.1129 C   0  0  0  0  0  0  0  0  0  0  0  0
    0.3955   -1.6142   -0.2587 C   0  0  0  0  0  0  0  0  0  0  0  0
    0.3140    0.7677    0.4430 C   0  0  0  0  0  0  0  0  0  0  0  0
   -2.4272   -1.5545    0.1134 C   0  0  0  0  0  0  0  0  0  0  0  0
   -0.2901   -2.7583   -0.0378 C   0  0  0  0  0  0  0  0  0  0  0  0
    0.9092    1.8915   -0.1197 C   0  0  0  0  0  0  0  0  0  0  0  0
    0.3037    0.5881    1.8223 C   0  0  0  0  0  0  0  0  0  0  0  0
   -3.8926   -1.7595    0.3875 C   0  0  0  0  0  0  0  0  0  0  0  0
    0.3173   -4.1293    0.0873 C   0  0  0  0  0  0  0  0  0  0  0  0
   -2.5562    0.9130   -0.0143 C   0  0  0  0  0  0  0  0  0  0  0  0
    1.8662   -1.5775   -0.3044 C   0  0  0  0  0  0  0  0  0  0  0  0
    1.5010    2.8471    0.7064 C   0  0  0  0  0  0  0  0  0  0  0  0
    0.8955    1.5437    2.6483 C   0  0  0  0  0  0  0  0  0  0  0  0
    1.4942    2.6732    2.0904 C   0  0  0  0  0  0  0  0  0  0  0  0
   -3.8193    2.4257   -1.2971 C   0  0  0  0  0  0  0  0  0  0  0  0
    3.7523   -1.2769    1.0672 C   0  0  0  0  0  0  0  0  0  0  0  0
    1.8745    1.6154   -2.0291 C   0  0  0  0  0  0  0  0  0  0  0  0
   -0.2664   -0.0231   -1.4906 H   0  0  0  0  0  0  0  0  0  0  0  0
   -2.1503   -3.5912    0.2630 H   0  0  0  0  0  0  0  0  0  0  0  0
   -0.1583   -0.2819    2.2815 H   0  0  0  0  0  0  0  0  0  0  0  0
   -4.3311   -2.4160   -0.3717 H   0  0  0  0  0  0  0  0  0  0  0  0
   -4.0316   -2.2254    1.3690 H   0  0  0  0  0  0  0  0  0  0  0  0
   -4.4619   -0.8256    0.3824 H   0  0  0  0  0  0  0  0  0  0  0  0
    0.1009   -4.5496    1.0752 H   0  0  0  0  0  0  0  0  0  0  0  0
   -0.1012   -4.7988   -0.6720 H   0  0  0  0  0  0  0  0  0  0  0  0
    1.4035   -4.1278   -0.0401 H   0  0  0  0  0  0  0  0  0  0  0  0
    1.9688    3.7328    0.2840 H   0  0  0  0  0  0  0  0  0  0  0  0
    0.8899    1.4084    3.7258 H   0  0  0  0  0  0  0  0  0  0  0  0
    1.9545    3.4174    2.7336 H   0  0  0  0  0  0  0  0  0  0  0  0
   -4.6782    2.3843   -0.6203 H   0  0  0  0  0  0  0  0  0  0  0  0
   -4.1840    2.5469   -2.3205 H   0  0  0  0  0  0  0  0  0  0  0  0
   -3.1736    3.2743   -1.0514 H   0  0  0  0  0  0  0  0  0  0  0  0
    4.1384   -0.4230    0.5027 H   0  0  0  0  0  0  0  0  0  0  0  0
    4.2080   -2.2092    0.7202 H   0  0  0  0  0  0  0  0  0  0  0  0
    3.9978   -1.1385    2.1235 H   0  0  0  0  0  0  0  0  0  0  0  0
  1 25  2  0  0  0  0
  2 18  1  0  0  0  0
  2 23  1  0  0  0  0
  3 19  1  0  0  0  0
  3 24  1  0  0  0  0
  4 18  2  0  0  0  0
  5 19  2  0  0  0  0
  6 12  1  0  0  0  0
  6 13  1  0  0  0  0
  6 27  1  0  0  0  0
  7 14  1  0  0  0  0
  7 25  2  0  0  0  0
  8  9  1  0  0  0  0
  8 10  1  0  0  0  0
  8 11  1  0  0  0  0
  8 26  1  0  0  0  0
  9 12  2  0  0  0  0
  9 18  1  0  0  0  0
 10 13  2  0  0  0  0
 10 19  1  0  0  0  0
 11 14  1  0  0  0  0
 11 15  2  0  0  0  0
 12 16  1  0  0  0  0
 13 17  1  0  0  0  0
 14 20  2  0  0  0  0
 15 21  1  0  0  0  0
 15 28  1  0  0  0  0
 16 29  1  0  0  0  0
 16 30  1  0  0  0  0
 16 31  1  0  0  0  0
 17 32  1  0  0  0  0
 17 33  1  0  0  0  0
 17 34  1  0  0  0  0
 20 22  1  0  0  0  0
 20 35  1  0  0  0  0
 21 22  2  0  0  0  0
 21 36  1  0  0  0  0
 22 37  1  0  0  0  0
 23 38  1  0  0  0  0
 23 39  1  0  0  0  0
 23 40  1  0  0  0  0
 24 41  1  0  0  0  0
 24 42  1  0  0  0  0
 24 43  1  0  0  0  0
M  END
> <PUBCHEM_COMPOUND_CID>
135807

> <PUBCHEM_CONFORMER_RMSD>
0.8

> <PUBCHEM_CONFORMER_DIVERSEORDER>
2
16
21
9
14
12
17
22
20
3
19
8
10
7
5
13
15
11
6
18
1
4

> <PUBCHEM_MMFF94_PARTIAL_CHARGES>
30
1 -0.27
10 -0.12
11 -0.14
12 -0.04
13 -0.04
14 0.18
15 -0.15
16 0.14
17 0.14
18 0.71
19 0.71
2 -0.43
20 -0.15
21 -0.15
22 -0.15
23 0.28
24 0.28
25 0.57
27 0.4
28 0.15
3 -0.43
35 0.15
36 0.15
37 0.15
4 -0.57
5 -0.57
6 -0.6
7 -0.48
8 0.42
9 -0.12

> <PUBCHEM_EFFECTIVE_ROTOR_COUNT>
6.4

> <PUBCHEM_PHARMACOPHORE_FEATURES>
8
1 1 acceptor
1 4 acceptor
1 5 acceptor
1 6 cation
1 6 donor
1 7 acceptor
6 11 14 15 20 21 22 rings
6 6 8 9 10 12 13 rings

> <PUBCHEM_HEAVY_ATOM_COUNT>
25

> <PUBCHEM_ATOM_DEF_STEREO_COUNT>
0

> <PUBCHEM_ATOM_UDEF_STEREO_COUNT>
0

> <PUBCHEM_BOND_DEF_STEREO_COUNT>
0

> <PUBCHEM_BOND_UDEF_STEREO_COUNT>
0

> <PUBCHEM_ISOTOPIC_ATOM_COUNT>
0

> <PUBCHEM_COMPONENT_COUNT>
1

> <PUBCHEM_CACTVS_TAUTO_COUNT>
2

> <PUBCHEM_CONFORMER_ID>
0002127F00000002

> <PUBCHEM_MMFF94_ENERGY>
76.2819

> <PUBCHEM_FEATURE_SELFOVERLAP>
40.601

> <PUBCHEM_SHAPE_FINGERPRINT>
10165383 225 18122377720300579833
12035758 1 18195218084516831553
12035759 4 17978828660258136006
13132413 78 17700408083568056953
13134695 92 17695320613597088173
13140716 1 18412541016344641577
14251757 17 17984727724962391532
14713325 29 17317925616546827284
14787075 74 17843099451572942080
15210252 30 16380007730978630357
15238133 3 17843987857332266985
16945 1 18122628245082974987
18981168 100 18263633112728169269
19049666 15 16908937085107153610
20600515 1 18193833748175398534
20691752 17 17977100481414542651
20739085 24 17975442379594669787
20905425 154 17909830178109824678
21330990 113 17979048532408325728
229495 10 17681598901270331096
2334 1 18337672022413644039
23419403 2 16756011063670696018
23559900 14 18261379049809649159
2748010 2 18337941381414193655
283562 15 16826704095655786643
350125 39 18410574020086144169
35225 105 16620344965403794072
394222 165 17605301552410750182
5265222 85 16613643550251512464
57527585 103 16888984154032301710
70251023 43 18202274823797333863
81228 2 17254847373016182371

> <PUBCHEM_SHAPE_MULTIPOLES>
484.9
5.2
4.18
2.18
2.65
2.08
-0.1
-0.7
-1.51
0.45
0.22
-2.24
-1.67
0.67

> <PUBCHEM_SHAPE_SELFOVERLAP>
1027.506

> <PUBCHEM_SHAPE_VOLUME>
273.7

> <PUBCHEM_COORDINATE_TYPE>
2
5
10

$$$$
