135836
  -OEChem-03292013323D

 50 52  0     1  0  0  0  0  0999 V2000
    2.3682   -2.1825    0.7008 S   0  0  0  0  0  0  0  0  0  0  0  0
    0.4518    1.4203   -0.7575 O   0  0  0  0  0  0  0  0  0  0  0  0
    1.7649   -1.9561    1.9996 O   0  0  0  0  0  0  0  0  0  0  0  0
    3.2616   -3.3026    0.4707 O   0  0  0  0  0  0  0  0  0  0  0  0
    0.0726    1.4373    1.5304 O   0  0  0  0  0  0  0  0  0  0  0  0
   -1.3520   -0.9910   -2.1794 O   0  0  0  0  0  0  0  0  0  0  0  0
    1.1492   -2.1942   -0.5193 N   0  0  2  0  0  0  0  0  0  0  0  0
   -1.7702   -0.8636    0.1347 N   0  0  0  0  0  0  0  0  0  0  0  0
   -3.7479   -0.7598    1.4273 N   0  0  0  0  0  0  0  0  0  0  0  0
   -0.7458    3.2694    0.1383 C   0  0  0  0  0  0  0  0  0  0  0  0
    3.2590   -0.7276    0.2881 C   0  0  0  0  0  0  0  0  0  0  0  0
    2.5795    0.3075   -0.3568 C   0  0  0  0  0  0  0  0  0  0  0  0
    1.1245    0.2150   -0.6100 C   0  0  0  0  0  0  0  0  0  0  0  0
    0.4496   -0.9464   -0.6925 C   0  0  0  0  0  0  0  0  0  0  0  0
   -0.0363    1.9369    0.4161 C   0  0  0  0  0  0  0  0  0  0  0  0
   -1.3041    3.8358    1.4508 C   0  0  0  0  0  0  0  0  0  0  0  0
   -1.9096    3.0370   -0.8394 C   0  0  0  0  0  0  0  0  0  0  0  0
    0.2436    4.2578   -0.4936 C   0  0  0  0  0  0  0  0  0  0  0  0
    4.6278   -0.6729    0.5585 C   0  0  0  0  0  0  0  0  0  0  0  0
    3.3349    1.4253   -0.7457 C   0  0  0  0  0  0  0  0  0  0  0  0
    0.4161   -3.4761   -0.6774 C   0  0  0  0  0  0  0  0  0  0  0  0
   -0.9856   -0.9374   -1.0074 C   0  0  0  0  0  0  0  0  0  0  0  0
    5.3505    0.4523    0.1765 C   0  0  0  0  0  0  0  0  0  0  0  0
    4.7065    1.4985   -0.4790 C   0  0  0  0  0  0  0  0  0  0  0  0
   -3.1842   -0.8332    0.2094 C   0  0  0  0  0  0  0  0  0  0  0  0
   -3.8715   -0.8829   -0.9840 C   0  0  0  0  0  0  0  0  0  0  0  0
   -5.2603   -0.8544   -0.9215 C   0  0  0  0  0  0  0  0  0  0  0  0
   -5.0994   -0.7341    1.4484 C   0  0  0  0  0  0  0  0  0  0  0  0
   -5.8936   -0.7786    0.3141 C   0  0  0  0  0  0  0  0  0  0  0  0
   -0.5024    4.0185    2.1755 H   0  0  0  0  0  0  0  0  0  0  0  0
   -2.0139    3.1410    1.9148 H   0  0  0  0  0  0  0  0  0  0  0  0
   -1.8252    4.7852    1.2841 H   0  0  0  0  0  0  0  0  0  0  0  0
   -1.5606    2.6581   -1.8066 H   0  0  0  0  0  0  0  0  0  0  0  0
   -2.4614    3.9650   -1.0268 H   0  0  0  0  0  0  0  0  0  0  0  0
   -2.6157    2.3007   -0.4395 H   0  0  0  0  0  0  0  0  0  0  0  0
    1.1214    4.3953    0.1483 H   0  0  0  0  0  0  0  0  0  0  0  0
    0.6054    3.9080   -1.4669 H   0  0  0  0  0  0  0  0  0  0  0  0
   -0.2195    5.2391   -0.6457 H   0  0  0  0  0  0  0  0  0  0  0  0
    5.1389   -1.4891    1.0600 H   0  0  0  0  0  0  0  0  0  0  0  0
    2.8655    2.2599   -1.2619 H   0  0  0  0  0  0  0  0  0  0  0  0
    1.1109   -4.3208   -0.6657 H   0  0  0  0  0  0  0  0  0  0  0  0
   -0.0960   -3.5019   -1.6443 H   0  0  0  0  0  0  0  0  0  0  0  0
   -0.3163   -3.6024    0.1253 H   0  0  0  0  0  0  0  0  0  0  0  0
    6.4153    0.5118    0.3813 H   0  0  0  0  0  0  0  0  0  0  0  0
    5.2700    2.3753   -0.7851 H   0  0  0  0  0  0  0  0  0  0  0  0
   -1.3056   -0.8270    1.0392 H   0  0  0  0  0  0  0  0  0  0  0  0
   -3.4529   -0.9414   -1.9743 H   0  0  0  0  0  0  0  0  0  0  0  0
   -5.8495   -0.8908   -1.8330 H   0  0  0  0  0  0  0  0  0  0  0  0
   -5.5445   -0.6745    2.4361 H   0  0  0  0  0  0  0  0  0  0  0  0
   -6.9749   -0.7550    0.3867 H   0  0  0  0  0  0  0  0  0  0  0  0
  1  3  2  0  0  0  0
  1  4  2  0  0  0  0
  1  7  1  0  0  0  0
  1 11  1  0  0  0  0
  2 13  1  0  0  0  0
  2 15  1  0  0  0  0
  5 15  2  0  0  0  0
  6 22  2  0  0  0  0
  7 14  1  0  0  0  0
  7 21  1  0  0  0  0
  8 22  1  0  0  0  0
  8 25  1  0  0  0  0
  8 46  1  0  0  0  0
  9 25  1  0  0  0  0
  9 28  2  0  0  0  0
 10 15  1  0  0  0  0
 10 16  1  0  0  0  0
 10 17  1  0  0  0  0
 10 18  1  0  0  0  0
 11 12  1  0  0  0  0
 11 19  2  0  0  0  0
 12 13  1  0  0  0  0
 12 20  2  0  0  0  0
 13 14  2  0  0  0  0
 14 22  1  0  0  0  0
 16 30  1  0  0  0  0
 16 31  1  0  0  0  0
 16 32  1  0  0  0  0
 17 33  1  0  0  0  0
 17 34  1  0  0  0  0
 17 35  1  0  0  0  0
 18 36  1  0  0  0  0
 18 37  1  0  0  0  0
 18 38  1  0  0  0  0
 19 23  1  0  0  0  0
 19 39  1  0  0  0  0
 20 24  1  0  0  0  0
 20 40  1  0  0  0  0
 21 41  1  0  0  0  0
 21 42  1  0  0  0  0
 21 43  1  0  0  0  0
 23 24  2  0  0  0  0
 23 44  1  0  0  0  0
 24 45  1  0  0  0  0
 25 26  2  0  0  0  0
 26 27  1  0  0  0  0
 26 47  1  0  0  0  0
 27 29  2  0  0  0  0
 27 48  1  0  0  0  0
 28 29  1  0  0  0  0
 28 49  1  0  0  0  0
 29 50  1  0  0  0  0
M  END
> <PUBCHEM_COMPOUND_CID>
135836

> <PUBCHEM_CONFORMER_RMSD>
0.8

> <PUBCHEM_CONFORMER_DIVERSEORDER>
1
18
11
13
25
23
17
10
29
21
9
27
2
31
26
16
24
28
5
8
30
19
6
12
7
14
3
20
4
15
22

> <PUBCHEM_MMFF94_PARTIAL_CHARGES>
35
1 1.45
10 0.06
11 -0.01
12 0.03
13 0.05
14 0.21
15 0.66
19 -0.15
2 -0.23
20 -0.15
21 0.36
22 0.62
23 -0.15
24 -0.15
25 0.43
26 -0.15
27 -0.15
28 0.16
29 -0.15
3 -0.65
39 0.15
4 -0.65
40 0.15
44 0.15
45 0.15
46 0.37
47 0.15
48 0.15
49 0.15
5 -0.57
50 0.15
6 -0.57
7 -0.68
8 -0.55
9 -0.62

> <PUBCHEM_EFFECTIVE_ROTOR_COUNT>
6.2

> <PUBCHEM_PHARMACOPHORE_FEATURES>
10
1 3 acceptor
1 4 acceptor
1 5 acceptor
1 6 acceptor
1 8 donor
1 9 acceptor
4 10 16 17 18 hydrophobe
6 1 7 11 12 13 14 rings
6 11 12 19 20 23 24 rings
6 9 25 26 27 28 29 rings

> <PUBCHEM_HEAVY_ATOM_COUNT>
29

> <PUBCHEM_ATOM_DEF_STEREO_COUNT>
0

> <PUBCHEM_ATOM_UDEF_STEREO_COUNT>
0

> <PUBCHEM_BOND_DEF_STEREO_COUNT>
0

> <PUBCHEM_BOND_UDEF_STEREO_COUNT>
0

> <PUBCHEM_ISOTOPIC_ATOM_COUNT>
0

> <PUBCHEM_COMPONENT_COUNT>
1

> <PUBCHEM_CACTVS_TAUTO_COUNT>
3

> <PUBCHEM_CONFORMER_ID>
0002129C00000001

> <PUBCHEM_MMFF94_ENERGY>
94.9659

> <PUBCHEM_FEATURE_SELFOVERLAP>
50.782

> <PUBCHEM_SHAPE_FINGERPRINT>
10006869 2 18342452595628560197
10162869 55 18201443628067638379
10190108 129 18122374331101761730
10688039 33 18186802478737764269
1100329 8 18123191470241578244
11421498 54 18408602556660986242
12107698 1 18264768762311526586
12236239 1 17917429847725189359
12422481 6 18056213375268985153
12553582 1 18339911705750079895
12788726 201 18335413535035341968
13004483 165 18338508634703449099
13134695 92 18410570713061715597
13140716 1 18123191474246206696
13583140 156 18190744327082297423
13911987 19 18189911987556627532
13965767 371 17342410426706755563
14178342 30 18120638147044803402
14223421 5 18266463092275136374
14363568 33 18265897050257024633
14787075 74 18114742749752878274
14790565 3 18266749158424914580
14840074 17 18272374208388053661
14955137 171 18269569392864757839
15439362 3 17906450279451138833
1601671 61 17988927786033332943
17492 89 18264766550260853370
19319366 153 18115019835737235978
20600515 1 17916318292803068661
20642791 35 18125446564796963204
20691752 17 18055889191000352234
21421861 104 18191311485296281419
21641784 216 18187942659068189676
23558518 356 18118410531595934208
3178227 256 18194694876523741979
345986 75 18190162534458087011
3493558 16 17749103353465673853
350125 39 18341052896521269942
352729 6 17911229516808887052
4340502 62 17531245092988127002
469060 322 18409740555454291680
59755656 215 18409173199418117678
7164475 11 18337952269034989268

> <PUBCHEM_SHAPE_MULTIPOLES>
556.37
10.02
4.43
1.4
5.52
3.63
-0.19
-3.69
-1.29
-0.7
-0.32
0.79
-0.13
-0.89

> <PUBCHEM_SHAPE_SELFOVERLAP>
1185.769

> <PUBCHEM_SHAPE_VOLUME>
311.8

> <PUBCHEM_COORDINATE_TYPE>
2
5
10

$$$$
