135856019
  -OEChem-03292013293D

 34 36  0     1  0  0  0  0  0999 V2000
   -2.2263    1.6263    1.5168 F   0  0  0  0  0  0  0  0  0  0  0  0
   -3.4670   -0.9735   -2.1714 O   0  0  0  0  0  0  0  0  0  0  0  0
   -4.2273   -0.3221    2.1026 O   0  0  0  0  0  0  0  0  0  0  0  0
    4.7513    0.2404    0.3795 O   0  0  0  0  0  0  0  0  0  0  0  0
    0.4092    1.2727   -0.3240 N   0  0  0  0  0  0  0  0  0  0  0  0
    2.4778    2.0919   -0.0969 N   0  0  0  0  0  0  0  0  0  0  0  0
    0.8389   -1.0956   -0.0679 N   0  0  0  0  0  0  0  0  0  0  0  0
    3.1754   -1.4810    0.2966 N   0  0  0  0  0  0  0  0  0  0  0  0
    1.6563   -3.2784    0.2286 N   0  0  0  0  0  0  0  0  0  0  0  0
   -1.0887    1.2569   -0.5355 C   0  0  2  0  0  0  0  0  0  0  0  0
   -3.0642   -0.0164    0.0382 C   0  0  1  0  0  0  0  0  0  0  0  0
   -1.8423    0.6505    0.6583 C   0  0  2  0  0  0  0  0  0  0  0  0
   -2.4725   -0.6483   -1.2186 C   0  0  2  0  0  0  0  0  0  0  0  0
   -1.5465    0.4407   -1.7631 C   0  0  0  0  0  0  0  0  0  0  0  0
   -3.7274   -1.0170    0.9730 C   0  0  0  0  0  0  0  0  0  0  0  0
    1.2243    0.1986   -0.1196 C   0  0  0  0  0  0  0  0  0  0  0  0
    1.2095    2.3888   -0.3018 C   0  0  0  0  0  0  0  0  0  0  0  0
    2.4828    0.7329    0.0157 C   0  0  0  0  0  0  0  0  0  0  0  0
    3.5967   -0.1447    0.2466 C   0  0  0  0  0  0  0  0  0  0  0  0
    1.8400   -1.9227    0.1428 C   0  0  0  0  0  0  0  0  0  0  0  0
   -1.3615    2.3119   -0.6640 H   0  0  0  0  0  0  0  0  0  0  0  0
   -3.8065    0.7514   -0.2209 H   0  0  0  0  0  0  0  0  0  0  0  0
   -1.2397   -0.0646    1.2268 H   0  0  0  0  0  0  0  0  0  0  0  0
   -1.9055   -1.5550   -0.9764 H   0  0  0  0  0  0  0  0  0  0  0  0
   -2.0923    1.0948   -2.4550 H   0  0  0  0  0  0  0  0  0  0  0  0
   -0.7199    0.0072   -2.3359 H   0  0  0  0  0  0  0  0  0  0  0  0
   -3.0191   -1.7794    1.3141 H   0  0  0  0  0  0  0  0  0  0  0  0
   -4.5639   -1.5160    0.4731 H   0  0  0  0  0  0  0  0  0  0  0  0
   -3.0130   -1.2922   -2.9701 H   0  0  0  0  0  0  0  0  0  0  0  0
    0.8133    3.3855   -0.4400 H   0  0  0  0  0  0  0  0  0  0  0  0
   -4.6487   -0.9808    2.6805 H   0  0  0  0  0  0  0  0  0  0  0  0
    3.8867   -2.1886    0.4563 H   0  0  0  0  0  0  0  0  0  0  0  0
    0.7346   -3.6902    0.1314 H   0  0  0  0  0  0  0  0  0  0  0  0
    2.4341   -3.9084    0.3914 H   0  0  0  0  0  0  0  0  0  0  0  0
  1 12  1  0  0  0  0
  2 13  1  0  0  0  0
  2 29  1  0  0  0  0
  3 15  1  0  0  0  0
  3 31  1  0  0  0  0
  4 19  2  0  0  0  0
  5 10  1  0  0  0  0
  5 16  1  0  0  0  0
  5 17  1  0  0  0  0
  6 17  2  0  0  0  0
  6 18  1  0  0  0  0
  7 16  1  0  0  0  0
  7 20  2  0  0  0  0
  8 19  1  0  0  0  0
  8 20  1  0  0  0  0
  8 32  1  0  0  0  0
  9 20  1  0  0  0  0
  9 33  1  0  0  0  0
  9 34  1  0  0  0  0
 10 12  1  0  0  0  0
 10 14  1  0  0  0  0
 10 21  1  0  0  0  0
 11 12  1  0  0  0  0
 11 13  1  0  0  0  0
 11 15  1  0  0  0  0
 11 22  1  0  0  0  0
 12 23  1  0  0  0  0
 13 14  1  0  0  0  0
 13 24  1  0  0  0  0
 14 25  1  0  0  0  0
 14 26  1  0  0  0  0
 15 27  1  0  0  0  0
 15 28  1  0  0  0  0
 16 18  2  0  0  0  0
 17 30  1  0  0  0  0
 18 19  1  0  0  0  0
M  END
> <PUBCHEM_COMPOUND_CID>
135856019

> <PUBCHEM_CONFORMER_RMSD>
0.6

> <PUBCHEM_CONFORMER_DIVERSEORDER>
1
40
157
175
12
170
152
19
181
176
58
54
154
180
66
174
177
9
139
101
168
106
105
153
142
27
145
164
137
111
144
3
20
125
2
63
118
7
136
179
4
29
65
158
135
10
26
140
80
130
13
114
122
90
150
38
155
138
165
17
120
21
92
96
108
16
134
126
148
112
6
100
95
116
43
15
31
41
129
94
128
61
141
14
151
110
5
46
37
24
39
115
8
28
133
36
159
78
64
67
156
49
172
60
51
163
76
83
113
47
107
71
147
160
11
89
162
85
42
30
146
74
178
35
109
68
48
81
124
127
32
56
91
50
25
75
62
53
82
22
57
34
73
23
119
161
59
33
18
171
123
52
173
167
99
166
70
98
44
69
45
79
88
103
77
55
121
102
169
87
149
143
132
97
84
72
93
86
131
104
117

> <PUBCHEM_MMFF94_PARTIAL_CHARGES>
24
1 -0.34
10 0.26
12 0.34
13 0.28
15 0.28
16 -0.03
17 0.04
18 0.14
19 0.72
2 -0.68
20 0.56
29 0.4
3 -0.68
30 0.15
31 0.4
32 0.37
33 0.4
34 0.4
4 -0.57
5 0.05
6 -0.57
7 -0.58
8 -0.49
9 -0.85

> <PUBCHEM_EFFECTIVE_ROTOR_COUNT>
3

> <PUBCHEM_PHARMACOPHORE_FEATURES>
11
1 2 acceptor
1 2 donor
1 3 acceptor
1 3 donor
1 4 acceptor
1 8 donor
1 9 donor
3 5 6 17 cation
5 10 11 12 13 14 rings
5 5 6 16 17 18 rings
6 7 8 16 18 19 20 rings

> <PUBCHEM_HEAVY_ATOM_COUNT>
20

> <PUBCHEM_ATOM_DEF_STEREO_COUNT>
0

> <PUBCHEM_ATOM_UDEF_STEREO_COUNT>
4

> <PUBCHEM_BOND_DEF_STEREO_COUNT>
0

> <PUBCHEM_BOND_UDEF_STEREO_COUNT>
0

> <PUBCHEM_ISOTOPIC_ATOM_COUNT>
0

> <PUBCHEM_COMPONENT_COUNT>
1

> <PUBCHEM_CACTVS_TAUTO_COUNT>
-1

> <PUBCHEM_CONFORMER_ID>
0818FF9300000001

> <PUBCHEM_MMFF94_ENERGY>
47.6386

> <PUBCHEM_FEATURE_SELFOVERLAP>
56

> <PUBCHEM_SHAPE_FINGERPRINT>
11578080 2 17557667431398986329
11582403 64 15804884427343919725
11796584 16 16226871273571833648
12202030 40 17385730162206155907
12236239 1 17917990611618845541
12363563 72 16081661083626164057
12553582 1 18410012109219519790
12596599 1 18060419139941166047
13140716 1 18193557998168618954
13583140 156 18412554223591071161
13764800 53 14692578723452930571
13965767 371 17125964943791790433
14178342 30 18266175037625079344
14787075 74 16548033453089139557
14957384 54 16486975059747710769
15209289 33 18272933855822789186
15309172 13 18410291441076030478
15375462 189 18130507517485923633
15422964 175 18114192912534668891
16945 1 18409160043352696756
19433438 48 18130779075145913759
200 152 18271229604215109405
20028762 73 18199751525604231486
20645477 70 18188758552661812319
22112679 90 17489303148373378053
22445834 79 18343304738651670881
2255824 54 18337394954131830252
23557571 272 16805316704550995885
23559900 14 16226308362415918832
23728640 28 16246852410278414331
2748010 2 18050273783406642758
7097593 13 18199199407673296761
77492 1 17917711352718892965
81228 2 17185293358733842536

> <PUBCHEM_SHAPE_MULTIPOLES>
361.8
7.26
2.36
1.41
0.09
0.81
-0.16
1.64
1.71
-1.77
0.09
2.34
0.06
-0.22

> <PUBCHEM_SHAPE_SELFOVERLAP>
785.761

> <PUBCHEM_SHAPE_VOLUME>
200.8

> <PUBCHEM_COORDINATE_TYPE>
2
5
10

$$$$
