135849775
  -OEChem-03292013293D

 34 36  0     1  0  0  0  0  0999 V2000
    1.6520    0.3174    1.0996 O   0  0  0  0  0  0  0  0  0  0  0  0
    2.6920   -2.4560    0.4629 O   0  0  0  0  0  0  0  0  0  0  0  0
    0.5534   -2.1853   -1.2475 O   0  0  0  0  0  0  0  0  0  0  0  0
    4.6957    0.6966   -0.8817 O   0  0  0  0  0  0  0  0  0  0  0  0
   -1.9516   -2.1967    0.6242 O   0  0  0  0  0  0  0  0  0  0  0  0
   -0.5905    0.4717    0.1485 N   0  0  0  0  0  0  0  0  0  0  0  0
   -1.7257    2.3230   -0.3624 N   0  0  0  0  0  0  0  0  0  0  0  0
   -3.9136   -1.0438    0.1975 N   0  0  0  0  0  0  0  0  0  0  0  0
   -3.9892    1.3073   -0.3328 N   0  0  0  0  0  0  0  0  0  0  0  0
    2.9231   -0.0814    0.5395 C   0  0  1  0  0  0  0  0  0  0  0  0
    2.6404   -1.2850   -0.3507 C   0  0  2  0  0  0  0  0  0  0  0  0
    1.2189   -1.0194   -0.8047 C   0  0  2  0  0  0  0  0  0  0  0  0
    0.5939   -0.4160    0.4488 C   0  0  1  0  0  0  0  0  0  0  0  0
    3.5005    1.1029   -0.2234 C   0  0  1  0  0  0  0  0  0  0  0  0
   -1.9068    0.1137    0.1140 C   0  0  0  0  0  0  0  0  0  0  0  0
    3.8071    2.2730    0.6977 C   0  0  0  0  0  0  0  0  0  0  0  0
   -0.5325    1.8095   -0.1449 C   0  0  0  0  0  0  0  0  0  0  0  0
   -2.5867    1.2696   -0.2025 C   0  0  0  0  0  0  0  0  0  0  0  0
   -2.5318   -1.1537    0.3418 C   0  0  0  0  0  0  0  0  0  0  0  0
   -4.5489    0.1526   -0.1240 C   0  0  0  0  0  0  0  0  0  0  0  0
    3.5863   -0.3546    1.3691 H   0  0  0  0  0  0  0  0  0  0  0  0
    3.3340   -1.4325   -1.1827 H   0  0  0  0  0  0  0  0  0  0  0  0
    1.2156   -0.2902   -1.6241 H   0  0  0  0  0  0  0  0  0  0  0  0
    0.2323   -1.1713    1.1538 H   0  0  0  0  0  0  0  0  0  0  0  0
    2.7951    1.4453   -0.9894 H   0  0  0  0  0  0  0  0  0  0  0  0
    4.5446    1.9908    1.4572 H   0  0  0  0  0  0  0  0  0  0  0  0
    2.9083    2.6414    1.2010 H   0  0  0  0  0  0  0  0  0  0  0  0
    4.2459    3.1012    0.1305 H   0  0  0  0  0  0  0  0  0  0  0  0
    3.6142   -2.5706    0.7497 H   0  0  0  0  0  0  0  0  0  0  0  0
    1.0768   -2.5608   -1.9758 H   0  0  0  0  0  0  0  0  0  0  0  0
    0.3998    2.3554   -0.1894 H   0  0  0  0  0  0  0  0  0  0  0  0
    5.0344    1.4623   -1.3761 H   0  0  0  0  0  0  0  0  0  0  0  0
   -4.4798   -1.8761    0.3337 H   0  0  0  0  0  0  0  0  0  0  0  0
   -5.6422    0.0395   -0.1937 H   0  0  0  0  0  0  0  0  0  0  0  0
  1 10  1  0  0  0  0
  1 13  1  0  0  0  0
  2 11  1  0  0  0  0
  2 29  1  0  0  0  0
  3 12  1  0  0  0  0
  3 30  1  0  0  0  0
  4 14  1  0  0  0  0
  4 32  1  0  0  0  0
  5 19  2  0  0  0  0
  6 13  1  0  0  0  0
  6 15  1  0  0  0  0
  6 17  1  0  0  0  0
  7 17  2  0  0  0  0
  7 18  1  0  0  0  0
  8 19  1  0  0  0  0
  8 20  1  0  0  0  0
  8 33  1  0  0  0  0
  9 18  1  0  0  0  0
  9 20  2  0  0  0  0
 10 11  1  0  0  0  0
 10 14  1  0  0  0  0
 10 21  1  0  0  0  0
 11 12  1  0  0  0  0
 11 22  1  0  0  0  0
 12 13  1  0  0  0  0
 12 23  1  0  0  0  0
 13 24  1  0  0  0  0
 14 16  1  0  0  0  0
 14 25  1  0  0  0  0
 15 18  2  0  0  0  0
 15 19  1  0  0  0  0
 16 26  1  0  0  0  0
 16 27  1  0  0  0  0
 16 28  1  0  0  0  0
 17 31  1  0  0  0  0
 20 34  1  0  0  0  0
M  END
> <PUBCHEM_COMPOUND_CID>
135849775

> <PUBCHEM_CONFORMER_RMSD>
0.6

> <PUBCHEM_CONFORMER_DIVERSEORDER>
1
12
10
9
15
7
5
13
16
4
11
2
8
3
14
6

> <PUBCHEM_MMFF94_PARTIAL_CHARGES>
25
1 -0.56
10 0.28
11 0.28
12 0.28
13 0.54
14 0.28
15 -0.24
17 0.04
18 0.35
19 0.71
2 -0.68
20 0.45
29 0.4
3 -0.68
30 0.4
31 0.15
32 0.4
33 0.37
34 0.06
4 -0.68
5 -0.57
6 0.05
7 -0.57
8 -0.49
9 -0.57

> <PUBCHEM_EFFECTIVE_ROTOR_COUNT>
3

> <PUBCHEM_PHARMACOPHORE_FEATURES>
13
1 1 acceptor
1 2 acceptor
1 2 donor
1 3 acceptor
1 3 donor
1 4 acceptor
1 4 donor
1 5 acceptor
1 8 donor
3 6 7 17 cation
5 1 10 11 12 13 rings
5 6 7 15 17 18 rings
6 8 9 15 18 19 20 rings

> <PUBCHEM_HEAVY_ATOM_COUNT>
20

> <PUBCHEM_ATOM_DEF_STEREO_COUNT>
5

> <PUBCHEM_ATOM_UDEF_STEREO_COUNT>
0

> <PUBCHEM_BOND_DEF_STEREO_COUNT>
0

> <PUBCHEM_BOND_UDEF_STEREO_COUNT>
0

> <PUBCHEM_ISOTOPIC_ATOM_COUNT>
0

> <PUBCHEM_COMPONENT_COUNT>
1

> <PUBCHEM_CACTVS_TAUTO_COUNT>
-1

> <PUBCHEM_CONFORMER_ID>
0818E72F00000001

> <PUBCHEM_MMFF94_ENERGY>
48.3151

> <PUBCHEM_FEATURE_SELFOVERLAP>
66.114

> <PUBCHEM_SHAPE_FINGERPRINT>
10366900 7 18272929444717504457
10498660 4 18409166623232317484
10608611 8 18338794516026591312
10616163 171 18411420643612530015
10759866 29 18334016081969496462
10906281 52 18337124444517544133
10967382 1 18410011048109402993
11132069 177 18336262448190700952
11615757 297 17561367300446435521
12011746 2 18342176691298006413
12173636 292 18262512594468206517
12403259 226 18047186350091725622
12633257 1 18123190104172686688
15196674 1 18409448055781230651
15219456 202 18413107242872832171
15375358 24 18410290324426725011
15375462 6 18409449176535644838
16945 1 18337382846217647906
19591789 44 18052537969584444320
20510252 161 18339642240061527033
20645477 70 18271525295164713831
21501502 16 18268995288865106816
221490 88 18338524040888582074
23227448 37 17984137347300319068
23402539 116 18334286587066716951
23557571 272 18336278927911319046
23559900 14 18267296530726638290
296302 2 17458063784970206620
34934 24 18336822086961369459
350125 39 18410011014461710618
3545911 37 18334579040101298332
474 4 17240493549822324092
5104073 3 18336548231372726345
58051976 378 18342174458083901756
7097593 13 17753872944796924954
7364860 26 18339359657030434154
9709674 26 18340208471042986135

> <PUBCHEM_SHAPE_MULTIPOLES>
362.32
8.18
2.47
0.87
0.45
0.2
-0.04
-2.02
-0.22
-0.68
-0.05
-0.41
0.14
0.62

> <PUBCHEM_SHAPE_SELFOVERLAP>
783.576

> <PUBCHEM_SHAPE_VOLUME>
197.4

> <PUBCHEM_COORDINATE_TYPE>
2
5
10

$$$$
