135862
  -OEChem-03292013323D

 45 46  0     1  0  0  0  0  0999 V2000
    4.9228   -1.2131    0.0874 S   0  0  0  0  0  0  0  0  0  0  0  0
   -1.1692    0.5245    1.4107 O   0  0  0  0  0  0  0  0  0  0  0  0
   -3.6748    1.1955    2.4739 O   0  0  0  0  0  0  0  0  0  0  0  0
    3.5514   -1.2708   -0.8138 O   0  0  0  0  0  0  0  0  0  0  0  0
    6.0830   -1.7478   -0.9289 O   0  0  0  0  0  0  0  0  0  0  0  0
    5.2181    0.1699    0.4136 O   0  0  0  0  0  0  0  0  0  0  0  0
    4.7902   -2.1949    1.1482 O   0  0  0  0  0  0  0  0  0  0  0  0
   -4.7924   -0.2143   -0.7624 N   0  0  0  0  0  0  0  0  0  0  0  0
   -3.5311    0.8266    1.0993 C   0  0  2  0  0  0  0  0  0  0  0  0
   -4.8570    0.2278    0.6240 C   0  0  0  0  0  0  0  0  0  0  0  0
   -6.0472   -0.8306   -1.1715 C   0  0  0  0  0  0  0  0  0  0  0  0
   -2.3531   -0.1373    0.9751 C   0  0  0  0  0  0  0  0  0  0  0  0
    0.8122    1.0237    0.1223 C   0  0  0  0  0  0  0  0  0  0  0  0
    0.0067    0.1259    0.8416 C   0  0  0  0  0  0  0  0  0  0  0  0
    2.0230    0.5634   -0.4478 C   0  0  0  0  0  0  0  0  0  0  0  0
   -6.3570   -2.0362   -0.2888 C   0  0  0  0  0  0  0  0  0  0  0  0
   -5.9595   -1.2346   -2.6398 C   0  0  0  0  0  0  0  0  0  0  0  0
    2.3925   -0.7814   -0.2819 C   0  0  0  0  0  0  0  0  0  0  0  0
    0.3894   -1.2068    0.9965 C   0  0  0  0  0  0  0  0  0  0  0  0
    0.4426    2.3684   -0.0436 C   0  0  0  0  0  0  0  0  0  0  0  0
    1.5800   -1.6595    0.4358 C   0  0  0  0  0  0  0  0  0  0  0  0
    2.8285    1.4613   -1.1669 C   0  0  0  0  0  0  0  0  0  0  0  0
    1.2551    3.2466   -0.7612 C   0  0  0  0  0  0  0  0  0  0  0  0
    2.4458    2.7939   -1.3218 C   0  0  0  0  0  0  0  0  0  0  0  0
   -3.3052    1.7469    0.5469 H   0  0  0  0  0  0  0  0  0  0  0  0
   -5.0824   -0.5934    1.3127 H   0  0  0  0  0  0  0  0  0  0  0  0
   -5.6539    0.9709    0.7555 H   0  0  0  0  0  0  0  0  0  0  0  0
   -6.8661   -0.1055   -1.0795 H   0  0  0  0  0  0  0  0  0  0  0  0
   -2.2415   -0.4749   -0.0624 H   0  0  0  0  0  0  0  0  0  0  0  0
   -2.5120   -1.0089    1.6209 H   0  0  0  0  0  0  0  0  0  0  0  0
   -4.5786    0.5790   -1.3662 H   0  0  0  0  0  0  0  0  0  0  0  0
   -6.7056   -1.7482    0.7079 H   0  0  0  0  0  0  0  0  0  0  0  0
   -5.4899   -2.6982   -0.1821 H   0  0  0  0  0  0  0  0  0  0  0  0
   -7.1650   -2.6319   -0.7301 H   0  0  0  0  0  0  0  0  0  0  0  0
   -5.1653   -1.9711   -2.8067 H   0  0  0  0  0  0  0  0  0  0  0  0
   -6.9032   -1.6762   -2.9779 H   0  0  0  0  0  0  0  0  0  0  0  0
   -5.7551   -0.3663   -3.2764 H   0  0  0  0  0  0  0  0  0  0  0  0
   -0.2254   -1.9029    1.5606 H   0  0  0  0  0  0  0  0  0  0  0  0
   -0.4816    2.7543    0.3811 H   0  0  0  0  0  0  0  0  0  0  0  0
    1.8693   -2.6995    0.5613 H   0  0  0  0  0  0  0  0  0  0  0  0
   -4.3987    1.8424    2.5296 H   0  0  0  0  0  0  0  0  0  0  0  0
    3.7551    1.1421   -1.6374 H   0  0  0  0  0  0  0  0  0  0  0  0
    0.9572    4.2839   -0.8834 H   0  0  0  0  0  0  0  0  0  0  0  0
    3.0754    3.4771   -1.8844 H   0  0  0  0  0  0  0  0  0  0  0  0
    5.8572   -2.5645   -1.4331 H   0  0  0  0  0  0  0  0  0  0  0  0
  1  4  1  0  0  0  0
  1  5  1  0  0  0  0
  1  6  2  0  0  0  0
  1  7  2  0  0  0  0
  2 12  1  0  0  0  0
  2 14  1  0  0  0  0
  3  9  1  0  0  0  0
  3 41  1  0  0  0  0
  4 18  1  0  0  0  0
  5 45  1  0  0  0  0
  8 10  1  0  0  0  0
  8 11  1  0  0  0  0
  8 31  1  0  0  0  0
  9 10  1  0  0  0  0
  9 12  1  0  0  0  0
  9 25  1  0  0  0  0
 10 26  1  0  0  0  0
 10 27  1  0  0  0  0
 11 16  1  0  0  0  0
 11 17  1  0  0  0  0
 11 28  1  0  0  0  0
 12 29  1  0  0  0  0
 12 30  1  0  0  0  0
 13 14  1  0  0  0  0
 13 15  1  0  0  0  0
 13 20  2  0  0  0  0
 14 19  2  0  0  0  0
 15 18  1  0  0  0  0
 15 22  2  0  0  0  0
 16 32  1  0  0  0  0
 16 33  1  0  0  0  0
 16 34  1  0  0  0  0
 17 35  1  0  0  0  0
 17 36  1  0  0  0  0
 17 37  1  0  0  0  0
 18 21  2  0  0  0  0
 19 21  1  0  0  0  0
 19 38  1  0  0  0  0
 20 23  1  0  0  0  0
 20 39  1  0  0  0  0
 21 40  1  0  0  0  0
 22 24  1  0  0  0  0
 22 42  1  0  0  0  0
 23 24  2  0  0  0  0
 23 43  1  0  0  0  0
 24 44  1  0  0  0  0
M  END
> <PUBCHEM_COMPOUND_CID>
135862

> <PUBCHEM_CONFORMER_RMSD>
0.8

> <PUBCHEM_CONFORMER_DIVERSEORDER>
1
158
147
314
289
213
212
175
11
48
227
69
197
264
105
224
293
249
181
305
74
102
301
104
129
124
203
313
36
127
268
76
286
269
202
58
46
247
306
302
106
309
257
310
299
174
185
232
53
138
315
303
206
272
144
52
252
196
261
215
316
298
244
208
193
265
273
78
258
198
8
304
133
140
288
10
123
200
209
176
43
205
165
149
164
271
134
154
201
160
250
308
292
189
12
163
259
235
64
307
143
267
285
139
291
237
118
312
169
219
255
241
159
101
72
218
128
251
35
318
191
274
28
217
161
231
4
187
38
131
277
125
195
37
39
47
283
239
86
256
31
179
311
260
246
89
186
290
103
146
156
80
60
300
50
61
172
57
243
132
157
162
25
137
23
120
26
279
184
63
114
167
85
222
83
90
275
238
115
9
287
210
94
248
24
151
182
67
73
14
98
21
276
229
228
119
188
97
234
34
207
236
294
270
240
178
41
223
192
84
40
71
266
130
22
263
27
296
75
126
45
142
152
95
155
82
51
170
216
242
109
92
204
111
254
136
2
145
183
87
230
3
68
194
168
18
32
56
180
153
81
135
253
220
13
54
6
49
177
122
141
15
70
113
117
148
20
317
116
107
112
173
29
121
171
281
33
282
30
19
211
55
66
17
88
233
59
5
65
245
284
7
190
79
110
93
297
295
42
62
150
262
16
96
166
199
214
225
108
44
221
91
280
99
226
100
77
278

> <PUBCHEM_MMFF94_PARTIAL_CHARGES>
29
1 1.67
10 0.27
11 0.27
12 0.28
14 0.08
18 0.08
19 -0.15
2 -0.36
20 -0.15
21 -0.15
22 -0.15
23 -0.15
24 -0.15
3 -0.68
31 0.36
38 0.15
39 0.15
4 -0.27
40 0.15
41 0.4
42 0.15
43 0.15
44 0.15
45 0.5
5 -0.68
6 -0.65
7 -0.65
8 -0.9
9 0.28

> <PUBCHEM_EFFECTIVE_ROTOR_COUNT>
8

> <PUBCHEM_PHARMACOPHORE_FEATURES>
12
1 2 acceptor
1 3 acceptor
1 3 donor
1 5 acceptor
1 6 acceptor
1 7 acceptor
1 8 cation
1 8 donor
3 11 16 17 hydrophobe
4 1 5 6 7 anion
6 13 14 15 18 19 21 rings
6 13 15 20 22 23 24 rings

> <PUBCHEM_HEAVY_ATOM_COUNT>
24

> <PUBCHEM_ATOM_DEF_STEREO_COUNT>
0

> <PUBCHEM_ATOM_UDEF_STEREO_COUNT>
1

> <PUBCHEM_BOND_DEF_STEREO_COUNT>
0

> <PUBCHEM_BOND_UDEF_STEREO_COUNT>
0

> <PUBCHEM_ISOTOPIC_ATOM_COUNT>
0

> <PUBCHEM_COMPONENT_COUNT>
1

> <PUBCHEM_CACTVS_TAUTO_COUNT>
1

> <PUBCHEM_CONFORMER_ID>
000212B600000001

> <PUBCHEM_MMFF94_ENERGY>
59.5877

> <PUBCHEM_FEATURE_SELFOVERLAP>
60.984

> <PUBCHEM_SHAPE_FINGERPRINT>
10670039 82 14851875933920785887
10928967 22 17058926853091055839
11497681 19 18058454210590976110
11796584 16 15767559056759596269
12166972 35 18342174483621766241
12236239 1 18202848742516057457
12403259 415 16732990855625237185
12616971 3 18340782489669987209
12623949 98 17559687148681417486
13862211 1 18334296418827392210
14251751 18 17060334141695142487
14347329 18 15068612765425505885
14863182 85 17060349517161111182
17349148 13 18341903969348522704
18222031 100 18408604730352261690
20028762 73 18272088271273424718
20612939 158 18260554454031301389
20645477 70 18187087299340796569
21033648 29 16370725972008027229
21315763 191 18059299855375858195
21424621 283 11098152079957389662
21709351 56 18408324359245507925
221357 26 18113329804771411757
22393880 68 17603860157160239459
23402539 116 18337959969600114888
23559900 14 18260552267882327161
23569914 2 15071422223413635855
24771293 8 18411983564266389856
3004659 81 18342446059532315431
3009799 131 17822007606074617584
4015057 19 18260837041958514569
439807 62 18270114764625267679
7471813 234 18413109446270754569
7808743 9 13623529048429549151

> <PUBCHEM_SHAPE_MULTIPOLES>
457.56
14.59
2.8
1.72
15.06
1.62
0.18
-10.01
5.67
-3.03
0.63
2.66
0.05
-2.18

> <PUBCHEM_SHAPE_SELFOVERLAP>
945.108

> <PUBCHEM_SHAPE_VOLUME>
263.8

> <PUBCHEM_COORDINATE_TYPE>
2
5
10

$$$$
