135888
  -OEChem-03292013323D

 35 38  0     1  0  0  0  0  0999 V2000
    3.0350    0.1053    0.8785 O   0  0  0  0  0  0  0  0  0  0  0  0
    3.5266   -1.3487   -1.7248 O   0  0  0  0  0  0  0  0  0  0  0  0
    5.4185    1.3140    1.7371 O   0  0  0  0  0  0  0  0  0  0  0  0
   -3.1377   -2.5382    0.3394 O   0  0  0  0  0  0  0  0  0  0  0  0
    0.8288   -0.4227    0.1682 N   0  0  0  0  0  0  0  0  0  0  0  0
   -0.2096   -2.3911    0.3714 N   0  0  0  0  0  0  0  0  0  0  0  0
   -1.0693    1.0586   -0.0300 N   0  0  0  0  0  0  0  0  0  0  0  0
   -3.1469   -0.1853    0.0746 N   0  0  0  0  0  0  0  0  0  0  0  0
   -3.0164    2.2346   -0.1940 N   0  0  0  0  0  0  0  0  0  0  0  0
    1.9277    0.5421    0.0733 C   0  0  2  0  0  0  0  0  0  0  0  0
    3.7531    0.0131   -1.3745 C   0  0  1  0  0  0  0  0  0  0  0  0
    2.4364    0.7573   -1.3495 C   0  0  0  0  0  0  0  0  0  0  0  0
    4.2254    0.0789    0.0695 C   0  0  1  0  0  0  0  0  0  0  0  0
    5.0327    1.3351    0.3725 C   0  0  0  0  0  0  0  0  0  0  0  0
   -0.5077   -0.1576    0.1156 C   0  0  0  0  0  0  0  0  0  0  0  0
    0.9582   -1.7810    0.3227 C   0  0  0  0  0  0  0  0  0  0  0  0
   -1.1164   -1.3795    0.2423 C   0  0  0  0  0  0  0  0  0  0  0  0
   -2.5526   -1.4666    0.2281 C   0  0  0  0  0  0  0  0  0  0  0  0
   -2.3766    1.0197   -0.0474 C   0  0  0  0  0  0  0  0  0  0  0  0
   -4.5301   -0.0961    0.0417 C   0  0  0  0  0  0  0  0  0  0  0  0
   -5.1718    1.0642   -0.0984 C   0  0  0  0  0  0  0  0  0  0  0  0
   -4.3074    2.2440   -0.2163 C   0  0  0  0  0  0  0  0  0  0  0  0
    1.5549    1.4795    0.5015 H   0  0  0  0  0  0  0  0  0  0  0  0
    2.6223    1.8277   -1.4989 H   0  0  0  0  0  0  0  0  0  0  0  0
    1.7297    0.4248   -2.1165 H   0  0  0  0  0  0  0  0  0  0  0  0
    4.4641    0.4290   -2.0944 H   0  0  0  0  0  0  0  0  0  0  0  0
    4.7923   -0.8097    0.3686 H   0  0  0  0  0  0  0  0  0  0  0  0
    4.4532    2.2490    0.2070 H   0  0  0  0  0  0  0  0  0  0  0  0
    5.9386    1.3774   -0.2393 H   0  0  0  0  0  0  0  0  0  0  0  0
    1.9190   -2.2720    0.3953 H   0  0  0  0  0  0  0  0  0  0  0  0
    4.3851   -1.8045   -1.6942 H   0  0  0  0  0  0  0  0  0  0  0  0
    4.6063    1.2687    2.2702 H   0  0  0  0  0  0  0  0  0  0  0  0
   -5.0897   -1.0201    0.1358 H   0  0  0  0  0  0  0  0  0  0  0  0
   -6.2472    1.1622   -0.1272 H   0  0  0  0  0  0  0  0  0  0  0  0
   -4.8337    3.2049   -0.3325 H   0  0  0  0  0  0  0  0  0  0  0  0
  1 10  1  0  0  0  0
  1 13  1  0  0  0  0
  2 11  1  0  0  0  0
  2 31  1  0  0  0  0
  3 14  1  0  0  0  0
  3 32  1  0  0  0  0
  4 18  2  0  0  0  0
  5 10  1  0  0  0  0
  5 15  1  0  0  0  0
  5 16  1  0  0  0  0
  6 16  2  0  0  0  0
  6 17  1  0  0  0  0
  7 15  1  0  0  0  0
  7 19  2  0  0  0  0
  8 18  1  0  0  0  0
  8 19  1  0  0  0  0
  8 20  1  0  0  0  0
  9 19  1  0  0  0  0
  9 22  2  0  0  0  0
 10 12  1  0  0  0  0
 10 23  1  0  0  0  0
 11 12  1  0  0  0  0
 11 13  1  0  0  0  0
 11 26  1  0  0  0  0
 12 24  1  0  0  0  0
 12 25  1  0  0  0  0
 13 14  1  0  0  0  0
 13 27  1  0  0  0  0
 14 28  1  0  0  0  0
 14 29  1  0  0  0  0
 15 17  2  0  0  0  0
 16 30  1  0  0  0  0
 17 18  1  0  0  0  0
 20 21  2  0  0  0  0
 20 33  1  0  0  0  0
 21 22  1  0  0  0  0
 21 34  1  0  0  0  0
 22 35  1  0  0  0  0
M  END
> <PUBCHEM_COMPOUND_CID>
135888

> <PUBCHEM_CONFORMER_RMSD>
0.6

> <PUBCHEM_CONFORMER_DIVERSEORDER>
6
7
14
11
9
12
15
8
1
2
13
4
3
5
10

> <PUBCHEM_MMFF94_PARTIAL_CHARGES>
27
1 -0.56
10 0.54
11 0.28
13 0.28
14 0.28
15 -0.03
16 0.04
17 0.14
18 0.72
19 0.72
2 -0.68
20 -0.04
21 -0.14
22 0.38
3 -0.68
30 0.15
31 0.4
32 0.4
33 0.15
34 0.15
35 0.06
4 -0.57
5 0.05
6 -0.57
7 -0.58
8 -0.23
9 -0.66

> <PUBCHEM_EFFECTIVE_ROTOR_COUNT>
3

> <PUBCHEM_PHARMACOPHORE_FEATURES>
12
1 1 acceptor
1 2 acceptor
1 2 donor
1 3 acceptor
1 3 donor
1 4 acceptor
1 9 acceptor
3 5 6 16 cation
5 1 10 11 12 13 rings
5 5 6 15 16 17 rings
6 7 8 15 17 18 19 rings
6 8 9 19 20 21 22 rings

> <PUBCHEM_HEAVY_ATOM_COUNT>
22

> <PUBCHEM_ATOM_DEF_STEREO_COUNT>
3

> <PUBCHEM_ATOM_UDEF_STEREO_COUNT>
0

> <PUBCHEM_BOND_DEF_STEREO_COUNT>
0

> <PUBCHEM_BOND_UDEF_STEREO_COUNT>
0

> <PUBCHEM_ISOTOPIC_ATOM_COUNT>
0

> <PUBCHEM_COMPONENT_COUNT>
1

> <PUBCHEM_CACTVS_TAUTO_COUNT>
1

> <PUBCHEM_CONFORMER_ID>
000212D000000006

> <PUBCHEM_MMFF94_ENERGY>
52.298

> <PUBCHEM_FEATURE_SELFOVERLAP>
61.086

> <PUBCHEM_SHAPE_FINGERPRINT>
10319926 262 18339625842292557754
10411042 1 17688591984656137371
10498660 4 18337391535126911389
10646746 165 18411138043691809484
11132069 177 18335144197673035181
12173636 292 18409167692985110071
12236239 1 17530682130334004112
12390115 104 18198637540579765393
12403259 118 17603588513042013221
12403259 415 18272379689167165414
12403814 3 17240480300043238901
12596602 18 17022901306623804216
12616971 3 16660361506407436566
12633257 1 15646773392548929720
12788726 201 17173233249470721114
12916748 109 18408328791171625001
13140716 1 18192158311761744329
13544592 145 18270130024031581886
14251757 17 18131913754066247216
14790565 3 17909837527173908617
15196674 1 18408885105395416139
15375358 24 18201438116700976592
16752209 62 18335703896268031411
17980427 23 18191859227393116940
1813 80 16081641164121966890
18186145 218 18201736032554092010
200 152 15482676753648817346
20510252 161 18341619260192866274
20645477 56 18412547630019426520
20645477 70 16988572260313082526
21033648 29 17988068015718023768
21065201 7 18409454695753457358
212916 134 18337379509487001592
22182313 1 18267890353058301927
23227448 37 18410856602953758629
23366157 5 17679024785868617147
23402539 116 18339917216414640958
23557571 272 18270964664567218930
23559900 14 18342748390711616038
2916195 48 18272923951523203616
350125 39 17973726878622829646
3545911 37 18410016511423783126
474 4 17458634401529960911
495365 180 17775278340609484510
4990 188 18059298660298465655
5104073 3 18262239898504505897
573450 72 18114173172859650074
59755656 215 18337676296101672454
633830 44 18342736273812522940
7064713 232 18260268503772930813
9709674 26 18340496672202161566
9862522 239 17749937861310771165
9981440 41 18260266339536565051

> <PUBCHEM_SHAPE_MULTIPOLES>
404.37
11.09
2.28
1.05
3
0.59
0.17
-5.58
-0.8
-1.95
-0.16
1.73
-0.09
1.03

> <PUBCHEM_SHAPE_SELFOVERLAP>
897.112

> <PUBCHEM_SHAPE_VOLUME>
211.9

> <PUBCHEM_COORDINATE_TYPE>
2
5
10

$$$$
