135804811
  -OEChem-03292013293D

 32 34  0     1  0  0  0  0  0999 V2000
    1.7422    1.8415   -0.1133 S   0  0  0  0  0  0  0  0  0  0  0  0
    2.2500   -2.3791   -0.6471 S   0  0  0  0  0  0  0  0  0  0  0  0
    4.4503    1.1662   -1.6115 O   0  0  0  0  0  0  0  0  0  0  0  0
    4.4192    0.2836    1.9340 O   0  0  0  0  0  0  0  0  0  0  0  0
   -3.0473   -2.5155   -0.2728 O   0  0  0  0  0  0  0  0  0  0  0  0
   -0.7250   -1.1389   -0.2812 N   0  0  0  0  0  0  0  0  0  0  0  0
   -0.9237    1.6976    0.0691 N   0  0  0  0  0  0  0  0  0  0  0  0
   -4.2739   -0.5785    0.0483 N   0  0  0  0  0  0  0  0  0  0  0  0
   -3.2414    1.5302    0.2215 N   0  0  0  0  0  0  0  0  0  0  0  0
   -5.5743    1.3369    0.3716 N   0  0  0  0  0  0  0  0  0  0  0  0
    2.5846    0.3678   -0.3497 C   0  0  0  0  0  0  0  0  0  0  0  0
    4.0622    0.4085   -0.4547 C   0  0  2  0  0  0  0  0  0  0  0  0
    1.7330   -0.7148   -0.4137 C   0  0  0  0  0  0  0  0  0  0  0  0
    0.3692   -0.3311   -0.2671 C   0  0  0  0  0  0  0  0  0  0  0  0
    0.2421    1.0400   -0.0956 C   0  0  0  0  0  0  0  0  0  0  0  0
    4.7532    1.0311    0.7732 C   0  0  0  0  0  0  0  0  0  0  0  0
   -1.8874   -0.4793   -0.1169 C   0  0  0  0  0  0  0  0  0  0  0  0
   -2.0015    0.8901    0.0538 C   0  0  0  0  0  0  0  0  0  0  0  0
   -3.1052   -1.3011   -0.1242 C   0  0  0  0  0  0  0  0  0  0  0  0
   -4.3230    0.8015    0.2153 C   0  0  0  0  0  0  0  0  0  0  0  0
    2.4967   -2.9567    1.0611 C   0  0  0  0  0  0  0  0  0  0  0  0
    4.4720   -0.5985   -0.5859 H   0  0  0  0  0  0  0  0  0  0  0  0
    5.8405    1.0072    0.6380 H   0  0  0  0  0  0  0  0  0  0  0  0
    4.4734    2.0794    0.9228 H   0  0  0  0  0  0  0  0  0  0  0  0
    4.0926    0.7093   -2.3922 H   0  0  0  0  0  0  0  0  0  0  0  0
   -5.1511   -1.0907    0.0527 H   0  0  0  0  0  0  0  0  0  0  0  0
    2.8061   -4.0048    1.0456 H   0  0  0  0  0  0  0  0  0  0  0  0
    1.5652   -2.8714    1.6269 H   0  0  0  0  0  0  0  0  0  0  0  0
    3.2749   -2.3664    1.5512 H   0  0  0  0  0  0  0  0  0  0  0  0
    4.8854    0.6945    2.6818 H   0  0  0  0  0  0  0  0  0  0  0  0
   -5.7066    2.3342    0.4996 H   0  0  0  0  0  0  0  0  0  0  0  0
   -6.4040    0.7538    0.3641 H   0  0  0  0  0  0  0  0  0  0  0  0
  1 11  1  0  0  0  0
  1 15  1  0  0  0  0
  2 13  1  0  0  0  0
  2 21  1  0  0  0  0
  3 12  1  0  0  0  0
  3 25  1  0  0  0  0
  4 16  1  0  0  0  0
  4 30  1  0  0  0  0
  5 19  2  0  0  0  0
  6 14  1  0  0  0  0
  6 17  2  0  0  0  0
  7 15  1  0  0  0  0
  7 18  2  0  0  0  0
  8 19  1  0  0  0  0
  8 20  1  0  0  0  0
  8 26  1  0  0  0  0
  9 18  1  0  0  0  0
  9 20  2  0  0  0  0
 10 20  1  0  0  0  0
 10 31  1  0  0  0  0
 10 32  1  0  0  0  0
 11 12  1  0  0  0  0
 11 13  2  0  0  0  0
 12 16  1  0  0  0  0
 12 22  1  0  0  0  0
 13 14  1  0  0  0  0
 14 15  2  0  0  0  0
 16 23  1  0  0  0  0
 16 24  1  0  0  0  0
 17 18  1  0  0  0  0
 17 19  1  0  0  0  0
 21 27  1  0  0  0  0
 21 28  1  0  0  0  0
 21 29  1  0  0  0  0
M  END
> <PUBCHEM_COMPOUND_CID>
135804811

> <PUBCHEM_CONFORMER_RMSD>
0.6

> <PUBCHEM_CONFORMER_DIVERSEORDER>
1
9
15
12
8
4
14
6
11
10
16
13
5
3
7
2

> <PUBCHEM_MMFF94_PARTIAL_CHARGES>
26
1 -0.08
10 -0.85
11 -0.14
12 0.46
13 0.05
14 0.26
15 0.3
16 0.28
17 0.4
18 0.49
19 0.54
2 -0.28
20 0.56
21 0.23
25 0.4
26 0.37
3 -0.68
30 0.4
31 0.4
32 0.4
4 -0.68
5 -0.57
6 -0.57
7 -0.57
8 -0.49
9 -0.63

> <PUBCHEM_EFFECTIVE_ROTOR_COUNT>
3

> <PUBCHEM_PHARMACOPHORE_FEATURES>
13
1 10 donor
1 21 hydrophobe
1 3 acceptor
1 3 donor
1 4 acceptor
1 4 donor
1 5 acceptor
1 6 acceptor
1 8 donor
3 7 9 18 cation
5 1 11 13 14 15 rings
6 6 7 14 15 17 18 rings
6 8 9 17 18 19 20 rings

> <PUBCHEM_HEAVY_ATOM_COUNT>
21

> <PUBCHEM_ATOM_DEF_STEREO_COUNT>
0

> <PUBCHEM_ATOM_UDEF_STEREO_COUNT>
1

> <PUBCHEM_BOND_DEF_STEREO_COUNT>
0

> <PUBCHEM_BOND_UDEF_STEREO_COUNT>
0

> <PUBCHEM_ISOTOPIC_ATOM_COUNT>
0

> <PUBCHEM_COMPONENT_COUNT>
1

> <PUBCHEM_CACTVS_TAUTO_COUNT>
-1

> <PUBCHEM_CONFORMER_ID>
0818378B00000001

> <PUBCHEM_MMFF94_ENERGY>
45.5196

> <PUBCHEM_FEATURE_SELFOVERLAP>
66.158

> <PUBCHEM_SHAPE_FINGERPRINT>
10062212 137 18335697303492861711
10616163 171 18340773744658097759
10967382 1 18339929225148514183
11132069 177 18413390946916593853
11578080 2 17314780798701090982
12236239 1 18040997380197741204
12403814 3 17821727230662587957
12788726 201 17702956803366694193
12839892 36 18337936966277997746
13140716 1 18267298914380954544
13533116 47 17916307143431893479
13675066 3 17775005747150271436
13760787 19 18409173215933023535
14178342 30 18411130363973883690
14787075 74 17700966910721742728
14790565 3 18265904742416987684
15196674 1 18412267199342215567
15375358 24 18343585148534358647
15442244 35 18267307517136664007
15536298 74 18342460296594501846
15788980 27 16660354883383353716
1601671 61 18411422821408986044
16945 1 18411418431836189508
17349148 13 17966969435146567058
1813 80 17095528361521213046
19784866 9 18409729569122574800
200 152 17632577171552071997
20645477 70 18340492149227026679
21267235 1 18340218500113083383
21421861 104 17968934167899407530
21859007 373 17389929077007016925
23366157 5 18041849394155977550
23402539 116 18411694426212961100
23557571 272 18130241448504208415
23559900 14 18271250426327544590
29717793 49 12035735331838887425
335352 9 18340492179249184156
34934 24 18341891892000829671
350125 39 18339364042308049054
3545911 37 18341900675177320957
4072396 5 18337379487975274024
4340502 62 17313394404864484697
474 4 18040726895604315964
5104073 3 18339931407456215835
59554788 62 17967806133029698486
59755656 215 18271252625709587430
633830 44 18270680986699670684
7364860 26 18271526373808101486
9709674 26 18411708698558623351

> <PUBCHEM_SHAPE_MULTIPOLES>
397.36
9.99
2.56
0.99
4.12
1.76
0.18
-2.71
1.4
-0.63
0.16
-1.41
0.03
-0.56

> <PUBCHEM_SHAPE_SELFOVERLAP>
841.562

> <PUBCHEM_SHAPE_VOLUME>
226

> <PUBCHEM_COORDINATE_TYPE>
2
5
10

$$$$
