135804809
  -OEChem-03292013293D

 36 38  0     1  0  0  0  0  0999 V2000
    4.4586    1.6292    0.0511 P   0  0  0  0  0  0  0  0  0  0  0  0
    1.0378   -0.7863    1.0855 O   0  0  0  0  0  0  0  0  0  0  0  0
   -0.7558   -2.8663   -1.2461 O   0  0  0  0  0  0  0  0  0  0  0  0
    1.2775   -3.7268    0.3964 O   0  0  0  0  0  0  0  0  0  0  0  0
    3.5104    0.4485    0.6241 O   0  0  0  0  0  0  0  0  0  0  0  0
    5.6087    0.8159   -0.7431 O   0  0  0  0  0  0  0  0  0  0  0  0
    3.5791    2.2852   -1.1369 O   0  0  0  0  0  0  0  0  0  0  0  0
   -4.6690    2.7241   -0.3907 O   0  0  0  0  0  0  0  0  0  0  0  0
    4.9631    2.5943    1.0839 O   0  0  0  0  0  0  0  0  0  0  0  0
   -1.1061   -0.0218    0.2042 N   0  0  0  0  0  0  0  0  0  0  0  0
   -0.5694    1.1863   -0.0656 N   0  0  0  0  0  0  0  0  0  0  0  0
   -3.2538   -1.0946    0.4503 N   0  0  0  0  0  0  0  0  0  0  0  0
   -5.0388    0.4770    0.1094 N   0  0  0  0  0  0  0  0  0  0  0  0
    0.2101   -1.9285   -0.8149 C   0  0  2  0  0  0  0  0  0  0  0  0
    1.5199   -2.5724   -0.4063 C   0  0  1  0  0  0  0  0  0  0  0  0
   -0.1957   -1.1991    0.4616 C   0  0  1  0  0  0  0  0  0  0  0  0
    2.1394   -1.5026    0.4840 C   0  0  1  0  0  0  0  0  0  0  0  0
    2.9925   -0.5047   -0.2871 C   0  0  0  0  0  0  0  0  0  0  0  0
   -2.4677   -0.0185    0.2087 C   0  0  0  0  0  0  0  0  0  0  0  0
   -2.8416    1.2744   -0.0765 C   0  0  0  0  0  0  0  0  0  0  0  0
   -1.6383    1.9746   -0.2364 C   0  0  0  0  0  0  0  0  0  0  0  0
   -4.2436    1.6021   -0.1437 C   0  0  0  0  0  0  0  0  0  0  0  0
   -4.5173   -0.7899    0.3880 C   0  0  0  0  0  0  0  0  0  0  0  0
    0.3797   -1.2119   -1.6278 H   0  0  0  0  0  0  0  0  0  0  0  0
    2.1377   -2.8775   -1.2557 H   0  0  0  0  0  0  0  0  0  0  0  0
   -0.7399   -1.8429    1.1628 H   0  0  0  0  0  0  0  0  0  0  0  0
    2.7227   -1.9294    1.3079 H   0  0  0  0  0  0  0  0  0  0  0  0
    2.3927    0.0216   -1.0361 H   0  0  0  0  0  0  0  0  0  0  0  0
    3.8177   -1.0213   -0.7868 H   0  0  0  0  0  0  0  0  0  0  0  0
   -0.3722   -3.3574   -1.9924 H   0  0  0  0  0  0  0  0  0  0  0  0
    2.1425   -4.0826    0.6627 H   0  0  0  0  0  0  0  0  0  0  0  0
   -1.4844    3.0186   -0.4684 H   0  0  0  0  0  0  0  0  0  0  0  0
   -5.3004   -1.5448    0.5585 H   0  0  0  0  0  0  0  0  0  0  0  0
   -6.0482    0.5910    0.0884 H   0  0  0  0  0  0  0  0  0  0  0  0
    3.9223    3.0799   -1.5982 H   0  0  0  0  0  0  0  0  0  0  0  0
    6.3705    1.3109   -1.1130 H   0  0  0  0  0  0  0  0  0  0  0  0
  1  5  1  0  0  0  0
  1  6  1  0  0  0  0
  1  7  1  0  0  0  0
  1  9  2  0  0  0  0
  2 16  1  0  0  0  0
  2 17  1  0  0  0  0
  3 14  1  0  0  0  0
  3 30  1  0  0  0  0
  4 15  1  0  0  0  0
  4 31  1  0  0  0  0
  5 18  1  0  0  0  0
  6 36  1  0  0  0  0
  7 35  1  0  0  0  0
  8 22  2  0  0  0  0
 10 11  1  0  0  0  0
 10 16  1  0  0  0  0
 10 19  1  0  0  0  0
 11 21  2  0  0  0  0
 12 19  1  0  0  0  0
 12 23  2  0  0  0  0
 13 22  1  0  0  0  0
 13 23  1  0  0  0  0
 13 34  1  0  0  0  0
 14 15  1  0  0  0  0
 14 16  1  0  0  0  0
 14 24  1  0  0  0  0
 15 17  1  0  0  0  0
 15 25  1  0  0  0  0
 16 26  1  0  0  0  0
 17 18  1  0  0  0  0
 17 27  1  0  0  0  0
 18 28  1  0  0  0  0
 18 29  1  0  0  0  0
 19 20  2  0  0  0  0
 20 21  1  0  0  0  0
 20 22  1  0  0  0  0
 21 32  1  0  0  0  0
 23 33  1  0  0  0  0
M  END
> <PUBCHEM_COMPOUND_CID>
135804809

> <PUBCHEM_CONFORMER_RMSD>
0.8

> <PUBCHEM_CONFORMER_DIVERSEORDER>
1
102
96
62
9
67
63
13
78
34
93
74
64
28
25
114
80
38
65
17
73
115
23
51
21
58
42
82
50
55
35
3
7
81
56
107
26
20
90
72
83
112
22
16
41
95
113
18
60
27
100
37
54
94
103
77
48
52
76
31
88
46
2
85
86
44
8
89
105
91
29
33
10
61
15
101
97
19
108
11
45
116
40
43
68
109
106
87
30
66
6
14
57
70
99
39
84
79
53
4
59
47
111
98
5
92
12
49
69
104
75
24
71
110
32
36

> <PUBCHEM_MMFF94_PARTIAL_CHARGES>
30
1 1.51
10 0.31
11 -0.71
12 -0.58
13 -0.49
14 0.28
15 0.28
16 0.54
17 0.28
18 0.28
19 -0.03
2 -0.56
20 -0.09
21 0.14
22 0.72
23 0.45
3 -0.68
30 0.4
31 0.4
32 0.15
33 0.06
34 0.37
35 0.5
36 0.5
4 -0.68
5 -0.55
6 -0.77
7 -0.77
8 -0.57
9 -0.7

> <PUBCHEM_EFFECTIVE_ROTOR_COUNT>
5

> <PUBCHEM_PHARMACOPHORE_FEATURES>
15
1 11 acceptor
1 13 donor
1 2 acceptor
1 3 acceptor
1 3 donor
1 4 acceptor
1 4 donor
1 6 acceptor
1 7 acceptor
1 8 acceptor
1 9 acceptor
4 1 6 7 9 anion
5 10 11 19 20 21 rings
5 2 14 15 16 17 rings
6 12 13 19 20 22 23 rings

> <PUBCHEM_HEAVY_ATOM_COUNT>
23

> <PUBCHEM_ATOM_DEF_STEREO_COUNT>
3

> <PUBCHEM_ATOM_UDEF_STEREO_COUNT>
1

> <PUBCHEM_BOND_DEF_STEREO_COUNT>
0

> <PUBCHEM_BOND_UDEF_STEREO_COUNT>
0

> <PUBCHEM_ISOTOPIC_ATOM_COUNT>
0

> <PUBCHEM_COMPONENT_COUNT>
1

> <PUBCHEM_CACTVS_TAUTO_COUNT>
-1

> <PUBCHEM_CONFORMER_ID>
0818378900000001

> <PUBCHEM_MMFF94_ENERGY>
18.4246

> <PUBCHEM_FEATURE_SELFOVERLAP>
76.297

> <PUBCHEM_SHAPE_FINGERPRINT>
10090160 65 18261106404726594655
10498660 4 18412266116520119352
10871710 139 18196648725201537487
11578080 2 16516790465050069023
11796584 16 10735886040508433272
12173636 292 18267861868982446350
12403259 118 18335687326352294826
13583140 156 17242708932323638538
14123255 52 18412542137162261356
14341114 328 17240762917196634432
14528608 73 18413385427989152677
1454969 45 18340486794115003807
14787075 74 18272086158064469019
14790565 3 18340210785930261817
15196674 1 18408604738356685585
15375358 24 18266175029377749755
15961568 22 18041000609264523453
1813 80 13398629429277260674
19591789 44 18123470737578705521
21524375 3 18412548725827086634
22113638 7 18263362662943700172
22620623 9 16915373527434488446
23227448 37 18127126596656117668
23559900 14 18122620544486714323
2838139 119 18412537734931871212
350125 39 18336827490452363846
43658 37 18413668015636595480
474 4 18113343015721431716
5104073 3 18189058603667601273
67856867 119 18263637386009840034
7808743 9 18194959875974367104
9709674 26 18052539864229868703
9981440 41 18333733545666502538

> <PUBCHEM_SHAPE_MULTIPOLES>
410.3
10.56
3.53
0.89
1.8
1.28
0.05
-8.88
-0.17
1.66
0.42
0.5
0.07
0.38

> <PUBCHEM_SHAPE_SELFOVERLAP>
866.745

> <PUBCHEM_SHAPE_VOLUME>
231.6

> <PUBCHEM_COORDINATE_TYPE>
2
5
10

$$$$
