135926594
  -OEChem-03292013293D

 53 56  0     1  0  0  0  0  0999 V2000
   -4.5934   -2.4659    0.3227 O   0  0  0  0  0  0  0  0  0  0  0  0
    3.9505   -1.1910    1.3807 O   0  0  0  0  0  0  0  0  0  0  0  0
    6.1216    2.2212   -1.6658 O   0  5  0  0  0  0  0  0  0  0  0  0
    7.1719    2.0271    0.3520 O   0  0  0  0  0  0  0  0  0  0  0  0
    9.3757   -1.3035    0.0565 O   0  5  0  0  0  0  0  0  0  0  0  0
    7.4091   -2.3577    0.5432 O   0  0  0  0  0  0  0  0  0  0  0  0
   -4.1529    0.3938    0.3288 N   0  3  0  0  0  0  0  0  0  0  0  0
   -1.9893    0.7966    0.6075 N   0  0  0  0  0  0  0  0  0  0  0  0
   -6.2375    1.9373   -0.3887 N   0  0  0  0  0  0  0  0  0  0  0  0
   -7.6417    0.0090   -0.7017 N   0  0  0  0  0  0  0  0  0  0  0  0
   -6.7308   -2.1347   -0.4325 N   0  0  0  0  0  0  0  0  0  0  0  0
    4.2969    0.4653   -0.2048 N   0  0  0  0  0  0  0  0  0  0  0  0
   -8.9556   -1.8907   -1.0852 N   0  0  0  0  0  0  0  0  0  0  0  0
   -4.1091    1.8200    0.7186 C   0  0  1  0  0  0  0  0  0  0  0  0
   -2.6054    2.1342    0.7251 C   0  0  0  0  0  0  0  0  0  0  0  0
   -4.9528    2.6041   -0.2703 C   0  0  0  0  0  0  0  0  0  0  0  0
   -2.9301   -0.0975    0.3495 C   0  0  0  0  0  0  0  0  0  0  0  0
   -5.3446   -0.2196   -0.0225 C   0  0  0  0  0  0  0  0  0  0  0  0
   -6.4147    0.5501   -0.3608 C   0  0  0  0  0  0  0  0  0  0  0  0
   -0.6710    0.5346    0.6185 C   0  0  0  0  0  0  0  0  0  0  0  0
   -5.4849   -1.7016   -0.0288 C   0  0  0  0  0  0  0  0  0  0  0  0
   -0.2158   -0.7362    0.9700 C   0  0  0  0  0  0  0  0  0  0  0  0
    0.2417    1.5329    0.2777 C   0  0  0  0  0  0  0  0  0  0  0  0
   -7.7763   -1.2846   -0.7416 C   0  0  0  0  0  0  0  0  0  0  0  0
    1.1521   -1.0086    0.9807 C   0  0  0  0  0  0  0  0  0  0  0  0
    1.6095    1.2604    0.2885 C   0  0  0  0  0  0  0  0  0  0  0  0
    2.0648   -0.0105    0.6398 C   0  0  0  0  0  0  0  0  0  0  0  0
    5.7262    0.2864   -0.3248 C   0  0  1  0  0  0  0  0  0  0  0  0
    3.4911   -0.2945    0.6510 C   0  0  0  0  0  0  0  0  0  0  0  0
    6.0630   -0.7637   -1.3932 C   0  0  0  0  0  0  0  0  0  0  0  0
    7.5489   -1.1202   -1.4547 C   0  0  0  0  0  0  0  0  0  0  0  0
    6.4049    1.6448   -0.5793 C   0  0  0  0  0  0  0  0  0  0  0  0
    8.1778   -1.6371   -0.1564 C   0  0  0  0  0  0  0  0  0  0  0  0
   -4.5160    1.9024    1.7351 H   0  0  0  0  0  0  0  0  0  0  0  0
   -2.3228    2.7547   -0.1315 H   0  0  0  0  0  0  0  0  0  0  0  0
   -2.2991    2.6149    1.6596 H   0  0  0  0  0  0  0  0  0  0  0  0
   -5.0895    3.6367    0.0657 H   0  0  0  0  0  0  0  0  0  0  0  0
   -4.4786    2.6303   -1.2581 H   0  0  0  0  0  0  0  0  0  0  0  0
   -2.7086   -1.1207    0.1060 H   0  0  0  0  0  0  0  0  0  0  0  0
   -7.0433    2.4795   -0.6824 H   0  0  0  0  0  0  0  0  0  0  0  0
   -0.8967   -1.5296    1.2643 H   0  0  0  0  0  0  0  0  0  0  0  0
   -0.0793    2.5324    0.0008 H   0  0  0  0  0  0  0  0  0  0  0  0
   -6.8985   -3.1357   -0.4701 H   0  0  0  0  0  0  0  0  0  0  0  0
    1.4866   -2.0048    1.2585 H   0  0  0  0  0  0  0  0  0  0  0  0
    2.2865    2.0742    0.0456 H   0  0  0  0  0  0  0  0  0  0  0  0
    6.0741   -0.0789    0.6490 H   0  0  0  0  0  0  0  0  0  0  0  0
    5.4841   -1.6763   -1.2003 H   0  0  0  0  0  0  0  0  0  0  0  0
    5.7439   -0.4086   -2.3815 H   0  0  0  0  0  0  0  0  0  0  0  0
    3.8693    1.1246   -0.8467 H   0  0  0  0  0  0  0  0  0  0  0  0
   -9.7760   -1.3450   -1.3254 H   0  0  0  0  0  0  0  0  0  0  0  0
   -9.0440   -2.9007   -1.1096 H   0  0  0  0  0  0  0  0  0  0  0  0
    7.6941   -1.8992   -2.2134 H   0  0  0  0  0  0  0  0  0  0  0  0
    8.1176   -0.2463   -1.7959 H   0  0  0  0  0  0  0  0  0  0  0  0
  1 21  2  0  0  0  0
  2 29  2  0  0  0  0
  3 32  1  0  0  0  0
  4 32  2  0  0  0  0
  5 33  1  0  0  0  0
  6 33  2  0  0  0  0
  7 14  1  0  0  0  0
  7 17  2  0  0  0  0
  7 18  1  0  0  0  0
  8 15  1  0  0  0  0
  8 17  1  0  0  0  0
  8 20  1  0  0  0  0
  9 16  1  0  0  0  0
  9 19  1  0  0  0  0
  9 40  1  0  0  0  0
 10 19  1  0  0  0  0
 10 24  2  0  0  0  0
 11 21  1  0  0  0  0
 11 24  1  0  0  0  0
 11 43  1  0  0  0  0
 12 28  1  0  0  0  0
 12 29  1  0  0  0  0
 12 49  1  0  0  0  0
 13 24  1  0  0  0  0
 13 50  1  0  0  0  0
 13 51  1  0  0  0  0
 14 15  1  0  0  0  0
 14 16  1  0  0  0  0
 14 34  1  0  0  0  0
 15 35  1  0  0  0  0
 15 36  1  0  0  0  0
 16 37  1  0  0  0  0
 16 38  1  0  0  0  0
 17 39  1  0  0  0  0
 18 19  2  0  0  0  0
 18 21  1  0  0  0  0
 20 22  2  0  0  0  0
 20 23  1  0  0  0  0
 22 25  1  0  0  0  0
 22 41  1  0  0  0  0
 23 26  2  0  0  0  0
 23 42  1  0  0  0  0
 25 27  2  0  0  0  0
 25 44  1  0  0  0  0
 26 27  1  0  0  0  0
 26 45  1  0  0  0  0
 27 29  1  0  0  0  0
 28 30  1  0  0  0  0
 28 32  1  0  0  0  0
 28 46  1  0  0  0  0
 30 31  1  0  0  0  0
 30 47  1  0  0  0  0
 30 48  1  0  0  0  0
 31 33  1  0  0  0  0
 31 52  1  0  0  0  0
 31 53  1  0  0  0  0
M  CHG  3   3  -1   5  -1   7   1
M  END
> <PUBCHEM_COMPOUND_CID>
135926594

> <PUBCHEM_CONFORMER_RMSD>
1

> <PUBCHEM_CONFORMER_DIVERSEORDER>
2
35
26
8
33
31
14
6
34
13
36
9
1
19
4
23
37
3
32
17
22
10
20
29
5
7
30
28
16
24
25
11
18
27
21
15
12

> <PUBCHEM_MMFF94_PARTIAL_CHARGES>
42
1 -0.57
10 -0.62
11 -0.49
12 -0.73
13 -0.85
14 0.49
15 0.49
16 0.37
17 0.56
18 0.36
19 0.27
2 -0.57
20 0.35
21 0.62
22 -0.15
23 -0.15
24 0.56
25 -0.15
26 -0.15
27 0.09
28 0.19
29 0.54
3 -0.9
31 -0.11
32 0.91
33 0.91
39 0.15
4 -0.9
40 0.4
41 0.15
42 0.15
43 0.37
44 0.15
45 0.15
49 0.37
5 -0.9
50 0.4
51 0.4
6 -0.9
7 -0.68
8 -0.69
9 -0.87

> <PUBCHEM_EFFECTIVE_ROTOR_COUNT>
8.8

> <PUBCHEM_PHARMACOPHORE_FEATURES>
18
1 1 acceptor
1 11 donor
1 12 donor
1 13 donor
1 2 acceptor
1 3 acceptor
1 4 acceptor
1 5 acceptor
1 6 acceptor
1 9 cation
1 9 donor
3 3 4 32 anion
3 5 6 33 anion
3 7 8 17 cation
5 7 8 14 15 17 rings
6 10 11 18 19 21 24 rings
6 20 22 23 25 26 27 rings
6 7 9 14 16 18 19 rings

> <PUBCHEM_HEAVY_ATOM_COUNT>
33

> <PUBCHEM_ATOM_DEF_STEREO_COUNT>
2

> <PUBCHEM_ATOM_UDEF_STEREO_COUNT>
0

> <PUBCHEM_BOND_DEF_STEREO_COUNT>
0

> <PUBCHEM_BOND_UDEF_STEREO_COUNT>
0

> <PUBCHEM_ISOTOPIC_ATOM_COUNT>
0

> <PUBCHEM_COMPONENT_COUNT>
1

> <PUBCHEM_CACTVS_TAUTO_COUNT>
-1

> <PUBCHEM_CONFORMER_ID>
081A134200000002

> <PUBCHEM_MMFF94_ENERGY>
108.5274

> <PUBCHEM_FEATURE_SELFOVERLAP>
91.642

> <PUBCHEM_SHAPE_FINGERPRINT>
10162869 55 18334575742547538502
10595046 47 18334572417662570393
10669705 176 18335137570739022605
11007060 377 18187370947528657761
11181472 205 13262668198179460732
11408170 132 17676759881855906844
11524674 6 16056879161368078759
12082328 90 18343580729261314381
13673619 4 16415480449912179233
13692114 37 18408599267666324570
13782708 43 16917349220916772126
13811026 1 18342740715135786830
14931854 50 18261103081118207403
15064986 266 18186525393839641673
15183329 4 18261114045794823554
15352257 5 17132117943793515310
15510794 2 17846492630001839105
1577012 14 18114178593256421481
18335252 114 16732708246924723846
18681886 176 18340761641688008777
20105231 36 18334863853307341867
2026 5 17775291512641744798
21150785 3 18334856147381228925
21267235 1 18412545445009720547
21315763 28 18411700967923237540
21781051 124 17632861932231713374
23559900 14 18340762754179724425
23576562 1 16878800442195003479
3004659 81 18261946440996404097
3178227 256 14836403640443196854
335352 9 18186809063629075150
4339292 15 17775273977022796279
4625314 4 18410011026867162453
504579 68 17894911815202036258
504843 32 14924237053134012153
5104073 3 10591747801812436015
54039377 194 18336831979162946547
58902169 19 17894919537436930782
636775 8 18334297600545096931
9831232 110 18200318702575137982
99344 41 18338237060075112230
9962374 69 16844995905501095380

> <PUBCHEM_SHAPE_MULTIPOLES>
609.04
29.75
2.59
1.1
16.48
0.25
-0.16
-12.53
-10.56
-1.26
-0.2
1.01
-0.08
-1.34

> <PUBCHEM_SHAPE_SELFOVERLAP>
1325.094

> <PUBCHEM_SHAPE_VOLUME>
327.3

> <PUBCHEM_COORDINATE_TYPE>
2
5
10

$$$$
