135915640
  -OEChem-03292013293D

 27 28  0     0  0  0  0  0  0999 V2000
    4.9197   -1.7656    0.2614 O   0  0  0  0  0  0  0  0  0  0  0  0
    3.3775    2.5638    0.3999 O   0  0  0  0  0  0  0  0  0  0  0  0
   -5.9049   -0.2749    0.6090 O   0  0  0  0  0  0  0  0  0  0  0  0
    1.8736    0.8984   -0.0927 N   0  0  0  0  0  0  0  0  0  0  0  0
    4.1277    0.3917    0.3248 N   0  0  0  0  0  0  0  0  0  0  0  0
   -0.5286    0.3079   -0.6590 N   0  0  0  0  0  0  0  0  0  0  0  0
    0.3114   -0.7425   -0.5944 N   0  0  0  0  0  0  0  0  0  0  0  0
    2.5993   -1.4466   -0.1896 C   0  0  0  0  0  0  0  0  0  0  0  0
    1.5247   -0.4101   -0.3049 C   0  0  0  0  0  0  0  0  0  0  0  0
    3.9838   -0.9738    0.1498 C   0  0  0  0  0  0  0  0  0  0  0  0
   -1.8875    0.1604   -0.3399 C   0  0  0  0  0  0  0  0  0  0  0  0
    3.1415    1.3673    0.2227 C   0  0  0  0  0  0  0  0  0  0  0  0
   -2.7448    1.2583   -0.4143 C   0  0  0  0  0  0  0  0  0  0  0  0
   -2.3805   -1.0839    0.0531 C   0  0  0  0  0  0  0  0  0  0  0  0
   -4.0947    1.1120   -0.0955 C   0  0  0  0  0  0  0  0  0  0  0  0
   -3.7306   -1.2303    0.3719 C   0  0  0  0  0  0  0  0  0  0  0  0
   -4.5876   -0.1323    0.2976 C   0  0  0  0  0  0  0  0  0  0  0  0
    2.2901   -2.1645    0.5790 H   0  0  0  0  0  0  0  0  0  0  0  0
    2.6506   -1.9827   -1.1444 H   0  0  0  0  0  0  0  0  0  0  0  0
    1.1544    1.6109   -0.1349 H   0  0  0  0  0  0  0  0  0  0  0  0
    5.0616    0.7200    0.5549 H   0  0  0  0  0  0  0  0  0  0  0  0
   -0.2450    1.1757   -1.0977 H   0  0  0  0  0  0  0  0  0  0  0  0
   -2.3729    2.2334   -0.7185 H   0  0  0  0  0  0  0  0  0  0  0  0
   -1.7420   -1.9604    0.1226 H   0  0  0  0  0  0  0  0  0  0  0  0
   -4.7576    1.9710   -0.1551 H   0  0  0  0  0  0  0  0  0  0  0  0
   -4.1026   -2.2048    0.6770 H   0  0  0  0  0  0  0  0  0  0  0  0
   -6.0711   -1.2001    0.8590 H   0  0  0  0  0  0  0  0  0  0  0  0
  1 10  2  0  0  0  0
  2 12  2  0  0  0  0
  3 17  1  0  0  0  0
  3 27  1  0  0  0  0
  4  9  1  0  0  0  0
  4 12  1  0  0  0  0
  4 20  1  0  0  0  0
  5 10  1  0  0  0  0
  5 12  1  0  0  0  0
  5 21  1  0  0  0  0
  6  7  1  0  0  0  0
  6 11  1  0  0  0  0
  6 22  1  0  0  0  0
  7  9  2  0  0  0  0
  8  9  1  0  0  0  0
  8 10  1  0  0  0  0
  8 18  1  0  0  0  0
  8 19  1  0  0  0  0
 11 13  2  0  0  0  0
 11 14  1  0  0  0  0
 13 15  1  0  0  0  0
 13 23  1  0  0  0  0
 14 16  2  0  0  0  0
 14 24  1  0  0  0  0
 15 17  2  0  0  0  0
 15 25  1  0  0  0  0
 16 17  1  0  0  0  0
 16 26  1  0  0  0  0
M  END
> <PUBCHEM_COMPOUND_CID>
135915640

> <PUBCHEM_CONFORMER_RMSD>
0.6

> <PUBCHEM_CONFORMER_DIVERSEORDER>
1
3
4
2
9
8
7
6
5

> <PUBCHEM_MMFF94_PARTIAL_CHARGES>
25
1 -0.57
10 0.57
11 0.1
12 0.69
13 -0.15
14 -0.15
15 -0.15
16 -0.15
17 0.08
2 -0.57
20 0.37
21 0.37
22 0.4
23 0.15
24 0.15
25 0.15
26 0.15
27 0.45
3 -0.53
4 -0.49
5 -0.49
6 -0.46
7 -0.49
8 0.12
9 0.45

> <PUBCHEM_EFFECTIVE_ROTOR_COUNT>
2.6

> <PUBCHEM_PHARMACOPHORE_FEATURES>
8
1 1 acceptor
1 2 acceptor
1 3 donor
1 4 donor
1 5 donor
1 6 donor
6 11 13 14 15 16 17 rings
6 4 5 8 9 10 12 rings

> <PUBCHEM_HEAVY_ATOM_COUNT>
17

> <PUBCHEM_ATOM_DEF_STEREO_COUNT>
0

> <PUBCHEM_ATOM_UDEF_STEREO_COUNT>
0

> <PUBCHEM_BOND_DEF_STEREO_COUNT>
1

> <PUBCHEM_BOND_UDEF_STEREO_COUNT>
0

> <PUBCHEM_ISOTOPIC_ATOM_COUNT>
0

> <PUBCHEM_COMPONENT_COUNT>
1

> <PUBCHEM_CACTVS_TAUTO_COUNT>
-1

> <PUBCHEM_CONFORMER_ID>
0819E87800000001

> <PUBCHEM_MMFF94_ENERGY>
52.7052

> <PUBCHEM_FEATURE_SELFOVERLAP>
40.654

> <PUBCHEM_SHAPE_FINGERPRINT>
10354089 29 18343020004285237136
10608611 8 18410007723873521645
11405975 8 18410575076173429939
12107183 9 17762338011603826523
12251169 10 18412825776438758935
12507557 5 18342452621503722728
12507560 40 18408038507201380541
12616971 3 17917425436867044877
13081056 2 18410292514696730053
13167823 11 18411133653961329111
13533116 47 18334294253821100587
13675066 3 18113621200937615047
14341114 176 18409735057895665072
14866123 147 16684292037858359186
15196674 1 18410292514807590757
15880784 105 18339648931689087771
17834072 33 18272086132426553711
1813 80 16660363683876871412
18186145 218 17894904127009758934
18222031 100 16443066114379361799
19050596 39 18413106182037132567
19433438 28 18259984860106338313
200 152 18131344207528082607
20645477 56 18042403531079068405
20645477 70 18342458119093705118
21065198 57 18409448081092111511
21065199 12 18408322206997335729
21065201 7 17458057153767600345
21267235 1 18410019805532090142
21652331 79 18412544340280517845
22854114 59 18413389856042224013
23402539 116 18412820275434693143
23559900 14 18335136500965040104
26918003 58 18412261718547234003
351380 180 18410854356638168859
3545911 37 18410858784454162356
42 15 18334014973419372391
4214541 1 18409448046980435909
5104073 3 18410578400831486947
5374978 207 18409167722949394177
542803 24 16845291631358512131
5924683 9 18200306749459723631
77779 3 18410011048093487717
9709674 26 18261678189422579739

> <PUBCHEM_SHAPE_MULTIPOLES>
312.32
11.73
1.82
0.7
3.37
0.57
0.02
-1.11
-2.37
-1.77
-0.16
0.14
0
0.52

> <PUBCHEM_SHAPE_SELFOVERLAP>
665.881

> <PUBCHEM_SHAPE_VOLUME>
170.2

> <PUBCHEM_COORDINATE_TYPE>
2
5
10

$$$$
