135991838
  -OEChem-03292013293D

 41 43  0     1  0  0  0  0  0999 V2000
   -2.7310    0.0395   -2.5918 O   0  0  0  0  0  0  0  0  0  0  0  0
   -0.9188   -3.1627   -1.1548 O   0  0  0  0  0  0  0  0  0  0  0  0
    6.9055    0.4556   -1.0689 O   0  0  0  0  0  0  0  0  0  0  0  0
    6.5042    2.1708    0.3676 O   0  0  0  0  0  0  0  0  0  0  0  0
   -1.9655   -1.3291   -0.1222 N   0  0  0  0  0  0  0  0  0  0  0  0
   -2.9387   -0.1361    2.1622 N   0  0  0  0  0  0  0  0  0  0  0  0
    1.0217   -1.1871    0.3938 N   0  0  0  0  0  0  0  0  0  0  0  0
   -4.2132    1.4292    0.8939 N   0  0  0  0  0  0  0  0  0  0  0  0
   -4.2187    1.3225   -1.4401 N   0  0  0  0  0  0  0  0  0  0  0  0
   -5.5481    2.8949   -0.3527 N   0  0  0  0  0  0  0  0  0  0  0  0
   -1.2524   -1.5513    1.1574 C   0  0  2  0  0  0  0  0  0  0  0  0
   -2.1938   -1.3562    2.3447 C   0  0  0  0  0  0  0  0  0  0  0  0
   -0.0086   -0.6597    1.2453 C   0  0  0  0  0  0  0  0  0  0  0  0
   -2.8548   -0.2418   -0.2005 C   0  0  0  0  0  0  0  0  0  0  0  0
   -3.3323    0.3620    0.9247 C   0  0  0  0  0  0  0  0  0  0  0  0
   -3.2556    0.3400   -1.5242 C   0  0  0  0  0  0  0  0  0  0  0  0
   -1.6931   -2.2094   -1.1693 C   0  0  0  0  0  0  0  0  0  0  0  0
    2.2776   -0.6107    0.2467 C   0  0  0  0  0  0  0  0  0  0  0  0
   -4.6494    1.8666   -0.2488 C   0  0  0  0  0  0  0  0  0  0  0  0
    2.5996    0.5504    0.9495 C   0  0  0  0  0  0  0  0  0  0  0  0
    3.2161   -1.1936   -0.6047 C   0  0  0  0  0  0  0  0  0  0  0  0
    3.8602    1.1285    0.8008 C   0  0  0  0  0  0  0  0  0  0  0  0
    4.4767   -0.6155   -0.7535 C   0  0  0  0  0  0  0  0  0  0  0  0
    4.7989    0.5455   -0.0506 C   0  0  0  0  0  0  0  0  0  0  0  0
    6.1134    1.1477   -0.2045 C   0  0  0  0  0  0  0  0  0  0  0  0
   -0.9233   -2.5988    1.1969 H   0  0  0  0  0  0  0  0  0  0  0  0
   -2.9047   -2.1900    2.3915 H   0  0  0  0  0  0  0  0  0  0  0  0
   -1.6512   -1.3368    3.2955 H   0  0  0  0  0  0  0  0  0  0  0  0
    0.3532   -0.6541    2.2807 H   0  0  0  0  0  0  0  0  0  0  0  0
   -0.2526    0.3716    0.9639 H   0  0  0  0  0  0  0  0  0  0  0  0
   -3.3438    0.3184    2.9738 H   0  0  0  0  0  0  0  0  0  0  0  0
    0.8424   -2.0384   -0.1274 H   0  0  0  0  0  0  0  0  0  0  0  0
   -2.3117   -2.0447   -2.0580 H   0  0  0  0  0  0  0  0  0  0  0  0
   -4.5608    1.7302   -2.3051 H   0  0  0  0  0  0  0  0  0  0  0  0
    1.8995    1.0361    1.6227 H   0  0  0  0  0  0  0  0  0  0  0  0
    2.9775   -2.0983   -1.1584 H   0  0  0  0  0  0  0  0  0  0  0  0
    4.0923    2.0329    1.3572 H   0  0  0  0  0  0  0  0  0  0  0  0
    5.1770   -1.1022   -1.4265 H   0  0  0  0  0  0  0  0  0  0  0  0
   -5.9149    3.3571    0.4722 H   0  0  0  0  0  0  0  0  0  0  0  0
   -5.8733    3.2245   -1.2550 H   0  0  0  0  0  0  0  0  0  0  0  0
    7.7895    0.8698   -1.1653 H   0  0  0  0  0  0  0  0  0  0  0  0
  1 16  2  0  0  0  0
  2 17  2  0  0  0  0
  3 25  1  0  0  0  0
  3 41  1  0  0  0  0
  4 25  2  0  0  0  0
  5 11  1  0  0  0  0
  5 14  1  0  0  0  0
  5 17  1  0  0  0  0
  6 12  1  0  0  0  0
  6 15  1  0  0  0  0
  6 31  1  0  0  0  0
  7 13  1  0  0  0  0
  7 18  1  0  0  0  0
  7 32  1  0  0  0  0
  8 15  1  0  0  0  0
  8 19  2  0  0  0  0
  9 16  1  0  0  0  0
  9 19  1  0  0  0  0
  9 34  1  0  0  0  0
 10 19  1  0  0  0  0
 10 39  1  0  0  0  0
 10 40  1  0  0  0  0
 11 12  1  0  0  0  0
 11 13  1  0  0  0  0
 11 26  1  0  0  0  0
 12 27  1  0  0  0  0
 12 28  1  0  0  0  0
 13 29  1  0  0  0  0
 13 30  1  0  0  0  0
 14 15  2  0  0  0  0
 14 16  1  0  0  0  0
 17 33  1  0  0  0  0
 18 20  2  0  0  0  0
 18 21  1  0  0  0  0
 20 22  1  0  0  0  0
 20 35  1  0  0  0  0
 21 23  2  0  0  0  0
 21 36  1  0  0  0  0
 22 24  2  0  0  0  0
 22 37  1  0  0  0  0
 23 24  1  0  0  0  0
 23 38  1  0  0  0  0
 24 25  1  0  0  0  0
M  END
> <PUBCHEM_COMPOUND_CID>
135991838

> <PUBCHEM_CONFORMER_RMSD>
0.8

> <PUBCHEM_CONFORMER_DIVERSEORDER>
1
43
29
15
17
32
53
68
3
66
34
13
35
47
69
22
67
55
63
33
62
42
38
70
21
4
10
19
74
14
57
45
31
60
58
41
30
8
48
36
26
18
37
73
20
49
54
51
12
59
46
23
25
65
2
16
6
50
39
5
44
40
24
9
52
71
61
27
28
56
11
72
7
64

> <PUBCHEM_MMFF94_PARTIAL_CHARGES>
36
1 -0.57
10 -0.85
11 0.3
12 0.37
13 0.37
14 0.12
15 0.27
16 0.62
17 0.57
18 0.1
19 0.56
2 -0.57
20 -0.15
21 -0.15
22 -0.15
23 -0.15
24 0.09
25 0.63
3 -0.65
31 0.4
32 0.4
33 0.06
34 0.37
35 0.15
36 0.15
37 0.15
38 0.15
39 0.4
4 -0.57
40 0.4
41 0.5
5 -0.47
6 -0.87
7 -0.87
8 -0.62
9 -0.49

> <PUBCHEM_EFFECTIVE_ROTOR_COUNT>
5.8

> <PUBCHEM_PHARMACOPHORE_FEATURES>
14
1 1 acceptor
1 10 donor
1 2 acceptor
1 3 acceptor
1 4 acceptor
1 6 cation
1 6 donor
1 7 cation
1 7 donor
1 9 donor
3 3 4 25 anion
6 18 20 21 22 23 24 rings
6 5 6 11 12 14 15 rings
6 8 9 14 15 16 19 rings

> <PUBCHEM_HEAVY_ATOM_COUNT>
25

> <PUBCHEM_ATOM_DEF_STEREO_COUNT>
0

> <PUBCHEM_ATOM_UDEF_STEREO_COUNT>
1

> <PUBCHEM_BOND_DEF_STEREO_COUNT>
0

> <PUBCHEM_BOND_UDEF_STEREO_COUNT>
0

> <PUBCHEM_ISOTOPIC_ATOM_COUNT>
0

> <PUBCHEM_COMPONENT_COUNT>
1

> <PUBCHEM_CACTVS_TAUTO_COUNT>
-1

> <PUBCHEM_CONFORMER_ID>
081B121E00000001

> <PUBCHEM_MMFF94_ENERGY>
89.1971

> <PUBCHEM_FEATURE_SELFOVERLAP>
71.176

> <PUBCHEM_SHAPE_FINGERPRINT>
105312 117 18412546513359799294
10674148 151 14045740392567221139
12363563 72 12175611910826264347
12596602 18 12251902590488020444
12788726 201 17274264924741138120
12892183 10 14490748984555619057
12895836 83 18341889684577426513
12895837 130 18336267958971462516
13994607 96 18113899364463002509
14341114 328 14851901217844468277
14950920 106 13118292468170247829
15183329 4 17346598534762847356
16110190 28 16732994136537354636
167882 2 18199188377897490254
17780758 139 8070035462334659631
17870717 6 14261633923969715705
19377110 9 12613044898624315502
20028762 73 8430306948862810984
20775530 9 10804502279601654925
21033648 29 18336261336342654912
21307412 95 13254496671023680981
21401589 2 17895191074218111377
21709351 56 18129384963965265820
21756936 100 18040150729698908282
22393880 68 17346306142227105734
23198884 109 18201716271077137140
23559900 14 14835824201815317434
25122255 55 11167950160330879312
2838139 119 18190735337251127021
392239 28 13623828119449856649
484985 159 15123231100146274943
5104073 3 17240765055915911506
531348 171 15122691119514109632
57724786 102 18187643544850041354
59755656 520 17846511347749578467
6431902 208 8214151737623109088
7288768 16 17822013060662225433
7495541 125 10231755587856610434
7970288 3 8934990477870900685

> <PUBCHEM_SHAPE_MULTIPOLES>
461.12
14.37
2.41
1.84
19.02
0.06
-0.01
-11.88
2.45
-2.13
0.42
-2.03
0.52
0.93

> <PUBCHEM_SHAPE_SELFOVERLAP>
997.635

> <PUBCHEM_SHAPE_VOLUME>
247.7

> <PUBCHEM_COORDINATE_TYPE>
2
5
10

$$$$
