135992491
  -OEChem-03292013293D

 31 33  0     1  0  0  0  0  0999 V2000
    1.9539   -0.7888    0.6531 O   0  0  0  0  0  0  0  0  0  0  0  0
    1.1777    2.5542   -0.3630 O   0  0  0  0  0  0  0  0  0  0  0  0
    3.8131    1.3987   -1.4964 O   0  0  0  0  0  0  0  0  0  0  0  0
    4.3393   -2.2486    0.9738 O   0  0  0  0  0  0  0  0  0  0  0  0
   -4.7181   -1.1810   -0.7289 O   0  0  0  0  0  0  0  0  0  0  0  0
   -0.3428   -0.3109    0.0162 N   0  0  0  0  0  0  0  0  0  0  0  0
   -1.8010   -1.6954   -0.9650 N   0  0  0  0  0  0  0  0  0  0  0  0
   -1.8608    1.2869    1.0251 N   0  0  0  0  0  0  0  0  0  0  0  0
   -4.1402    0.6911    0.5405 N   0  0  0  0  0  0  0  0  0  0  0  0
    1.5862    1.2145   -0.5808 C   0  0  2  0  0  0  0  0  0  0  0  0
    0.9855    0.2613    0.4495 C   0  0  2  0  0  0  0  0  0  0  0  0
    3.0710    1.0351   -0.3480 C   0  0  1  0  0  0  0  0  0  0  0  0
    3.1527   -0.4554   -0.0661 C   0  0  1  0  0  0  0  0  0  0  0  0
    4.3646   -0.8468    0.7600 C   0  0  0  0  0  0  0  0  0  0  0  0
   -1.5833    0.1808    0.2971 C   0  0  0  0  0  0  0  0  0  0  0  0
   -0.5260   -1.4395   -0.7453 C   0  0  0  0  0  0  0  0  0  0  0  0
   -2.4550   -0.6891   -0.3173 C   0  0  0  0  0  0  0  0  0  0  0  0
   -3.8733   -0.4575   -0.2168 C   0  0  0  0  0  0  0  0  0  0  0  0
   -3.1436    1.4904    1.1123 C   0  0  0  0  0  0  0  0  0  0  0  0
    1.3070    0.9452   -1.6062 H   0  0  0  0  0  0  0  0  0  0  0  0
    0.7958    0.7393    1.4177 H   0  0  0  0  0  0  0  0  0  0  0  0
    3.4176    1.6412    0.4968 H   0  0  0  0  0  0  0  0  0  0  0  0
    3.1427   -1.0426   -0.9934 H   0  0  0  0  0  0  0  0  0  0  0  0
    4.3426   -0.3614    1.7413 H   0  0  0  0  0  0  0  0  0  0  0  0
    5.2939   -0.5841    0.2456 H   0  0  0  0  0  0  0  0  0  0  0  0
    1.4149    2.8002    0.5472 H   0  0  0  0  0  0  0  0  0  0  0  0
    3.5119    0.8528   -2.2424 H   0  0  0  0  0  0  0  0  0  0  0  0
    0.3022   -2.0295   -1.1136 H   0  0  0  0  0  0  0  0  0  0  0  0
    5.1235   -2.4715    1.5037 H   0  0  0  0  0  0  0  0  0  0  0  0
   -3.5536    2.3473    1.6691 H   0  0  0  0  0  0  0  0  0  0  0  0
   -5.1112    0.9552    0.6806 H   0  0  0  0  0  0  0  0  0  0  0  0
  1 11  1  0  0  0  0
  1 13  1  0  0  0  0
  2 10  1  0  0  0  0
  2 26  1  0  0  0  0
  3 12  1  0  0  0  0
  3 27  1  0  0  0  0
  4 14  1  0  0  0  0
  4 29  1  0  0  0  0
  5 18  2  0  0  0  0
  6 11  1  0  0  0  0
  6 15  1  0  0  0  0
  6 16  1  0  0  0  0
  7 16  2  0  0  0  0
  7 17  1  0  0  0  0
  8 15  1  0  0  0  0
  8 19  2  0  0  0  0
  9 18  1  0  0  0  0
  9 19  1  0  0  0  0
  9 31  1  0  0  0  0
 10 11  1  0  0  0  0
 10 12  1  0  0  0  0
 10 20  1  0  0  0  0
 11 21  1  0  0  0  0
 12 13  1  0  0  0  0
 12 22  1  0  0  0  0
 13 14  1  0  0  0  0
 13 23  1  0  0  0  0
 14 24  1  0  0  0  0
 14 25  1  0  0  0  0
 15 17  2  0  0  0  0
 16 28  1  0  0  0  0
 17 18  1  0  0  0  0
 19 30  1  0  0  0  0
M  END
> <PUBCHEM_COMPOUND_CID>
135992491

> <PUBCHEM_CONFORMER_RMSD>
0.6

> <PUBCHEM_CONFORMER_DIVERSEORDER>
1
13
25
26
12
15
22
9
19
20
18
2
8
3
16
17
10
6
5
27
23
21
7
24
14
4
11

> <PUBCHEM_MMFF94_PARTIAL_CHARGES>
25
1 -0.56
10 0.28
11 0.54
12 0.28
13 0.28
14 0.28
15 -0.03
16 0.04
17 0.14
18 0.72
19 0.45
2 -0.68
26 0.4
27 0.4
28 0.15
29 0.4
3 -0.68
30 0.06
31 0.37
4 -0.68
5 -0.57
6 0.05
7 -0.57
8 -0.58
9 -0.49

> <PUBCHEM_EFFECTIVE_ROTOR_COUNT>
3

> <PUBCHEM_PHARMACOPHORE_FEATURES>
13
1 1 acceptor
1 2 acceptor
1 2 donor
1 3 acceptor
1 3 donor
1 4 acceptor
1 4 donor
1 5 acceptor
1 9 donor
3 6 7 16 cation
5 1 10 11 12 13 rings
5 6 7 15 16 17 rings
6 8 9 15 17 18 19 rings

> <PUBCHEM_HEAVY_ATOM_COUNT>
19

> <PUBCHEM_ATOM_DEF_STEREO_COUNT>
3

> <PUBCHEM_ATOM_UDEF_STEREO_COUNT>
1

> <PUBCHEM_BOND_DEF_STEREO_COUNT>
0

> <PUBCHEM_BOND_UDEF_STEREO_COUNT>
0

> <PUBCHEM_ISOTOPIC_ATOM_COUNT>
0

> <PUBCHEM_COMPONENT_COUNT>
1

> <PUBCHEM_CACTVS_TAUTO_COUNT>
-1

> <PUBCHEM_CONFORMER_ID>
081B14AB00000001

> <PUBCHEM_MMFF94_ENERGY>
43.8838

> <PUBCHEM_FEATURE_SELFOVERLAP>
66.119

> <PUBCHEM_SHAPE_FINGERPRINT>
10062212 137 18272084989975763283
11578080 2 18195214833317057792
12236239 1 18411418410519459098
12553582 1 18042677309390157506
12670546 56 18342731927490137936
13538477 17 18269271429550672495
13581323 91 17775002396880400263
13760787 5 18186806876335544253
13862211 1 17988634260101583215
14144814 61 18341898506065868569
14739800 52 17916293004816852568
15375358 24 15697994133001672754
15442244 35 18411419492714223480
15669948 3 18059857332480355855
16752209 62 18060136553010659927
16945 1 17917434263156843031
17349148 13 18130782369559955351
17862501 102 18343297059413669523
1813 80 17969226625603612734
18186145 218 16732706043047409384
19422 9 18408325488304955074
19784866 34 17752783582641229364
200 152 18411411826408525199
20279233 1 15769776862080797150
20612939 158 17967536792105673620
20645476 183 18267309909423119687
20645477 70 17749102297045863306
21267235 1 18413114960918851318
2255824 54 18186523220164365186
23048698 100 18114179756648934071
23175994 123 16660370242392152237
23402539 116 17774709914435318685
23463225 33 18411419471239373990
23557571 272 16558760026246378337
23559900 14 17274832341930200852
23598291 2 18336551533991605488
474 4 17899419967706153004
5104073 3 18342740732247000523
573450 72 18273209768547949875
633830 44 17168143425292761913
6992083 37 18412268302563371576
74978 22 18339927146178614516
77492 1 18410577292371305656
9981440 41 17472690811852266992

> <PUBCHEM_SHAPE_MULTIPOLES>
341.74
8.84
1.99
1.05
0.27
0.25
-0.03
-1.81
0.66
0.69
-0.09
0.35
0.08
-2.05

> <PUBCHEM_SHAPE_SELFOVERLAP>
742.147

> <PUBCHEM_SHAPE_VOLUME>
184.8

> <PUBCHEM_COORDINATE_TYPE>
2
5
10

$$$$
