135939
  -OEChem-03292013323D

 35 34  0     1  0  0  0  0  0999 V2000
   -5.1390   -1.9281   -2.0460 Cl  0  0  0  0  0  0  0  0  0  0  0  0
    3.0220   -1.5417    1.4406 O   0  0  0  0  0  0  0  0  0  0  0  0
    3.4880   -2.4072   -0.6030 O   0  0  0  0  0  0  0  0  0  0  0  0
   -2.3089    1.8386   -1.0102 O   0  0  0  0  0  0  0  0  0  0  0  0
   -3.1087   -1.4776    2.0779 O   0  0  0  0  0  0  0  0  0  0  0  0
   -0.8897    1.5733    0.7802 N   0  0  0  0  0  0  0  0  0  0  0  0
    5.3843   -0.4185   -0.9613 N   0  0  0  0  0  0  0  0  0  0  0  0
   -2.7698    0.1506    0.5095 N   0  0  0  0  0  0  0  0  0  0  0  0
   -2.3576   -0.5493    1.7601 N   0  0  0  0  0  0  0  0  0  0  0  0
    2.0836    1.1786    0.1276 C   0  0  0  0  0  0  0  0  0  0  0  0
    3.2974    0.8400   -0.7438 C   0  0  0  0  0  0  0  0  0  0  0  0
    1.1295    2.2064   -0.4943 C   0  0  0  0  0  0  0  0  0  0  0  0
    4.2518   -0.1547   -0.0698 C   0  0  1  0  0  0  0  0  0  0  0  0
   -0.0160    2.6499    0.4111 C   0  0  0  0  0  0  0  0  0  0  0  0
    3.5693   -1.4849    0.1986 C   0  0  0  0  0  0  0  0  0  0  0  0
   -2.0132    1.2279    0.0220 C   0  0  0  0  0  0  0  0  0  0  0  0
   -3.9638   -0.3138   -0.1852 C   0  0  0  0  0  0  0  0  0  0  0  0
   -3.6593   -1.3895   -1.2142 C   0  0  0  0  0  0  0  0  0  0  0  0
    2.4350    1.5600    1.0945 H   0  0  0  0  0  0  0  0  0  0  0  0
    1.5115    0.2672    0.3330 H   0  0  0  0  0  0  0  0  0  0  0  0
    2.9388    0.4311   -1.6979 H   0  0  0  0  0  0  0  0  0  0  0  0
    3.8375    1.7666   -0.9767 H   0  0  0  0  0  0  0  0  0  0  0  0
    0.7206    1.7903   -1.4236 H   0  0  0  0  0  0  0  0  0  0  0  0
    1.7061    3.0963   -0.7755 H   0  0  0  0  0  0  0  0  0  0  0  0
    4.6375    0.2502    0.8725 H   0  0  0  0  0  0  0  0  0  0  0  0
   -0.5967    3.4329   -0.0890 H   0  0  0  0  0  0  0  0  0  0  0  0
    0.3818    3.0760    1.3384 H   0  0  0  0  0  0  0  0  0  0  0  0
   -0.6557    1.0542    1.6186 H   0  0  0  0  0  0  0  0  0  0  0  0
    6.0621   -1.0125   -0.4846 H   0  0  0  0  0  0  0  0  0  0  0  0
    5.8684    0.4551   -1.1657 H   0  0  0  0  0  0  0  0  0  0  0  0
   -4.4126    0.5477   -0.6958 H   0  0  0  0  0  0  0  0  0  0  0  0
   -4.7110   -0.6538    0.5414 H   0  0  0  0  0  0  0  0  0  0  0  0
   -3.2063   -2.2682   -0.7449 H   0  0  0  0  0  0  0  0  0  0  0  0
   -2.9650   -1.0210   -1.9760 H   0  0  0  0  0  0  0  0  0  0  0  0
    2.5715   -2.3978    1.6026 H   0  0  0  0  0  0  0  0  0  0  0  0
  1 18  1  0  0  0  0
  2 15  1  0  0  0  0
  2 35  1  0  0  0  0
  3 15  2  0  0  0  0
  4 16  2  0  0  0  0
  5  9  2  0  0  0  0
  6 14  1  0  0  0  0
  6 16  1  0  0  0  0
  6 28  1  0  0  0  0
  7 13  1  0  0  0  0
  7 29  1  0  0  0  0
  7 30  1  0  0  0  0
  8  9  1  0  0  0  0
  8 16  1  0  0  0  0
  8 17  1  0  0  0  0
 10 11  1  0  0  0  0
 10 12  1  0  0  0  0
 10 19  1  0  0  0  0
 10 20  1  0  0  0  0
 11 13  1  0  0  0  0
 11 21  1  0  0  0  0
 11 22  1  0  0  0  0
 12 14  1  0  0  0  0
 12 23  1  0  0  0  0
 12 24  1  0  0  0  0
 13 15  1  0  0  0  0
 13 25  1  0  0  0  0
 14 26  1  0  0  0  0
 14 27  1  0  0  0  0
 17 18  1  0  0  0  0
 17 31  1  0  0  0  0
 17 32  1  0  0  0  0
 18 33  1  0  0  0  0
 18 34  1  0  0  0  0
M  END
> <PUBCHEM_COMPOUND_CID>
135939

> <PUBCHEM_CONFORMER_RMSD>
1

> <PUBCHEM_CONFORMER_DIVERSEORDER>
1
176
80
23
30
129
61
76
31
29
146
90
105
11
141
161
9
128
117
55
112
7
27
162
18
5
104
147
172
49
12
3
89
62
2
21
58
106
16
94
122
168
130
133
170
79
10
25
142
156
148
160
14
65
173
140
154
60
44
143
169
77
51
63
75
107
22
144
137
149
87
175
4
67
68
163
108
37
66
46
103
124
34
6
139
48
72
86
91
28
33
82
152
35
20
56
54
119
115
36
157
98
95
64
99
84
50
73
52
74
93
100
32
134
78
123
113
116
151
8
145
138
47
69
57
125
158
174
110
43
153
167
101
15
13
165
132
17
109
26
39
97
135
171
53
59
45
166
120
24
131
159
118
71
92
150
40
38
42
41
121
85
70
81
126
127
83
136
155
111
88
19
114
164
96
102

> <PUBCHEM_MMFF94_PARTIAL_CHARGES>
19
1 -0.29
13 0.33
14 0.3
15 0.66
16 0.69
17 0.3
18 0.29
2 -0.65
28 0.37
29 0.36
3 -0.57
30 0.36
35 0.5
4 -0.57
5 -0.16
6 -0.73
7 -0.99
8 -0.18
9 -0.02

> <PUBCHEM_EFFECTIVE_ROTOR_COUNT>
11

> <PUBCHEM_PHARMACOPHORE_FEATURES>
7
1 2 acceptor
1 3 acceptor
1 4 acceptor
1 6 donor
1 7 cation
1 7 donor
3 2 3 15 anion

> <PUBCHEM_HEAVY_ATOM_COUNT>
18

> <PUBCHEM_ATOM_DEF_STEREO_COUNT>
1

> <PUBCHEM_ATOM_UDEF_STEREO_COUNT>
0

> <PUBCHEM_BOND_DEF_STEREO_COUNT>
0

> <PUBCHEM_BOND_UDEF_STEREO_COUNT>
0

> <PUBCHEM_ISOTOPIC_ATOM_COUNT>
0

> <PUBCHEM_COMPONENT_COUNT>
1

> <PUBCHEM_CACTVS_TAUTO_COUNT>
2

> <PUBCHEM_CONFORMER_ID>
0002130300000001

> <PUBCHEM_MMFF94_ENERGY>
16.8652

> <PUBCHEM_FEATURE_SELFOVERLAP>
35.58

> <PUBCHEM_SHAPE_FINGERPRINT>
12410352 35 17916860348072820367
12596602 18 16988561346558602802
12824470 246 17774722082035515457
13583140 156 14333136230138585509
14123260 362 11891328747048045461
14251764 75 8934419882939126230
14576447 43 18411134745283468468
15880784 105 17704074014580589552
20291156 8 18413669097731113764
20621476 51 18124584289375814518
20645477 70 18117556438610282657
21054139 6 18408888417706621894
235170 7 16515686653975607846
23559900 14 17896038908994151924
351380 3 18342181076317236175
4259306 186 18336264630197351405
46194498 28 16517106226708609293
463206 1 18339641269082374231
474 4 8430333337162145141
4921388 177 16371022818319334457
76465 3 18201433731344474765
9709674 26 18261681372309519272

> <PUBCHEM_SHAPE_MULTIPOLES>
328.9
11.1
2.82
1.58
0.63
0.41
0.54
-8.54
-3.76
0.2
-0.43
-1.75
-0.8
-1.15

> <PUBCHEM_SHAPE_SELFOVERLAP>
614.29

> <PUBCHEM_SHAPE_VOLUME>
204.4

> <PUBCHEM_COORDINATE_TYPE>
2
5
10

$$$$
