135936862
  -OEChem-03292013293D

 38 40  0     0  0  0  0  0  0999 V2000
   -1.1045   -4.1562   -0.6543 O   0  0  0  0  0  0  0  0  0  0  0  0
   -4.8377    1.1049   -0.9740 O   0  0  0  0  0  0  0  0  0  0  0  0
    3.0567    3.6737    1.0560 O   0  0  0  0  0  0  0  0  0  0  0  0
    3.7102   -3.8348    0.4335 O   0  0  0  0  0  0  0  0  0  0  0  0
   -3.1314    2.3802    1.6397 O   0  5  0  0  0  0  0  0  0  0  0  0
   -4.3378    0.6827    2.3342 O   0  0  0  0  0  0  0  0  0  0  0  0
    0.8864    3.7898   -1.5221 O   0  5  0  0  0  0  0  0  0  0  0  0
    2.8590    3.1895   -2.2756 O   0  0  0  0  0  0  0  0  0  0  0  0
    1.1220   -3.6938   -0.1192 N   0  0  0  0  0  0  0  0  0  0  0  0
    3.3359   -2.6852    0.4656 N   0  0  0  0  0  0  0  0  0  0  0  0
   -3.5255    1.1952    1.5283 N   0  3  0  0  0  0  0  0  0  0  0  0
    1.9142    3.0744   -1.4594 N   0  3  0  0  0  0  0  0  0  0  0  0
   -0.1858   -1.9023   -0.2286 C   0  0  0  0  0  0  0  0  0  0  0  0
    1.1271   -1.4839    0.1010 C   0  0  0  0  0  0  0  0  0  0  0  0
   -1.3800   -1.1263   -0.4142 C   0  0  0  0  0  0  0  0  0  0  0  0
    1.6200   -0.1566    0.3405 C   0  0  0  0  0  0  0  0  0  0  0  0
   -0.1600   -3.2733   -0.3590 C   0  0  0  0  0  0  0  0  0  0  0  0
    1.9152   -2.6119    0.1616 C   0  0  0  0  0  0  0  0  0  0  0  0
   -1.8745   -0.3464    0.6313 C   0  0  0  0  0  0  0  0  0  0  0  0
    1.5317    0.8112   -0.6602 C   0  0  0  0  0  0  0  0  0  0  0  0
   -2.0466   -1.1538   -1.6392 C   0  0  0  0  0  0  0  0  0  0  0  0
    2.1886    0.1646    1.5731 C   0  0  0  0  0  0  0  0  0  0  0  0
   -3.0350    0.4061    0.4518 C   0  0  0  0  0  0  0  0  0  0  0  0
    2.0116    2.1002   -0.4282 C   0  0  0  0  0  0  0  0  0  0  0  0
   -3.2071   -0.4014   -1.8189 C   0  0  0  0  0  0  0  0  0  0  0  0
    2.6686    1.4534    1.8051 C   0  0  0  0  0  0  0  0  0  0  0  0
   -3.7014    0.3786   -0.7733 C   0  0  0  0  0  0  0  0  0  0  0  0
    2.5801    2.4213    0.8045 C   0  0  0  0  0  0  0  0  0  0  0  0
    1.4334   -4.6551   -0.1462 H   0  0  0  0  0  0  0  0  0  0  0  0
   -1.3614   -0.3258    1.5914 H   0  0  0  0  0  0  0  0  0  0  0  0
    1.0945    0.5645   -1.6263 H   0  0  0  0  0  0  0  0  0  0  0  0
   -1.6748   -1.7501   -2.4692 H   0  0  0  0  0  0  0  0  0  0  0  0
    2.2568   -0.5697    2.3724 H   0  0  0  0  0  0  0  0  0  0  0  0
   -3.7150   -0.4315   -2.7792 H   0  0  0  0  0  0  0  0  0  0  0  0
    3.1065    1.6900    2.7712 H   0  0  0  0  0  0  0  0  0  0  0  0
   -0.7043   -5.0433   -0.6551 H   0  0  0  0  0  0  0  0  0  0  0  0
   -5.1536    0.9577   -1.8820 H   0  0  0  0  0  0  0  0  0  0  0  0
    3.4117    3.7037    1.9609 H   0  0  0  0  0  0  0  0  0  0  0  0
  1 17  1  0  0  0  0
  1 36  1  0  0  0  0
  2 27  1  0  0  0  0
  2 37  1  0  0  0  0
  3 28  1  0  0  0  0
  3 38  1  0  0  0  0
  4 10  2  0  0  0  0
  5 11  1  0  0  0  0
  6 11  2  0  0  0  0
  7 12  1  0  0  0  0
  8 12  2  0  0  0  0
  9 17  1  0  0  0  0
  9 18  1  0  0  0  0
  9 29  1  0  0  0  0
 10 18  1  0  0  0  0
 11 23  1  0  0  0  0
 12 24  1  0  0  0  0
 13 14  1  0  0  0  0
 13 15  1  0  0  0  0
 13 17  2  0  0  0  0
 14 16  1  0  0  0  0
 14 18  2  0  0  0  0
 15 19  2  0  0  0  0
 15 21  1  0  0  0  0
 16 20  2  0  0  0  0
 16 22  1  0  0  0  0
 19 23  1  0  0  0  0
 19 30  1  0  0  0  0
 20 24  1  0  0  0  0
 20 31  1  0  0  0  0
 21 25  2  0  0  0  0
 21 32  1  0  0  0  0
 22 26  2  0  0  0  0
 22 33  1  0  0  0  0
 23 27  2  0  0  0  0
 24 28  2  0  0  0  0
 25 27  1  0  0  0  0
 25 34  1  0  0  0  0
 26 28  1  0  0  0  0
 26 35  1  0  0  0  0
M  CHG  4   5  -1   7  -1  11   1  12   1
M  END
> <PUBCHEM_COMPOUND_CID>
135936862

> <PUBCHEM_CONFORMER_RMSD>
0.8

> <PUBCHEM_CONFORMER_DIVERSEORDER>
2
1
21
24
13
16
5
22
11
19
23
14
6
17
26
12
10
25
9
3
20
7
18
27
4
15
8

> <PUBCHEM_MMFF94_PARTIAL_CHARGES>
38
1 -0.51
10 -0.09
11 0.91
12 0.91
13 -0.05
14 -0.05
15 0.05
16 0.05
17 -0.09
18 0.1
19 -0.15
2 -0.53
20 -0.15
21 -0.15
22 -0.15
23 0.13
24 0.13
25 -0.15
26 -0.15
27 0.08
28 0.08
29 0.27
3 -0.53
30 0.15
31 0.15
32 0.15
33 0.15
34 0.15
35 0.15
36 0.45
37 0.45
38 0.45
4 -0.16
5 -0.52
6 -0.52
7 -0.52
8 -0.52
9 0.03

> <PUBCHEM_EFFECTIVE_ROTOR_COUNT>
5

> <PUBCHEM_PHARMACOPHORE_FEATURES>
14
1 1 donor
1 2 donor
1 3 donor
1 5 acceptor
1 5 anion
1 6 acceptor
1 7 acceptor
1 7 anion
1 8 acceptor
1 9 cation
1 9 donor
5 9 13 14 17 18 rings
6 15 19 21 23 25 27 rings
6 16 20 22 24 26 28 rings

> <PUBCHEM_HEAVY_ATOM_COUNT>
28

> <PUBCHEM_ATOM_DEF_STEREO_COUNT>
0

> <PUBCHEM_ATOM_UDEF_STEREO_COUNT>
0

> <PUBCHEM_BOND_DEF_STEREO_COUNT>
0

> <PUBCHEM_BOND_UDEF_STEREO_COUNT>
0

> <PUBCHEM_ISOTOPIC_ATOM_COUNT>
0

> <PUBCHEM_COMPONENT_COUNT>
1

> <PUBCHEM_CACTVS_TAUTO_COUNT>
-1

> <PUBCHEM_CONFORMER_ID>
081A3B5E00000002

> <PUBCHEM_MMFF94_ENERGY>
82.7669

> <PUBCHEM_FEATURE_SELFOVERLAP>
71.252

> <PUBCHEM_SHAPE_FINGERPRINT>
10165383 225 18048348752915093317
10688039 33 17685222672657844714
11578080 2 13560565471762031574
11582403 64 16014877782521757815
11640471 11 18202273741000551969
12156800 1 14955563423346095137
12160290 23 17688875658275509126
12788726 201 17401207171146469798
13134695 92 18118392947878953238
133893 2 18410568483388353759
13402501 40 16823624359038594253
13583140 156 18050579439582012491
13965767 371 18045752780324466472
14713325 29 17256562001877007356
14790565 3 18269561538060319266
14955137 171 18055653723365760682
17980427 23 17416669268155075283
1813 80 18053389803460204606
18336668 15 18056472855396315794
18785283 64 18263101975349758347
20510252 161 17547842409940318322
20587220 17 14890438735480175336
20600515 1 17987514797886590610
20642791 105 17544443785096789847
20739085 24 18194129525240282610
21641784 216 17686080305261486590
23419403 2 17052685818379168882
23557571 272 17118607415953506072
283562 15 17619619619865550810
3380486 145 17622149175224441055
350125 39 18266179611512457242
352729 6 17833814342101393166
474 4 18339630192509170595
6287921 2 18412273826307935211
6523845 18 18122648268352812869
9981440 41 17909523371162776042

> <PUBCHEM_SHAPE_MULTIPOLES>
509.35
6.98
5.37
1.83
4.9
2.73
0.05
-4.19
1.09
-4.92
-0.88
0.59
-1.75
-1.9

> <PUBCHEM_SHAPE_SELFOVERLAP>
1133.527

> <PUBCHEM_SHAPE_VOLUME>
270.9

> <PUBCHEM_COORDINATE_TYPE>
2
5
10

$$$$
