135909519
  -OEChem-03292013293D

 28 29  0     1  0  0  0  0  0999 V2000
    2.9585   -1.1060    1.5116 O   0  0  0  0  0  0  0  0  0  0  0  0
    3.7039    1.1791   -1.2652 O   0  0  0  0  0  0  0  0  0  0  0  0
   -1.3161   -2.6099   -0.0009 O   0  0  0  0  0  0  0  0  0  0  0  0
    0.5382   -0.6534    0.3595 N   0  0  0  0  0  0  0  0  0  0  0  0
   -0.3863    2.0002    0.3042 N   0  0  0  0  0  0  0  0  0  0  0  0
   -3.0083   -1.0404   -0.2157 N   0  0  0  0  0  0  0  0  0  0  0  0
   -2.5830    1.2735   -0.0695 N   0  0  0  0  0  0  0  0  0  0  0  0
   -4.7624    0.4908   -0.4425 N   0  0  0  0  0  0  0  0  0  0  0  0
    2.8113    0.1017    0.7455 C   0  0  1  0  0  0  0  0  0  0  0  0
    3.6777   -0.0442   -0.5327 C   0  0  1  0  0  0  0  0  0  0  0  0
    1.3677    0.3939    0.5269 C   0  0  0  0  0  0  0  0  0  0  0  0
    3.1917   -1.1469   -1.4629 C   0  0  0  0  0  0  0  0  0  0  0  0
   -0.7568   -0.3374    0.1653 C   0  0  0  0  0  0  0  0  0  0  0  0
    0.9143    1.6955    0.4999 C   0  0  0  0  0  0  0  0  0  0  0  0
   -1.2297    0.9610    0.1347 C   0  0  0  0  0  0  0  0  0  0  0  0
   -1.6976   -1.4465   -0.0217 C   0  0  0  0  0  0  0  0  0  0  0  0
   -3.4233    0.2890   -0.2365 C   0  0  0  0  0  0  0  0  0  0  0  0
    3.2399    0.9032    1.3605 H   0  0  0  0  0  0  0  0  0  0  0  0
    4.7062   -0.2758   -0.2298 H   0  0  0  0  0  0  0  0  0  0  0  0
    2.2218   -0.9009   -1.9079 H   0  0  0  0  0  0  0  0  0  0  0  0
    3.8874   -1.2645   -2.3016 H   0  0  0  0  0  0  0  0  0  0  0  0
    3.1152   -2.1099   -0.9497 H   0  0  0  0  0  0  0  0  0  0  0  0
    1.5745    2.5448    0.6322 H   0  0  0  0  0  0  0  0  0  0  0  0
    2.2341   -1.1469    2.1590 H   0  0  0  0  0  0  0  0  0  0  0  0
    4.2922    1.0526   -2.0291 H   0  0  0  0  0  0  0  0  0  0  0  0
   -3.7115   -1.7607   -0.3518 H   0  0  0  0  0  0  0  0  0  0  0  0
   -5.1540    1.4258   -0.4730 H   0  0  0  0  0  0  0  0  0  0  0  0
   -5.4010   -0.2866   -0.5705 H   0  0  0  0  0  0  0  0  0  0  0  0
  1  9  1  0  0  0  0
  1 24  1  0  0  0  0
  2 10  1  0  0  0  0
  2 25  1  0  0  0  0
  3 16  2  0  0  0  0
  4 11  1  0  0  0  0
  4 13  2  0  0  0  0
  5 14  1  0  0  0  0
  5 15  2  0  0  0  0
  6 16  1  0  0  0  0
  6 17  1  0  0  0  0
  6 26  1  0  0  0  0
  7 15  1  0  0  0  0
  7 17  2  0  0  0  0
  8 17  1  0  0  0  0
  8 27  1  0  0  0  0
  8 28  1  0  0  0  0
  9 10  1  0  0  0  0
  9 11  1  0  0  0  0
  9 18  1  0  0  0  0
 10 12  1  0  0  0  0
 10 19  1  0  0  0  0
 11 14  2  0  0  0  0
 12 20  1  0  0  0  0
 12 21  1  0  0  0  0
 12 22  1  0  0  0  0
 13 15  1  0  0  0  0
 13 16  1  0  0  0  0
 14 23  1  0  0  0  0
M  END
> <PUBCHEM_COMPOUND_CID>
135909519

> <PUBCHEM_CONFORMER_RMSD>
0.6

> <PUBCHEM_CONFORMER_DIVERSEORDER>
1
18
11
4
12
14
17
16
9
7
3
15
10
13
6
8
5
2

> <PUBCHEM_MMFF94_PARTIAL_CHARGES>
22
1 -0.68
10 0.28
11 0.17
13 0.4
14 0.16
15 0.49
16 0.54
17 0.56
2 -0.68
23 0.15
24 0.4
25 0.4
26 0.37
27 0.4
28 0.4
3 -0.57
4 -0.62
5 -0.62
6 -0.49
7 -0.63
8 -0.85
9 0.42

> <PUBCHEM_EFFECTIVE_ROTOR_COUNT>
2

> <PUBCHEM_PHARMACOPHORE_FEATURES>
11
1 1 acceptor
1 1 donor
1 2 acceptor
1 2 donor
1 3 acceptor
1 4 acceptor
1 6 donor
1 8 donor
3 5 7 15 cation
6 4 5 11 13 14 15 rings
6 6 7 13 15 16 17 rings

> <PUBCHEM_HEAVY_ATOM_COUNT>
17

> <PUBCHEM_ATOM_DEF_STEREO_COUNT>
2

> <PUBCHEM_ATOM_UDEF_STEREO_COUNT>
0

> <PUBCHEM_BOND_DEF_STEREO_COUNT>
0

> <PUBCHEM_BOND_UDEF_STEREO_COUNT>
0

> <PUBCHEM_ISOTOPIC_ATOM_COUNT>
0

> <PUBCHEM_COMPONENT_COUNT>
1

> <PUBCHEM_CACTVS_TAUTO_COUNT>
-1

> <PUBCHEM_CONFORMER_ID>
0819D08F00000001

> <PUBCHEM_MMFF94_ENERGY>
42.9983

> <PUBCHEM_FEATURE_SELFOVERLAP>
55.919

> <PUBCHEM_SHAPE_FINGERPRINT>
10465860 71 18340499927644687356
11543360 7 16298391283569711435
12032990 46 18343304773174738219
13221675 6 18410573993889085441
13538477 17 18259701203291490274
14115302 16 18334299777048407188
14911166 2 18412543210782941589
14993402 34 18409165502483067485
15375358 24 18131061671451720234
15415430 112 18338241577810495342
15669948 3 18337949090453559850
15848700 24 18060129942602492717
16752209 62 18340201869567170641
16945 1 18413105048128778353
18186145 218 17894347782932336342
19786989 88 15068624894207473090
19868273 293 18259982665003354302
20279233 1 17846495946170421498
20510252 161 18130501929570454841
20523700 14 18186802495532199362
20645476 183 17894918450741950551
20871999 31 18337677541104085551
21069387 34 15195289754529051231
21197605 99 13362046985674752114
2334 1 18051123997667885465
23402539 116 18271509927776620125
23463225 33 18262789666712964114
23557571 272 18201435836321606904
23559900 14 18343584066867510964
23598291 2 17461160950823662080
2748010 2 18123742321182287105
34934 24 18339917229479053112
474 4 16806741766120833124
537710 114 18335980891720192985
7364860 26 17984701374953135936
74978 22 18339358690203726825
77492 1 17821726113622619266
81228 2 18059018276449638064
9709674 26 18200307865480859127

> <PUBCHEM_SHAPE_MULTIPOLES>
307.34
7.11
1.91
1.02
1.24
0.35
-0.05
0.19
-1.97
0.43
0.03
-1.18
0.15
0.05

> <PUBCHEM_SHAPE_SELFOVERLAP>
657.638

> <PUBCHEM_SHAPE_VOLUME>
169.4

> <PUBCHEM_COORDINATE_TYPE>
2
5
10

$$$$
