135901
  -OEChem-03292013323D

 41 41  0     1  0  0  0  0  0999 V2000
   -1.0421    1.5929    1.7114 O   0  0  0  0  0  0  0  0  0  0  0  0
   -0.4349   -1.9946    0.1885 O   0  0  0  0  0  0  0  0  0  0  0  0
    3.8878   -2.5633   -0.3868 O   0  0  0  0  0  0  0  0  0  0  0  0
   -1.5358    0.5069   -0.2776 N   0  0  0  0  0  0  0  0  0  0  0  0
   -0.6697    3.7820   -0.1844 N   0  0  0  0  0  0  0  0  0  0  0  0
   -1.9126   -2.2581    1.9263 N   0  0  0  0  0  0  0  0  0  0  0  0
   -3.4672   -1.0233   -0.6512 C   0  0  0  0  0  0  0  0  0  0  0  0
   -2.3645   -0.5186    0.3032 C   0  0  1  0  0  0  0  0  0  0  0  0
   -0.0840    2.4503   -0.3424 C   0  0  1  0  0  0  0  0  0  0  0  0
    1.3701    2.4568    0.1518 C   0  0  0  0  0  0  0  0  0  0  0  0
   -2.9113   -1.7138   -1.9012 C   0  0  0  0  0  0  0  0  0  0  0  0
   -4.4044    0.1170   -1.0608 C   0  0  0  0  0  0  0  0  0  0  0  0
   -0.9334    1.4947    0.4900 C   0  0  0  0  0  0  0  0  0  0  0  0
   -1.4540   -1.6450    0.7797 C   0  0  0  0  0  0  0  0  0  0  0  0
    2.0441    1.1126    0.0074 C   0  0  0  0  0  0  0  0  0  0  0  0
    1.9720    0.2028    1.0492 C   0  0  0  0  0  0  0  0  0  0  0  0
    2.7212    0.8163   -1.1642 C   0  0  0  0  0  0  0  0  0  0  0  0
    2.5945   -1.0383    0.9160 C   0  0  0  0  0  0  0  0  0  0  0  0
    3.3437   -0.4249   -1.2975 C   0  0  0  0  0  0  0  0  0  0  0  0
    3.2803   -1.3523   -0.2574 C   0  0  0  0  0  0  0  0  0  0  0  0
   -4.0662   -1.7684   -0.1108 H   0  0  0  0  0  0  0  0  0  0  0  0
   -2.8510   -0.0829    1.1863 H   0  0  0  0  0  0  0  0  0  0  0  0
   -0.1143    2.1748   -1.4028 H   0  0  0  0  0  0  0  0  0  0  0  0
   -1.3253    0.4555   -1.2693 H   0  0  0  0  0  0  0  0  0  0  0  0
    1.9505    3.2086   -0.4007 H   0  0  0  0  0  0  0  0  0  0  0  0
    1.4210    2.7678    1.2049 H   0  0  0  0  0  0  0  0  0  0  0  0
   -2.3055   -2.5872   -1.6424 H   0  0  0  0  0  0  0  0  0  0  0  0
   -3.7318   -2.0701   -2.5343 H   0  0  0  0  0  0  0  0  0  0  0  0
   -2.3001   -1.0387   -2.5078 H   0  0  0  0  0  0  0  0  0  0  0  0
   -4.8232    0.6121   -0.1783 H   0  0  0  0  0  0  0  0  0  0  0  0
   -5.2412   -0.2668   -1.6544 H   0  0  0  0  0  0  0  0  0  0  0  0
   -3.8875    0.8717   -1.6628 H   0  0  0  0  0  0  0  0  0  0  0  0
   -1.6037    3.7944   -0.5930 H   0  0  0  0  0  0  0  0  0  0  0  0
   -0.1213    4.4610   -0.7111 H   0  0  0  0  0  0  0  0  0  0  0  0
    1.4504    0.4368    1.9723 H   0  0  0  0  0  0  0  0  0  0  0  0
    2.7736    1.5312   -1.9802 H   0  0  0  0  0  0  0  0  0  0  0  0
   -1.4026   -3.0302    2.3428 H   0  0  0  0  0  0  0  0  0  0  0  0
   -2.7666   -1.9722    2.3943 H   0  0  0  0  0  0  0  0  0  0  0  0
    2.5427   -1.7559    1.7303 H   0  0  0  0  0  0  0  0  0  0  0  0
    3.8742   -0.6575   -2.2170 H   0  0  0  0  0  0  0  0  0  0  0  0
    4.3138   -2.6103   -1.2600 H   0  0  0  0  0  0  0  0  0  0  0  0
  1 13  2  0  0  0  0
  2 14  2  0  0  0  0
  3 20  1  0  0  0  0
  3 41  1  0  0  0  0
  4  8  1  0  0  0  0
  4 13  1  0  0  0  0
  4 24  1  0  0  0  0
  5  9  1  0  0  0  0
  5 33  1  0  0  0  0
  5 34  1  0  0  0  0
  6 14  1  0  0  0  0
  6 37  1  0  0  0  0
  6 38  1  0  0  0  0
  7  8  1  0  0  0  0
  7 11  1  0  0  0  0
  7 12  1  0  0  0  0
  7 21  1  0  0  0  0
  8 14  1  0  0  0  0
  8 22  1  0  0  0  0
  9 10  1  0  0  0  0
  9 13  1  0  0  0  0
  9 23  1  0  0  0  0
 10 15  1  0  0  0  0
 10 25  1  0  0  0  0
 10 26  1  0  0  0  0
 11 27  1  0  0  0  0
 11 28  1  0  0  0  0
 11 29  1  0  0  0  0
 12 30  1  0  0  0  0
 12 31  1  0  0  0  0
 12 32  1  0  0  0  0
 15 16  2  0  0  0  0
 15 17  1  0  0  0  0
 16 18  1  0  0  0  0
 16 35  1  0  0  0  0
 17 19  2  0  0  0  0
 17 36  1  0  0  0  0
 18 20  2  0  0  0  0
 18 39  1  0  0  0  0
 19 20  1  0  0  0  0
 19 40  1  0  0  0  0
M  END
> <PUBCHEM_COMPOUND_CID>
135901

> <PUBCHEM_CONFORMER_RMSD>
0.8

> <PUBCHEM_CONFORMER_DIVERSEORDER>
1
137
42
80
70
56
115
13
23
69
138
20
41
48
130
81
64
27
124
49
109
88
131
135
35
58
38
139
100
118
99
51
61
62
111
55
75
30
19
33
76
112
114
57
7
79
36
43
95
16
73
50
128
108
65
21
15
119
113
25
45
82
68
63
117
123
59
9
122
133
14
96
66
8
125
120
91
67
46
24
85
98
126
6
102
44
52
140
105
86
72
22
129
110
106
39
77
31
4
74
92
101
94
54
5
104
12
78
83
97
87
47
11
2
26
90
60
89
136
3
34
32
17
29
40
132
134
28
116
121
18
103
53
107
10
93
37
127
84
71

> <PUBCHEM_MMFF94_PARTIAL_CHARGES>
27
1 -0.57
10 0.14
13 0.57
14 0.57
15 -0.14
16 -0.15
17 -0.15
18 -0.15
19 -0.15
2 -0.57
20 0.08
24 0.37
3 -0.53
33 0.36
34 0.36
35 0.15
36 0.15
37 0.37
38 0.37
39 0.15
4 -0.73
40 0.15
41 0.45
5 -0.99
6 -0.8
8 0.36
9 0.33

> <PUBCHEM_EFFECTIVE_ROTOR_COUNT>
7

> <PUBCHEM_PHARMACOPHORE_FEATURES>
9
1 1 acceptor
1 2 acceptor
1 3 donor
1 4 donor
1 5 cation
1 5 donor
1 6 donor
3 7 11 12 hydrophobe
6 15 16 17 18 19 20 rings

> <PUBCHEM_HEAVY_ATOM_COUNT>
20

> <PUBCHEM_ATOM_DEF_STEREO_COUNT>
2

> <PUBCHEM_ATOM_UDEF_STEREO_COUNT>
0

> <PUBCHEM_BOND_DEF_STEREO_COUNT>
0

> <PUBCHEM_BOND_UDEF_STEREO_COUNT>
0

> <PUBCHEM_ISOTOPIC_ATOM_COUNT>
0

> <PUBCHEM_COMPONENT_COUNT>
1

> <PUBCHEM_CACTVS_TAUTO_COUNT>
8

> <PUBCHEM_CONFORMER_ID>
000212DD00000001

> <PUBCHEM_MMFF94_ENERGY>
41.2864

> <PUBCHEM_FEATURE_SELFOVERLAP>
45.671

> <PUBCHEM_SHAPE_FINGERPRINT>
104564 63 18265616468173919298
116883 192 18340199696324248836
12363563 72 18343302556850437422
12553582 1 18337123314461155952
12596599 1 17417822784664987662
12788726 201 18338518530034305468
15375358 24 18194390311148642232
15635459 17 18120096344729839947
16752209 62 18191015716768622961
16945 1 18120657100065755833
17357779 13 18272930505574407110
17818456 19 17775300369644465225
18186145 218 17967798462708893319
192875 21 18188761756728858170
20626108 58 16270503352637511925
20645477 70 18197494249869812693
20871999 31 18264774264079743092
20905425 154 17909261377988940367
21634736 98 18263098677436932086
21731516 1 18272099313427788996
23419403 2 17183556413756510440
23526113 38 18190168178134790691
23559900 14 18338791321125025488
238 59 17474650128529253839
2637199 183 11170463553395349996
2748010 2 17397828363377165977
3286 77 16988835073203509714
5262128 65 18199763577255083254
633830 44 11819540499152418147
6438718 38 18057616368800430361
81228 2 18410290281097913449
90525 40 17684665229137353072
9709674 26 18120086440867447735

> <PUBCHEM_SHAPE_MULTIPOLES>
379.04
6.63
3.33
1.48
1.36
1.88
-0.08
-3.89
2.68
-0.57
-0.22
0.56
-0.55
0.03

> <PUBCHEM_SHAPE_SELFOVERLAP>
773.273

> <PUBCHEM_SHAPE_VOLUME>
219.4

> <PUBCHEM_COORDINATE_TYPE>
2
5
10

$$$$
