135929552
  -OEChem-03292013293D

 30 32  0     0  0  0  0  0  0999 V2000
   -3.3786    2.7960    0.0001 Cl  0  0  0  0  0  0  0  0  0  0  0  0
    4.7333   -0.7640   -0.0002 O   0  0  0  0  0  0  0  0  0  0  0  0
   -1.6289   -2.1479    0.0010 N   0  3  0  0  0  0  0  0  0  0  0  0
    1.6115    1.0131    0.0000 N   0  0  0  0  0  0  0  0  0  0  0  0
   -3.9768   -0.1853   -0.0028 N   0  0  0  0  0  0  0  0  0  0  0  0
   -0.3947    3.1647    0.0026 N   0  0  0  0  0  0  0  0  0  0  0  0
    4.2473    1.4934    0.0002 N   0  0  0  0  0  0  0  0  0  0  0  0
   -0.2492   -0.3952   -0.0009 C   0  0  0  0  0  0  0  0  0  0  0  0
   -1.6281   -0.8471   -0.0003 C   0  0  0  0  0  0  0  0  0  0  0  0
    0.6070   -1.5468   -0.0005 C   0  0  0  0  0  0  0  0  0  0  0  0
    0.2363    0.8395   -0.0004 C   0  0  0  0  0  0  0  0  0  0  0  0
   -0.2493   -2.5802    0.0005 C   0  0  0  0  0  0  0  0  0  0  0  0
   -2.6688    0.2027   -0.0011 C   0  0  0  0  0  0  0  0  0  0  0  0
    2.0439   -1.3760   -0.0009 C   0  0  0  0  0  0  0  0  0  0  0  0
   -0.7733    1.9255    0.0007 C   0  0  0  0  0  0  0  0  0  0  0  0
    2.4759   -0.0888   -0.0005 C   0  0  0  0  0  0  0  0  0  0  0  0
   -2.2309    1.4859   -0.0004 C   0  0  0  0  0  0  0  0  0  0  0  0
   -2.6949   -3.1467    0.0029 C   0  0  0  0  0  0  0  0  0  0  0  0
    3.9182    0.1574   -0.0001 C   0  0  0  0  0  0  0  0  0  0  0  0
    0.0132   -3.6288    0.0012 H   0  0  0  0  0  0  0  0  0  0  0  0
    2.6886   -2.2455   -0.0011 H   0  0  0  0  0  0  0  0  0  0  0  0
    1.9532    1.9603    0.0013 H   0  0  0  0  0  0  0  0  0  0  0  0
   -3.3026   -3.0044    0.9002 H   0  0  0  0  0  0  0  0  0  0  0  0
   -2.2703   -4.1549    0.0092 H   0  0  0  0  0  0  0  0  0  0  0  0
   -3.2974   -3.0131   -0.8993 H   0  0  0  0  0  0  0  0  0  0  0  0
   -4.7025    0.5210   -0.0037 H   0  0  0  0  0  0  0  0  0  0  0  0
   -4.2366   -1.1606   -0.0058 H   0  0  0  0  0  0  0  0  0  0  0  0
   -1.2120    3.7843    0.0032 H   0  0  0  0  0  0  0  0  0  0  0  0
    3.6041    2.2725   -0.0002 H   0  0  0  0  0  0  0  0  0  0  0  0
    5.2269    1.7608    0.0005 H   0  0  0  0  0  0  0  0  0  0  0  0
  1 17  1  0  0  0  0
  2 19  2  0  0  0  0
  3  9  2  0  0  0  0
  3 12  1  0  0  0  0
  3 18  1  0  0  0  0
  4 11  1  0  0  0  0
  4 16  1  0  0  0  0
  4 22  1  0  0  0  0
  5 13  1  0  0  0  0
  5 26  1  0  0  0  0
  5 27  1  0  0  0  0
  6 15  2  0  0  0  0
  6 28  1  0  0  0  0
  7 19  1  0  0  0  0
  7 29  1  0  0  0  0
  7 30  1  0  0  0  0
  8  9  1  0  0  0  0
  8 10  1  0  0  0  0
  8 11  2  0  0  0  0
  9 13  1  0  0  0  0
 10 12  2  0  0  0  0
 10 14  1  0  0  0  0
 11 15  1  0  0  0  0
 12 20  1  0  0  0  0
 13 17  2  0  0  0  0
 14 16  2  0  0  0  0
 14 21  1  0  0  0  0
 15 17  1  0  0  0  0
 16 19  1  0  0  0  0
 18 23  1  0  0  0  0
 18 24  1  0  0  0  0
 18 25  1  0  0  0  0
M  CHG  1   3   1
M  END
> <PUBCHEM_COMPOUND_CID>
135929552

> <PUBCHEM_CONFORMER_RMSD>
0.6

> <PUBCHEM_CONFORMER_DIVERSEORDER>
1
2

> <PUBCHEM_MMFF94_PARTIAL_CHARGES>
26
1 -0.14
11 0.11
12 0.14
13 0.11
14 -0.15
15 0.42
16 0.11
17 0.15
18 0.35
19 0.62
2 -0.57
20 0.15
21 0.15
22 0.4
26 0.4
27 0.4
28 0.4
29 0.37
3 -0.04
30 0.37
4 -0.6
5 -0.9
6 -0.85
7 -0.8
8 0.01
9 0.37

> <PUBCHEM_EFFECTIVE_ROTOR_COUNT>
1

> <PUBCHEM_PHARMACOPHORE_FEATURES>
11
1 2 acceptor
1 4 cation
1 4 donor
1 5 cation
1 5 donor
1 6 acceptor
1 6 donor
1 7 donor
5 3 8 9 10 12 rings
6 4 8 10 11 14 16 rings
6 8 9 11 13 15 17 rings

> <PUBCHEM_HEAVY_ATOM_COUNT>
19

> <PUBCHEM_ATOM_DEF_STEREO_COUNT>
0

> <PUBCHEM_ATOM_UDEF_STEREO_COUNT>
0

> <PUBCHEM_BOND_DEF_STEREO_COUNT>
0

> <PUBCHEM_BOND_UDEF_STEREO_COUNT>
0

> <PUBCHEM_ISOTOPIC_ATOM_COUNT>
0

> <PUBCHEM_COMPONENT_COUNT>
1

> <PUBCHEM_CACTVS_TAUTO_COUNT>
-1

> <PUBCHEM_CONFORMER_ID>
081A1ED000000001

> <PUBCHEM_MMFF94_ENERGY>
87.4261

> <PUBCHEM_FEATURE_SELFOVERLAP>
56.065

> <PUBCHEM_SHAPE_FINGERPRINT>
10319926 262 18269813416871009738
10411042 1 18050287264924759107
10493431 412 18269845224776869649
10608611 8 18413386545044535912
10616163 171 18411420622517781030
10967382 1 18410575063209393415
1100329 8 18338239392109985105
11132069 177 18411978087676093968
11578080 2 16915083260796678027
12173636 292 18411133662651068662
12390115 104 18127991735865793929
13027679 85 18340485672711587109
13140716 1 18122634009562043779
13380535 76 18341048502200156950
13583140 156 16950279581241862257
138480 1 16753250108537861027
14790565 3 18339652135534704257
15042514 8 18409169904529419794
15196674 1 18338516322409909700
15309172 13 18267031561135114601
16945 1 17545883724765077829
193761 8 17906452478288790661
19591789 44 18338801100380248195
20510252 161 18271246023564183409
21029758 11 18123464144772420015
21160774 45 18335693932212553517
21267235 1 18409739451668535186
221490 88 17255117268883304683
2334 1 18050568748379783599
23402539 116 18343011199375544271
23557571 272 18272661142600442212
23559900 14 18271524192328413038
238 59 16166623288851708621
2748010 2 17907007731850598221
3091708 16 9128504516127595243
335352 9 18194401087580108854
34934 24 18409160039020987899
352729 6 18339924814269971966
43471831 8 18263361386947646074
5104073 3 18409729521962493712
54173680 148 18337955700366049930
58051976 378 18124872361374630924
7097593 13 17898832571036123746
7364860 26 17764025766200235886
8809292 202 18336266837689404026
9709674 26 18343305825610979382

> <PUBCHEM_SHAPE_MULTIPOLES>
362.11
6.67
3.48
0.59
5.57
0.32
0
-1.7
0
-2.99
0
-0.03
0.01
0

> <PUBCHEM_SHAPE_SELFOVERLAP>
800.381

> <PUBCHEM_SHAPE_VOLUME>
196.7

> <PUBCHEM_COORDINATE_TYPE>
2
5
10

$$$$
