135926572
  -OEChem-03292013293D

 44 45  0     1  0  0  0  0  0999 V2000
   -0.9241    1.3262   -0.4890 O   0  5  0  0  0  0  0  0  0  0  0  0
   -0.4922    2.5904    1.3684 O   0  0  0  0  0  0  0  0  0  0  0  0
    1.8346    1.8758   -1.8924 O   0  0  0  0  0  0  0  0  0  0  0  0
   -5.7966   -0.9030   -0.3769 O   0  5  0  0  0  0  0  0  0  0  0  0
   -5.1344    1.1597   -1.1116 O   0  0  0  0  0  0  0  0  0  0  0  0
    2.4462    3.2397    0.4509 O   0  0  0  0  0  0  0  0  0  0  0  0
   -3.1600    0.7168    1.0553 N   0  0  0  0  0  0  0  0  0  0  0  0
    1.5684   -2.9690   -0.4170 N   0  0  0  0  0  0  0  0  0  0  0  0
   -1.8129    0.6666    1.5830 C   0  0  1  0  0  0  0  0  0  0  0  0
   -1.2406   -0.7536    1.5022 C   0  0  0  0  0  0  0  0  0  0  0  0
   -1.6025   -1.4969    0.2270 C   0  0  0  0  0  0  0  0  0  0  0  0
   -3.6222   -0.1613    0.1043 C   0  0  0  0  0  0  0  0  0  0  0  0
   -2.9137   -1.2112   -0.3379 C   0  0  0  0  0  0  0  0  0  0  0  0
   -0.7692   -2.3814   -0.3403 C   0  0  0  0  0  0  0  0  0  0  0  0
   -0.9967    1.6203    0.7363 C   0  0  0  0  0  0  0  0  0  0  0  0
    3.8737   -2.2084   -0.1213 C   0  0  0  0  0  0  0  0  0  0  0  0
    3.4926   -0.7559    0.0277 C   0  0  0  0  0  0  0  0  0  0  0  0
    2.7861   -3.1623    0.3645 C   0  0  0  0  0  0  0  0  0  0  0  0
    0.5433   -2.6242    0.2814 C   0  0  0  0  0  0  0  0  0  0  0  0
   -4.9836    0.0525   -0.5226 C   0  0  0  0  0  0  0  0  0  0  0  0
    2.8334   -0.0976   -1.0104 C   0  0  0  0  0  0  0  0  0  0  0  0
    3.7988   -0.0718    1.2042 C   0  0  0  0  0  0  0  0  0  0  0  0
    2.4802    1.2447   -0.8722 C   0  0  0  0  0  0  0  0  0  0  0  0
    3.4458    1.2706    1.3423 C   0  0  0  0  0  0  0  0  0  0  0  0
    2.7865    1.9289    0.3042 C   0  0  0  0  0  0  0  0  0  0  0  0
    1.5592    1.1045   -3.0602 C   0  0  0  0  0  0  0  0  0  0  0  0
   -1.8166    1.0022    2.6267 H   0  0  0  0  0  0  0  0  0  0  0  0
   -1.6414   -1.3349    2.3442 H   0  0  0  0  0  0  0  0  0  0  0  0
   -0.1604   -0.6658    1.6568 H   0  0  0  0  0  0  0  0  0  0  0  0
   -3.7522    1.5077    1.2867 H   0  0  0  0  0  0  0  0  0  0  0  0
   -3.2849   -1.8566   -1.1288 H   0  0  0  0  0  0  0  0  0  0  0  0
   -0.9922   -2.8817   -1.2760 H   0  0  0  0  0  0  0  0  0  0  0  0
    4.1066   -2.4140   -1.1744 H   0  0  0  0  0  0  0  0  0  0  0  0
    4.8025   -2.4016    0.4301 H   0  0  0  0  0  0  0  0  0  0  0  0
    3.1273   -4.1942    0.2215 H   0  0  0  0  0  0  0  0  0  0  0  0
    2.6373   -3.0324    1.4444 H   0  0  0  0  0  0  0  0  0  0  0  0
    0.6012   -2.5263    1.3777 H   0  0  0  0  0  0  0  0  0  0  0  0
    2.6240   -0.6784   -1.9023 H   0  0  0  0  0  0  0  0  0  0  0  0
    4.3098   -0.5747    2.0209 H   0  0  0  0  0  0  0  0  0  0  0  0
    3.6893    1.7913    2.2645 H   0  0  0  0  0  0  0  0  0  0  0  0
    2.7341    3.5452    1.3283 H   0  0  0  0  0  0  0  0  0  0  0  0
    0.8791    0.2732   -2.8444 H   0  0  0  0  0  0  0  0  0  0  0  0
    2.4802    0.7742   -3.5524 H   0  0  0  0  0  0  0  0  0  0  0  0
    1.0408    1.7626   -3.7654 H   0  0  0  0  0  0  0  0  0  0  0  0
  1 15  1  0  0  0  0
  2 15  2  0  0  0  0
  3 23  1  0  0  0  0
  3 26  1  0  0  0  0
  4 20  1  0  0  0  0
  5 20  2  0  0  0  0
  6 25  1  0  0  0  0
  6 41  1  0  0  0  0
  7  9  1  0  0  0  0
  7 12  1  0  0  0  0
  7 30  1  0  0  0  0
  8 18  1  0  0  0  0
  8 19  2  0  0  0  0
  9 10  1  0  0  0  0
  9 15  1  0  0  0  0
  9 27  1  0  0  0  0
 10 11  1  0  0  0  0
 10 28  1  0  0  0  0
 10 29  1  0  0  0  0
 11 13  1  0  0  0  0
 11 14  2  0  0  0  0
 12 13  2  0  0  0  0
 12 20  1  0  0  0  0
 13 31  1  0  0  0  0
 14 19  1  0  0  0  0
 14 32  1  0  0  0  0
 16 17  1  0  0  0  0
 16 18  1  0  0  0  0
 16 33  1  0  0  0  0
 16 34  1  0  0  0  0
 17 21  2  0  0  0  0
 17 22  1  0  0  0  0
 18 35  1  0  0  0  0
 18 36  1  0  0  0  0
 19 37  1  0  0  0  0
 21 23  1  0  0  0  0
 21 38  1  0  0  0  0
 22 24  2  0  0  0  0
 22 39  1  0  0  0  0
 23 25  2  0  0  0  0
 24 25  1  0  0  0  0
 24 40  1  0  0  0  0
 26 42  1  0  0  0  0
 26 43  1  0  0  0  0
 26 44  1  0  0  0  0
M  CHG  2   1  -1   4  -1
M  END
> <PUBCHEM_COMPOUND_CID>
135926572

> <PUBCHEM_CONFORMER_RMSD>
0.8

> <PUBCHEM_CONFORMER_DIVERSEORDER>
1
84
55
142
27
120
217
46
101
72
237
189
107
62
94
178
35
81
168
195
78
79
26
197
36
184
71
106
221
11
227
92
148
68
10
203
231
206
31
220
121
89
216
236
114
16
13
117
2
8
4
85
90
171
204
214
119
102
7
228
233
83
34
169
140
202
181
21
158
134
240
41
25
44
19
172
42
225
133
163
222
150
23
18
223
192
156
167
210
64
76
29
40
38
201
45
24
193
190
139
199
205
146
80
188
157
105
66
100
108
191
12
219
77
161
6
138
43
115
177
208
212
14
152
91
136
128
234
5
56
110
153
59
54
218
238
32
15
74
67
49
173
65
96
51
149
60
116
131
87
113
99
22
104
129
48
183
209
207
229
185
47
145
226
52
69
86
180
3
17
143
98
186
125
165
224
118
232
97
93
63
20
82
58
75
162
164
33
39
235
103
155
174
95
170
127
50
239
88
159
112
122
144
30
9
57
175
179
194
123
130
182
61
154
151
215
70
141
53
137
73
196
37
135
187
28
211
230
160
124
213
200
176
198
147
109
132
166
111
126

> <PUBCHEM_MMFF94_PARTIAL_CHARGES>
34
1 -0.9
10 0.14
11 -0.14
12 -0.15
13 -0.15
14 -0.14
15 0.91
16 0.14
17 -0.14
18 0.25
19 0.38
2 -0.9
20 1.05
21 -0.15
22 -0.15
23 0.08
24 -0.15
25 0.08
26 0.28
3 -0.36
30 0.4
31 0.15
32 0.15
37 0.06
38 0.15
39 0.15
4 -0.9
40 0.15
41 0.45
5 -0.9
6 -0.53
7 -0.87
8 -0.7
9 0.26

> <PUBCHEM_EFFECTIVE_ROTOR_COUNT>
7.6

> <PUBCHEM_PHARMACOPHORE_FEATURES>
13
1 1 acceptor
1 2 acceptor
1 3 acceptor
1 4 acceptor
1 5 acceptor
1 6 donor
1 7 cation
1 7 donor
1 8 acceptor
3 1 2 15 anion
3 4 5 20 anion
6 17 21 22 23 24 25 rings
6 7 9 10 11 12 13 rings

> <PUBCHEM_HEAVY_ATOM_COUNT>
26

> <PUBCHEM_ATOM_DEF_STEREO_COUNT>
1

> <PUBCHEM_ATOM_UDEF_STEREO_COUNT>
0

> <PUBCHEM_BOND_DEF_STEREO_COUNT>
1

> <PUBCHEM_BOND_UDEF_STEREO_COUNT>
0

> <PUBCHEM_ISOTOPIC_ATOM_COUNT>
0

> <PUBCHEM_COMPONENT_COUNT>
1

> <PUBCHEM_CACTVS_TAUTO_COUNT>
-1

> <PUBCHEM_CONFORMER_ID>
081A132C00000001

> <PUBCHEM_MMFF94_ENERGY>
72.4928

> <PUBCHEM_FEATURE_SELFOVERLAP>
66.081

> <PUBCHEM_SHAPE_FINGERPRINT>
10675989 125 18412259562711834121
11370993 70 18339917246484738664
12011746 2 18336552625319792622
12156800 1 13105842870239888986
12166972 35 18333735693250298871
12592029 89 18336269032987261715
12788726 201 17489039231260131177
13533116 47 18342458144936939339
13965767 371 17971452217325955664
14251757 17 17824524293674917341
17349148 13 18335989696677268035
18336668 15 18262805034696870550
192875 21 18342177734959280330
19930381 70 18341609265809412099
20715895 44 18262507088504495853
20775530 9 17903370207978608330
22149856 69 18341346578191312203
22749437 52 18338237171195479938
23559900 14 18342453764049263736
238 59 18339376226740059802
338550 245 18193005815856879817
463206 1 18342171202546508375
474 4 18260270754277868738
508706 21 17314783002341125709
6443956 14 18337107852552497044
6669772 16 17770478027239891481
9981440 41 17907570681967862538

> <PUBCHEM_SHAPE_MULTIPOLES>
489.89
9.02
3.44
1.71
9.89
0.94
-0.92
0.29
-0.82
-3
0.17
-0.69
-1.07
-0.23

> <PUBCHEM_SHAPE_SELFOVERLAP>
1034.835

> <PUBCHEM_SHAPE_VOLUME>
271.4

> <PUBCHEM_COORDINATE_TYPE>
2
5
10

$$$$
