135940
  -OEChem-03292013323D

 31 30  0     1  0  0  0  0  0999 V2000
   -0.2747    2.1545   -1.0448 O   0  0  0  0  0  0  0  0  0  0  0  0
   -0.8202   -1.2977   -0.6674 O   0  0  0  0  0  0  0  0  0  0  0  0
    3.0466    0.5019    1.4465 O   0  0  0  0  0  0  0  0  0  0  0  0
   -3.6920    0.8297   -0.7361 O   0  0  0  0  0  0  0  0  0  0  0  0
   -5.2864   -0.7485   -0.3968 O   0  0  0  0  0  0  0  0  0  0  0  0
    1.4524    0.0075   -0.1659 N   0  0  0  0  0  0  0  0  0  0  0  0
   -1.9975   -0.1684    0.9832 N   0  0  0  0  0  0  0  0  0  0  0  0
    5.0199    0.2860   -0.4680 N   0  0  0  0  0  0  0  0  0  0  0  0
    0.3026    0.4542    0.5771 C   0  0  1  0  0  0  0  0  0  0  0  0
    0.0108    1.9311    0.3314 C   0  0  0  0  0  0  0  0  0  0  0  0
    3.7757   -0.4548   -0.6604 C   0  0  2  0  0  0  0  0  0  0  0  0
   -0.8808   -0.4312    0.2024 C   0  0  0  0  0  0  0  0  0  0  0  0
    2.7484    0.0683    0.3355 C   0  0  0  0  0  0  0  0  0  0  0  0
    4.0103   -1.9446   -0.4439 C   0  0  0  0  0  0  0  0  0  0  0  0
   -3.2344   -0.9029    0.8521 C   0  0  0  0  0  0  0  0  0  0  0  0
   -4.1808   -0.2851   -0.1448 C   0  0  0  0  0  0  0  0  0  0  0  0
    0.5046    0.3059    1.6452 H   0  0  0  0  0  0  0  0  0  0  0  0
    1.3039   -0.3557   -1.1033 H   0  0  0  0  0  0  0  0  0  0  0  0
    0.8717    2.5520    0.6014 H   0  0  0  0  0  0  0  0  0  0  0  0
   -0.8474    2.2838    0.9103 H   0  0  0  0  0  0  0  0  0  0  0  0
    3.4230   -0.2845   -1.6840 H   0  0  0  0  0  0  0  0  0  0  0  0
   -1.9533    0.5525    1.6969 H   0  0  0  0  0  0  0  0  0  0  0  0
    3.0810   -2.5070   -0.5870 H   0  0  0  0  0  0  0  0  0  0  0  0
    4.3624   -2.1524    0.5732 H   0  0  0  0  0  0  0  0  0  0  0  0
    4.7517   -2.3353   -1.1491 H   0  0  0  0  0  0  0  0  0  0  0  0
   -3.7150   -0.9054    1.8343 H   0  0  0  0  0  0  0  0  0  0  0  0
   -3.0148   -1.9270    0.5362 H   0  0  0  0  0  0  0  0  0  0  0  0
    4.8726    1.2677   -0.6997 H   0  0  0  0  0  0  0  0  0  0  0  0
    5.7267   -0.0561   -1.1181 H   0  0  0  0  0  0  0  0  0  0  0  0
    0.4951    1.8494   -1.5547 H   0  0  0  0  0  0  0  0  0  0  0  0
   -4.3254    1.2117   -1.3804 H   0  0  0  0  0  0  0  0  0  0  0  0
  1 10  1  0  0  0  0
  1 30  1  0  0  0  0
  2 12  2  0  0  0  0
  3 13  2  0  0  0  0
  4 16  1  0  0  0  0
  4 31  1  0  0  0  0
  5 16  2  0  0  0  0
  6  9  1  0  0  0  0
  6 13  1  0  0  0  0
  6 18  1  0  0  0  0
  7 12  1  0  0  0  0
  7 15  1  0  0  0  0
  7 22  1  0  0  0  0
  8 11  1  0  0  0  0
  8 28  1  0  0  0  0
  8 29  1  0  0  0  0
  9 10  1  0  0  0  0
  9 12  1  0  0  0  0
  9 17  1  0  0  0  0
 10 19  1  0  0  0  0
 10 20  1  0  0  0  0
 11 13  1  0  0  0  0
 11 14  1  0  0  0  0
 11 21  1  0  0  0  0
 14 23  1  0  0  0  0
 14 24  1  0  0  0  0
 14 25  1  0  0  0  0
 15 16  1  0  0  0  0
 15 26  1  0  0  0  0
 15 27  1  0  0  0  0
M  END
> <PUBCHEM_COMPOUND_CID>
135940

> <PUBCHEM_CONFORMER_RMSD>
0.8

> <PUBCHEM_CONFORMER_DIVERSEORDER>
1
69
6
124
123
85
77
67
100
19
97
11
72
114
16
57
109
45
53
103
8
116
83
42
91
101
21
132
74
29
10
23
122
25
120
115
130
88
65
94
54
76
110
9
113
31
126
70
86
5
64
81
46
24
68
102
118
79
127
71
84
112
27
125
128
89
18
95
38
111
20
99
3
35
15
75
26
119
98
17
39
80
47
41
90
108
33
52
105
58
34
4
59
40
37
62
78
61
12
14
43
63
51
55
121
104
49
48
60
107
93
92
96
66
30
28
36
87
131
44
50
7
117
82
129
13
22
32
56
2
73
106

> <PUBCHEM_MMFF94_PARTIAL_CHARGES>
21
1 -0.68
10 0.28
11 0.33
12 0.57
13 0.57
15 0.36
16 0.66
18 0.37
2 -0.57
22 0.37
28 0.36
29 0.36
3 -0.57
30 0.4
31 0.5
4 -0.65
5 -0.57
6 -0.73
7 -0.73
8 -0.99
9 0.36

> <PUBCHEM_EFFECTIVE_ROTOR_COUNT>
8

> <PUBCHEM_PHARMACOPHORE_FEATURES>
11
1 1 acceptor
1 1 donor
1 2 acceptor
1 3 acceptor
1 4 acceptor
1 5 acceptor
1 6 donor
1 7 donor
1 8 cation
1 8 donor
3 4 5 16 anion

> <PUBCHEM_HEAVY_ATOM_COUNT>
16

> <PUBCHEM_ATOM_DEF_STEREO_COUNT>
2

> <PUBCHEM_ATOM_UDEF_STEREO_COUNT>
0

> <PUBCHEM_BOND_DEF_STEREO_COUNT>
0

> <PUBCHEM_BOND_UDEF_STEREO_COUNT>
0

> <PUBCHEM_ISOTOPIC_ATOM_COUNT>
0

> <PUBCHEM_COMPONENT_COUNT>
1

> <PUBCHEM_CACTVS_TAUTO_COUNT>
4

> <PUBCHEM_CONFORMER_ID>
0002130400000001

> <PUBCHEM_MMFF94_ENERGY>
20.1134

> <PUBCHEM_FEATURE_SELFOVERLAP>
55.885

> <PUBCHEM_SHAPE_FINGERPRINT>
10751810 167 17385446518228782347
12032990 46 18411984654459575851
122479 349 8574415522577215152
124424 183 18113338635086716627
13690532 89 18131070446049086155
14993402 34 18411982481285329819
15048467 5 16225764125212681999
15239154 128 15719109158511976663
15848700 24 18410851074993134300
17041 50 18114459054594411193
17834072 33 16487254413279608432
17862501 102 16702583826877664771
18186145 218 16805323318315347660
187816 3 17676210173481642664
200 152 17489868219987623131
20621476 66 18261398780821354949
20645477 70 18342741771898637014
20871999 31 18113904835840082284
22485316 2 18411420622301308258
23402539 116 14764347129006072449
23532345 42 18411130359620959160
23559900 14 17203039794191652938
265663 24 14979958072893025415
2871803 45 18335708196168585046
31174 14 17775277266809534752
3286 77 17632577119875178170
4047638 21 7997966869555458018
6333272 397 9439401328775705574
68521 5 18187082819452848445

> <PUBCHEM_SHAPE_MULTIPOLES>
284.98
9.76
1.63
1
1.44
0.39
-0.13
-3.5
1.5
-0.49
0.31
-0.04
0.14
0.56

> <PUBCHEM_SHAPE_SELFOVERLAP>
552.362

> <PUBCHEM_SHAPE_VOLUME>
171.2

> <PUBCHEM_COORDINATE_TYPE>
2
5
10

$$$$
