135905454
  -OEChem-03292013293D

 64 68  0     1  0  0  0  0  0999 V2000
   -7.1717   -3.0768    0.1451 O   0  0  0  0  0  0  0  0  0  0  0  0
    0.8633    4.4509    1.3498 O   0  0  0  0  0  0  0  0  0  0  0  0
    5.0623   -1.4716   -1.4426 O   0  0  0  0  0  0  0  0  0  0  0  0
   -1.7503    1.7411   -0.5450 N   0  0  0  0  0  0  0  0  0  0  0  0
   -5.2417   -1.8847    0.6623 N   0  0  0  0  0  0  0  0  0  0  0  0
   -1.9541    3.8146    0.5726 N   0  0  0  0  0  0  0  0  0  0  0  0
   -0.8598    0.8181   -0.9499 N   0  0  0  0  0  0  0  0  0  0  0  0
    2.4932    2.9699    0.7106 N   0  0  0  0  0  0  0  0  0  0  0  0
   -3.8189    0.5960    0.1264 C   0  0  0  0  0  0  0  0  0  0  0  0
   -3.1725    1.5954   -0.8298 C   0  0  1  0  0  0  0  0  0  0  0  0
   -5.3149    0.4381   -0.1772 C   0  0  0  0  0  0  0  0  0  0  0  0
   -3.1212   -0.7684    0.0451 C   0  0  0  0  0  0  0  0  0  0  0  0
   -3.8433    2.9791   -0.7648 C   0  0  0  0  0  0  0  0  0  0  0  0
   -5.9507   -0.6048    0.7371 C   0  0  0  0  0  0  0  0  0  0  0  0
   -3.8004   -1.8042    0.9421 C   0  0  0  0  0  0  0  0  0  0  0  0
   -3.4052    3.7584    0.4797 C   0  0  0  0  0  0  0  0  0  0  0  0
   -1.1915    2.7960    0.1238 C   0  0  0  0  0  0  0  0  0  0  0  0
    0.1578    2.5425    0.1633 C   0  0  0  0  0  0  0  0  0  0  0  0
    0.3028    1.3117   -0.5110 C   0  0  0  0  0  0  0  0  0  0  0  0
   -5.9617   -3.0422    0.3757 C   0  0  0  0  0  0  0  0  0  0  0  0
    1.5285    0.5930   -0.7509 C   0  0  0  0  0  0  0  0  0  0  0  0
    1.1538    3.3794    0.7655 C   0  0  0  0  0  0  0  0  0  0  0  0
   -5.2259   -4.3222    0.3510 C   0  0  0  0  0  0  0  0  0  0  0  0
    1.9816   -0.3443    0.1776 C   0  0  0  0  0  0  0  0  0  0  0  0
    2.2630    0.8362   -1.9115 C   0  0  0  0  0  0  0  0  0  0  0  0
   -5.6534   -5.2957   -0.4558 C   0  0  0  0  0  0  0  0  0  0  0  0
    3.1692   -1.0381   -0.0544 C   0  0  0  0  0  0  0  0  0  0  0  0
    3.4506    0.1425   -2.1435 C   0  0  0  0  0  0  0  0  0  0  0  0
    3.9037   -0.7946   -1.2150 C   0  0  0  0  0  0  0  0  0  0  0  0
    5.9534   -1.5950   -0.3897 C   0  0  0  0  0  0  0  0  0  0  0  0
    6.2488   -0.4890    0.4073 C   0  0  0  0  0  0  0  0  0  0  0  0
    6.5558   -2.8251   -0.1264 C   0  0  0  0  0  0  0  0  0  0  0  0
    7.1467   -0.6132    1.4676 C   0  0  0  0  0  0  0  0  0  0  0  0
    7.4534   -2.9495    0.9341 C   0  0  0  0  0  0  0  0  0  0  0  0
    7.7490   -1.8434    1.7309 C   0  0  0  0  0  0  0  0  0  0  0  0
   -3.7145    0.9552    1.1597 H   0  0  0  0  0  0  0  0  0  0  0  0
   -3.2440    1.2276   -1.8623 H   0  0  0  0  0  0  0  0  0  0  0  0
   -5.8635    1.3702   -0.0198 H   0  0  0  0  0  0  0  0  0  0  0  0
   -2.0861   -0.7174    0.3912 H   0  0  0  0  0  0  0  0  0  0  0  0
   -3.1200   -1.1319   -0.9903 H   0  0  0  0  0  0  0  0  0  0  0  0
   -5.4557    0.1412   -1.2242 H   0  0  0  0  0  0  0  0  0  0  0  0
   -4.9314    2.9516   -0.8434 H   0  0  0  0  0  0  0  0  0  0  0  0
   -3.5104    3.5504   -1.6443 H   0  0  0  0  0  0  0  0  0  0  0  0
   -3.2995   -2.7629    0.8034 H   0  0  0  0  0  0  0  0  0  0  0  0
   -3.6927   -1.5264    1.9974 H   0  0  0  0  0  0  0  0  0  0  0  0
   -5.9118   -0.2731    1.7818 H   0  0  0  0  0  0  0  0  0  0  0  0
   -7.0067   -0.7271    0.4755 H   0  0  0  0  0  0  0  0  0  0  0  0
   -3.7997    4.7792    0.4312 H   0  0  0  0  0  0  0  0  0  0  0  0
   -3.8112    3.2977    1.3869 H   0  0  0  0  0  0  0  0  0  0  0  0
   -1.5502    4.6014    1.0726 H   0  0  0  0  0  0  0  0  0  0  0  0
   -4.3843   -4.4915    1.0091 H   0  0  0  0  0  0  0  0  0  0  0  0
    1.4180   -0.5485    1.0849 H   0  0  0  0  0  0  0  0  0  0  0  0
    1.9241    1.5642   -2.6448 H   0  0  0  0  0  0  0  0  0  0  0  0
    2.8482    2.1325    0.2769 H   0  0  0  0  0  0  0  0  0  0  0  0
    3.2034    3.5542    1.1408 H   0  0  0  0  0  0  0  0  0  0  0  0
   -5.1402   -6.2518   -0.4688 H   0  0  0  0  0  0  0  0  0  0  0  0
   -6.5011   -5.1788   -1.1220 H   0  0  0  0  0  0  0  0  0  0  0  0
    3.4859   -1.7788    0.6751 H   0  0  0  0  0  0  0  0  0  0  0  0
    4.0189    0.3367   -3.0490 H   0  0  0  0  0  0  0  0  0  0  0  0
    5.8109    0.4862    0.2113 H   0  0  0  0  0  0  0  0  0  0  0  0
    6.3290   -3.6899   -0.7438 H   0  0  0  0  0  0  0  0  0  0  0  0
    7.3807    0.2490    2.0852 H   0  0  0  0  0  0  0  0  0  0  0  0
    7.9225   -3.9073    1.1391 H   0  0  0  0  0  0  0  0  0  0  0  0
    8.4489   -1.9399    2.5558 H   0  0  0  0  0  0  0  0  0  0  0  0
  1 20  2  0  0  0  0
  2 22  2  0  0  0  0
  3 29  1  0  0  0  0
  3 30  1  0  0  0  0
  4  7  1  0  0  0  0
  4 10  1  0  0  0  0
  4 17  1  0  0  0  0
  5 14  1  0  0  0  0
  5 15  1  0  0  0  0
  5 20  1  0  0  0  0
  6 16  1  0  0  0  0
  6 17  1  0  0  0  0
  6 50  1  0  0  0  0
  7 19  2  0  0  0  0
  8 22  1  0  0  0  0
  8 54  1  0  0  0  0
  8 55  1  0  0  0  0
  9 10  1  0  0  0  0
  9 11  1  0  0  0  0
  9 12  1  0  0  0  0
  9 36  1  0  0  0  0
 10 13  1  0  0  0  0
 10 37  1  0  0  0  0
 11 14  1  0  0  0  0
 11 38  1  0  0  0  0
 11 41  1  0  0  0  0
 12 15  1  0  0  0  0
 12 39  1  0  0  0  0
 12 40  1  0  0  0  0
 13 16  1  0  0  0  0
 13 42  1  0  0  0  0
 13 43  1  0  0  0  0
 14 46  1  0  0  0  0
 14 47  1  0  0  0  0
 15 44  1  0  0  0  0
 15 45  1  0  0  0  0
 16 48  1  0  0  0  0
 16 49  1  0  0  0  0
 17 18  2  0  0  0  0
 18 19  1  0  0  0  0
 18 22  1  0  0  0  0
 19 21  1  0  0  0  0
 20 23  1  0  0  0  0
 21 24  2  0  0  0  0
 21 25  1  0  0  0  0
 23 26  2  0  0  0  0
 23 51  1  0  0  0  0
 24 27  1  0  0  0  0
 24 52  1  0  0  0  0
 25 28  2  0  0  0  0
 25 53  1  0  0  0  0
 26 56  1  0  0  0  0
 26 57  1  0  0  0  0
 27 29  2  0  0  0  0
 27 58  1  0  0  0  0
 28 29  1  0  0  0  0
 28 59  1  0  0  0  0
 30 31  2  0  0  0  0
 30 32  1  0  0  0  0
 31 33  1  0  0  0  0
 31 60  1  0  0  0  0
 32 34  2  0  0  0  0
 32 61  1  0  0  0  0
 33 35  2  0  0  0  0
 33 62  1  0  0  0  0
 34 35  1  0  0  0  0
 34 63  1  0  0  0  0
 35 64  1  0  0  0  0
M  END
> <PUBCHEM_COMPOUND_CID>
135905454

> <PUBCHEM_CONFORMER_RMSD>
1

> <PUBCHEM_CONFORMER_DIVERSEORDER>
1
26
103
35
87
6
71
50
68
77
92
64
46
69
59
30
41
89
56
101
85
102
93
16
45
42
7
98
94
96
73
40
83
9
65
2
67
61
24
88
76
95
100
57
12
11
99
28
74
90
20
97
25
108
54
8
32
72
21
33
78
104
15
75
82
5
81
53
37
91
79
43
106
10
3
47
63
31
105
4
58
107
39
18
51
19
66
23
84
38
86
29
60
13
17
70
52
44
49
80
14
34
55
62
48
36
27
22

> <PUBCHEM_MMFF94_PARTIAL_CHARGES>
46
1 -0.57
10 0.26
14 0.3
15 0.3
16 0.37
17 -0.07
18 -0.09
19 0.23
2 -0.57
20 0.62
21 0.05
22 0.72
23 -0.14
24 -0.15
25 -0.15
26 -0.3
27 -0.15
28 -0.15
29 0.08
3 -0.17
30 0.08
31 -0.15
32 -0.15
33 -0.15
34 -0.15
35 -0.15
4 0.31
5 -0.66
50 0.4
51 0.15
52 0.15
53 0.15
54 0.37
55 0.37
56 0.15
57 0.15
58 0.15
59 0.15
6 -0.85
60 0.15
61 0.15
62 0.15
63 0.15
64 0.15
7 -0.71
8 -0.8

> <PUBCHEM_EFFECTIVE_ROTOR_COUNT>
9

> <PUBCHEM_PHARMACOPHORE_FEATURES>
13
1 1 acceptor
1 2 acceptor
1 26 hydrophobe
1 3 acceptor
1 6 cation
1 6 donor
1 7 acceptor
1 8 donor
5 4 7 17 18 19 rings
6 21 24 25 27 28 29 rings
6 30 31 32 33 34 35 rings
6 4 6 10 13 16 17 rings
6 5 9 11 12 14 15 rings

> <PUBCHEM_HEAVY_ATOM_COUNT>
35

> <PUBCHEM_ATOM_DEF_STEREO_COUNT>
0

> <PUBCHEM_ATOM_UDEF_STEREO_COUNT>
1

> <PUBCHEM_BOND_DEF_STEREO_COUNT>
0

> <PUBCHEM_BOND_UDEF_STEREO_COUNT>
0

> <PUBCHEM_ISOTOPIC_ATOM_COUNT>
0

> <PUBCHEM_COMPONENT_COUNT>
1

> <PUBCHEM_CACTVS_TAUTO_COUNT>
-1

> <PUBCHEM_CONFORMER_ID>
0819C0AE00000001

> <PUBCHEM_MMFF94_ENERGY>
103.4593

> <PUBCHEM_FEATURE_SELFOVERLAP>
66.089

> <PUBCHEM_SHAPE_FINGERPRINT>
10100884 174 18260546745188615194
10169797 241 18123490507144630166
10254770 206 18340764953150855743
10622 236 18114184163285912943
11088757 655 18409725167044937930
11136131 41 17618502520557434313
11607047 403 17977664543896557348
11828042 38 16826700298953404815
11963148 33 17979634859510218230
12166972 35 17895199866427889620
12202916 173 18058438821400790869
12522641 68 16594756701216077668
13383668 262 18118125999309806460
13540713 4 18338502132514158565
13782708 43 18261110802614551702
14068700 675 18259989258368939108
14725015 67 18408603691076184147
14747281 78 11098668773096890347
15183329 4 15213310677684777354
15324884 4 16986333581134701612
15519825 34 18261661598865905010
16067689 391 18040726878399080803
16990366 60 18337390560121973139
17138139 8 18040152916122274338
19246450 95 18125746530108245073
19303781 99 17967817192940406467
19304152 47 10591750035254206333
19611394 137 18343016667106204528
19841028 212 17982174719604615951
20028762 73 18114184086894704442
2260408 40 16343157852297723428
22956985 138 18267018543200536240
23559900 14 18335419101862246117
23569914 152 12470842804719050610
23569943 247 18334866052225421019
24983565 74 17752189605871176650
255183 313 17418366991739923318
2747138 104 18202281365237506504
32027 91 18267866263055983727
3383291 50 18409732825009011219
3418910 222 18342463626213034512
3504750 166 18262516979371515046
392239 28 18341897334315465072
397830 11 18341324527622667024
4073 2 18268148657002279490
4144715 1 17769378224181768128
4616759 239 17916014651589763160
4756326 101 15696614152537912179
484985 159 18337679620791240757
50009960 94 18268420412031039847
5104073 3 18202012022758060409
5718773 13 18336545005752546523
5874358 3 16878486974729981722
7970288 3 18411425033460003615

> <PUBCHEM_SHAPE_MULTIPOLES>
677.77
20.52
6.23
1.38
18.52
1.43
0.31
28.36
-5.68
-10.12
-1.46
2.05
-0.14
-0.24

> <PUBCHEM_SHAPE_SELFOVERLAP>
1479.942

> <PUBCHEM_SHAPE_VOLUME>
364.7

> <PUBCHEM_COORDINATE_TYPE>
2
5
10

$$$$
