135912122
  -OEChem-03292013293D

 59 63  0     1  0  0  0  0  0999 V2000
   -5.1317   -1.3855    2.7504 O   0  0  0  0  0  0  0  0  0  0  0  0
   -6.8604   -1.6327   -1.3069 O   0  5  0  0  0  0  0  0  0  0  0  0
   -8.0681   -1.7543    0.6268 O   0  0  0  0  0  0  0  0  0  0  0  0
   -9.4499    3.4759   -1.2769 O   0  5  0  0  0  0  0  0  0  0  0  0
   -7.2406    3.4658   -1.8556 O   0  0  0  0  0  0  0  0  0  0  0  0
    4.6187    1.9917    1.1978 O   0  0  0  0  0  0  0  0  0  0  0  0
   -5.0466   -0.3785    0.6140 N   0  0  0  0  0  0  0  0  0  0  0  0
    0.8127   -1.2070    0.2312 N   0  0  0  0  0  0  0  0  0  0  0  0
    6.8639    2.2841    1.4380 N   0  0  0  0  0  0  0  0  0  0  0  0
    8.4748    0.9815    0.3331 N   0  0  0  0  0  0  0  0  0  0  0  0
   -4.0168   -0.0831   -0.3751 C   0  0  0  0  0  0  0  0  0  0  0  0
   -6.4439   -0.0506    0.4316 C   0  0  1  0  0  0  0  0  0  0  0  0
   -2.7909   -0.6114    0.2880 C   0  0  0  0  0  0  0  0  0  0  0  0
   -3.1058   -1.1530    1.5352 C   0  0  0  0  0  0  0  0  0  0  0  0
   -4.5497   -1.0073    1.7505 C   0  0  0  0  0  0  0  0  0  0  0  0
   -6.6066    1.2188   -0.4167 C   0  0  0  0  0  0  0  0  0  0  0  0
   -1.4859   -0.6200   -0.1668 C   0  0  0  0  0  0  0  0  0  0  0  0
   -0.5043   -1.1826    0.6559 C   0  0  0  0  0  0  0  0  0  0  0  0
   -2.1562   -1.7141    2.3667 C   0  0  0  0  0  0  0  0  0  0  0  0
   -8.0512    1.7129   -0.5091 C   0  0  0  0  0  0  0  0  0  0  0  0
   -7.1956   -1.2632   -0.1474 C   0  0  0  0  0  0  0  0  0  0  0  0
   -0.8370   -1.7245    1.9115 C   0  0  0  0  0  0  0  0  0  0  0  0
    1.2542   -0.6763   -1.0402 C   0  0  0  0  0  0  0  0  0  0  0  0
    2.7175   -0.8959   -1.2310 C   0  0  0  0  0  0  0  0  0  0  0  0
    5.0446   -0.2538   -0.6970 C   0  0  0  0  0  0  0  0  0  0  0  0
    3.6399   -0.0910   -0.5543 C   0  0  0  0  0  0  0  0  0  0  0  0
    5.4650   -1.2909   -1.5740 C   0  0  0  0  0  0  0  0  0  0  0  0
    6.0609    0.5230   -0.0450 C   0  0  0  0  0  0  0  0  0  0  0  0
    3.1609   -1.8970   -2.0781 C   0  0  0  0  0  0  0  0  0  0  0  0
   -8.2750    3.0157   -1.2841 C   0  0  0  0  0  0  0  0  0  0  0  0
    4.5267   -2.0921   -2.2472 C   0  0  0  0  0  0  0  0  0  0  0  0
    7.4299    0.2591   -0.2724 C   0  0  0  0  0  0  0  0  0  0  0  0
    6.8266   -1.5323   -1.7824 C   0  0  0  0  0  0  0  0  0  0  0  0
    7.7945   -0.7689   -1.1413 C   0  0  0  0  0  0  0  0  0  0  0  0
    5.7556    1.6453    0.9024 C   0  0  0  0  0  0  0  0  0  0  0  0
    8.1581    1.9377    1.1412 C   0  0  0  0  0  0  0  0  0  0  0  0
    9.2117    2.7543    1.8270 C   0  0  0  0  0  0  0  0  0  0  0  0
   -3.9365    0.9961   -0.5288 H   0  0  0  0  0  0  0  0  0  0  0  0
   -4.2359   -0.6132   -1.3055 H   0  0  0  0  0  0  0  0  0  0  0  0
   -6.8554    0.1464    1.4311 H   0  0  0  0  0  0  0  0  0  0  0  0
   -6.2331    1.0479   -1.4348 H   0  0  0  0  0  0  0  0  0  0  0  0
   -5.9916    2.0211    0.0123 H   0  0  0  0  0  0  0  0  0  0  0  0
   -1.2695   -0.1906   -1.1387 H   0  0  0  0  0  0  0  0  0  0  0  0
   -2.4150   -2.1311    3.3329 H   0  0  0  0  0  0  0  0  0  0  0  0
   -8.6742    0.9471   -0.9867 H   0  0  0  0  0  0  0  0  0  0  0  0
   -8.4446    1.8641    0.5039 H   0  0  0  0  0  0  0  0  0  0  0  0
   -0.0655   -2.1594    2.5432 H   0  0  0  0  0  0  0  0  0  0  0  0
    1.4981   -1.6230    0.8530 H   0  0  0  0  0  0  0  0  0  0  0  0
    1.0488    0.4004   -1.1010 H   0  0  0  0  0  0  0  0  0  0  0  0
    0.7054   -1.1525   -1.8628 H   0  0  0  0  0  0  0  0  0  0  0  0
    3.2276    0.6745    0.0939 H   0  0  0  0  0  0  0  0  0  0  0  0
    2.4614   -2.5346   -2.6111 H   0  0  0  0  0  0  0  0  0  0  0  0
    4.8558   -2.8849   -2.9171 H   0  0  0  0  0  0  0  0  0  0  0  0
    7.1544   -2.3249   -2.4528 H   0  0  0  0  0  0  0  0  0  0  0  0
    8.8447   -0.9837   -1.3263 H   0  0  0  0  0  0  0  0  0  0  0  0
    6.6898    3.0489    2.0839 H   0  0  0  0  0  0  0  0  0  0  0  0
    9.8385    3.2363    1.0709 H   0  0  0  0  0  0  0  0  0  0  0  0
    9.8429    2.0920    2.4268 H   0  0  0  0  0  0  0  0  0  0  0  0
    8.7825    3.5217    2.4761 H   0  0  0  0  0  0  0  0  0  0  0  0
  1 15  2  0  0  0  0
  2 21  1  0  0  0  0
  3 21  2  0  0  0  0
  4 30  1  0  0  0  0
  5 30  2  0  0  0  0
  6 35  2  0  0  0  0
  7 11  1  0  0  0  0
  7 12  1  0  0  0  0
  7 15  1  0  0  0  0
  8 18  1  0  0  0  0
  8 23  1  0  0  0  0
  8 48  1  0  0  0  0
  9 35  1  0  0  0  0
  9 36  1  0  0  0  0
  9 56  1  0  0  0  0
 10 32  1  0  0  0  0
 10 36  2  0  0  0  0
 11 13  1  0  0  0  0
 11 38  1  0  0  0  0
 11 39  1  0  0  0  0
 12 16  1  0  0  0  0
 12 21  1  0  0  0  0
 12 40  1  0  0  0  0
 13 14  2  0  0  0  0
 13 17  1  0  0  0  0
 14 15  1  0  0  0  0
 14 19  1  0  0  0  0
 16 20  1  0  0  0  0
 16 41  1  0  0  0  0
 16 42  1  0  0  0  0
 17 18  2  0  0  0  0
 17 43  1  0  0  0  0
 18 22  1  0  0  0  0
 19 22  2  0  0  0  0
 19 44  1  0  0  0  0
 20 30  1  0  0  0  0
 20 45  1  0  0  0  0
 20 46  1  0  0  0  0
 22 47  1  0  0  0  0
 23 24  1  0  0  0  0
 23 49  1  0  0  0  0
 23 50  1  0  0  0  0
 24 26  2  0  0  0  0
 24 29  1  0  0  0  0
 25 26  1  0  0  0  0
 25 27  2  0  0  0  0
 25 28  1  0  0  0  0
 26 51  1  0  0  0  0
 27 31  1  0  0  0  0
 27 33  1  0  0  0  0
 28 32  2  0  0  0  0
 28 35  1  0  0  0  0
 29 31  2  0  0  0  0
 29 52  1  0  0  0  0
 31 53  1  0  0  0  0
 32 34  1  0  0  0  0
 33 34  2  0  0  0  0
 33 54  1  0  0  0  0
 34 55  1  0  0  0  0
 36 37  1  0  0  0  0
 37 57  1  0  0  0  0
 37 58  1  0  0  0  0
 37 59  1  0  0  0  0
M  CHG  2   2  -1   4  -1
M  END
> <PUBCHEM_COMPOUND_CID>
135912122

> <PUBCHEM_CONFORMER_RMSD>
1.2

> <PUBCHEM_CONFORMER_DIVERSEORDER>
1
175
194
8
126
173
118
67
86
172
165
134
59
65
68
82
178
139
83
56
19
108
162
151
84
78
186
33
168
69
183
101
42
152
141
145
3
96
143
51
41
150
50
63
184
34
106
74
44
91
153
125
27
192
55
185
13
107
22
88
11
31
6
179
46
66
52
92
64
182
76
38
87
58
89
158
176
167
142
60
43
32
191
120
23
100
115
37
75
54
132
155
181
40
144
2
17
170
119
61
130
47
188
25
177
81
70
15
24
72
104
95
10
138
14
103
114
21
159
105
35
189
166
193
9
102
62
48
171
36
5
187
77
112
16
116
110
147
124
149
73
39
127
117
97
71
30
113
109
4
154
80
128
94
53
136
99
174
29
98
169
160
157
137
45
7
133
57
18
49
90
163
20
111
164
26
161
79
180
12
135
93
148
146
190
122
28
140
123
121
156
129
85
131

> <PUBCHEM_MMFF94_PARTIAL_CHARGES>
44
1 -0.57
10 -0.63
11 0.44
12 0.19
13 -0.14
14 0.09
15 0.54
17 -0.15
18 0.1
19 -0.15
2 -0.9
20 -0.11
21 0.91
22 -0.15
23 0.51
24 -0.14
26 -0.15
28 0.09
29 -0.15
3 -0.9
30 0.91
31 -0.15
32 0.18
33 -0.15
34 -0.15
35 0.54
36 0.45
37 0.06
4 -0.9
43 0.15
44 0.15
47 0.15
48 0.4
5 -0.9
51 0.15
52 0.15
53 0.15
54 0.15
55 0.15
56 0.37
6 -0.57
7 -0.66
8 -0.87
9 -0.49

> <PUBCHEM_EFFECTIVE_ROTOR_COUNT>
8.4

> <PUBCHEM_PHARMACOPHORE_FEATURES>
16
1 1 acceptor
1 2 acceptor
1 3 acceptor
1 4 acceptor
1 5 acceptor
1 6 acceptor
1 8 cation
1 8 donor
1 9 donor
3 2 3 21 anion
3 4 5 30 anion
5 7 11 13 14 15 rings
6 13 14 17 18 19 22 rings
6 24 25 26 27 29 31 rings
6 25 27 28 32 33 34 rings
6 9 10 28 32 35 36 rings

> <PUBCHEM_HEAVY_ATOM_COUNT>
37

> <PUBCHEM_ATOM_DEF_STEREO_COUNT>
1

> <PUBCHEM_ATOM_UDEF_STEREO_COUNT>
0

> <PUBCHEM_BOND_DEF_STEREO_COUNT>
0

> <PUBCHEM_BOND_UDEF_STEREO_COUNT>
0

> <PUBCHEM_ISOTOPIC_ATOM_COUNT>
0

> <PUBCHEM_COMPONENT_COUNT>
1

> <PUBCHEM_CACTVS_TAUTO_COUNT>
-1

> <PUBCHEM_CONFORMER_ID>
0819DABA00000001

> <PUBCHEM_MMFF94_ENERGY>
116.28

> <PUBCHEM_FEATURE_SELFOVERLAP>
81.448

> <PUBCHEM_SHAPE_FINGERPRINT>
10162869 55 16917063335763282598
10280341 67 17896027772977416733
10533779 1 17386840614182116837
10842051 180 15985104098119696909
11181472 205 17168154408093928566
11456790 92 16660371372127255029
11973864 47 17749676178831055613
12838862 33 17531239523291127461
13811026 1 18341896289899797040
14294032 229 16805885074542408757
14400156 413 18131911560177261608
14429380 56 17704073980568978302
150020 25 18343023263775025077
15145344 5 17095795508703756759
15183329 4 16081093705282353423
15419008 91 18411420630864524776
15455200 26 15723025452688162181
15483637 11 17629224628020032808
1577012 14 17894630315014645563
15840311 113 17703518766273747972
16991971 28 12823284720025472793
20105231 36 9871753489941307596
20157964 124 17703799124295496654
20554085 129 18040718073989910306
21033648 29 18333730239316903854
21362857 166 13829858976824688572
21772523 7 18058711572656292616
21781055 127 17095812019021960418
21867018 265 17561068230254739085
22164985 6 17988929976815106207
23522609 53 15214174957437011599
23528521 120 18272641356509529733
24771293 8 17822005402925206495
306946 40 18412537708761491496
397830 11 18198637720836672522
42767 23 15913319179214478057
44802255 64 18272086077362580575
44880568 143 18408329886894993373
4516262 110 17489304227196126780
5470011 282 17346319284584503743
5937810 71 18200878358542136409
6058803 2 15336053459734954487
636775 72 18186520995456234893
6636735 143 18261957474419676578
6691757 9 17240489139112620171
70634741 139 17775004648145754271

> <PUBCHEM_SHAPE_MULTIPOLES>
706.3
34.06
3.08
2.23
10.41
2.81
-0.55
24.86
5.58
1.48
0.77
1.03
-0.4
9.52

> <PUBCHEM_SHAPE_SELFOVERLAP>
1560.161

> <PUBCHEM_SHAPE_VOLUME>
378.3

> <PUBCHEM_COORDINATE_TYPE>
2
5
10

$$$$
