136008904
  -OEChem-03292013293D

 38 40  0     0  0  0  0  0  0999 V2000
   -3.0693    2.1674   -0.2799 S   0  0  0  0  0  0  0  0  0  0  0  0
    0.5031   -1.1445    0.3737 O   0  0  0  0  0  0  0  0  0  0  0  0
    1.7876    3.3811   -0.0346 O   0  0  0  0  0  0  0  0  0  0  0  0
    3.3076    1.2120    1.1824 O   0  0  0  0  0  0  0  0  0  0  0  0
    3.5728   -2.3214    0.4872 O   0  0  0  0  0  0  0  0  0  0  0  0
    5.7740   -2.3896   -0.0588 O   0  0  0  0  0  0  0  0  0  0  0  0
   -1.1286    0.4902   -0.0351 N   0  0  0  0  0  0  0  0  0  0  0  0
   -0.4708    2.7904   -0.1266 N   0  0  0  0  0  0  0  0  0  0  0  0
    3.0873   -0.0727   -0.7511 N   0  0  0  0  0  0  0  0  0  0  0  0
   -2.2251   -1.7888   -0.0789 C   0  0  0  0  0  0  0  0  0  0  0  0
   -2.2960   -0.2832   -0.0929 C   0  0  0  0  0  0  0  0  0  0  0  0
   -3.4299   -2.5313   -0.6634 C   0  0  0  0  0  0  0  0  0  0  0  0
   -4.6784   -2.5283    0.2113 C   0  0  0  0  0  0  0  0  0  0  0  0
   -5.0933   -1.1747    0.7791 C   0  0  0  0  0  0  0  0  0  0  0  0
   -4.8527    0.0065   -0.1605 C   0  0  0  0  0  0  0  0  0  0  0  0
   -3.4210    0.4561   -0.1970 C   0  0  0  0  0  0  0  0  0  0  0  0
   -1.3572    1.8545   -0.1373 C   0  0  0  0  0  0  0  0  0  0  0  0
    0.1659    0.0171    0.1606 C   0  0  0  0  0  0  0  0  0  0  0  0
    1.2117    1.0907    0.1289 C   0  0  0  0  0  0  0  0  0  0  0  0
    0.8347    2.3766   -0.0087 C   0  0  0  0  0  0  0  0  0  0  0  0
    2.6401    0.7607    0.2562 C   0  0  0  0  0  0  0  0  0  0  0  0
    4.4532   -0.5368   -0.8445 C   0  0  0  0  0  0  0  0  0  0  0  0
    4.6843   -1.8323   -0.1100 C   0  0  0  0  0  0  0  0  0  0  0  0
   -1.3799   -2.0997   -0.7045 H   0  0  0  0  0  0  0  0  0  0  0  0
   -2.0253   -2.1391    0.9406 H   0  0  0  0  0  0  0  0  0  0  0  0
   -3.6698   -2.1253   -1.6547 H   0  0  0  0  0  0  0  0  0  0  0  0
   -3.1445   -3.5774   -0.8344 H   0  0  0  0  0  0  0  0  0  0  0  0
   -4.5416   -3.2276    1.0456 H   0  0  0  0  0  0  0  0  0  0  0  0
   -5.5073   -2.9312   -0.3845 H   0  0  0  0  0  0  0  0  0  0  0  0
   -4.5743   -1.0038    1.7315 H   0  0  0  0  0  0  0  0  0  0  0  0
   -6.1612   -1.2235    1.0267 H   0  0  0  0  0  0  0  0  0  0  0  0
   -5.4773    0.8320    0.2059 H   0  0  0  0  0  0  0  0  0  0  0  0
   -5.2046   -0.2168   -1.1745 H   0  0  0  0  0  0  0  0  0  0  0  0
    2.4360   -0.3913   -1.4631 H   0  0  0  0  0  0  0  0  0  0  0  0
    1.2904    4.2112   -0.1381 H   0  0  0  0  0  0  0  0  0  0  0  0
    5.1194    0.2238   -0.4267 H   0  0  0  0  0  0  0  0  0  0  0  0
    4.6716   -0.6914   -1.9047 H   0  0  0  0  0  0  0  0  0  0  0  0
    3.7490   -3.1638    0.9579 H   0  0  0  0  0  0  0  0  0  0  0  0
  1 16  1  0  0  0  0
  1 17  1  0  0  0  0
  2 18  2  0  0  0  0
  3 20  1  0  0  0  0
  3 35  1  0  0  0  0
  4 21  2  0  0  0  0
  5 23  1  0  0  0  0
  5 38  1  0  0  0  0
  6 23  2  0  0  0  0
  7 11  1  0  0  0  0
  7 17  1  0  0  0  0
  7 18  1  0  0  0  0
  8 17  2  0  0  0  0
  8 20  1  0  0  0  0
  9 21  1  0  0  0  0
  9 22  1  0  0  0  0
  9 34  1  0  0  0  0
 10 11  1  0  0  0  0
 10 12  1  0  0  0  0
 10 24  1  0  0  0  0
 10 25  1  0  0  0  0
 11 16  2  0  0  0  0
 12 13  1  0  0  0  0
 12 26  1  0  0  0  0
 12 27  1  0  0  0  0
 13 14  1  0  0  0  0
 13 28  1  0  0  0  0
 13 29  1  0  0  0  0
 14 15  1  0  0  0  0
 14 30  1  0  0  0  0
 14 31  1  0  0  0  0
 15 16  1  0  0  0  0
 15 32  1  0  0  0  0
 15 33  1  0  0  0  0
 18 19  1  0  0  0  0
 19 20  2  0  0  0  0
 19 21  1  0  0  0  0
 22 23  1  0  0  0  0
 22 36  1  0  0  0  0
 22 37  1  0  0  0  0
M  END
> <PUBCHEM_COMPOUND_CID>
136008904

> <PUBCHEM_CONFORMER_RMSD>
0.8

> <PUBCHEM_CONFORMER_DIVERSEORDER>
1
11
7
8
3
9
10
6
12
5
2
4

> <PUBCHEM_MMFF94_PARTIAL_CHARGES>
23
1 -0.24
10 0.14
11 -0.03
15 0.14
16 -0.04
17 0.65
18 0.62
19 0.03
2 -0.57
20 0.25
21 0.62
22 0.36
23 0.66
3 -0.53
34 0.37
35 0.45
38 0.5
4 -0.57
5 -0.65
6 -0.57
7 -0.23
8 -0.62
9 -0.73

> <PUBCHEM_EFFECTIVE_ROTOR_COUNT>
5

> <PUBCHEM_PHARMACOPHORE_FEATURES>
11
1 19 anion
1 2 acceptor
1 3 donor
1 4 acceptor
1 5 acceptor
1 6 acceptor
1 9 donor
3 5 6 23 anion
5 1 7 11 16 17 rings
6 7 8 17 18 19 20 rings
7 10 11 12 13 14 15 16 rings

> <PUBCHEM_HEAVY_ATOM_COUNT>
23

> <PUBCHEM_ATOM_DEF_STEREO_COUNT>
0

> <PUBCHEM_ATOM_UDEF_STEREO_COUNT>
0

> <PUBCHEM_BOND_DEF_STEREO_COUNT>
0

> <PUBCHEM_BOND_UDEF_STEREO_COUNT>
0

> <PUBCHEM_ISOTOPIC_ATOM_COUNT>
0

> <PUBCHEM_COMPONENT_COUNT>
1

> <PUBCHEM_CACTVS_TAUTO_COUNT>
-1

> <PUBCHEM_CONFORMER_ID>
081B54C800000001

> <PUBCHEM_MMFF94_ENERGY>
47.5077

> <PUBCHEM_FEATURE_SELFOVERLAP>
55.979

> <PUBCHEM_SHAPE_FINGERPRINT>
10693767 8 17911781773138449295
12107183 9 18270413711174822145
12403259 226 18410289237753143501
12553582 1 18337098004066231123
12760667 363 18343017761990782751
13140716 1 18343021060230383944
13533116 47 18054790848057659987
138480 1 14735636251236587428
13955234 65 18054512679430541592
14251751 18 18413105044256232874
14420673 8 18339649927736605327
14790565 3 17475237894635640105
14866123 147 18197221339290271681
15042514 8 18267307538516587468
15196674 1 18410575093258314269
15352361 1 18411138021990360126
17492 89 18266740371264419279
1813 80 17821725074008678781
19141452 34 18201441419567965015
19591789 44 18410012143653318915
20281475 54 18410298024918439157
20403669 9 18342743991895354910
20645477 70 18118959428500635481
21267235 1 18409738330660900499
21279426 13 18335129883185243917
21478907 32 18410575089269393009
221490 88 18264212580925162235
22182313 1 18264187244866299093
22950370 63 18409737269724727199
23402539 116 18269830913433805156
23557571 272 18057886836351143374
23559900 14 18411972581248757401
23566358 27 18264210390576334989
3004659 81 18114184103958035350
314173 41 18412270532020605070
316301 35 18411695496071469258
335352 9 18410856526119016573
3421961 26 18341049722113228880
4409770 3 17900534575827457101
463206 1 18335987548930746514
5104073 3 18273497861953336577
5486654 36 18338245885900167841
559249 180 18190740830097632042
56633871 153 18341901826893720683
7970288 3 18410572902841863446
9709674 26 18264207096378785715

> <PUBCHEM_SHAPE_MULTIPOLES>
432.89
11.02
3.53
0.77
4.32
0.63
0.02
-9.31
0.02
0.46
-0.08
0.11
-0.06
0.37

> <PUBCHEM_SHAPE_SELFOVERLAP>
918.128

> <PUBCHEM_SHAPE_VOLUME>
241.2

> <PUBCHEM_COORDINATE_TYPE>
2
5
10

$$$$
