136054932
  -OEChem-03292013293D

 51 57  0     1  0  0  0  0  0999 V2000
    0.9135    2.2980   -1.7163 O   0  0  0  0  0  0  0  0  0  0  0  0
    3.0482    0.0040   -3.5879 O   0  0  0  0  0  0  0  0  0  0  0  0
   -1.7210    4.1265    2.0806 O   0  0  0  0  0  0  0  0  0  0  0  0
    6.2436    0.8170    1.0438 O   0  0  0  0  0  0  0  0  0  0  0  0
   -3.8096    3.2954    1.7429 O   0  0  0  0  0  0  0  0  0  0  0  0
   -3.3840   -3.4883   -1.3257 O   0  0  0  0  0  0  0  0  0  0  0  0
    2.2431   -1.6894    0.2830 N   0  0  0  0  0  0  0  0  0  0  0  0
    4.0223    0.3003   -0.5003 N   0  0  0  0  0  0  0  0  0  0  0  0
   -2.3440   -0.9773   -0.8482 N   0  0  0  0  0  0  0  0  0  0  0  0
   -3.5874    0.6986    0.9481 N   0  0  0  0  0  0  0  0  0  0  0  0
    0.1753    0.0088   -2.2307 C   0  0  1  0  0  0  0  0  0  0  0  0
    1.1598    1.1610   -2.5879 C   0  0  2  0  0  0  0  0  0  0  0  0
    0.8454   -1.2665   -1.6948 C   0  0  0  0  0  0  0  0  0  0  0  0
    2.6512    0.8034   -2.4786 C   0  0  1  0  0  0  0  0  0  0  0  0
   -0.6952    0.7066   -1.2364 C   0  0  0  0  0  0  0  0  0  0  0  0
   -0.2055    1.9788   -1.0033 C   0  0  0  0  0  0  0  0  0  0  0  0
    2.0389   -0.9657   -0.8341 C   0  0  0  0  0  0  0  0  0  0  0  0
    2.9215    0.0206   -1.2243 C   0  0  0  0  0  0  0  0  0  0  0  0
   -1.8428    0.2460   -0.6035 C   0  0  0  0  0  0  0  0  0  0  0  0
   -0.8126    2.8333   -0.1125 C   0  0  0  0  0  0  0  0  0  0  0  0
   -2.4792    1.1005    0.3068 C   0  0  0  0  0  0  0  0  0  0  0  0
   -1.9551    2.3771    0.5421 C   0  0  0  0  0  0  0  0  0  0  0  0
    4.2344   -0.4094    0.6211 C   0  0  0  0  0  0  0  0  0  0  0  0
    3.3342   -1.4151    1.0176 C   0  0  0  0  0  0  0  0  0  0  0  0
   -3.4517   -1.3764   -0.2054 C   0  0  0  0  0  0  0  0  0  0  0  0
   -4.0827   -0.5258    0.7077 C   0  0  0  0  0  0  0  0  0  0  0  0
   -2.6035    3.2789    1.4880 C   0  0  0  0  0  0  0  0  0  0  0  0
    5.3550   -0.1550    1.4077 C   0  0  0  0  0  0  0  0  0  0  0  0
    3.5878   -2.1294    2.1858 C   0  0  0  0  0  0  0  0  0  0  0  0
   -3.9858   -2.6419   -0.4383 C   0  0  0  0  0  0  0  0  0  0  0  0
    5.5998   -0.8754    2.5755 C   0  0  0  0  0  0  0  0  0  0  0  0
    4.7122   -1.8669    2.9662 C   0  0  0  0  0  0  0  0  0  0  0  0
   -5.2311   -0.9649    1.3634 C   0  0  0  0  0  0  0  0  0  0  0  0
   -5.1346   -3.0752    0.2211 C   0  0  0  0  0  0  0  0  0  0  0  0
   -5.7605   -2.2322    1.1269 C   0  0  0  0  0  0  0  0  0  0  0  0
   -0.4276   -0.2466   -3.1113 H   0  0  0  0  0  0  0  0  0  0  0  0
    0.9446    1.5027   -3.6096 H   0  0  0  0  0  0  0  0  0  0  0  0
    1.1990   -1.8670   -2.5428 H   0  0  0  0  0  0  0  0  0  0  0  0
    0.1371   -1.8944   -1.1438 H   0  0  0  0  0  0  0  0  0  0  0  0
    3.2633    1.7131   -2.4766 H   0  0  0  0  0  0  0  0  0  0  0  0
   -0.4047    3.8265    0.0430 H   0  0  0  0  0  0  0  0  0  0  0  0
    2.8860    0.5216   -4.3948 H   0  0  0  0  0  0  0  0  0  0  0  0
    2.8999   -2.9103    2.5041 H   0  0  0  0  0  0  0  0  0  0  0  0
    6.4757   -0.6722    3.1851 H   0  0  0  0  0  0  0  0  0  0  0  0
    4.8910   -2.4356    3.8736 H   0  0  0  0  0  0  0  0  0  0  0  0
   -5.7311   -0.3120    2.0761 H   0  0  0  0  0  0  0  0  0  0  0  0
   -5.5471   -4.0630    0.0365 H   0  0  0  0  0  0  0  0  0  0  0  0
   -6.6561   -2.5555    1.6483 H   0  0  0  0  0  0  0  0  0  0  0  0
   -2.1636    4.7299    2.7150 H   0  0  0  0  0  0  0  0  0  0  0  0
    6.9587    0.8581    1.7018 H   0  0  0  0  0  0  0  0  0  0  0  0
   -3.8860   -4.3205   -1.3632 H   0  0  0  0  0  0  0  0  0  0  0  0
  1 12  1  0  0  0  0
  1 16  1  0  0  0  0
  2 14  1  0  0  0  0
  2 42  1  0  0  0  0
  3 27  1  0  0  0  0
  3 49  1  0  0  0  0
  4 28  1  0  0  0  0
  4 50  1  0  0  0  0
  5 27  2  0  0  0  0
  6 30  1  0  0  0  0
  6 51  1  0  0  0  0
  7 17  2  0  0  0  0
  7 24  1  0  0  0  0
  8 18  2  0  0  0  0
  8 23  1  0  0  0  0
  9 19  2  0  0  0  0
  9 25  1  0  0  0  0
 10 21  2  0  0  0  0
 10 26  1  0  0  0  0
 11 12  1  0  0  0  0
 11 13  1  0  0  0  0
 11 15  1  0  0  0  0
 11 36  1  0  0  0  0
 12 14  1  0  0  0  0
 12 37  1  0  0  0  0
 13 17  1  0  0  0  0
 13 38  1  0  0  0  0
 13 39  1  0  0  0  0
 14 18  1  0  0  0  0
 14 40  1  0  0  0  0
 15 16  2  0  0  0  0
 15 19  1  0  0  0  0
 16 20  1  0  0  0  0
 17 18  1  0  0  0  0
 19 21  1  0  0  0  0
 20 22  2  0  0  0  0
 20 41  1  0  0  0  0
 21 22  1  0  0  0  0
 22 27  1  0  0  0  0
 23 24  2  0  0  0  0
 23 28  1  0  0  0  0
 24 29  1  0  0  0  0
 25 26  2  0  0  0  0
 25 30  1  0  0  0  0
 26 33  1  0  0  0  0
 28 31  2  0  0  0  0
 29 32  2  0  0  0  0
 29 43  1  0  0  0  0
 30 34  2  0  0  0  0
 31 32  1  0  0  0  0
 31 44  1  0  0  0  0
 32 45  1  0  0  0  0
 33 35  2  0  0  0  0
 33 46  1  0  0  0  0
 34 35  1  0  0  0  0
 34 47  1  0  0  0  0
 35 48  1  0  0  0  0
M  END
> <PUBCHEM_COMPOUND_CID>
136054932

> <PUBCHEM_CONFORMER_RMSD>
0.8

> <PUBCHEM_CONFORMER_DIVERSEORDER>
1
2

> <PUBCHEM_MMFF94_PARTIAL_CHARGES>
46
1 -0.36
10 -0.62
11 0.14
12 0.28
13 0.14
14 0.42
15 -0.14
16 0.08
17 0.17
18 0.17
19 0.31
2 -0.68
20 -0.15
21 0.31
22 0.09
23 0.31
24 0.31
25 0.31
26 0.31
27 0.63
28 0.08
29 -0.15
3 -0.65
30 0.08
31 -0.15
32 -0.15
33 -0.15
34 -0.15
35 -0.15
4 -0.53
41 0.15
42 0.4
43 0.15
44 0.15
45 0.15
46 0.15
47 0.15
48 0.15
49 0.5
5 -0.57
50 0.45
51 0.45
6 -0.53
7 -0.62
8 -0.62
9 -0.62

> <PUBCHEM_EFFECTIVE_ROTOR_COUNT>
1.6

> <PUBCHEM_PHARMACOPHORE_FEATURES>
19
1 1 acceptor
1 10 acceptor
1 2 acceptor
1 2 donor
1 3 acceptor
1 4 donor
1 5 acceptor
1 6 donor
1 7 acceptor
1 8 acceptor
1 9 acceptor
3 3 5 27 anion
5 1 11 12 15 16 rings
6 11 12 13 14 17 18 rings
6 15 16 19 20 21 22 rings
6 23 24 28 29 31 32 rings
6 25 26 30 33 34 35 rings
6 7 8 17 18 23 24 rings
6 9 10 19 21 25 26 rings

> <PUBCHEM_HEAVY_ATOM_COUNT>
35

> <PUBCHEM_ATOM_DEF_STEREO_COUNT>
3

> <PUBCHEM_ATOM_UDEF_STEREO_COUNT>
0

> <PUBCHEM_BOND_DEF_STEREO_COUNT>
0

> <PUBCHEM_BOND_UDEF_STEREO_COUNT>
0

> <PUBCHEM_ISOTOPIC_ATOM_COUNT>
0

> <PUBCHEM_COMPONENT_COUNT>
1

> <PUBCHEM_CACTVS_TAUTO_COUNT>
-1

> <PUBCHEM_CONFORMER_ID>
081C089400000001

> <PUBCHEM_MMFF94_ENERGY>
120.7663

> <PUBCHEM_FEATURE_SELFOVERLAP>
97.059

> <PUBCHEM_SHAPE_FINGERPRINT>
10074138 170 18197213655557050849
10319926 262 18129946655155919214
10369192 42 16271642420893153648
10622 236 17967243191904192555
10842051 180 18043238240734855536
10928967 22 17027401371778174018
11070050 100 16620998750095559753
11135926 11 16010184006247964412
11456790 92 18336557110078059395
11552529 35 18267851822753416482
11578080 2 16558481772975207169
11763715 3 17749958748337877964
12166972 35 17240759618435059898
12549972 3 17272584815023296150
12553582 1 18200049446621888447
12788726 201 18267048161731995331
13782708 43 14779562200960093385
14028597 1 18189906494636698100
14081887 123 18202290173571709399
14178342 30 18340779126051120613
14468879 13 16629103357118740136
14705955 166 16915962685388827507
14950920 106 18194942086171926202
15131766 46 14261341445234007051
15475509 35 17609231383300244187
15484559 13 8780660698224063409
18681886 176 17342124793943122981
19315092 285 18188491414112011517
19319366 153 17536046797510269927
20511986 3 18113334198274983357
21033648 29 16845308137488030227
21304303 282 18050550860754392533
21344244 78 17773610501961302771
21421861 104 18266760136840825177
21458453 9 17273398681197995523
21756936 100 12535335848725572742
23559900 14 17913513258236142653
345986 75 18336271223283250619
376196 1 16838819682812056749
3886686 26 17833833772448856195
392239 28 18340475781370080962
42626532 9 17557454018826186310
4394409 98 18338499920959377647
439807 62 17387701741992285499
463206 1 18120378915382556451
57724786 102 14764341661644541106
58260988 647 15864360134094972745
613672 6 18202005464928035847
6823239 73 17844834545330303676
9961470 85 17908146482679580747

> <PUBCHEM_SHAPE_MULTIPOLES>
665.14
12.49
3.9
2.92
3.71
1.15
-0.5
-9.86
8.12
-4.57
1.87
2.67
0.86
-4.34

> <PUBCHEM_SHAPE_SELFOVERLAP>
1553.324

> <PUBCHEM_SHAPE_VOLUME>
333.6

> <PUBCHEM_COORDINATE_TYPE>
2
5
10

$$$$
