136026393
  -OEChem-03292013293D

 34 36  0     0  0  0  0  0  0999 V2000
   -4.7476   -1.4422   -0.1360 S   0  0  0  0  0  0  0  0  0  0  0  0
    1.8474    3.2748    0.2106 O   0  0  0  0  0  0  0  0  0  0  0  0
   -5.3420   -1.4511    1.3869 O   0  0  0  0  0  0  0  0  0  0  0  0
   -5.6227   -0.5907   -0.9285 O   0  0  0  0  0  0  0  0  0  0  0  0
   -4.4961   -2.8193   -0.5309 O   0  0  0  0  0  0  0  0  0  0  0  0
    1.7263    0.5310    0.5189 N   0  0  0  0  0  0  0  0  0  0  0  0
    2.2395    0.1753   -0.5652 N   0  0  0  0  0  0  0  0  0  0  0  0
    3.2693   -1.8872   -0.1781 N   0  0  0  0  0  0  0  0  0  0  0  0
   -0.6931    0.6096    0.1770 C   0  0  0  0  0  0  0  0  0  0  0  0
   -1.8561    1.3761   -0.0735 C   0  0  0  0  0  0  0  0  0  0  0  0
   -3.1932   -0.6555   -0.0163 C   0  0  0  0  0  0  0  0  0  0  0  0
   -3.0987    0.7283   -0.1673 C   0  0  0  0  0  0  0  0  0  0  0  0
    0.5493    1.2574    0.2710 C   0  0  0  0  0  0  0  0  0  0  0  0
   -0.8070   -0.7823    0.3261 C   0  0  0  0  0  0  0  0  0  0  0  0
   -2.0495   -1.4093    0.2299 C   0  0  0  0  0  0  0  0  0  0  0  0
   -1.7425    2.7679   -0.2224 C   0  0  0  0  0  0  0  0  0  0  0  0
    0.6438    2.6411    0.1201 C   0  0  0  0  0  0  0  0  0  0  0  0
   -0.4999    3.3950   -0.1262 C   0  0  0  0  0  0  0  0  0  0  0  0
    3.4170   -0.5506   -0.3165 C   0  0  0  0  0  0  0  0  0  0  0  0
    4.6323    0.1090   -0.2275 C   0  0  0  0  0  0  0  0  0  0  0  0
    5.7692   -0.6525    0.0193 C   0  0  0  0  0  0  0  0  0  0  0  0
    5.6577   -2.0306    0.1675 C   0  0  0  0  0  0  0  0  0  0  0  0
    4.3964   -2.5943    0.0610 C   0  0  0  0  0  0  0  0  0  0  0  0
   -3.9935    1.3193   -0.3524 H   0  0  0  0  0  0  0  0  0  0  0  0
    0.0601   -1.4075    0.5257 H   0  0  0  0  0  0  0  0  0  0  0  0
   -2.1000   -2.4867    0.3598 H   0  0  0  0  0  0  0  0  0  0  0  0
   -2.6231    3.3771   -0.4154 H   0  0  0  0  0  0  0  0  0  0  0  0
   -0.4409    4.4736   -0.2457 H   0  0  0  0  0  0  0  0  0  0  0  0
    1.7153    4.2294    0.0790 H   0  0  0  0  0  0  0  0  0  0  0  0
   -6.2314   -1.8641    1.4886 H   0  0  0  0  0  0  0  0  0  0  0  0
    4.7055    1.1848   -0.3457 H   0  0  0  0  0  0  0  0  0  0  0  0
    6.7404   -0.1730    0.0960 H   0  0  0  0  0  0  0  0  0  0  0  0
    6.5304   -2.6439    0.3604 H   0  0  0  0  0  0  0  0  0  0  0  0
    4.2556   -3.6648    0.1688 H   0  0  0  0  0  0  0  0  0  0  0  0
  1  3  1  0  0  0  0
  1  4  2  0  0  0  0
  1  5  2  0  0  0  0
  1 11  1  0  0  0  0
  2 17  1  0  0  0  0
  2 29  1  0  0  0  0
  3 30  1  0  0  0  0
  6  7  2  0  0  0  0
  6 13  1  0  0  0  0
  7 19  1  0  0  0  0
  8 19  1  0  0  0  0
  8 23  2  0  0  0  0
  9 10  2  0  0  0  0
  9 13  1  0  0  0  0
  9 14  1  0  0  0  0
 10 12  1  0  0  0  0
 10 16  1  0  0  0  0
 11 12  2  0  0  0  0
 11 15  1  0  0  0  0
 12 24  1  0  0  0  0
 13 17  2  0  0  0  0
 14 15  2  0  0  0  0
 14 25  1  0  0  0  0
 15 26  1  0  0  0  0
 16 18  2  0  0  0  0
 16 27  1  0  0  0  0
 17 18  1  0  0  0  0
 18 28  1  0  0  0  0
 19 20  2  0  0  0  0
 20 21  1  0  0  0  0
 20 31  1  0  0  0  0
 21 22  2  0  0  0  0
 21 32  1  0  0  0  0
 22 23  1  0  0  0  0
 22 33  1  0  0  0  0
 23 34  1  0  0  0  0
M  END
> <PUBCHEM_COMPOUND_CID>
136026393

> <PUBCHEM_CONFORMER_RMSD>
0.6

> <PUBCHEM_CONFORMER_DIVERSEORDER>
1
8
9
4
10
7
3
5
2
6

> <PUBCHEM_MMFF94_PARTIAL_CHARGES>
32
1 1.49
11 -0.01
12 -0.15
13 0.18
14 -0.15
15 -0.15
16 -0.15
17 0.08
18 -0.15
19 0.49
2 -0.53
20 -0.15
21 -0.15
22 -0.15
23 0.16
24 0.15
25 0.15
26 0.15
27 0.15
28 0.15
29 0.45
3 -0.68
30 0.5
31 0.15
32 0.15
33 0.15
34 0.15
4 -0.65
5 -0.65
6 -0.18
7 -0.18
8 -0.62

> <PUBCHEM_EFFECTIVE_ROTOR_COUNT>
3

> <PUBCHEM_PHARMACOPHORE_FEATURES>
9
1 2 donor
1 3 acceptor
1 4 acceptor
1 5 acceptor
1 8 acceptor
4 1 3 4 5 anion
6 8 19 20 21 22 23 rings
6 9 10 11 12 14 15 rings
6 9 10 13 16 17 18 rings

> <PUBCHEM_HEAVY_ATOM_COUNT>
23

> <PUBCHEM_ATOM_DEF_STEREO_COUNT>
0

> <PUBCHEM_ATOM_UDEF_STEREO_COUNT>
0

> <PUBCHEM_BOND_DEF_STEREO_COUNT>
0

> <PUBCHEM_BOND_UDEF_STEREO_COUNT>
0

> <PUBCHEM_ISOTOPIC_ATOM_COUNT>
0

> <PUBCHEM_COMPONENT_COUNT>
1

> <PUBCHEM_CACTVS_TAUTO_COUNT>
-1

> <PUBCHEM_CONFORMER_ID>
081B991900000001

> <PUBCHEM_MMFF94_ENERGY>
59.9283

> <PUBCHEM_FEATURE_SELFOVERLAP>
45.754

> <PUBCHEM_SHAPE_FINGERPRINT>
10411042 1 18410856572540522217
10616163 171 18195528095694300918
10693767 8 18198323230514981519
11045515 52 18186801365882350733
11265709 11 18411704291821417968
12166972 35 17821452357018897958
12293681 160 17478869611623071985
12553582 1 18338505417593882042
12760667 363 18412825763938991679
12788726 201 18261387802383312714
13140716 1 18341899563024125201
13544653 18 18335990813194659142
13631057 29 18339643344152640154
138480 1 14952091616402205500
13862211 1 18412261748717779399
13955234 65 17982452895075272361
14508225 48 18335132081623697277
14790565 3 17403741043185902241
14840074 17 17989204875848616838
14866123 147 18268150847420114377
15042514 8 18266745688243910841
15196674 1 18338517435297225166
15352361 1 18411136935279199182
15927050 60 17622163890515601028
16087824 20 18193838146919112357
17492 89 18051409871282658847
1813 80 18271541848063235013
19141452 34 18270405975474790241
20374829 77 18411134744993584279
20832881 197 18408324397805118811
21236236 1 18341050710172023673
21267235 1 18410865343428535414
21279426 13 18334284363059797325
21478907 32 18410575067657731345
221490 88 18191871338952711363
22182313 1 18264465425740302125
22950370 63 18410862070241222403
23402539 116 18339920420339028405
23559900 14 18338507664098992337
2838139 119 11530478960560455782
3004659 81 18113335298018739086
314194 84 18338804519005443291
329604 57 18335143085745945494
335352 9 18410854340128446901
3421961 26 18340768263941925513
4214541 1 18193557771041663204
463206 1 18336829796196453666
5104073 3 18199743653587463530
7970288 3 18411415146092080951
8863177 126 17825400827992310915
9709674 26 18047469212833639139

> <PUBCHEM_SHAPE_MULTIPOLES>
438.76
12.38
3.66
0.75
5.26
2.25
0.06
-12.2
-0.47
-0.66
-0.01
-0.48
-0.14
0.1

> <PUBCHEM_SHAPE_SELFOVERLAP>
956.889

> <PUBCHEM_SHAPE_VOLUME>
239.7

> <PUBCHEM_COORDINATE_TYPE>
2
5
10

$$$$
