136030744
  -OEChem-03292013293D

 43 45  0     1  0  0  0  0  0999 V2000
   -1.6023   -0.8836   -1.8286 S   0  0  0  0  0  0  0  0  0  0  0  0
    2.0710   -2.5698   -0.1375 S   0  0  0  0  0  0  0  0  0  0  0  0
   -4.0470    2.6969   -0.4420 O   0  0  0  0  0  0  0  0  0  0  0  0
   -2.8953    2.2367    1.4705 O   0  0  0  0  0  0  0  0  0  0  0  0
    1.3640    1.8265   -0.7041 O   0  0  0  0  0  0  0  0  0  0  0  0
   -2.2832   -0.2476    0.6747 N   0  0  1  0  0  0  0  0  0  0  0  0
    0.5226   -0.5460    0.3718 N   0  0  0  0  0  0  0  0  0  0  0  0
   -1.7201   -1.3807   -0.0776 C   0  0  2  0  0  0  0  0  0  0  0  0
   -3.1857    0.5158   -0.2131 C   0  0  1  0  0  0  0  0  0  0  0  0
   -0.3301   -1.7546    0.4273 C   0  0  1  0  0  0  0  0  0  0  0  0
   -2.4376    0.6910   -1.5442 C   0  0  0  0  0  0  0  0  0  0  0  0
    0.3069   -2.8614   -0.4163 C   0  0  2  0  0  0  0  0  0  0  0  0
   -4.5816   -0.0953   -0.4216 C   0  0  0  0  0  0  0  0  0  0  0  0
   -2.8784   -0.6720    1.9404 C   0  0  0  0  0  0  0  0  0  0  0  0
   -3.3404    1.8899    0.3866 C   0  0  0  0  0  0  0  0  0  0  0  0
   -0.1002   -4.2631    0.0043 C   0  0  0  0  0  0  0  0  0  0  0  0
    1.7563   -0.8713    0.1495 C   0  0  0  0  0  0  0  0  0  0  0  0
    2.8517    0.1253    0.1004 C   0  0  0  0  0  0  0  0  0  0  0  0
    2.6119    1.4324   -0.3233 C   0  0  0  0  0  0  0  0  0  0  0  0
    4.1365   -0.2590    0.4837 C   0  0  0  0  0  0  0  0  0  0  0  0
    3.6571    2.3553   -0.3638 C   0  0  0  0  0  0  0  0  0  0  0  0
    5.1818    0.6638    0.4432 C   0  0  0  0  0  0  0  0  0  0  0  0
    4.9421    1.9710    0.0195 C   0  0  0  0  0  0  0  0  0  0  0  0
   -2.3891   -2.2488   -0.0443 H   0  0  0  0  0  0  0  0  0  0  0  0
   -0.3952   -2.0709    1.4777 H   0  0  0  0  0  0  0  0  0  0  0  0
   -3.1038    0.9172   -2.3827 H   0  0  0  0  0  0  0  0  0  0  0  0
   -1.6751    1.4771   -1.4941 H   0  0  0  0  0  0  0  0  0  0  0  0
    0.1633   -2.7625   -1.4934 H   0  0  0  0  0  0  0  0  0  0  0  0
   -4.5296   -1.1396   -0.7472 H   0  0  0  0  0  0  0  0  0  0  0  0
   -5.1481    0.4515   -1.1847 H   0  0  0  0  0  0  0  0  0  0  0  0
   -5.1784   -0.0597    0.4972 H   0  0  0  0  0  0  0  0  0  0  0  0
   -3.3503    0.1460    2.4910 H   0  0  0  0  0  0  0  0  0  0  0  0
   -2.1082   -1.0738    2.6073 H   0  0  0  0  0  0  0  0  0  0  0  0
   -3.6341   -1.4534    1.8005 H   0  0  0  0  0  0  0  0  0  0  0  0
    0.4406   -5.0220   -0.5720 H   0  0  0  0  0  0  0  0  0  0  0  0
   -1.1698   -4.4201   -0.1702 H   0  0  0  0  0  0  0  0  0  0  0  0
    0.0915   -4.4447    1.0679 H   0  0  0  0  0  0  0  0  0  0  0  0
   -4.1597    3.5970   -0.0686 H   0  0  0  0  0  0  0  0  0  0  0  0
    4.3600   -1.2602    0.8401 H   0  0  0  0  0  0  0  0  0  0  0  0
    3.4849    3.3769   -0.6919 H   0  0  0  0  0  0  0  0  0  0  0  0
    6.1815    0.3665    0.7464 H   0  0  0  0  0  0  0  0  0  0  0  0
    5.7558    2.6897   -0.0109 H   0  0  0  0  0  0  0  0  0  0  0  0
    1.3920    2.7630   -0.9650 H   0  0  0  0  0  0  0  0  0  0  0  0
  1  8  1  0  0  0  0
  1 11  1  0  0  0  0
  2 12  1  0  0  0  0
  2 17  1  0  0  0  0
  3 15  1  0  0  0  0
  3 38  1  0  0  0  0
  4 15  2  0  0  0  0
  5 19  1  0  0  0  0
  5 43  1  0  0  0  0
  6  8  1  0  0  0  0
  6  9  1  0  0  0  0
  6 14  1  0  0  0  0
  7 10  1  0  0  0  0
  7 17  2  0  0  0  0
  8 10  1  0  0  0  0
  8 24  1  0  0  0  0
  9 11  1  0  0  0  0
  9 13  1  0  0  0  0
  9 15  1  0  0  0  0
 10 12  1  0  0  0  0
 10 25  1  0  0  0  0
 11 26  1  0  0  0  0
 11 27  1  0  0  0  0
 12 16  1  0  0  0  0
 12 28  1  0  0  0  0
 13 29  1  0  0  0  0
 13 30  1  0  0  0  0
 13 31  1  0  0  0  0
 14 32  1  0  0  0  0
 14 33  1  0  0  0  0
 14 34  1  0  0  0  0
 16 35  1  0  0  0  0
 16 36  1  0  0  0  0
 16 37  1  0  0  0  0
 17 18  1  0  0  0  0
 18 19  1  0  0  0  0
 18 20  2  0  0  0  0
 19 21  2  0  0  0  0
 20 22  1  0  0  0  0
 20 39  1  0  0  0  0
 21 23  1  0  0  0  0
 21 40  1  0  0  0  0
 22 23  2  0  0  0  0
 22 41  1  0  0  0  0
 23 42  1  0  0  0  0
M  END
> <PUBCHEM_COMPOUND_CID>
136030744

> <PUBCHEM_CONFORMER_RMSD>
0.8

> <PUBCHEM_CONFORMER_DIVERSEORDER>
1
2
33
25
37
14
36
28
11
9
31
5
26
22
23
6
32
29
20
27
15
34
7
10
13
8
35
17
19
12
30
3
21
24
16
4
18

> <PUBCHEM_MMFF94_PARTIAL_CHARGES>
27
1 -0.46
10 0.25
11 0.23
12 0.23
14 0.27
15 0.66
17 0.5
18 0.09
19 0.08
2 -0.37
20 -0.15
21 -0.15
22 -0.15
23 -0.15
3 -0.65
38 0.5
39 0.15
4 -0.57
40 0.15
41 0.15
42 0.15
43 0.45
5 -0.53
6 -0.81
7 -0.7
8 0.5
9 0.33

> <PUBCHEM_EFFECTIVE_ROTOR_COUNT>
4.6

> <PUBCHEM_PHARMACOPHORE_FEATURES>
9
1 3 acceptor
1 4 acceptor
1 5 donor
1 6 cation
1 7 acceptor
3 3 4 15 anion
5 1 6 8 9 11 rings
5 2 7 10 12 17 rings
6 18 19 20 21 22 23 rings

> <PUBCHEM_HEAVY_ATOM_COUNT>
23

> <PUBCHEM_ATOM_DEF_STEREO_COUNT>
4

> <PUBCHEM_ATOM_UDEF_STEREO_COUNT>
0

> <PUBCHEM_BOND_DEF_STEREO_COUNT>
0

> <PUBCHEM_BOND_UDEF_STEREO_COUNT>
0

> <PUBCHEM_ISOTOPIC_ATOM_COUNT>
0

> <PUBCHEM_COMPONENT_COUNT>
1

> <PUBCHEM_CACTVS_TAUTO_COUNT>
-1

> <PUBCHEM_CONFORMER_ID>
081BAA1800000001

> <PUBCHEM_MMFF94_ENERGY>
68.0805

> <PUBCHEM_FEATURE_SELFOVERLAP>
45.727

> <PUBCHEM_SHAPE_FINGERPRINT>
10382601 240 18115869599031772026
10411042 1 17113535909880546087
11370993 70 18410854365043591128
11640471 11 17917425359468066327
12107183 9 18335405860915364178
12173636 292 18339922735236860086
12422481 6 18045198485336204416
12633257 1 16660652851203546077
12788726 201 17686915216374840326
13140716 1 18262799549570225954
13544653 18 10735879503974351658
13583140 156 17313373569857078650
138480 1 17762055441505854958
14251751 93 18202282528171246142
14508225 48 17263553804328220830
14713325 29 18121787389830406858
14767858 380 18198886167672658727
14787075 74 18339073908783082951
14790565 3 18408047316854875748
14856354 85 16081377401426679410
15342168 16 18408041822873662351
15463212 79 17488728099539308382
18785283 64 18263927635668325498
20157964 124 18265890251624332661
20739085 24 18189618233648069404
21033648 29 18341884225700978432
21033650 10 17559418966427948968
21475661 188 17827634756230688677
21524375 3 18261108603644426714
21864079 5 18411136948337914498
22182937 141 18336828714085578518
22907989 373 17979063122396678822
23227448 37 18339643463604765543
235170 7 15482671286308982560
23559900 14 18121777231953125091
27216 239 18259987106316056235
3091708 16 9120632017041527538
350125 39 18193839472918696946
474 4 18338511937364487979
4921388 177 15482672437301578981
5048184 11 18412545439802396372
5081480 168 17557178058482034846
6328613 192 18335989761835572260
633830 44 18272370811195646838
7226269 152 18060136562033469128
84936 182 18201714007908953674
9862522 239 18335696199965847914
9981440 41 18409164407292839995

> <PUBCHEM_SHAPE_MULTIPOLES>
453.46
9.26
3.72
1.24
5.16
2.46
0
-7.54
-0.78
-0.02
0.09
-1.26
-0.07
-0.34

> <PUBCHEM_SHAPE_SELFOVERLAP>
942.375

> <PUBCHEM_SHAPE_VOLUME>
261.3

> <PUBCHEM_COORDINATE_TYPE>
2
5
10

$$$$
