136065883
  -OEChem-03292013293D

 47 51  0     0  0  0  0  0  0999 V2000
    0.7443   -3.4169   -0.2573 O   0  0  0  0  0  0  0  0  0  0  0  0
    0.2549    1.5912   -0.1599 O   0  5  0  0  0  0  0  0  0  0  0  0
    1.4183   -0.7921    2.1549 O   0  0  0  0  0  0  0  0  0  0  0  0
   -4.7532   -0.3326    0.0748 O   0  5  0  0  0  0  0  0  0  0  0  0
   -0.5732    3.9530   -0.0811 O   0  0  0  0  0  0  0  0  0  0  0  0
    3.8282    0.0121   -2.6771 O   0  0  0  0  0  0  0  0  0  0  0  0
    6.0820    0.5944   -1.5426 O   0  0  0  0  0  0  0  0  0  0  0  0
   -4.3699   -3.0647    1.2752 O   0  0  0  0  0  0  0  0  0  0  0  0
   -4.6627   -3.1206   -0.9782 O   0  0  0  0  0  0  0  0  0  0  0  0
   -0.9326    1.1127   -0.1044 N   0  3  0  0  0  0  0  0  0  0  0  0
   -3.5466    0.0998    0.0173 N   0  3  0  0  0  0  0  0  0  0  0  0
    2.0594   -0.5888    0.9351 N   0  0  0  0  0  0  0  0  0  0  0  0
   -1.1482   -0.2619   -0.1131 C   0  0  0  0  0  0  0  0  0  0  0  0
   -0.0630   -1.1440   -0.1826 C   0  0  0  0  0  0  0  0  0  0  0  0
   -2.4642   -0.7718   -0.0516 C   0  0  0  0  0  0  0  0  0  0  0  0
    1.3544   -0.7457   -0.2510 C   0  0  0  0  0  0  0  0  0  0  0  0
   -2.0150    1.9843   -0.0349 C   0  0  0  0  0  0  0  0  0  0  0  0
   -3.3309    1.4743    0.0261 C   0  0  0  0  0  0  0  0  0  0  0  0
   -2.6748   -2.1561   -0.0604 C   0  0  0  0  0  0  0  0  0  0  0  0
   -0.2852   -2.5217   -0.1906 C   0  0  0  0  0  0  0  0  0  0  0  0
   -1.5855   -3.0255   -0.1296 C   0  0  0  0  0  0  0  0  0  0  0  0
    3.4281   -0.2138    0.9123 C   0  0  0  0  0  0  0  0  0  0  0  0
    1.8857   -0.5617   -1.4713 C   0  0  0  0  0  0  0  0  0  0  0  0
    4.0744    0.0029   -0.3198 C   0  0  0  0  0  0  0  0  0  0  0  0
   -1.8043    3.3686   -0.0253 C   0  0  0  0  0  0  0  0  0  0  0  0
   -4.4161    2.3564    0.0955 C   0  0  0  0  0  0  0  0  0  0  0  0
    3.3116   -0.1654   -1.5811 C   0  0  0  0  0  0  0  0  0  0  0  0
    4.1700   -0.0493    2.0915 C   0  0  0  0  0  0  0  0  0  0  0  0
   -2.8936    4.2379    0.0445 C   0  0  0  0  0  0  0  0  0  0  0  0
    5.4225    0.3735   -0.3712 C   0  0  0  0  0  0  0  0  0  0  0  0
   -4.1941    3.7340    0.1045 C   0  0  0  0  0  0  0  0  0  0  0  0
   -3.9766   -2.8144   -0.0015 C   0  0  0  0  0  0  0  0  0  0  0  0
    5.5161    0.3206    2.0405 C   0  0  0  0  0  0  0  0  0  0  0  0
    6.1401    0.5314    0.8127 C   0  0  0  0  0  0  0  0  0  0  0  0
   -1.7490   -4.1017   -0.1366 H   0  0  0  0  0  0  0  0  0  0  0  0
    1.3259   -0.6878   -2.3917 H   0  0  0  0  0  0  0  0  0  0  0  0
   -5.4424    2.0028    0.1436 H   0  0  0  0  0  0  0  0  0  0  0  0
    3.7128   -0.2062    3.0652 H   0  0  0  0  0  0  0  0  0  0  0  0
   -2.7391    5.3140    0.0525 H   0  0  0  0  0  0  0  0  0  0  0  0
   -5.0366    4.4177    0.1585 H   0  0  0  0  0  0  0  0  0  0  0  0
    6.0780    0.4444    2.9620 H   0  0  0  0  0  0  0  0  0  0  0  0
    7.1877    0.8193    0.7871 H   0  0  0  0  0  0  0  0  0  0  0  0
    0.3865   -4.3212   -0.2520 H   0  0  0  0  0  0  0  0  0  0  0  0
    1.0844    0.0991    2.3566 H   0  0  0  0  0  0  0  0  0  0  0  0
    0.1094    3.2671   -0.1264 H   0  0  0  0  0  0  0  0  0  0  0  0
    5.4927    0.4603   -2.3000 H   0  0  0  0  0  0  0  0  0  0  0  0
   -5.2449   -3.5069    1.3080 H   0  0  0  0  0  0  0  0  0  0  0  0
  1 20  1  0  0  0  0
  1 43  1  0  0  0  0
  2 10  1  0  0  0  0
  3 12  1  0  0  0  0
  3 44  1  0  0  0  0
  4 11  1  0  0  0  0
  5 25  1  0  0  0  0
  5 45  1  0  0  0  0
  6 27  2  0  0  0  0
  7 30  1  0  0  0  0
  7 46  1  0  0  0  0
  8 32  1  0  0  0  0
  8 47  1  0  0  0  0
  9 32  2  0  0  0  0
 10 13  2  0  0  0  0
 10 17  1  0  0  0  0
 11 15  2  0  0  0  0
 11 18  1  0  0  0  0
 12 16  1  0  0  0  0
 12 22  1  0  0  0  0
 13 14  1  0  0  0  0
 13 15  1  0  0  0  0
 14 16  1  0  0  0  0
 14 20  2  0  0  0  0
 15 19  1  0  0  0  0
 16 23  2  0  0  0  0
 17 18  2  0  0  0  0
 17 25  1  0  0  0  0
 18 26  1  0  0  0  0
 19 21  2  0  0  0  0
 19 32  1  0  0  0  0
 20 21  1  0  0  0  0
 21 35  1  0  0  0  0
 22 24  2  0  0  0  0
 22 28  1  0  0  0  0
 23 27  1  0  0  0  0
 23 36  1  0  0  0  0
 24 27  1  0  0  0  0
 24 30  1  0  0  0  0
 25 29  2  0  0  0  0
 26 31  2  0  0  0  0
 26 37  1  0  0  0  0
 28 33  2  0  0  0  0
 28 38  1  0  0  0  0
 29 31  1  0  0  0  0
 29 39  1  0  0  0  0
 30 34  2  0  0  0  0
 31 40  1  0  0  0  0
 33 34  1  0  0  0  0
 33 41  1  0  0  0  0
 34 42  1  0  0  0  0
M  CHG  4   2  -1   4  -1  10   1  11   1
M  END
> <PUBCHEM_COMPOUND_CID>
136065883

> <PUBCHEM_CONFORMER_RMSD>
0.8

> <PUBCHEM_CONFORMER_DIVERSEORDER>
1
2

> <PUBCHEM_MMFF94_PARTIAL_CHARGES>
47
1 -0.53
10 0.57
11 0.57
12 -0.22
13 0.09
14 0.03
15 0.09
16 0.07
17 0.09
18 0.09
19 0.09
2 -0.75
20 0.08
21 -0.15
22 0.1
23 -0.14
24 0.09
25 0.08
26 -0.15
27 0.47
28 -0.15
29 -0.15
3 -0.38
30 0.08
31 -0.15
32 0.63
33 -0.15
34 -0.15
35 0.15
36 0.15
37 0.15
38 0.15
39 0.15
4 -0.75
40 0.15
41 0.15
42 0.15
43 0.45
44 0.4
45 0.45
46 0.45
47 0.5
5 -0.53
6 -0.57
7 -0.53
8 -0.65
9 -0.57

> <PUBCHEM_EFFECTIVE_ROTOR_COUNT>
2

> <PUBCHEM_PHARMACOPHORE_FEATURES>
15
1 1 donor
1 2 anion
1 3 anion
1 4 anion
1 5 donor
1 6 acceptor
1 7 donor
1 8 acceptor
1 9 acceptor
3 8 9 32 anion
6 10 11 13 15 17 18 rings
6 12 16 22 23 24 27 rings
6 13 14 15 19 20 21 rings
6 17 18 25 26 29 31 rings
6 22 24 28 30 33 34 rings

> <PUBCHEM_HEAVY_ATOM_COUNT>
34

> <PUBCHEM_ATOM_DEF_STEREO_COUNT>
0

> <PUBCHEM_ATOM_UDEF_STEREO_COUNT>
0

> <PUBCHEM_BOND_DEF_STEREO_COUNT>
0

> <PUBCHEM_BOND_UDEF_STEREO_COUNT>
0

> <PUBCHEM_ISOTOPIC_ATOM_COUNT>
0

> <PUBCHEM_COMPONENT_COUNT>
1

> <PUBCHEM_CACTVS_TAUTO_COUNT>
-1

> <PUBCHEM_CONFORMER_ID>
081C335B00000001

> <PUBCHEM_MMFF94_ENERGY>
131.8996

> <PUBCHEM_FEATURE_SELFOVERLAP>
76.269

> <PUBCHEM_SHAPE_FINGERPRINT>
10319926 262 18269823260646187130
10369192 42 16843597426291683488
10411042 1 18122906697094474815
10670039 82 18408608072005636198
1100329 8 18337675317175955301
11049842 53 18190759543898311166
11059845 2 17904176176166756664
11135609 187 18120644731505027213
11421498 54 18114174267807844434
12236239 1 17676764374914268638
12390115 104 18200599077343855809
12422481 6 17315069953042617620
12553582 1 18337679710848585723
12788726 201 18189341323831633066
13140716 1 18337674247655012003
13402501 40 18059847359862154984
13617811 41 18339078323508602551
13726171 33 18341908415336993792
13782708 43 17775571944568896374
13965767 371 17681551433619141452
14028597 1 17749103401216612083
14068700 675 18195797686665334943
14294032 229 18339090298336047513
14790565 3 17764881195375287049
15131766 46 16155429530478420565
15297060 5 18270415875437736792
15961568 22 17980192308196491808
16087824 20 18412260616096250389
17818456 19 18191294984448583514
19319366 153 17677331589559043825
20511986 3 17604138255607106204
21033648 29 17632002126807215290
21033650 10 18263666034021660422
21133410 90 18118941793602880949
2132832 1 18115868666691806740
21792961 116 17560812005490779660
21796203 349 17829928595526470659
22122407 14 16008751298866584519
22149856 69 17761792676425648905
22182313 1 17917717898328063110
22311459 1 18410854365855714445
23557571 272 18272939323321594284
23559900 14 18199478675416775254
244849 19 17703510987618561014
469060 322 18266760115339739259
508706 21 18343577430251754981
5265222 85 18270970159001860158
550186 7 18272373053142000518
6677587 24 15222805909709669607
6700243 42 17841747219542420622
7808743 9 18338515244494814712
9658208 31 18126297349818682405
9849439 229 18051125896313274097
9981440 41 18263365802564202523

> <PUBCHEM_SHAPE_MULTIPOLES>
631.94
12.13
4.59
1.49
12.05
1.59
-0.01
2.56
1.15
-9.43
0
2.86
-0.2
0.12

> <PUBCHEM_SHAPE_SELFOVERLAP>
1447.952

> <PUBCHEM_SHAPE_VOLUME>
322.7

> <PUBCHEM_COORDINATE_TYPE>
2
5
10

$$$$
