136035353
  -OEChem-03292013293D

 31 31  0     0  0  0  0  0  0999 V2000
   -0.4349    1.8602   -1.4776 O   0  0  0  0  0  0  0  0  0  0  0  0
    2.4418    1.4452   -0.0335 O   0  0  0  0  0  0  0  0  0  0  0  0
    0.5862   -0.8570   -0.7088 N   0  0  0  0  0  0  0  0  0  0  0  0
   -1.0102    2.3977    0.7048 N   0  0  0  0  0  0  0  0  0  0  0  0
    3.4432    0.4803   -0.1583 N   0  0  0  0  0  0  0  0  0  0  0  0
   -0.4581    3.6614    0.6191 N   0  0  0  0  0  0  0  0  0  0  0  0
   -0.7773   -0.9362   -0.3807 C   0  0  0  0  0  0  0  0  0  0  0  0
   -1.5450    0.2179   -0.2251 C   0  0  0  0  0  0  0  0  0  0  0  0
   -1.3621   -2.1910   -0.2104 C   0  0  0  0  0  0  0  0  0  0  0  0
   -2.8975    0.1172    0.1009 C   0  0  0  0  0  0  0  0  0  0  0  0
    1.4709   -0.7942    0.2369 C   0  0  0  0  0  0  0  0  0  0  0  0
   -2.7147   -2.2919    0.1156 C   0  0  0  0  0  0  0  0  0  0  0  0
   -3.4824   -1.1378    0.2711 C   0  0  0  0  0  0  0  0  0  0  0  0
   -0.9607    1.5415   -0.3969 C   0  0  0  0  0  0  0  0  0  0  0  0
    2.9488   -0.7074   -0.0183 C   0  0  0  0  0  0  0  0  0  0  0  0
    1.0550   -0.8013    1.6777 C   0  0  0  0  0  0  0  0  0  0  0  0
    3.6970   -2.0046   -0.1165 C   0  0  0  0  0  0  0  0  0  0  0  0
   -0.7731   -3.0967   -0.3301 H   0  0  0  0  0  0  0  0  0  0  0  0
   -3.5112    1.0064    0.2212 H   0  0  0  0  0  0  0  0  0  0  0  0
   -3.1700   -3.2689    0.2479 H   0  0  0  0  0  0  0  0  0  0  0  0
   -4.5357   -1.2163    0.5238 H   0  0  0  0  0  0  0  0  0  0  0  0
    0.4275    0.0618    1.9103 H   0  0  0  0  0  0  0  0  0  0  0  0
    1.9386   -0.7459    2.3218 H   0  0  0  0  0  0  0  0  0  0  0  0
    0.5295   -1.7276    1.9241 H   0  0  0  0  0  0  0  0  0  0  0  0
    3.3156   -2.5813   -0.9632 H   0  0  0  0  0  0  0  0  0  0  0  0
    4.7624   -1.8100   -0.2643 H   0  0  0  0  0  0  0  0  0  0  0  0
    3.5605   -2.5776    0.8042 H   0  0  0  0  0  0  0  0  0  0  0  0
   -1.4297    2.1206    1.5871 H   0  0  0  0  0  0  0  0  0  0  0  0
   -1.1752    4.3180    0.9245 H   0  0  0  0  0  0  0  0  0  0  0  0
    0.2820    3.7076    1.3182 H   0  0  0  0  0  0  0  0  0  0  0  0
    2.9455    2.2674   -0.1570 H   0  0  0  0  0  0  0  0  0  0  0  0
  1 14  2  0  0  0  0
  2  5  1  0  0  0  0
  2 31  1  0  0  0  0
  3  7  1  0  0  0  0
  3 11  2  0  0  0  0
  4  6  1  0  0  0  0
  4 14  1  0  0  0  0
  4 28  1  0  0  0  0
  5 15  2  0  0  0  0
  6 29  1  0  0  0  0
  6 30  1  0  0  0  0
  7  8  1  0  0  0  0
  7  9  2  0  0  0  0
  8 10  2  0  0  0  0
  8 14  1  0  0  0  0
  9 12  1  0  0  0  0
  9 18  1  0  0  0  0
 10 13  1  0  0  0  0
 10 19  1  0  0  0  0
 11 15  1  0  0  0  0
 11 16  1  0  0  0  0
 12 13  2  0  0  0  0
 12 20  1  0  0  0  0
 13 21  1  0  0  0  0
 15 17  1  0  0  0  0
 16 22  1  0  0  0  0
 16 23  1  0  0  0  0
 16 24  1  0  0  0  0
 17 25  1  0  0  0  0
 17 26  1  0  0  0  0
 17 27  1  0  0  0  0
M  END
> <PUBCHEM_COMPOUND_CID>
136035353

> <PUBCHEM_CONFORMER_RMSD>
0.6

> <PUBCHEM_CONFORMER_DIVERSEORDER>
1
16
26
11
28
31
23
6
35
32
20
30
10
25
18
2
14
19
15
13
7
33
9
27
24
34
8
21
12
17
22
5
4
29
3

> <PUBCHEM_MMFF94_PARTIAL_CHARGES>
25
1 -0.57
10 -0.15
11 0.39
12 -0.15
13 -0.15
14 0.54
15 0.39
16 0.06
17 0.06
18 0.15
19 0.15
2 -0.34
20 0.15
21 0.15
28 0.37
29 0.36
3 -0.63
30 0.36
31 0.4
4 -0.42
5 -0.51
6 -0.73
7 0.18
8 0.09
9 -0.15

> <PUBCHEM_EFFECTIVE_ROTOR_COUNT>
4

> <PUBCHEM_PHARMACOPHORE_FEATURES>
7
1 1 acceptor
1 2 anion
1 3 acceptor
1 4 donor
1 5 acceptor
1 6 donor
6 7 8 9 10 12 13 rings

> <PUBCHEM_HEAVY_ATOM_COUNT>
17

> <PUBCHEM_ATOM_DEF_STEREO_COUNT>
0

> <PUBCHEM_ATOM_UDEF_STEREO_COUNT>
0

> <PUBCHEM_BOND_DEF_STEREO_COUNT>
1

> <PUBCHEM_BOND_UDEF_STEREO_COUNT>
0

> <PUBCHEM_ISOTOPIC_ATOM_COUNT>
0

> <PUBCHEM_COMPONENT_COUNT>
1

> <PUBCHEM_CACTVS_TAUTO_COUNT>
-1

> <PUBCHEM_CONFORMER_ID>
081BBC1900000001

> <PUBCHEM_MMFF94_ENERGY>
55.4692

> <PUBCHEM_FEATURE_SELFOVERLAP>
37.025

> <PUBCHEM_SHAPE_FINGERPRINT>
108231 29 18189622815903778059
10967382 1 18267022945414900814
11132069 177 18410285947491268018
13027679 85 18340205310136810837
13132413 78 18267027330908774157
13140716 1 18410013238622274163
14787075 74 17825675722471916250
15076042 46 18265606589760032347
15375462 189 18041279954274649339
15375462 6 18411702101647008286
15442244 35 18193838142080247842
15490181 8 17545869443888152863
15775835 57 17679869202187117556
16945 1 18269282269958528167
19868273 325 18337945787750251319
20510252 161 18341048506336628401
21029758 11 18340761628961082791
21524375 3 17408511849749837725
22802520 49 18201436935389979778
2297311 6 18341063960177962574
2334 1 18265612259064167527
23402539 116 18271796887790863631
23557571 272 18412271640217165054
23559900 14 18411130308572130674
2748010 2 18339910619271053583
3286 77 16988547022811457179
427121 178 16553445936784729665
537710 114 18262807400727790373
6992083 37 17827362081641460662
7364860 26 17836365222046481875
81228 2 18262811665567082963

> <PUBCHEM_SHAPE_MULTIPOLES>
318.19
5.36
3.13
0.97
2.83
2.48
0.16
-2.9
0.06
-0.93
0.27
0.1
0.15
-0.02

> <PUBCHEM_SHAPE_SELFOVERLAP>
659.28

> <PUBCHEM_SHAPE_VOLUME>
182.1

> <PUBCHEM_COORDINATE_TYPE>
2
5
10

$$$$
