136002157
  -OEChem-03292013293D

 34 36  0     1  0  0  0  0  0999 V2000
   -2.7525    2.4376   -1.3124 O   0  0  0  0  0  0  0  0  0  0  0  0
   -5.5075   -0.7985    0.7616 O   0  0  0  0  0  0  0  0  0  0  0  0
    4.3398    1.5400    0.8006 O   0  0  0  0  0  0  0  0  0  0  0  0
    0.0478    0.4287   -0.0703 N   0  0  0  0  0  0  0  0  0  0  0  0
    1.4169    2.0462    0.6444 N   0  0  0  0  0  0  0  0  0  0  0  0
    1.6405   -1.3420   -0.5032 N   0  0  0  0  0  0  0  0  0  0  0  0
    3.8622   -0.6028    0.0041 N   0  0  0  0  0  0  0  0  0  0  0  0
    3.4738   -2.7830   -0.7941 N   0  0  0  0  0  0  0  0  0  0  0  0
   -2.6810    0.3647   -0.1324 C   0  0  2  0  0  0  0  0  0  0  0  0
   -1.3035   -0.2999   -0.4752 C   0  0  2  0  0  0  0  0  0  0  0  0
   -3.2327   -1.0734    0.0961 C   0  0  1  0  0  0  0  0  0  0  0  0
   -1.7775   -1.4943    0.4079 C   0  0  0  0  0  0  0  0  0  0  0  0
   -3.3546    1.1536   -1.2397 C   0  0  0  0  0  0  0  0  0  0  0  0
   -4.2380   -1.2442    1.2172 C   0  0  0  0  0  0  0  0  0  0  0  0
    1.3072   -0.0932   -0.1086 C   0  0  0  0  0  0  0  0  0  0  0  0
    0.1656    1.7177    0.3892 C   0  0  0  0  0  0  0  0  0  0  0  0
    2.1216    0.9207    0.3346 C   0  0  0  0  0  0  0  0  0  0  0  0
    3.5384    0.6971    0.4176 C   0  0  0  0  0  0  0  0  0  0  0  0
    2.9335   -1.5747   -0.4374 C   0  0  0  0  0  0  0  0  0  0  0  0
   -2.6581    0.9423    0.8037 H   0  0  0  0  0  0  0  0  0  0  0  0
   -1.2197   -0.5794   -1.5361 H   0  0  0  0  0  0  0  0  0  0  0  0
   -3.5896   -1.5489   -0.8300 H   0  0  0  0  0  0  0  0  0  0  0  0
   -1.4950   -1.4047    1.4638 H   0  0  0  0  0  0  0  0  0  0  0  0
   -1.4881   -2.4862    0.0497 H   0  0  0  0  0  0  0  0  0  0  0  0
   -4.4177    1.2922   -1.0195 H   0  0  0  0  0  0  0  0  0  0  0  0
   -3.2591    0.6584   -2.2113 H   0  0  0  0  0  0  0  0  0  0  0  0
   -3.9587   -0.6739    2.1089 H   0  0  0  0  0  0  0  0  0  0  0  0
   -4.3280   -2.3003    1.4912 H   0  0  0  0  0  0  0  0  0  0  0  0
   -0.6863    2.3691    0.5210 H   0  0  0  0  0  0  0  0  0  0  0  0
   -3.2047    2.9254   -2.0217 H   0  0  0  0  0  0  0  0  0  0  0  0
   -6.1345   -0.9267    1.4937 H   0  0  0  0  0  0  0  0  0  0  0  0
    4.8429   -0.8677    0.0236 H   0  0  0  0  0  0  0  0  0  0  0  0
    2.8886   -3.5431   -1.1231 H   0  0  0  0  0  0  0  0  0  0  0  0
    4.4721   -2.9527   -0.7397 H   0  0  0  0  0  0  0  0  0  0  0  0
  1 13  1  0  0  0  0
  1 30  1  0  0  0  0
  2 14  1  0  0  0  0
  2 31  1  0  0  0  0
  3 18  2  0  0  0  0
  4 10  1  0  0  0  0
  4 15  1  0  0  0  0
  4 16  1  0  0  0  0
  5 16  2  0  0  0  0
  5 17  1  0  0  0  0
  6 15  1  0  0  0  0
  6 19  2  0  0  0  0
  7 18  1  0  0  0  0
  7 19  1  0  0  0  0
  7 32  1  0  0  0  0
  8 19  1  0  0  0  0
  8 33  1  0  0  0  0
  8 34  1  0  0  0  0
  9 10  1  0  0  0  0
  9 11  1  0  0  0  0
  9 13  1  0  0  0  0
  9 20  1  0  0  0  0
 10 12  1  0  0  0  0
 10 21  1  0  0  0  0
 11 12  1  0  0  0  0
 11 14  1  0  0  0  0
 11 22  1  0  0  0  0
 12 23  1  0  0  0  0
 12 24  1  0  0  0  0
 13 25  1  0  0  0  0
 13 26  1  0  0  0  0
 14 27  1  0  0  0  0
 14 28  1  0  0  0  0
 15 17  2  0  0  0  0
 16 29  1  0  0  0  0
 17 18  1  0  0  0  0
M  END
> <PUBCHEM_COMPOUND_CID>
136002157

> <PUBCHEM_CONFORMER_RMSD>
0.6

> <PUBCHEM_CONFORMER_DIVERSEORDER>
1
46
59
16
69
47
21
67
54
60
53
48
38
44
49
56
35
3
29
66
18
31
8
33
7
12
63
58
10
2
9
4
11
61
62
23
50
17
14
68
40
6
27
65
13
20
32
5
39
24
57
45
19
34
42
28
30
43
26
22
25
55
36
51
41
52
64
37
15

> <PUBCHEM_MMFF94_PARTIAL_CHARGES>
22
1 -0.68
10 0.09
13 0.28
14 0.28
15 -0.03
16 0.04
17 0.14
18 0.72
19 0.56
2 -0.68
29 0.15
3 -0.57
30 0.4
31 0.4
32 0.37
33 0.4
34 0.4
4 0.22
5 -0.57
6 -0.58
7 -0.49
8 -0.85

> <PUBCHEM_EFFECTIVE_ROTOR_COUNT>
3.8

> <PUBCHEM_PHARMACOPHORE_FEATURES>
11
1 1 acceptor
1 1 donor
1 2 acceptor
1 2 donor
1 3 acceptor
1 7 donor
1 8 donor
3 4 5 16 cation
4 9 10 11 12 rings
5 4 5 15 16 17 rings
6 6 7 15 17 18 19 rings

> <PUBCHEM_HEAVY_ATOM_COUNT>
19

> <PUBCHEM_ATOM_DEF_STEREO_COUNT>
2

> <PUBCHEM_ATOM_UDEF_STEREO_COUNT>
1

> <PUBCHEM_BOND_DEF_STEREO_COUNT>
0

> <PUBCHEM_BOND_UDEF_STEREO_COUNT>
0

> <PUBCHEM_ISOTOPIC_ATOM_COUNT>
0

> <PUBCHEM_COMPONENT_COUNT>
1

> <PUBCHEM_CACTVS_TAUTO_COUNT>
-1

> <PUBCHEM_CONFORMER_ID>
081B3A6D00000001

> <PUBCHEM_MMFF94_ENERGY>
46.8852

> <PUBCHEM_FEATURE_SELFOVERLAP>
56

> <PUBCHEM_SHAPE_FINGERPRINT>
10608611 8 18409440393005979100
10922523 26 18408600357563857909
1100329 8 16680627361259950563
12236239 1 16773802527908430875
12251169 10 18200881789460629211
12507560 40 18410855451854770965
13140716 1 17912077562607231888
13296908 3 18412262809300109046
14252887 29 18410860983693670074
14866123 147 17333941845772378835
15219456 202 18411132532773989172
15375358 24 18411124840830446776
15475509 84 17416418575509533136
15653759 3 18260266365200476649
1813 80 17313109682903041101
18186145 218 18115025186691051750
19049666 15 18336260146267201427
19141452 34 18340492274540791603
20645477 70 18130497540171543278
21065201 7 17822006463143941835
21267235 1 18343312448476851750
221490 88 18340207380463632094
22182313 1 18409725140726488573
22943178 12 18336541638175861615
23402539 116 18042674169599836399
23526113 38 18268974432673001721
23557571 272 17967813851117818021
23559900 14 18194956354064046406
2748010 2 18341046328993937684
33824 294 18413389864996584346
5104073 3 18338795619848862112
6049 1 18335421261966395677
8809292 202 18265052444425926557
9709674 26 18410286991178779631

> <PUBCHEM_SHAPE_MULTIPOLES>
348.5
9.05
2.38
1
3.28
0.04
-0.07
2.09
1.41
-0.92
-0.39
0.64
-0.14
2.18

> <PUBCHEM_SHAPE_SELFOVERLAP>
744.472

> <PUBCHEM_SHAPE_VOLUME>
193.4

> <PUBCHEM_COORDINATE_TYPE>
2
5
10

$$$$
