136062272
  -OEChem-03292013293D

 49 51  0     0  0  0  0  0  0999 V2000
    2.1110    2.8341   -3.0052 Cl  0  0  0  0  0  0  0  0  0  0  0  0
   -2.9222    0.2435   -1.5152 S   0  0  0  0  0  0  0  0  0  0  0  0
   -2.6579    2.5442    2.3427 O   0  0  0  0  0  0  0  0  0  0  0  0
   -1.9030    0.6546   -2.4571 O   0  0  0  0  0  0  0  0  0  0  0  0
   -4.2792   -0.0110   -1.9497 O   0  0  0  0  0  0  0  0  0  0  0  0
    1.3467   -4.0169    0.2618 O   0  0  0  0  0  0  0  0  0  0  0  0
    3.0447    0.7088    2.3903 O   0  0  0  0  0  0  0  0  0  0  0  0
   -2.9545    1.3488   -0.2081 N   0  0  0  0  0  0  0  0  0  0  0  0
    1.7696   -1.7458    0.1027 N   0  0  0  0  0  0  0  0  0  0  0  0
    3.1056   -1.9288    0.1981 N   0  0  0  0  0  0  0  0  0  0  0  0
   -1.6205    1.8042    0.2818 C   0  0  0  0  0  0  0  0  0  0  0  0
   -3.8427    0.9719    0.9304 C   0  0  0  0  0  0  0  0  0  0  0  0
   -3.9532    2.1581    1.8779 C   0  0  0  0  0  0  0  0  0  0  0  0
   -1.8244    2.9551    1.2569 C   0  0  0  0  0  0  0  0  0  0  0  0
   -2.3386   -1.2007   -0.6843 C   0  0  0  0  0  0  0  0  0  0  0  0
   -0.9690   -1.4513   -0.6007 C   0  0  0  0  0  0  0  0  0  0  0  0
   -3.2470   -2.0921   -0.1131 C   0  0  0  0  0  0  0  0  0  0  0  0
   -0.5075   -2.5933    0.0541 C   0  0  0  0  0  0  0  0  0  0  0  0
   -2.7854   -3.2339    0.5421 C   0  0  0  0  0  0  0  0  0  0  0  0
   -1.4158   -3.4847    0.6254 C   0  0  0  0  0  0  0  0  0  0  0  0
    0.9203   -2.8541    0.1415 C   0  0  0  0  0  0  0  0  0  0  0  0
    3.8718   -0.8787    0.1590 C   0  0  0  0  0  0  0  0  0  0  0  0
    3.2202    0.4524    0.0115 C   0  0  0  0  0  0  0  0  0  0  0  0
    2.8350    1.1886    1.1320 C   0  0  0  0  0  0  0  0  0  0  0  0
    2.9963    0.9610   -1.2679 C   0  0  0  0  0  0  0  0  0  0  0  0
    5.3847   -0.9150    0.2533 C   0  0  0  0  0  0  0  0  0  0  0  0
    2.2257    2.4333    0.9731 C   0  0  0  0  0  0  0  0  0  0  0  0
    2.3873    2.2058   -1.4269 C   0  0  0  0  0  0  0  0  0  0  0  0
    2.0020    2.9421   -0.3064 C   0  0  0  0  0  0  0  0  0  0  0  0
   -1.0047    2.1480   -0.5536 H   0  0  0  0  0  0  0  0  0  0  0  0
   -3.4095    0.1312    1.4809 H   0  0  0  0  0  0  0  0  0  0  0  0
   -4.8392    0.7028    0.5684 H   0  0  0  0  0  0  0  0  0  0  0  0
   -1.1126    0.9827    0.7967 H   0  0  0  0  0  0  0  0  0  0  0  0
   -4.5541    1.8857    2.7512 H   0  0  0  0  0  0  0  0  0  0  0  0
   -4.4356    3.0160    1.3942 H   0  0  0  0  0  0  0  0  0  0  0  0
   -2.2740    3.8252    0.7636 H   0  0  0  0  0  0  0  0  0  0  0  0
   -0.8632    3.2690    1.6749 H   0  0  0  0  0  0  0  0  0  0  0  0
   -0.2796   -0.7605   -1.0766 H   0  0  0  0  0  0  0  0  0  0  0  0
   -4.3178   -1.9171   -0.1645 H   0  0  0  0  0  0  0  0  0  0  0  0
   -3.4926   -3.9270    0.9883 H   0  0  0  0  0  0  0  0  0  0  0  0
   -1.0767   -4.3776    1.1441 H   0  0  0  0  0  0  0  0  0  0  0  0
    1.3985   -0.8063    0.0665 H   0  0  0  0  0  0  0  0  0  0  0  0
    3.2975    0.3843   -2.1397 H   0  0  0  0  0  0  0  0  0  0  0  0
    5.6705   -1.3762    1.2026 H   0  0  0  0  0  0  0  0  0  0  0  0
    5.7779   -1.5167   -0.5706 H   0  0  0  0  0  0  0  0  0  0  0  0
    5.8097    0.0905    0.1996 H   0  0  0  0  0  0  0  0  0  0  0  0
    1.9192    3.0170    1.8369 H   0  0  0  0  0  0  0  0  0  0  0  0
    1.5246    3.9126   -0.4150 H   0  0  0  0  0  0  0  0  0  0  0  0
    2.7114    1.3549    3.0363 H   0  0  0  0  0  0  0  0  0  0  0  0
  1 28  1  0  0  0  0
  2  4  2  0  0  0  0
  2  5  2  0  0  0  0
  2  8  1  0  0  0  0
  2 15  1  0  0  0  0
  3 13  1  0  0  0  0
  3 14  1  0  0  0  0
  6 21  2  0  0  0  0
  7 24  1  0  0  0  0
  7 49  1  0  0  0  0
  8 11  1  0  0  0  0
  8 12  1  0  0  0  0
  9 10  1  0  0  0  0
  9 21  1  0  0  0  0
  9 42  1  0  0  0  0
 10 22  2  0  0  0  0
 11 14  1  0  0  0  0
 11 30  1  0  0  0  0
 11 33  1  0  0  0  0
 12 13  1  0  0  0  0
 12 31  1  0  0  0  0
 12 32  1  0  0  0  0
 13 34  1  0  0  0  0
 13 35  1  0  0  0  0
 14 36  1  0  0  0  0
 14 37  1  0  0  0  0
 15 16  1  0  0  0  0
 15 17  2  0  0  0  0
 16 18  2  0  0  0  0
 16 38  1  0  0  0  0
 17 19  1  0  0  0  0
 17 39  1  0  0  0  0
 18 20  1  0  0  0  0
 18 21  1  0  0  0  0
 19 20  2  0  0  0  0
 19 40  1  0  0  0  0
 20 41  1  0  0  0  0
 22 23  1  0  0  0  0
 22 26  1  0  0  0  0
 23 24  2  0  0  0  0
 23 25  1  0  0  0  0
 24 27  1  0  0  0  0
 25 28  2  0  0  0  0
 25 43  1  0  0  0  0
 26 44  1  0  0  0  0
 26 45  1  0  0  0  0
 26 46  1  0  0  0  0
 27 29  2  0  0  0  0
 27 47  1  0  0  0  0
 28 29  1  0  0  0  0
 29 48  1  0  0  0  0
M  END
> <PUBCHEM_COMPOUND_CID>
136062272

> <PUBCHEM_CONFORMER_RMSD>
0.8

> <PUBCHEM_CONFORMER_DIVERSEORDER>
1
265
188
291
103
218
115
315
272
247
367
357
79
306
308
323
325
145
288
187
88
251
281
303
264
174
369
65
273
114
360
123
383
216
233
150
180
8
394
284
298
300
111
155
204
95
96
320
209
391
404
125
104
359
106
241
135
256
279
238
248
76
390
118
389
113
162
56
362
152
266
353
334
196
199
87
153
82
356
375
138
97
177
374
385
178
229
243
287
169
28
220
260
290
406
102
341
154
348
173
227
210
228
73
226
242
5
165
130
225
280
105
398
282
215
403
171
285
339
257
15
386
289
236
401
269
172
338
198
144
126
51
159
37
32
246
69
402
318
297
329
206
231
136
74
219
267
117
167
112
270
405
244
294
9
200
90
392
149
351
333
44
119
327
283
131
189
254
81
127
7
393
192
158
137
190
64
93
332
326
143
400
195
395
86
201
164
388
128
301
161
55
234
163
110
78
337
60
255
355
109
364
372
107
361
245
382
319
344
83
84
142
42
305
17
277
186
75
309
175
71
54
380
27
321
50
11
240
252
222
335
296
6
94
205
77
249
324
370
212
197
182
80
313
120
213
45
193
25
276
307
29
89
371
101
293
46
368
274
399
322
91
133
268
108
262
184
349
239
66
271
221
350
61
346
33
223
20
31
160
26
116
147
122
40
191
168
92
377
139
310
156
258
376
141
121
62
217
47
381
24
363
343
63
70
214
140
72
157
342
194
134
237
170
202
340
317
36
99
124
352
397
224
378
314
39
208
302
52
85
129
232
19
21
14
263
295
34
366
259
3
166
203
345
12
331
379
10
311
261
230
68
100
278
181
292
49
18
354
59
207
179
286
13
384
23
132
347
365
151
253
2
43
57
235
304
41
148
330
176
30
38
358
299
336
211
396
48
312
58
185
328
16
373
387
53
250
146
4
67
98
35
316
22
183
275

> <PUBCHEM_MMFF94_PARTIAL_CHARGES>
38
1 -0.18
10 -0.51
11 0.36
12 0.36
13 0.28
14 0.28
15 -0.01
16 -0.15
17 -0.15
18 0.09
19 -0.15
2 1.45
20 -0.15
21 0.54
22 0.3
23 0.09
24 0.08
25 -0.15
26 0.06
27 -0.15
28 0.18
29 -0.15
3 -0.56
38 0.15
39 0.15
4 -0.65
40 0.15
41 0.15
42 0.37
43 0.15
47 0.15
48 0.15
49 0.45
5 -0.65
6 -0.57
7 -0.53
8 -0.85
9 -0.37

> <PUBCHEM_EFFECTIVE_ROTOR_COUNT>
7.2

> <PUBCHEM_PHARMACOPHORE_FEATURES>
10
1 10 acceptor
1 3 acceptor
1 4 acceptor
1 5 acceptor
1 6 acceptor
1 7 donor
1 9 donor
6 15 16 17 18 19 20 rings
6 23 24 25 27 28 29 rings
6 3 8 11 12 13 14 rings

> <PUBCHEM_HEAVY_ATOM_COUNT>
29

> <PUBCHEM_ATOM_DEF_STEREO_COUNT>
0

> <PUBCHEM_ATOM_UDEF_STEREO_COUNT>
0

> <PUBCHEM_BOND_DEF_STEREO_COUNT>
1

> <PUBCHEM_BOND_UDEF_STEREO_COUNT>
0

> <PUBCHEM_ISOTOPIC_ATOM_COUNT>
0

> <PUBCHEM_COMPONENT_COUNT>
1

> <PUBCHEM_CACTVS_TAUTO_COUNT>
-1

> <PUBCHEM_CONFORMER_ID>
081C254000000001

> <PUBCHEM_MMFF94_ENERGY>
75.8013

> <PUBCHEM_FEATURE_SELFOVERLAP>
50.772

> <PUBCHEM_SHAPE_FINGERPRINT>
10064457 181 18269845224697573016
10708813 3 18198623224720128960
11513181 2 17630603414667502766
12422481 6 17761756387760875978
12522641 24 16688529066652776371
12633257 1 18335140869126128558
12788726 201 17908729532526026717
13122387 1 17762900961409593186
13140716 1 18411703226548124835
14466204 15 18261095375868166674
17974551 9 17845645950615004792
19930381 70 17549537857039147835
20715895 44 17970879320154593487
20764821 26 18341058517958208289
22749437 52 18264475346892469310
23559900 14 18262790899568973366
338550 245 18338246998122760497
350125 39 18262804089371691758
35225 105 17485127173030243537
392239 28 18340785771141345115
469060 322 17168151160993404387
5081480 168 16554284854976249351

> <PUBCHEM_SHAPE_MULTIPOLES>
558.24
8.37
4.96
2.12
2.19
2.23
0.66
-0.94
-0.66
-0.98
-0.91
-0.34
-2.3
-2.01

> <PUBCHEM_SHAPE_SELFOVERLAP>
1166.595

> <PUBCHEM_SHAPE_VOLUME>
316.7

> <PUBCHEM_COORDINATE_TYPE>
2
5
10

$$$$
