136051299
  -OEChem-03292013293D

 27 28  0     1  0  0  0  0  0999 V2000
   -2.8043   -1.3298    1.1576 O   0  0  0  0  0  0  0  0  0  0  0  0
    0.0185    2.0125   -0.3956 O   0  0  0  0  0  0  0  0  0  0  0  0
   -4.7243    0.3300    0.3698 O   0  0  0  0  0  0  0  0  0  0  0  0
   -0.2521   -1.0049   -0.5078 N   0  0  0  0  0  0  0  0  0  0  0  0
    1.4743   -2.3731   -0.1614 N   0  0  0  0  0  0  0  0  0  0  0  0
    2.2455    1.5891    0.0786 N   0  0  0  0  0  0  0  0  0  0  0  0
    3.1762   -0.6176    0.2386 N   0  0  0  0  0  0  0  0  0  0  0  0
   -3.2451    1.8692   -0.4812 N   0  0  0  0  0  0  0  0  0  0  0  0
    4.5144    1.2758    0.5622 N   0  0  0  0  0  0  0  0  0  0  0  0
   -1.6049   -0.5901   -0.7911 C   0  0  0  0  0  0  0  0  0  0  0  0
    0.8254   -0.2053   -0.2612 C   0  0  0  0  0  0  0  0  0  0  0  0
   -2.3549   -0.1675    0.4763 C   0  0  1  0  0  0  0  0  0  0  0  0
    1.8756   -1.0680   -0.0506 C   0  0  0  0  0  0  0  0  0  0  0  0
    0.1885   -2.3008   -0.4366 C   0  0  0  0  0  0  0  0  0  0  0  0
    0.9336    1.2171   -0.2117 C   0  0  0  0  0  0  0  0  0  0  0  0
   -3.5713    0.6747    0.1234 C   0  0  0  0  0  0  0  0  0  0  0  0
    3.3048    0.6886    0.2906 C   0  0  0  0  0  0  0  0  0  0  0  0
   -1.5360    0.2097   -1.5359 H   0  0  0  0  0  0  0  0  0  0  0  0
   -2.1097   -1.4315   -1.2822 H   0  0  0  0  0  0  0  0  0  0  0  0
   -1.7261    0.4062    1.1654 H   0  0  0  0  0  0  0  0  0  0  0  0
   -0.4683   -3.1462   -0.5917 H   0  0  0  0  0  0  0  0  0  0  0  0
    2.4499    2.5822    0.1409 H   0  0  0  0  0  0  0  0  0  0  0  0
   -3.3386   -1.8578    0.5401 H   0  0  0  0  0  0  0  0  0  0  0  0
   -2.2851    2.1550   -0.6448 H   0  0  0  0  0  0  0  0  0  0  0  0
   -3.9675    2.5229   -0.7646 H   0  0  0  0  0  0  0  0  0  0  0  0
    5.3434    0.7163    0.7305 H   0  0  0  0  0  0  0  0  0  0  0  0
    4.6160    2.2840    0.6026 H   0  0  0  0  0  0  0  0  0  0  0  0
  1 12  1  0  0  0  0
  1 23  1  0  0  0  0
  2 15  2  0  0  0  0
  3 16  2  0  0  0  0
  4 10  1  0  0  0  0
  4 11  1  0  0  0  0
  4 14  1  0  0  0  0
  5 13  1  0  0  0  0
  5 14  2  0  0  0  0
  6 15  1  0  0  0  0
  6 17  1  0  0  0  0
  6 22  1  0  0  0  0
  7 13  1  0  0  0  0
  7 17  2  0  0  0  0
  8 16  1  0  0  0  0
  8 24  1  0  0  0  0
  8 25  1  0  0  0  0
  9 17  1  0  0  0  0
  9 26  1  0  0  0  0
  9 27  1  0  0  0  0
 10 12  1  0  0  0  0
 10 18  1  0  0  0  0
 10 19  1  0  0  0  0
 11 13  2  0  0  0  0
 11 15  1  0  0  0  0
 12 16  1  0  0  0  0
 12 20  1  0  0  0  0
 14 21  1  0  0  0  0
M  END
> <PUBCHEM_COMPOUND_CID>
136051299

> <PUBCHEM_CONFORMER_RMSD>
0.6

> <PUBCHEM_CONFORMER_DIVERSEORDER>
1
33
51
42
48
43
34
8
13
39
44
27
47
46
50
7
3
29
23
16
45
21
5
18
32
30
25
6
38
49
37
28
2
11
9
40
14
10
31
4
22
24
36
17
20
41
12
15
35
26
19

> <PUBCHEM_MMFF94_PARTIAL_CHARGES>
24
1 -0.68
10 0.26
11 -0.24
12 0.34
13 0.35
14 0.04
15 0.71
16 0.57
17 0.56
2 -0.57
21 0.15
22 0.37
23 0.4
24 0.37
25 0.37
26 0.4
27 0.4
3 -0.57
4 0.05
5 -0.57
6 -0.49
7 -0.57
8 -0.8
9 -0.85

> <PUBCHEM_EFFECTIVE_ROTOR_COUNT>
3

> <PUBCHEM_PHARMACOPHORE_FEATURES>
10
1 1 acceptor
1 1 donor
1 2 acceptor
1 3 acceptor
1 6 donor
1 8 donor
1 9 donor
3 4 5 14 cation
5 4 5 11 13 14 rings
6 6 7 11 13 15 17 rings

> <PUBCHEM_HEAVY_ATOM_COUNT>
17

> <PUBCHEM_ATOM_DEF_STEREO_COUNT>
0

> <PUBCHEM_ATOM_UDEF_STEREO_COUNT>
1

> <PUBCHEM_BOND_DEF_STEREO_COUNT>
0

> <PUBCHEM_BOND_UDEF_STEREO_COUNT>
0

> <PUBCHEM_ISOTOPIC_ATOM_COUNT>
0

> <PUBCHEM_COMPONENT_COUNT>
1

> <PUBCHEM_CACTVS_TAUTO_COUNT>
-1

> <PUBCHEM_CONFORMER_ID>
081BFA6300000001

> <PUBCHEM_MMFF94_ENERGY>
28.5523

> <PUBCHEM_FEATURE_SELFOVERLAP>
50.925

> <PUBCHEM_SHAPE_FINGERPRINT>
10465860 228 18271532991708775522
10608611 8 18336547101849139133
10967382 1 18411699855051571084
10980938 120 18411700958879395103
11132069 177 18335139803810695464
11471102 20 18411696560816929884
11471102 22 18262531375922205515
12251169 10 18113901589129311723
12382932 28 18408604747031003339
13380535 76 18408886248136356659
14790565 3 18336837501948096604
15196674 1 18339078190311420141
15219456 202 18335700482027162677
15375358 24 18334010562762272385
15775835 57 17988924491846079797
16945 1 18338790234487288974
18186145 218 17989219165267938078
19049666 15 17971475092179310455
19784866 170 18335421266324614316
200 152 18201429316618988079
21524375 3 18200593717087247271
2748010 2 18194670476655836174
293599 30 18340488967268079228
5104073 3 18336552595344277201
53812653 166 18342173384131029176
7364860 26 18200879452687489318

> <PUBCHEM_SHAPE_MULTIPOLES>
302.36
7.04
2.24
0.78
2.38
0.47
0.04
-2.99
1.67
-0.58
-0.23
0.28
0.09
0.48

> <PUBCHEM_SHAPE_SELFOVERLAP>
649.967

> <PUBCHEM_SHAPE_VOLUME>
165.5

> <PUBCHEM_COORDINATE_TYPE>
2
5
10

$$$$
