136183860
  -OEChem-03292013293D

 34 36  0     1  0  0  0  0  0999 V2000
    2.7312   -2.4347    1.3274 O   0  0  0  0  0  0  0  0  0  0  0  0
    5.5144    0.8128   -0.7565 O   0  0  0  0  0  0  0  0  0  0  0  0
   -4.3417   -1.5344   -0.8018 O   0  0  0  0  0  0  0  0  0  0  0  0
   -0.0476   -0.4298    0.0675 N   0  0  0  0  0  0  0  0  0  0  0  0
   -1.4193   -2.0443   -0.6494 N   0  0  0  0  0  0  0  0  0  0  0  0
   -1.6377    1.3421    0.5042 N   0  0  0  0  0  0  0  0  0  0  0  0
   -3.8608    0.6067   -0.0029 N   0  0  0  0  0  0  0  0  0  0  0  0
   -3.4690    2.7848    0.7997 N   0  0  0  0  0  0  0  0  0  0  0  0
    2.6810   -0.3711    0.1301 C   0  0  1  0  0  0  0  0  0  0  0  0
    1.3048    0.2959    0.4734 C   0  0  1  0  0  0  0  0  0  0  0  0
    3.2354    1.0661   -0.0978 C   0  0  2  0  0  0  0  0  0  0  0  0
    1.7811    1.4906   -0.4080 C   0  0  0  0  0  0  0  0  0  0  0  0
    3.3540   -1.1618    1.2366 C   0  0  0  0  0  0  0  0  0  0  0  0
    4.2398    1.2359   -1.2194 C   0  0  0  0  0  0  0  0  0  0  0  0
   -1.3063    0.0937    0.1073 C   0  0  0  0  0  0  0  0  0  0  0  0
   -0.1674   -1.7179   -0.3942 C   0  0  0  0  0  0  0  0  0  0  0  0
   -2.1224   -0.9184   -0.3372 C   0  0  0  0  0  0  0  0  0  0  0  0
   -3.5389   -0.6928   -0.4187 C   0  0  0  0  0  0  0  0  0  0  0  0
   -2.9304    1.5766    0.4397 C   0  0  0  0  0  0  0  0  0  0  0  0
    2.6559   -0.9489   -0.8058 H   0  0  0  0  0  0  0  0  0  0  0  0
    1.2216    0.5740    1.5348 H   0  0  0  0  0  0  0  0  0  0  0  0
    3.5931    1.5410    0.8283 H   0  0  0  0  0  0  0  0  0  0  0  0
    1.4940    2.4826   -0.0483 H   0  0  0  0  0  0  0  0  0  0  0  0
    1.4978    1.4032   -1.4640 H   0  0  0  0  0  0  0  0  0  0  0  0
    3.2764   -0.6570    2.2047 H   0  0  0  0  0  0  0  0  0  0  0  0
    4.4124   -1.3190    1.0062 H   0  0  0  0  0  0  0  0  0  0  0  0
    4.3172    2.2897   -1.5054 H   0  0  0  0  0  0  0  0  0  0  0  0
    3.9692    0.6521   -2.1051 H   0  0  0  0  0  0  0  0  0  0  0  0
    0.6835   -2.3704   -0.5276 H   0  0  0  0  0  0  0  0  0  0  0  0
    3.1832   -2.9239    2.0358 H   0  0  0  0  0  0  0  0  0  0  0  0
    6.1409    0.9403   -1.4892 H   0  0  0  0  0  0  0  0  0  0  0  0
   -4.8411    0.8728   -0.0210 H   0  0  0  0  0  0  0  0  0  0  0  0
   -2.8826    3.5434    1.1301 H   0  0  0  0  0  0  0  0  0  0  0  0
   -4.4672    2.9558    0.7466 H   0  0  0  0  0  0  0  0  0  0  0  0
  1 13  1  0  0  0  0
  1 30  1  0  0  0  0
  2 14  1  0  0  0  0
  2 31  1  0  0  0  0
  3 18  2  0  0  0  0
  4 10  1  0  0  0  0
  4 15  1  0  0  0  0
  4 16  1  0  0  0  0
  5 16  2  0  0  0  0
  5 17  1  0  0  0  0
  6 15  1  0  0  0  0
  6 19  2  0  0  0  0
  7 18  1  0  0  0  0
  7 19  1  0  0  0  0
  7 32  1  0  0  0  0
  8 19  1  0  0  0  0
  8 33  1  0  0  0  0
  8 34  1  0  0  0  0
  9 10  1  0  0  0  0
  9 11  1  0  0  0  0
  9 13  1  0  0  0  0
  9 20  1  0  0  0  0
 10 12  1  0  0  0  0
 10 21  1  0  0  0  0
 11 12  1  0  0  0  0
 11 14  1  0  0  0  0
 11 22  1  0  0  0  0
 12 23  1  0  0  0  0
 12 24  1  0  0  0  0
 13 25  1  0  0  0  0
 13 26  1  0  0  0  0
 14 27  1  0  0  0  0
 14 28  1  0  0  0  0
 15 17  2  0  0  0  0
 16 29  1  0  0  0  0
 17 18  1  0  0  0  0
M  END
> <PUBCHEM_COMPOUND_CID>
136183860

> <PUBCHEM_CONFORMER_RMSD>
0.6

> <PUBCHEM_CONFORMER_DIVERSEORDER>
1
44
47
27
41
46
26
2
31
13
37
38
33
12
39
3
22
24
28
20
7
11
16
40
42
4
9
10
8
6
14
30
5
45
43
34
18
15
19
32
21
25
35
29
36
23
17

> <PUBCHEM_MMFF94_PARTIAL_CHARGES>
22
1 -0.68
10 0.09
13 0.28
14 0.28
15 -0.03
16 0.04
17 0.14
18 0.72
19 0.56
2 -0.68
29 0.15
3 -0.57
30 0.4
31 0.4
32 0.37
33 0.4
34 0.4
4 0.22
5 -0.57
6 -0.58
7 -0.49
8 -0.85

> <PUBCHEM_EFFECTIVE_ROTOR_COUNT>
3.8

> <PUBCHEM_PHARMACOPHORE_FEATURES>
11
1 1 acceptor
1 1 donor
1 2 acceptor
1 2 donor
1 3 acceptor
1 7 donor
1 8 donor
3 4 5 16 cation
4 9 10 11 12 rings
5 4 5 15 16 17 rings
6 6 7 15 17 18 19 rings

> <PUBCHEM_HEAVY_ATOM_COUNT>
19

> <PUBCHEM_ATOM_DEF_STEREO_COUNT>
2

> <PUBCHEM_ATOM_UDEF_STEREO_COUNT>
1

> <PUBCHEM_BOND_DEF_STEREO_COUNT>
0

> <PUBCHEM_BOND_UDEF_STEREO_COUNT>
0

> <PUBCHEM_ISOTOPIC_ATOM_COUNT>
0

> <PUBCHEM_COMPONENT_COUNT>
1

> <PUBCHEM_CACTVS_TAUTO_COUNT>
-1

> <PUBCHEM_CONFORMER_ID>
081E003400000001

> <PUBCHEM_MMFF94_ENERGY>
46.8736

> <PUBCHEM_FEATURE_SELFOVERLAP>
56

> <PUBCHEM_SHAPE_FINGERPRINT>
10062212 137 18269824351103610715
10759866 29 18408325462740697768
10980938 120 18187079542750945296
12107183 9 17832138321080940152
12236239 1 18334292089431434956
12390115 104 17845110493074624377
12644460 14 17603864477891590304
12788726 201 18342738546335668427
13583140 156 17749115465542122097
14144814 61 18412541020133160922
15442244 35 18337384920903227162
15669948 3 18272644701096699175
15775835 57 18335708234295601164
16752209 62 18201996642300266231
17492 89 18411697660614381459
1813 80 17679006112025859298
19422 9 18334852792615995722
20510252 161 18060421343617785929
20559304 39 18411125953300946690
20612939 158 17894629249889006398
20645476 183 18335984276001649502
20645477 70 17531231851804296522
21267235 1 18339933726058066494
21501502 16 18410290268365485259
2255824 54 18040431058531676970
23366157 5 18120098286134737783
23402539 116 18202001061990490789
23463225 33 18337665317637541570
23557571 272 17346328111063913685
23559900 14 17703232811203087500
23598291 2 18334853870969187522
25147074 1 18339356375469613763
2748010 2 16826998760096696413
2838139 119 17243839187992198981
312423 11 18335421244449072210
474 4 17677336159715527980
5104073 3 18410572868518055378
559249 180 18342742871657820950
57096353 35 18338509841441546919
603831 33 18339633546541116206
633830 44 18041565728165359499
7097593 13 18119235178054449634

> <PUBCHEM_SHAPE_MULTIPOLES>
348.5
9.05
2.37
1
3.31
0.04
0.08
2.11
-1.41
-0.92
0.39
0.64
-0.14
-2.18

> <PUBCHEM_SHAPE_SELFOVERLAP>
744.469

> <PUBCHEM_SHAPE_VOLUME>
193.5

> <PUBCHEM_COORDINATE_TYPE>
2
5
10

$$$$
