136179141
  -OEChem-03292013293D

 32 33  0     0  0  0  0  0  0999 V2000
    2.7646    2.0189    0.6209 S   0  0  0  0  0  0  0  0  0  0  0  0
   -3.9603    1.4613   -0.5115 O   0  0  0  0  0  0  0  0  0  0  0  0
   -4.5697   -1.2079   -0.0348 O   0  0  0  0  0  0  0  0  0  0  0  0
    5.5910   -1.9059   -0.6849 O   0  0  0  0  0  0  0  0  0  0  0  0
    1.7807   -0.2806   -0.0324 N   0  0  0  0  0  0  0  0  0  0  0  0
    5.3662    0.5656    0.0758 N   0  0  0  0  0  0  0  0  0  0  0  0
    4.2745   -1.4728   -0.4997 N   0  0  0  0  0  0  0  0  0  0  0  0
   -0.6375    0.1065    0.1866 C   0  0  0  0  0  0  0  0  0  0  0  0
    0.7235    0.5571    0.2648 C   0  0  0  0  0  0  0  0  0  0  0  0
   -1.6539    1.0086   -0.1281 C   0  0  0  0  0  0  0  0  0  0  0  0
   -2.9762    0.5712   -0.2034 C   0  0  0  0  0  0  0  0  0  0  0  0
   -0.9436   -1.2331    0.4262 C   0  0  0  0  0  0  0  0  0  0  0  0
   -3.2823   -0.7684    0.0363 C   0  0  0  0  0  0  0  0  0  0  0  0
   -2.2660   -1.6705    0.3511 C   0  0  0  0  0  0  0  0  0  0  0  0
    1.0589    1.8415    0.6387 C   0  0  0  0  0  0  0  0  0  0  0  0
    2.9049    0.3833    0.1210 C   0  0  0  0  0  0  0  0  0  0  0  0
    4.1861   -0.1945   -0.1086 C   0  0  0  0  0  0  0  0  0  0  0  0
   -3.5635    2.8118   -0.7420 C   0  0  0  0  0  0  0  0  0  0  0  0
   -4.7972   -2.5920    0.2241 C   0  0  0  0  0  0  0  0  0  0  0  0
   -1.3788    2.0368   -0.3329 H   0  0  0  0  0  0  0  0  0  0  0  0
   -0.1686   -1.9532    0.6780 H   0  0  0  0  0  0  0  0  0  0  0  0
   -2.4295   -2.7240    0.5504 H   0  0  0  0  0  0  0  0  0  0  0  0
    0.4295    2.6706    0.9311 H   0  0  0  0  0  0  0  0  0  0  0  0
   -4.4727    3.3794   -0.9669 H   0  0  0  0  0  0  0  0  0  0  0  0
   -2.9128    2.8979   -1.6190 H   0  0  0  0  0  0  0  0  0  0  0  0
   -3.1231    3.2632    0.1537 H   0  0  0  0  0  0  0  0  0  0  0  0
   -5.8738   -2.7657    0.1245 H   0  0  0  0  0  0  0  0  0  0  0  0
   -4.5258   -2.8605    1.2507 H   0  0  0  0  0  0  0  0  0  0  0  0
   -4.3028   -3.2280   -0.5181 H   0  0  0  0  0  0  0  0  0  0  0  0
    5.3304    1.5351    0.3727 H   0  0  0  0  0  0  0  0  0  0  0  0
    6.2783    0.1529   -0.0865 H   0  0  0  0  0  0  0  0  0  0  0  0
    5.4557   -2.8286   -0.9592 H   0  0  0  0  0  0  0  0  0  0  0  0
  1 15  1  0  0  0  0
  1 16  1  0  0  0  0
  2 11  1  0  0  0  0
  2 18  1  0  0  0  0
  3 13  1  0  0  0  0
  3 19  1  0  0  0  0
  4  7  1  0  0  0  0
  4 32  1  0  0  0  0
  5  9  1  0  0  0  0
  5 16  2  0  0  0  0
  6 17  1  0  0  0  0
  6 30  1  0  0  0  0
  6 31  1  0  0  0  0
  7 17  2  3  0  0  0
  8  9  1  0  0  0  0
  8 10  2  0  0  0  0
  8 12  1  0  0  0  0
  9 15  2  0  0  0  0
 10 11  1  0  0  0  0
 10 20  1  0  0  0  0
 11 13  2  0  0  0  0
 12 14  2  0  0  0  0
 12 21  1  0  0  0  0
 13 14  1  0  0  0  0
 14 22  1  0  0  0  0
 15 23  1  0  0  0  0
 16 17  1  0  0  0  0
 18 24  1  0  0  0  0
 18 25  1  0  0  0  0
 18 26  1  0  0  0  0
 19 27  1  0  0  0  0
 19 28  1  0  0  0  0
 19 29  1  0  0  0  0
M  END
> <PUBCHEM_COMPOUND_CID>
136179141

> <PUBCHEM_CONFORMER_RMSD>
0.6

> <PUBCHEM_CONFORMER_DIVERSEORDER>
4
42
45
21
7
18
3
47
40
26
23
48
19
33
29
24
13
14
11
25
30
37
31
15
8
28
32
36
41
22
34
46
35
44
6
17
43
2
16
5
38
12
20
39
10
27
9
1

> <PUBCHEM_MMFF94_PARTIAL_CHARGES>
26
1 -0.08
10 -0.15
11 0.08
12 -0.15
13 0.08
14 -0.15
15 -0.11
16 0.29
17 0.58
18 0.28
19 0.28
2 -0.36
20 0.15
21 0.15
22 0.15
23 0.15
3 -0.36
30 0.4
31 0.4
32 0.4
4 -0.34
5 -0.57
6 -0.85
7 -0.51
8 0.05
9 0.17

> <PUBCHEM_EFFECTIVE_ROTOR_COUNT>
4

> <PUBCHEM_PHARMACOPHORE_FEATURES>
8
1 2 acceptor
1 3 acceptor
1 4 anion
1 5 acceptor
1 6 donor
3 6 7 17 cation
5 1 5 9 15 16 rings
6 8 10 11 12 13 14 rings

> <PUBCHEM_HEAVY_ATOM_COUNT>
19

> <PUBCHEM_ATOM_DEF_STEREO_COUNT>
0

> <PUBCHEM_ATOM_UDEF_STEREO_COUNT>
0

> <PUBCHEM_BOND_DEF_STEREO_COUNT>
0

> <PUBCHEM_BOND_UDEF_STEREO_COUNT>
1

> <PUBCHEM_ISOTOPIC_ATOM_COUNT>
0

> <PUBCHEM_COMPONENT_COUNT>
1

> <PUBCHEM_CACTVS_TAUTO_COUNT>
-1

> <PUBCHEM_CONFORMER_ID>
081DEDC500000004

> <PUBCHEM_MMFF94_ENERGY>
66.7124

> <PUBCHEM_FEATURE_SELFOVERLAP>
40.6

> <PUBCHEM_SHAPE_FINGERPRINT>
10608611 8 18339354274962041993
1100329 8 16827561709902483240
11405975 8 18343019982351789897
11796584 16 18338232640453355978
12032990 46 18412828009784667048
12403259 226 18340764957291952161
12403259 415 18272082833459368273
12507560 40 18342451599291203560
12916754 54 18341617061623336681
12954195 1 18339357475350506733
13134695 92 17275092934428207488
13288520 33 18411703200968348559
13675066 3 18201992248801891200
13955234 65 17986109845417028784
14508225 48 18263069085270804349
14573314 32 18408884036059232044
14790565 3 17618789059253491169
14866123 147 17624706648192645592
15042514 8 18191030195742077779
15196674 1 18411419497151531090
17349148 13 16128658561188216964
17804303 29 18410013247269873493
17844677 252 18409455790817228028
18186145 218 18260256439125191981
1986462 14 18407759239969559805
200 152 17704070711518584681
20374829 77 18337390440363593698
20510252 161 18339074999588634489
20645477 56 18334856070404295989
20645477 70 18341332283964559130
20871999 31 18187368735609891484
21065201 7 18334849519903624824
21267235 1 18338242660000062970
21279426 13 18267022756810756494
221357 26 18411978091891985253
221490 88 18339645645717079696
22943178 12 18341039813307438825
2306618 200 18343026588596988809
23175994 123 17632297873744232393
23402539 116 18335414664537939469
23403322 49 18413110541550367598
23557571 272 18408886269279013821
23559900 14 18411692214342097041
2871803 45 18261664986977863947
3004659 81 18261114029142832150
335352 9 18340206276203746381
350125 39 18410578400958359641
4214541 1 18410292505975004577
474 4 16082502274467554252
5104073 3 18342173375546357240
5281201 14 18410013268861001556
5283173 99 18337388236940252548
559249 180 18263076635354058658
56616090 163 18263641754476785709
58051976 100 18335415747212368421
59755656 215 18333726902037903615
59755656 520 18267584616417874085
633830 44 16950572073189482140
77779 3 18410012156374657988
9709674 26 18337391668054385970

> <PUBCHEM_SHAPE_MULTIPOLES>
362.31
11.26
2.66
0.74
6.69
0.41
0.01
-4.75
-1.71
-2.03
-0.21
0.09
0.11
1.66

> <PUBCHEM_SHAPE_SELFOVERLAP>
760.851

> <PUBCHEM_SHAPE_VOLUME>
207

> <PUBCHEM_COORDINATE_TYPE>
2
5
10

$$$$
