136190394
  -OEChem-03292013293D

 40 42  0     1  0  0  0  0  0999 V2000
   -1.8004   -0.9553    1.1473 O   0  0  0  0  0  0  0  0  0  0  0  0
   -3.4817    1.5808    1.1752 O   0  0  0  0  0  0  0  0  0  0  0  0
   -3.4966   -3.1523    0.7702 O   0  0  0  0  0  0  0  0  0  0  0  0
    4.4952   -1.3774   -1.2225 O   0  0  0  0  0  0  0  0  0  0  0  0
   -1.6870    2.0600   -0.9209 N   0  0  0  0  0  0  0  0  0  0  0  0
    0.2133   -0.4461   -0.1208 N   0  0  0  0  0  0  0  0  0  0  0  0
    1.5466   -1.6617   -1.4426 N   0  0  0  0  0  0  0  0  0  0  0  0
    1.8587    0.7957    1.1479 N   0  0  0  0  0  0  0  0  0  0  0  0
    4.0710    0.1943    0.4517 N   0  0  0  0  0  0  0  0  0  0  0  0
    3.7367    1.7913    2.1492 N   0  0  0  0  0  0  0  0  0  0  0  0
   -2.0250    0.6969   -0.5394 C   0  0  2  0  0  0  0  0  0  0  0  0
   -3.3573    0.5619    0.1827 C   0  0  1  0  0  0  0  0  0  0  0  0
   -1.0604    0.0932    0.4834 C   0  0  1  0  0  0  0  0  0  0  0  0
   -3.2101   -0.7835    0.8856 C   0  0  1  0  0  0  0  0  0  0  0  0
   -3.6842   -1.9549    0.0364 C   0  0  0  0  0  0  0  0  0  0  0  0
    1.4917   -0.1028    0.2076 C   0  0  0  0  0  0  0  0  0  0  0  0
   -2.7009    2.6142   -1.8224 C   0  0  0  0  0  0  0  0  0  0  0  0
   -0.3669    2.1099   -1.5557 C   0  0  0  0  0  0  0  0  0  0  0  0
    0.2982   -1.3869   -1.1181 C   0  0  0  0  0  0  0  0  0  0  0  0
    2.2834   -0.8634   -0.6184 C   0  0  0  0  0  0  0  0  0  0  0  0
    3.7121   -0.7415   -0.5284 C   0  0  0  0  0  0  0  0  0  0  0  0
    3.1634    0.9278    1.2521 C   0  0  0  0  0  0  0  0  0  0  0  0
   -2.0676    0.0581   -1.4330 H   0  0  0  0  0  0  0  0  0  0  0  0
   -4.2310    0.6138   -0.4744 H   0  0  0  0  0  0  0  0  0  0  0  0
   -0.7605    0.8153    1.2524 H   0  0  0  0  0  0  0  0  0  0  0  0
   -3.7140   -0.8026    1.8587 H   0  0  0  0  0  0  0  0  0  0  0  0
   -3.1076   -2.0414   -0.8895 H   0  0  0  0  0  0  0  0  0  0  0  0
   -4.7463   -1.8554   -0.2077 H   0  0  0  0  0  0  0  0  0  0  0  0
   -4.3228    1.4317    1.6401 H   0  0  0  0  0  0  0  0  0  0  0  0
   -2.4320    3.6346   -2.1200 H   0  0  0  0  0  0  0  0  0  0  0  0
    0.4290    2.0676   -0.8134 H   0  0  0  0  0  0  0  0  0  0  0  0
   -0.2292    1.3434   -2.3258 H   0  0  0  0  0  0  0  0  0  0  0  0
   -2.8154    2.0144   -2.7328 H   0  0  0  0  0  0  0  0  0  0  0  0
   -3.6770    2.7002   -1.3349 H   0  0  0  0  0  0  0  0  0  0  0  0
   -0.2175    3.0815   -2.0442 H   0  0  0  0  0  0  0  0  0  0  0  0
   -0.5768   -1.8393   -1.5638 H   0  0  0  0  0  0  0  0  0  0  0  0
   -3.8095   -3.8835    0.2108 H   0  0  0  0  0  0  0  0  0  0  0  0
    5.0628    0.3588    0.5986 H   0  0  0  0  0  0  0  0  0  0  0  0
    3.1682    2.3607    2.7665 H   0  0  0  0  0  0  0  0  0  0  0  0
    4.7437    1.8865    2.2223 H   0  0  0  0  0  0  0  0  0  0  0  0
  1 13  1  0  0  0  0
  1 14  1  0  0  0  0
  2 12  1  0  0  0  0
  2 29  1  0  0  0  0
  3 15  1  0  0  0  0
  3 37  1  0  0  0  0
  4 21  2  0  0  0  0
  5 11  1  0  0  0  0
  5 17  1  0  0  0  0
  5 18  1  0  0  0  0
  6 13  1  0  0  0  0
  6 16  1  0  0  0  0
  6 19  1  0  0  0  0
  7 19  2  0  0  0  0
  7 20  1  0  0  0  0
  8 16  1  0  0  0  0
  8 22  2  0  0  0  0
  9 21  1  0  0  0  0
  9 22  1  0  0  0  0
  9 38  1  0  0  0  0
 10 22  1  0  0  0  0
 10 39  1  0  0  0  0
 10 40  1  0  0  0  0
 11 12  1  0  0  0  0
 11 13  1  0  0  0  0
 11 23  1  0  0  0  0
 12 14  1  0  0  0  0
 12 24  1  0  0  0  0
 13 25  1  0  0  0  0
 14 15  1  0  0  0  0
 14 26  1  0  0  0  0
 15 27  1  0  0  0  0
 15 28  1  0  0  0  0
 16 20  2  0  0  0  0
 17 30  1  0  0  0  0
 17 33  1  0  0  0  0
 17 34  1  0  0  0  0
 18 31  1  0  0  0  0
 18 32  1  0  0  0  0
 18 35  1  0  0  0  0
 19 36  1  0  0  0  0
 20 21  1  0  0  0  0
M  END
> <PUBCHEM_COMPOUND_CID>
136190394

> <PUBCHEM_CONFORMER_RMSD>
0.6

> <PUBCHEM_CONFORMER_DIVERSEORDER>
1
18
23
20
9
3
24
25
2
17
10
6
22
15
4
21
5
16
19
13
11
7
14
12
8

> <PUBCHEM_MMFF94_PARTIAL_CHARGES>
28
1 -0.56
10 -0.85
11 0.27
12 0.28
13 0.54
14 0.28
15 0.28
16 -0.03
17 0.27
18 0.27
19 0.04
2 -0.68
20 0.14
21 0.72
22 0.56
29 0.4
3 -0.68
36 0.15
37 0.4
38 0.37
39 0.4
4 -0.57
40 0.4
5 -0.81
6 0.05
7 -0.57
8 -0.58
9 -0.49

> <PUBCHEM_EFFECTIVE_ROTOR_COUNT>
4

> <PUBCHEM_PHARMACOPHORE_FEATURES>
13
1 1 acceptor
1 10 donor
1 2 acceptor
1 2 donor
1 3 acceptor
1 3 donor
1 4 acceptor
1 5 cation
1 9 donor
3 6 7 19 cation
5 1 11 12 13 14 rings
5 6 7 16 19 20 rings
6 8 9 16 20 21 22 rings

> <PUBCHEM_HEAVY_ATOM_COUNT>
22

> <PUBCHEM_ATOM_DEF_STEREO_COUNT>
4

> <PUBCHEM_ATOM_UDEF_STEREO_COUNT>
0

> <PUBCHEM_BOND_DEF_STEREO_COUNT>
0

> <PUBCHEM_BOND_UDEF_STEREO_COUNT>
0

> <PUBCHEM_ISOTOPIC_ATOM_COUNT>
0

> <PUBCHEM_COMPONENT_COUNT>
1

> <PUBCHEM_CACTVS_TAUTO_COUNT>
-1

> <PUBCHEM_CONFORMER_ID>
081E19BA00000001

> <PUBCHEM_MMFF94_ENERGY>
58.7538

> <PUBCHEM_FEATURE_SELFOVERLAP>
66.155

> <PUBCHEM_SHAPE_FINGERPRINT>
10366900 7 18341612555743713887
10369192 42 17770498944174423048
11132069 177 18407758144832182945
11370993 144 17988376883537186091
12236239 1 15864361211382664148
12363563 72 17823989029081107947
12403259 415 18343581837294116248
12553582 1 17749115525581896155
12623949 98 17630067050387882143
12633257 1 18269839713795408195
12969540 114 18044362839414664749
13083527 12 17904196276360454407
13134695 92 17631729341024039116
13224815 77 18408038520080786748
133893 2 13468467006476037957
13583140 156 18265873827278833650
14081887 123 18261100855581252137
14178342 30 18337402595052541363
14289901 80 17895194385479491554
15099037 37 18335692901488883043
15219456 202 18202002131294701530
15653759 3 18408606933353882306
15961568 22 17970347229494455052
16752209 62 17530960255178149597
16945 1 18040714740857437037
17357779 13 18337938100090828631
1813 80 18115593802292074363
18175812 5 18343305855211162751
18186145 218 18271521996930101408
18219364 16 18059561495438929656
19049666 15 18051131397764596092
19930381 70 17700962503816623025
20600515 1 17824252924677249353
21065201 7 18333448733679420602
21304303 282 17101662507360671493
21639500 275 17489573568241217400
22112679 90 16515971354541199924
22182313 1 18271796935256945716
22943178 12 18342735208903206794
23402539 116 17967819335769955903
23557571 272 18335706026872068461
23559900 14 18261391079807342910
23598288 3 16515966939737208593
2748010 2 18272077297626071732
3286 77 18060426823811380458
49207404 50 18201717413860321090
5104073 3 18202568379978607986
6049 1 18413388722429522052
633830 44 17132119035079081140
7615 1 16226042271616254748
77492 1 15936412204272200856
81228 2 18187094923155478353
90316 7 17968088720682915861
9925002 15 17192905784402225943

> <PUBCHEM_SHAPE_MULTIPOLES>
399.39
7.94
2.63
1.64
3.51
0.07
0.13
-1.32
1.57
-2.81
-0.68
0.8
0.67
2.38

> <PUBCHEM_SHAPE_SELFOVERLAP>
857.343

> <PUBCHEM_SHAPE_VOLUME>
218.3

> <PUBCHEM_COORDINATE_TYPE>
2
5
10

$$$$
