136183881
  -OEChem-03292013293D

 35 37  0     1  0  0  0  0  0999 V2000
   -1.8502   -0.1633    0.9639 O   0  0  0  0  0  0  0  0  0  0  0  0
   -4.3360    1.2334   -0.1689 O   0  0  0  0  0  0  0  0  0  0  0  0
   -2.1913   -2.9272    0.7118 O   0  0  0  0  0  0  0  0  0  0  0  0
    4.4877    0.3349   -0.1881 O   0  0  0  0  0  0  0  0  0  0  0  0
    0.0591    1.1492    0.1840 N   0  0  0  0  0  0  0  0  0  0  0  0
    2.0938    2.0722    0.0852 N   0  0  0  0  0  0  0  0  0  0  0  0
    0.6270   -1.1974    0.0105 N   0  0  0  0  0  0  0  0  0  0  0  0
    3.0002   -1.4655   -0.1800 N   0  0  0  0  0  0  0  0  0  0  0  0
    1.5752   -3.3390   -0.1798 N   0  0  0  0  0  0  0  0  0  0  0  0
   -1.4413    1.0414    0.2898 C   0  0  1  0  0  0  0  0  0  0  0  0
   -2.1374    1.0314   -1.0668 C   0  0  0  0  0  0  0  0  0  0  0  0
   -3.4253    0.3059   -0.7546 C   0  0  1  0  0  0  0  0  0  0  0  0
   -2.9968   -0.7184    0.2882 C   0  0  1  0  0  0  0  0  0  0  0  0
   -2.5813   -2.0475   -0.3280 C   0  0  0  0  0  0  0  0  0  0  0  0
    0.9407    0.1162    0.0609 C   0  0  0  0  0  0  0  0  0  0  0  0
    0.8005    2.3055    0.1939 C   0  0  0  0  0  0  0  0  0  0  0  0
    2.1766    0.7136    0.0029 C   0  0  0  0  0  0  0  0  0  0  0  0
    0.1698    3.6368    0.3159 C   0  0  0  0  0  0  0  0  0  0  0  0
    3.3477   -0.1082   -0.1296 C   0  0  0  0  0  0  0  0  0  0  0  0
    1.6815   -1.9741   -0.1109 C   0  0  0  0  0  0  0  0  0  0  0  0
   -1.7688    1.8821    0.9110 H   0  0  0  0  0  0  0  0  0  0  0  0
   -1.5529    0.4621   -1.7992 H   0  0  0  0  0  0  0  0  0  0  0  0
   -2.2816    2.0452   -1.4527 H   0  0  0  0  0  0  0  0  0  0  0  0
   -3.9038   -0.1255   -1.6384 H   0  0  0  0  0  0  0  0  0  0  0  0
   -3.7652   -0.8837    1.0517 H   0  0  0  0  0  0  0  0  0  0  0  0
   -3.4184   -2.4996   -0.8693 H   0  0  0  0  0  0  0  0  0  0  0  0
   -1.7373   -1.9340   -1.0140 H   0  0  0  0  0  0  0  0  0  0  0  0
   -5.1387    0.7395    0.0708 H   0  0  0  0  0  0  0  0  0  0  0  0
   -0.5865    3.7900   -0.4599 H   0  0  0  0  0  0  0  0  0  0  0  0
   -0.2988    3.7581    1.2973 H   0  0  0  0  0  0  0  0  0  0  0  0
    0.9211    4.4256    0.2063 H   0  0  0  0  0  0  0  0  0  0  0  0
   -1.9329   -3.7669    0.2952 H   0  0  0  0  0  0  0  0  0  0  0  0
    3.7565   -2.1373   -0.2734 H   0  0  0  0  0  0  0  0  0  0  0  0
    0.6713   -3.7974   -0.1393 H   0  0  0  0  0  0  0  0  0  0  0  0
    2.3942   -3.9296   -0.2736 H   0  0  0  0  0  0  0  0  0  0  0  0
  1 10  1  0  0  0  0
  1 13  1  0  0  0  0
  2 12  1  0  0  0  0
  2 28  1  0  0  0  0
  3 14  1  0  0  0  0
  3 32  1  0  0  0  0
  4 19  2  0  0  0  0
  5 10  1  0  0  0  0
  5 15  1  0  0  0  0
  5 16  1  0  0  0  0
  6 16  2  0  0  0  0
  6 17  1  0  0  0  0
  7 15  1  0  0  0  0
  7 20  2  0  0  0  0
  8 19  1  0  0  0  0
  8 20  1  0  0  0  0
  8 33  1  0  0  0  0
  9 20  1  0  0  0  0
  9 34  1  0  0  0  0
  9 35  1  0  0  0  0
 10 11  1  0  0  0  0
 10 21  1  0  0  0  0
 11 12  1  0  0  0  0
 11 22  1  0  0  0  0
 11 23  1  0  0  0  0
 12 13  1  0  0  0  0
 12 24  1  0  0  0  0
 13 14  1  0  0  0  0
 13 25  1  0  0  0  0
 14 26  1  0  0  0  0
 14 27  1  0  0  0  0
 15 17  2  0  0  0  0
 16 18  1  0  0  0  0
 17 19  1  0  0  0  0
 18 29  1  0  0  0  0
 18 30  1  0  0  0  0
 18 31  1  0  0  0  0
M  END
> <PUBCHEM_COMPOUND_CID>
136183881

> <PUBCHEM_CONFORMER_RMSD>
0.6

> <PUBCHEM_CONFORMER_DIVERSEORDER>
1
11
5
12
4
10
9
6
7
3
8
2

> <PUBCHEM_MMFF94_PARTIAL_CHARGES>
24
1 -0.56
10 0.54
12 0.28
13 0.28
14 0.28
15 -0.03
16 0.01
17 0.14
18 0.18
19 0.72
2 -0.68
20 0.56
28 0.4
3 -0.68
32 0.4
33 0.37
34 0.4
35 0.4
4 -0.57
5 0.05
6 -0.57
7 -0.58
8 -0.49
9 -0.85

> <PUBCHEM_EFFECTIVE_ROTOR_COUNT>
3

> <PUBCHEM_PHARMACOPHORE_FEATURES>
12
1 1 acceptor
1 2 acceptor
1 2 donor
1 3 acceptor
1 3 donor
1 4 acceptor
1 8 donor
1 9 donor
3 5 6 16 cation
5 1 10 11 12 13 rings
5 5 6 15 16 17 rings
6 7 8 15 17 19 20 rings

> <PUBCHEM_HEAVY_ATOM_COUNT>
20

> <PUBCHEM_ATOM_DEF_STEREO_COUNT>
3

> <PUBCHEM_ATOM_UDEF_STEREO_COUNT>
0

> <PUBCHEM_BOND_DEF_STEREO_COUNT>
0

> <PUBCHEM_BOND_UDEF_STEREO_COUNT>
0

> <PUBCHEM_ISOTOPIC_ATOM_COUNT>
0

> <PUBCHEM_COMPONENT_COUNT>
1

> <PUBCHEM_CACTVS_TAUTO_COUNT>
-1

> <PUBCHEM_CONFORMER_ID>
081E004900000001

> <PUBCHEM_MMFF94_ENERGY>
44.0581

> <PUBCHEM_FEATURE_SELFOVERLAP>
61.08

> <PUBCHEM_SHAPE_FINGERPRINT>
10616163 171 18410576231614974135
10967382 1 18339079293843448746
116883 192 17981324491180935484
12553582 1 18340211782319761848
13140716 1 18339635741570013560
14115302 16 18260558796343510205
14178342 30 18342451577736966969
1420 336 17617379476524197362
14223421 5 17977383055680854379
14790565 3 18339370772338016892
15196674 1 18410855473282381414
16945 1 18339084783149412632
19107657 46 18410856568277378958
193761 8 17475233973894143688
19591789 44 18050290563891613556
19930381 70 18122342381262234591
200 152 18059850679897747981
20201158 50 18408602539459894099
20645477 70 18120362422865953351
21160774 45 17113246205745606591
221490 88 18192999446134932602
2334 1 18195245756991008496
23402539 116 18342170090550385902
23559900 14 18411415103864237032
238 59 17757787296496501087
2748010 2 18267020746539240840
2838139 119 16226622913199417460
2871803 45 18340207363178248540
34934 24 18411412882543186162
350125 39 18050011283189380577
7364860 26 18339921648758008889
81228 2 18048319946664872032
8809292 202 18334013929800393763
9709674 26 18411138078009869671

> <PUBCHEM_SHAPE_MULTIPOLES>
363.21
6.26
3.55
0.76
0.5
0.18
-0.04
0.88
-0.76
-0.45
0.35
0.38
-0.02
0.48

> <PUBCHEM_SHAPE_SELFOVERLAP>
786.428

> <PUBCHEM_SHAPE_VOLUME>
196.8

> <PUBCHEM_COORDINATE_TYPE>
2
5
10

$$$$
