136177057
  -OEChem-03292013293D

 25 26  0     1  0  0  0  0  0999 V2000
   -2.8199   -2.3473   -0.5251 O   0  0  0  0  0  0  0  0  0  0  0  0
    3.9944    1.5366   -0.3401 O   0  0  0  0  0  0  0  0  0  0  0  0
    2.5265    0.4440   -1.6774 O   0  0  0  0  0  0  0  0  0  0  0  0
    1.5900   -1.1053    0.3222 N   0  0  0  0  0  0  0  0  0  0  0  0
   -0.6411   -1.6778   -0.0963 N   0  0  0  0  0  0  0  0  0  0  0  0
   -0.0251    0.5869    0.4067 N   0  0  0  0  0  0  0  0  0  0  0  0
   -3.5198    0.5636   -0.0900 N   0  0  0  0  0  0  0  0  0  0  0  0
   -1.9851    2.1023    0.4097 N   0  0  0  0  0  0  0  0  0  0  0  0
    2.6656   -0.2177    0.6364 C   0  0  1  0  0  0  0  0  0  0  0  0
    0.2920   -0.6740    0.2194 C   0  0  0  0  0  0  0  0  0  0  0  0
   -2.3241   -0.0913   -0.0414 C   0  0  0  0  0  0  0  0  0  0  0  0
   -1.3947    0.8744    0.2670 C   0  0  0  0  0  0  0  0  0  0  0  0
    3.8633   -0.9983    1.1510 C   0  0  0  0  0  0  0  0  0  0  0  0
   -2.0108   -1.4682   -0.2502 C   0  0  0  0  0  0  0  0  0  0  0  0
    3.0531    0.5911   -0.5802 C   0  0  0  0  0  0  0  0  0  0  0  0
   -3.2643    1.8812    0.1881 C   0  0  0  0  0  0  0  0  0  0  0  0
    2.3541    0.4851    1.4192 H   0  0  0  0  0  0  0  0  0  0  0  0
    1.8077   -2.0783    0.1274 H   0  0  0  0  0  0  0  0  0  0  0  0
   -0.2935   -2.6241   -0.2213 H   0  0  0  0  0  0  0  0  0  0  0  0
    4.2565   -1.6758    0.3841 H   0  0  0  0  0  0  0  0  0  0  0  0
    4.6782   -0.3296    1.4479 H   0  0  0  0  0  0  0  0  0  0  0  0
    3.5906   -1.6045    2.0220 H   0  0  0  0  0  0  0  0  0  0  0  0
   -4.4240    0.1579   -0.2923 H   0  0  0  0  0  0  0  0  0  0  0  0
   -4.0507    2.6221    0.2131 H   0  0  0  0  0  0  0  0  0  0  0  0
    4.2022    2.0591   -1.1438 H   0  0  0  0  0  0  0  0  0  0  0  0
  1 14  2  0  0  0  0
  2 15  1  0  0  0  0
  2 25  1  0  0  0  0
  3 15  2  0  0  0  0
  4  9  1  0  0  0  0
  4 10  1  0  0  0  0
  4 18  1  0  0  0  0
  5 10  1  0  0  0  0
  5 14  1  0  0  0  0
  5 19  1  0  0  0  0
  6 10  2  0  0  0  0
  6 12  1  0  0  0  0
  7 11  1  0  0  0  0
  7 16  1  0  0  0  0
  7 23  1  0  0  0  0
  8 12  1  0  0  0  0
  8 16  2  0  0  0  0
  9 13  1  0  0  0  0
  9 15  1  0  0  0  0
  9 17  1  0  0  0  0
 11 12  2  0  0  0  0
 11 14  1  0  0  0  0
 13 20  1  0  0  0  0
 13 21  1  0  0  0  0
 13 22  1  0  0  0  0
 16 24  1  0  0  0  0
M  END
> <PUBCHEM_COMPOUND_CID>
136177057

> <PUBCHEM_CONFORMER_RMSD>
0.6

> <PUBCHEM_CONFORMER_DIVERSEORDER>
2
16
15
5
21
9
30
8
35
33
3
32
25
6
28
26
29
1
22
19
17
7
4
36
12
18
14
23
13
20
34
27
24
11
37
31
10

> <PUBCHEM_MMFF94_PARTIAL_CHARGES>
20
1 -0.57
10 0.56
11 -0.24
12 0.35
14 0.71
15 0.66
16 0.04
18 0.4
19 0.37
2 -0.65
23 0.27
24 0.15
25 0.5
3 -0.57
4 -0.82
5 -0.49
6 -0.57
7 0.03
8 -0.57
9 0.43

> <PUBCHEM_EFFECTIVE_ROTOR_COUNT>
3

> <PUBCHEM_PHARMACOPHORE_FEATURES>
10
1 1 acceptor
1 2 acceptor
1 3 acceptor
1 4 donor
1 5 donor
1 7 donor
3 2 3 15 anion
3 7 8 16 cation
5 7 8 11 12 16 rings
6 5 6 10 11 12 14 rings

> <PUBCHEM_HEAVY_ATOM_COUNT>
16

> <PUBCHEM_ATOM_DEF_STEREO_COUNT>
0

> <PUBCHEM_ATOM_UDEF_STEREO_COUNT>
1

> <PUBCHEM_BOND_DEF_STEREO_COUNT>
0

> <PUBCHEM_BOND_UDEF_STEREO_COUNT>
0

> <PUBCHEM_ISOTOPIC_ATOM_COUNT>
0

> <PUBCHEM_COMPONENT_COUNT>
1

> <PUBCHEM_CACTVS_TAUTO_COUNT>
-1

> <PUBCHEM_CONFORMER_ID>
081DE5A100000002

> <PUBCHEM_MMFF94_ENERGY>
26.4074

> <PUBCHEM_FEATURE_SELFOVERLAP>
50.975

> <PUBCHEM_SHAPE_FINGERPRINT>
11132069 177 18341043034527207296
12173636 292 18412822473830363549
12553582 1 17981599674205423359
13380535 76 18271237201959806927
13538477 17 18408036312436019426
14897335 6 18339356358015476915
15342168 16 16878525529833252236
15442244 35 18335414609278325506
15669948 3 18341609347424385399
15775835 57 18333737913938236236
16945 1 18343302552761087731
1741750 31 18201159836921575569
18186145 218 17915469289406182953
18522853 266 18413107234499389822
19422 9 18260826012113336786
20279233 1 16559024983037311870
20510252 161 18271533094919996091
20671657 1 18193564367615811070
21501502 16 18408599279753926314
21524375 3 18264768749362600089
2255824 54 17603588509089716490
23402539 116 18200293452129510357
23557571 272 18059302074929302094
23559900 14 18059296457824417366
23598291 2 18186796955378101182
2748010 2 17982997132314444777
474 4 17458913746640989740
7097593 13 18044080268604219026
7364860 26 17912078352744551090
7615 1 18187635925525369138
77492 1 18113335319108278290
9981440 41 17755862266749107352

> <PUBCHEM_SHAPE_MULTIPOLES>
286.76
7.02
2.07
0.92
3.51
0.22
0.16
-1.6
-0.14
-1.54
0.09
0.8
-0.03
-1.12

> <PUBCHEM_SHAPE_SELFOVERLAP>
616.977

> <PUBCHEM_SHAPE_VOLUME>
156.5

> <PUBCHEM_COORDINATE_TYPE>
2
5
10

$$$$
