136180640
  -OEChem-03292013293D

 36 38  0     0  0  0  0  0  0999 V2000
   -0.4169   -0.5395    0.0097 S   0  0  0  0  0  0  0  0  0  0  0  0
   -7.4830   -1.4991   -0.1891 O   0  5  0  0  0  0  0  0  0  0  0  0
   -7.0197    0.5801   -0.7191 O   0  0  0  0  0  0  0  0  0  0  0  0
    5.9462   -1.7512    1.7225 O   0  0  0  0  0  0  0  0  0  0  0  0
    6.4450   -2.5119   -0.9045 O   0  0  0  0  0  0  0  0  0  0  0  0
   -4.3265    0.1720   -0.1240 N   0  0  0  0  0  0  0  0  0  0  0  0
   -3.2999   -1.6607    0.5964 N   0  0  0  0  0  0  0  0  0  0  0  0
   -6.6456   -0.5597   -0.3178 N   0  3  0  0  0  0  0  0  0  0  0  0
   -1.7891    1.5694    0.4943 N   0  0  0  0  0  0  0  0  0  0  0  0
    1.7461    1.0852    0.1245 N   0  0  0  0  0  0  0  0  0  0  0  0
   -0.4687    1.9821    0.4628 N   0  0  0  0  0  0  0  0  0  0  0  0
    2.3591    2.2742    0.2838 N   0  0  0  0  0  0  0  0  0  0  0  0
   -3.1442   -0.4014    0.2533 C   0  0  0  0  0  0  0  0  0  0  0  0
   -5.2981   -0.7827   -0.0146 C   0  0  0  0  0  0  0  0  0  0  0  0
   -4.5170    1.5386   -0.5597 C   0  0  0  0  0  0  0  0  0  0  0  0
   -1.9023    0.2772    0.2729 C   0  0  0  0  0  0  0  0  0  0  0  0
   -4.6404   -1.9047    0.4316 C   0  0  0  0  0  0  0  0  0  0  0  0
    0.3496    0.9806    0.2198 C   0  0  0  0  0  0  0  0  0  0  0  0
    4.3805    1.0006   -0.1048 C   0  0  0  0  0  0  0  0  0  0  0  0
    4.8243    0.2017    0.9490 C   0  0  0  0  0  0  0  0  0  0  0  0
    4.6309    0.6189   -1.4228 C   0  0  0  0  0  0  0  0  0  0  0  0
    5.5184   -0.9791    0.6849 C   0  0  0  0  0  0  0  0  0  0  0  0
    5.7689   -1.3608   -0.6332 C   0  0  0  0  0  0  0  0  0  0  0  0
    5.3253   -0.5618   -1.6870 C   0  0  0  0  0  0  0  0  0  0  0  0
    3.6570    2.2318    0.1707 C   0  0  0  0  0  0  0  0  0  0  0  0
   -5.0413    2.0879    0.2259 H   0  0  0  0  0  0  0  0  0  0  0  0
   -3.5757    2.0314   -0.7918 H   0  0  0  0  0  0  0  0  0  0  0  0
   -5.0729    1.5416   -1.5006 H   0  0  0  0  0  0  0  0  0  0  0  0
   -5.0577   -2.8788    0.6445 H   0  0  0  0  0  0  0  0  0  0  0  0
    4.6275    0.5018    1.9758 H   0  0  0  0  0  0  0  0  0  0  0  0
    4.2895    1.2338   -2.2515 H   0  0  0  0  0  0  0  0  0  0  0  0
    5.5133   -0.8473   -2.7185 H   0  0  0  0  0  0  0  0  0  0  0  0
    4.2412    3.1589    0.2863 H   0  0  0  0  0  0  0  0  0  0  0  0
    2.2617    0.2337   -0.0685 H   0  0  0  0  0  0  0  0  0  0  0  0
    5.6835   -1.3313    2.5596 H   0  0  0  0  0  0  0  0  0  0  0  0
    6.5243   -2.6130   -1.8686 H   0  0  0  0  0  0  0  0  0  0  0  0
  1 16  1  0  0  0  0
  1 18  1  0  0  0  0
  2  8  1  0  0  0  0
  3  8  2  0  0  0  0
  4 22  1  0  0  0  0
  4 35  1  0  0  0  0
  5 23  1  0  0  0  0
  5 36  1  0  0  0  0
  6 13  1  0  0  0  0
  6 14  1  0  0  0  0
  6 15  1  0  0  0  0
  7 13  2  0  0  0  0
  7 17  1  0  0  0  0
  8 14  1  0  0  0  0
  9 11  1  0  0  0  0
  9 16  2  0  0  0  0
 10 12  1  0  0  0  0
 10 18  1  0  0  0  0
 10 34  1  0  0  0  0
 11 18  2  0  0  0  0
 12 25  2  0  0  0  0
 13 16  1  0  0  0  0
 14 17  2  0  0  0  0
 15 26  1  0  0  0  0
 15 27  1  0  0  0  0
 15 28  1  0  0  0  0
 17 29  1  0  0  0  0
 19 20  2  0  0  0  0
 19 21  1  0  0  0  0
 19 25  1  0  0  0  0
 20 22  1  0  0  0  0
 20 30  1  0  0  0  0
 21 24  2  0  0  0  0
 21 31  1  0  0  0  0
 22 23  2  0  0  0  0
 23 24  1  0  0  0  0
 24 32  1  0  0  0  0
 25 33  1  0  0  0  0
M  CHG  2   2  -1   8   1
M  END
> <PUBCHEM_COMPOUND_CID>
136180640

> <PUBCHEM_CONFORMER_RMSD>
0.8

> <PUBCHEM_CONFORMER_DIVERSEORDER>
1
103
71
35
42
100
64
31
110
7
123
121
144
117
105
88
79
140
129
30
107
4
80
70
67
138
2
108
146
86
55
137
23
63
32
12
72
62
15
75
52
41
102
65
45
148
98
95
124
48
77
24
61
50
133
8
83
97
119
109
104
33
11
43
76
85
118
112
47
90
60
99
84
25
81
28
139
39
111
29
128
106
94
44
49
74
16
101
125
91
6
36
142
26
54
57
78
51
73
130
66
93
147
53
46
38
136
68
20
82
141
92
22
21
127
40
134
135
56
115
18
114
3
126
145
113
96
10
13
37
131
59
19
17
149
87
34
116
120
89
58
9
132
27
143
122
69
14
5

> <PUBCHEM_MMFF94_PARTIAL_CHARGES>
33
1 -0.08
10 -0.44
11 -0.34
12 -0.49
13 0.19
14 -0.07
15 0.26
16 0.38
17 0.08
18 0.46
19 0.09
2 -0.52
20 -0.15
21 -0.15
22 0.08
23 0.08
24 -0.15
25 0.3
29 0.15
3 -0.52
30 0.15
31 0.15
32 0.15
33 0.06
34 0.4
35 0.45
36 0.45
4 -0.53
5 -0.53
6 0.05
7 -0.57
8 0.96
9 -0.34

> <PUBCHEM_EFFECTIVE_ROTOR_COUNT>
5

> <PUBCHEM_PHARMACOPHORE_FEATURES>
13
1 10 donor
1 12 acceptor
1 2 acceptor
1 2 anion
1 3 acceptor
1 4 donor
1 5 donor
1 9 acceptor
3 10 11 18 cation
3 6 7 13 cation
5 1 9 11 16 18 rings
5 6 7 13 14 17 rings
6 19 20 21 22 23 24 rings

> <PUBCHEM_HEAVY_ATOM_COUNT>
25

> <PUBCHEM_ATOM_DEF_STEREO_COUNT>
0

> <PUBCHEM_ATOM_UDEF_STEREO_COUNT>
0

> <PUBCHEM_BOND_DEF_STEREO_COUNT>
1

> <PUBCHEM_BOND_UDEF_STEREO_COUNT>
0

> <PUBCHEM_ISOTOPIC_ATOM_COUNT>
0

> <PUBCHEM_COMPONENT_COUNT>
1

> <PUBCHEM_CACTVS_TAUTO_COUNT>
-1

> <PUBCHEM_CONFORMER_ID>
081DF3A000000001

> <PUBCHEM_MMFF94_ENERGY>
69.3958

> <PUBCHEM_FEATURE_SELFOVERLAP>
66.057

> <PUBCHEM_SHAPE_FINGERPRINT>
10 15 10879991363350268189
10498660 4 11025807487983709398
10638233 991 14345792755915172343
10670039 82 11819263414038531150
11524674 6 17418375822635704503
117089 54 17842574946458104070
11719270 70 17989489623611765871
11724838 91 11671773871583541696
11796584 16 18114462365760963426
11858739 19 18413389851705188592
12166972 35 18260833726038579125
125118 31 10015598202710362011
13533116 47 18202565116045932136
13782708 43 18272087257929453383
13862211 1 18344148102835475151
13914758 101 17418099798082813713
14216079 64 18342176678734961567
14251752 14 18113896040232181469
14251764 75 11886512934023144562
14347332 77 18335699408006081989
14528608 73 11674878918205963664
15183329 4 18334298655945911152
15188451 53 17775003458164616520
15419008 42 17984700013522116589
15475509 8 17168143425477560741
15510800 12 17773886303196687862
17844677 252 18335424585928736896
17857418 61 18408322181543926306
19377110 9 13110960911814547917
1979834 28 16988850462719931454
19958102 18 18040705983482476127
20028762 73 18202847647606145062
20397935 70 17132120134943857950
20567600 234 11455889165552609818
21130935 74 18129945701820879299
21267235 1 18408889555651220601
21279426 13 18408317770312203029
21315764 119 17749111079889915479
21641784 216 14056988400065277526
21682296 61 18272660021229174247
22061861 79 18411136952364025701
2215653 11 18409169930404289742
2303208 19 17968667128386640131
23081809 10 17775294888817951825
23522609 53 18119560741066184381
23559900 14 18338230591732980449
29717793 49 18187366545224212316
3004659 81 18260269642582198948
3014965 18 18408601474271146431
328311 84 18187368757554265715
3472631 163 11314321550793578978
4073 2 17896884459437187768
4340502 62 13470695844840729404
44317340 157 12685094787274526232
465052 167 18272658956699452436
5104073 3 17989212525491553656
5718773 13 18269839714734833374
59682541 52 14707203280786038378
59755656 215 18260828194088578755
6438161 24 18259977172288984746
86090 222 16987742142088163614
8988823 20 16773793732068753192
960060 61 17458351844944236724

> <PUBCHEM_SHAPE_MULTIPOLES>
459.99
20.62
2.29
1.08
10.8
0.08
0.12
-10.44
3.21
-1.57
-0.19
-1.87
-0.26
0.48

> <PUBCHEM_SHAPE_SELFOVERLAP>
989.823

> <PUBCHEM_SHAPE_VOLUME>
256.1

> <PUBCHEM_COORDINATE_TYPE>
2
5
10

$$$$
