136170966
  -OEChem-03292013293D

 40 42  0     1  0  0  0  0  0999 V2000
   -4.2214   -0.5962   -0.5151 O   0  0  0  0  0  0  0  0  0  0  0  0
   -0.4266    2.5626    0.4283 O   0  0  0  0  0  0  0  0  0  0  0  0
   -0.6822   -2.8995   -0.3557 O   0  0  0  0  0  0  0  0  0  0  0  0
    4.4303    1.0137    0.3881 O   0  0  0  0  0  0  0  0  0  0  0  0
    2.0838    2.3426    0.4968 O   0  0  0  0  0  0  0  0  0  0  0  0
    1.8416   -2.9344   -0.2649 O   0  0  0  0  0  0  0  0  0  0  0  0
    4.2994   -1.8444   -0.0284 O   0  0  0  0  0  0  0  0  0  0  0  0
   -1.7707   -0.8034   -0.0923 C   0  0  0  0  0  0  0  0  0  0  0  0
   -3.1233   -1.4713   -0.1907 C   0  0  1  0  0  0  0  0  0  0  0  0
   -1.7027    0.5797    0.1002 C   0  0  0  0  0  0  0  0  0  0  0  0
    0.6552   -0.9199   -0.0236 C   0  0  0  0  0  0  0  0  0  0  0  0
   -0.5874   -1.5517   -0.1558 C   0  0  0  0  0  0  0  0  0  0  0  0
    0.7180    0.4567    0.1757 C   0  0  0  0  0  0  0  0  0  0  0  0
   -0.4613    1.2098    0.2395 C   0  0  0  0  0  0  0  0  0  0  0  0
   -2.9494    1.3339    0.1469 C   0  0  0  0  0  0  0  0  0  0  0  0
   -4.1080    0.7339   -0.1690 C   0  0  0  0  0  0  0  0  0  0  0  0
   -3.4788   -2.2093    1.1001 C   0  0  0  0  0  0  0  0  0  0  0  0
    2.0199    1.1308    0.3196 C   0  0  0  0  0  0  0  0  0  0  0  0
    1.8892   -1.7213   -0.0924 C   0  0  0  0  0  0  0  0  0  0  0  0
    3.2543    0.3061    0.2446 C   0  0  0  0  0  0  0  0  0  0  0  0
    3.1934   -1.0231    0.0519 C   0  0  0  0  0  0  0  0  0  0  0  0
   -5.4092    1.4717   -0.1954 C   0  0  0  0  0  0  0  0  0  0  0  0
   -0.3669    3.3744   -0.7408 C   0  0  0  0  0  0  0  0  0  0  0  0
    4.9029    1.4586   -0.8677 C   0  0  0  0  0  0  0  0  0  0  0  0
   -3.0927   -2.1975   -1.0121 H   0  0  0  0  0  0  0  0  0  0  0  0
   -2.9295    2.3839    0.4159 H   0  0  0  0  0  0  0  0  0  0  0  0
   -3.5477   -1.5142    1.9450 H   0  0  0  0  0  0  0  0  0  0  0  0
   -2.7443   -2.9791    1.3548 H   0  0  0  0  0  0  0  0  0  0  0  0
   -4.4604   -2.6871    1.0068 H   0  0  0  0  0  0  0  0  0  0  0  0
   -5.8506    1.4236   -1.1960 H   0  0  0  0  0  0  0  0  0  0  0  0
   -5.2928    2.5276    0.0700 H   0  0  0  0  0  0  0  0  0  0  0  0
   -6.1117    1.0224    0.5140 H   0  0  0  0  0  0  0  0  0  0  0  0
    0.1826   -3.2851   -0.5583 H   0  0  0  0  0  0  0  0  0  0  0  0
   -0.0595    4.3808   -0.4429 H   0  0  0  0  0  0  0  0  0  0  0  0
   -1.3533    3.4392   -1.2094 H   0  0  0  0  0  0  0  0  0  0  0  0
    0.3571    2.9892   -1.4666 H   0  0  0  0  0  0  0  0  0  0  0  0
    3.9879   -2.7548   -0.1705 H   0  0  0  0  0  0  0  0  0  0  0  0
    4.1825    2.1229   -1.3577 H   0  0  0  0  0  0  0  0  0  0  0  0
    5.1412    0.6150   -1.5251 H   0  0  0  0  0  0  0  0  0  0  0  0
    5.8240    2.0259   -0.7034 H   0  0  0  0  0  0  0  0  0  0  0  0
  1  9  1  0  0  0  0
  1 16  1  0  0  0  0
  2 14  1  0  0  0  0
  2 23  1  0  0  0  0
  3 12  1  0  0  0  0
  3 33  1  0  0  0  0
  4 20  1  0  0  0  0
  4 24  1  0  0  0  0
  5 18  2  0  0  0  0
  6 19  2  0  0  0  0
  7 21  1  0  0  0  0
  7 37  1  0  0  0  0
  8  9  1  0  0  0  0
  8 10  2  0  0  0  0
  8 12  1  0  0  0  0
  9 17  1  0  0  0  0
  9 25  1  0  0  0  0
 10 14  1  0  0  0  0
 10 15  1  0  0  0  0
 11 12  2  0  0  0  0
 11 13  1  0  0  0  0
 11 19  1  0  0  0  0
 13 14  2  0  0  0  0
 13 18  1  0  0  0  0
 15 16  2  0  0  0  0
 15 26  1  0  0  0  0
 16 22  1  0  0  0  0
 17 27  1  0  0  0  0
 17 28  1  0  0  0  0
 17 29  1  0  0  0  0
 18 20  1  0  0  0  0
 19 21  1  0  0  0  0
 20 21  2  0  0  0  0
 22 30  1  0  0  0  0
 22 31  1  0  0  0  0
 22 32  1  0  0  0  0
 23 34  1  0  0  0  0
 23 35  1  0  0  0  0
 23 36  1  0  0  0  0
 24 38  1  0  0  0  0
 24 39  1  0  0  0  0
 24 40  1  0  0  0  0
M  END
> <PUBCHEM_COMPOUND_CID>
136170966

> <PUBCHEM_CONFORMER_RMSD>
0.6

> <PUBCHEM_CONFORMER_DIVERSEORDER>
1
3
2
4

> <PUBCHEM_MMFF94_PARTIAL_CHARGES>
26
1 -0.36
10 0.03
11 0.09
12 0.08
13 0.09
14 0.08
15 -0.18
16 -0.06
18 0.47
19 0.47
2 -0.36
20 0.09
21 0.09
22 0.14
23 0.28
24 0.28
26 0.15
3 -0.53
33 0.45
37 0.45
4 -0.36
5 -0.57
6 -0.57
7 -0.53
8 -0.14
9 0.42

> <PUBCHEM_EFFECTIVE_ROTOR_COUNT>
2.4

> <PUBCHEM_PHARMACOPHORE_FEATURES>
10
1 1 acceptor
1 2 acceptor
1 3 donor
1 4 acceptor
1 5 acceptor
1 6 acceptor
1 7 donor
6 1 8 9 10 15 16 rings
6 11 13 18 19 20 21 rings
6 8 10 11 12 13 14 rings

> <PUBCHEM_HEAVY_ATOM_COUNT>
24

> <PUBCHEM_ATOM_DEF_STEREO_COUNT>
0

> <PUBCHEM_ATOM_UDEF_STEREO_COUNT>
1

> <PUBCHEM_BOND_DEF_STEREO_COUNT>
0

> <PUBCHEM_BOND_UDEF_STEREO_COUNT>
0

> <PUBCHEM_ISOTOPIC_ATOM_COUNT>
0

> <PUBCHEM_COMPONENT_COUNT>
1

> <PUBCHEM_CACTVS_TAUTO_COUNT>
-1

> <PUBCHEM_CONFORMER_ID>
081DCDD600000001

> <PUBCHEM_MMFF94_ENERGY>
89.7253

> <PUBCHEM_FEATURE_SELFOVERLAP>
50.816

> <PUBCHEM_SHAPE_FINGERPRINT>
10411042 1 17619630181174632263
10498660 4 18410018740791547164
10616163 171 18339081608926000687
10759866 29 18187366541213990554
10906281 52 18270414793395959617
10967382 1 18339922619251409971
1100329 8 16680908836289467259
11112241 14 16125260125566545216
11471102 20 18412821365575670638
11578080 2 17097197334468205006
12011746 2 18341897385438152700
12236239 1 17894908590335659548
13132413 78 18340487879992344733
13140716 1 18411141294818672027
14178342 30 17765132253081526890
14223421 5 18267303140607265398
14790565 3 18121224435508431596
15196674 1 18411698785562730611
15536298 74 18272086084928627706
1601671 61 18410293626924675456
16945 1 18122906426015117299
19591789 44 18339643446488219054
200 152 17917987291825403351
20642791 178 18115318915336812293
20715895 44 18044082459053383653
20739085 24 18121808074329510193
21029758 27 18190184670592942333
21033648 29 18059565957883583801
21267235 1 18341057306751374743
21421861 104 17970339317731373826
221490 88 18337396031725353970
22182313 1 18341068375145886247
2334 1 18411982494233580635
23402539 116 18271516576375386468
23558518 356 17906458727292243673
23559900 14 18412259502671150330
2748010 2 18411980269456306591
3004659 81 18334858282348973814
335352 9 18339922602203643798
34934 24 18410006628851870947
350125 39 18338797793803777084
3680242 22 18192147101237836035
5104073 3 18410572885682210746
59755656 215 18338237051120661414
9709674 26 18269277854711289311

> <PUBCHEM_SHAPE_MULTIPOLES>
452.82
8.89
3.34
0.75
0.45
0.14
-0.02
1.28
0.57
-0.12
0.22
0.05
0.04
0.32

> <PUBCHEM_SHAPE_SELFOVERLAP>
1000.594

> <PUBCHEM_SHAPE_VOLUME>
242.5

> <PUBCHEM_COORDINATE_TYPE>
2
5
10

$$$$
