136100022
  -OEChem-03292013293D

 32 34  0     1  0  0  0  0  0999 V2000
    2.1220   -2.4922   -0.2440 F   0  0  0  0  0  0  0  0  0  0  0  0
    2.1453    0.2600    1.0622 O   0  0  0  0  0  0  0  0  0  0  0  0
    3.8500   -1.1481   -1.7670 O   0  0  0  0  0  0  0  0  0  0  0  0
    4.5784    1.6053    1.5928 O   0  0  0  0  0  0  0  0  0  0  0  0
   -4.2352    1.9624   -0.7019 O   0  0  0  0  0  0  0  0  0  0  0  0
   -0.1135    0.3119    0.1354 N   0  0  0  0  0  0  0  0  0  0  0  0
   -1.2721    2.1000   -0.5442 N   0  0  0  0  0  0  0  0  0  0  0  0
   -1.9127   -1.2564    0.5382 N   0  0  0  0  0  0  0  0  0  0  0  0
   -4.0262   -0.2382    0.0512 N   0  0  0  0  0  0  0  0  0  0  0  0
   -3.9095   -2.4652    0.8063 N   0  0  0  0  0  0  0  0  0  0  0  0
    1.0791   -0.5410    0.5031 C   0  0  1  0  0  0  0  0  0  0  0  0
    2.8617   -0.4285   -1.0627 C   0  0  1  0  0  0  0  0  0  0  0  0
    1.6734   -1.2826   -0.6898 C   0  0  1  0  0  0  0  0  0  0  0  0
    3.3432    0.0175    0.3047 C   0  0  1  0  0  0  0  0  0  0  0  0
    4.1940    1.2738    0.2683 C   0  0  0  0  0  0  0  0  0  0  0  0
   -1.4276   -0.0509    0.1670 C   0  0  0  0  0  0  0  0  0  0  0  0
   -0.0709    1.6143   -0.2988 C   0  0  0  0  0  0  0  0  0  0  0  0
   -2.1105    1.0645   -0.2543 C   0  0  0  0  0  0  0  0  0  0  0  0
   -3.5442    1.0194   -0.3377 C   0  0  0  0  0  0  0  0  0  0  0  0
   -3.2247   -1.3260    0.4713 C   0  0  0  0  0  0  0  0  0  0  0  0
    0.7245   -1.2241    1.2825 H   0  0  0  0  0  0  0  0  0  0  0  0
    2.5316    0.4235   -1.6688 H   0  0  0  0  0  0  0  0  0  0  0  0
    0.9826   -1.4723   -1.5154 H   0  0  0  0  0  0  0  0  0  0  0  0
    3.8976   -0.7806    0.8155 H   0  0  0  0  0  0  0  0  0  0  0  0
    3.6264    2.1195   -0.1335 H   0  0  0  0  0  0  0  0  0  0  0  0
    5.0966    1.1253   -0.3318 H   0  0  0  0  0  0  0  0  0  0  0  0
    0.8575    2.1556   -0.4190 H   0  0  0  0  0  0  0  0  0  0  0  0
    4.5986   -0.5478   -1.9220 H   0  0  0  0  0  0  0  0  0  0  0  0
    5.1188    2.4121    1.5406 H   0  0  0  0  0  0  0  0  0  0  0  0
   -5.0321   -0.3793    0.0294 H   0  0  0  0  0  0  0  0  0  0  0  0
   -3.4222   -3.2979    1.1191 H   0  0  0  0  0  0  0  0  0  0  0  0
   -4.9211   -2.5097    0.7516 H   0  0  0  0  0  0  0  0  0  0  0  0
  1 13  1  0  0  0  0
  2 11  1  0  0  0  0
  2 14  1  0  0  0  0
  3 12  1  0  0  0  0
  3 28  1  0  0  0  0
  4 15  1  0  0  0  0
  4 29  1  0  0  0  0
  5 19  2  0  0  0  0
  6 11  1  0  0  0  0
  6 16  1  0  0  0  0
  6 17  1  0  0  0  0
  7 17  2  0  0  0  0
  7 18  1  0  0  0  0
  8 16  1  0  0  0  0
  8 20  2  0  0  0  0
  9 19  1  0  0  0  0
  9 20  1  0  0  0  0
  9 30  1  0  0  0  0
 10 20  1  0  0  0  0
 10 31  1  0  0  0  0
 10 32  1  0  0  0  0
 11 13  1  0  0  0  0
 11 21  1  0  0  0  0
 12 13  1  0  0  0  0
 12 14  1  0  0  0  0
 12 22  1  0  0  0  0
 13 23  1  0  0  0  0
 14 15  1  0  0  0  0
 14 24  1  0  0  0  0
 15 25  1  0  0  0  0
 15 26  1  0  0  0  0
 16 18  2  0  0  0  0
 17 27  1  0  0  0  0
 18 19  1  0  0  0  0
M  END
> <PUBCHEM_COMPOUND_CID>
136100022

> <PUBCHEM_CONFORMER_RMSD>
0.6

> <PUBCHEM_CONFORMER_DIVERSEORDER>
1
15
28
19
24
12
21
20
23
5
6
25
29
18
2
10
8
26
17
7
9
4
13
3
27
11
22
14
16

> <PUBCHEM_MMFF94_PARTIAL_CHARGES>
26
1 -0.34
10 -0.85
11 0.54
12 0.28
13 0.34
14 0.28
15 0.28
16 -0.03
17 0.04
18 0.14
19 0.72
2 -0.56
20 0.56
27 0.15
28 0.4
29 0.4
3 -0.68
30 0.37
31 0.4
32 0.4
4 -0.68
5 -0.57
6 0.05
7 -0.57
8 -0.58
9 -0.49

> <PUBCHEM_EFFECTIVE_ROTOR_COUNT>
3

> <PUBCHEM_PHARMACOPHORE_FEATURES>
12
1 10 donor
1 2 acceptor
1 3 acceptor
1 3 donor
1 4 acceptor
1 4 donor
1 5 acceptor
1 9 donor
3 6 7 17 cation
5 2 11 12 13 14 rings
5 6 7 16 17 18 rings
6 8 9 16 18 19 20 rings

> <PUBCHEM_HEAVY_ATOM_COUNT>
20

> <PUBCHEM_ATOM_DEF_STEREO_COUNT>
3

> <PUBCHEM_ATOM_UDEF_STEREO_COUNT>
1

> <PUBCHEM_BOND_DEF_STEREO_COUNT>
0

> <PUBCHEM_BOND_UDEF_STEREO_COUNT>
0

> <PUBCHEM_ISOTOPIC_ATOM_COUNT>
0

> <PUBCHEM_COMPONENT_COUNT>
1

> <PUBCHEM_CACTVS_TAUTO_COUNT>
-1

> <PUBCHEM_CONFORMER_ID>
081CB8B600000001

> <PUBCHEM_MMFF94_ENERGY>
43.6068

> <PUBCHEM_FEATURE_SELFOVERLAP>
61.079

> <PUBCHEM_SHAPE_FINGERPRINT>
10319926 262 18264187193996027112
10498660 4 18334577914756563453
10608611 8 18339638945367748112
10871710 139 16392678022426365056
11132069 177 18333731316567789133
11405975 8 18341052904525687906
11552529 35 15912477073318604279
12173636 292 18043806486172151469
12236239 1 16732980929296231617
12403259 415 18201437038959948552
12553582 1 18116447010335829459
13140716 1 18263361387295903467
13214271 11 18410565219281631077
13296908 3 18341898480417416647
13544592 145 18196378026302644343
14178342 30 18259700081935663408
15099037 37 18262793085501487995
15219456 202 18343301461591442136
15375358 24 18410567383908218401
16945 1 18261393291646876413
17349148 13 16226044492235568952
17980427 23 17676487302178563380
18186145 218 18341339885518492544
192875 21 15936404563636164388
200 152 17131547237197371231
20279233 1 18412824659694260875
20510252 161 18339921494571930545
20645477 56 18260831441315995709
20645477 70 17632011953497086270
20871999 31 18187656794961520599
21065201 7 18260268533969206562
21079973 296 18408323315014385131
221490 88 18341621373886981590
22943178 12 18342460322311408614
23402539 116 18114174250933448722
23557571 272 18336835272489895152
23559900 14 18336830780186270878
2748010 2 18411143515316900199
34934 24 18334848403607623449
495365 180 17845071992354227689
5104073 3 18411136913693424890
6049 1 18271535204039030020
7364860 26 18195521502930044554
77492 1 16805323288245353787
81228 2 18115037298636437745
9709674 26 18411699850899197583

> <PUBCHEM_SHAPE_MULTIPOLES>
355.93
8.83
2.25
1.07
0.77
0.36
0.06
-0.7
-0.57
-1.08
0.04
1.11
0.05
2.01

> <PUBCHEM_SHAPE_SELFOVERLAP>
775.493

> <PUBCHEM_SHAPE_VOLUME>
194.9

> <PUBCHEM_COORDINATE_TYPE>
2
5
10

$$$$
