136125613
  -OEChem-03292013293D

 42 44  0     0  0  0  0  0  0999 V2000
   -5.2269    1.1252   -1.5287 O   0  0  0  0  0  0  0  0  0  0  0  0
    3.3741   -1.7356    1.3378 O   0  0  0  0  0  0  0  0  0  0  0  0
   -1.3712    1.6757    0.7616 N   0  0  0  0  0  0  0  0  0  0  0  0
    3.3886    0.4372    0.5609 N   0  0  0  0  0  0  0  0  0  0  0  0
   -2.0799   -0.6289    0.5478 N   0  0  0  0  0  0  0  0  0  0  0  0
   -3.0188    2.7152   -0.3368 N   0  0  0  0  0  0  0  0  0  0  0  0
   -4.1301   -0.7561   -0.6854 N   0  0  0  0  0  0  0  0  0  0  0  0
   -3.0926   -2.7070    0.1277 N   0  0  0  0  0  0  0  0  0  0  0  0
    4.9195   -1.2422   -0.2496 N   0  0  0  0  0  0  0  0  0  0  0  0
    6.5009   -0.7300   -1.8759 N   0  0  0  0  0  0  0  0  0  0  0  0
   -0.1535    1.5047    1.5166 C   0  0  0  0  0  0  0  0  0  0  0  0
    0.9980    1.0207    0.6291 C   0  0  0  0  0  0  0  0  0  0  0  0
    2.3056    0.8707    1.3995 C   0  0  0  0  0  0  0  0  0  0  0  0
   -2.2220    0.6984    0.3367 C   0  0  0  0  0  0  0  0  0  0  0  0
   -3.2193    1.3664   -0.3318 C   0  0  0  0  0  0  0  0  0  0  0  0
   -1.8932    2.8715    0.3320 C   0  0  0  0  0  0  0  0  0  0  0  0
   -3.0537   -1.3407    0.0232 C   0  0  0  0  0  0  0  0  0  0  0  0
   -4.2968    0.6166   -0.9159 C   0  0  0  0  0  0  0  0  0  0  0  0
    3.9740    1.3551   -0.2974 C   0  0  0  0  0  0  0  0  0  0  0  0
    3.8721   -0.8952    0.5867 C   0  0  0  0  0  0  0  0  0  0  0  0
    4.9819    1.0412   -1.1091 C   0  0  0  0  0  0  0  0  0  0  0  0
   -3.7132   -3.5069   -0.9045 C   0  0  0  0  0  0  0  0  0  0  0  0
   -2.3045   -3.3912    1.1286 C   0  0  0  0  0  0  0  0  0  0  0  0
    5.4608   -0.3646   -1.0531 C   0  0  0  0  0  0  0  0  0  0  0  0
   -0.3571    0.7890    2.3211 H   0  0  0  0  0  0  0  0  0  0  0  0
    0.0950    2.4655    1.9816 H   0  0  0  0  0  0  0  0  0  0  0  0
    1.1298    1.7246   -0.2028 H   0  0  0  0  0  0  0  0  0  0  0  0
    0.7379    0.0588    0.1685 H   0  0  0  0  0  0  0  0  0  0  0  0
    2.5847    1.8234    1.8674 H   0  0  0  0  0  0  0  0  0  0  0  0
    2.1615    0.1547    2.2168 H   0  0  0  0  0  0  0  0  0  0  0  0
   -1.4104    3.8180    0.5343 H   0  0  0  0  0  0  0  0  0  0  0  0
   -4.8575   -1.3616   -1.0516 H   0  0  0  0  0  0  0  0  0  0  0  0
    3.5720    2.3624   -0.2792 H   0  0  0  0  0  0  0  0  0  0  0  0
    5.4441    1.7526   -1.7802 H   0  0  0  0  0  0  0  0  0  0  0  0
   -3.4970   -3.1118   -1.9035 H   0  0  0  0  0  0  0  0  0  0  0  0
   -4.7980   -3.5461   -0.7613 H   0  0  0  0  0  0  0  0  0  0  0  0
   -3.3447   -4.5390   -0.8884 H   0  0  0  0  0  0  0  0  0  0  0  0
   -2.2885   -2.8353    2.0726 H   0  0  0  0  0  0  0  0  0  0  0  0
   -1.2742   -3.5196    0.7812 H   0  0  0  0  0  0  0  0  0  0  0  0
   -2.7187   -4.3809    1.3500 H   0  0  0  0  0  0  0  0  0  0  0  0
    6.9417   -0.0722   -2.5103 H   0  0  0  0  0  0  0  0  0  0  0  0
    6.8599   -1.6787   -1.8710 H   0  0  0  0  0  0  0  0  0  0  0  0
  1 18  2  0  0  0  0
  2 20  2  0  0  0  0
  3 11  1  0  0  0  0
  3 14  1  0  0  0  0
  3 16  1  0  0  0  0
  4 13  1  0  0  0  0
  4 19  1  0  0  0  0
  4 20  1  0  0  0  0
  5 14  1  0  0  0  0
  5 17  2  0  0  0  0
  6 15  1  0  0  0  0
  6 16  2  0  0  0  0
  7 17  1  0  0  0  0
  7 18  1  0  0  0  0
  7 32  1  0  0  0  0
  8 17  1  0  0  0  0
  8 22  1  0  0  0  0
  8 23  1  0  0  0  0
  9 20  1  0  0  0  0
  9 24  2  0  0  0  0
 10 24  1  0  0  0  0
 10 41  1  0  0  0  0
 10 42  1  0  0  0  0
 11 12  1  0  0  0  0
 11 25  1  0  0  0  0
 11 26  1  0  0  0  0
 12 13  1  0  0  0  0
 12 27  1  0  0  0  0
 12 28  1  0  0  0  0
 13 29  1  0  0  0  0
 13 30  1  0  0  0  0
 14 15  2  0  0  0  0
 15 18  1  0  0  0  0
 16 31  1  0  0  0  0
 19 21  2  0  0  0  0
 19 33  1  0  0  0  0
 21 24  1  0  0  0  0
 21 34  1  0  0  0  0
 22 35  1  0  0  0  0
 22 36  1  0  0  0  0
 22 37  1  0  0  0  0
 23 38  1  0  0  0  0
 23 39  1  0  0  0  0
 23 40  1  0  0  0  0
M  END
> <PUBCHEM_COMPOUND_CID>
136125613

> <PUBCHEM_CONFORMER_RMSD>
0.8

> <PUBCHEM_CONFORMER_DIVERSEORDER>
19
79
34
60
81
80
70
28
78
41
58
4
73
77
32
50
27
26
35
65
74
37
66
16
61
42
29
67
17
48
45
39
1
6
51
33
10
46
62
20
64
23
49
57
9
44
12
75
24
76
25
72
22
15
56
30
53
54
36
55
7
14
11
13
69
71
18
2
43
5
8
21
47
52
68
3
38
40
31
59
63

> <PUBCHEM_MMFF94_PARTIAL_CHARGES>
29
1 -0.57
10 -0.85
11 0.26
13 0.3
14 -0.03
15 0.14
16 0.04
17 0.56
18 0.72
19 -0.04
2 -0.57
20 0.84
21 -0.14
22 0.37
23 0.37
24 0.49
3 0.05
31 0.15
32 0.37
33 0.15
34 0.15
4 -0.47
41 0.4
42 0.4
5 -0.58
6 -0.57
7 -0.49
8 -0.79
9 -0.66

> <PUBCHEM_EFFECTIVE_ROTOR_COUNT>
5

> <PUBCHEM_PHARMACOPHORE_FEATURES>
9
1 1 acceptor
1 10 donor
1 2 acceptor
1 7 donor
1 9 donor
3 3 6 16 cation
5 3 6 14 15 16 rings
6 4 9 19 20 21 24 rings
6 5 7 14 15 17 18 rings

> <PUBCHEM_HEAVY_ATOM_COUNT>
24

> <PUBCHEM_ATOM_DEF_STEREO_COUNT>
0

> <PUBCHEM_ATOM_UDEF_STEREO_COUNT>
0

> <PUBCHEM_BOND_DEF_STEREO_COUNT>
0

> <PUBCHEM_BOND_UDEF_STEREO_COUNT>
0

> <PUBCHEM_ISOTOPIC_ATOM_COUNT>
0

> <PUBCHEM_COMPONENT_COUNT>
1

> <PUBCHEM_CACTVS_TAUTO_COUNT>
-1

> <PUBCHEM_CONFORMER_ID>
081D1CAD00000013

> <PUBCHEM_MMFF94_ENERGY>
56.1221

> <PUBCHEM_FEATURE_SELFOVERLAP>
45.855

> <PUBCHEM_SHAPE_FINGERPRINT>
10366900 7 18131628963242615724
10928967 22 18059295478023929854
11186622 123 18336538408724848354
12363563 72 17060336310332101192
12969540 114 15357696401028379608
13103583 49 11671792516453318028
13631057 29 18268994353031754208
13785724 45 17613728433113420715
13941206 138 18113897105300142971
14251740 79 18411143532275119699
14251757 5 18335143136779657683
14363568 33 17399534801233957027
14790565 3 18196086647886483257
14910302 57 18337940234399982532
15188451 53 13829839215067989093
15250474 111 18335696092834746210
15880784 105 15697987544384586532
17870717 6 18342178851640305789
20693207 138 18272358793735169544
21054139 6 18334294301867249706
21307412 95 18201434792496497591
22393880 68 18408605872913659056
22849339 104 18409732876305830711
23379529 103 18199191874158552894
23559900 14 18341602754861044168
3004659 81 18335977580664268432
3117164 225 10230941914486480300
4058900 60 17899689069456752241
44062 13 18342175574437821127
474144 1 17824523206711367642
484985 159 17917727811334524691
508706 21 18130518430876601398
574716 61 17676493890463216508
633830 44 16371007343742168400

> <PUBCHEM_SHAPE_MULTIPOLES>
442.32
13.43
3.52
1.4
15.52
2.16
0.07
3.6
7.36
-5.1
-0.34
0.81
0.11
0.46

> <PUBCHEM_SHAPE_SELFOVERLAP>
947.244

> <PUBCHEM_SHAPE_VOLUME>
243.2

> <PUBCHEM_COORDINATE_TYPE>
2
5
10

$$$$
