136190395
  -OEChem-03292013293D

 37 39  0     1  0  0  0  0  0999 V2000
   -2.1060   -0.7870    1.0730 O   0  0  0  0  0  0  0  0  0  0  0  0
   -3.3916    1.9652    0.8928 O   0  0  0  0  0  0  0  0  0  0  0  0
   -4.0152   -2.7162    0.3811 O   0  0  0  0  0  0  0  0  0  0  0  0
    4.3941   -1.7962   -0.7389 O   0  0  0  0  0  0  0  0  0  0  0  0
    0.1365   -0.5736    0.1522 N   0  0  0  0  0  0  0  0  0  0  0  0
   -1.2346    2.1805   -0.8808 N   0  0  0  0  0  0  0  0  0  0  0  0
    1.4536   -2.2036   -0.6290 N   0  0  0  0  0  0  0  0  0  0  0  0
    1.7872    1.1160    0.6808 N   0  0  0  0  0  0  0  0  0  0  0  0
    3.9859    0.3222    0.1552 N   0  0  0  0  0  0  0  0  0  0  0  0
    3.6674    2.4749    1.0540 N   0  0  0  0  0  0  0  0  0  0  0  0
   -1.8200    0.8804   -0.5893 C   0  0  1  0  0  0  0  0  0  0  0  0
   -1.1276    0.1438    0.5592 C   0  0  1  0  0  0  0  0  0  0  0  0
   -3.2562    0.9390   -0.0908 C   0  0  1  0  0  0  0  0  0  0  0  0
   -3.4167   -0.4136    0.5953 C   0  0  1  0  0  0  0  0  0  0  0  0
   -3.9105   -1.5042   -0.3452 C   0  0  0  0  0  0  0  0  0  0  0  0
    1.4134   -0.0998    0.2246 C   0  0  0  0  0  0  0  0  0  0  0  0
    0.2125   -1.8427   -0.3677 C   0  0  0  0  0  0  0  0  0  0  0  0
   -1.6754    2.6744   -2.1795 C   0  0  0  0  0  0  0  0  0  0  0  0
    2.1952   -1.1202   -0.2605 C   0  0  0  0  0  0  0  0  0  0  0  0
    3.6197   -0.9441   -0.3223 C   0  0  0  0  0  0  0  0  0  0  0  0
    3.0883    1.3048    0.6358 C   0  0  0  0  0  0  0  0  0  0  0  0
   -1.7717    0.2383   -1.4802 H   0  0  0  0  0  0  0  0  0  0  0  0
   -0.8445    0.8068    1.3863 H   0  0  0  0  0  0  0  0  0  0  0  0
   -3.9902    1.1251   -0.8807 H   0  0  0  0  0  0  0  0  0  0  0  0
   -4.0675   -0.3598    1.4754 H   0  0  0  0  0  0  0  0  0  0  0  0
   -0.2180    2.1018   -0.8930 H   0  0  0  0  0  0  0  0  0  0  0  0
   -4.8944   -1.2525   -0.7527 H   0  0  0  0  0  0  0  0  0  0  0  0
   -3.2105   -1.6726   -1.1695 H   0  0  0  0  0  0  0  0  0  0  0  0
   -4.3089    1.9393    1.2146 H   0  0  0  0  0  0  0  0  0  0  0  0
   -0.6643   -2.4527   -0.5364 H   0  0  0  0  0  0  0  0  0  0  0  0
   -2.7605    2.8134   -2.2115 H   0  0  0  0  0  0  0  0  0  0  0  0
   -1.3742    2.0034   -2.9906 H   0  0  0  0  0  0  0  0  0  0  0  0
   -1.2177    3.6507   -2.3680 H   0  0  0  0  0  0  0  0  0  0  0  0
   -4.3343   -3.3949   -0.2379 H   0  0  0  0  0  0  0  0  0  0  0  0
    4.9755    0.5521    0.1557 H   0  0  0  0  0  0  0  0  0  0  0  0
    3.1061    3.2388    1.4146 H   0  0  0  0  0  0  0  0  0  0  0  0
    4.6715    2.6115    1.0154 H   0  0  0  0  0  0  0  0  0  0  0  0
  1 12  1  0  0  0  0
  1 14  1  0  0  0  0
  2 13  1  0  0  0  0
  2 29  1  0  0  0  0
  3 15  1  0  0  0  0
  3 34  1  0  0  0  0
  4 20  2  0  0  0  0
  5 12  1  0  0  0  0
  5 16  1  0  0  0  0
  5 17  1  0  0  0  0
  6 11  1  0  0  0  0
  6 18  1  0  0  0  0
  6 26  1  0  0  0  0
  7 17  2  0  0  0  0
  7 19  1  0  0  0  0
  8 16  1  0  0  0  0
  8 21  2  0  0  0  0
  9 20  1  0  0  0  0
  9 21  1  0  0  0  0
  9 35  1  0  0  0  0
 10 21  1  0  0  0  0
 10 36  1  0  0  0  0
 10 37  1  0  0  0  0
 11 12  1  0  0  0  0
 11 13  1  0  0  0  0
 11 22  1  0  0  0  0
 12 23  1  0  0  0  0
 13 14  1  0  0  0  0
 13 24  1  0  0  0  0
 14 15  1  0  0  0  0
 14 25  1  0  0  0  0
 15 27  1  0  0  0  0
 15 28  1  0  0  0  0
 16 19  2  0  0  0  0
 17 30  1  0  0  0  0
 18 31  1  0  0  0  0
 18 32  1  0  0  0  0
 18 33  1  0  0  0  0
 19 20  1  0  0  0  0
M  END
> <PUBCHEM_COMPOUND_CID>
136190395

> <PUBCHEM_CONFORMER_RMSD>
0.6

> <PUBCHEM_CONFORMER_DIVERSEORDER>
1
15
21
12
16
25
23
18
20
27
7
5
11
17
14
4
8
10
13
22
6
24
19
9
3
2
26

> <PUBCHEM_MMFF94_PARTIAL_CHARGES>
28
1 -0.56
10 -0.85
11 0.27
12 0.54
13 0.28
14 0.28
15 0.28
16 -0.03
17 0.04
18 0.27
19 0.14
2 -0.68
20 0.72
21 0.56
26 0.36
29 0.4
3 -0.68
30 0.15
34 0.4
35 0.37
36 0.4
37 0.4
4 -0.57
5 0.05
6 -0.9
7 -0.57
8 -0.58
9 -0.49

> <PUBCHEM_EFFECTIVE_ROTOR_COUNT>
4

> <PUBCHEM_PHARMACOPHORE_FEATURES>
14
1 1 acceptor
1 10 donor
1 2 acceptor
1 2 donor
1 3 acceptor
1 3 donor
1 4 acceptor
1 6 cation
1 6 donor
1 9 donor
3 5 7 17 cation
5 1 11 12 13 14 rings
5 5 7 16 17 19 rings
6 8 9 16 19 20 21 rings

> <PUBCHEM_HEAVY_ATOM_COUNT>
21

> <PUBCHEM_ATOM_DEF_STEREO_COUNT>
4

> <PUBCHEM_ATOM_UDEF_STEREO_COUNT>
0

> <PUBCHEM_BOND_DEF_STEREO_COUNT>
0

> <PUBCHEM_BOND_UDEF_STEREO_COUNT>
0

> <PUBCHEM_ISOTOPIC_ATOM_COUNT>
0

> <PUBCHEM_COMPONENT_COUNT>
1

> <PUBCHEM_CACTVS_TAUTO_COUNT>
-1

> <PUBCHEM_CONFORMER_ID>
081E19BB00000001

> <PUBCHEM_MMFF94_ENERGY>
46.4034

> <PUBCHEM_FEATURE_SELFOVERLAP>
71.234

> <PUBCHEM_SHAPE_FINGERPRINT>
10366900 7 18113342994246777386
10498660 4 18040708152166784093
10608611 8 18411135796991514000
11132069 177 18333447651458515813
11405975 8 18342460300783838099
11759241 127 18338791342114221285
12403259 226 18410290298646527614
12623949 98 17844549870445293383
12633257 1 18266740177689671961
12916754 54 18272091603866865531
12969540 114 17824809054787425853
13134695 92 17131256949665252728
13140716 1 18340761555540496096
13224815 77 18334852818454182725
13583140 156 18117535393507863802
15196674 1 18342178864672738290
15219456 202 18412545400957643840
15961568 22 17896037818515655468
17357779 13 18262501698183402677
18186145 218 18341890732560028776
19930381 70 18056473091709889465
200 152 17774997973480985663
20600515 1 17096361916152953405
20645477 56 18263930938972410025
20681677 76 18409719660427404908
221490 88 18343026596733430562
23402539 116 17749111058430935567
23557571 272 18114181921787231173
23559900 14 18341609253336207002
238 59 17834922348857749549
2748010 2 18338504271185747636
2871803 45 18410285939408164231
3286 77 18272936033123333840
350125 39 18342460391379012458
3524813 1 18336543803203687500
5104073 3 18342459235621594482
6049 1 18337387154402570900
6287921 2 18338248144726340044
6913067 236 18195222619859649723
81228 2 17895483518641711069
9709674 26 18411423950589908419
9925002 15 17478608374816083663

> <PUBCHEM_SHAPE_MULTIPOLES>
378.81
8.1
2.88
1.15
1.91
0.52
-0.35
-1.35
0.76
-0.87
-0.7
-0.33
0.76
1.65

> <PUBCHEM_SHAPE_SELFOVERLAP>
814.079

> <PUBCHEM_SHAPE_VOLUME>
205.9

> <PUBCHEM_COORDINATE_TYPE>
2
5
10

$$$$
