136227923
  -OEChem-03292013293D

 39 41  0     0  0  0  0  0  0999 V2000
    2.9085    3.0859   -0.6637 O   0  0  0  0  0  0  0  0  0  0  0  0
    0.5960    2.3657    0.4634 O   0  0  0  0  0  0  0  0  0  0  0  0
   -3.7499   -2.8222   -0.6937 O   0  0  0  0  0  0  0  0  0  0  0  0
   -6.0879    2.0002    0.6067 O   0  0  0  0  0  0  0  0  0  0  0  0
   -7.6631   -0.2328    0.0999 O   0  0  0  0  0  0  0  0  0  0  0  0
    0.0227    0.1862   -0.0659 N   0  0  0  0  0  0  0  0  0  0  0  0
   -1.3027    0.4414    0.0439 N   0  0  0  0  0  0  0  0  0  0  0  0
    4.1125   -0.8008    0.2564 C   0  0  0  0  0  0  0  0  0  0  0  0
    5.0640    0.1617   -0.1577 C   0  0  0  0  0  0  0  0  0  0  0  0
    2.3530    0.8661    0.0477 C   0  0  0  0  0  0  0  0  0  0  0  0
    2.7608   -0.4325    0.3540 C   0  0  0  0  0  0  0  0  0  0  0  0
    4.6356    1.4641   -0.4619 C   0  0  0  0  0  0  0  0  0  0  0  0
    3.2885    1.8126   -0.3595 C   0  0  0  0  0  0  0  0  0  0  0  0
    4.5409   -2.1032    0.5606 C   0  0  0  0  0  0  0  0  0  0  0  0
    6.4157   -0.2067   -0.2555 C   0  0  0  0  0  0  0  0  0  0  0  0
    5.8879   -2.4518    0.4579 C   0  0  0  0  0  0  0  0  0  0  0  0
    6.8235   -1.5052    0.0508 C   0  0  0  0  0  0  0  0  0  0  0  0
    0.9424    1.2107    0.1607 C   0  0  0  0  0  0  0  0  0  0  0  0
   -3.5256   -0.5045   -0.1165 C   0  0  0  0  0  0  0  0  0  0  0  0
   -4.3161   -1.6253   -0.3710 C   0  0  0  0  0  0  0  0  0  0  0  0
   -4.1250    0.7116    0.2118 C   0  0  0  0  0  0  0  0  0  0  0  0
   -5.5147    0.8068    0.2858 C   0  0  0  0  0  0  0  0  0  0  0  0
   -5.7059   -1.5300   -0.2972 C   0  0  0  0  0  0  0  0  0  0  0  0
   -6.3051   -0.3140    0.0313 C   0  0  0  0  0  0  0  0  0  0  0  0
   -2.0561   -0.5840   -0.1886 C   0  0  0  0  0  0  0  0  0  0  0  0
    2.0484   -1.1773    0.7028 H   0  0  0  0  0  0  0  0  0  0  0  0
    5.3615    2.2101   -0.7813 H   0  0  0  0  0  0  0  0  0  0  0  0
    3.8275   -2.8598    0.8808 H   0  0  0  0  0  0  0  0  0  0  0  0
    7.1645    0.5166   -0.5717 H   0  0  0  0  0  0  0  0  0  0  0  0
    6.2062   -3.4626    0.6961 H   0  0  0  0  0  0  0  0  0  0  0  0
    7.8719   -1.7772   -0.0289 H   0  0  0  0  0  0  0  0  0  0  0  0
   -3.5239    1.5950    0.4130 H   0  0  0  0  0  0  0  0  0  0  0  0
    0.2949   -0.7496   -0.3493 H   0  0  0  0  0  0  0  0  0  0  0  0
   -6.3226   -2.4034   -0.4956 H   0  0  0  0  0  0  0  0  0  0  0  0
   -1.6218   -1.5661   -0.4508 H   0  0  0  0  0  0  0  0  0  0  0  0
    3.6924    3.5985   -0.9256 H   0  0  0  0  0  0  0  0  0  0  0  0
   -4.4528   -3.4795   -0.8345 H   0  0  0  0  0  0  0  0  0  0  0  0
   -5.3888    2.6612    0.7485 H   0  0  0  0  0  0  0  0  0  0  0  0
   -8.0439   -1.1036   -0.1068 H   0  0  0  0  0  0  0  0  0  0  0  0
  1 13  1  0  0  0  0
  1 36  1  0  0  0  0
  2 18  2  0  0  0  0
  3 20  1  0  0  0  0
  3 37  1  0  0  0  0
  4 22  1  0  0  0  0
  4 38  1  0  0  0  0
  5 24  1  0  0  0  0
  5 39  1  0  0  0  0
  6  7  1  0  0  0  0
  6 18  1  0  0  0  0
  6 33  1  0  0  0  0
  7 25  2  0  0  0  0
  8  9  1  0  0  0  0
  8 11  1  0  0  0  0
  8 14  2  0  0  0  0
  9 12  1  0  0  0  0
  9 15  2  0  0  0  0
 10 11  2  0  0  0  0
 10 13  1  0  0  0  0
 10 18  1  0  0  0  0
 11 26  1  0  0  0  0
 12 13  2  0  0  0  0
 12 27  1  0  0  0  0
 14 16  1  0  0  0  0
 14 28  1  0  0  0  0
 15 17  1  0  0  0  0
 15 29  1  0  0  0  0
 16 17  2  0  0  0  0
 16 30  1  0  0  0  0
 17 31  1  0  0  0  0
 19 20  1  0  0  0  0
 19 21  2  0  0  0  0
 19 25  1  0  0  0  0
 20 23  2  0  0  0  0
 21 22  1  0  0  0  0
 21 32  1  0  0  0  0
 22 24  2  0  0  0  0
 23 24  1  0  0  0  0
 23 34  1  0  0  0  0
 25 35  1  0  0  0  0
M  END
> <PUBCHEM_COMPOUND_CID>
136227923

> <PUBCHEM_CONFORMER_RMSD>
0.8

> <PUBCHEM_CONFORMER_DIVERSEORDER>
1
12
18
6
19
14
13
3
8
9
17
16
10
4
2
5
11
7
15

> <PUBCHEM_MMFF94_PARTIAL_CHARGES>
37
1 -0.53
10 0.09
11 -0.15
12 -0.15
13 0.08
14 -0.15
15 -0.15
16 -0.15
17 -0.15
18 0.54
19 0.09
2 -0.57
20 0.08
21 -0.15
22 0.08
23 -0.15
24 0.08
25 0.3
26 0.15
27 0.15
28 0.15
29 0.15
3 -0.53
30 0.15
31 0.15
32 0.15
33 0.37
34 0.15
35 0.06
36 0.45
37 0.45
38 0.45
39 0.45
4 -0.53
5 -0.53
6 -0.37
7 -0.51

> <PUBCHEM_EFFECTIVE_ROTOR_COUNT>
4

> <PUBCHEM_PHARMACOPHORE_FEATURES>
10
1 1 donor
1 2 acceptor
1 3 donor
1 4 donor
1 5 donor
1 6 donor
1 7 acceptor
6 19 20 21 22 23 24 rings
6 8 9 10 11 12 13 rings
6 8 9 14 15 16 17 rings

> <PUBCHEM_HEAVY_ATOM_COUNT>
25

> <PUBCHEM_ATOM_DEF_STEREO_COUNT>
0

> <PUBCHEM_ATOM_UDEF_STEREO_COUNT>
0

> <PUBCHEM_BOND_DEF_STEREO_COUNT>
1

> <PUBCHEM_BOND_UDEF_STEREO_COUNT>
0

> <PUBCHEM_ISOTOPIC_ATOM_COUNT>
0

> <PUBCHEM_COMPONENT_COUNT>
1

> <PUBCHEM_CACTVS_TAUTO_COUNT>
-1

> <PUBCHEM_CONFORMER_ID>
081EAC5300000001

> <PUBCHEM_MMFF94_ENERGY>
73.6778

> <PUBCHEM_FEATURE_SELFOVERLAP>
50.784

> <PUBCHEM_SHAPE_FINGERPRINT>
10299344 5 18409169900265840975
10411042 1 18191584156750369818
10595046 47 18267304416413018989
10622 236 17842540010566176095
10670039 82 14924217184388420702
11524674 6 17060616707535687191
11719270 70 17846500313793855862
11796584 16 18131356323356758478
12107183 9 18339928091583415169
12166972 35 18342458157548249737
12236239 1 18343022198401751640
12516196 113 18272086093634672096
12592606 108 18413666924905280831
13073987 5 18341050825967361713
13167823 11 18338514243983569479
13533116 47 18411418436389795064
13685833 64 18407760326443415322
14251764 18 18342177765155848661
14420673 8 18411139113133976079
15183329 4 18407757028082520915
15250474 111 18198893885017291559
15361156 5 17895203237096008359
15419008 42 17842278064889643269
17492 89 18050846912702171691
17844677 252 18410016550195014021
17857418 61 18341894099487471114
20028762 73 18342174437042432934
21267235 1 18409733945435721464
21315763 28 18410573998822362575
221357 26 18114178623241954132
22224240 67 11239991244830467406
22950370 63 18409728477958327380
23081809 10 18273214239988732525
23522609 53 18192180181055636508
23536379 177 18410856564230279617
23559900 14 18270391832448028649
23569943 247 17604983707081921939
3004659 81 18334574646760990402
335352 9 18412261727564241829
3411729 13 16629103568321211784
397830 11 15266196202621408966
4073 2 18042127724825997386
4214541 1 18412545431602858333
46194498 28 17168144568328920612
465052 167 18343303665479617942
5104073 3 18130510833337735777
559249 180 18342737404090560759
6299153 45 18340775819317017665
9965369 4 18342176648801910009
999808 66 18040727987080287339

> <PUBCHEM_SHAPE_MULTIPOLES>
475.18
21.04
2.65
0.71
13.83
0.19
0
-7.2
-0.45
-1.73
0.15
-0.06
-0.01
-1.69

> <PUBCHEM_SHAPE_SELFOVERLAP>
1051

> <PUBCHEM_SHAPE_VOLUME>
253.3

> <PUBCHEM_COORDINATE_TYPE>
2
5
10

$$$$
