136267814
  -OEChem-03292013293D

 49 52  0     0  0  0  0  0  0999 V2000
    4.1731   -1.6025    0.8288 S   0  0  0  0  0  0  0  0  0  0  0  0
   -7.2866   -0.4590   -0.1537 S   0  0  0  0  0  0  0  0  0  0  0  0
   -4.1002    2.0887    1.9340 O   0  0  0  0  0  0  0  0  0  0  0  0
    5.4532   -2.1376    1.2667 O   0  0  0  0  0  0  0  0  0  0  0  0
    3.0981   -1.4115    1.7894 O   0  0  0  0  0  0  0  0  0  0  0  0
    2.0628    0.3009   -0.2587 N   0  0  0  0  0  0  0  0  0  0  0  0
   -0.6354   -0.3730    0.0966 N   0  0  0  0  0  0  0  0  0  0  0  0
   -2.4074    0.8406    1.0061 N   0  0  0  0  0  0  0  0  0  0  0  0
   -2.8280   -0.8078   -0.6069 N   0  0  0  0  0  0  0  0  0  0  0  0
    1.2080    0.1014   -1.4367 C   0  0  0  0  0  0  0  0  0  0  0  0
    1.3707    0.7083    0.9744 C   0  0  0  0  0  0  0  0  0  0  0  0
    0.2138   -0.2434    1.2752 C   0  0  0  0  0  0  0  0  0  0  0  0
    0.0507   -0.8396   -1.1027 C   0  0  0  0  0  0  0  0  0  0  0  0
    3.3892    0.7133   -0.4273 C   0  0  0  0  0  0  0  0  0  0  0  0
   -1.9857   -0.1452    0.1318 C   0  0  0  0  0  0  0  0  0  0  0  0
    4.4498   -0.0704    0.0267 C   0  0  0  0  0  0  0  0  0  0  0  0
   -4.1692   -0.5070   -0.4994 C   0  0  0  0  0  0  0  0  0  0  0  0
   -4.6873    0.4268    0.3263 C   0  0  0  0  0  0  0  0  0  0  0  0
   -5.0319   -1.3364   -1.4279 C   0  0  0  0  0  0  0  0  0  0  0  0
    3.6422    1.9295   -1.0616 C   0  0  0  0  0  0  0  0  0  0  0  0
   -3.7274    1.2034    1.1693 C   0  0  0  0  0  0  0  0  0  0  0  0
   -6.1389    0.7763    0.5025 C   0  0  0  0  0  0  0  0  0  0  0  0
   -6.4262   -0.7888   -1.7083 C   0  0  0  0  0  0  0  0  0  0  0  0
    5.7637    0.3620   -0.1537 C   0  0  0  0  0  0  0  0  0  0  0  0
    4.9561    2.3620   -1.2419 C   0  0  0  0  0  0  0  0  0  0  0  0
    6.0169    1.5783   -0.7880 C   0  0  0  0  0  0  0  0  0  0  0  0
    3.5758   -2.6694   -0.4611 C   0  0  0  0  0  0  0  0  0  0  0  0
    0.9774    1.7238    0.8321 H   0  0  0  0  0  0  0  0  0  0  0  0
    2.0482    0.7602    1.8336 H   0  0  0  0  0  0  0  0  0  0  0  0
    0.8147    1.0701   -1.7697 H   0  0  0  0  0  0  0  0  0  0  0  0
    1.7857   -0.3261   -2.2651 H   0  0  0  0  0  0  0  0  0  0  0  0
    0.5958   -1.2405    1.5223 H   0  0  0  0  0  0  0  0  0  0  0  0
   -0.3198    0.0910    2.1703 H   0  0  0  0  0  0  0  0  0  0  0  0
   -0.6251   -0.8839   -1.9645 H   0  0  0  0  0  0  0  0  0  0  0  0
    0.4136   -1.8587   -0.9305 H   0  0  0  0  0  0  0  0  0  0  0  0
   -1.7208    1.3662    1.5363 H   0  0  0  0  0  0  0  0  0  0  0  0
   -4.5195   -1.4361   -2.3942 H   0  0  0  0  0  0  0  0  0  0  0  0
   -5.1072   -2.3517   -1.0158 H   0  0  0  0  0  0  0  0  0  0  0  0
    2.8285    2.5567   -1.4168 H   0  0  0  0  0  0  0  0  0  0  0  0
   -6.3753    0.8822    1.5666 H   0  0  0  0  0  0  0  0  0  0  0  0
   -6.3471    1.7383    0.0219 H   0  0  0  0  0  0  0  0  0  0  0  0
   -6.3775    0.1337   -2.2972 H   0  0  0  0  0  0  0  0  0  0  0  0
   -7.0046   -1.5168   -2.2860 H   0  0  0  0  0  0  0  0  0  0  0  0
    6.6115   -0.2254    0.1861 H   0  0  0  0  0  0  0  0  0  0  0  0
    5.1533    3.3096   -1.7347 H   0  0  0  0  0  0  0  0  0  0  0  0
    7.0397    1.9152   -0.9288 H   0  0  0  0  0  0  0  0  0  0  0  0
    3.4278   -3.6624   -0.0303 H   0  0  0  0  0  0  0  0  0  0  0  0
    2.6326   -2.3018   -0.8530 H   0  0  0  0  0  0  0  0  0  0  0  0
    4.3280   -2.7216   -1.2509 H   0  0  0  0  0  0  0  0  0  0  0  0
  1  4  2  0  0  0  0
  1  5  2  0  0  0  0
  1 16  1  0  0  0  0
  1 27  1  0  0  0  0
  2 22  1  0  0  0  0
  2 23  1  0  0  0  0
  3 21  2  0  0  0  0
  6 10  1  0  0  0  0
  6 11  1  0  0  0  0
  6 14  1  0  0  0  0
  7 12  1  0  0  0  0
  7 13  1  0  0  0  0
  7 15  1  0  0  0  0
  8 15  1  0  0  0  0
  8 21  1  0  0  0  0
  8 36  1  0  0  0  0
  9 15  2  0  0  0  0
  9 17  1  0  0  0  0
 10 13  1  0  0  0  0
 10 30  1  0  0  0  0
 10 31  1  0  0  0  0
 11 12  1  0  0  0  0
 11 28  1  0  0  0  0
 11 29  1  0  0  0  0
 12 32  1  0  0  0  0
 12 33  1  0  0  0  0
 13 34  1  0  0  0  0
 13 35  1  0  0  0  0
 14 16  1  0  0  0  0
 14 20  2  0  0  0  0
 16 24  2  0  0  0  0
 17 18  2  0  0  0  0
 17 19  1  0  0  0  0
 18 21  1  0  0  0  0
 18 22  1  0  0  0  0
 19 23  1  0  0  0  0
 19 37  1  0  0  0  0
 19 38  1  0  0  0  0
 20 25  1  0  0  0  0
 20 39  1  0  0  0  0
 22 40  1  0  0  0  0
 22 41  1  0  0  0  0
 23 42  1  0  0  0  0
 23 43  1  0  0  0  0
 24 26  1  0  0  0  0
 24 44  1  0  0  0  0
 25 26  2  0  0  0  0
 25 45  1  0  0  0  0
 26 46  1  0  0  0  0
 27 47  1  0  0  0  0
 27 48  1  0  0  0  0
 27 49  1  0  0  0  0
M  END
> <PUBCHEM_COMPOUND_CID>
136267814

> <PUBCHEM_CONFORMER_RMSD>
0.8

> <PUBCHEM_CONFORMER_DIVERSEORDER>
1
14
20
12
22
16
3
8
9
10
15
19
4
13
18
17
6
2
7
5
21
11

> <PUBCHEM_MMFF94_PARTIAL_CHARGES>
32
1 1.2
10 0.37
11 0.37
12 0.37
13 0.37
14 0.1
15 0.56
16 -0.01
17 0.03
18 -0.12
19 0.14
2 -0.46
20 -0.15
21 0.62
22 0.37
23 0.23
24 -0.15
25 -0.15
26 -0.15
27 0.11
3 -0.57
36 0.37
39 0.15
4 -0.65
44 0.15
45 0.15
46 0.15
5 -0.65
6 -0.84
7 -0.79
8 -0.49
9 -0.62

> <PUBCHEM_EFFECTIVE_ROTOR_COUNT>
5

> <PUBCHEM_PHARMACOPHORE_FEATURES>
9
1 3 acceptor
1 4 acceptor
1 5 acceptor
1 6 cation
1 8 donor
6 14 16 20 24 25 26 rings
6 2 17 18 19 22 23 rings
6 6 7 10 11 12 13 rings
6 8 9 15 17 18 21 rings

> <PUBCHEM_HEAVY_ATOM_COUNT>
27

> <PUBCHEM_ATOM_DEF_STEREO_COUNT>
0

> <PUBCHEM_ATOM_UDEF_STEREO_COUNT>
0

> <PUBCHEM_BOND_DEF_STEREO_COUNT>
0

> <PUBCHEM_BOND_UDEF_STEREO_COUNT>
0

> <PUBCHEM_ISOTOPIC_ATOM_COUNT>
0

> <PUBCHEM_COMPONENT_COUNT>
1

> <PUBCHEM_CACTVS_TAUTO_COUNT>
-1

> <PUBCHEM_CONFORMER_ID>
081F482600000001

> <PUBCHEM_MMFF94_ENERGY>
81.4637

> <PUBCHEM_FEATURE_SELFOVERLAP>
45.71

> <PUBCHEM_SHAPE_FINGERPRINT>
10411042 1 17825660064208500818
10554248 39 18200026227796512933
10595046 47 18343586247982864637
10912923 1 18342178851466102633
11059845 2 17053868781216179962
11963148 33 17489297625135737591
12107183 9 17836654015388963610
12166972 35 18060138760249895377
12236239 1 18409167697464362073
12403259 415 15482670178032762394
12596602 18 18260552238229064603
12670546 56 18408039598328769336
12730499 353 17240481416639744730
13533116 47 18408036299714751930
13782708 43 15769769204539224231
13914758 101 17968090873094371725
14251764 18 18412823586327067658
14294032 229 17630908031666716449
15081414 286 17458068183418054308
15183329 4 18202846565273729925
15250474 111 18271800224743498015
1577012 14 18413394215914376273
16990350 14 15688755796046076761
17844677 252 17894911776357303269
17857418 61 18343860009335520243
18335252 98 18115315600333910939
18681886 176 17346319345173137192
19377110 9 18130516270945959443
20157964 124 18187083970619524054
20511986 3 18341040895781537812
20612939 158 18187081750248194930
21033648 29 15864068776066086997
21033650 10 17701291107321726816
21267235 1 17560519629786987703
21344244 78 18338782435285992808
220451 1 18131071541466206759
22061861 79 17386003949175939755
23081809 10 18343021090785349497
23522609 53 18129405781350724449
23557571 272 16558482928332245049
23559900 14 17060331976957694585
23569914 152 16306778152140605919
3004659 81 18272092669461795190
335352 9 18187089456305799294
34797466 226 18040714770779861295
3633792 109 18113609063618603511
394071 54 17749396987679200660
397830 11 14260771975757743231
4073 2 17604436317768340642
4325135 7 18060142050648030901
4340502 62 17821731663047647258
504579 68 18410863169889909924
5385378 56 14201943589993674761
59755656 215 16056886831678398719
59755656 520 18259982704618753523
8272917 22 18335990809480103110
8988823 20 17967811635468489966

> <PUBCHEM_SHAPE_MULTIPOLES>
525.81
18.37
2.09
1.56
14.08
0.26
0.13
-0.88
-2.75
-3.19
0.05
0.59
-0.06
-3.46

> <PUBCHEM_SHAPE_SELFOVERLAP>
1104.353

> <PUBCHEM_SHAPE_VOLUME>
297

> <PUBCHEM_COORDINATE_TYPE>
2
5
10

$$$$
