136240571
  -OEChem-03292013293D

 32 33  0     1  0  0  0  0  0999 V2000
    1.4961    0.8512    1.3710 S   0  0  0  0  0  0  0  0  0  0  0  0
   -0.9936    1.1033    0.4345 O   0  0  0  0  0  0  0  0  0  0  0  0
   -1.3315   -2.9977   -0.1593 O   0  0  0  0  0  0  0  0  0  0  0  0
   -1.5132   -0.6881   -1.7451 O   0  0  0  0  0  0  0  0  0  0  0  0
   -3.0331    2.8799   -0.0922 O   0  0  0  0  0  0  0  0  0  0  0  0
    0.8920   -1.2373   -0.0209 N   0  0  0  0  0  0  0  0  0  0  0  0
    3.0209   -0.2384   -0.5177 N   0  0  0  0  0  0  0  0  0  0  0  0
   -0.1739   -1.1727    0.9694 C   0  0  2  0  0  0  0  0  0  0  0  0
   -1.4990   -1.7233    0.4487 C   0  0  1  0  0  0  0  0  0  0  0  0
   -2.2131   -0.7677   -0.5041 C   0  0  1  0  0  0  0  0  0  0  0  0
   -0.2648    0.3111    1.3742 C   0  0  1  0  0  0  0  0  0  0  0  0
   -2.3058    0.6167    0.1455 C   0  0  2  0  0  0  0  0  0  0  0  0
   -2.9769    1.6360   -0.7673 C   0  0  0  0  0  0  0  0  0  0  0  0
    1.9029   -0.3240    0.1159 C   0  0  0  0  0  0  0  0  0  0  0  0
    3.8546    0.8901   -0.1245 C   0  0  0  0  0  0  0  0  0  0  0  0
    5.1383    0.8608   -0.9282 C   0  0  0  0  0  0  0  0  0  0  0  0
    0.1510   -1.7791    1.8255 H   0  0  0  0  0  0  0  0  0  0  0  0
   -2.1584   -1.8727    1.3140 H   0  0  0  0  0  0  0  0  0  0  0  0
   -3.2148   -1.1497   -0.7328 H   0  0  0  0  0  0  0  0  0  0  0  0
   -0.7015    0.4391    2.3701 H   0  0  0  0  0  0  0  0  0  0  0  0
   -2.8619    0.5662    1.0908 H   0  0  0  0  0  0  0  0  0  0  0  0
    0.9554   -2.0255   -0.6562 H   0  0  0  0  0  0  0  0  0  0  0  0
   -3.9943    1.3251   -1.0239 H   0  0  0  0  0  0  0  0  0  0  0  0
   -2.4013    1.7883   -1.6861 H   0  0  0  0  0  0  0  0  0  0  0  0
   -0.8761   -3.5704    0.4811 H   0  0  0  0  0  0  0  0  0  0  0  0
   -1.4309   -1.5935   -2.0903 H   0  0  0  0  0  0  0  0  0  0  0  0
   -3.4669    3.5119   -0.6905 H   0  0  0  0  0  0  0  0  0  0  0  0
    3.3691    1.8506   -0.3380 H   0  0  0  0  0  0  0  0  0  0  0  0
    4.1500    0.8359    0.9307 H   0  0  0  0  0  0  0  0  0  0  0  0
    5.6889   -0.0696   -0.7532 H   0  0  0  0  0  0  0  0  0  0  0  0
    4.9298    0.9263   -2.0014 H   0  0  0  0  0  0  0  0  0  0  0  0
    5.7853    1.6994   -0.6526 H   0  0  0  0  0  0  0  0  0  0  0  0
  1 11  1  0  0  0  0
  1 14  1  0  0  0  0
  2 11  1  0  0  0  0
  2 12  1  0  0  0  0
  3  9  1  0  0  0  0
  3 25  1  0  0  0  0
  4 10  1  0  0  0  0
  4 26  1  0  0  0  0
  5 13  1  0  0  0  0
  5 27  1  0  0  0  0
  6  8  1  0  0  0  0
  6 14  1  0  0  0  0
  6 22  1  0  0  0  0
  7 14  2  0  0  0  0
  7 15  1  0  0  0  0
  8  9  1  0  0  0  0
  8 11  1  0  0  0  0
  8 17  1  0  0  0  0
  9 10  1  0  0  0  0
  9 18  1  0  0  0  0
 10 12  1  0  0  0  0
 10 19  1  0  0  0  0
 11 20  1  0  0  0  0
 12 13  1  0  0  0  0
 12 21  1  0  0  0  0
 13 23  1  0  0  0  0
 13 24  1  0  0  0  0
 15 16  1  0  0  0  0
 15 28  1  0  0  0  0
 15 29  1  0  0  0  0
 16 30  1  0  0  0  0
 16 31  1  0  0  0  0
 16 32  1  0  0  0  0
M  END
> <PUBCHEM_COMPOUND_CID>
136240571

> <PUBCHEM_CONFORMER_RMSD>
0.6

> <PUBCHEM_CONFORMER_DIVERSEORDER>
2
64
95
119
134
81
110
133
84
83
98
75
60
53
124
85
13
31
16
137
100
111
88
11
126
19
12
25
80
106
28
131
99
66
46
30
23
108
91
10
114
118
48
62
138
18
140
58
129
87
113
39
1
47
123
103
22
73
34
102
9
67
117
116
24
130
121
21
57
122
29
61
65
38
101
55
54
17
59
41
135
63
70
4
68
127
14
3
56
8
45
139
128
107
35
125
120
33
36
27
136
69
26
104
6
86
49
5
94
115
32
37
44
112
43
40
78
77
76
42
90
15
50
105
74
72
92
93
82
96
79
52
89
132
97
109
20
7
51
71

> <PUBCHEM_MMFF94_PARTIAL_CHARGES>
19
1 -0.37
10 0.28
11 0.51
12 0.28
13 0.28
14 0.64
15 0.25
2 -0.56
22 0.4
25 0.4
26 0.4
27 0.4
3 -0.68
4 -0.68
5 -0.68
6 -0.82
7 -0.7
8 0.37
9 0.28

> <PUBCHEM_EFFECTIVE_ROTOR_COUNT>
3.2

> <PUBCHEM_PHARMACOPHORE_FEATURES>
11
1 2 acceptor
1 3 acceptor
1 3 donor
1 4 acceptor
1 4 donor
1 5 acceptor
1 5 donor
1 6 donor
3 6 7 14 cation
5 1 6 8 11 14 rings
6 2 8 9 10 11 12 rings

> <PUBCHEM_HEAVY_ATOM_COUNT>
16

> <PUBCHEM_ATOM_DEF_STEREO_COUNT>
0

> <PUBCHEM_ATOM_UDEF_STEREO_COUNT>
5

> <PUBCHEM_BOND_DEF_STEREO_COUNT>
0

> <PUBCHEM_BOND_UDEF_STEREO_COUNT>
0

> <PUBCHEM_ISOTOPIC_ATOM_COUNT>
0

> <PUBCHEM_COMPONENT_COUNT>
1

> <PUBCHEM_CACTVS_TAUTO_COUNT>
-1

> <PUBCHEM_CONFORMER_ID>
081EDDBB00000002

> <PUBCHEM_MMFF94_ENERGY>
43.8639

> <PUBCHEM_FEATURE_SELFOVERLAP>
56.002

> <PUBCHEM_SHAPE_FINGERPRINT>
11127187 94 17418374709452761860
11206711 2 18271518801173824226
11769659 78 10807636896587956729
12138202 97 18412825780797022990
12173636 292 18408319982088147647
12251169 10 10881399842119602544
12382932 28 10809607213193458918
12491281 212 18113056043228643752
12824470 246 12607399953775828356
13024252 1 17895198864993523683
13675066 3 11819265694708142156
14123255 52 18189614951650009741
14123260 362 17967822664844351060
14142880 1 17821728346984754829
15534591 1 17967535661869995592
15775835 57 18187081711298180964
16945 1 18266723835460644147
17134986 127 18047465626108640125
1741750 31 18336826403192596528
18186145 218 18270688541230502840
18534176 82 18342741853112209522
19765921 60 18335700481731673040
19837323 101 18408039598323442731
19868273 293 18410009927376107456
200 152 15769782347086310920
20361792 2 14549019909498208856
20645476 183 18335699416622065595
20645477 56 18410301319437689712
20653085 51 18187933824246088226
20671657 53 14907887271947006024
20820808 20 18122903127575140809
20871999 31 18272083911743877813
21524375 3 18117264879266314179
22802520 49 18129093601087532275
22926399 65 18410575076521849112
23557571 272 17904184181284078344
23559900 14 18202285789196044800
25 1 18270399369561621545
2748010 2 17842542209308959768
394222 165 17899413086909491465
4175511 318 18202007641885422468
430814 3 17968370126987265323
633830 44 17023193738710296232
81228 2 18123173856855030315

> <PUBCHEM_SHAPE_MULTIPOLES>
299.68
6.54
2.32
1.24
9.02
0.09
-0.06
-3.51
2.73
-2.67
0.15
0.09
-0.06
0.03

> <PUBCHEM_SHAPE_SELFOVERLAP>
600.619

> <PUBCHEM_SHAPE_VOLUME>
178.1

> <PUBCHEM_COORDINATE_TYPE>
2
5
10

$$$$
