136251857
  -OEChem-03292013293D

 53 56  0     0  0  0  0  0  0999 V2000
    3.1950   -1.4888   -1.8463 S   0  0  0  0  0  0  0  0  0  0  0  0
    7.9278    4.3766    0.6123 F   0  0  0  0  0  0  0  0  0  0  0  0
    4.3383   -2.3873   -1.9347 O   0  0  0  0  0  0  0  0  0  0  0  0
    2.4134   -1.2081   -3.0428 O   0  0  0  0  0  0  0  0  0  0  0  0
   -2.9689   -3.0277    2.3215 O   0  0  0  0  0  0  0  0  0  0  0  0
   -5.9385    3.2624    1.0712 O   0  0  0  0  0  0  0  0  0  0  0  0
   -7.7680    3.0128   -0.3034 O   0  0  0  0  0  0  0  0  0  0  0  0
   -0.6678   -3.3939    2.1373 N   0  0  0  0  0  0  0  0  0  0  0  0
    3.7136   -0.0067   -1.1725 N   0  0  0  0  0  0  0  0  0  0  0  0
   -2.4262   -1.3912   -0.2368 N   0  0  0  0  0  0  0  0  0  0  0  0
   -3.3647   -0.9523    0.4737 N   0  0  0  0  0  0  0  0  0  0  0  0
   -0.1334   -2.2483    0.2990 C   0  0  0  0  0  0  0  0  0  0  0  0
    2.1005   -2.0928   -0.6253 C   0  0  0  0  0  0  0  0  0  0  0  0
    0.3832   -3.0553    1.3149 C   0  0  0  0  0  0  0  0  0  0  0  0
    0.7430   -1.7581   -0.6895 C   0  0  0  0  0  0  0  0  0  0  0  0
   -1.5295   -2.1152    0.5404 C   0  0  0  0  0  0  0  0  0  0  0  0
    2.5880   -2.9005    0.4003 C   0  0  0  0  0  0  0  0  0  0  0  0
    1.7378   -3.3982    1.3919 C   0  0  0  0  0  0  0  0  0  0  0  0
   -1.8277   -2.8305    1.6774 C   0  0  0  0  0  0  0  0  0  0  0  0
    4.4088    0.0066    0.1225 C   0  0  0  0  0  0  0  0  0  0  0  0
    5.3478    1.1728    0.2525 C   0  0  0  0  0  0  0  0  0  0  0  0
    4.8920    2.3792    0.7846 C   0  0  0  0  0  0  0  0  0  0  0  0
    6.6752    1.0490   -0.1580 C   0  0  0  0  0  0  0  0  0  0  0  0
    5.7635    3.4615    0.9058 C   0  0  0  0  0  0  0  0  0  0  0  0
    7.5466    2.1315   -0.0371 C   0  0  0  0  0  0  0  0  0  0  0  0
    7.0907    3.3378    0.4950 C   0  0  0  0  0  0  0  0  0  0  0  0
   -4.2714   -0.2197   -0.3113 C   0  0  0  0  0  0  0  0  0  0  0  0
   -4.9894    0.8351    0.2523 C   0  0  0  0  0  0  0  0  0  0  0  0
   -4.4536   -0.5480   -1.6549 C   0  0  0  0  0  0  0  0  0  0  0  0
   -5.8895    1.5615   -0.5272 C   0  0  0  0  0  0  0  0  0  0  0  0
   -5.3536    0.1787   -2.4346 C   0  0  0  0  0  0  0  0  0  0  0  0
   -6.0717    1.2332   -1.8707 C   0  0  0  0  0  0  0  0  0  0  0  0
   -6.6381    2.6609    0.0609 C   0  0  0  0  0  0  0  0  0  0  0  0
   -6.5730    4.3629    1.7314 C   0  0  0  0  0  0  0  0  0  0  0  0
    0.3555   -1.1231   -1.4808 H   0  0  0  0  0  0  0  0  0  0  0  0
    3.6426   -3.1592    0.4543 H   0  0  0  0  0  0  0  0  0  0  0  0
    2.1183   -4.0261    2.1906 H   0  0  0  0  0  0  0  0  0  0  0  0
   -0.5914   -3.9746    2.9608 H   0  0  0  0  0  0  0  0  0  0  0  0
    3.1769    0.8393   -1.4020 H   0  0  0  0  0  0  0  0  0  0  0  0
    4.9752   -0.9205    0.2656 H   0  0  0  0  0  0  0  0  0  0  0  0
    3.6622    0.0480    0.9245 H   0  0  0  0  0  0  0  0  0  0  0  0
    3.8597    2.4888    1.1065 H   0  0  0  0  0  0  0  0  0  0  0  0
    7.0416    0.1150   -0.5758 H   0  0  0  0  0  0  0  0  0  0  0  0
   -2.7905   -3.5941    3.0926 H   0  0  0  0  0  0  0  0  0  0  0  0
    5.4090    4.4008    1.3197 H   0  0  0  0  0  0  0  0  0  0  0  0
    8.5800    2.0357   -0.3570 H   0  0  0  0  0  0  0  0  0  0  0  0
   -4.8415    1.0666    1.3047 H   0  0  0  0  0  0  0  0  0  0  0  0
   -3.9297   -1.3749   -2.1277 H   0  0  0  0  0  0  0  0  0  0  0  0
   -5.4986   -0.0791   -3.4796 H   0  0  0  0  0  0  0  0  0  0  0  0
   -6.7677    1.7902   -2.4927 H   0  0  0  0  0  0  0  0  0  0  0  0
   -7.5027    4.0333    2.2045 H   0  0  0  0  0  0  0  0  0  0  0  0
   -6.7669    5.1694    1.0181 H   0  0  0  0  0  0  0  0  0  0  0  0
   -5.8953    4.7323    2.5055 H   0  0  0  0  0  0  0  0  0  0  0  0
  1  3  2  0  0  0  0
  1  4  2  0  0  0  0
  1  9  1  0  0  0  0
  1 13  1  0  0  0  0
  2 26  1  0  0  0  0
  5 19  1  0  0  0  0
  5 44  1  0  0  0  0
  6 33  1  0  0  0  0
  6 34  1  0  0  0  0
  7 33  2  0  0  0  0
  8 14  1  0  0  0  0
  8 19  1  0  0  0  0
  8 38  1  0  0  0  0
  9 20  1  0  0  0  0
  9 39  1  0  0  0  0
 10 11  2  0  0  0  0
 10 16  1  0  0  0  0
 11 27  1  0  0  0  0
 12 14  2  0  0  0  0
 12 15  1  0  0  0  0
 12 16  1  0  0  0  0
 13 15  2  0  0  0  0
 13 17  1  0  0  0  0
 14 18  1  0  0  0  0
 15 35  1  0  0  0  0
 16 19  2  0  0  0  0
 17 18  2  0  0  0  0
 17 36  1  0  0  0  0
 18 37  1  0  0  0  0
 20 21  1  0  0  0  0
 20 40  1  0  0  0  0
 20 41  1  0  0  0  0
 21 22  2  0  0  0  0
 21 23  1  0  0  0  0
 22 24  1  0  0  0  0
 22 42  1  0  0  0  0
 23 25  2  0  0  0  0
 23 43  1  0  0  0  0
 24 26  2  0  0  0  0
 24 45  1  0  0  0  0
 25 26  1  0  0  0  0
 25 46  1  0  0  0  0
 27 28  1  0  0  0  0
 27 29  2  0  0  0  0
 28 30  2  0  0  0  0
 28 47  1  0  0  0  0
 29 31  1  0  0  0  0
 29 48  1  0  0  0  0
 30 32  1  0  0  0  0
 30 33  1  0  0  0  0
 31 32  2  0  0  0  0
 31 49  1  0  0  0  0
 32 50  1  0  0  0  0
 34 51  1  0  0  0  0
 34 52  1  0  0  0  0
 34 53  1  0  0  0  0
M  END
> <PUBCHEM_COMPOUND_CID>
136251857

> <PUBCHEM_CONFORMER_RMSD>
1.2

> <PUBCHEM_CONFORMER_DIVERSEORDER>
1
76
73
6
42
49
26
65
5
47
51
25
63
77
13
28
74
46
89
35
71
75
55
36
87
29
19
43
83
8
37
59
41
27
40
31
16
72
11
62
34
44
64
66
69
18
10
56
54
39
30
23
50
7
9
82
2
24
53
33
68
86
85
15
21
48
32
70
80
90
4
84
45
3
79
78
12
20
52
57
58
22
38
14
61
88
17
67
81
60

> <PUBCHEM_MMFF94_PARTIAL_CHARGES>
47
1 1.45
10 -0.12
11 -0.18
13 -0.01
14 -0.15
15 -0.15
16 0.12
17 -0.15
18 -0.15
19 -0.09
2 -0.19
20 0.5
21 -0.14
22 -0.15
23 -0.15
24 -0.15
25 -0.15
26 0.19
27 0.18
28 -0.15
29 -0.15
3 -0.65
30 0.09
31 -0.15
32 -0.15
33 0.63
34 0.28
35 0.15
36 0.15
37 0.15
38 0.27
39 0.42
4 -0.65
42 0.15
43 0.15
44 0.45
45 0.15
46 0.15
47 0.15
48 0.15
49 0.15
5 -0.51
50 0.15
6 -0.43
7 -0.57
8 0.03
9 -0.91

> <PUBCHEM_EFFECTIVE_ROTOR_COUNT>
8

> <PUBCHEM_PHARMACOPHORE_FEATURES>
11
1 3 acceptor
1 4 acceptor
1 5 donor
1 7 acceptor
1 8 cation
1 8 donor
1 9 donor
5 8 12 14 16 19 rings
6 12 13 14 15 17 18 rings
6 21 22 23 24 25 26 rings
6 27 28 29 30 31 32 rings

> <PUBCHEM_HEAVY_ATOM_COUNT>
34

> <PUBCHEM_ATOM_DEF_STEREO_COUNT>
0

> <PUBCHEM_ATOM_UDEF_STEREO_COUNT>
0

> <PUBCHEM_BOND_DEF_STEREO_COUNT>
0

> <PUBCHEM_BOND_UDEF_STEREO_COUNT>
0

> <PUBCHEM_ISOTOPIC_ATOM_COUNT>
0

> <PUBCHEM_COMPONENT_COUNT>
1

> <PUBCHEM_CACTVS_TAUTO_COUNT>
-1

> <PUBCHEM_CONFORMER_ID>
081F09D100000001

> <PUBCHEM_MMFF94_ENERGY>
70.9722

> <PUBCHEM_FEATURE_SELFOVERLAP>
55.974

> <PUBCHEM_SHAPE_FINGERPRINT>
10675989 125 18336545989357677346
10985338 1 17703799094052099846
11135609 201 18334859407809942419
11227688 84 10735611145479837369
11374522 165 18341884247460541088
11720765 8 17980204080580940566
12422481 6 16515952714573533030
12975358 362 18191046644691770624
13103583 49 15430588593560016370
14904525 67 18267587893351619361
15082195 135 17489585619681950026
15289351 153 18410565189892067370
15530120 55 17417798539922476117
15950262 2 18201440250967589453
16096371 109 17605542259046730739
16989378 47 13686294699169749250
17899979 129 18272092638906459286
19246450 95 15214114458769798990
19304671 126 18271532991708840909
19438510 23 18408039611002720307
21033648 29 17967542258992925439
21867126 195 8935010252797429048
21968339 14 17846777400015433926
2748736 6 18410001156979341160
2838139 119 18272649099633690774
3862424 121 12318879448430989373
3918712 181 18335694997665980441
393628 179 18057871640889518504
393628 194 18337109080708279908
4112364 45 17677036963070628467
5104073 3 17676210135165379211
513202 73 10447931676683677867
5951187 136 18199192788997266646

> <PUBCHEM_SHAPE_MULTIPOLES>
647.01
22.76
6.09
2.13
1.01
3.2
-0.75
38.54
-1.31
1.96
4.03
-1.64
-1.32
1.47

> <PUBCHEM_SHAPE_SELFOVERLAP>
1406.348

> <PUBCHEM_SHAPE_VOLUME>
358.3

> <PUBCHEM_COORDINATE_TYPE>
2
5
10

$$$$
