136248652
  -OEChem-03292013293D

 31 33  0     1  0  0  0  0  0999 V2000
    1.7779    0.3723   -1.0918 O   0  0  0  0  0  0  0  0  0  0  0  0
    3.5198    2.2830    0.5474 O   0  0  0  0  0  0  0  0  0  0  0  0
    4.8583   -1.4429   -0.5612 O   0  0  0  0  0  0  0  0  0  0  0  0
    0.6905   -2.1719    0.5087 O   0  0  0  0  0  0  0  0  0  0  0  0
   -4.5718   -1.3473    0.0964 O   0  0  0  0  0  0  0  0  0  0  0  0
   -0.2098    0.0049    0.0868 N   0  0  0  0  0  0  0  0  0  0  0  0
   -1.6350   -1.7300    0.3135 N   0  0  0  0  0  0  0  0  0  0  0  0
   -1.8836    1.7525   -0.3010 N   0  0  0  0  0  0  0  0  0  0  0  0
   -4.1190    0.9103   -0.2698 N   0  0  0  0  0  0  0  0  0  0  0  0
    0.9695    0.8163    0.0069 C   0  0  1  0  0  0  0  0  0  0  0  0
    1.8256    0.7369    1.2604 C   0  0  0  0  0  0  0  0  0  0  0  0
    3.2244    0.8977    0.7116 C   0  0  1  0  0  0  0  0  0  0  0  0
    3.1406    0.2209   -0.6495 C   0  0  1  0  0  0  0  0  0  0  0  0
    3.4510   -1.2691   -0.5907 C   0  0  0  0  0  0  0  0  0  0  0  0
   -1.5073    0.4612   -0.0584 C   0  0  0  0  0  0  0  0  0  0  0  0
   -0.2452   -1.4076    0.3288 C   0  0  0  0  0  0  0  0  0  0  0  0
   -2.3337   -0.5835    0.0798 C   0  0  0  0  0  0  0  0  0  0  0  0
   -3.7841   -0.4186   -0.0232 C   0  0  0  0  0  0  0  0  0  0  0  0
   -3.1679    1.9148   -0.3948 C   0  0  0  0  0  0  0  0  0  0  0  0
    0.7005    1.8588   -0.1988 H   0  0  0  0  0  0  0  0  0  0  0  0
    1.7380   -0.2298    1.7660 H   0  0  0  0  0  0  0  0  0  0  0  0
    1.5447    1.5123    1.9807 H   0  0  0  0  0  0  0  0  0  0  0  0
    3.9884    0.4747    1.3707 H   0  0  0  0  0  0  0  0  0  0  0  0
    3.7876    0.7132   -1.3843 H   0  0  0  0  0  0  0  0  0  0  0  0
    3.0514   -1.7867   -1.4691 H   0  0  0  0  0  0  0  0  0  0  0  0
    3.0384   -1.7416    0.3027 H   0  0  0  0  0  0  0  0  0  0  0  0
    4.4068    2.3461    0.1537 H   0  0  0  0  0  0  0  0  0  0  0  0
   -2.0436   -2.6460    0.4507 H   0  0  0  0  0  0  0  0  0  0  0  0
    5.0283   -2.3998   -0.5321 H   0  0  0  0  0  0  0  0  0  0  0  0
   -5.1014    1.1518   -0.3619 H   0  0  0  0  0  0  0  0  0  0  0  0
   -3.6103    2.9040   -0.5885 H   0  0  0  0  0  0  0  0  0  0  0  0
  1 10  1  0  0  0  0
  1 13  1  0  0  0  0
  2 12  1  0  0  0  0
  2 27  1  0  0  0  0
  3 14  1  0  0  0  0
  3 29  1  0  0  0  0
  4 16  2  0  0  0  0
  5 18  2  0  0  0  0
  6 10  1  0  0  0  0
  6 15  1  0  0  0  0
  6 16  1  0  0  0  0
  7 16  1  0  0  0  0
  7 17  1  0  0  0  0
  7 28  1  0  0  0  0
  8 15  1  0  0  0  0
  8 19  2  0  0  0  0
  9 18  1  0  0  0  0
  9 19  1  0  0  0  0
  9 30  1  0  0  0  0
 10 11  1  0  0  0  0
 10 20  1  0  0  0  0
 11 12  1  0  0  0  0
 11 21  1  0  0  0  0
 11 22  1  0  0  0  0
 12 13  1  0  0  0  0
 12 23  1  0  0  0  0
 13 14  1  0  0  0  0
 13 24  1  0  0  0  0
 14 25  1  0  0  0  0
 14 26  1  0  0  0  0
 15 17  2  0  0  0  0
 17 18  1  0  0  0  0
 19 31  1  0  0  0  0
M  END
> <PUBCHEM_COMPOUND_CID>
136248652

> <PUBCHEM_CONFORMER_RMSD>
0.6

> <PUBCHEM_CONFORMER_DIVERSEORDER>
1
5
16
12
3
9
15
13
17
6
14
2
4
11
7
8
10

> <PUBCHEM_MMFF94_PARTIAL_CHARGES>
23
1 -0.56
10 0.58
12 0.28
13 0.28
14 0.28
15 0.28
16 0.69
17 0.12
18 0.62
19 0.45
2 -0.68
27 0.4
28 0.37
29 0.4
3 -0.68
30 0.37
31 0.06
4 -0.57
5 -0.57
6 -0.47
7 -0.54
8 -0.62
9 -0.49

> <PUBCHEM_EFFECTIVE_ROTOR_COUNT>
3

> <PUBCHEM_PHARMACOPHORE_FEATURES>
12
1 1 acceptor
1 2 acceptor
1 2 donor
1 3 acceptor
1 3 donor
1 4 acceptor
1 5 acceptor
1 7 donor
1 9 donor
5 1 10 11 12 13 rings
5 6 7 15 16 17 rings
6 8 9 15 17 18 19 rings

> <PUBCHEM_HEAVY_ATOM_COUNT>
19

> <PUBCHEM_ATOM_DEF_STEREO_COUNT>
3

> <PUBCHEM_ATOM_UDEF_STEREO_COUNT>
0

> <PUBCHEM_BOND_DEF_STEREO_COUNT>
0

> <PUBCHEM_BOND_UDEF_STEREO_COUNT>
0

> <PUBCHEM_ISOTOPIC_ATOM_COUNT>
0

> <PUBCHEM_COMPONENT_COUNT>
1

> <PUBCHEM_CACTVS_TAUTO_COUNT>
-1

> <PUBCHEM_CONFORMER_ID>
081EFD4C00000001

> <PUBCHEM_MMFF94_ENERGY>
61.134

> <PUBCHEM_FEATURE_SELFOVERLAP>
61.018

> <PUBCHEM_SHAPE_FINGERPRINT>
10498660 4 18261384538429973197
10608611 8 18412259558078632600
10646746 165 18410007715262442380
1100329 8 16826716185608345096
11132069 177 18259981587468002317
12032990 46 18337396036547672875
12236239 1 17240475940377243384
12403259 226 18411696582297411185
12403259 415 18408602548145216101
12507560 40 18342172284941304104
12788726 201 16738068563225525178
13134695 92 17131540657856438128
13140716 1 18118399545586361163
14866123 147 16976471907274539442
15196674 1 18410012134725494877
15219456 202 18272649064999626064
15536298 74 18412823586100318354
16945 1 18334293214760358835
17804303 29 18409732824744682318
18186145 218 18273221875976445544
200 152 17275102812451391959
20510252 161 18412544340507319593
20645477 56 18337105773667246872
20645477 70 17846224362529774174
21267235 1 18336275578296069299
21501502 16 18190174594984671003
23402539 116 18339630252380204629
23493267 7 17531253837699245227
23559900 14 18342175575144735184
3004659 81 18116160970431492334
3286 77 18059858367609704316
350125 39 18264210201845790953
43471831 8 18187075144594139043
474 4 16372425902857931708
495365 180 17775273989722912546
4990 188 18271529710427789982
5104073 3 18410857659409952585
59755656 215 18262799549944330655
633830 44 18341041956675259797
69090 78 18130785702364977623
7364860 26 18196086642852686483
77492 1 17167856499781019552
9709674 26 18338799030221842234

> <PUBCHEM_SHAPE_MULTIPOLES>
341.74
8.37
2.09
0.86
0.26
0.02
-0.05
-0.23
0.99
-0.15
-0.14
-0.56
0.09
0.96

> <PUBCHEM_SHAPE_SELFOVERLAP>
744.13

> <PUBCHEM_SHAPE_VOLUME>
182.3

> <PUBCHEM_COORDINATE_TYPE>
2
5
10

$$$$
