136247480
  -OEChem-03292013293D

 33 35  0     1  0  0  0  0  0999 V2000
    2.2305    0.3588    0.9973 O   0  0  0  0  0  0  0  0  0  0  0  0
    2.9015    1.5717   -1.6567 O   0  0  0  0  0  0  0  0  0  0  0  0
    4.5424   -0.7686    2.1661 O   0  0  0  0  0  0  0  0  0  0  0  0
   -4.3944    1.7067    0.1877 O   0  0  0  0  0  0  0  0  0  0  0  0
   -0.0616    0.4255    0.2139 N   0  0  0  0  0  0  0  0  0  0  0  0
   -1.4612    2.1690    0.2719 N   0  0  0  0  0  0  0  0  0  0  0  0
   -1.6391   -1.4063    0.0899 N   0  0  0  0  0  0  0  0  0  0  0  0
   -3.8842   -0.5699    0.0849 N   0  0  0  0  0  0  0  0  0  0  0  0
   -3.4626   -2.8837   -0.0220 N   0  0  0  0  0  0  0  0  0  0  0  0
    1.2430   -0.3369    0.2025 C   0  0  1  0  0  0  0  0  0  0  0  0
    3.4949    0.3011    0.3043 C   0  0  2  0  0  0  0  0  0  0  0  0
    3.1481    0.2544   -1.1791 C   0  0  1  0  0  0  0  0  0  0  0  0
    1.8585   -0.4914   -1.1570 C   0  0  0  0  0  0  0  0  0  0  0  0
    4.2664   -0.9239    0.7861 C   0  0  0  0  0  0  0  0  0  0  0  0
   -1.3212   -0.0948    0.1618 C   0  0  0  0  0  0  0  0  0  0  0  0
   -0.1980    1.7907    0.2791 C   0  0  0  0  0  0  0  0  0  0  0  0
    1.4038   -1.2752   -2.1411 C   0  0  0  0  0  0  0  0  0  0  0  0
   -2.1544    0.9970    0.1990 C   0  0  0  0  0  0  0  0  0  0  0  0
   -3.5765    0.7959    0.1594 C   0  0  0  0  0  0  0  0  0  0  0  0
   -2.9364   -1.6201    0.0523 C   0  0  0  0  0  0  0  0  0  0  0  0
    1.0421   -1.3011    0.6827 H   0  0  0  0  0  0  0  0  0  0  0  0
    4.0407    1.2125    0.5737 H   0  0  0  0  0  0  0  0  0  0  0  0
    3.9260   -0.2074   -1.7943 H   0  0  0  0  0  0  0  0  0  0  0  0
    5.2148   -1.0209    0.2484 H   0  0  0  0  0  0  0  0  0  0  0  0
    3.6880   -1.8453    0.6648 H   0  0  0  0  0  0  0  0  0  0  0  0
    0.6529    2.4566    0.3263 H   0  0  0  0  0  0  0  0  0  0  0  0
    0.4834   -1.8377   -2.0319 H   0  0  0  0  0  0  0  0  0  0  0  0
    1.9460   -1.3693   -3.0758 H   0  0  0  0  0  0  0  0  0  0  0  0
    3.7334    2.0695   -1.5803 H   0  0  0  0  0  0  0  0  0  0  0  0
    5.0404   -1.5543    2.4495 H   0  0  0  0  0  0  0  0  0  0  0  0
   -4.8669   -0.8254    0.0517 H   0  0  0  0  0  0  0  0  0  0  0  0
   -2.8629   -3.7011   -0.0507 H   0  0  0  0  0  0  0  0  0  0  0  0
   -4.4643   -3.0388   -0.0507 H   0  0  0  0  0  0  0  0  0  0  0  0
  1 10  1  0  0  0  0
  1 11  1  0  0  0  0
  2 12  1  0  0  0  0
  2 29  1  0  0  0  0
  3 14  1  0  0  0  0
  3 30  1  0  0  0  0
  4 19  2  0  0  0  0
  5 10  1  0  0  0  0
  5 15  1  0  0  0  0
  5 16  1  0  0  0  0
  6 16  2  0  0  0  0
  6 18  1  0  0  0  0
  7 15  1  0  0  0  0
  7 20  2  0  0  0  0
  8 19  1  0  0  0  0
  8 20  1  0  0  0  0
  8 31  1  0  0  0  0
  9 20  1  0  0  0  0
  9 32  1  0  0  0  0
  9 33  1  0  0  0  0
 10 13  1  0  0  0  0
 10 21  1  0  0  0  0
 11 12  1  0  0  0  0
 11 14  1  0  0  0  0
 11 22  1  0  0  0  0
 12 13  1  0  0  0  0
 12 23  1  0  0  0  0
 13 17  2  0  0  0  0
 14 24  1  0  0  0  0
 14 25  1  0  0  0  0
 15 18  2  0  0  0  0
 16 26  1  0  0  0  0
 17 27  1  0  0  0  0
 17 28  1  0  0  0  0
 18 19  1  0  0  0  0
M  END
> <PUBCHEM_COMPOUND_CID>
136247480

> <PUBCHEM_CONFORMER_RMSD>
0.6

> <PUBCHEM_CONFORMER_DIVERSEORDER>
1
14
79
54
31
21
63
10
28
6
81
68
50
77
26
5
33
20
62
12
23
59
44
32
11
52
7
71
57
27
74
56
13
24
65
15
45
61
49
51
18
9
30
2
19
38
78
4
39
64
72
3
25
42
47
29
70
66
48
17
80
34
8
16
46
22
35
67
75
69
43
60
55
40
53
41
73
37
76
58
36

> <PUBCHEM_MMFF94_PARTIAL_CHARGES>
28
1 -0.56
10 0.67
11 0.28
12 0.42
13 -0.28
14 0.28
15 -0.03
16 0.04
17 -0.3
18 0.14
19 0.72
2 -0.68
20 0.56
26 0.15
27 0.15
28 0.15
29 0.4
3 -0.68
30 0.4
31 0.37
32 0.4
33 0.4
4 -0.57
5 0.05
6 -0.57
7 -0.58
8 -0.49
9 -0.85

> <PUBCHEM_EFFECTIVE_ROTOR_COUNT>
2.8

> <PUBCHEM_PHARMACOPHORE_FEATURES>
12
1 1 acceptor
1 2 acceptor
1 2 donor
1 3 acceptor
1 3 donor
1 4 acceptor
1 8 donor
1 9 donor
3 5 6 16 cation
5 1 10 11 12 13 rings
5 5 6 15 16 18 rings
6 7 8 15 18 19 20 rings

> <PUBCHEM_HEAVY_ATOM_COUNT>
20

> <PUBCHEM_ATOM_DEF_STEREO_COUNT>
0

> <PUBCHEM_ATOM_UDEF_STEREO_COUNT>
3

> <PUBCHEM_BOND_DEF_STEREO_COUNT>
0

> <PUBCHEM_BOND_UDEF_STEREO_COUNT>
0

> <PUBCHEM_ISOTOPIC_ATOM_COUNT>
0

> <PUBCHEM_COMPONENT_COUNT>
1

> <PUBCHEM_CACTVS_TAUTO_COUNT>
-1

> <PUBCHEM_CONFORMER_ID>
081EF8B800000001

> <PUBCHEM_MMFF94_ENERGY>
43.3825

> <PUBCHEM_FEATURE_SELFOVERLAP>
61.08

> <PUBCHEM_SHAPE_FINGERPRINT>
10062212 137 18187361038960016531
11132069 177 18272091569633500241
12236239 1 17749109971888365376
12553582 1 18055361489917882543
12892183 10 18269253739382246954
13140716 1 18270962452991598545
13214271 11 18131063848799809181
13544592 145 17915474804444585855
13583140 156 18123717973524395816
14115302 16 18335143063754326068
14178342 30 18060149708057651019
15099037 37 18272364308462250899
15219456 202 17775289322128528623
15375358 24 17989485195452574989
16945 1 18270974465772440961
17492 89 18334018306583773146
17980427 23 18411691115136541668
18186145 218 14345794958959315225
19026448 5 18040437719534920062
19049666 15 17487346936524462496
200 152 16877939429900531904
20279233 1 17775567520118928407
204376 136 16415183616575464010
20600515 1 18341608196426372040
20645477 70 15984544386524456068
21069387 34 16950282931464085234
21728266 224 18336250314939848875
23175994 123 13984663607664328686
23366157 5 17971754629767873453
23402539 116 18340758265257904524
23557571 272 18202291285620079358
23559900 14 18199762362122340662
2748010 2 18128248090016347673
2838139 119 14259970264662408363
474 4 17097510931737827268
495365 180 16844440523353688055
5104073 3 18411419544042893881
568465 68 17346316046068359994
57100710 210 18114451301919771590
573450 72 18334287669446084939
5902787 121 18339360871968037449
633830 44 13695583373475229431
67856867 119 18188208814455593820
7097593 13 18117831114975589002
7615 1 18040438810556963620
77492 1 17749113300382544078
81228 2 17915478106963856521
9709674 26 18131076991436788423
9981440 41 17246688353116177408

> <PUBCHEM_SHAPE_MULTIPOLES>
363.21
8.36
2.08
1.38
0.32
0.42
0.24
1.01
-2.11
-2.31
0.14
2.27
0.3
-0.33

> <PUBCHEM_SHAPE_SELFOVERLAP>
790.773

> <PUBCHEM_SHAPE_VOLUME>
197.6

> <PUBCHEM_COORDINATE_TYPE>
2
5
10

$$$$
