136237316
  -OEChem-03292013293D

 70 74  0     0  0  0  0  0  0999 V2000
   -0.6075   -1.6318    1.2383 O   0  0  0  0  0  0  0  0  0  0  0  0
    4.5150    2.7589    1.0785 O   0  0  0  0  0  0  0  0  0  0  0  0
   -7.2157    2.6888    1.5091 O   0  0  0  0  0  0  0  0  0  0  0  0
   -4.5179    3.0904   -1.7727 O   0  0  0  0  0  0  0  0  0  0  0  0
    9.4055   -1.0398   -0.3117 O   0  0  0  0  0  0  0  0  0  0  0  0
   -2.4721   -1.8290   -0.1742 N   0  0  0  0  0  0  0  0  0  0  0  0
    0.5839    0.3022   -0.1492 N   0  0  0  0  0  0  0  0  0  0  0  0
   -3.9207    0.8765   -1.5188 N   0  0  0  0  0  0  0  0  0  0  0  0
   -5.0005   -0.5218    0.0497 N   0  0  0  0  0  0  0  0  0  0  0  0
   -2.5810   -4.2392    0.2169 C   0  0  0  0  0  0  0  0  0  0  0  0
   -3.3607   -5.0033   -0.8172 C   0  0  0  0  0  0  0  0  0  0  0  0
   -3.3447   -5.4731    0.6106 C   0  0  0  0  0  0  0  0  0  0  0  0
   -3.0443   -2.8949    0.6648 C   0  0  0  0  0  0  0  0  0  0  0  0
    3.3319    1.2798   -0.3543 C   0  0  0  0  0  0  0  0  0  0  0  0
   -1.2295   -1.2761    0.2334 C   0  0  0  0  0  0  0  0  0  0  0  0
   -0.6925   -0.1823   -0.6746 C   0  0  0  0  0  0  0  0  0  0  0  0
    1.6722   -0.6139   -0.5174 C   0  0  0  0  0  0  0  0  0  0  0  0
    0.8529    1.6650   -0.6284 C   0  0  0  0  0  0  0  0  0  0  0  0
    3.0056   -0.1503    0.0716 C   0  0  0  0  0  0  0  0  0  0  0  0
    2.1583    2.2076   -0.0444 C   0  0  0  0  0  0  0  0  0  0  0  0
   -3.2296   -1.4535   -1.3251 C   0  0  0  0  0  0  0  0  0  0  0  0
    4.5570    1.7653    0.3566 C   0  0  0  0  0  0  0  0  0  0  0  0
   -4.1184   -0.3284   -0.8799 C   0  0  0  0  0  0  0  0  0  0  0  0
    5.8384    1.0252    0.1798 C   0  0  0  0  0  0  0  0  0  0  0  0
   -5.7708    0.5643    0.3956 C   0  0  0  0  0  0  0  0  0  0  0  0
   -5.6725    1.7906   -0.1510 C   0  0  0  0  0  0  0  0  0  0  0  0
   -4.6607    2.0042   -1.2204 C   0  0  0  0  0  0  0  0  0  0  0  0
   -6.8022    0.3132    1.4658 C   0  0  0  0  0  0  0  0  0  0  0  0
    6.7803    1.0058    1.2084 C   0  0  0  0  0  0  0  0  0  0  0  0
    6.0952    0.3509   -1.0140 C   0  0  0  0  0  0  0  0  0  0  0  0
   -6.5287    2.9460    0.2783 C   0  0  0  0  0  0  0  0  0  0  0  0
   -7.8581    1.4148    1.5016 C   0  0  0  0  0  0  0  0  0  0  0  0
    7.9790    0.3118    1.0434 C   0  0  0  0  0  0  0  0  0  0  0  0
    7.2938   -0.3430   -1.1791 C   0  0  0  0  0  0  0  0  0  0  0  0
    8.2356   -0.3625   -0.1503 C   0  0  0  0  0  0  0  0  0  0  0  0
   10.3235   -1.0185    0.7803 C   0  0  0  0  0  0  0  0  0  0  0  0
   -1.5000   -4.3223    0.1994 H   0  0  0  0  0  0  0  0  0  0  0  0
   -4.2895   -4.5914   -1.1913 H   0  0  0  0  0  0  0  0  0  0  0  0
   -2.8012   -5.5789   -1.5444 H   0  0  0  0  0  0  0  0  0  0  0  0
   -2.7765   -6.3660    0.8408 H   0  0  0  0  0  0  0  0  0  0  0  0
   -4.2531   -5.3576    1.1890 H   0  0  0  0  0  0  0  0  0  0  0  0
   -2.7235   -2.7432    1.7017 H   0  0  0  0  0  0  0  0  0  0  0  0
   -4.1371   -2.8269    0.6611 H   0  0  0  0  0  0  0  0  0  0  0  0
    3.5025    1.3269   -1.4363 H   0  0  0  0  0  0  0  0  0  0  0  0
    1.4800   -1.6277   -0.1490 H   0  0  0  0  0  0  0  0  0  0  0  0
    0.8985    1.6910   -1.7252 H   0  0  0  0  0  0  0  0  0  0  0  0
    1.7668   -0.6859   -1.6095 H   0  0  0  0  0  0  0  0  0  0  0  0
    0.0424    2.3370   -0.3201 H   0  0  0  0  0  0  0  0  0  0  0  0
    2.9624   -0.2158    1.1676 H   0  0  0  0  0  0  0  0  0  0  0  0
    3.7827   -0.8538   -0.2448 H   0  0  0  0  0  0  0  0  0  0  0  0
    2.3479    3.2097   -0.4493 H   0  0  0  0  0  0  0  0  0  0  0  0
    2.0345    2.3263    1.0409 H   0  0  0  0  0  0  0  0  0  0  0  0
   -0.5934   -0.5365   -1.7057 H   0  0  0  0  0  0  0  0  0  0  0  0
   -1.4258    0.6290   -0.6467 H   0  0  0  0  0  0  0  0  0  0  0  0
   -2.5831   -1.1473   -2.1494 H   0  0  0  0  0  0  0  0  0  0  0  0
   -3.8475   -2.2858   -1.6738 H   0  0  0  0  0  0  0  0  0  0  0  0
   -3.2125    0.9527   -2.2432 H   0  0  0  0  0  0  0  0  0  0  0  0
   -7.2956   -0.6529    1.3102 H   0  0  0  0  0  0  0  0  0  0  0  0
   -6.2835    0.2712    2.4316 H   0  0  0  0  0  0  0  0  0  0  0  0
    6.5937    1.5223    2.1464 H   0  0  0  0  0  0  0  0  0  0  0  0
    5.3958    0.3572   -1.8437 H   0  0  0  0  0  0  0  0  0  0  0  0
   -5.9143    3.8374    0.4412 H   0  0  0  0  0  0  0  0  0  0  0  0
   -7.2677    3.1822   -0.4957 H   0  0  0  0  0  0  0  0  0  0  0  0
   -8.5438    1.3502    0.6476 H   0  0  0  0  0  0  0  0  0  0  0  0
   -8.4563    1.3296    2.4144 H   0  0  0  0  0  0  0  0  0  0  0  0
    8.6656    0.3369    1.8826 H   0  0  0  0  0  0  0  0  0  0  0  0
    7.4904   -0.8634   -2.1125 H   0  0  0  0  0  0  0  0  0  0  0  0
   11.1972   -1.6059    0.4795 H   0  0  0  0  0  0  0  0  0  0  0  0
   10.6775   -0.0031    0.9887 H   0  0  0  0  0  0  0  0  0  0  0  0
    9.9036   -1.5023    1.6687 H   0  0  0  0  0  0  0  0  0  0  0  0
  1 15  2  0  0  0  0
  2 22  2  0  0  0  0
  3 31  1  0  0  0  0
  3 32  1  0  0  0  0
  4 27  2  0  0  0  0
  5 35  1  0  0  0  0
  5 36  1  0  0  0  0
  6 13  1  0  0  0  0
  6 15  1  0  0  0  0
  6 21  1  0  0  0  0
  7 16  1  0  0  0  0
  7 17  1  0  0  0  0
  7 18  1  0  0  0  0
  8 23  1  0  0  0  0
  8 27  1  0  0  0  0
  8 57  1  0  0  0  0
  9 23  2  0  0  0  0
  9 25  1  0  0  0  0
 10 11  1  0  0  0  0
 10 12  1  0  0  0  0
 10 13  1  0  0  0  0
 10 37  1  0  0  0  0
 11 12  1  0  0  0  0
 11 38  1  0  0  0  0
 11 39  1  0  0  0  0
 12 40  1  0  0  0  0
 12 41  1  0  0  0  0
 13 42  1  0  0  0  0
 13 43  1  0  0  0  0
 14 19  1  0  0  0  0
 14 20  1  0  0  0  0
 14 22  1  0  0  0  0
 14 44  1  0  0  0  0
 15 16  1  0  0  0  0
 16 53  1  0  0  0  0
 16 54  1  0  0  0  0
 17 19  1  0  0  0  0
 17 45  1  0  0  0  0
 17 47  1  0  0  0  0
 18 20  1  0  0  0  0
 18 46  1  0  0  0  0
 18 48  1  0  0  0  0
 19 49  1  0  0  0  0
 19 50  1  0  0  0  0
 20 51  1  0  0  0  0
 20 52  1  0  0  0  0
 21 23  1  0  0  0  0
 21 55  1  0  0  0  0
 21 56  1  0  0  0  0
 22 24  1  0  0  0  0
 24 29  2  0  0  0  0
 24 30  1  0  0  0  0
 25 26  2  0  0  0  0
 25 28  1  0  0  0  0
 26 27  1  0  0  0  0
 26 31  1  0  0  0  0
 28 32  1  0  0  0  0
 28 58  1  0  0  0  0
 28 59  1  0  0  0  0
 29 33  1  0  0  0  0
 29 60  1  0  0  0  0
 30 34  2  0  0  0  0
 30 61  1  0  0  0  0
 31 62  1  0  0  0  0
 31 63  1  0  0  0  0
 32 64  1  0  0  0  0
 32 65  1  0  0  0  0
 33 35  2  0  0  0  0
 33 66  1  0  0  0  0
 34 35  1  0  0  0  0
 34 67  1  0  0  0  0
 36 68  1  0  0  0  0
 36 69  1  0  0  0  0
 36 70  1  0  0  0  0
M  END
> <PUBCHEM_COMPOUND_CID>
136237316

> <PUBCHEM_CONFORMER_RMSD>
1.4

> <PUBCHEM_CONFORMER_DIVERSEORDER>
1
80
123
58
22
88
87
147
64
77
105
15
62
96
25
26
36
145
65
138
11
104
126
33
53
131
70
119
78
143
129
82
99
93
132
60
23
101
137
16
3
154
55
151
92
10
141
24
20
127
107
134
102
38
125
30
19
49
21
50
142
91
74
95
114
118
94
59
152
89
75
116
139
120
76
48
81
112
110
34
115
66
144
109
73
100
51
12
9
7
133
71
18
113
40
2
57
44
135
146
45
79
31
136
54
63
56
106
86
128
32
72
97
117
35
4
149
41
61
85
155
124
150
68
121
52
14
37
13
17
122
84
29
43
83
46
111
5
42
6
90
140
108
47
67
153
98
8
103
27
148
69
28
39
130

> <PUBCHEM_MMFF94_PARTIAL_CHARGES>
44
1 -0.57
10 -0.19
11 -0.2
12 -0.2
13 0.4
14 0.06
15 0.57
16 0.33
17 0.27
18 0.27
2 -0.57
21 0.36
22 0.42
23 0.45
24 0.09
25 0.03
26 -0.12
27 0.62
28 0.14
29 -0.15
3 -0.56
30 -0.15
31 0.42
32 0.28
33 -0.15
34 -0.15
35 0.08
36 0.28
37 0.1
38 0.1
39 0.1
4 -0.57
40 0.1
41 0.1
5 -0.36
57 0.37
6 -0.66
60 0.15
61 0.15
66 0.15
67 0.15
7 -0.81
8 -0.49
9 -0.62

> <PUBCHEM_EFFECTIVE_ROTOR_COUNT>
12.6

> <PUBCHEM_PHARMACOPHORE_FEATURES>
11
1 1 acceptor
1 2 acceptor
1 3 acceptor
1 4 acceptor
1 5 acceptor
1 7 cation
1 8 donor
6 24 29 30 33 34 35 rings
6 3 25 26 28 31 32 rings
6 7 14 17 18 19 20 rings
6 8 9 23 25 26 27 rings

> <PUBCHEM_HEAVY_ATOM_COUNT>
36

> <PUBCHEM_ATOM_DEF_STEREO_COUNT>
0

> <PUBCHEM_ATOM_UDEF_STEREO_COUNT>
0

> <PUBCHEM_BOND_DEF_STEREO_COUNT>
0

> <PUBCHEM_BOND_UDEF_STEREO_COUNT>
0

> <PUBCHEM_ISOTOPIC_ATOM_COUNT>
0

> <PUBCHEM_COMPONENT_COUNT>
1

> <PUBCHEM_CACTVS_TAUTO_COUNT>
-1

> <PUBCHEM_CONFORMER_ID>
081ED10400000001

> <PUBCHEM_MMFF94_ENERGY>
99.6904

> <PUBCHEM_FEATURE_SELFOVERLAP>
55.851

> <PUBCHEM_SHAPE_FINGERPRINT>
10050765 1 18193278718179101020
10165383 225 18341335518681471425
10290309 65 18263641754655835093
10391435 84 10087630499048103428
10580692 12 18410011074448847610
10674148 151 18187363234506073616
11135926 11 18339634560227056678
11497681 19 11602829016211733433
12144603 126 18113626707834976700
13782708 43 18196371640430593066
14040221 275 18191613967891987067
14279260 333 17917430861295266556
14444916 359 17675926478345015778
1454969 45 9655571907639968176
14856354 85 16153715331805550993
150020 25 8646769984955219616
15183329 4 18187635917072597740
15230672 131 18334851702417560714
15347591 1 18195809785519635656
15439362 3 18199473169110913567
15890870 6 18411135793688823685
16112460 7 18271251491178864097
16992752 21 8934999270116887683
16993089 31 14129329642723433176
19311894 1 18336823221107438425
21130935 74 18267581493981619682
21756936 100 18413387644994072063
21814621 53 18059287790353431490
21927370 108 18042689597734787011
23522609 53 17750252446396290092
3504750 166 18194965373248175751
3610482 184 17605290651219413558
397638 26 18342455954577608090
4073 2 18339079397550547838
4144715 1 18195528314426176040
444769 64 18335138682977420064
5381727 24 18273215310005236271
57527306 92 16630261242891404243
6009941 240 18273216413136708578
6126387 218 17989481919241744008
6371009 1 12247679400700976890
6691757 9 18335416877174129863
6698420 124 18272941496807246081
9896288 288 18334300898974479219

> <PUBCHEM_SHAPE_MULTIPOLES>
691.59
28.22
4.86
1.34
50.31
7.72
0.01
-8.89
-7.3
-11.32
-0.25
-1.1
-0.4
0.07

> <PUBCHEM_SHAPE_SELFOVERLAP>
1473.286

> <PUBCHEM_SHAPE_VOLUME>
382.3

> <PUBCHEM_COORDINATE_TYPE>
2
5
10

$$$$
