136372377
  -OEChem-03292013293D

 38 41  0     0  0  0  0  0  0999 V2000
   -2.4838   -3.3539    0.0108 O   0  0  0  0  0  0  0  0  0  0  0  0
   -3.9690    2.0007   -0.0124 O   0  0  0  0  0  0  0  0  0  0  0  0
    0.0344    0.1856   -0.0077 N   0  0  0  0  0  0  0  0  0  0  0  0
    0.2798   -2.1899    0.0012 N   0  0  0  0  0  0  0  0  0  0  0  0
   -0.9213    2.3406   -0.0148 N   0  0  0  0  0  0  0  0  0  0  0  0
    2.4247   -1.1910   -0.0046 N   0  0  0  0  0  0  0  0  0  0  0  0
    0.9497    3.0506    1.1961 N   0  0  0  0  0  0  0  0  0  0  0  0
   -1.9064   -1.0275   -0.0007 C   0  0  0  0  0  0  0  0  0  0  0  0
   -2.2793    0.3050   -0.0061 C   0  0  0  0  0  0  0  0  0  0  0  0
   -0.4425   -1.0315   -0.0020 C   0  0  0  0  0  0  0  0  0  0  0  0
   -1.0378    1.0595   -0.0103 C   0  0  0  0  0  0  0  0  0  0  0  0
   -2.8362   -2.0461    0.0042 C   0  0  0  0  0  0  0  0  0  0  0  0
   -3.6008    0.6974   -0.0071 C   0  0  0  0  0  0  0  0  0  0  0  0
   -4.1841   -1.6750    0.0036 C   0  0  0  0  0  0  0  0  0  0  0  0
   -4.5627   -0.3167   -0.0021 C   0  0  0  0  0  0  0  0  0  0  0  0
    1.6722   -2.3141    0.0001 C   0  0  0  0  0  0  0  0  0  0  0  0
    0.3951    2.8377   -0.0182 C   0  0  0  0  0  0  0  0  0  0  0  0
    2.1942   -3.5976    0.0036 C   0  0  0  0  0  0  0  0  0  0  0  0
    3.5775   -3.7374    0.0025 C   0  0  0  0  0  0  0  0  0  0  0  0
    1.0422    3.0784   -1.2195 C   0  0  0  0  0  0  0  0  0  0  0  0
    3.7651   -1.3664   -0.0056 C   0  0  0  0  0  0  0  0  0  0  0  0
    4.3852   -2.6055   -0.0022 C   0  0  0  0  0  0  0  0  0  0  0  0
    2.3423    3.5690   -1.1713 C   0  0  0  0  0  0  0  0  0  0  0  0
    2.2146    3.5277    1.2033 C   0  0  0  0  0  0  0  0  0  0  0  0
    2.9469    3.8006    0.0593 C   0  0  0  0  0  0  0  0  0  0  0  0
   -4.9631   -2.4341    0.0077 H   0  0  0  0  0  0  0  0  0  0  0  0
   -5.6218   -0.0695   -0.0024 H   0  0  0  0  0  0  0  0  0  0  0  0
   -0.2269   -3.0708    0.0051 H   0  0  0  0  0  0  0  0  0  0  0  0
   -3.2898   -3.8984    0.0138 H   0  0  0  0  0  0  0  0  0  0  0  0
   -4.9402    2.0537   -0.0121 H   0  0  0  0  0  0  0  0  0  0  0  0
    1.5607   -4.4788    0.0072 H   0  0  0  0  0  0  0  0  0  0  0  0
    4.0257   -4.7265    0.0053 H   0  0  0  0  0  0  0  0  0  0  0  0
    0.5591    2.8935   -2.1730 H   0  0  0  0  0  0  0  0  0  0  0  0
    4.3497   -0.4523   -0.0094 H   0  0  0  0  0  0  0  0  0  0  0  0
    5.4658   -2.6905   -0.0031 H   0  0  0  0  0  0  0  0  0  0  0  0
    2.8835    3.7702   -2.0909 H   0  0  0  0  0  0  0  0  0  0  0  0
    2.6407    3.6909    2.1877 H   0  0  0  0  0  0  0  0  0  0  0  0
    3.9595    4.1824    0.1208 H   0  0  0  0  0  0  0  0  0  0  0  0
  1 12  1  0  0  0  0
  1 29  1  0  0  0  0
  2 13  1  0  0  0  0
  2 30  1  0  0  0  0
  3 10  2  0  0  0  0
  3 11  1  0  0  0  0
  4 10  1  0  0  0  0
  4 16  1  0  0  0  0
  4 28  1  0  0  0  0
  5 11  2  3  0  0  0
  5 17  1  0  0  0  0
  6 16  1  0  0  0  0
  6 21  2  0  0  0  0
  7 17  1  0  0  0  0
  7 24  2  0  0  0  0
  8  9  1  0  0  0  0
  8 10  1  0  0  0  0
  8 12  2  0  0  0  0
  9 11  1  0  0  0  0
  9 13  2  0  0  0  0
 12 14  1  0  0  0  0
 13 15  1  0  0  0  0
 14 15  2  0  0  0  0
 14 26  1  0  0  0  0
 15 27  1  0  0  0  0
 16 18  2  0  0  0  0
 17 20  2  0  0  0  0
 18 19  1  0  0  0  0
 18 31  1  0  0  0  0
 19 22  2  0  0  0  0
 19 32  1  0  0  0  0
 20 23  1  0  0  0  0
 20 33  1  0  0  0  0
 21 22  1  0  0  0  0
 21 34  1  0  0  0  0
 22 35  1  0  0  0  0
 23 25  2  0  0  0  0
 23 36  1  0  0  0  0
 24 25  1  0  0  0  0
 24 37  1  0  0  0  0
 25 38  1  0  0  0  0
M  END
> <PUBCHEM_COMPOUND_CID>
136372377

> <PUBCHEM_CONFORMER_RMSD>
0.6

> <PUBCHEM_CONFORMER_DIVERSEORDER>
1
38
22
25
14
26
20
28
24
19
6
17
33
16
23
12
10
18
34
30
32
7
36
15
21
11
37
5
27
8
9
3
13
2
35
4
29
31

> <PUBCHEM_MMFF94_PARTIAL_CHARGES>
38
1 -0.53
10 0.41
11 0.57
12 0.08
13 0.08
14 -0.15
15 -0.15
16 0.41
17 0.49
18 -0.15
19 -0.15
2 -0.53
20 -0.15
21 0.16
22 -0.15
23 -0.15
24 0.16
25 -0.15
26 0.15
27 0.15
28 0.4
29 0.45
3 -0.66
30 0.45
31 0.15
32 0.15
33 0.15
34 0.15
35 0.15
36 0.15
37 0.15
38 0.15
4 -0.55
5 -0.63
6 -0.62
7 -0.62
8 0.09
9 0.09

> <PUBCHEM_EFFECTIVE_ROTOR_COUNT>
3

> <PUBCHEM_PHARMACOPHORE_FEATURES>
11
1 1 donor
1 2 donor
1 4 donor
1 6 acceptor
1 7 acceptor
3 3 4 10 cation
3 3 5 11 cation
5 3 8 9 10 11 rings
6 6 16 18 19 21 22 rings
6 7 17 20 23 24 25 rings
6 8 9 12 13 14 15 rings

> <PUBCHEM_HEAVY_ATOM_COUNT>
25

> <PUBCHEM_ATOM_DEF_STEREO_COUNT>
0

> <PUBCHEM_ATOM_UDEF_STEREO_COUNT>
0

> <PUBCHEM_BOND_DEF_STEREO_COUNT>
0

> <PUBCHEM_BOND_UDEF_STEREO_COUNT>
1

> <PUBCHEM_ISOTOPIC_ATOM_COUNT>
0

> <PUBCHEM_COMPONENT_COUNT>
1

> <PUBCHEM_CACTVS_TAUTO_COUNT>
-1

> <PUBCHEM_CONFORMER_ID>
0820E09900000001

> <PUBCHEM_MMFF94_ENERGY>
83.3757

> <PUBCHEM_FEATURE_SELFOVERLAP>
55.964

> <PUBCHEM_SHAPE_FINGERPRINT>
10006869 2 17041758691681831841
10190108 129 17472998662682285715
10670039 82 18048895005165089006
1100329 8 18267872679410115385
11045515 52 18118124675589129284
11578080 2 17532346790896175407
12173636 292 17257087069854867798
12788726 201 17544181689107470859
12839892 36 17906438175884165145
13140716 1 18339651139133128233
13540713 4 18114178679757173207
13540713 5 18202005465255037307
138480 1 18410575072189737620
14028597 1 17629228131921483961
14508225 48 18195232335265870135
14955137 171 18050310084728685019
15439362 3 18409157801829057637
15927050 60 17980768456225535926
15961568 22 18338237056080734638
16719943 64 17833831951920812056
17980427 23 17702664324957966689
19591789 44 17257095294448363306
19611394 137 18115319989595835338
19930381 70 18337951298435735858
20028762 73 16614214191805467815
20510252 161 17692246339977160602
20600515 1 17984148054215853501
20642791 178 18261682583501229620
20775438 99 17761159571895185799
21033650 10 17399832322916218294
22033318 11 14730329746693199418
23366157 5 18187643664708179443
23557571 272 17911239408471932806
23559900 14 18341038688374030475
25147074 1 18059299863928694123
283562 15 17473541348498936425
3091708 16 9286374607335624362
3298306 158 18125162894526909764
352729 6 17111008695071876127
43471831 8 17978510059431130795
4409770 3 17540245450169827565
532947 4 18268151040397866550
5385378 56 18267313217133103753
59755656 215 17905889537215766455
7364860 26 18339642355608483585
79837 15 17473263657220076666
9981440 41 17904199582973472545

> <PUBCHEM_SHAPE_MULTIPOLES>
477.84
7.7
6.44
0.82
3.57
1.88
0
-4.17
-0.01
-7.8
0.02
-0.41
0.76
0.01

> <PUBCHEM_SHAPE_SELFOVERLAP>
1074.234

> <PUBCHEM_SHAPE_VOLUME>
248.9

> <PUBCHEM_COORDINATE_TYPE>
2
5
10

$$$$
