13647251
  -OEChem-03292013303D

 29 30  0     1  0  0  0  0  0999 V2000
   -2.6920   -2.9205   -1.0565 Br  0  0  0  0  0  0  0  0  0  0  0  0
    1.5116    2.6307   -0.5765 F   0  0  0  0  0  0  0  0  0  0  0  0
    1.4424   -0.4484    0.9713 O   0  0  0  0  0  0  0  0  0  0  0  0
    3.3424    0.5202   -1.8995 O   0  0  0  0  0  0  0  0  0  0  0  0
    3.2598   -2.6046    1.1937 O   0  0  0  0  0  0  0  0  0  0  0  0
   -1.4189    2.4384    1.0542 O   0  0  0  0  0  0  0  0  0  0  0  0
   -0.6496    0.3845    0.3408 N   0  0  0  0  0  0  0  0  0  0  0  0
   -2.9913    0.9526    0.3736 N   0  0  0  0  0  0  0  0  0  0  0  0
   -4.6217   -0.5364   -0.3125 N   0  0  0  0  0  0  0  0  0  0  0  0
    2.7710    0.6540   -0.6135 C   0  0  1  0  0  0  0  0  0  0  0  0
    1.3990    1.2824   -0.6662 C   0  0  1  0  0  0  0  0  0  0  0  0
    0.7230    0.7306    0.5760 C   0  0  2  0  0  0  0  0  0  0  0  0
    2.4609   -0.7008   -0.0079 C   0  0  1  0  0  0  0  0  0  0  0  0
    3.6597   -1.3554    0.6538 C   0  0  0  0  0  0  0  0  0  0  0  0
   -0.9817   -0.8675   -0.1549 C   0  0  0  0  0  0  0  0  0  0  0  0
   -1.6795    1.3179    0.6124 C   0  0  0  0  0  0  0  0  0  0  0  0
   -2.2385   -1.2463   -0.3936 C   0  0  0  0  0  0  0  0  0  0  0  0
   -3.2963   -0.2315   -0.0947 C   0  0  0  0  0  0  0  0  0  0  0  0
    3.4386    1.2550    0.0149 H   0  0  0  0  0  0  0  0  0  0  0  0
    0.8715    1.0523   -1.5985 H   0  0  0  0  0  0  0  0  0  0  0  0
    0.7880    1.4478    1.4019 H   0  0  0  0  0  0  0  0  0  0  0  0
    2.0511   -1.3886   -0.7583 H   0  0  0  0  0  0  0  0  0  0  0  0
    4.0338   -0.7418    1.4799 H   0  0  0  0  0  0  0  0  0  0  0  0
    4.4667   -1.5261   -0.0649 H   0  0  0  0  0  0  0  0  0  0  0  0
    4.1960    0.0666   -1.7973 H   0  0  0  0  0  0  0  0  0  0  0  0
   -0.1689   -1.5519   -0.3621 H   0  0  0  0  0  0  0  0  0  0  0  0
    4.0437   -3.0000    1.6116 H   0  0  0  0  0  0  0  0  0  0  0  0
   -5.3517    0.1396   -0.1152 H   0  0  0  0  0  0  0  0  0  0  0  0
   -4.9102   -1.4395   -0.6739 H   0  0  0  0  0  0  0  0  0  0  0  0
  1 17  1  0  0  0  0
  2 11  1  0  0  0  0
  3 12  1  0  0  0  0
  3 13  1  0  0  0  0
  4 10  1  0  0  0  0
  4 25  1  0  0  0  0
  5 14  1  0  0  0  0
  5 27  1  0  0  0  0
  6 16  2  0  0  0  0
  7 12  1  0  0  0  0
  7 15  1  0  0  0  0
  7 16  1  0  0  0  0
  8 16  1  0  0  0  0
  8 18  2  0  0  0  0
  9 18  1  0  0  0  0
  9 28  1  0  0  0  0
  9 29  1  0  0  0  0
 10 11  1  0  0  0  0
 10 13  1  0  0  0  0
 10 19  1  0  0  0  0
 11 12  1  0  0  0  0
 11 20  1  0  0  0  0
 12 21  1  0  0  0  0
 13 14  1  0  0  0  0
 13 22  1  0  0  0  0
 14 23  1  0  0  0  0
 14 24  1  0  0  0  0
 15 17  2  0  0  0  0
 15 26  1  0  0  0  0
 17 18  1  0  0  0  0
M  END
> <PUBCHEM_COMPOUND_CID>
13647251

> <PUBCHEM_CONFORMER_RMSD>
0.6

> <PUBCHEM_CONFORMER_DIVERSEORDER>
25
18
53
93
22
103
88
86
37
15
61
58
59
1
55
77
79
32
13
104
102
101
97
70
29
26
66
4
78
43
28
49
34
19
41
82
87
65
73
90
83
67
99
27
44
80
89
100
69
36
96
38
64
91
45
3
6
10
11
16
95
92
52
54
56
81
98
8
21
74
94
33
35
20
105
23
84
9
75
76
51
39
14
72
40
106
12
30
42
62
7
46
71
2
68
63
5
48
31
85
57
47
50
24
17
60

> <PUBCHEM_MMFF94_PARTIAL_CHARGES>
23
1 -0.11
10 0.28
11 0.34
12 0.58
13 0.28
14 0.28
15 -0.04
16 0.84
17 0.12
18 0.49
2 -0.34
25 0.4
26 0.15
27 0.4
28 0.4
29 0.4
3 -0.56
4 -0.68
5 -0.68
6 -0.57
7 -0.47
8 -0.66
9 -0.85

> <PUBCHEM_EFFECTIVE_ROTOR_COUNT>
3

> <PUBCHEM_PHARMACOPHORE_FEATURES>
11
1 1 hydrophobe
1 3 acceptor
1 4 acceptor
1 4 donor
1 5 acceptor
1 5 donor
1 6 acceptor
1 8 donor
1 9 donor
5 3 10 11 12 13 rings
6 7 8 15 16 17 18 rings

> <PUBCHEM_HEAVY_ATOM_COUNT>
18

> <PUBCHEM_ATOM_DEF_STEREO_COUNT>
0

> <PUBCHEM_ATOM_UDEF_STEREO_COUNT>
4

> <PUBCHEM_BOND_DEF_STEREO_COUNT>
0

> <PUBCHEM_BOND_UDEF_STEREO_COUNT>
0

> <PUBCHEM_ISOTOPIC_ATOM_COUNT>
0

> <PUBCHEM_COMPONENT_COUNT>
1

> <PUBCHEM_CACTVS_TAUTO_COUNT>
3

> <PUBCHEM_CONFORMER_ID>
00D03D9300000019

> <PUBCHEM_MMFF94_ENERGY>
47.4005

> <PUBCHEM_FEATURE_SELFOVERLAP>
55.874

> <PUBCHEM_SHAPE_FINGERPRINT>
10062212 137 18341044125966072875
11578080 2 18118936201292079924
12202030 40 16271942543937258126
12553582 1 18272937162889903223
13140716 1 18200590418863697891
13538477 17 18411981394563690919
14115302 16 18411976966510450423
15375462 189 18196380440464810707
15442244 35 18337389340324321872
15669948 3 18271811241318190247
16752209 62 18270673178527993953
16945 1 18201444644550204081
17804303 29 18130784504084796354
1813 80 17606121676532680174
19422 9 18261117326701548699
20559304 39 18410291410990173480
20645476 183 18335146439920543383
20645477 70 17748825206840469331
21634736 98 18339083816491445398
22112679 90 18337114445490911256
2255824 54 18261678198302378820
23184049 29 18200587111321862507
232386 152 18201430363984495882
23402539 116 17917696982311916237
23463225 33 18336827468481791722
23557571 272 17632861927599148848
23559900 14 17846504703814550940
23598291 2 18189629241322175310
2748010 2 17914323834982434723
603831 33 18409454712764274806
6992083 37 18121788231211162104
7364860 26 18341045328372442552
74978 22 18411699928250631437
77492 1 18335430023425385896
81228 2 16342881835997385377
90525 40 18267590117394825687
9981440 41 17685492452692186832

> <PUBCHEM_SHAPE_MULTIPOLES>
330.68
6.93
2.74
1.14
1.18
0.67
-0.24
3.02
-0.69
0.43
0.15
-0.91
0.12
-1.92

> <PUBCHEM_SHAPE_SELFOVERLAP>
683.874

> <PUBCHEM_SHAPE_VOLUME>
193.4

> <PUBCHEM_COORDINATE_TYPE>
2
5
10

$$$$
