1365597
  -OEChem-03292013313D

 52 57  0     0  0  0  0  0  0999 V2000
    3.8038    0.4919    0.2012 N   0  0  0  0  0  0  0  0  0  0  0  0
   -3.8039    0.4919   -0.2012 N   0  0  0  0  0  0  0  0  0  0  0  0
    4.8539   -1.3731   -0.3982 N   0  0  0  0  0  0  0  0  0  0  0  0
   -4.8539   -1.3730    0.3982 N   0  0  0  0  0  0  0  0  0  0  0  0
    9.8866    2.6982    0.2313 N   0  0  0  0  0  0  0  0  0  0  0  0
   -9.8866    2.6983   -0.2314 N   0  0  0  0  0  0  0  0  0  0  0  0
    0.7210   -1.5661   -0.0670 C   0  0  0  0  0  0  0  0  0  0  0  0
   -0.7211   -1.5662    0.0669 C   0  0  0  0  0  0  0  0  0  0  0  0
    2.8180   -0.4475    0.0397 C   0  0  0  0  0  0  0  0  0  0  0  0
   -2.8179   -0.4476   -0.0397 C   0  0  0  0  0  0  0  0  0  0  0  0
    3.4987   -1.6028   -0.3344 C   0  0  0  0  0  0  0  0  0  0  0  0
   -3.4987   -1.6027    0.3345 C   0  0  0  0  0  0  0  0  0  0  0  0
    1.4315   -0.3877    0.1844 C   0  0  0  0  0  0  0  0  0  0  0  0
   -1.4316   -0.3877   -0.1844 C   0  0  0  0  0  0  0  0  0  0  0  0
    1.3759   -2.7409   -0.4439 C   0  0  0  0  0  0  0  0  0  0  0  0
   -1.3759   -2.7409    0.4440 C   0  0  0  0  0  0  0  0  0  0  0  0
    5.0014   -0.1087   -0.0714 C   0  0  0  0  0  0  0  0  0  0  0  0
   -5.0013   -0.1086    0.0714 C   0  0  0  0  0  0  0  0  0  0  0  0
    2.7691   -2.7775   -0.5830 C   0  0  0  0  0  0  0  0  0  0  0  0
   -2.7690   -2.7775    0.5830 C   0  0  0  0  0  0  0  0  0  0  0  0
    6.2510    0.6082    0.0065 C   0  0  0  0  0  0  0  0  0  0  0  0
   -6.2510    0.6082   -0.0065 C   0  0  0  0  0  0  0  0  0  0  0  0
    7.3159    0.2447   -0.8172 C   0  0  0  0  0  0  0  0  0  0  0  0
   -7.3159    0.2447    0.8173 C   0  0  0  0  0  0  0  0  0  0  0  0
    6.3929    1.6657    0.9048 C   0  0  0  0  0  0  0  0  0  0  0  0
   -6.3929    1.6657   -0.9048 C   0  0  0  0  0  0  0  0  0  0  0  0
    8.5236    0.9388   -0.7427 C   0  0  0  0  0  0  0  0  0  0  0  0
   -8.5235    0.9388    0.7428 C   0  0  0  0  0  0  0  0  0  0  0  0
    7.6004    2.3601    0.9793 C   0  0  0  0  0  0  0  0  0  0  0  0
   -7.6004    2.3600   -0.9793 C   0  0  0  0  0  0  0  0  0  0  0  0
    8.6658    1.9966    0.1554 C   0  0  0  0  0  0  0  0  0  0  0  0
   -8.6658    1.9966   -0.1555 C   0  0  0  0  0  0  0  0  0  0  0  0
    0.9690    0.5375    0.5089 H   0  0  0  0  0  0  0  0  0  0  0  0
   -0.9690    0.5375   -0.5089 H   0  0  0  0  0  0  0  0  0  0  0  0
    0.8397   -3.6571   -0.6788 H   0  0  0  0  0  0  0  0  0  0  0  0
   -0.8396   -3.6571    0.6789 H   0  0  0  0  0  0  0  0  0  0  0  0
    3.6550    1.4579    0.4620 H   0  0  0  0  0  0  0  0  0  0  0  0
   -3.6550    1.4578   -0.4620 H   0  0  0  0  0  0  0  0  0  0  0  0
    3.2687   -3.6929   -0.8841 H   0  0  0  0  0  0  0  0  0  0  0  0
   -3.2686   -3.6928    0.8841 H   0  0  0  0  0  0  0  0  0  0  0  0
    7.2252   -0.5744   -1.5267 H   0  0  0  0  0  0  0  0  0  0  0  0
   -7.2253   -0.5744    1.5268 H   0  0  0  0  0  0  0  0  0  0  0  0
    5.5874    1.9662    1.5701 H   0  0  0  0  0  0  0  0  0  0  0  0
   -5.5875    1.9662   -1.5701 H   0  0  0  0  0  0  0  0  0  0  0  0
    9.3462    0.6466   -1.3904 H   0  0  0  0  0  0  0  0  0  0  0  0
   -9.3461    0.6466    1.3905 H   0  0  0  0  0  0  0  0  0  0  0  0
    7.7000    3.1806    1.6853 H   0  0  0  0  0  0  0  0  0  0  0  0
   -7.7000    3.1805   -1.6855 H   0  0  0  0  0  0  0  0  0  0  0  0
    9.9899    3.4658    0.8817 H   0  0  0  0  0  0  0  0  0  0  0  0
   10.6593    2.4360   -0.3662 H   0  0  0  0  0  0  0  0  0  0  0  0
   -9.9899    3.4657   -0.8817 H   0  0  0  0  0  0  0  0  0  0  0  0
  -10.6592    2.4361    0.3662 H   0  0  0  0  0  0  0  0  0  0  0  0
  1  9  1  0  0  0  0
  1 17  1  0  0  0  0
  1 37  1  0  0  0  0
  2 10  1  0  0  0  0
  2 18  1  0  0  0  0
  2 38  1  0  0  0  0
  3 11  1  0  0  0  0
  3 17  2  0  0  0  0
  4 12  1  0  0  0  0
  4 18  2  0  0  0  0
  5 31  1  0  0  0  0
  5 49  1  0  0  0  0
  5 50  1  0  0  0  0
  6 32  1  0  0  0  0
  6 51  1  0  0  0  0
  6 52  1  0  0  0  0
  7  8  1  0  0  0  0
  7 13  2  0  0  0  0
  7 15  1  0  0  0  0
  8 14  2  0  0  0  0
  8 16  1  0  0  0  0
  9 11  2  0  0  0  0
  9 13  1  0  0  0  0
 10 12  2  0  0  0  0
 10 14  1  0  0  0  0
 11 19  1  0  0  0  0
 12 20  1  0  0  0  0
 13 33  1  0  0  0  0
 14 34  1  0  0  0  0
 15 19  2  0  0  0  0
 15 35  1  0  0  0  0
 16 20  2  0  0  0  0
 16 36  1  0  0  0  0
 17 21  1  0  0  0  0
 18 22  1  0  0  0  0
 19 39  1  0  0  0  0
 20 40  1  0  0  0  0
 21 23  2  0  0  0  0
 21 25  1  0  0  0  0
 22 24  2  0  0  0  0
 22 26  1  0  0  0  0
 23 27  1  0  0  0  0
 23 41  1  0  0  0  0
 24 28  1  0  0  0  0
 24 42  1  0  0  0  0
 25 29  2  0  0  0  0
 25 43  1  0  0  0  0
 26 30  2  0  0  0  0
 26 44  1  0  0  0  0
 27 31  2  0  0  0  0
 27 45  1  0  0  0  0
 28 32  2  0  0  0  0
 28 46  1  0  0  0  0
 29 31  1  0  0  0  0
 29 47  1  0  0  0  0
 30 32  1  0  0  0  0
 30 48  1  0  0  0  0
M  END
> <PUBCHEM_COMPOUND_CID>
1365597

> <PUBCHEM_CONFORMER_RMSD>
0.8

> <PUBCHEM_CONFORMER_DIVERSEORDER>
3
2
1
4

> <PUBCHEM_MMFF94_PARTIAL_CHARGES>
50
1 0.03
10 -0.15
11 0.23
12 0.23
13 -0.15
14 -0.15
15 -0.15
16 -0.15
17 0.13
18 0.13
19 -0.15
2 0.03
20 -0.15
21 0.05
22 0.05
23 -0.15
24 -0.15
25 -0.15
26 -0.15
27 -0.15
28 -0.15
29 -0.15
3 -0.57
30 -0.15
31 0.1
32 0.1
33 0.15
34 0.15
35 0.15
36 0.15
37 0.27
38 0.27
39 0.15
4 -0.57
40 0.15
41 0.15
42 0.15
43 0.15
44 0.15
45 0.15
46 0.15
47 0.15
48 0.15
49 0.4
5 -0.9
50 0.4
51 0.4
52 0.4
6 -0.9
9 -0.15

> <PUBCHEM_EFFECTIVE_ROTOR_COUNT>
3

> <PUBCHEM_PHARMACOPHORE_FEATURES>
14
1 1 donor
1 2 donor
1 5 cation
1 5 donor
1 6 cation
1 6 donor
3 1 3 17 cation
3 2 4 18 cation
5 1 3 9 11 17 rings
5 2 4 10 12 18 rings
6 21 23 25 27 29 31 rings
6 22 24 26 28 30 32 rings
6 7 9 11 13 15 19 rings
6 8 10 12 14 16 20 rings

> <PUBCHEM_HEAVY_ATOM_COUNT>
32

> <PUBCHEM_ATOM_DEF_STEREO_COUNT>
0

> <PUBCHEM_ATOM_UDEF_STEREO_COUNT>
0

> <PUBCHEM_BOND_DEF_STEREO_COUNT>
0

> <PUBCHEM_BOND_UDEF_STEREO_COUNT>
0

> <PUBCHEM_ISOTOPIC_ATOM_COUNT>
0

> <PUBCHEM_COMPONENT_COUNT>
1

> <PUBCHEM_CACTVS_TAUTO_COUNT>
15

> <PUBCHEM_CONFORMER_ID>
0014D65D00000003

> <PUBCHEM_MMFF94_ENERGY>
107.2182

> <PUBCHEM_FEATURE_SELFOVERLAP>
71.266

> <PUBCHEM_SHAPE_FINGERPRINT>
10 15 18113337501141490971
10369192 42 18410008811365190551
10533779 47 15936682676181055536
10625338 131 18336819780527632352
10835480 77 18413672408950386946
10930396 42 16877942742196276925
11181472 205 17631180692741949499
11409948 41 16056333713733287374
11409948 8 18261404365000669417
11411753 3 18266199325507785174
11421887 21 18129951082771862144
11421887 45 18270103743391630456
11456790 92 14057004910293953573
11578821 258 18410576197345653589
11607047 141 17678168309861484058
11607047 74 10303226064329753506
11672396 167 8502074251294887297
11828042 206 18337963403047066508
12013929 29 17838336281714163561
12342043 65 8790882956306620934
12522641 68 18201719574256278175
12592606 108 9367348132530847372
13248334 5 18123753058728465774
13947947 74 18131349700622885041
14251920 17 18410291407819241549
14359421 15 12103850042409202277
14617042 71 18412548683041268801
15152005 77 11097847506314609505
15183329 4 16630239217998578219
15289351 153 18201440238752398898
15320295 198 18271807994866772880
15347590 135 15719386213799027913
15347591 1 18411981351583603751
15350500 55 18410291414958086518
15461852 350 17775000237023781295
1577012 14 18410004442487157607
15840311 113 18261395521125442958
15890870 6 18413389856765118448
16087824 20 18409731742287167684
16989713 51 17559384963451923151
1754911 235 17918274255195734468
1768 4 18412553098525547249
17899979 19 18412548716989758833
18335252 114 17346600786037776064
18603816 31 13334747868745507841
19301679 30 12974155243102583306
19302320 297 18113620114338049356
19315958 150 18411704261656758182
2026 5 8790615796687808520
20505436 4 18410568487594462054
20609170 45 18340218402594536854
20721686 124 17775010060131634814
20721686 146 18412547639495689108
21033648 29 18113621179194389823
21102433 48 12035747422948358041
21362267 313 18336540604882861056
21585482 111 18339360898804334984
22002106 203 8069737451908478585
23523788 1 12829479308138153810
23524908 199 17703799085935852934
23576562 1 16486393521455712057
24771293 8 18333448755539073871
25025965 108 10881682468581059569
25242607 90 8214136331232345397
25269216 80 17274526729479932871
255183 451 10735872881103932370
3178227 256 13479134601469135954
3383291 50 9223230741301039868
3504750 166 11241974789883098091
3711267 37 18340501013966192145
3918712 181 18343015632172606400
4073 2 18261116283125690723
4169191 19 18272373053537833905
4403749 210 18269837669560559214
44280117 145 18196653118842681863
44389302 135 12685094770374959833
4516262 110 18273216396225845414
4760202 170 16701733969695320968
5080951 261 16660361537438377899
54039377 194 8790887389181316592
6327066 14 18342738533034366478
636775 72 18408603643931887469
636775 8 10015587229010599808
6673363 416 18272931632001031297
9937071 3 8286199448524648733
9962374 69 11098150997250746721
9980921 7 18187640320062929757

> <PUBCHEM_SHAPE_MULTIPOLES>
628.66
33.29
3.31
0.86
0
0.47
0
-39.31
0
0
0
0
-0.17
2.47

> <PUBCHEM_SHAPE_SELFOVERLAP>
1443.301

> <PUBCHEM_SHAPE_VOLUME>
327.5

> <PUBCHEM_COORDINATE_TYPE>
2
5
10

$$$$
