136591918
  -OEChem-03292013293D

 30 32  0     0  0  0  0  0  0999 V2000
   -4.7184   -2.6145    0.0000 O   0  0  0  0  0  0  0  0  0  0  0  0
    6.7664   -1.4191    0.0044 O   0  5  0  0  0  0  0  0  0  0  0  0
    7.1348    0.7449    0.0039 O   0  0  0  0  0  0  0  0  0  0  0  0
   -2.0324   -1.2227   -0.0012 N   0  0  0  0  0  0  0  0  0  0  0  0
   -5.6023   -0.4700    0.0022 N   0  0  0  0  0  0  0  0  0  0  0  0
   -1.8346    0.9984   -0.0019 N   0  0  0  0  0  0  0  0  0  0  0  0
   -4.2571    1.5179    0.0010 N   0  0  0  0  0  0  0  0  0  0  0  0
    0.1488   -0.3742   -0.0026 N   0  0  0  0  0  0  0  0  0  0  0  0
    0.8157    0.7067   -0.0033 N   0  0  0  0  0  0  0  0  0  0  0  0
   -6.5941    1.6506    0.0041 N   0  0  0  0  0  0  0  0  0  0  0  0
    6.3512   -0.2351    0.0030 N   0  3  0  0  0  0  0  0  0  0  0  0
   -3.3030   -0.7262   -0.0005 C   0  0  0  0  0  0  0  0  0  0  0  0
   -3.1572    0.6414   -0.0005 C   0  0  0  0  0  0  0  0  0  0  0  0
   -4.5622   -1.3985    0.0006 C   0  0  0  0  0  0  0  0  0  0  0  0
   -1.1837   -0.1464   -0.0019 C   0  0  0  0  0  0  0  0  0  0  0  0
   -5.4296    0.9257    0.0023 C   0  0  0  0  0  0  0  0  0  0  0  0
    2.2011    0.4706   -0.0035 C   0  0  0  0  0  0  0  0  0  0  0  0
    4.9514    0.0032    0.0004 C   0  0  0  0  0  0  0  0  0  0  0  0
    2.6864   -0.8372   -0.0028 C   0  0  0  0  0  0  0  0  0  0  0  0
    3.0911    1.5446   -0.0025 C   0  0  0  0  0  0  0  0  0  0  0  0
    4.0614   -1.0710   -0.0008 C   0  0  0  0  0  0  0  0  0  0  0  0
    4.4662    1.3109   -0.0005 C   0  0  0  0  0  0  0  0  0  0  0  0
   -1.7630   -2.1976   -0.0012 H   0  0  0  0  0  0  0  0  0  0  0  0
   -6.5528   -0.8285    0.0033 H   0  0  0  0  0  0  0  0  0  0  0  0
    2.0413   -1.7117   -0.0034 H   0  0  0  0  0  0  0  0  0  0  0  0
    2.7213    2.5667   -0.0028 H   0  0  0  0  0  0  0  0  0  0  0  0
    4.4041   -2.1027   -0.0001 H   0  0  0  0  0  0  0  0  0  0  0  0
    5.1298    2.1719    0.0005 H   0  0  0  0  0  0  0  0  0  0  0  0
   -6.5810    2.6647    0.0042 H   0  0  0  0  0  0  0  0  0  0  0  0
   -7.5005    1.1958    0.0052 H   0  0  0  0  0  0  0  0  0  0  0  0
  1 14  2  0  0  0  0
  2 11  1  0  0  0  0
  3 11  2  0  0  0  0
  4 12  1  0  0  0  0
  4 15  1  0  0  0  0
  4 23  1  0  0  0  0
  5 14  1  0  0  0  0
  5 16  1  0  0  0  0
  5 24  1  0  0  0  0
  6 13  1  0  0  0  0
  6 15  2  0  0  0  0
  7 13  1  0  0  0  0
  7 16  2  0  0  0  0
  8  9  2  0  0  0  0
  8 15  1  0  0  0  0
  9 17  1  0  0  0  0
 10 16  1  0  0  0  0
 10 29  1  0  0  0  0
 10 30  1  0  0  0  0
 11 18  1  0  0  0  0
 12 13  2  0  0  0  0
 12 14  1  0  0  0  0
 17 19  2  0  0  0  0
 17 20  1  0  0  0  0
 18 21  2  0  0  0  0
 18 22  1  0  0  0  0
 19 21  1  0  0  0  0
 19 25  1  0  0  0  0
 20 22  2  0  0  0  0
 20 26  1  0  0  0  0
 21 27  1  0  0  0  0
 22 28  1  0  0  0  0
M  CHG  2   2  -1  11   1
M  END
> <PUBCHEM_COMPOUND_CID>
136591918

> <PUBCHEM_CONFORMER_RMSD>
0.6

> <PUBCHEM_CONFORMER_DIVERSEORDER>
1
3
4
2

> <PUBCHEM_MMFF94_PARTIAL_CHARGES>
30
1 -0.57
10 -0.85
11 0.91
12 -0.24
13 0.35
14 0.71
15 0.31
16 0.56
17 0.18
18 0.13
19 -0.15
2 -0.52
20 -0.15
21 -0.15
22 -0.15
23 0.27
24 0.37
25 0.15
26 0.15
27 0.15
28 0.15
29 0.4
3 -0.52
30 0.4
4 0.03
5 -0.49
6 -0.57
7 -0.57
8 -0.13
9 -0.18

> <PUBCHEM_EFFECTIVE_ROTOR_COUNT>
3

> <PUBCHEM_PHARMACOPHORE_FEATURES>
11
1 1 acceptor
1 10 donor
1 2 acceptor
1 2 anion
1 3 acceptor
1 4 donor
1 5 donor
4 4 6 8 15 cation
5 4 6 12 13 15 rings
6 17 18 19 20 21 22 rings
6 5 7 12 13 14 16 rings

> <PUBCHEM_HEAVY_ATOM_COUNT>
22

> <PUBCHEM_ATOM_DEF_STEREO_COUNT>
0

> <PUBCHEM_ATOM_UDEF_STEREO_COUNT>
0

> <PUBCHEM_BOND_DEF_STEREO_COUNT>
0

> <PUBCHEM_BOND_UDEF_STEREO_COUNT>
0

> <PUBCHEM_ISOTOPIC_ATOM_COUNT>
0

> <PUBCHEM_COMPONENT_COUNT>
1

> <PUBCHEM_CACTVS_TAUTO_COUNT>
-1

> <PUBCHEM_CONFORMER_ID>
08243A2E00000001

> <PUBCHEM_MMFF94_ENERGY>
55.8604

> <PUBCHEM_FEATURE_SELFOVERLAP>
56.072

> <PUBCHEM_SHAPE_FINGERPRINT>
10411042 1 18050567645861195911
10595046 47 18408886273568439868
10835480 77 18343013432516503664
11315181 36 18059860579607552481
11524674 6 17060338539356818311
11719270 70 18131348579953139350
12091667 2 18334577958059540747
12107183 9 17761209912536610769
12166972 35 18334579079004450092
12236239 1 18409167723160273740
12516196 113 18131068247310771424
13167823 11 18410571816283007751
13288520 33 18411701010930562551
13533116 47 14045474306547782612
14251764 18 18408886239118939821
14933364 13 18410013238569279560
15183329 4 18335134276208819787
15196674 1 18410574019516470757
15778101 99 18411702063487921361
17093844 174 18408882949727898801
17834072 33 18410012164964352300
17844677 252 18339368555807220985
18681886 176 18341326790759241288
19489759 90 18334857234176389619
200 152 18201719565696854592
20281389 69 18260546706221918884
21130935 74 18413387636161940962
21236236 1 18412262866068444887
21267235 1 18409454712395171939
21709351 56 18333725840463141469
220451 1 17385439916837889266
23402539 116 18411978079044013405
23522609 53 18043839553194500300
23536379 177 18410012135026201416
23559900 14 18341887519729689649
29717793 49 18059860554359962052
300161 21 18334008380734139787
3004659 81 18335138692052579888
335352 9 18410853257754587669
3545911 37 18410573972298444609
4073 2 18113624525168904378
4214541 1 18410856572899335269
4463277 17 18410292515023751636
5104073 3 18411136965407079729
542803 24 17313105263102222268
559249 180 18410572886062199807
59755656 215 18411421670357783254
59755656 520 16950282914431818755
67856867 119 18335705008801880260
7495541 125 17774440606626255984
77779 3 18410575110628100489

> <PUBCHEM_SHAPE_MULTIPOLES>
395.29
18.66
1.77
0.57
8.61
0.38
0
-0.23
-0.03
-1.6
0
0.01
-0.01
0

> <PUBCHEM_SHAPE_SELFOVERLAP>
875.769

> <PUBCHEM_SHAPE_VOLUME>
208

> <PUBCHEM_COORDINATE_TYPE>
2
5
10

$$$$
