136643516
  -OEChem-03292013293D

 40 43  0     1  0  0  0  0  0999 V2000
    1.8089   -1.2838   -1.0657 O   0  0  0  0  0  0  0  0  0  0  0  0
    3.6361    1.7265   -0.3091 O   0  0  0  0  0  0  0  0  0  0  0  0
    0.8557    2.1354   -0.4911 O   0  0  0  0  0  0  0  0  0  0  0  0
    5.3301   -0.8209   -0.1781 O   0  0  0  0  0  0  0  0  0  0  0  0
   -4.8327   -1.4731    0.8053 O   0  0  0  0  0  0  0  0  0  0  0  0
   -0.5540   -0.8418   -0.5021 N   0  0  0  0  0  0  0  0  0  0  0  0
   -2.0367   -2.3249    0.2749 N   0  0  0  0  0  0  0  0  0  0  0  0
   -1.9379    1.1393   -0.6396 N   0  0  0  0  0  0  0  0  0  0  0  0
   -4.1681    0.6462    0.0840 N   0  0  0  0  0  0  0  0  0  0  0  0
   -3.5859    2.8138   -0.6272 N   0  0  0  0  0  0  0  0  0  0  0  0
    2.7768    0.6056   -0.0469 C   0  0  2  0  0  0  0  0  0  0  0  0
    1.3036    0.8182   -0.1284 C   0  0  1  0  0  0  0  0  0  0  0  0
    1.9550    0.6355    1.2384 C   0  0  0  0  0  0  0  0  0  0  0  0
    3.0616   -0.5966   -0.8929 C   0  0  1  0  0  0  0  0  0  0  0  0
    0.7643   -0.2887   -0.9963 C   0  0  1  0  0  0  0  0  0  0  0  0
    2.0739    1.8512    2.1348 C   0  0  0  0  0  0  0  0  0  0  0  0
    1.7260   -0.6235    2.0353 C   0  0  0  0  0  0  0  0  0  0  0  0
    4.1081   -1.5291   -0.3163 C   0  0  0  0  0  0  0  0  0  0  0  0
   -1.7303   -0.1665   -0.3604 C   0  0  0  0  0  0  0  0  0  0  0  0
   -0.7889   -2.1363   -0.1074 C   0  0  0  0  0  0  0  0  0  0  0  0
   -2.6172   -1.1011    0.1166 C   0  0  0  0  0  0  0  0  0  0  0  0
   -3.9745   -0.7104    0.3799 C   0  0  0  0  0  0  0  0  0  0  0  0
   -3.1740    1.5250   -0.4075 C   0  0  0  0  0  0  0  0  0  0  0  0
    3.3871   -0.2598   -1.8861 H   0  0  0  0  0  0  0  0  0  0  0  0
    0.5585    0.0575   -2.0170 H   0  0  0  0  0  0  0  0  0  0  0  0
    1.1582    1.9770    2.7222 H   0  0  0  0  0  0  0  0  0  0  0  0
    2.2391    2.7794    1.5787 H   0  0  0  0  0  0  0  0  0  0  0  0
    2.9131    1.7280    2.8277 H   0  0  0  0  0  0  0  0  0  0  0  0
    0.7938   -0.5424    2.6046 H   0  0  0  0  0  0  0  0  0  0  0  0
    2.5454   -0.7722    2.7468 H   0  0  0  0  0  0  0  0  0  0  0  0
    1.6580   -1.5272    1.4281 H   0  0  0  0  0  0  0  0  0  0  0  0
    4.5208    1.5730    0.0640 H   0  0  0  0  0  0  0  0  0  0  0  0
   -0.0322    2.3055   -0.1339 H   0  0  0  0  0  0  0  0  0  0  0  0
    3.8162   -1.9213    0.6617 H   0  0  0  0  0  0  0  0  0  0  0  0
    4.2625   -2.3864   -0.9802 H   0  0  0  0  0  0  0  0  0  0  0  0
   -0.0206   -2.8972   -0.1189 H   0  0  0  0  0  0  0  0  0  0  0  0
    5.9822   -1.4444    0.1844 H   0  0  0  0  0  0  0  0  0  0  0  0
   -5.0973    1.0285    0.2349 H   0  0  0  0  0  0  0  0  0  0  0  0
   -2.9450    3.5170   -0.9785 H   0  0  0  0  0  0  0  0  0  0  0  0
   -4.5410    3.1022   -0.4453 H   0  0  0  0  0  0  0  0  0  0  0  0
  1 14  1  0  0  0  0
  1 15  1  0  0  0  0
  2 11  1  0  0  0  0
  2 32  1  0  0  0  0
  3 12  1  0  0  0  0
  3 33  1  0  0  0  0
  4 18  1  0  0  0  0
  4 37  1  0  0  0  0
  5 22  2  0  0  0  0
  6 15  1  0  0  0  0
  6 19  1  0  0  0  0
  6 20  1  0  0  0  0
  7 20  2  0  0  0  0
  7 21  1  0  0  0  0
  8 19  1  0  0  0  0
  8 23  2  0  0  0  0
  9 22  1  0  0  0  0
  9 23  1  0  0  0  0
  9 38  1  0  0  0  0
 10 23  1  0  0  0  0
 10 39  1  0  0  0  0
 10 40  1  0  0  0  0
 11 12  1  0  0  0  0
 11 13  1  0  0  0  0
 11 14  1  0  0  0  0
 12 13  1  0  0  0  0
 12 15  1  0  0  0  0
 13 16  1  0  0  0  0
 13 17  1  0  0  0  0
 14 18  1  0  0  0  0
 14 24  1  0  0  0  0
 15 25  1  0  0  0  0
 16 26  1  0  0  0  0
 16 27  1  0  0  0  0
 16 28  1  0  0  0  0
 17 29  1  0  0  0  0
 17 30  1  0  0  0  0
 17 31  1  0  0  0  0
 18 34  1  0  0  0  0
 18 35  1  0  0  0  0
 19 21  2  0  0  0  0
 20 36  1  0  0  0  0
 21 22  1  0  0  0  0
M  END
> <PUBCHEM_COMPOUND_CID>
136643516

> <PUBCHEM_CONFORMER_RMSD>
0.6

> <PUBCHEM_CONFORMER_DIVERSEORDER>
1
6
5
3
7
8
4
2

> <PUBCHEM_MMFF94_PARTIAL_CHARGES>
30
1 -0.56
10 -0.85
11 0.05
12 0.05
13 -0.19
14 0.38
15 0.63
16 0.09
17 0.09
18 0.28
19 -0.03
2 -0.55
20 0.04
21 0.14
22 0.72
23 0.56
3 -0.55
32 0.4
33 0.4
36 0.15
37 0.4
38 0.37
39 0.4
4 -0.68
40 0.4
5 -0.57
6 0.05
7 -0.57
8 -0.58
9 -0.49

> <PUBCHEM_EFFECTIVE_ROTOR_COUNT>
2.8

> <PUBCHEM_PHARMACOPHORE_FEATURES>
15
1 1 acceptor
1 10 donor
1 2 acceptor
1 2 donor
1 3 acceptor
1 3 donor
1 4 acceptor
1 4 donor
1 5 acceptor
1 9 donor
3 13 16 17 hydrophobe
3 6 7 20 cation
5 6 7 19 20 21 rings
6 1 11 12 13 14 15 rings
6 8 9 19 21 22 23 rings

> <PUBCHEM_HEAVY_ATOM_COUNT>
23

> <PUBCHEM_ATOM_DEF_STEREO_COUNT>
4

> <PUBCHEM_ATOM_UDEF_STEREO_COUNT>
0

> <PUBCHEM_BOND_DEF_STEREO_COUNT>
0

> <PUBCHEM_BOND_UDEF_STEREO_COUNT>
0

> <PUBCHEM_ISOTOPIC_ATOM_COUNT>
0

> <PUBCHEM_COMPONENT_COUNT>
1

> <PUBCHEM_CACTVS_TAUTO_COUNT>
-1

> <PUBCHEM_CONFORMER_ID>
082503BC00000001

> <PUBCHEM_MMFF94_ENERGY>
58.6237

> <PUBCHEM_FEATURE_SELFOVERLAP>
76.31

> <PUBCHEM_SHAPE_FINGERPRINT>
10165383 225 17628926917022106448
10366900 7 18129094713637035977
10608611 8 18341894116767554229
10646746 165 18409166576055937165
1100329 8 16612237737737885750
12236239 1 17095528387301786830
12403259 226 18342173414607107415
12403259 415 18343017787908272961
12507560 40 18413103987456556740
12633257 1 17845949510224127707
13134695 92 17203040769249383928
14223421 5 18267859678031978633
14866123 147 16616754557649926022
15196674 1 18409733971474641677
15238133 3 17059517178105127242
15295992 7 17988926690953712411
15653759 3 18410575101853660070
16752209 62 18260256452626999567
16945 1 18122614209166781502
17349148 13 13542454384816652894
17804303 29 18411423903376565839
1813 80 17022618672406278702
18186145 218 16845570945929710661
19049666 15 18271525312465466753
192875 21 14548731815797637882
20510252 161 18411704300928499289
21033648 29 18131056122185442009
21267235 1 18335995215378343278
21279426 13 18052260592175541094
23175994 123 17632021857881567830
23493267 7 18334854983038650120
23526113 38 17843119203837093926
23559900 14 18410009944555970255
2748010 2 18411417272405944965
296302 2 12391510871452757270
3286 77 17703792556752151387
350125 39 18411707569213709223
495365 180 17417511567192238960
5104073 3 18410296912569077593
7097593 13 17823675521900421003
7495541 125 18059579138837754946
81228 2 17766542926621906127

> <PUBCHEM_SHAPE_MULTIPOLES>
419.08
8.54
2.4
1.31
1.64
0.58
-0.74
-0.66
-0.03
0.97
0.02
-0.84
0.29
1.33

> <PUBCHEM_SHAPE_SELFOVERLAP>
921.881

> <PUBCHEM_SHAPE_VOLUME>
223.7

> <PUBCHEM_COORDINATE_TYPE>
2
5
10

$$$$
