136670628
  -OEChem-03292013293D

 36 36  0     0  0  0  0  0  0999 V2000
   -0.9499    1.4089    0.0011 O   0  0  0  0  0  0  0  0  0  0  0  0
    6.2982   -0.7522    0.0542 O   0  5  0  0  0  0  0  0  0  0  0  0
    5.9145    1.4038    0.2072 O   0  0  0  0  0  0  0  0  0  0  0  0
   -7.6653   -0.7521    0.9505 N   0  3  0  0  0  0  0  0  0  0  0  0
   -0.0277   -0.7469   -0.1354 N   0  0  0  0  0  0  0  0  0  0  0  0
    5.5078    0.2212    0.1049 N   0  3  0  0  0  0  0  0  0  0  0  0
   -4.9218   -0.2351   -0.2056 C   0  0  0  0  0  0  0  0  0  0  0  0
   -3.5752    0.4892   -0.1484 C   0  0  0  0  0  0  0  0  0  0  0  0
   -6.0862    0.7594   -0.2055 C   0  0  0  0  0  0  0  0  0  0  0  0
   -2.4103   -0.4978   -0.1886 C   0  0  0  0  0  0  0  0  0  0  0  0
   -7.4546    0.0908   -0.2499 C   0  0  0  0  0  0  0  0  0  0  0  0
   -1.0557    0.1906   -0.0947 C   0  0  0  0  0  0  0  0  0  0  0  0
    1.3649   -0.5034   -0.0745 C   0  0  0  0  0  0  0  0  0  0  0  0
    2.2625   -1.5697   -0.1289 C   0  0  0  0  0  0  0  0  0  0  0  0
    1.8403    0.8032    0.0393 C   0  0  0  0  0  0  0  0  0  0  0  0
    3.6352   -1.3298   -0.0694 C   0  0  0  0  0  0  0  0  0  0  0  0
    3.2130    1.0432    0.0990 C   0  0  0  0  0  0  0  0  0  0  0  0
    4.1104   -0.0232    0.0446 C   0  0  0  0  0  0  0  0  0  0  0  0
   -4.9927   -0.9083    0.6558 H   0  0  0  0  0  0  0  0  0  0  0  0
   -4.9717   -0.8553   -1.1086 H   0  0  0  0  0  0  0  0  0  0  0  0
   -3.4935    1.1874   -0.9907 H   0  0  0  0  0  0  0  0  0  0  0  0
   -3.5200    1.0908    0.7675 H   0  0  0  0  0  0  0  0  0  0  0  0
   -5.9948    1.4214   -1.0752 H   0  0  0  0  0  0  0  0  0  0  0  0
   -6.0217    1.3978    0.6847 H   0  0  0  0  0  0  0  0  0  0  0  0
   -2.4404   -1.0721   -1.1224 H   0  0  0  0  0  0  0  0  0  0  0  0
   -2.4918   -1.2047    0.6459 H   0  0  0  0  0  0  0  0  0  0  0  0
   -8.2534    0.8384   -0.2523 H   0  0  0  0  0  0  0  0  0  0  0  0
   -7.5655   -0.5605   -1.1219 H   0  0  0  0  0  0  0  0  0  0  0  0
   -7.0364   -1.5652    0.9686 H   0  0  0  0  0  0  0  0  0  0  0  0
   -8.6266   -1.1175    0.9768 H   0  0  0  0  0  0  0  0  0  0  0  0
   -7.5177   -0.2213    1.8192 H   0  0  0  0  0  0  0  0  0  0  0  0
   -0.2902   -1.7269   -0.2182 H   0  0  0  0  0  0  0  0  0  0  0  0
    1.9049   -2.5924   -0.2178 H   0  0  0  0  0  0  0  0  0  0  0  0
    1.2086    1.6789    0.0869 H   0  0  0  0  0  0  0  0  0  0  0  0
    4.3049   -2.1849   -0.1145 H   0  0  0  0  0  0  0  0  0  0  0  0
    3.5484    2.0735    0.1875 H   0  0  0  0  0  0  0  0  0  0  0  0
  1 12  2  0  0  0  0
  2  6  1  0  0  0  0
  3  6  2  0  0  0  0
  4 11  1  0  0  0  0
  4 29  1  0  0  0  0
  4 30  1  0  0  0  0
  4 31  1  0  0  0  0
  5 12  1  0  0  0  0
  5 13  1  0  0  0  0
  5 32  1  0  0  0  0
  6 18  1  0  0  0  0
  7  8  1  0  0  0  0
  7  9  1  0  0  0  0
  7 19  1  0  0  0  0
  7 20  1  0  0  0  0
  8 10  1  0  0  0  0
  8 21  1  0  0  0  0
  8 22  1  0  0  0  0
  9 11  1  0  0  0  0
  9 23  1  0  0  0  0
  9 24  1  0  0  0  0
 10 12  1  0  0  0  0
 10 25  1  0  0  0  0
 10 26  1  0  0  0  0
 11 27  1  0  0  0  0
 11 28  1  0  0  0  0
 13 14  2  0  0  0  0
 13 15  1  0  0  0  0
 14 16  1  0  0  0  0
 14 33  1  0  0  0  0
 15 17  2  0  0  0  0
 15 34  1  0  0  0  0
 16 18  2  0  0  0  0
 16 35  1  0  0  0  0
 17 18  1  0  0  0  0
 17 36  1  0  0  0  0
M  CHG  3   2  -1   4   1   6   1
M  END
> <PUBCHEM_COMPOUND_CID>
136670628

> <PUBCHEM_CONFORMER_RMSD>
0.8

> <PUBCHEM_CONFORMER_DIVERSEORDER>
1
23
6
32
22
2
31
30
33
17
37
18
36
20
27
16
4
28
25
21
15
14
34
26
8
19
9
3
35
29
10
7
24
5
38
11
12
13

> <PUBCHEM_MMFF94_PARTIAL_CHARGES>
23
1 -0.57
10 0.06
11 0.5
12 0.57
13 0.12
14 -0.15
15 -0.15
16 -0.15
17 -0.15
18 0.13
2 -0.52
29 0.45
3 -0.52
30 0.45
31 0.45
32 0.37
33 0.15
34 0.15
35 0.15
36 0.15
4 -0.85
5 -0.55
6 0.91

> <PUBCHEM_EFFECTIVE_ROTOR_COUNT>
8

> <PUBCHEM_PHARMACOPHORE_FEATURES>
9
1 1 acceptor
1 2 acceptor
1 2 anion
1 3 acceptor
1 4 cation
1 4 donor
1 5 donor
4 7 8 9 10 hydrophobe
6 13 14 15 16 17 18 rings

> <PUBCHEM_HEAVY_ATOM_COUNT>
18

> <PUBCHEM_ATOM_DEF_STEREO_COUNT>
0

> <PUBCHEM_ATOM_UDEF_STEREO_COUNT>
0

> <PUBCHEM_BOND_DEF_STEREO_COUNT>
0

> <PUBCHEM_BOND_UDEF_STEREO_COUNT>
0

> <PUBCHEM_ISOTOPIC_ATOM_COUNT>
0

> <PUBCHEM_COMPONENT_COUNT>
1

> <PUBCHEM_CACTVS_TAUTO_COUNT>
-1

> <PUBCHEM_CONFORMER_ID>
08256DA400000001

> <PUBCHEM_MMFF94_ENERGY>
40.5806

> <PUBCHEM_FEATURE_SELFOVERLAP>
45.752

> <PUBCHEM_SHAPE_FINGERPRINT>
10354089 29 18413669110626285726
10411042 1 18051975815245140318
10968037 39 18342174471480266287
12091667 2 18343862213529131181
12236239 1 17918272056198436757
12730499 353 18410293597086764250
13073987 5 18337390427399453681
13533116 47 14907907020122205047
13899415 154 17704075118023623313
14123256 10 18343864415750270449
14170010 4 18410572907515989244
1420 363 18260553321014405915
14251732 16 18408041814800744001
14251764 18 18131070442096834905
14251764 46 18410009931396716003
14933364 13 18410856547435590605
17834076 25 18113054935232479005
200 152 18131347496845322688
20281389 69 18408037407610800117
20645477 70 18269554949164295038
21267235 1 18341616975945595174
220451 1 16559028277699293031
22224240 67 15430035482806581464
22896161 15 18410292536793974279
23035841 295 17632856426115073719
23402539 116 18272080621571985046
23402655 69 18272364257112274844
23521765 1 18341894090839325847
23559900 14 18270673285707303201
29717793 49 17346602963158810492
335352 9 18412547609647123998
3545911 37 18411135835851779079
4073 2 18114466755133507611
42788 4 18410573972904846309
4340502 62 17240481399011840138
4463277 17 18413387627249778405
5104073 3 18268143167321990993
542803 24 16845572006981746563
59682541 35 18261674869280835489
59755656 520 17603580850910255539
8209 1 18409448080981315821

> <PUBCHEM_SHAPE_MULTIPOLES>
337.88
19.37
1.29
0.65
23.69
0.03
0.03
-0.31
1.78
-1.17
0.02
0.43
0.04
0.45

> <PUBCHEM_SHAPE_SELFOVERLAP>
680.865

> <PUBCHEM_SHAPE_VOLUME>
197.3

> <PUBCHEM_COORDINATE_TYPE>
2
5
10

$$$$
