136675100
  -OEChem-03292013293D

 33 34  0     1  0  0  0  0  0999 V2000
    3.6699   -0.0173    0.4151 S   0  0  2  0  0  0  0  0  0  0  0  0
    1.9455   -2.4338   -0.2496 O   0  0  0  0  0  0  0  0  0  0  0  0
    4.1436   -1.4263    0.6296 O   0  0  0  0  0  0  0  0  0  0  0  0
    0.6974    3.0471   -0.9982 O   0  0  0  0  0  0  0  0  0  0  0  0
   -0.2623    1.0235    0.4292 N   0  0  0  0  0  0  0  0  0  0  0  0
   -2.9023   -1.2816    0.3670 N   0  0  0  0  0  0  0  0  0  0  0  0
    1.4854    3.3801    0.1067 N   0  0  0  0  0  0  0  0  0  0  0  0
    1.8774   -0.0939    0.2932 C   0  0  0  0  0  0  0  0  0  0  0  0
    1.2413   -1.2893   -0.0229 C   0  0  0  0  0  0  0  0  0  0  0  0
   -0.8451   -0.1565    0.1198 C   0  0  0  0  0  0  0  0  0  0  0  0
    1.0874    1.0240    0.5081 C   0  0  0  0  0  0  0  0  0  0  0  0
   -0.1456   -1.3296   -0.1134 C   0  0  0  0  0  0  0  0  0  0  0  0
   -2.2862   -0.1225    0.0432 C   0  0  0  0  0  0  0  0  0  0  0  0
   -2.9535    1.0303   -0.3381 C   0  0  0  0  0  0  0  0  0  0  0  0
    1.6576    2.3222    0.8439 C   0  0  0  0  0  0  0  0  0  0  0  0
    4.0025    0.4008   -1.3161 C   0  0  0  0  0  0  0  0  0  0  0  0
   -4.3425    0.9913   -0.3906 C   0  0  0  0  0  0  0  0  0  0  0  0
   -4.2527   -1.2816    0.3044 C   0  0  0  0  0  0  0  0  0  0  0  0
   -5.0122   -0.1830   -0.0646 C   0  0  0  0  0  0  0  0  0  0  0  0
    1.1944   -3.6039   -0.5666 C   0  0  0  0  0  0  0  0  0  0  0  0
   -0.7025   -2.2223   -0.3689 H   0  0  0  0  0  0  0  0  0  0  0  0
   -2.4374    1.9475   -0.6031 H   0  0  0  0  0  0  0  0  0  0  0  0
    2.3005    2.3936    1.7360 H   0  0  0  0  0  0  0  0  0  0  0  0
    5.0850    0.4399   -1.4596 H   0  0  0  0  0  0  0  0  0  0  0  0
    3.5742    1.3787   -1.5478 H   0  0  0  0  0  0  0  0  0  0  0  0
    3.5790   -0.3608   -1.9755 H   0  0  0  0  0  0  0  0  0  0  0  0
   -4.9021    1.8733   -0.6869 H   0  0  0  0  0  0  0  0  0  0  0  0
   -4.7268   -2.2213    0.5679 H   0  0  0  0  0  0  0  0  0  0  0  0
    1.9143   -4.4166   -0.7107 H   0  0  0  0  0  0  0  0  0  0  0  0
    0.6518   -3.4936   -1.5118 H   0  0  0  0  0  0  0  0  0  0  0  0
    0.5426   -3.9046    0.2609 H   0  0  0  0  0  0  0  0  0  0  0  0
   -6.0942   -0.2366   -0.0989 H   0  0  0  0  0  0  0  0  0  0  0  0
    0.6406    3.8996   -1.4617 H   0  0  0  0  0  0  0  0  0  0  0  0
  1  3  2  0  0  0  0
  1  8  1  0  0  0  0
  1 16  1  0  0  0  0
  2  9  1  0  0  0  0
  2 20  1  0  0  0  0
  4  7  1  0  0  0  0
  4 33  1  0  0  0  0
  5 10  2  0  0  0  0
  5 11  1  0  0  0  0
  6 13  1  0  0  0  0
  6 18  2  0  0  0  0
  7 15  2  0  0  0  0
  8  9  1  0  0  0  0
  8 11  2  0  0  0  0
  9 12  2  0  0  0  0
 10 12  1  0  0  0  0
 10 13  1  0  0  0  0
 11 15  1  0  0  0  0
 12 21  1  0  0  0  0
 13 14  2  0  0  0  0
 14 17  1  0  0  0  0
 14 22  1  0  0  0  0
 15 23  1  0  0  0  0
 16 24  1  0  0  0  0
 16 25  1  0  0  0  0
 16 26  1  0  0  0  0
 17 19  2  0  0  0  0
 17 27  1  0  0  0  0
 18 19  1  0  0  0  0
 18 28  1  0  0  0  0
 19 32  1  0  0  0  0
 20 29  1  0  0  0  0
 20 30  1  0  0  0  0
 20 31  1  0  0  0  0
M  END
> <PUBCHEM_COMPOUND_CID>
136675100

> <PUBCHEM_CONFORMER_RMSD>
0.6

> <PUBCHEM_CONFORMER_DIVERSEORDER>
1
13
33
38
27
41
20
37
7
40
25
15
34
14
28
23
36
17
26
21
35
22
24
32
11
8
19
18
16
31
12
6
39
30
4
3
5
10
29
9
2

> <PUBCHEM_MMFF94_PARTIAL_CHARGES>
27
1 0.24
10 0.31
11 0.4
12 -0.15
13 0.31
14 -0.15
15 0.3
16 0.19
17 -0.15
18 0.16
19 -0.15
2 -0.36
20 0.28
21 0.15
22 0.15
23 0.06
27 0.15
28 0.15
3 -0.5
32 0.15
33 0.4
4 -0.34
5 -0.62
6 -0.62
7 -0.51
8 0.06
9 0.08

> <PUBCHEM_EFFECTIVE_ROTOR_COUNT>
4

> <PUBCHEM_PHARMACOPHORE_FEATURES>
8
1 2 acceptor
1 3 acceptor
1 4 anion
1 5 acceptor
1 6 acceptor
1 7 acceptor
6 5 8 9 10 11 12 rings
6 6 13 14 17 18 19 rings

> <PUBCHEM_HEAVY_ATOM_COUNT>
20

> <PUBCHEM_ATOM_DEF_STEREO_COUNT>
0

> <PUBCHEM_ATOM_UDEF_STEREO_COUNT>
1

> <PUBCHEM_BOND_DEF_STEREO_COUNT>
1

> <PUBCHEM_BOND_UDEF_STEREO_COUNT>
0

> <PUBCHEM_ISOTOPIC_ATOM_COUNT>
0

> <PUBCHEM_COMPONENT_COUNT>
1

> <PUBCHEM_CACTVS_TAUTO_COUNT>
-1

> <PUBCHEM_CONFORMER_ID>
08257F1C00000001

> <PUBCHEM_MMFF94_ENERGY>
75.0025

> <PUBCHEM_FEATURE_SELFOVERLAP>
40.613

> <PUBCHEM_SHAPE_FINGERPRINT>
10366900 7 18261397784267083747
10608611 8 18408597081173912201
10967382 1 18340485573505300722
11471102 20 18413102866322250051
116883 192 17836082273595379862
13140716 1 18198053883792087331
14790565 3 18411707620791065072
14866123 147 16611670385971111099
15442244 35 18127131858149187521
15536298 74 18270116945466047953
1601671 61 18411983529120297344
16945 1 18343866606178245338
18186145 218 18272093854598338889
18785283 64 18263088875762815385
19591789 44 18196656426130633343
200 152 17989198262099925843
20645477 70 18337664317437617235
21267235 1 18340493270160788546
21421861 104 17682114378960916034
221490 88 18263929997984240867
22289505 5 18265041458295573389
2255824 54 18339361975685020008
2334 1 17908982458538616298
23402539 116 18272360971868813078
23526113 38 18187651254211122539
23557571 272 17984419638320309124
23558518 356 17760918946130932050
23559900 14 18410283744827101481
2748010 2 18123189271043976600
3060560 45 18342737438059883358
3071541 158 18409166614568516685
350125 39 18123193664806297211
5104073 3 18338799026501525107
537710 114 18410296895837529148
6443956 14 18413109437701652496
7364860 26 18411698828770937961
7495541 125 18186804724646515555
81228 2 17762347911408478426
9709674 26 18409731777147845131
9999458 23 18339081604583320647

> <PUBCHEM_SHAPE_MULTIPOLES>
382.89
8.26
3.27
0.86
6.73
0.07
0.12
-0.84
0.43
-2.36
0.43
-0.51
0.19
0.31

> <PUBCHEM_SHAPE_SELFOVERLAP>
805.594

> <PUBCHEM_SHAPE_VOLUME>
219.4

> <PUBCHEM_COORDINATE_TYPE>
2
5
10

$$$$
