136664108
  -OEChem-03292013293D

 36 37  0     0  0  0  0  0  0999 V2000
    3.3843   -0.0789    2.0640 O   0  0  0  0  0  0  0  0  0  0  0  0
   -3.3836   -0.0807   -2.0652 O   0  0  0  0  0  0  0  0  0  0  0  0
    0.0004    3.6794   -0.0013 O   0  0  0  0  0  0  0  0  0  0  0  0
    2.3429    2.2710   -0.2424 N   0  0  0  0  0  0  0  0  0  0  0  0
   -2.3428    2.2716    0.2420 N   0  0  0  0  0  0  0  0  0  0  0  0
   -1.1404    1.6657    0.1194 N   0  0  0  0  0  0  0  0  0  0  0  0
    1.1408    1.6652   -0.1164 N   0  0  0  0  0  0  0  0  0  0  0  0
    3.1440   -0.0123   -0.3218 C   0  0  0  0  0  0  0  0  0  0  0  0
   -3.1442   -0.0118    0.3207 C   0  0  0  0  0  0  0  0  0  0  0  0
   -3.1746   -0.7207   -0.8802 C   0  0  0  0  0  0  0  0  0  0  0  0
    3.1748   -0.7201    0.8797 C   0  0  0  0  0  0  0  0  0  0  0  0
   -2.9315   -0.6857    1.5233 C   0  0  0  0  0  0  0  0  0  0  0  0
    2.9308   -0.6873   -1.5236 C   0  0  0  0  0  0  0  0  0  0  0  0
   -2.9923   -2.1036   -0.8785 C   0  0  0  0  0  0  0  0  0  0  0  0
    2.9925   -2.1029    0.8794 C   0  0  0  0  0  0  0  0  0  0  0  0
   -2.7493   -2.0687    1.5249 C   0  0  0  0  0  0  0  0  0  0  0  0
    2.7485   -2.0703   -1.5240 C   0  0  0  0  0  0  0  0  0  0  0  0
   -2.7797   -2.7777    0.3241 C   0  0  0  0  0  0  0  0  0  0  0  0
    2.7792   -2.7781   -0.3225 C   0  0  0  0  0  0  0  0  0  0  0  0
    3.3359    1.4484   -0.3442 C   0  0  0  0  0  0  0  0  0  0  0  0
   -3.3359    1.4491    0.3417 C   0  0  0  0  0  0  0  0  0  0  0  0
    0.0003    2.4484    0.0009 C   0  0  0  0  0  0  0  0  0  0  0  0
    2.9048   -0.1463   -2.4660 H   0  0  0  0  0  0  0  0  0  0  0  0
   -2.9058   -0.1438    2.4652 H   0  0  0  0  0  0  0  0  0  0  0  0
   -3.0136   -2.6688   -1.8064 H   0  0  0  0  0  0  0  0  0  0  0  0
    3.0141   -2.6673    1.8079 H   0  0  0  0  0  0  0  0  0  0  0  0
   -2.5834   -2.5935    2.4612 H   0  0  0  0  0  0  0  0  0  0  0  0
    2.5821   -2.5959   -2.4597 H   0  0  0  0  0  0  0  0  0  0  0  0
   -2.6375   -3.8544    0.3256 H   0  0  0  0  0  0  0  0  0  0  0  0
    2.6369   -3.8548   -0.3228 H   0  0  0  0  0  0  0  0  0  0  0  0
    4.3648    1.8277   -0.4515 H   0  0  0  0  0  0  0  0  0  0  0  0
   -4.3651    1.8284    0.4457 H   0  0  0  0  0  0  0  0  0  0  0  0
   -1.0521    0.6582    0.1105 H   0  0  0  0  0  0  0  0  0  0  0  0
    1.0526    0.6578   -0.1048 H   0  0  0  0  0  0  0  0  0  0  0  0
    3.3720   -0.7314    2.7851 H   0  0  0  0  0  0  0  0  0  0  0  0
   -3.3711   -0.7339   -2.7857 H   0  0  0  0  0  0  0  0  0  0  0  0
  1 11  1  0  0  0  0
  1 35  1  0  0  0  0
  2 10  1  0  0  0  0
  2 36  1  0  0  0  0
  3 22  2  0  0  0  0
  4  7  1  0  0  0  0
  4 20  2  0  0  0  0
  5  6  1  0  0  0  0
  5 21  2  0  0  0  0
  6 22  1  0  0  0  0
  6 33  1  0  0  0  0
  7 22  1  0  0  0  0
  7 34  1  0  0  0  0
  8 11  1  0  0  0  0
  8 13  2  0  0  0  0
  8 20  1  0  0  0  0
  9 10  1  0  0  0  0
  9 12  2  0  0  0  0
  9 21  1  0  0  0  0
 10 14  2  0  0  0  0
 11 15  2  0  0  0  0
 12 16  1  0  0  0  0
 12 24  1  0  0  0  0
 13 17  1  0  0  0  0
 13 23  1  0  0  0  0
 14 18  1  0  0  0  0
 14 25  1  0  0  0  0
 15 19  1  0  0  0  0
 15 26  1  0  0  0  0
 16 18  2  0  0  0  0
 16 27  1  0  0  0  0
 17 19  2  0  0  0  0
 17 28  1  0  0  0  0
 18 29  1  0  0  0  0
 19 30  1  0  0  0  0
 20 31  1  0  0  0  0
 21 32  1  0  0  0  0
M  END
> <PUBCHEM_COMPOUND_CID>
136664108

> <PUBCHEM_CONFORMER_RMSD>
0.8

> <PUBCHEM_CONFORMER_DIVERSEORDER>
1
41
35
44
46
43
34
45
36
5
15
23
18
40
9
37
42
19
6
21
16
22
11
38
29
7
39
26
31
13
20
17
27
3
30
28
4
33
10
8
32
25
12
24
14
2

> <PUBCHEM_MMFF94_PARTIAL_CHARGES>
36
1 -0.53
10 0.08
11 0.08
12 -0.15
13 -0.15
14 -0.15
15 -0.15
16 -0.15
17 -0.15
18 -0.15
19 -0.15
2 -0.53
20 0.3
21 0.3
22 0.69
23 0.15
24 0.15
25 0.15
26 0.15
27 0.15
28 0.15
29 0.15
3 -0.57
30 0.15
31 0.06
32 0.06
33 0.37
34 0.37
35 0.45
36 0.45
4 -0.51
5 -0.51
6 -0.37
7 -0.37
8 0.09
9 0.09

> <PUBCHEM_EFFECTIVE_ROTOR_COUNT>
6

> <PUBCHEM_PHARMACOPHORE_FEATURES>
9
1 1 donor
1 2 donor
1 3 acceptor
1 4 acceptor
1 5 acceptor
1 6 donor
1 7 donor
6 8 11 13 15 17 19 rings
6 9 10 12 14 16 18 rings

> <PUBCHEM_HEAVY_ATOM_COUNT>
22

> <PUBCHEM_ATOM_DEF_STEREO_COUNT>
0

> <PUBCHEM_ATOM_UDEF_STEREO_COUNT>
0

> <PUBCHEM_BOND_DEF_STEREO_COUNT>
2

> <PUBCHEM_BOND_UDEF_STEREO_COUNT>
0

> <PUBCHEM_ISOTOPIC_ATOM_COUNT>
0

> <PUBCHEM_COMPONENT_COUNT>
1

> <PUBCHEM_CACTVS_TAUTO_COUNT>
-1

> <PUBCHEM_CONFORMER_ID>
0825542C00000001

> <PUBCHEM_MMFF94_ENERGY>
81.431

> <PUBCHEM_FEATURE_SELFOVERLAP>
45.735

> <PUBCHEM_SHAPE_FINGERPRINT>
10616163 171 18339930406042941956
117890 22 18341618092088407376
12539773 59 17488761093589046779
12553582 1 18410860961986744101
13122387 1 18410861000636623234
13224815 77 18131070450043405566
14251705 54 18338526359769689903
14916288 52 18339090267627360382
15635459 17 18336267962918055475
17809404 112 18266718290462893775
19026451 147 17980458368118988591
19930381 70 18409733971702131611
20291156 8 18410865355732974176
20442098 301 18343024367497340636
21315759 227 18042126633777716555
21315764 21 16734935736601540999
21315764 371 16486112067410363182
238 59 17832419070145211491
314173 41 18336276720425060681
445580 102 18046913958860472467
463206 1 17619908800356547015
5309563 4 17761501683077917835
9709674 26 18411984632937409476
9795274 37 18187649128091625490

> <PUBCHEM_SHAPE_MULTIPOLES>
415.22
8.25
3.87
1.54
0
1.3
0
-3.19
0
0
0
0
-0.77
0.26

> <PUBCHEM_SHAPE_SELFOVERLAP>
886.323

> <PUBCHEM_SHAPE_VOLUME>
228.4

> <PUBCHEM_COORDINATE_TYPE>
2
5
10

$$$$
