136662877
  -OEChem-03292013293D

 29 30  0     0  0  0  0  0  0999 V2000
    0.2273   -0.5459   -2.2962 O   0  5  0  0  0  0  0  0  0  0  0  0
    1.9173    1.9961    2.1050 O   0  5  0  0  0  0  0  0  0  0  0  0
   -3.4393   -1.2788    1.2508 O   0  0  0  0  0  0  0  0  0  0  0  0
   -4.7407   -0.0969   -0.2286 O   0  0  0  0  0  0  0  0  0  0  0  0
    0.6540    0.0424   -1.2417 N   0  3  0  0  0  0  0  0  0  0  0  0
    1.5440    1.3643    1.0583 N   0  3  0  0  0  0  0  0  0  0  0  0
   -2.4274    1.1031   -1.1198 N   0  0  0  0  0  0  0  0  0  0  0  0
   -2.4430    0.1778   -0.1348 N   0  0  0  0  0  0  0  0  0  0  0  0
    1.8100   -0.3910   -0.5981 C   0  0  0  0  0  0  0  0  0  0  0  0
    2.2599    0.2771    0.5645 C   0  0  0  0  0  0  0  0  0  0  0  0
   -0.0371    1.1196   -0.7348 C   0  0  0  0  0  0  0  0  0  0  0  0
    2.5299   -1.4843   -1.0948 C   0  0  0  0  0  0  0  0  0  0  0  0
    0.4039    1.7748    0.4049 C   0  0  0  0  0  0  0  0  0  0  0  0
    3.4223   -0.1587    1.2119 C   0  0  0  0  0  0  0  0  0  0  0  0
    3.6871   -1.9094   -0.4407 C   0  0  0  0  0  0  0  0  0  0  0  0
    4.1311   -1.2496    0.7071 C   0  0  0  0  0  0  0  0  0  0  0  0
   -1.2437    1.5646   -1.4130 C   0  0  0  0  0  0  0  0  0  0  0  0
   -3.6448   -0.3722    0.2498 C   0  0  0  0  0  0  0  0  0  0  0  0
   -4.6109   -1.9330    1.7503 C   0  0  0  0  0  0  0  0  0  0  0  0
   -0.0943    2.6244    0.8501 H   0  0  0  0  0  0  0  0  0  0  0  0
    2.2121   -2.0199   -1.9852 H   0  0  0  0  0  0  0  0  0  0  0  0
    3.7942    0.3328    2.1067 H   0  0  0  0  0  0  0  0  0  0  0  0
    4.2456   -2.7578   -0.8261 H   0  0  0  0  0  0  0  0  0  0  0  0
    5.0331   -1.5878    1.2094 H   0  0  0  0  0  0  0  0  0  0  0  0
   -1.1390    2.3222   -2.2059 H   0  0  0  0  0  0  0  0  0  0  0  0
   -1.5857   -0.1232    0.3118 H   0  0  0  0  0  0  0  0  0  0  0  0
   -4.3035   -2.6246    2.5392 H   0  0  0  0  0  0  0  0  0  0  0  0
   -5.0952   -2.5036    0.9520 H   0  0  0  0  0  0  0  0  0  0  0  0
   -5.3017   -1.1991    2.1760 H   0  0  0  0  0  0  0  0  0  0  0  0
  1  5  1  0  0  0  0
  2  6  1  0  0  0  0
  3 18  1  0  0  0  0
  3 19  1  0  0  0  0
  4 18  2  0  0  0  0
  5  9  1  0  0  0  0
  5 11  2  0  0  0  0
  6 10  1  0  0  0  0
  6 13  2  0  0  0  0
  7  8  1  0  0  0  0
  7 17  2  0  0  0  0
  8 18  1  0  0  0  0
  8 26  1  0  0  0  0
  9 10  1  0  0  0  0
  9 12  2  0  0  0  0
 10 14  2  0  0  0  0
 11 13  1  0  0  0  0
 11 17  1  0  0  0  0
 12 15  1  0  0  0  0
 12 21  1  0  0  0  0
 13 20  1  0  0  0  0
 14 16  1  0  0  0  0
 14 22  1  0  0  0  0
 15 16  2  0  0  0  0
 15 23  1  0  0  0  0
 16 24  1  0  0  0  0
 17 25  1  0  0  0  0
 19 27  1  0  0  0  0
 19 28  1  0  0  0  0
 19 29  1  0  0  0  0
M  CHG  4   1  -1   2  -1   5   1   6   1
M  END
> <PUBCHEM_COMPOUND_CID>
136662877

> <PUBCHEM_CONFORMER_RMSD>
0.6

> <PUBCHEM_CONFORMER_DIVERSEORDER>
2
13
6
5
12
14
11
3
1
10
7
4
8
9

> <PUBCHEM_MMFF94_PARTIAL_CHARGES>
26
1 -0.75
10 0.09
11 0.18
12 -0.15
13 -0.06
14 -0.15
15 -0.15
16 -0.15
17 0.3
18 0.78
19 0.28
2 -0.75
20 0.15
21 0.15
22 0.15
23 0.15
24 0.15
25 0.06
26 0.37
3 -0.43
4 -0.57
5 0.57
6 0.57
7 -0.51
8 -0.37
9 0.09

> <PUBCHEM_EFFECTIVE_ROTOR_COUNT>
4

> <PUBCHEM_PHARMACOPHORE_FEATURES>
7
1 1 anion
1 2 anion
1 4 acceptor
1 7 acceptor
1 8 donor
6 5 6 9 10 11 13 rings
6 9 10 12 14 15 16 rings

> <PUBCHEM_HEAVY_ATOM_COUNT>
19

> <PUBCHEM_ATOM_DEF_STEREO_COUNT>
0

> <PUBCHEM_ATOM_UDEF_STEREO_COUNT>
0

> <PUBCHEM_BOND_DEF_STEREO_COUNT>
1

> <PUBCHEM_BOND_UDEF_STEREO_COUNT>
0

> <PUBCHEM_ISOTOPIC_ATOM_COUNT>
0

> <PUBCHEM_COMPONENT_COUNT>
1

> <PUBCHEM_CACTVS_TAUTO_COUNT>
-1

> <PUBCHEM_CONFORMER_ID>
08254F5D00000002

> <PUBCHEM_MMFF94_ENERGY>
61.7197

> <PUBCHEM_FEATURE_SELFOVERLAP>
35.556

> <PUBCHEM_SHAPE_FINGERPRINT>
10764073 3 8063057768260924348
11086676 242 17275102791388025272
11471102 22 18060411408968189252
11543360 7 17459198399993369166
11578080 2 15648151110446019004
11640471 11 14979954778790304999
11796584 16 17967812695924732411
12251169 10 17632286882832861269
12363563 72 18041287646729777139
12596602 18 16056300813250349823
12633257 1 17917999407743945011
12644460 14 17988638644803918560
12670546 177 10737296757398892993
13140716 1 17486744610843595616
13965767 371 14763253063191223267
15209294 21 15123495996163795122
15422964 175 18199750241597874462
16752209 62 17023168398144943181
16945 1 17487588928441989916
17357990 137 15697997487160394080
18915474 69 16732707146548244067
19862831 5 15213022643775884905
20723712 36 16056604257074132224
20739085 24 17132121208522274608
21427221 339 15410897327510371938
231179 274 9439398034514424286
23184049 59 17131824340187583606
23402539 116 14274020945065030422
23503958 8 17822289029068719651
23559900 14 18040147405499917684
25 1 11458430102580609308
2748010 2 17056661601133635716
2838139 119 10519686874949212050
38570 142 16485566753273356176
4028521 119 9799692597526680251
568465 68 18271523113347415238
602551 16 17967809405831655337
603831 33 15140958413765675588
7471813 234 13335553750132443152
7808743 9 12607397819229855811

> <PUBCHEM_SHAPE_MULTIPOLES>
347.61
8.36
2.07
1.8
7.21
0.34
0.18
6.51
1.79
1.04
0.4
-0.93
-0.31
1.94

> <PUBCHEM_SHAPE_SELFOVERLAP>
744.099

> <PUBCHEM_SHAPE_VOLUME>
191.5

> <PUBCHEM_COORDINATE_TYPE>
2
5
10

$$$$
