136663960
  -OEChem-03292013293D

 34 36  0     1  0  0  0  0  0999 V2000
    2.0991   -0.0483    1.2494 O   0  0  0  0  0  0  0  0  0  0  0  0
    1.9011   -2.6170   -0.7039 O   0  0  0  0  0  0  0  0  0  0  0  0
    2.8191    0.7662   -1.5441 O   0  0  0  0  0  0  0  0  0  0  0  0
   -4.1632    2.1316   -0.3736 O   0  0  0  0  0  0  0  0  0  0  0  0
   -0.1093    0.2413    0.2642 N   0  0  0  0  0  0  0  0  0  0  0  0
    5.5530    0.7435    0.1684 N   0  0  0  0  0  0  0  0  0  0  0  0
   -1.2055    2.1565   -0.0995 N   0  0  0  0  0  0  0  0  0  0  0  0
   -1.9540   -1.3254    0.3049 N   0  0  0  0  0  0  0  0  0  0  0  0
   -4.0271   -0.1766   -0.0460 N   0  0  0  0  0  0  0  0  0  0  0  0
   -3.9836   -2.5085    0.2756 N   0  0  0  0  0  0  0  0  0  0  0  0
    1.6784   -1.2118   -0.8023 C   0  0  1  0  0  0  0  0  0  0  0  0
    1.0526   -0.6988    0.5008 C   0  0  1  0  0  0  0  0  0  0  0  0
    3.0043   -0.4810   -0.8864 C   0  0  2  0  0  0  0  0  0  0  0  0
    3.3519   -0.2663    0.5806 C   0  0  1  0  0  0  0  0  0  0  0  0
    4.2827    0.8981    0.8672 C   0  0  0  0  0  0  0  0  0  0  0  0
   -1.4310   -0.0851    0.1848 C   0  0  0  0  0  0  0  0  0  0  0  0
   -0.0243    1.6007    0.0868 C   0  0  0  0  0  0  0  0  0  0  0  0
   -2.0751    1.1079   -0.0381 C   0  0  0  0  0  0  0  0  0  0  0  0
   -3.5054    1.1185   -0.1737 C   0  0  0  0  0  0  0  0  0  0  0  0
   -3.2637   -1.3455    0.1849 C   0  0  0  0  0  0  0  0  0  0  0  0
    1.0409   -1.0394   -1.6761 H   0  0  0  0  0  0  0  0  0  0  0  0
    0.6480   -1.5035    1.1253 H   0  0  0  0  0  0  0  0  0  0  0  0
    3.7851   -1.0415   -1.4102 H   0  0  0  0  0  0  0  0  0  0  0  0
    3.7695   -1.1923    0.9980 H   0  0  0  0  0  0  0  0  0  0  0  0
    4.4623    0.9643    1.9469 H   0  0  0  0  0  0  0  0  0  0  0  0
    3.8167    1.8494    0.5858 H   0  0  0  0  0  0  0  0  0  0  0  0
    1.0318   -3.0422   -0.6076 H   0  0  0  0  0  0  0  0  0  0  0  0
    2.5496    0.5762   -2.4589 H   0  0  0  0  0  0  0  0  0  0  0  0
    0.9183    2.1303    0.1039 H   0  0  0  0  0  0  0  0  0  0  0  0
    6.0055   -0.1198    0.4662 H   0  0  0  0  0  0  0  0  0  0  0  0
    6.1798    1.5017    0.4348 H   0  0  0  0  0  0  0  0  0  0  0  0
   -5.0342   -0.2837   -0.1259 H   0  0  0  0  0  0  0  0  0  0  0  0
   -3.5253   -3.3982    0.4396 H   0  0  0  0  0  0  0  0  0  0  0  0
   -4.9934   -2.5143    0.1816 H   0  0  0  0  0  0  0  0  0  0  0  0
  1 12  1  0  0  0  0
  1 14  1  0  0  0  0
  2 11  1  0  0  0  0
  2 27  1  0  0  0  0
  3 13  1  0  0  0  0
  3 28  1  0  0  0  0
  4 19  2  0  0  0  0
  5 12  1  0  0  0  0
  5 16  1  0  0  0  0
  5 17  1  0  0  0  0
  6 15  1  0  0  0  0
  6 30  1  0  0  0  0
  6 31  1  0  0  0  0
  7 17  2  0  0  0  0
  7 18  1  0  0  0  0
  8 16  1  0  0  0  0
  8 20  2  0  0  0  0
  9 19  1  0  0  0  0
  9 20  1  0  0  0  0
  9 32  1  0  0  0  0
 10 20  1  0  0  0  0
 10 33  1  0  0  0  0
 10 34  1  0  0  0  0
 11 12  1  0  0  0  0
 11 13  1  0  0  0  0
 11 21  1  0  0  0  0
 12 22  1  0  0  0  0
 13 14  1  0  0  0  0
 13 23  1  0  0  0  0
 14 15  1  0  0  0  0
 14 24  1  0  0  0  0
 15 25  1  0  0  0  0
 15 26  1  0  0  0  0
 16 18  2  0  0  0  0
 17 29  1  0  0  0  0
 18 19  1  0  0  0  0
M  END
> <PUBCHEM_COMPOUND_CID>
136663960

> <PUBCHEM_CONFORMER_RMSD>
0.6

> <PUBCHEM_CONFORMER_DIVERSEORDER>
1
5
15
20
7
16
19
21
11
17
3
12
4
2
14
13
8
9
18
10
6

> <PUBCHEM_MMFF94_PARTIAL_CHARGES>
28
1 -0.56
10 -0.85
11 0.28
12 0.54
13 0.28
14 0.28
15 0.27
16 -0.03
17 0.04
18 0.14
19 0.72
2 -0.68
20 0.56
27 0.4
28 0.4
29 0.15
3 -0.68
30 0.36
31 0.36
32 0.37
33 0.4
34 0.4
4 -0.57
5 0.05
6 -0.99
7 -0.57
8 -0.58
9 -0.49

> <PUBCHEM_EFFECTIVE_ROTOR_COUNT>
3

> <PUBCHEM_PHARMACOPHORE_FEATURES>
14
1 1 acceptor
1 10 donor
1 2 acceptor
1 2 donor
1 3 acceptor
1 3 donor
1 4 acceptor
1 6 cation
1 6 donor
1 9 donor
3 5 7 17 cation
5 1 11 12 13 14 rings
5 5 7 16 17 18 rings
6 8 9 16 18 19 20 rings

> <PUBCHEM_HEAVY_ATOM_COUNT>
20

> <PUBCHEM_ATOM_DEF_STEREO_COUNT>
3

> <PUBCHEM_ATOM_UDEF_STEREO_COUNT>
1

> <PUBCHEM_BOND_DEF_STEREO_COUNT>
0

> <PUBCHEM_BOND_UDEF_STEREO_COUNT>
0

> <PUBCHEM_ISOTOPIC_ATOM_COUNT>
0

> <PUBCHEM_COMPONENT_COUNT>
1

> <PUBCHEM_CACTVS_TAUTO_COUNT>
-1

> <PUBCHEM_CONFORMER_ID>
0825539800000001

> <PUBCHEM_MMFF94_ENERGY>
42.1374

> <PUBCHEM_FEATURE_SELFOVERLAP>
71.228

> <PUBCHEM_SHAPE_FINGERPRINT>
10366900 7 17774708801664587121
10498660 4 18411420583446136084
10616163 171 18411138043417892663
11132069 177 18335703818968916117
12173636 292 18192147093143955277
12236239 1 17458339736597843266
12403259 415 18059852918013715360
12553582 1 18194411202344667815
128620 24 18334298681757854418
13134695 92 14490186124923306646
13140716 1 17907582780595628059
13214271 11 18341606031814978573
13224815 77 18342742900994442074
13296908 3 18059858350535310775
15099037 37 18410007775386677443
15196674 1 18411135814250478426
15219456 202 18272932687227869674
15375358 24 18342170042646440345
16945 1 18339083692270027897
17980427 23 17967535713773730396
18186145 218 17896322407057961015
19784866 170 18413388735087388866
200 152 15719384049140246419
20279233 1 18272650121382089979
20510252 161 18198903604892058241
20645477 56 18336264544667556161
20645477 70 17274538711552276414
21267235 1 18335426810985020835
21618674 54 18410011009444427135
23402539 116 18261386767554448618
23557571 272 18412548734089590416
23559900 14 18268710520107649846
2748010 2 18266729354873453377
296302 2 18342736295324275713
34934 24 18337665330849328545
3545911 37 18410014290862491516
474 4 16950858010690058796
474229 33 18341610473254540478
495365 180 17487598750583536579
5104073 3 18412544275818858730
58051976 378 18411980247680699036
7364860 26 18124879212116616729
77492 1 17385724681706657923
81228 2 18262812752383888553
9709674 26 18270400477710903599

> <PUBCHEM_SHAPE_MULTIPOLES>
358.23
9.03
2.21
0.93
2.62
0.54
0.11
-0.9
-0.41
-1.87
0.22
0.83
0.02
0.77

> <PUBCHEM_SHAPE_SELFOVERLAP>
776.898

> <PUBCHEM_SHAPE_VOLUME>
195

> <PUBCHEM_COORDINATE_TYPE>
2
5
10

$$$$
