136674916
  -OEChem-03292013293D

 33 35  0     1  0  0  0  0  0999 V2000
   -2.3755   -0.1565    0.9379 O   0  0  0  0  0  0  0  0  0  0  0  0
   -3.5008    2.5343   -0.1005 O   0  0  0  0  0  0  0  0  0  0  0  0
   -4.3716   -2.0900    0.6378 O   0  0  0  0  0  0  0  0  0  0  0  0
    4.2350   -1.9184   -0.3263 O   0  0  0  0  0  0  0  0  0  0  0  0
    1.2300   -2.1162   -0.2238 N   0  0  0  0  0  0  0  0  0  0  0  0
    1.7508    1.3693    0.2563 N   0  0  0  0  0  0  0  0  0  0  0  0
    3.9127    0.3537    0.0150 N   0  0  0  0  0  0  0  0  0  0  0  0
    3.7014    2.6613    0.3574 N   0  0  0  0  0  0  0  0  0  0  0  0
   -1.3056    0.5364    0.2685 C   0  0  2  0  0  0  0  0  0  0  0  0
   -1.8755    1.0423   -1.0524 C   0  0  0  0  0  0  0  0  0  0  0  0
   -3.3334    1.2589   -0.7157 C   0  0  1  0  0  0  0  0  0  0  0  0
   -3.6257    0.1526    0.2896 C   0  0  1  0  0  0  0  0  0  0  0  0
   -0.0865   -0.3343    0.0905 C   0  0  0  0  0  0  0  0  0  0  0  0
   -4.1395   -1.1207   -0.3690 C   0  0  0  0  0  0  0  0  0  0  0  0
    1.2598    0.0681    0.0900 C   0  0  0  0  0  0  0  0  0  0  0  0
   -0.0776   -1.7014   -0.1071 C   0  0  0  0  0  0  0  0  0  0  0  0
    2.0564   -1.0324   -0.1035 C   0  0  0  0  0  0  0  0  0  0  0  0
    3.4845   -0.9638   -0.1561 C   0  0  0  0  0  0  0  0  0  0  0  0
    3.0610    1.4570    0.2115 C   0  0  0  0  0  0  0  0  0  0  0  0
   -1.0475    1.3884    0.9104 H   0  0  0  0  0  0  0  0  0  0  0  0
   -1.3610    1.9460   -1.3943 H   0  0  0  0  0  0  0  0  0  0  0  0
   -1.7865    0.2784   -1.8345 H   0  0  0  0  0  0  0  0  0  0  0  0
   -3.9787    1.2337   -1.5989 H   0  0  0  0  0  0  0  0  0  0  0  0
   -4.3194    0.4736    1.0746 H   0  0  0  0  0  0  0  0  0  0  0  0
   -3.4046   -1.5354   -1.0665 H   0  0  0  0  0  0  0  0  0  0  0  0
   -5.0779   -0.9349   -0.9005 H   0  0  0  0  0  0  0  0  0  0  0  0
   -0.8816   -2.4210   -0.1773 H   0  0  0  0  0  0  0  0  0  0  0  0
   -4.4383    2.6176    0.1442 H   0  0  0  0  0  0  0  0  0  0  0  0
    1.5275   -3.0704   -0.3748 H   0  0  0  0  0  0  0  0  0  0  0  0
   -4.6995   -2.8910    0.1946 H   0  0  0  0  0  0  0  0  0  0  0  0
    4.9133    0.5280   -0.0037 H   0  0  0  0  0  0  0  0  0  0  0  0
    3.1797    3.5185    0.5041 H   0  0  0  0  0  0  0  0  0  0  0  0
    4.7125    2.7305    0.3232 H   0  0  0  0  0  0  0  0  0  0  0  0
  1  9  1  0  0  0  0
  1 12  1  0  0  0  0
  2 11  1  0  0  0  0
  2 28  1  0  0  0  0
  3 14  1  0  0  0  0
  3 30  1  0  0  0  0
  4 18  2  0  0  0  0
  5 16  1  0  0  0  0
  5 17  1  0  0  0  0
  5 29  1  0  0  0  0
  6 15  1  0  0  0  0
  6 19  2  0  0  0  0
  7 18  1  0  0  0  0
  7 19  1  0  0  0  0
  7 31  1  0  0  0  0
  8 19  1  0  0  0  0
  8 32  1  0  0  0  0
  8 33  1  0  0  0  0
  9 10  1  0  0  0  0
  9 13  1  0  0  0  0
  9 20  1  0  0  0  0
 10 11  1  0  0  0  0
 10 21  1  0  0  0  0
 10 22  1  0  0  0  0
 11 12  1  0  0  0  0
 11 23  1  0  0  0  0
 12 14  1  0  0  0  0
 12 24  1  0  0  0  0
 13 15  1  0  0  0  0
 13 16  2  0  0  0  0
 14 25  1  0  0  0  0
 14 26  1  0  0  0  0
 15 17  2  0  0  0  0
 16 27  1  0  0  0  0
 17 18  1  0  0  0  0
M  END
> <PUBCHEM_COMPOUND_CID>
136674916

> <PUBCHEM_CONFORMER_RMSD>
0.6

> <PUBCHEM_CONFORMER_DIVERSEORDER>
1
6
7
14
12
8
2
10
11
9
5
13
4
3

> <PUBCHEM_MMFF94_PARTIAL_CHARGES>
25
1 -0.56
11 0.28
12 0.28
13 -0.18
14 0.28
15 0.12
16 -0.3
17 -0.24
18 0.71
19 0.56
2 -0.68
27 0.15
28 0.4
29 0.27
3 -0.68
30 0.4
31 0.37
32 0.4
33 0.4
4 -0.57
5 0.03
6 -0.57
7 -0.49
8 -0.85
9 0.46

> <PUBCHEM_EFFECTIVE_ROTOR_COUNT>
3

> <PUBCHEM_PHARMACOPHORE_FEATURES>
13
1 1 acceptor
1 2 acceptor
1 2 donor
1 3 acceptor
1 3 donor
1 4 acceptor
1 5 cation
1 5 donor
1 7 donor
1 8 donor
5 1 9 10 11 12 rings
5 5 13 15 16 17 rings
6 6 7 15 17 18 19 rings

> <PUBCHEM_HEAVY_ATOM_COUNT>
19

> <PUBCHEM_ATOM_DEF_STEREO_COUNT>
3

> <PUBCHEM_ATOM_UDEF_STEREO_COUNT>
0

> <PUBCHEM_BOND_DEF_STEREO_COUNT>
0

> <PUBCHEM_BOND_UDEF_STEREO_COUNT>
0

> <PUBCHEM_ISOTOPIC_ATOM_COUNT>
0

> <PUBCHEM_COMPONENT_COUNT>
1

> <PUBCHEM_CACTVS_TAUTO_COUNT>
-1

> <PUBCHEM_CONFORMER_ID>
08257E6400000001

> <PUBCHEM_MMFF94_ENERGY>
39.4188

> <PUBCHEM_FEATURE_SELFOVERLAP>
66.137

> <PUBCHEM_SHAPE_FINGERPRINT>
10608611 8 18408601431348100573
11405975 8 18338234860566164089
11471102 20 18340483366356113412
11615757 297 18202568362571436515
12403259 226 18408600336300102292
12403259 415 18408041814178524724
12403260 363 18408876343619836850
12500047 106 18117274757928549877
12507557 5 18341046320440945896
12916754 54 18413110558819797251
13583140 156 17459444754568890946
13675066 3 17988915639918547826
14289901 80 18412822495347242009
15196674 1 18411138030332101948
15219456 202 18408322172569077449
15536298 74 18341894099682539524
16945 1 18270684156364351078
18175812 5 18334576811049974349
18186145 218 18202290182066750256
19930381 70 18195523925017773713
200 152 18131624578687648607
20449540 30 18272091578540167113
20645477 56 18116434744151610749
20645477 70 18272084955241530966
20681677 76 18335696152578886853
21065198 57 18337953389858001109
21524375 3 18268991050048948682
21709351 56 18341044125586076830
221490 88 18410860957839677754
22854114 111 18411699889690910180
22854114 59 18411982489658954177
23402539 116 17023187071950693663
23402655 69 18271241634202376876
23557571 272 17748828484522651349
23559900 14 18267297638838815202
2748010 2 18339932627137236782
2871803 45 18334850641497061999
296302 2 9079111167894197646
3286 77 18408322172748289422
335352 9 18195245507766789708
350125 39 18411142480240071430
4214541 1 18338517439491861733
5104073 3 18410572872797185369
5281201 14 18411984637327329044
5283173 99 18041542673725219181
6333272 397 18337106886163678480
633830 44 18340199709098140804
77779 3 18411700976206957221
9709674 26 18335424598929267779

> <PUBCHEM_SHAPE_MULTIPOLES>
347.61
8.79
2.47
0.77
1.14
0.45
0.04
0.04
-0.07
-0.48
-0.01
0.38
0.05
0.9

> <PUBCHEM_SHAPE_SELFOVERLAP>
757.524

> <PUBCHEM_SHAPE_VOLUME>
187.8

> <PUBCHEM_COORDINATE_TYPE>
2
5
10

$$$$
