136663942
  -OEChem-03292013293D

 31 33  0     1  0  0  0  0  0999 V2000
    2.0192    0.1728    0.9931 O   0  0  0  0  0  0  0  0  0  0  0  0
    1.8751   -2.7450   -0.3921 O   0  0  0  0  0  0  0  0  0  0  0  0
    2.4733    0.4468   -1.9572 O   0  0  0  0  0  0  0  0  0  0  0  0
    4.4058    1.5222    1.5794 O   0  0  0  0  0  0  0  0  0  0  0  0
   -4.5304    1.5532   -0.4679 O   0  0  0  0  0  0  0  0  0  0  0  0
   -0.2697    0.1257    0.1626 N   0  0  0  0  0  0  0  0  0  0  0  0
   -0.1469    1.3973   -0.2713 N   0  0  0  0  0  0  0  0  0  0  0  0
   -1.9649   -1.5145    0.6725 N   0  0  0  0  0  0  0  0  0  0  0  0
   -4.1622   -0.6196    0.2933 N   0  0  0  0  0  0  0  0  0  0  0  0
    1.5408   -1.4045   -0.7458 C   0  0  2  0  0  0  0  0  0  0  0  0
    2.7986   -0.6284   -1.0851 C   0  0  2  0  0  0  0  0  0  0  0  0
    0.9735   -0.6766    0.4794 C   0  0  1  0  0  0  0  0  0  0  0  0
    3.2335   -0.1013    0.2757 C   0  0  1  0  0  0  0  0  0  0  0  0
    4.0924    1.1501    0.2469 C   0  0  0  0  0  0  0  0  0  0  0  0
   -1.5632   -0.2877    0.2629 C   0  0  0  0  0  0  0  0  0  0  0  0
   -2.3319    0.7832   -0.1310 C   0  0  0  0  0  0  0  0  0  0  0  0
   -1.4138    1.7931   -0.4491 C   0  0  0  0  0  0  0  0  0  0  0  0
   -3.7675    0.6549   -0.1336 C   0  0  0  0  0  0  0  0  0  0  0  0
   -3.2617   -1.6215    0.6674 C   0  0  0  0  0  0  0  0  0  0  0  0
    0.8309   -1.4500   -1.5786 H   0  0  0  0  0  0  0  0  0  0  0  0
    0.6769   -1.3615    1.2819 H   0  0  0  0  0  0  0  0  0  0  0  0
    3.5845   -1.2315   -1.5504 H   0  0  0  0  0  0  0  0  0  0  0  0
    3.7445   -0.8903    0.8424 H   0  0  0  0  0  0  0  0  0  0  0  0
    3.5560    1.9910   -0.2041 H   0  0  0  0  0  0  0  0  0  0  0  0
    5.0229    0.9750   -0.3014 H   0  0  0  0  0  0  0  0  0  0  0  0
    1.0493   -3.1929   -0.1405 H   0  0  0  0  0  0  0  0  0  0  0  0
    2.1579    0.0599   -2.7917 H   0  0  0  0  0  0  0  0  0  0  0  0
   -1.6019    2.7971   -0.8012 H   0  0  0  0  0  0  0  0  0  0  0  0
    4.9578    2.3213    1.5313 H   0  0  0  0  0  0  0  0  0  0  0  0
   -3.7635   -2.5529    0.9721 H   0  0  0  0  0  0  0  0  0  0  0  0
   -5.1567   -0.8237    0.3315 H   0  0  0  0  0  0  0  0  0  0  0  0
  1 12  1  0  0  0  0
  1 13  1  0  0  0  0
  2 10  1  0  0  0  0
  2 26  1  0  0  0  0
  3 11  1  0  0  0  0
  3 27  1  0  0  0  0
  4 14  1  0  0  0  0
  4 29  1  0  0  0  0
  5 18  2  0  0  0  0
  6  7  1  0  0  0  0
  6 12  1  0  0  0  0
  6 15  1  0  0  0  0
  7 17  2  0  0  0  0
  8 15  1  0  0  0  0
  8 19  2  0  0  0  0
  9 18  1  0  0  0  0
  9 19  1  0  0  0  0
  9 31  1  0  0  0  0
 10 11  1  0  0  0  0
 10 12  1  0  0  0  0
 10 20  1  0  0  0  0
 11 13  1  0  0  0  0
 11 22  1  0  0  0  0
 12 21  1  0  0  0  0
 13 14  1  0  0  0  0
 13 23  1  0  0  0  0
 14 24  1  0  0  0  0
 14 25  1  0  0  0  0
 15 16  2  0  0  0  0
 16 17  1  0  0  0  0
 16 18  1  0  0  0  0
 17 28  1  0  0  0  0
 19 30  1  0  0  0  0
M  END
> <PUBCHEM_COMPOUND_CID>
136663942

> <PUBCHEM_CONFORMER_RMSD>
0.6

> <PUBCHEM_CONFORMER_DIVERSEORDER>
1
4
12
6
7
9
19
20
8
5
24
18
22
13
21
17
15
2
3
11
14
23
10
16

> <PUBCHEM_MMFF94_PARTIAL_CHARGES>
25
1 -0.56
10 0.28
11 0.28
12 0.54
13 0.28
14 0.28
15 -0.03
16 -0.09
17 0.14
18 0.72
19 0.45
2 -0.68
26 0.4
27 0.4
28 0.15
29 0.4
3 -0.68
30 0.06
31 0.37
4 -0.68
5 -0.57
6 0.31
7 -0.71
8 -0.58
9 -0.49

> <PUBCHEM_EFFECTIVE_ROTOR_COUNT>
3

> <PUBCHEM_PHARMACOPHORE_FEATURES>
13
1 1 acceptor
1 2 acceptor
1 2 donor
1 3 acceptor
1 3 donor
1 4 acceptor
1 4 donor
1 5 acceptor
1 7 acceptor
1 9 donor
5 1 10 11 12 13 rings
5 6 7 15 16 17 rings
6 8 9 15 16 18 19 rings

> <PUBCHEM_HEAVY_ATOM_COUNT>
19

> <PUBCHEM_ATOM_DEF_STEREO_COUNT>
3

> <PUBCHEM_ATOM_UDEF_STEREO_COUNT>
1

> <PUBCHEM_BOND_DEF_STEREO_COUNT>
0

> <PUBCHEM_BOND_UDEF_STEREO_COUNT>
0

> <PUBCHEM_ISOTOPIC_ATOM_COUNT>
0

> <PUBCHEM_COMPONENT_COUNT>
1

> <PUBCHEM_CACTVS_TAUTO_COUNT>
-1

> <PUBCHEM_CONFORMER_ID>
0825538600000001

> <PUBCHEM_MMFF94_ENERGY>
43.39

> <PUBCHEM_FEATURE_SELFOVERLAP>
66.104

> <PUBCHEM_SHAPE_FINGERPRINT>
10608611 8 18339641139990437424
107287 299 17917992776229757918
10871710 139 16393523546762551820
11132069 177 18261112976005270125
12173636 292 18189613844170647541
12236239 1 17022621987957513272
12553582 1 18046645652797063595
13214271 11 18410848901924129941
13296908 3 18272094881100803783
14866123 147 10741163675158411444
15219456 202 18342176656753722922
15375358 24 18411414016551650433
16945 1 18336277777139749429
17980427 23 17822570628889730148
19784866 170 18410293631351180384
200 152 17417807301507890383
20279233 1 18413390925526094963
20510252 161 18339923697879506505
20645477 56 18261114024404753229
20645477 70 17703790262801830878
23402539 116 18187076274027722854
23557571 272 18336555987830376474
23559900 14 18335707083481729982
2748010 2 18337124379645031615
296302 2 18272367589922591185
34934 24 18408878530122135343
474 4 15937839499161287412
495365 180 17844793816054948603
5104073 3 18337393747166607203
633830 44 16773252703332920127
7364860 26 18268146453478802554
77492 1 16805326604028762499
81228 2 18115320964093968057
9709674 26 18409735027989506847

> <PUBCHEM_SHAPE_MULTIPOLES>
341.74
8.25
1.99
1.1
1.15
0.57
-0.15
-2.15
1
0.08
-0.05
-1.11
-0.12
1.32

> <PUBCHEM_SHAPE_SELFOVERLAP>
741.711

> <PUBCHEM_SHAPE_VOLUME>
184.2

> <PUBCHEM_COORDINATE_TYPE>
2
5
10

$$$$
