136744537
  -OEChem-03292013293D

 49 53  0     0  0  0  0  0  0999 V2000
    4.1656    1.7364    0.7405 O   0  0  0  0  0  0  0  0  0  0  0  0
   -0.6332   -1.9986   -1.5912 O   0  0  0  0  0  0  0  0  0  0  0  0
    2.8305    3.8750    0.5305 O   0  0  0  0  0  0  0  0  0  0  0  0
   -2.9341   -2.5535   -0.3132 O   0  0  0  0  0  0  0  0  0  0  0  0
    5.4840   -0.5964    0.6395 O   0  0  0  0  0  0  0  0  0  0  0  0
   -6.4617   -0.5898    1.0518 O   0  0  0  0  0  0  0  0  0  0  0  0
    0.5650    0.9889   -0.2317 C   0  0  0  0  0  0  0  0  0  0  0  0
   -0.7378    1.7458   -0.2940 C   0  0  0  0  0  0  0  0  0  0  0  0
    0.6377   -0.3532   -0.4144 C   0  0  0  0  0  0  0  0  0  0  0  0
    1.8267    1.7220    0.1250 C   0  0  0  0  0  0  0  0  0  0  0  0
   -1.9029    1.0493   -0.1521 C   0  0  0  0  0  0  0  0  0  0  0  0
    1.9009   -1.0936   -0.2000 C   0  0  0  0  0  0  0  0  0  0  0  0
   -1.8651   -0.4177   -0.3111 C   0  0  0  0  0  0  0  0  0  0  0  0
    3.1273   -0.3654    0.1753 C   0  0  0  0  0  0  0  0  0  0  0  0
   -0.6195   -1.0384   -0.8304 C   0  0  0  0  0  0  0  0  0  0  0  0
   -0.6263    3.2191   -0.4314 C   0  0  0  0  0  0  0  0  0  0  0  0
    3.0829    0.9739    0.3528 C   0  0  0  0  0  0  0  0  0  0  0  0
    1.7530    3.0757    0.1987 C   0  0  0  0  0  0  0  0  0  0  0  0
    0.5556    3.8080   -0.1685 C   0  0  0  0  0  0  0  0  0  0  0  0
   -2.9603   -1.1858   -0.1154 C   0  0  0  0  0  0  0  0  0  0  0  0
    1.9669   -2.4407   -0.2625 C   0  0  0  0  0  0  0  0  0  0  0  0
   -3.2072    1.6548    0.1550 C   0  0  0  0  0  0  0  0  0  0  0  0
    4.4081   -1.1261    0.3831 C   0  0  0  0  0  0  0  0  0  0  0  0
   -4.2267   -0.5593    0.3035 C   0  0  0  0  0  0  0  0  0  0  0  0
   -1.7049    4.0666   -1.0518 C   0  0  0  0  0  0  0  0  0  0  0  0
    3.1804   -3.2026   -0.0387 C   0  0  0  0  0  0  0  0  0  0  0  0
   -4.2977    0.9003    0.3683 C   0  0  0  0  0  0  0  0  0  0  0  0
    4.3368   -2.6000    0.2626 C   0  0  0  0  0  0  0  0  0  0  0  0
    3.0713   -4.6935   -0.1660 C   0  0  0  0  0  0  0  0  0  0  0  0
   -5.3241   -1.2562    0.6525 C   0  0  0  0  0  0  0  0  0  0  0  0
   -5.3911   -2.7451    0.6334 C   0  0  0  0  0  0  0  0  0  0  0  0
    0.6629    4.8802   -0.3164 H   0  0  0  0  0  0  0  0  0  0  0  0
    1.0942   -3.0499   -0.4695 H   0  0  0  0  0  0  0  0  0  0  0  0
   -3.3120    2.7197    0.2938 H   0  0  0  0  0  0  0  0  0  0  0  0
   -2.2913    3.5040   -1.7853 H   0  0  0  0  0  0  0  0  0  0  0  0
   -1.2778    4.9157   -1.5998 H   0  0  0  0  0  0  0  0  0  0  0  0
   -2.3660    4.4864   -0.2882 H   0  0  0  0  0  0  0  0  0  0  0  0
   -5.2269    1.4003    0.6227 H   0  0  0  0  0  0  0  0  0  0  0  0
    5.2515   -3.1589    0.4278 H   0  0  0  0  0  0  0  0  0  0  0  0
    4.9348    1.1619    0.8790 H   0  0  0  0  0  0  0  0  0  0  0  0
    2.7392   -4.9709   -1.1724 H   0  0  0  0  0  0  0  0  0  0  0  0
    2.3525   -5.0904    0.5591 H   0  0  0  0  0  0  0  0  0  0  0  0
    4.0304   -5.1914    0.0138 H   0  0  0  0  0  0  0  0  0  0  0  0
    2.5558    4.8073    0.5272 H   0  0  0  0  0  0  0  0  0  0  0  0
   -2.0318   -2.8448   -0.5181 H   0  0  0  0  0  0  0  0  0  0  0  0
   -5.3128   -3.1388   -0.3850 H   0  0  0  0  0  0  0  0  0  0  0  0
   -6.3549   -3.1001    1.0171 H   0  0  0  0  0  0  0  0  0  0  0  0
   -4.6360   -3.1962    1.2851 H   0  0  0  0  0  0  0  0  0  0  0  0
   -7.1528   -1.2438    1.2490 H   0  0  0  0  0  0  0  0  0  0  0  0
  1 17  1  0  0  0  0
  1 40  1  0  0  0  0
  2 15  2  0  0  0  0
  3 18  1  0  0  0  0
  3 44  1  0  0  0  0
  4 20  1  0  0  0  0
  4 45  1  0  0  0  0
  5 23  2  0  0  0  0
  6 30  1  0  0  0  0
  6 49  1  0  0  0  0
  7  8  1  0  0  0  0
  7  9  2  0  0  0  0
  7 10  1  0  0  0  0
  8 11  2  0  0  0  0
  8 16  1  0  0  0  0
  9 12  1  0  0  0  0
  9 15  1  0  0  0  0
 10 17  1  0  0  0  0
 10 18  2  0  0  0  0
 11 13  1  0  0  0  0
 11 22  1  0  0  0  0
 12 14  1  0  0  0  0
 12 21  2  0  0  0  0
 13 15  1  0  0  0  0
 13 20  2  0  0  0  0
 14 17  2  0  0  0  0
 14 23  1  0  0  0  0
 16 19  2  0  0  0  0
 16 25  1  0  0  0  0
 18 19  1  0  0  0  0
 19 32  1  0  0  0  0
 20 24  1  0  0  0  0
 21 26  1  0  0  0  0
 21 33  1  0  0  0  0
 22 27  2  0  0  0  0
 22 34  1  0  0  0  0
 23 28  1  0  0  0  0
 24 27  1  0  0  0  0
 24 30  2  3  0  0  0
 25 35  1  0  0  0  0
 25 36  1  0  0  0  0
 25 37  1  0  0  0  0
 26 28  2  0  0  0  0
 26 29  1  0  0  0  0
 27 38  1  0  0  0  0
 28 39  1  0  0  0  0
 29 41  1  0  0  0  0
 29 42  1  0  0  0  0
 29 43  1  0  0  0  0
 30 31  1  0  0  0  0
 31 46  1  0  0  0  0
 31 47  1  0  0  0  0
 31 48  1  0  0  0  0
M  END
> <PUBCHEM_COMPOUND_CID>
136744537

> <PUBCHEM_CONFORMER_RMSD>
0.6

> <PUBCHEM_CONFORMER_DIVERSEORDER>
4
1
3
2

> <PUBCHEM_MMFF94_PARTIAL_CHARGES>
34
1 -0.53
13 0.01
14 0.01
15 0.54
16 -0.14
17 0.08
18 0.08
19 -0.15
2 -0.57
20 0.08
21 -0.15
22 -0.15
23 0.54
25 0.14
26 -0.14
27 -0.15
28 -0.14
29 0.14
3 -0.53
30 -0.06
31 0.14
32 0.15
33 0.15
34 0.15
38 0.15
39 0.15
4 -0.53
40 0.45
44 0.45
45 0.45
49 0.45
5 -0.57
6 -0.53
9 0.01

> <PUBCHEM_EFFECTIVE_ROTOR_COUNT>
0

> <PUBCHEM_PHARMACOPHORE_FEATURES>
11
1 1 donor
1 2 acceptor
1 3 donor
1 4 donor
1 5 acceptor
1 6 donor
6 11 13 20 22 24 27 rings
6 12 14 21 23 26 28 rings
6 7 8 10 16 18 19 rings
6 7 8 9 11 13 15 rings
6 7 9 10 12 14 17 rings

> <PUBCHEM_HEAVY_ATOM_COUNT>
31

> <PUBCHEM_ATOM_DEF_STEREO_COUNT>
0

> <PUBCHEM_ATOM_UDEF_STEREO_COUNT>
0

> <PUBCHEM_BOND_DEF_STEREO_COUNT>
0

> <PUBCHEM_BOND_UDEF_STEREO_COUNT>
1

> <PUBCHEM_ISOTOPIC_ATOM_COUNT>
0

> <PUBCHEM_COMPONENT_COUNT>
1

> <PUBCHEM_CACTVS_TAUTO_COUNT>
-1

> <PUBCHEM_CONFORMER_ID>
08268E5900000004

> <PUBCHEM_MMFF94_ENERGY>
137.0379

> <PUBCHEM_FEATURE_SELFOVERLAP>
55.949

> <PUBCHEM_SHAPE_FINGERPRINT>
10411042 1 18338799996431579134
10622 236 17700670008582026991
10967382 1 18267016335702981388
1100329 8 16537068075043279884
11578080 2 17459172011250365284
11963148 33 18335416881063837506
12107183 9 18269287781414159665
12403259 226 18337108952043214237
12422481 6 18198637540479214097
12553582 1 18339349812838888790
12788726 201 18116716214400857250
13140716 1 18197492033629972224
13583140 156 18335691720478846415
1361 2 18122060081203235067
13785724 45 18198639738980522135
138480 1 18410574002558602428
14223421 5 18338792313066921788
14787075 74 18113907048159585946
14790565 3 17977107082827230276
14863182 85 18118408577428506476
14866123 147 17474671646352219515
14955137 171 18342182159113283318
15042514 8 17905611003695132070
15064986 96 17559965315915929895
15320467 1 18410293601366550515
15927050 60 17691691503955394364
17492 89 18120654630897871698
1813 80 17458348519969494204
19591789 44 18122905322139762076
20028762 73 17911519014658211662
20739085 24 18191023619334653756
20775438 99 17476299172880552205
21033648 29 17560220432630781467
21267235 1 18411706465454924758
22182313 1 17914895327652351102
23559900 14 18410285896515942051
25147074 1 17845366829623458943
3117164 225 18269568143667539793
3383291 50 16968290414907838115
3421961 26 18410294743768919593
350125 39 18340490070399499496
4144715 1 18261121794390657475
4409770 3 17756424864245976853
5104073 3 18341327786574560426
5309563 4 18410009957166545786
7097593 13 18341046406066147583
79837 15 17116069197460015320
86090 222 17313683628057988187
9709674 26 18052249597196049262

> <PUBCHEM_SHAPE_MULTIPOLES>
602.75
10.58
5.51
0.86
6.62
1.66
0.1
-8.57
-3.74
-2.56
0.47
0.25
-0.03
1.19

> <PUBCHEM_SHAPE_SELFOVERLAP>
1371.062

> <PUBCHEM_SHAPE_VOLUME>
311.4

> <PUBCHEM_COORDINATE_TYPE>
2
5
10

$$$$
