136799124
  -OEChem-03292013293D

 41 44  0     1  0  0  0  0  0999 V2000
    1.8410    1.6405    1.7759 O   0  0  0  0  0  0  0  0  0  0  0  0
    1.9563   -2.1295   -0.8313 O   0  0  0  0  0  0  0  0  0  0  0  0
   -2.8840    2.2157    0.2309 O   0  0  0  0  0  0  0  0  0  0  0  0
   -0.4985   -2.6413    0.2892 O   0  0  0  0  0  0  0  0  0  0  0  0
   -5.3621   -1.1255   -0.0999 O   0  0  0  0  0  0  0  0  0  0  0  0
    4.0236   -1.8891    0.1528 O   0  0  0  0  0  0  0  0  0  0  0  0
    1.7899    2.3831   -1.9170 N   0  0  0  0  0  0  0  0  0  0  0  0
   -0.0035    1.9319    0.3031 N   0  0  1  0  0  0  0  0  0  0  0  0
   -3.1631   -2.6097   -0.2427 N   0  0  0  0  0  0  0  0  0  0  0  0
    3.0789   -3.9654   -0.1360 N   0  0  0  0  0  0  0  0  0  0  0  0
    2.1788    2.1988   -0.5212 C   0  0  2  0  0  0  0  0  0  0  0  0
    1.3678    1.3992    0.4508 C   0  0  1  0  0  0  0  0  0  0  0  0
    1.3394    3.3636   -0.9444 C   0  0  2  0  0  0  0  0  0  0  0  0
   -0.0361    3.2325   -0.3546 C   0  0  0  0  0  0  0  0  0  0  0  0
    1.1977   -0.1385    0.2493 C   0  0  1  0  0  0  0  0  0  0  0  0
   -0.9192    0.9059    0.2210 C   0  0  0  0  0  0  0  0  0  0  0  0
   -0.3125   -0.2849    0.2140 C   0  0  0  0  0  0  0  0  0  0  0  0
    1.8603   -0.7260   -0.9926 C   0  0  0  0  0  0  0  0  0  0  0  0
   -2.3773    1.1020    0.1696 C   0  0  0  0  0  0  0  0  0  0  0  0
   -1.0420   -1.5534    0.1764 C   0  0  0  0  0  0  0  0  0  0  0  0
    3.0903    1.0067    2.0004 C   0  0  0  0  0  0  0  0  0  0  0  0
   -3.1767   -0.1547    0.0547 C   0  0  0  0  0  0  0  0  0  0  0  0
   -2.5369   -1.5016   -0.0222 C   0  0  0  0  0  0  0  0  0  0  0  0
   -4.5129   -0.0638    0.0114 C   0  0  0  0  0  0  0  0  0  0  0  0
    3.1008   -2.5964   -0.2375 C   0  0  0  0  0  0  0  0  0  0  0  0
    3.2199    2.3655   -0.2954 H   0  0  0  0  0  0  0  0  0  0  0  0
    1.7543    4.3565   -0.9943 H   0  0  0  0  0  0  0  0  0  0  0  0
    1.0300    1.7522   -2.1671 H   0  0  0  0  0  0  0  0  0  0  0  0
   -0.2160    4.0190    0.3848 H   0  0  0  0  0  0  0  0  0  0  0  0
   -0.8001    3.2885   -1.1369 H   0  0  0  0  0  0  0  0  0  0  0  0
    1.5180   -0.7015    1.1332 H   0  0  0  0  0  0  0  0  0  0  0  0
    1.2651   -0.5423   -1.8939 H   0  0  0  0  0  0  0  0  0  0  0  0
    2.8514   -0.2959   -1.1740 H   0  0  0  0  0  0  0  0  0  0  0  0
    3.6893    1.6697    2.6324 H   0  0  0  0  0  0  0  0  0  0  0  0
    3.6700    0.7875    1.0994 H   0  0  0  0  0  0  0  0  0  0  0  0
    2.9360    0.0837    2.5676 H   0  0  0  0  0  0  0  0  0  0  0  0
   -5.0600    0.8689    0.0583 H   0  0  0  0  0  0  0  0  0  0  0  0
   -2.5090   -3.3997   -0.2496 H   0  0  0  0  0  0  0  0  0  0  0  0
    3.8497   -4.4769    0.2802 H   0  0  0  0  0  0  0  0  0  0  0  0
    2.2907   -4.5075   -0.4737 H   0  0  0  0  0  0  0  0  0  0  0  0
   -6.2676   -0.7693   -0.1081 H   0  0  0  0  0  0  0  0  0  0  0  0
  1 12  1  0  0  0  0
  1 21  1  0  0  0  0
  2 18  1  0  0  0  0
  2 25  1  0  0  0  0
  3 19  2  0  0  0  0
  4 20  2  0  0  0  0
  5 24  1  0  0  0  0
  5 41  1  0  0  0  0
  6 25  2  0  0  0  0
  7 11  1  0  0  0  0
  7 13  1  0  0  0  0
  7 28  1  0  0  0  0
  8 12  1  0  0  0  0
  8 14  1  0  0  0  0
  8 16  1  0  0  0  0
  9 23  2  0  0  0  0
  9 38  1  0  0  0  0
 10 25  1  0  0  0  0
 10 39  1  0  0  0  0
 10 40  1  0  0  0  0
 11 12  1  0  0  0  0
 11 13  1  0  0  0  0
 11 26  1  0  0  0  0
 12 15  1  0  0  0  0
 13 14  1  0  0  0  0
 13 27  1  0  0  0  0
 14 29  1  0  0  0  0
 14 30  1  0  0  0  0
 15 17  1  0  0  0  0
 15 18  1  0  0  0  0
 15 31  1  0  0  0  0
 16 17  2  0  0  0  0
 16 19  1  0  0  0  0
 17 20  1  0  0  0  0
 18 32  1  0  0  0  0
 18 33  1  0  0  0  0
 19 22  1  0  0  0  0
 20 23  1  0  0  0  0
 21 34  1  0  0  0  0
 21 35  1  0  0  0  0
 21 36  1  0  0  0  0
 22 23  1  0  0  0  0
 22 24  2  3  0  0  0
 24 37  1  0  0  0  0
M  END
> <PUBCHEM_COMPOUND_CID>
136799124

> <PUBCHEM_CONFORMER_RMSD>
0.8

> <PUBCHEM_CONFORMER_DIVERSEORDER>
3
2
5
4
1

> <PUBCHEM_MMFF94_PARTIAL_CHARGES>
33
1 -0.56
10 -0.8
11 -0.04
12 0.74
13 -0.04
14 0.46
15 0.14
16 0.11
17 -0.12
18 0.28
19 0.54
2 -0.43
20 0.56
21 0.28
22 0.03
23 0.44
24 -0.07
25 0.78
26 0.1
27 0.1
28 0.36
3 -0.57
37 0.15
38 0.4
39 0.37
4 -0.57
40 0.37
41 0.45
5 -0.53
6 -0.57
7 -0.68
8 -0.84
9 -0.85

> <PUBCHEM_EFFECTIVE_ROTOR_COUNT>
4.6

> <PUBCHEM_PHARMACOPHORE_FEATURES>
14
1 1 acceptor
1 10 donor
1 3 acceptor
1 4 acceptor
1 5 donor
1 6 acceptor
1 7 cation
1 7 donor
1 8 cation
1 9 acceptor
1 9 donor
5 8 12 15 16 17 rings
6 16 17 19 20 22 23 rings
6 7 8 11 12 13 14 rings

> <PUBCHEM_HEAVY_ATOM_COUNT>
25

> <PUBCHEM_ATOM_DEF_STEREO_COUNT>
4

> <PUBCHEM_ATOM_UDEF_STEREO_COUNT>
0

> <PUBCHEM_BOND_DEF_STEREO_COUNT>
0

> <PUBCHEM_BOND_UDEF_STEREO_COUNT>
1

> <PUBCHEM_ISOTOPIC_ATOM_COUNT>
0

> <PUBCHEM_COMPONENT_COUNT>
1

> <PUBCHEM_CACTVS_TAUTO_COUNT>
-1

> <PUBCHEM_CONFORMER_ID>
0827639400000003

> <PUBCHEM_MMFF94_ENERGY>
90.9155

> <PUBCHEM_FEATURE_SELFOVERLAP>
71.306

> <PUBCHEM_SHAPE_FINGERPRINT>
10411042 1 18337957762240840095
10616163 171 17832145296382381683
10967382 1 18338802324667285205
1100329 8 18124323709736733041
11578080 2 17387391473115920236
11680986 33 18412543236500114899
12403259 226 18052814746046664538
12553582 1 18194705694792064470
13004483 165 18192424174137279462
13140716 1 18270403755071592001
138480 1 18410015428976103487
14178342 30 18127120003780994219
14790565 3 17259912814490858256
14863182 85 18339358694678204544
15042514 8 17833555591511711667
16752209 62 17620475048437870557
16945 1 18195532721094412889
17349148 13 18195787773569202185
17357779 13 18123732176343083132
1813 80 17822565032716122032
18681886 176 17905041809171304336
19591789 44 17906454324897991729
20510252 161 17477203830495475514
20600515 1 17767694862530345732
20691752 17 17967537822222883697
20905425 154 18271817859809825140
21452121 199 18336265652494643020
22149856 69 18197230337996168203
22182313 1 18264467530273841901
2334 1 18411703188210144713
23366157 5 18187649158045451022
23402539 116 18123466073038727838
23419403 2 17769628946623407976
23558518 356 18411989040212126401
23559900 14 18410575127670969127
2748010 2 18337662006444687505
350125 39 18267875995356872497
394222 165 17247228221377254168
4409770 3 17396977964073308716
484985 159 15513837905496875136
5104073 3 18201445787919211275
7364860 26 18339082691342018940
81228 2 17765176989440126922
9709674 26 18336264656421076059
9981440 41 17832425671493959257

> <PUBCHEM_SHAPE_MULTIPOLES>
459.35
6.75
4.38
1.14
6.7
1.02
0.21
3.61
0.34
-3.51
-1.03
-1.2
-0.66
0.01

> <PUBCHEM_SHAPE_SELFOVERLAP>
1010.619

> <PUBCHEM_SHAPE_VOLUME>
244.2

> <PUBCHEM_COORDINATE_TYPE>
2
5
10

$$$$
