136746674
  -OEChem-03292013293D

 30 32  0     1  0  0  0  0  0999 V2000
   -2.1159   -0.1274    0.9239 O   0  0  0  0  0  0  0  0  0  0  0  0
   -2.9619    2.6842    0.0335 O   0  0  0  0  0  0  0  0  0  0  0  0
   -4.2874   -1.8568    0.5884 O   0  0  0  0  0  0  0  0  0  0  0  0
    4.0941    2.1111    0.3376 O   0  0  0  0  0  0  0  0  0  0  0  0
    0.1485   -0.4421    0.0579 N   0  0  0  0  0  0  0  0  0  0  0  0
   -0.0960   -1.7543   -0.1591 N   0  0  0  0  0  0  0  0  0  0  0  0
    2.0847    1.0446    0.2356 N   0  0  0  0  0  0  0  0  0  0  0  0
    4.1818   -0.1481   -0.0572 N   0  0  0  0  0  0  0  0  0  0  0  0
   -1.0023    0.5091    0.2696 C   0  0  1  0  0  0  0  0  0  0  0  0
   -2.9663    1.4353   -0.6540 C   0  0  1  0  0  0  0  0  0  0  0  0
   -1.5443    1.0910   -1.0313 C   0  0  0  0  0  0  0  0  0  0  0  0
   -3.3431    0.3202    0.3130 C   0  0  1  0  0  0  0  0  0  0  0  0
   -3.9833   -0.8725   -0.3842 C   0  0  0  0  0  0  0  0  0  0  0  0
    1.4723   -0.1575    0.0528 C   0  0  0  0  0  0  0  0  0  0  0  0
    2.1381   -1.3215   -0.1762 C   0  0  0  0  0  0  0  0  0  0  0  0
    1.1294   -2.2843   -0.3013 C   0  0  0  0  0  0  0  0  0  0  0  0
    3.5628   -1.2788   -0.2274 C   0  0  0  0  0  0  0  0  0  0  0  0
    3.4889    1.0481    0.1783 C   0  0  0  0  0  0  0  0  0  0  0  0
   -0.6288    1.2895    0.9425 H   0  0  0  0  0  0  0  0  0  0  0  0
   -3.6325    1.5266   -1.5166 H   0  0  0  0  0  0  0  0  0  0  0  0
   -1.5376    0.3357   -1.8261 H   0  0  0  0  0  0  0  0  0  0  0  0
   -0.9518    1.9488   -1.3640 H   0  0  0  0  0  0  0  0  0  0  0  0
   -3.9910    0.6718    1.1239 H   0  0  0  0  0  0  0  0  0  0  0  0
   -3.3009   -1.3246   -1.1112 H   0  0  0  0  0  0  0  0  0  0  0  0
   -4.9088   -0.5799   -0.8895 H   0  0  0  0  0  0  0  0  0  0  0  0
   -3.8759    2.8652    0.3117 H   0  0  0  0  0  0  0  0  0  0  0  0
    1.2190   -3.3447   -0.4886 H   0  0  0  0  0  0  0  0  0  0  0  0
    1.5501    1.8901    0.4014 H   0  0  0  0  0  0  0  0  0  0  0  0
   -4.6969   -2.6048    0.1211 H   0  0  0  0  0  0  0  0  0  0  0  0
    4.1295   -2.2045   -0.4109 H   0  0  0  0  0  0  0  0  0  0  0  0
  1  9  1  0  0  0  0
  1 12  1  0  0  0  0
  2 10  1  0  0  0  0
  2 26  1  0  0  0  0
  3 13  1  0  0  0  0
  3 29  1  0  0  0  0
  4 18  2  0  0  0  0
  5  6  1  0  0  0  0
  5  9  1  0  0  0  0
  5 14  1  0  0  0  0
  6 16  2  0  0  0  0
  7 14  1  0  0  0  0
  7 18  1  0  0  0  0
  7 28  1  0  0  0  0
  8 17  2  0  0  0  0
  8 18  1  0  0  0  0
  9 11  1  0  0  0  0
  9 19  1  0  0  0  0
 10 11  1  0  0  0  0
 10 12  1  0  0  0  0
 10 20  1  0  0  0  0
 11 21  1  0  0  0  0
 11 22  1  0  0  0  0
 12 13  1  0  0  0  0
 12 23  1  0  0  0  0
 13 24  1  0  0  0  0
 13 25  1  0  0  0  0
 14 15  2  0  0  0  0
 15 16  1  0  0  0  0
 15 17  1  0  0  0  0
 16 27  1  0  0  0  0
 17 30  1  0  0  0  0
M  END
> <PUBCHEM_COMPOUND_CID>
136746674

> <PUBCHEM_CONFORMER_RMSD>
0.6

> <PUBCHEM_CONFORMER_DIVERSEORDER>
1
7
13
6
11
8
12
9
10
3
2
14
4
5

> <PUBCHEM_MMFF94_PARTIAL_CHARGES>
22
1 -0.56
10 0.28
12 0.28
13 0.28
14 -0.09
15 -0.09
16 0.14
17 0.48
18 0.84
2 -0.68
26 0.4
27 0.15
28 0.37
29 0.4
3 -0.68
30 0.06
4 -0.57
5 0.31
6 -0.71
7 -0.49
8 -0.66
9 0.54

> <PUBCHEM_EFFECTIVE_ROTOR_COUNT>
3

> <PUBCHEM_PHARMACOPHORE_FEATURES>
13
1 1 acceptor
1 2 acceptor
1 2 donor
1 3 acceptor
1 3 donor
1 4 acceptor
1 6 acceptor
1 7 donor
1 8 acceptor
1 8 donor
5 1 9 10 11 12 rings
5 5 6 14 15 16 rings
6 7 8 14 15 17 18 rings

> <PUBCHEM_HEAVY_ATOM_COUNT>
18

> <PUBCHEM_ATOM_DEF_STEREO_COUNT>
3

> <PUBCHEM_ATOM_UDEF_STEREO_COUNT>
0

> <PUBCHEM_BOND_DEF_STEREO_COUNT>
0

> <PUBCHEM_BOND_UDEF_STEREO_COUNT>
0

> <PUBCHEM_ISOTOPIC_ATOM_COUNT>
0

> <PUBCHEM_COMPONENT_COUNT>
1

> <PUBCHEM_CACTVS_TAUTO_COUNT>
-1

> <PUBCHEM_CONFORMER_ID>
082696B200000001

> <PUBCHEM_MMFF94_ENERGY>
44.4734

> <PUBCHEM_FEATURE_SELFOVERLAP>
66.164

> <PUBCHEM_SHAPE_FINGERPRINT>
10608611 8 18336826381617656509
11132069 177 18113054926500451109
11405975 8 18265895765607505497
11471102 20 18268707217261689172
11615757 297 17988927760020806178
11759241 127 18334293214380531741
12403259 226 18336542729545999588
12403259 415 18413388748209992416
12403260 363 18408876335219806306
12916754 54 18342179942556795563
13583140 156 17313925494587044960
14026960 21 18263649622413721060
14289901 80 18412260614703579347
14415576 193 18411139087226626156
14787075 74 18199465648274466243
15196674 1 18411418410097420372
15219456 202 18336547118606930597
15375462 6 18410291402236806031
18186145 218 18130795520934152300
19930381 70 18196086861928050625
200 152 18130780149473053439
20449540 30 18272654506881575913
20510252 161 18412546522244931577
20645477 56 18116999884417098669
20645477 70 18058161735284550887
21501502 16 18263076613725896979
21524375 3 18341048618443874706
221490 88 18339930320360419486
22854114 111 18411418393350093870
22854114 59 18411701001871155648
23402539 116 18040148544093518555
23402655 69 18272649000590934596
23557571 272 17894633617543601725
23559900 14 18195238919514284850
25 1 18339077073820065062
2748010 2 18341059613744742806
2871803 45 18408316692671154615
3286 77 18335419041526209046
474229 33 18339078318891504590
4990 188 18059584551060777902
5104073 3 18410011005154371680
5283173 99 18041826334787561909
58051976 378 18341608192289186071
6333272 397 18337389443614462048
633830 44 17917721166655828324
69090 78 18341328980728760486
77779 3 18412263904558922029
81228 2 17550362473469450962
9709674 26 18338522941123941527

> <PUBCHEM_SHAPE_MULTIPOLES>
327.03
8.34
2.34
0.76
0.02
0.19
0.05
0.97
-0.38
0.18
0.05
0.34
0.04
0.73

> <PUBCHEM_SHAPE_SELFOVERLAP>
708.54

> <PUBCHEM_SHAPE_VOLUME>
176.9

> <PUBCHEM_COORDINATE_TYPE>
2
5
10

$$$$
