136721408
  -OEChem-03292013293D

 53 57  0     1  0  0  0  0  0999 V2000
    2.9442   -2.7233   -0.2519 O   0  0  0  0  0  0  0  0  0  0  0  0
   -0.6074   -2.3589    1.2974 O   0  0  0  0  0  0  0  0  0  0  0  0
    1.8118   -0.4096    2.1660 O   0  0  0  0  0  0  0  0  0  0  0  0
    5.1955   -1.4442   -0.3244 O   0  0  0  0  0  0  0  0  0  0  0  0
   -2.4689    3.3851    0.7579 O   0  0  0  0  0  0  0  0  0  0  0  0
    2.8600   -2.4289    2.3060 O   0  0  0  0  0  0  0  0  0  0  0  0
    0.0563    4.3004   -0.5067 O   0  0  0  0  0  0  0  0  0  0  0  0
   -4.6952    1.7669    0.8376 O   0  0  0  0  0  0  0  0  0  0  0  0
   -6.0567   -0.2881    0.1544 O   0  0  0  0  0  0  0  0  0  0  0  0
    0.8527   -1.5753   -0.4314 C   0  0  1  0  0  0  0  0  0  0  0  0
    0.1062   -0.2696   -0.3806 C   0  0  0  0  0  0  0  0  0  0  0  0
    2.3037   -1.5002    0.1349 C   0  0  2  0  0  0  0  0  0  0  0  0
    0.9233    0.9646   -0.3212 C   0  0  0  0  0  0  0  0  0  0  0  0
   -1.2068    0.0565   -0.3577 C   0  0  0  0  0  0  0  0  0  0  0  0
    3.0654   -0.2741   -0.3575 C   0  0  0  0  0  0  0  0  0  0  0  0
    2.3772    0.9389   -0.5767 C   0  0  0  0  0  0  0  0  0  0  0  0
    0.1047    2.0015   -0.0399 C   0  0  0  0  0  0  0  0  0  0  0  0
   -1.2511    1.4766   -0.0082 C   0  0  0  0  0  0  0  0  0  0  0  0
    0.1083   -2.6389    0.3370 C   0  0  0  0  0  0  0  0  0  0  0  0
   -2.4415   -0.7152   -0.5412 C   0  0  0  0  0  0  0  0  0  0  0  0
    2.3715   -1.5272    1.6416 C   0  0  0  0  0  0  0  0  0  0  0  0
    4.4591   -0.3173   -0.5488 C   0  0  0  0  0  0  0  0  0  0  0  0
   -2.3985    2.0703    0.3559 C   0  0  0  0  0  0  0  0  0  0  0  0
    3.0838    2.0353   -1.0939 C   0  0  0  0  0  0  0  0  0  0  0  0
   -3.6478   -0.1189   -0.1310 C   0  0  0  0  0  0  0  0  0  0  0  0
    0.4847    3.3877    0.2084 C   0  0  0  0  0  0  0  0  0  0  0  0
   -3.6632    1.2724    0.3965 C   0  0  0  0  0  0  0  0  0  0  0  0
    0.2850   -4.0591   -0.1284 C   0  0  0  0  0  0  0  0  0  0  0  0
    5.1514    0.7958   -1.0203 C   0  0  0  0  0  0  0  0  0  0  0  0
    4.4613    1.9662   -1.3076 C   0  0  0  0  0  0  0  0  0  0  0  0
   -2.5014   -1.9571   -1.1840 C   0  0  0  0  0  0  0  0  0  0  0  0
   -4.8657   -0.7983   -0.2686 C   0  0  0  0  0  0  0  0  0  0  0  0
    1.4085    3.6795    1.3677 C   0  0  0  0  0  0  0  0  0  0  0  0
   -3.7164   -2.6323   -1.3262 C   0  0  0  0  0  0  0  0  0  0  0  0
   -4.8943   -2.0609   -0.8554 C   0  0  0  0  0  0  0  0  0  0  0  0
    0.8949   -1.8779   -1.4869 H   0  0  0  0  0  0  0  0  0  0  0  0
    2.5791    2.9626   -1.3491 H   0  0  0  0  0  0  0  0  0  0  0  0
    3.8508   -2.7338    0.0971 H   0  0  0  0  0  0  0  0  0  0  0  0
    1.1629   -4.5015    0.3466 H   0  0  0  0  0  0  0  0  0  0  0  0
   -0.6004   -4.6385    0.1494 H   0  0  0  0  0  0  0  0  0  0  0  0
    0.3839   -4.1006   -1.2158 H   0  0  0  0  0  0  0  0  0  0  0  0
    6.2250    0.7616   -1.1854 H   0  0  0  0  0  0  0  0  0  0  0  0
    4.9927    2.8293   -1.6979 H   0  0  0  0  0  0  0  0  0  0  0  0
   -1.6166   -2.4137   -1.6151 H   0  0  0  0  0  0  0  0  0  0  0  0
    2.3267    4.1413    0.9968 H   0  0  0  0  0  0  0  0  0  0  0  0
    1.6650    2.7681    1.9147 H   0  0  0  0  0  0  0  0  0  0  0  0
    0.9033    4.3600    2.0588 H   0  0  0  0  0  0  0  0  0  0  0  0
   -3.7418   -3.6016   -1.8161 H   0  0  0  0  0  0  0  0  0  0  0  0
    1.8443   -0.4081    3.1463 H   0  0  0  0  0  0  0  0  0  0  0  0
   -5.8330   -2.5963   -0.9686 H   0  0  0  0  0  0  0  0  0  0  0  0
    6.1319   -1.2692   -0.5197 H   0  0  0  0  0  0  0  0  0  0  0  0
   -3.3942    3.5710    0.9936 H   0  0  0  0  0  0  0  0  0  0  0  0
   -5.9168    0.5182    0.6733 H   0  0  0  0  0  0  0  0  0  0  0  0
  1 12  1  0  0  0  0
  1 38  1  0  0  0  0
  2 19  2  0  0  0  0
  3 21  1  0  0  0  0
  3 49  1  0  0  0  0
  4 22  1  0  0  0  0
  4 51  1  0  0  0  0
  5 23  1  0  0  0  0
  5 52  1  0  0  0  0
  6 21  2  0  0  0  0
  7 26  2  0  0  0  0
  8 27  2  0  0  0  0
  9 32  1  0  0  0  0
  9 53  1  0  0  0  0
 10 11  1  0  0  0  0
 10 12  1  0  0  0  0
 10 19  1  0  0  0  0
 10 36  1  0  0  0  0
 11 13  1  0  0  0  0
 11 14  2  0  0  0  0
 12 15  1  0  0  0  0
 12 21  1  0  0  0  0
 13 16  1  0  0  0  0
 13 17  2  0  0  0  0
 14 18  1  0  0  0  0
 14 20  1  0  0  0  0
 15 16  2  0  0  0  0
 15 22  1  0  0  0  0
 16 24  1  0  0  0  0
 17 18  1  0  0  0  0
 17 26  1  0  0  0  0
 18 23  2  0  0  0  0
 19 28  1  0  0  0  0
 20 25  2  0  0  0  0
 20 31  1  0  0  0  0
 22 29  2  0  0  0  0
 23 27  1  0  0  0  0
 24 30  2  0  0  0  0
 24 37  1  0  0  0  0
 25 27  1  0  0  0  0
 25 32  1  0  0  0  0
 26 33  1  0  0  0  0
 28 39  1  0  0  0  0
 28 40  1  0  0  0  0
 28 41  1  0  0  0  0
 29 30  1  0  0  0  0
 29 42  1  0  0  0  0
 30 43  1  0  0  0  0
 31 34  2  0  0  0  0
 31 44  1  0  0  0  0
 32 35  2  0  0  0  0
 33 45  1  0  0  0  0
 33 46  1  0  0  0  0
 33 47  1  0  0  0  0
 34 35  1  0  0  0  0
 34 48  1  0  0  0  0
 35 50  1  0  0  0  0
M  END
> <PUBCHEM_COMPOUND_CID>
136721408

> <PUBCHEM_CONFORMER_RMSD>
0.8

> <PUBCHEM_CONFORMER_DIVERSEORDER>
1
2
3
4

> <PUBCHEM_MMFF94_PARTIAL_CHARGES>
45
1 -0.68
10 0.2
11 -0.14
12 0.48
13 -0.03
14 -0.03
15 -0.14
16 0.03
17 0.01
19 0.45
2 -0.57
20 0.03
21 0.66
22 0.08
23 0.09
24 -0.15
25 0.09
26 0.49
27 0.47
28 0.06
29 -0.15
3 -0.65
30 -0.15
31 -0.15
32 0.08
33 0.06
34 -0.15
35 -0.15
37 0.15
38 0.4
4 -0.53
42 0.15
43 0.15
44 0.15
48 0.15
49 0.5
5 -0.53
50 0.15
51 0.45
52 0.45
53 0.45
6 -0.57
7 -0.57
8 -0.57
9 -0.53

> <PUBCHEM_EFFECTIVE_ROTOR_COUNT>
3.4

> <PUBCHEM_PHARMACOPHORE_FEATURES>
16
1 1 acceptor
1 1 donor
1 2 acceptor
1 3 acceptor
1 4 donor
1 5 donor
1 6 acceptor
1 7 acceptor
1 8 acceptor
1 9 donor
3 3 6 21 anion
5 11 13 14 17 18 rings
6 10 11 12 13 15 16 rings
6 14 18 20 23 25 27 rings
6 15 16 22 24 29 30 rings
6 20 25 31 32 34 35 rings

> <PUBCHEM_HEAVY_ATOM_COUNT>
35

> <PUBCHEM_ATOM_DEF_STEREO_COUNT>
2

> <PUBCHEM_ATOM_UDEF_STEREO_COUNT>
0

> <PUBCHEM_BOND_DEF_STEREO_COUNT>
0

> <PUBCHEM_BOND_UDEF_STEREO_COUNT>
0

> <PUBCHEM_ISOTOPIC_ATOM_COUNT>
0

> <PUBCHEM_COMPONENT_COUNT>
1

> <PUBCHEM_CACTVS_TAUTO_COUNT>
-1

> <PUBCHEM_CONFORMER_ID>
0826340000000001

> <PUBCHEM_MMFF94_ENERGY>
137.4032

> <PUBCHEM_FEATURE_SELFOVERLAP>
81.492

> <PUBCHEM_SHAPE_FINGERPRINT>
10369192 42 16483847121450859032
1100329 8 18266460003987792382
11135609 187 18046348801420968692
11513181 2 18271815579415112182
11578080 2 16197614591943597322
11607047 403 16981777514449897954
12236239 1 18408888447206987863
12553582 1 18340475721303809623
12788726 201 18412827971493952057
13009979 54 18120920729938869586
13140716 1 18267010666187628872
13224815 77 18342447123882195699
14068700 675 18131348652603085905
14178342 30 17978211782284408858
14394314 77 18411422804198085400
14787075 74 18334298694626945230
14790565 3 18410865355965303837
14931854 50 18336833103626519524
14955137 171 18338535083164824827
15001296 14 18335985354053875300
15297060 5 17845946112572316859
15439362 3 17976822309336839573
15927050 60 17693096679209011205
1601671 61 18201441376111675607
17492 54 18189058753717091036
18681886 176 18130221682917096862
19319366 153 18040712623465499138
19591789 44 18411140250983447804
20028762 73 18341332202360830630
20511986 3 18335975411405421925
20642791 35 18198902694115904333
20691752 17 18044920497466924541
20775438 99 17122235752358682103
21421861 104 18045508512437918537
22393880 68 18338790234492713517
23559900 14 18128812118022429889
3178227 256 18266479727353458705
335352 9 18343587378435002837
350125 39 18340210786531278293
4340502 62 16660644085022288306
4409770 3 15743314193965062916
463206 1 18337114556964674151
6823239 73 17846211198149102456

> <PUBCHEM_SHAPE_MULTIPOLES>
667.46
9.71
4.68
1.33
4.13
1.52
-0.56
-1.32
2.46
-0.29
-0.81
-0.85
-0.38
-1.99

> <PUBCHEM_SHAPE_SELFOVERLAP>
1527.487

> <PUBCHEM_SHAPE_VOLUME>
340.4

> <PUBCHEM_COORDINATE_TYPE>
2
5
10

$$$$
