136754231
  -OEChem-03292013293D

 29 31  0     0  0  0  0  0  0999 V2000
    7.3444   -1.1215   -0.3435 Br  0  0  0  0  0  0  0  0  0  0  0  0
    1.7173   -1.3188    0.3892 S   0  0  0  0  0  0  0  0  0  0  0  0
   -2.5052   -2.0582   -0.2338 O   0  0  0  0  0  0  0  0  0  0  0  0
   -5.2349   -1.9067    0.1136 O   0  0  0  0  0  0  0  0  0  0  0  0
   -6.4805    0.5642    0.1918 O   0  0  0  0  0  0  0  0  0  0  0  0
    1.7865    1.2577    0.2953 N   0  0  0  0  0  0  0  0  0  0  0  0
   -0.9752    0.2676   -0.5052 N   0  0  0  0  0  0  0  0  0  0  0  0
   -0.3590    0.2854    0.6031 N   0  0  0  0  0  0  0  0  0  0  0  0
    3.2561   -0.5734    0.1667 C   0  0  0  0  0  0  0  0  0  0  0  0
    3.0922    0.8149    0.1415 C   0  0  0  0  0  0  0  0  0  0  0  0
    4.5174   -1.1739    0.0244 C   0  0  0  0  0  0  0  0  0  0  0  0
    4.2328    1.6287   -0.0328 C   0  0  0  0  0  0  0  0  0  0  0  0
   -2.3681    0.3277   -0.3286 C   0  0  0  0  0  0  0  0  0  0  0  0
    0.9858    0.2267    0.4319 C   0  0  0  0  0  0  0  0  0  0  0  0
   -3.1183   -0.8405   -0.1941 C   0  0  0  0  0  0  0  0  0  0  0  0
    5.6298   -0.3457   -0.1466 C   0  0  0  0  0  0  0  0  0  0  0  0
    5.4915    1.0376   -0.1753 C   0  0  0  0  0  0  0  0  0  0  0  0
   -4.5000   -0.7656   -0.0188 C   0  0  0  0  0  0  0  0  0  0  0  0
   -2.9997    1.5709   -0.2879 C   0  0  0  0  0  0  0  0  0  0  0  0
   -5.1316    0.4773    0.0219 C   0  0  0  0  0  0  0  0  0  0  0  0
   -4.3815    1.6456   -0.1127 C   0  0  0  0  0  0  0  0  0  0  0  0
    4.6174   -2.2555    0.0474 H   0  0  0  0  0  0  0  0  0  0  0  0
    4.1360    2.7105   -0.0567 H   0  0  0  0  0  0  0  0  0  0  0  0
    6.3580    1.6811   -0.3088 H   0  0  0  0  0  0  0  0  0  0  0  0
   -2.4240    2.4869   -0.3924 H   0  0  0  0  0  0  0  0  0  0  0  0
   -4.8607    2.6206   -0.0831 H   0  0  0  0  0  0  0  0  0  0  0  0
   -1.5507   -1.9171   -0.3593 H   0  0  0  0  0  0  0  0  0  0  0  0
   -6.1692   -1.6590    0.2258 H   0  0  0  0  0  0  0  0  0  0  0  0
   -6.7398    1.5017    0.1945 H   0  0  0  0  0  0  0  0  0  0  0  0
  1 16  1  0  0  0  0
  2  9  1  0  0  0  0
  2 14  1  0  0  0  0
  3 15  1  0  0  0  0
  3 27  1  0  0  0  0
  4 18  1  0  0  0  0
  4 28  1  0  0  0  0
  5 20  1  0  0  0  0
  5 29  1  0  0  0  0
  6 10  1  0  0  0  0
  6 14  2  0  0  0  0
  7  8  2  0  0  0  0
  7 13  1  0  0  0  0
  8 14  1  0  0  0  0
  9 10  2  0  0  0  0
  9 11  1  0  0  0  0
 10 12  1  0  0  0  0
 11 16  2  0  0  0  0
 11 22  1  0  0  0  0
 12 17  2  0  0  0  0
 12 23  1  0  0  0  0
 13 15  2  0  0  0  0
 13 19  1  0  0  0  0
 15 18  1  0  0  0  0
 16 17  1  0  0  0  0
 17 24  1  0  0  0  0
 18 20  2  0  0  0  0
 19 21  2  0  0  0  0
 19 25  1  0  0  0  0
 20 21  1  0  0  0  0
 21 26  1  0  0  0  0
M  END
> <PUBCHEM_COMPOUND_CID>
136754231

> <PUBCHEM_CONFORMER_RMSD>
0.6

> <PUBCHEM_CONFORMER_DIVERSEORDER>
1
6
5
7
3
4
2

> <PUBCHEM_MMFF94_PARTIAL_CHARGES>
29
1 -0.11
10 0.23
11 -0.15
12 -0.15
13 0.18
14 0.5
15 0.08
16 0.11
17 -0.15
18 0.08
19 -0.15
2 -0.08
20 0.08
21 -0.15
22 0.15
23 0.15
24 0.15
25 0.15
26 0.15
27 0.45
28 0.45
29 0.45
3 -0.53
4 -0.53
5 -0.53
6 -0.57
7 -0.18
8 -0.13
9 0.04

> <PUBCHEM_EFFECTIVE_ROTOR_COUNT>
2

> <PUBCHEM_PHARMACOPHORE_FEATURES>
8
1 1 hydrophobe
1 3 donor
1 4 donor
1 5 donor
3 6 8 14 cation
5 2 6 9 10 14 rings
6 13 15 18 19 20 21 rings
6 9 10 11 12 16 17 rings

> <PUBCHEM_HEAVY_ATOM_COUNT>
21

> <PUBCHEM_ATOM_DEF_STEREO_COUNT>
0

> <PUBCHEM_ATOM_UDEF_STEREO_COUNT>
0

> <PUBCHEM_BOND_DEF_STEREO_COUNT>
0

> <PUBCHEM_BOND_UDEF_STEREO_COUNT>
0

> <PUBCHEM_ISOTOPIC_ATOM_COUNT>
0

> <PUBCHEM_COMPONENT_COUNT>
1

> <PUBCHEM_CACTVS_TAUTO_COUNT>
-1

> <PUBCHEM_CONFORMER_ID>
0826B43700000001

> <PUBCHEM_MMFF94_ENERGY>
48.8465

> <PUBCHEM_FEATURE_SELFOVERLAP>
40.677

> <PUBCHEM_SHAPE_FINGERPRINT>
10299344 5 18334861610463396526
10595046 47 18335701658774400572
11287383 113 18409167727297121952
11315181 36 18131354111263854913
11524674 6 16988843895261703751
11719270 70 18130504150933813830
12107183 9 17689151210455305121
12166972 35 18187088364725262436
12236239 1 18201720660945338832
12616971 3 17632568379817502740
12788726 201 17703227282999910113
13167823 11 18409163320476098834
13288520 33 18411982459979252877
13533116 47 13470141661859577764
13668630 136 18060707178297681246
14251764 18 18273217513186231227
14341114 176 18410296925438381869
14528608 73 18333733541840675644
14933364 13 18409732859115197524
15183329 4 18409446960248228138
15196674 1 18410291423579806042
15250474 111 18336528486976465242
15788980 27 18408042914059092824
17834072 33 18410292518975827572
17844677 252 18411425020253114136
18681886 176 18341607140554701712
200 152 18273495680120271792
20645477 70 18341614776927809262
21267235 1 18409453591445501043
21709351 56 18333444348533531868
220451 1 17095521785979153674
221357 26 18410571777860579572
22224240 67 10519694572078459380
2297311 6 18412267224890622621
23035841 295 18410293592928674194
23402539 116 18334009497288597276
23522609 53 18194994960839976081
23536379 177 18411138022153767056
23559900 14 18341604979833256641
239999 70 18342741810953885974
29717793 49 17846222142358716572
3004659 81 18408885123255565962
314173 85 14764631914869773224
34797466 226 17917438665593670028
3545911 37 18409448072428512269
4073 2 18041285451864430346
4214541 1 18410854356548653901
4325135 7 18260831488111885894
465052 167 18202568367800178118
5104073 3 18410570690927412264
542803 24 17458062672758345156
559249 180 18412823564498991766
59755656 215 18411422765859312830
59755656 520 17168144546131780706
7495541 125 17917427674445078096
77779 3 18410009935855350033

> <PUBCHEM_SHAPE_MULTIPOLES>
409.41
17.69
1.8
0.68
4.53
0.16
0
1.9
1.39
-0.51
0.04
0.15
0.01
0.14

> <PUBCHEM_SHAPE_SELFOVERLAP>
877.793

> <PUBCHEM_SHAPE_VOLUME>
232.3

> <PUBCHEM_COORDINATE_TYPE>
2
5
10

$$$$
