136798817
  -OEChem-03292013293D

 52 54  0     1  0  0  0  0  0999 V2000
    2.2054    2.0537    0.6669 O   0  0  0  0  0  0  0  0  0  0  0  0
    4.0972   -0.1862   -0.1861 O   0  0  0  0  0  0  0  0  0  0  0  0
   -1.2718   -1.2586    0.9803 O   0  0  0  0  0  0  0  0  0  0  0  0
    0.7967    3.8662    0.8031 O   0  0  0  0  0  0  0  0  0  0  0  0
   -2.4898   -3.1543    0.8053 O   0  0  0  0  0  0  0  0  0  0  0  0
   -2.2331    1.4799    1.8092 O   0  0  0  0  0  0  0  0  0  0  0  0
    1.3318   -4.6931   -0.6657 O   0  0  0  0  0  0  0  0  0  0  0  0
    2.0558    0.6478    0.8920 C   0  0  2  0  0  0  0  0  0  0  0  0
    2.6685   -0.2353   -0.2523 C   0  0  2  0  0  0  0  0  0  0  0  0
    0.5677    0.4626    0.9277 C   0  0  0  0  0  0  0  0  0  0  0  0
    2.2170   -1.7331   -0.1142 C   0  0  0  0  0  0  0  0  0  0  0  0
    0.7638   -1.8759    0.2513 C   0  0  0  0  0  0  0  0  0  0  0  0
    0.0015   -0.8232    0.7530 C   0  0  0  0  0  0  0  0  0  0  0  0
    2.6729    0.3537    2.2712 C   0  0  0  0  0  0  0  0  0  0  0  0
   -0.0675    1.6328    0.9278 C   0  0  0  0  0  0  0  0  0  0  0  0
    2.3065    0.2844   -1.6210 C   0  0  0  0  0  0  0  0  0  0  0  0
    0.9866    2.6615    0.8140 C   0  0  0  0  0  0  0  0  0  0  0  0
   -0.0881   -3.0021    0.1843 C   0  0  0  0  0  0  0  0  0  0  0  0
   -1.4999    1.8974    0.9039 C   0  0  0  0  0  0  0  0  0  0  0  0
   -1.3135   -2.5731    0.6381 C   0  0  0  0  0  0  0  0  0  0  0  0
    3.0002    1.2327   -2.2666 C   0  0  0  0  0  0  0  0  0  0  0  0
   -2.0359    2.7029   -0.2746 C   0  0  0  0  0  0  0  0  0  0  0  0
   -3.4865    2.3656   -0.6153 C   0  0  0  0  0  0  0  0  0  0  0  0
    0.2115   -4.3322   -0.2572 C   0  0  0  0  0  0  0  0  0  0  0  0
   -3.6505    0.8819   -0.9468 C   0  0  0  0  0  0  0  0  0  0  0  0
    2.6423    1.7470   -3.6216 C   0  0  0  0  0  0  0  0  0  0  0  0
   -5.1078    0.5390   -1.2547 C   0  0  0  0  0  0  0  0  0  0  0  0
   -5.2809   -0.9419   -1.5521 C   0  0  0  0  0  0  0  0  0  0  0  0
    2.8209   -2.2255    0.6594 H   0  0  0  0  0  0  0  0  0  0  0  0
    2.4286   -2.2733   -1.0460 H   0  0  0  0  0  0  0  0  0  0  0  0
    3.7372    0.6142    2.2821 H   0  0  0  0  0  0  0  0  0  0  0  0
    2.5714   -0.6973    2.5591 H   0  0  0  0  0  0  0  0  0  0  0  0
    2.2058    0.9643    3.0539 H   0  0  0  0  0  0  0  0  0  0  0  0
    1.4097   -0.1128   -2.0914 H   0  0  0  0  0  0  0  0  0  0  0  0
    4.4537   -0.8580   -0.7928 H   0  0  0  0  0  0  0  0  0  0  0  0
   -1.4063    2.5164   -1.1526 H   0  0  0  0  0  0  0  0  0  0  0  0
   -1.9569    3.7653   -0.0192 H   0  0  0  0  0  0  0  0  0  0  0  0
    3.8820    1.6759   -1.8123 H   0  0  0  0  0  0  0  0  0  0  0  0
   -3.8078    2.9766   -1.4669 H   0  0  0  0  0  0  0  0  0  0  0  0
   -4.1331    2.6261    0.2316 H   0  0  0  0  0  0  0  0  0  0  0  0
   -0.6168   -5.0602   -0.2234 H   0  0  0  0  0  0  0  0  0  0  0  0
   -3.0222    0.6268   -1.8090 H   0  0  0  0  0  0  0  0  0  0  0  0
   -3.3198    0.2540   -0.1141 H   0  0  0  0  0  0  0  0  0  0  0  0
    3.4701    1.5748   -4.3161 H   0  0  0  0  0  0  0  0  0  0  0  0
    1.7495    1.2613   -4.0279 H   0  0  0  0  0  0  0  0  0  0  0  0
    2.4521    2.8235   -3.5726 H   0  0  0  0  0  0  0  0  0  0  0  0
   -3.0812   -2.4623    1.1491 H   0  0  0  0  0  0  0  0  0  0  0  0
   -5.4535    1.1229   -2.1155 H   0  0  0  0  0  0  0  0  0  0  0  0
   -5.7425    0.8091   -0.4027 H   0  0  0  0  0  0  0  0  0  0  0  0
   -6.3296   -1.1644   -1.7726 H   0  0  0  0  0  0  0  0  0  0  0  0
   -4.6806   -1.2410   -2.4173 H   0  0  0  0  0  0  0  0  0  0  0  0
   -4.9770   -1.5524   -0.6957 H   0  0  0  0  0  0  0  0  0  0  0  0
  1  8  1  0  0  0  0
  1 17  1  0  0  0  0
  2  9  1  0  0  0  0
  2 35  1  0  0  0  0
  3 13  1  0  0  0  0
  3 20  1  0  0  0  0
  4 17  2  0  0  0  0
  5 20  1  0  0  0  0
  5 47  1  0  0  0  0
  6 19  2  0  0  0  0
  7 24  2  0  0  0  0
  8  9  1  0  0  0  0
  8 10  1  0  0  0  0
  8 14  1  0  0  0  0
  9 11  1  0  0  0  0
  9 16  1  0  0  0  0
 10 13  1  0  0  0  0
 10 15  2  0  0  0  0
 11 12  1  0  0  0  0
 11 29  1  0  0  0  0
 11 30  1  0  0  0  0
 12 13  2  0  0  0  0
 12 18  1  0  0  0  0
 14 31  1  0  0  0  0
 14 32  1  0  0  0  0
 14 33  1  0  0  0  0
 15 17  1  0  0  0  0
 15 19  1  0  0  0  0
 16 21  2  0  0  0  0
 16 34  1  0  0  0  0
 18 20  2  0  0  0  0
 18 24  1  0  0  0  0
 19 22  1  0  0  0  0
 21 26  1  0  0  0  0
 21 38  1  0  0  0  0
 22 23  1  0  0  0  0
 22 36  1  0  0  0  0
 22 37  1  0  0  0  0
 23 25  1  0  0  0  0
 23 39  1  0  0  0  0
 23 40  1  0  0  0  0
 24 41  1  0  0  0  0
 25 27  1  0  0  0  0
 25 42  1  0  0  0  0
 25 43  1  0  0  0  0
 26 44  1  0  0  0  0
 26 45  1  0  0  0  0
 26 46  1  0  0  0  0
 27 28  1  0  0  0  0
 27 48  1  0  0  0  0
 27 49  1  0  0  0  0
 28 50  1  0  0  0  0
 28 51  1  0  0  0  0
 28 52  1  0  0  0  0
M  END
> <PUBCHEM_COMPOUND_CID>
136798817

> <PUBCHEM_CONFORMER_RMSD>
1

> <PUBCHEM_CONFORMER_DIVERSEORDER>
1
11
6
13
8
7
9
12
3
2
10
4
5

> <PUBCHEM_MMFF94_PARTIAL_CHARGES>
28
1 -0.43
10 -0.09
11 0.18
12 -0.18
13 0.09
15 0.03
16 -0.29
17 0.71
18 -0.09
19 0.49
2 -0.68
20 0.2
21 -0.29
22 0.06
24 0.6
26 0.14
3 -0.28
34 0.15
35 0.4
38 0.15
4 -0.57
41 0.06
47 0.45
5 -0.51
6 -0.57
7 -0.57
8 0.42
9 0.42

> <PUBCHEM_EFFECTIVE_ROTOR_COUNT>
7.6

> <PUBCHEM_PHARMACOPHORE_FEATURES>
14
1 15 anion
1 2 acceptor
1 2 donor
1 26 hydrophobe
1 28 hydrophobe
1 3 acceptor
1 4 acceptor
1 5 donor
1 6 acceptor
1 7 acceptor
4 22 23 25 27 hydrophobe
5 1 8 10 15 17 rings
5 3 12 13 18 20 rings
6 8 9 10 11 12 13 rings

> <PUBCHEM_HEAVY_ATOM_COUNT>
28

> <PUBCHEM_ATOM_DEF_STEREO_COUNT>
2

> <PUBCHEM_ATOM_UDEF_STEREO_COUNT>
0

> <PUBCHEM_BOND_DEF_STEREO_COUNT>
1

> <PUBCHEM_BOND_UDEF_STEREO_COUNT>
0

> <PUBCHEM_ISOTOPIC_ATOM_COUNT>
0

> <PUBCHEM_COMPONENT_COUNT>
1

> <PUBCHEM_CACTVS_TAUTO_COUNT>
-1

> <PUBCHEM_CONFORMER_ID>
0827626100000001

> <PUBCHEM_MMFF94_ENERGY>
50.1561

> <PUBCHEM_FEATURE_SELFOVERLAP>
71.23

> <PUBCHEM_SHAPE_FINGERPRINT>
108634 29 18340759450953844567
11578080 2 17900534876791594460
12156800 1 17395575451067140924
12553582 1 16971660427306045977
12596599 1 17561369444284144377
13761468 95 13201381737421523543
14787075 74 17699276665345403786
14863182 85 18339066086803176483
16945 1 17839495463137356298
17909252 39 17987225647777078183
20028762 73 18057017281488514303
20764821 26 18194109949095982103
20775438 99 17698420450181516159
21304303 282 17101158093611946468
21634736 98 17692246336014892239
22182313 1 18051700141819011945
22907989 373 18117862064493930669
238 59 18334293133066510793
25222932 49 17484194783397149365
25265897 201 12782506496604650743
26353 1 17039539322421978397
2748010 2 18052260884085195369
3493558 16 15145485365621416679
352729 6 18265354827736295330
4280585 95 17257636834259164323
463206 1 17908700636154773393
484989 97 18336273426438664027
6287921 2 18044095661961874949

> <PUBCHEM_SHAPE_MULTIPOLES>
535.14
6.77
5
2.17
8.8
4.7
-1.66
-1.58
-4.03
-0.08
0.04
-1.6
-1.55
-0.49

> <PUBCHEM_SHAPE_SELFOVERLAP>
1149.97

> <PUBCHEM_SHAPE_VOLUME>
294.9

> <PUBCHEM_COORDINATE_TYPE>
2
5
10

$$$$
