136798818
  -OEChem-03292013293D

 58 60  0     1  0  0  0  0  0999 V2000
    3.1683    1.5537    0.2843 O   0  0  0  0  0  0  0  0  0  0  0  0
    4.3338   -1.0789   -0.7325 O   0  0  0  0  0  0  0  0  0  0  0  0
   -0.8487   -0.8628    1.3726 O   0  0  0  0  0  0  0  0  0  0  0  0
    2.2449    3.6441    0.5416 O   0  0  0  0  0  0  0  0  0  0  0  0
   -2.4695   -2.4311    1.5185 O   0  0  0  0  0  0  0  0  0  0  0  0
   -1.0271    2.0153    2.1679 O   0  0  0  0  0  0  0  0  0  0  0  0
    0.5942   -4.8386   -0.4700 O   0  0  0  0  0  0  0  0  0  0  0  0
    2.7513    0.2251    0.6167 C   0  0  2  0  0  0  0  0  0  0  0  0
    2.9412   -0.7997   -0.5574 C   0  0  2  0  0  0  0  0  0  0  0  0
    1.2893    0.3878    0.9102 C   0  0  0  0  0  0  0  0  0  0  0  0
    2.1990   -2.1502   -0.2550 C   0  0  0  0  0  0  0  0  0  0  0  0
    0.8379   -1.9472    0.3548 C   0  0  0  0  0  0  0  0  0  0  0  0
    0.4294   -0.7368    0.9108 C   0  0  0  0  0  0  0  0  0  0  0  0
    3.5198   -0.1731    1.8895 C   0  0  0  0  0  0  0  0  0  0  0  0
    0.9408    1.6724    0.9443 C   0  0  0  0  0  0  0  0  0  0  0  0
    2.4694   -0.2404   -1.8761 C   0  0  0  0  0  0  0  0  0  0  0  0
    2.1607    2.4286    0.5944 C   0  0  0  0  0  0  0  0  0  0  0  0
   -0.2417   -2.8486    0.4992 C   0  0  0  0  0  0  0  0  0  0  0  0
   -0.3780    2.2586    1.1426 C   0  0  0  0  0  0  0  0  0  0  0  0
   -1.2415   -2.1396    1.1231 C   0  0  0  0  0  0  0  0  0  0  0  0
   -0.9244    3.1415    0.0246 C   0  0  0  0  0  0  0  0  0  0  0  0
    3.2324    0.5089   -2.6847 C   0  0  0  0  0  0  0  0  0  0  0  0
   -2.4434    3.0747   -0.1336 C   0  0  0  0  0  0  0  0  0  0  0  0
   -0.3280   -4.2211    0.0961 C   0  0  0  0  0  0  0  0  0  0  0  0
   -2.9349    1.6605   -0.4619 C   0  0  0  0  0  0  0  0  0  0  0  0
   -4.4549    1.6327   -0.6414 C   0  0  0  0  0  0  0  0  0  0  0  0
    2.7657    1.0622   -3.9903 C   0  0  0  0  0  0  0  0  0  0  0  0
   -5.0117    0.2300   -0.9015 C   0  0  0  0  0  0  0  0  0  0  0  0
   -6.5367    0.1913   -1.0080 C   0  0  0  0  0  0  0  0  0  0  0  0
   -7.0377   -1.2193   -1.2786 C   0  0  0  0  0  0  0  0  0  0  0  0
    2.8043   -2.7515    0.4362 H   0  0  0  0  0  0  0  0  0  0  0  0
    2.1180   -2.7446   -1.1742 H   0  0  0  0  0  0  0  0  0  0  0  0
    4.6004   -0.1642    1.7076 H   0  0  0  0  0  0  0  0  0  0  0  0
    3.2389   -1.1661    2.2540 H   0  0  0  0  0  0  0  0  0  0  0  0
    3.3454    0.5453    2.7001 H   0  0  0  0  0  0  0  0  0  0  0  0
    1.4383   -0.4308   -2.1659 H   0  0  0  0  0  0  0  0  0  0  0  0
    4.4195   -1.8276   -1.3479 H   0  0  0  0  0  0  0  0  0  0  0  0
   -0.6261    4.1727    0.2451 H   0  0  0  0  0  0  0  0  0  0  0  0
   -0.4541    2.8524   -0.9229 H   0  0  0  0  0  0  0  0  0  0  0  0
    4.2565    0.7472   -2.4111 H   0  0  0  0  0  0  0  0  0  0  0  0
   -2.9231    3.4210    0.7901 H   0  0  0  0  0  0  0  0  0  0  0  0
   -2.7465    3.7641   -0.9306 H   0  0  0  0  0  0  0  0  0  0  0  0
   -1.2786   -4.7382    0.3113 H   0  0  0  0  0  0  0  0  0  0  0  0
   -2.6629    0.9672    0.3403 H   0  0  0  0  0  0  0  0  0  0  0  0
   -2.4505    1.3023   -1.3781 H   0  0  0  0  0  0  0  0  0  0  0  0
   -4.7356    2.2913   -1.4725 H   0  0  0  0  0  0  0  0  0  0  0  0
   -4.9299    2.0401    0.2599 H   0  0  0  0  0  0  0  0  0  0  0  0
    3.3992    0.6894   -4.8009 H   0  0  0  0  0  0  0  0  0  0  0  0
    1.7301    0.7862   -4.2122 H   0  0  0  0  0  0  0  0  0  0  0  0
    2.8317    2.1544   -3.9763 H   0  0  0  0  0  0  0  0  0  0  0  0
   -2.8226   -1.6142    1.9118 H   0  0  0  0  0  0  0  0  0  0  0  0
   -4.6918   -0.4379   -0.0917 H   0  0  0  0  0  0  0  0  0  0  0  0
   -4.5711   -0.1624   -1.8264 H   0  0  0  0  0  0  0  0  0  0  0  0
   -6.9833    0.5620   -0.0783 H   0  0  0  0  0  0  0  0  0  0  0  0
   -6.8687    0.8541   -1.8154 H   0  0  0  0  0  0  0  0  0  0  0  0
   -6.6325   -1.6059   -2.2192 H   0  0  0  0  0  0  0  0  0  0  0  0
   -6.7463   -1.9004   -0.4727 H   0  0  0  0  0  0  0  0  0  0  0  0
   -8.1298   -1.2259   -1.3509 H   0  0  0  0  0  0  0  0  0  0  0  0
  1  8  1  0  0  0  0
  1 17  1  0  0  0  0
  2  9  1  0  0  0  0
  2 37  1  0  0  0  0
  3 13  1  0  0  0  0
  3 20  1  0  0  0  0
  4 17  2  0  0  0  0
  5 20  1  0  0  0  0
  5 51  1  0  0  0  0
  6 19  2  0  0  0  0
  7 24  2  0  0  0  0
  8  9  1  0  0  0  0
  8 10  1  0  0  0  0
  8 14  1  0  0  0  0
  9 11  1  0  0  0  0
  9 16  1  0  0  0  0
 10 13  1  0  0  0  0
 10 15  2  0  0  0  0
 11 12  1  0  0  0  0
 11 31  1  0  0  0  0
 11 32  1  0  0  0  0
 12 13  2  0  0  0  0
 12 18  1  0  0  0  0
 14 33  1  0  0  0  0
 14 34  1  0  0  0  0
 14 35  1  0  0  0  0
 15 17  1  0  0  0  0
 15 19  1  0  0  0  0
 16 22  2  0  0  0  0
 16 36  1  0  0  0  0
 18 20  2  0  0  0  0
 18 24  1  0  0  0  0
 19 21  1  0  0  0  0
 21 23  1  0  0  0  0
 21 38  1  0  0  0  0
 21 39  1  0  0  0  0
 22 27  1  0  0  0  0
 22 40  1  0  0  0  0
 23 25  1  0  0  0  0
 23 41  1  0  0  0  0
 23 42  1  0  0  0  0
 24 43  1  0  0  0  0
 25 26  1  0  0  0  0
 25 44  1  0  0  0  0
 25 45  1  0  0  0  0
 26 28  1  0  0  0  0
 26 46  1  0  0  0  0
 26 47  1  0  0  0  0
 27 48  1  0  0  0  0
 27 49  1  0  0  0  0
 27 50  1  0  0  0  0
 28 29  1  0  0  0  0
 28 52  1  0  0  0  0
 28 53  1  0  0  0  0
 29 30  1  0  0  0  0
 29 54  1  0  0  0  0
 29 55  1  0  0  0  0
 30 56  1  0  0  0  0
 30 57  1  0  0  0  0
 30 58  1  0  0  0  0
M  END
> <PUBCHEM_COMPOUND_CID>
136798818

> <PUBCHEM_CONFORMER_RMSD>
1

> <PUBCHEM_CONFORMER_DIVERSEORDER>
1
15
6
25
35
24
10
7
38
23
27
36
37
44
21
19
31
13
45
22
33
39
5
14
32
4
12
34
17
28
42
40
9
18
16
41
43
3
2
20
8
11
30
29
26

> <PUBCHEM_MMFF94_PARTIAL_CHARGES>
28
1 -0.43
10 -0.09
11 0.18
12 -0.18
13 0.09
15 0.03
16 -0.29
17 0.71
18 -0.09
19 0.49
2 -0.68
20 0.2
21 0.06
22 -0.29
24 0.6
27 0.14
3 -0.28
36 0.15
37 0.4
4 -0.57
40 0.15
43 0.06
5 -0.51
51 0.45
6 -0.57
7 -0.57
8 0.42
9 0.42

> <PUBCHEM_EFFECTIVE_ROTOR_COUNT>
9.6

> <PUBCHEM_PHARMACOPHORE_FEATURES>
15
1 15 anion
1 2 acceptor
1 2 donor
1 27 hydrophobe
1 3 acceptor
1 30 hydrophobe
1 4 acceptor
1 5 donor
1 6 acceptor
1 7 acceptor
3 21 23 25 hydrophobe
3 26 28 29 hydrophobe
5 1 8 10 15 17 rings
5 3 12 13 18 20 rings
6 8 9 10 11 12 13 rings

> <PUBCHEM_HEAVY_ATOM_COUNT>
30

> <PUBCHEM_ATOM_DEF_STEREO_COUNT>
2

> <PUBCHEM_ATOM_UDEF_STEREO_COUNT>
0

> <PUBCHEM_BOND_DEF_STEREO_COUNT>
1

> <PUBCHEM_BOND_UDEF_STEREO_COUNT>
0

> <PUBCHEM_ISOTOPIC_ATOM_COUNT>
0

> <PUBCHEM_COMPONENT_COUNT>
1

> <PUBCHEM_CACTVS_TAUTO_COUNT>
-1

> <PUBCHEM_CONFORMER_ID>
0827626200000001

> <PUBCHEM_MMFF94_ENERGY>
49.4489

> <PUBCHEM_FEATURE_SELFOVERLAP>
76.318

> <PUBCHEM_SHAPE_FINGERPRINT>
108634 29 18410571794881732227
11578080 2 18043811111894127244
12156800 1 17683536403962390684
12596599 1 17559962022076875177
13383661 66 17346048774722980543
13402501 40 18262226837925709027
13617811 41 17967526892649831253
17492 54 17894641352542662829
17909252 39 17914890946580564851
20028762 73 18271793623594580407
20764821 26 18337109085556205623
20775438 99 18057589061662601119
22182313 1 18194415595578883705
22907989 373 18046379454570307133
23379529 103 17193192263338057431
238 59 18263087630201057745
25222932 49 17987495101334734013
3493558 16 15579251464522816863
3737641 26 18269557127313503011
4112364 45 10929699404044284044
463206 1 17690560788915725545
484989 97 18336272322637278899
58260988 114 13324078031404272220

> <PUBCHEM_SHAPE_MULTIPOLES>
576.3
9.53
4.82
2.31
20.92
3.05
-2.33
-0.3
-5.85
0.26
0.92
-2.36
-0.84
-0.06

> <PUBCHEM_SHAPE_SELFOVERLAP>
1224.641

> <PUBCHEM_SHAPE_VOLUME>
321

> <PUBCHEM_COORDINATE_TYPE>
2
5
10

$$$$
