136778458
  -OEChem-03292013293D

 34 35  0     0  0  0  0  0  0999 V2000
    0.3963    3.4358   -0.1542 S   0  0  0  0  0  0  0  0  0  0  0  0
    3.0014   -1.0103   -2.0945 O   0  0  0  0  0  0  0  0  0  0  0  0
    0.4537   -0.4655    0.1713 N   0  0  0  0  0  0  0  0  0  0  0  0
   -3.2084   -0.4674   -1.0230 N   0  0  0  0  0  0  0  0  0  0  0  0
    0.8280    0.8332    0.0774 N   0  0  0  0  0  0  0  0  0  0  0  0
   -1.4282    1.4119   -0.0542 N   0  0  0  0  0  0  0  0  0  0  0  0
   -2.4574    2.2855   -0.1648 N   0  0  0  0  0  0  0  0  0  0  0  0
    2.8426   -0.8316    0.2923 C   0  0  0  0  0  0  0  0  0  0  0  0
    3.5681   -0.7078   -0.8924 C   0  0  0  0  0  0  0  0  0  0  0  0
    3.4415   -0.5193    1.5127 C   0  0  0  0  0  0  0  0  0  0  0  0
    4.8926   -0.2719   -0.8569 C   0  0  0  0  0  0  0  0  0  0  0  0
    4.7661   -0.0835    1.5484 C   0  0  0  0  0  0  0  0  0  0  0  0
    5.4917    0.0402    0.3636 C   0  0  0  0  0  0  0  0  0  0  0  0
    1.4430   -1.2916    0.2776 C   0  0  0  0  0  0  0  0  0  0  0  0
   -3.7870    0.2665   -0.0462 C   0  0  0  0  0  0  0  0  0  0  0  0
   -4.4971   -0.2748    1.0134 C   0  0  0  0  0  0  0  0  0  0  0  0
   -4.6211   -1.6584    1.0744 C   0  0  0  0  0  0  0  0  0  0  0  0
   -4.0396   -2.4471    0.0879 C   0  0  0  0  0  0  0  0  0  0  0  0
   -3.6236    1.7262   -0.1614 C   0  0  0  0  0  0  0  0  0  0  0  0
   -3.3502   -1.8086   -0.9304 C   0  0  0  0  0  0  0  0  0  0  0  0
   -0.1124    1.8384   -0.0409 C   0  0  0  0  0  0  0  0  0  0  0  0
    2.8859   -0.6120    2.4424 H   0  0  0  0  0  0  0  0  0  0  0  0
    5.4699   -0.1710   -1.7720 H   0  0  0  0  0  0  0  0  0  0  0  0
    5.2324    0.1597    2.4986 H   0  0  0  0  0  0  0  0  0  0  0  0
    6.5230    0.3796    0.3914 H   0  0  0  0  0  0  0  0  0  0  0  0
    1.2586   -2.3747    0.3603 H   0  0  0  0  0  0  0  0  0  0  0  0
   -4.9456    0.3513    1.7773 H   0  0  0  0  0  0  0  0  0  0  0  0
   -5.1695   -2.1212    1.8893 H   0  0  0  0  0  0  0  0  0  0  0  0
   -4.1230   -3.5274    0.1154 H   0  0  0  0  0  0  0  0  0  0  0  0
   -4.5336    2.3472   -0.1777 H   0  0  0  0  0  0  0  0  0  0  0  0
   -2.8776   -2.3784   -1.7236 H   0  0  0  0  0  0  0  0  0  0  0  0
    3.6550   -0.8638   -2.7997 H   0  0  0  0  0  0  0  0  0  0  0  0
    1.8045    1.0968    0.0913 H   0  0  0  0  0  0  0  0  0  0  0  0
   -1.6053    0.4194    0.0343 H   0  0  0  0  0  0  0  0  0  0  0  0
  1 21  2  0  0  0  0
  2  9  1  0  0  0  0
  2 32  1  0  0  0  0
  3  5  1  0  0  0  0
  3 14  2  0  0  0  0
  4 15  1  0  0  0  0
  4 20  2  0  0  0  0
  5 21  1  0  0  0  0
  5 33  1  0  0  0  0
  6  7  1  0  0  0  0
  6 21  1  0  0  0  0
  6 34  1  0  0  0  0
  7 19  2  0  0  0  0
  8  9  1  0  0  0  0
  8 10  2  0  0  0  0
  8 14  1  0  0  0  0
  9 11  2  0  0  0  0
 10 12  1  0  0  0  0
 10 22  1  0  0  0  0
 11 13  1  0  0  0  0
 11 23  1  0  0  0  0
 12 13  2  0  0  0  0
 12 24  1  0  0  0  0
 13 25  1  0  0  0  0
 14 26  1  0  0  0  0
 15 16  2  0  0  0  0
 15 19  1  0  0  0  0
 16 17  1  0  0  0  0
 16 27  1  0  0  0  0
 17 18  2  0  0  0  0
 17 28  1  0  0  0  0
 18 20  1  0  0  0  0
 18 29  1  0  0  0  0
 19 30  1  0  0  0  0
 20 31  1  0  0  0  0
M  END
> <PUBCHEM_COMPOUND_CID>
136778458

> <PUBCHEM_CONFORMER_RMSD>
1

> <PUBCHEM_CONFORMER_DIVERSEORDER>
1
94
117
167
126
170
195
162
71
27
36
99
169
114
146
194
189
91
150
161
174
104
88
24
38
154
31
193
26
121
115
188
155
87
50
190
42
58
110
98
171
185
163
97
109
136
184
102
182
7
156
33
140
81
145
138
153
108
144
131
186
137
54
85
139
151
5
124
123
105
118
172
29
41
107
166
53
160
125
18
132
65
25
130
112
10
147
159
55
44
134
56
17
83
148
86
73
70
173
111
127
135
60
57
9
168
32
22
30
142
37
158
45
192
113
74
179
120
129
180
143
101
20
82
100
177
75
116
76
157
84
40
72
67
191
11
51
19
175
35
62
46
12
21
183
59
66
80
69
13
176
61
15
122
64
149
152
106
141
78
133
49
187
6
181
47
48
34
178
28
93
68
23
79
39
16
43
52
164
96
128
119
89
3
14
95
8
92
4
90
63
2
103
165
77

> <PUBCHEM_MMFF94_PARTIAL_CHARGES>
34
1 -0.38
10 -0.15
11 -0.15
12 -0.15
13 -0.15
14 0.3
15 0.4
16 -0.15
17 -0.15
18 -0.15
19 0.3
2 -0.53
20 0.16
21 0.5
22 0.15
23 0.15
24 0.15
25 0.15
26 0.06
27 0.15
28 0.15
29 0.15
3 -0.51
30 0.06
31 0.15
32 0.45
33 0.37
34 0.37
4 -0.62
5 -0.37
6 -0.37
7 -0.51
8 0.09
9 0.08

> <PUBCHEM_EFFECTIVE_ROTOR_COUNT>
6

> <PUBCHEM_PHARMACOPHORE_FEATURES>
9
1 1 acceptor
1 2 donor
1 3 acceptor
1 4 acceptor
1 5 donor
1 6 donor
1 7 acceptor
6 4 15 16 17 18 20 rings
6 8 9 10 11 12 13 rings

> <PUBCHEM_HEAVY_ATOM_COUNT>
21

> <PUBCHEM_ATOM_DEF_STEREO_COUNT>
0

> <PUBCHEM_ATOM_UDEF_STEREO_COUNT>
0

> <PUBCHEM_BOND_DEF_STEREO_COUNT>
2

> <PUBCHEM_BOND_UDEF_STEREO_COUNT>
0

> <PUBCHEM_ISOTOPIC_ATOM_COUNT>
0

> <PUBCHEM_COMPONENT_COUNT>
1

> <PUBCHEM_CACTVS_TAUTO_COUNT>
-1

> <PUBCHEM_CONFORMER_ID>
082712DA00000001

> <PUBCHEM_MMFF94_ENERGY>
79.8406

> <PUBCHEM_FEATURE_SELFOVERLAP>
45.718

> <PUBCHEM_SHAPE_FINGERPRINT>
11014199 57 17768238373346436247
11370993 144 17060067990797617051
11552529 35 15338252693100214271
12166972 35 17385445427892619412
12236239 1 17675924279558753058
12553582 1 18409729565007072319
12616971 3 16877949291235172692
13911882 115 17988931054820112502
14787075 74 18113900485518149128
15021287 119 14045740418268278074
15788980 27 15936406719477625066
17349148 13 17458065937213065234
1813 80 18411987978637844485
200 152 16153706501178528510
21033648 29 17489575749836781987
21079973 296 18341889675744957336
23402539 116 17967530143074331984
23557571 272 18272093738760945916
23559900 14 18197500619585991486
23622692 118 18199459034705228229
238078 22 18410580556562671057
329604 57 17968666024226856971
339767 52 18334288760589135695
4325135 7 18408606980888868020
5104073 3 18270394976200507498
602551 16 18412822495358265690
6442390 28 18273492382334935846

> <PUBCHEM_SHAPE_MULTIPOLES>
405.25
12.25
2.77
1.28
3.28
2.25
-0.09
-5.43
1.67
-2.77
-0.2
1.04
-0.5
0.33

> <PUBCHEM_SHAPE_SELFOVERLAP>
848.205

> <PUBCHEM_SHAPE_VOLUME>
230.3

> <PUBCHEM_COORDINATE_TYPE>
2
5
10

$$$$
