136785197
  -OEChem-03292013293D

 35 36  0     1  0  0  0  0  0999 V2000
    2.4218   -1.2527   -1.0790 O   0  0  0  0  0  0  0  0  0  0  0  0
    4.3546    0.1446    0.5240 O   0  0  0  0  0  0  0  0  0  0  0  0
   -2.0711   -2.4693   -0.2907 O   0  0  0  0  0  0  0  0  0  0  0  0
    0.2563   -1.0180    0.6560 N   0  0  3  0  0  0  0  0  0  0  0  0
   -0.0943    1.7026    0.8483 N   0  0  0  0  0  0  0  0  0  0  0  0
   -2.3332    1.5626    0.0110 N   0  0  0  0  0  0  0  0  0  0  0  0
   -3.2512   -0.5288   -0.4841 N   0  0  0  0  0  0  0  0  0  0  0  0
   -4.5345    1.3938   -0.7702 N   0  0  0  0  0  0  0  0  0  0  0  0
    1.4630   -0.1784    0.8377 C   0  0  1  0  0  0  0  0  0  0  0  0
    2.1582    0.0262   -0.5109 C   0  0  1  0  0  0  0  0  0  0  0  0
    1.0773    1.1520    1.4931 C   0  0  0  0  0  0  0  0  0  0  0  0
    3.4676    0.8105   -0.3727 C   0  0  2  0  0  0  0  0  0  0  0  0
   -0.9693   -0.4129    0.3113 C   0  0  0  0  0  0  0  0  0  0  0  0
   -1.1569    0.9355    0.3773 C   0  0  0  0  0  0  0  0  0  0  0  0
    0.4857   -2.4583    0.7230 C   0  0  0  0  0  0  0  0  0  0  0  0
    4.1806    0.9948   -1.7073 C   0  0  0  0  0  0  0  0  0  0  0  0
   -2.1188   -1.2495   -0.1691 C   0  0  0  0  0  0  0  0  0  0  0  0
   -3.3359    0.8452   -0.3980 C   0  0  0  0  0  0  0  0  0  0  0  0
    2.1485   -0.6937    1.5230 H   0  0  0  0  0  0  0  0  0  0  0  0
    1.4901    0.5508   -1.2053 H   0  0  0  0  0  0  0  0  0  0  0  0
    0.8163    0.9604    2.5423 H   0  0  0  0  0  0  0  0  0  0  0  0
    1.8824    1.8883    1.5180 H   0  0  0  0  0  0  0  0  0  0  0  0
    3.2784    1.8096    0.0288 H   0  0  0  0  0  0  0  0  0  0  0  0
   -0.2614    2.7016    0.9082 H   0  0  0  0  0  0  0  0  0  0  0  0
    1.4736   -2.7027    1.1290 H   0  0  0  0  0  0  0  0  0  0  0  0
   -0.2453   -2.9323    1.3865 H   0  0  0  0  0  0  0  0  0  0  0  0
    0.4206   -2.9103   -0.2720 H   0  0  0  0  0  0  0  0  0  0  0  0
    4.5518    0.0426   -2.1008 H   0  0  0  0  0  0  0  0  0  0  0  0
    3.5241    1.4576   -2.4503 H   0  0  0  0  0  0  0  0  0  0  0  0
    5.0608    1.6351   -1.5802 H   0  0  0  0  0  0  0  0  0  0  0  0
    2.6396   -1.1237   -2.0173 H   0  0  0  0  0  0  0  0  0  0  0  0
    5.1580    0.6871    0.6008 H   0  0  0  0  0  0  0  0  0  0  0  0
   -4.0646   -1.0403   -0.8132 H   0  0  0  0  0  0  0  0  0  0  0  0
   -4.6854    2.3962   -0.7390 H   0  0  0  0  0  0  0  0  0  0  0  0
   -5.3052    0.8160   -1.0873 H   0  0  0  0  0  0  0  0  0  0  0  0
  1 10  1  0  0  0  0
  1 31  1  0  0  0  0
  2 12  1  0  0  0  0
  2 32  1  0  0  0  0
  3 17  2  0  0  0  0
  4  9  1  0  0  0  0
  4 13  1  0  0  0  0
  4 15  1  0  0  0  0
  5 11  1  0  0  0  0
  5 14  1  0  0  0  0
  5 24  1  0  0  0  0
  6 14  1  0  0  0  0
  6 18  2  0  0  0  0
  7 17  1  0  0  0  0
  7 18  1  0  0  0  0
  7 33  1  0  0  0  0
  8 18  1  0  0  0  0
  8 34  1  0  0  0  0
  8 35  1  0  0  0  0
  9 10  1  0  0  0  0
  9 11  1  0  0  0  0
  9 19  1  0  0  0  0
 10 12  1  0  0  0  0
 10 20  1  0  0  0  0
 11 21  1  0  0  0  0
 11 22  1  0  0  0  0
 12 16  1  0  0  0  0
 12 23  1  0  0  0  0
 13 14  2  0  0  0  0
 13 17  1  0  0  0  0
 15 25  1  0  0  0  0
 15 26  1  0  0  0  0
 15 27  1  0  0  0  0
 16 28  1  0  0  0  0
 16 29  1  0  0  0  0
 16 30  1  0  0  0  0
M  END
> <PUBCHEM_COMPOUND_CID>
136785197

> <PUBCHEM_CONFORMER_RMSD>
0.6

> <PUBCHEM_CONFORMER_DIVERSEORDER>
1
15
6
24
23
18
12
13
5
25
9
16
20
29
11
4
28
17
21
19
22
3
7
8
27
14
2
26
10

> <PUBCHEM_MMFF94_PARTIAL_CHARGES>
23
1 -0.68
10 0.28
11 0.37
12 0.28
13 0.11
14 0.27
15 0.37
17 0.62
18 0.56
2 -0.68
24 0.4
3 -0.57
31 0.4
32 0.4
33 0.37
34 0.4
35 0.4
4 -0.84
5 -0.87
6 -0.62
7 -0.49
8 -0.85
9 0.37

> <PUBCHEM_EFFECTIVE_ROTOR_COUNT>
2.8

> <PUBCHEM_PHARMACOPHORE_FEATURES>
12
1 1 acceptor
1 1 donor
1 2 acceptor
1 2 donor
1 3 acceptor
1 4 cation
1 5 cation
1 5 donor
1 7 donor
1 8 donor
6 4 5 9 11 13 14 rings
6 6 7 13 14 17 18 rings

> <PUBCHEM_HEAVY_ATOM_COUNT>
18

> <PUBCHEM_ATOM_DEF_STEREO_COUNT>
1

> <PUBCHEM_ATOM_UDEF_STEREO_COUNT>
2

> <PUBCHEM_BOND_DEF_STEREO_COUNT>
0

> <PUBCHEM_BOND_UDEF_STEREO_COUNT>
0

> <PUBCHEM_ISOTOPIC_ATOM_COUNT>
0

> <PUBCHEM_COMPONENT_COUNT>
1

> <PUBCHEM_CACTVS_TAUTO_COUNT>
-1

> <PUBCHEM_CONFORMER_ID>
08272D2D00000001

> <PUBCHEM_MMFF94_ENERGY>
57.7901

> <PUBCHEM_FEATURE_SELFOVERLAP>
60.978

> <PUBCHEM_SHAPE_FINGERPRINT>
10062212 137 18334562547595921002
10498660 4 18333726906016288645
11206711 2 18339922735257809391
11640471 11 17458634470613363486
12251169 10 7997966847758835780
12892183 10 8934729842628872500
14115302 16 18337949000432949826
14790565 3 18127421046998815225
14911166 2 18272363166322762025
15219456 202 17916576695289376976
15375358 24 17917983988610593416
15775835 57 17748827423280710988
16945 1 18059861666049506056
18186145 218 18337967696541679326
19765921 60 18040715857221880299
19868273 293 18408324392987892310
200 152 16343707621012077268
20201158 50 18060421326311127374
20279233 1 17846776312881864072
20361792 2 14261352440265758296
20523700 14 18335414651995714293
20645476 183 18113614599472907683
20871999 31 18339643451036212351
21524375 3 18113617859184027088
21637258 2 14117518693086787676
22079108 93 15936701444692564921
22802520 49 18200875200701183475
22854114 59 13045942417082261100
22926399 65 18409447002939308144
23402539 116 18410566310656836052
23493267 7 17894346696337298443
23557571 272 18270132325791122086
23559900 14 18272650152348843800
25 1 18410007706914925651
2748010 2 18053084409941900073
353137 74 18340773632666772393
474 4 16661214770670732796
4990 188 17918268753637903709
7364860 26 18195238919461595850
77492 1 17531514477757954298

> <PUBCHEM_SHAPE_MULTIPOLES>
327.92
7.11
2.11
1.19
1.34
1.08
0.03
-2.81
3.19
-1.06
-0.1
0.91
-0.26
-0.15

> <PUBCHEM_SHAPE_SELFOVERLAP>
685.76

> <PUBCHEM_SHAPE_VOLUME>
182

> <PUBCHEM_COORDINATE_TYPE>
2
5
10

$$$$
