136738308
  -OEChem-03292013293D

 32 33  0     1  0  0  0  0  0999 V2000
    0.1056   -1.7508    1.3208 O   0  0  0  0  0  0  0  0  0  0  0  0
   -2.7729   -2.0646    0.3318 O   0  0  0  0  0  0  0  0  0  0  0  0
    2.6734    2.5725    0.4379 O   0  0  0  0  0  0  0  0  0  0  0  0
   -1.4287   -0.6041   -0.8681 N   0  0  0  0  0  0  0  0  0  0  0  0
    4.5792    1.2608    0.0622 N   0  0  0  0  0  0  0  0  0  0  0  0
   -4.8430   -0.1184    0.5343 N   0  0  0  0  0  0  0  0  0  0  0  0
    3.6364   -0.7607   -0.1263 N   0  0  0  0  0  0  0  0  0  0  0  0
    6.0069   -0.5731   -0.3382 N   0  0  0  0  0  0  0  0  0  0  0  0
    0.7162   -1.4190    0.0751 C   0  0  1  0  0  0  0  0  0  0  0  0
   -0.3189   -1.5033   -1.0490 C   0  0  0  0  0  0  0  0  0  0  0  0
    1.3385   -0.0583    0.2033 C   0  0  0  0  0  0  0  0  0  0  0  0
    2.6525    0.1724    0.1034 C   0  0  0  0  0  0  0  0  0  0  0  0
   -2.5807   -0.9658   -0.1821 C   0  0  0  0  0  0  0  0  0  0  0  0
   -3.6455    0.0674   -0.1056 C   0  0  0  0  0  0  0  0  0  0  0  0
    3.2486    1.5223    0.2326 C   0  0  0  0  0  0  0  0  0  0  0  0
    4.7497   -0.0812   -0.1429 C   0  0  0  0  0  0  0  0  0  0  0  0
   -3.6394    1.3420   -0.6279 C   0  0  0  0  0  0  0  0  0  0  0  0
   -5.6011    1.0184    0.4289 C   0  0  0  0  0  0  0  0  0  0  0  0
   -4.8769    1.9435   -0.2899 C   0  0  0  0  0  0  0  0  0  0  0  0
    1.4758   -2.1855   -0.1165 H   0  0  0  0  0  0  0  0  0  0  0  0
    0.1405   -1.2640   -2.0143 H   0  0  0  0  0  0  0  0  0  0  0  0
   -0.7132   -2.5246   -1.1048 H   0  0  0  0  0  0  0  0  0  0  0  0
    0.6674    0.7744    0.4022 H   0  0  0  0  0  0  0  0  0  0  0  0
   -1.3402    0.3237   -1.2683 H   0  0  0  0  0  0  0  0  0  0  0  0
    0.7997   -1.7462    2.0022 H   0  0  0  0  0  0  0  0  0  0  0  0
    5.3209    1.9507    0.0844 H   0  0  0  0  0  0  0  0  0  0  0  0
   -5.1252   -0.9631    1.0123 H   0  0  0  0  0  0  0  0  0  0  0  0
   -2.8456    1.8106   -1.1924 H   0  0  0  0  0  0  0  0  0  0  0  0
   -6.5853    1.0674    0.8732 H   0  0  0  0  0  0  0  0  0  0  0  0
   -5.2050    2.9421   -0.5421 H   0  0  0  0  0  0  0  0  0  0  0  0
    6.1673   -1.5625   -0.4930 H   0  0  0  0  0  0  0  0  0  0  0  0
    6.8181    0.0355   -0.3345 H   0  0  0  0  0  0  0  0  0  0  0  0
  1  9  1  0  0  0  0
  1 25  1  0  0  0  0
  2 13  2  0  0  0  0
  3 15  2  0  0  0  0
  4 10  1  0  0  0  0
  4 13  1  0  0  0  0
  4 24  1  0  0  0  0
  5 15  1  0  0  0  0
  5 16  1  0  0  0  0
  5 26  1  0  0  0  0
  6 14  1  0  0  0  0
  6 18  1  0  0  0  0
  6 27  1  0  0  0  0
  7 12  1  0  0  0  0
  7 16  2  0  0  0  0
  8 16  1  0  0  0  0
  8 31  1  0  0  0  0
  8 32  1  0  0  0  0
  9 10  1  0  0  0  0
  9 11  1  0  0  0  0
  9 20  1  0  0  0  0
 10 21  1  0  0  0  0
 10 22  1  0  0  0  0
 11 12  2  0  0  0  0
 11 23  1  0  0  0  0
 12 15  1  0  0  0  0
 13 14  1  0  0  0  0
 14 17  2  0  0  0  0
 17 19  1  0  0  0  0
 17 28  1  0  0  0  0
 18 19  2  0  0  0  0
 18 29  1  0  0  0  0
 19 30  1  0  0  0  0
M  END
> <PUBCHEM_COMPOUND_CID>
136738308

> <PUBCHEM_CONFORMER_RMSD>
0.8

> <PUBCHEM_CONFORMER_DIVERSEORDER>
1
18
8
12
93
95
68
33
53
92
29
49
102
30
65
105
46
37
3
60
32
67
34
87
99
38
47
6
106
11
45
14
62
71
73
91
75
13
27
16
4
31
94
2
5
24
104
74
36
41
83
88
66
79
21
61
28
48
15
63
43
90
89
100
19
98
54
39
77
44
40
96
107
42
51
55
20
97
22
81
58
7
103
64
69
52
25
85
101
9
35
50
70
78
26
80
86
10
59
17
57
84
82
23
76
56
72

> <PUBCHEM_MMFF94_PARTIAL_CHARGES>
29
1 -0.68
10 0.3
11 -0.29
12 0.19
13 0.71
14 -0.24
15 0.62
16 0.56
17 -0.15
18 -0.3
19 -0.15
2 -0.57
23 0.15
24 0.37
25 0.4
26 0.37
27 0.27
28 0.15
29 0.15
3 -0.57
30 0.15
31 0.4
32 0.4
4 -0.73
5 -0.49
6 0.03
7 -0.62
8 -0.85
9 0.42

> <PUBCHEM_EFFECTIVE_ROTOR_COUNT>
5.2

> <PUBCHEM_PHARMACOPHORE_FEATURES>
11
1 1 acceptor
1 1 donor
1 2 acceptor
1 3 acceptor
1 4 donor
1 5 donor
1 6 cation
1 6 donor
1 8 donor
5 5 7 12 15 16 rings
5 6 14 17 18 19 rings

> <PUBCHEM_HEAVY_ATOM_COUNT>
19

> <PUBCHEM_ATOM_DEF_STEREO_COUNT>
1

> <PUBCHEM_ATOM_UDEF_STEREO_COUNT>
0

> <PUBCHEM_BOND_DEF_STEREO_COUNT>
1

> <PUBCHEM_BOND_UDEF_STEREO_COUNT>
0

> <PUBCHEM_ISOTOPIC_ATOM_COUNT>
0

> <PUBCHEM_COMPONENT_COUNT>
1

> <PUBCHEM_CACTVS_TAUTO_COUNT>
-1

> <PUBCHEM_CONFORMER_ID>
0826760400000001

> <PUBCHEM_MMFF94_ENERGY>
26.0796

> <PUBCHEM_FEATURE_SELFOVERLAP>
55.864

> <PUBCHEM_SHAPE_FINGERPRINT>
10447042 23 9007060136724709616
11089746 13 18341604915044301989
11405975 8 18336541707222632914
11458722 120 18411413995541089546
11552529 35 16516543255174837555
12596602 18 14923954456812289325
13177829 73 18272930488426244880
13533116 47 15051458155382406982
13911882 115 11242249619902044680
14123255 52 18410007724269010955
14251752 14 18335708209332639950
14252887 29 13767923486303921522
14341114 176 18334300863638391429
15196674 1 18340485668036831156
15209294 21 18113335306381774823
15295992 7 18261394507027442280
15531645 54 18343023268391868918
17834072 32 18341894091277188733
17834072 8 18131074818547093006
18186145 218 18188196697967262222
18335252 114 18200586995817123333
19784866 170 17895194364073194487
19784866 9 18409443653070805818
20281389 69 18408321085947788752
20645477 56 18408043996612670415
20832881 197 18336827503495710066
212847 35 18408606972335850044
21503847 285 18260265282916509148
21652331 79 18408038498928047845
231179 274 18411136900956228191
23227448 37 18411980304121928829
23402539 116 17632571656413052972
23402655 69 18271805765672575260
2838139 119 18342732992943091029
347723 3 16271929298358616403
351380 180 18413670214211562021
3545911 37 18411703170972188223
4214541 1 18411981381778924767
4325135 7 18060134346114784599
5104073 3 18262229040832456208
54446538 1 18412260653495603741
59124914 9 18337108969054057761
59755656 215 18340492149617137542
59755656 520 17675925399780801034
633830 44 18336258037544079198
90127 26 18337115673782875786
9996256 80 18412263969411108591

> <PUBCHEM_SHAPE_MULTIPOLES>
348.5
13.21
2.13
0.83
0.37
0.46
0
5.51
0.12
-0.35
0.16
-0.26
-0.2
0.45

> <PUBCHEM_SHAPE_SELFOVERLAP>
741.764

> <PUBCHEM_SHAPE_VOLUME>
192.9

> <PUBCHEM_COORDINATE_TYPE>
2
5
10

$$$$
