136748496
  -OEChem-03292013293D

 28 30  0     1  0  0  0  0  0999 V2000
    4.2361    1.1265    0.7666 O   0  0  0  0  0  0  0  0  0  0  0  0
   -3.5203    2.1113   -0.0493 O   0  0  0  0  0  0  0  0  0  0  0  0
    0.5194    0.0875   -0.0723 N   0  0  0  0  0  0  0  0  0  0  0  0
   -0.5519    2.0494   -0.1429 N   0  0  0  0  0  0  0  0  0  0  0  0
   -1.3553   -1.4370    0.0712 N   0  0  0  0  0  0  0  0  0  0  0  0
   -3.4182   -0.2186    0.0731 N   0  0  0  0  0  0  0  0  0  0  0  0
   -3.4099   -2.5695    0.1992 N   0  0  0  0  0  0  0  0  0  0  0  0
    1.6717   -0.8943   -0.0576 C   0  0  2  0  0  0  0  0  0  0  0  0
    2.6688   -0.6939    1.1061 C   0  0  0  0  0  0  0  0  0  0  0  0
    3.9958   -0.2422    0.4828 C   0  0  1  0  0  0  0  0  0  0  0  0
    2.5417   -0.7994   -1.2750 C   0  0  0  0  0  0  0  0  0  0  0  0
    3.7945   -0.4427   -0.9803 C   0  0  0  0  0  0  0  0  0  0  0  0
   -0.8119   -0.2026   -0.0130 C   0  0  0  0  0  0  0  0  0  0  0  0
    0.6251    1.4549   -0.1496 C   0  0  0  0  0  0  0  0  0  0  0  0
   -1.4402    1.0184   -0.0583 C   0  0  0  0  0  0  0  0  0  0  0  0
   -2.8753    1.0710   -0.0141 C   0  0  0  0  0  0  0  0  0  0  0  0
   -2.6700   -1.4188    0.1133 C   0  0  0  0  0  0  0  0  0  0  0  0
    1.2139   -1.8878    0.0066 H   0  0  0  0  0  0  0  0  0  0  0  0
    2.2962    0.0008    1.8671 H   0  0  0  0  0  0  0  0  0  0  0  0
    2.8220   -1.6637    1.5980 H   0  0  0  0  0  0  0  0  0  0  0  0
    4.8370   -0.8347    0.8560 H   0  0  0  0  0  0  0  0  0  0  0  0
    2.1882   -0.9890   -2.2789 H   0  0  0  0  0  0  0  0  0  0  0  0
    4.5732   -0.3055   -1.7169 H   0  0  0  0  0  0  0  0  0  0  0  0
    1.5792    1.9605   -0.2074 H   0  0  0  0  0  0  0  0  0  0  0  0
    4.3028    1.2174    1.7325 H   0  0  0  0  0  0  0  0  0  0  0  0
   -4.4305   -0.2969    0.1104 H   0  0  0  0  0  0  0  0  0  0  0  0
   -2.9634   -3.4795    0.2335 H   0  0  0  0  0  0  0  0  0  0  0  0
   -4.4232   -2.5457    0.2311 H   0  0  0  0  0  0  0  0  0  0  0  0
  1 10  1  0  0  0  0
  1 25  1  0  0  0  0
  2 16  2  0  0  0  0
  3  8  1  0  0  0  0
  3 13  1  0  0  0  0
  3 14  1  0  0  0  0
  4 14  2  0  0  0  0
  4 15  1  0  0  0  0
  5 13  1  0  0  0  0
  5 17  2  0  0  0  0
  6 16  1  0  0  0  0
  6 17  1  0  0  0  0
  6 26  1  0  0  0  0
  7 17  1  0  0  0  0
  7 27  1  0  0  0  0
  7 28  1  0  0  0  0
  8  9  1  0  0  0  0
  8 11  1  0  0  0  0
  8 18  1  0  0  0  0
  9 10  1  0  0  0  0
  9 19  1  0  0  0  0
  9 20  1  0  0  0  0
 10 12  1  0  0  0  0
 10 21  1  0  0  0  0
 11 12  2  0  0  0  0
 11 22  1  0  0  0  0
 12 23  1  0  0  0  0
 13 15  2  0  0  0  0
 14 24  1  0  0  0  0
 15 16  1  0  0  0  0
M  END
> <PUBCHEM_COMPOUND_CID>
136748496

> <PUBCHEM_CONFORMER_RMSD>
0.6

> <PUBCHEM_CONFORMER_DIVERSEORDER>
1
2
5
6
3
4

> <PUBCHEM_MMFF94_PARTIAL_CHARGES>
23
1 -0.68
10 0.42
11 -0.29
12 -0.29
13 -0.03
14 0.04
15 0.14
16 0.72
17 0.56
2 -0.57
22 0.15
23 0.15
24 0.15
25 0.4
26 0.37
27 0.4
28 0.4
3 0.05
4 -0.57
5 -0.58
6 -0.49
7 -0.85
8 0.39

> <PUBCHEM_EFFECTIVE_ROTOR_COUNT>
1.6

> <PUBCHEM_PHARMACOPHORE_FEATURES>
9
1 1 acceptor
1 1 donor
1 2 acceptor
1 6 donor
1 7 donor
3 3 4 14 cation
5 3 4 13 14 15 rings
5 8 9 10 11 12 rings
6 5 6 13 15 16 17 rings

> <PUBCHEM_HEAVY_ATOM_COUNT>
17

> <PUBCHEM_ATOM_DEF_STEREO_COUNT>
2

> <PUBCHEM_ATOM_UDEF_STEREO_COUNT>
0

> <PUBCHEM_BOND_DEF_STEREO_COUNT>
0

> <PUBCHEM_BOND_UDEF_STEREO_COUNT>
0

> <PUBCHEM_ISOTOPIC_ATOM_COUNT>
0

> <PUBCHEM_COMPONENT_COUNT>
1

> <PUBCHEM_CACTVS_TAUTO_COUNT>
-1

> <PUBCHEM_CONFORMER_ID>
08269DD000000001

> <PUBCHEM_MMFF94_ENERGY>
34.7787

> <PUBCHEM_FEATURE_SELFOVERLAP>
45.85

> <PUBCHEM_SHAPE_FINGERPRINT>
10608611 8 18271803497676875672
11132069 177 18409731729274892148
11806522 49 18191865832377246446
12173636 292 18192428567856908853
12236239 1 17531250534895930262
12382932 28 18412825754963740458
12553582 1 18264500657441440139
13140716 1 18410857680853497233
13214271 11 18343575252977246444
13296908 3 18343867710196005830
13538477 17 18187645748047003294
13544592 145 17984995799208245238
15219456 202 18060419105987134718
15375358 24 18272365334906472948
15375462 189 17967814942002373658
15669948 3 18334857186415083495
16945 1 18337392617421441365
18175812 5 18131070407457411502
18186145 218 18057044609969669008
19050596 39 18187359896751741498
200 152 15864064373682475502
20279233 1 18130787824189422606
20510252 161 18200595783193500161
20645477 56 18337958878984694869
20715346 28 17917994975052579534
20871998 184 18273215304871713695
21267235 1 18335994124335213795
21501502 16 18262807387837873445
21501925 9 18338231694948328806
22213442 358 18339924921422426437
23402539 116 18335698334955081798
23557571 272 18342464759371243510
23559900 14 18269839723076425910
2748010 2 18339354279478178517
34934 24 18334569105841812713
4175511 318 17822850875611191613
474 4 17024045928693822108
5104073 3 18412823582148080914
5902787 121 18335980960349791122
7097593 13 17682379370280717786
7364860 26 18053948625649237297
77492 1 17530969068393148638
81228 2 18264786375560502496
9709674 26 18272091539484599886

> <PUBCHEM_SHAPE_MULTIPOLES>
313.21
7.56
2.05
0.88
2.52
0.04
0.06
0.61
-0.46
-2.27
-0.05
0.91
0.12
0.44

> <PUBCHEM_SHAPE_SELFOVERLAP>
688.456

> <PUBCHEM_SHAPE_VOLUME>
169.7

> <PUBCHEM_COORDINATE_TYPE>
2
5
10

$$$$
