136726174
  -OEChem-03292013293D

 31 32  0     0  0  0  0  0  0999 V2000
    0.7218    2.1260   -0.1481 O   0  0  0  0  0  0  0  0  0  0  0  0
   -3.5643    1.6420   -1.5857 O   0  0  0  0  0  0  0  0  0  0  0  0
    1.8966   -3.1777   -0.4975 O   0  0  0  0  0  0  0  0  0  0  0  0
    4.4915    1.5056   -0.2259 O   0  0  0  0  0  0  0  0  0  0  0  0
   -1.1634    0.4042   -0.8316 N   0  0  0  0  0  0  0  0  0  0  0  0
    3.9167   -1.5149    0.2103 N   0  0  0  0  0  0  0  0  0  0  0  0
    3.1840    2.0793    1.5888 N   0  0  0  0  0  0  0  0  0  0  0  0
    0.0829   -0.1144   -0.5810 C   0  0  0  0  0  0  0  0  0  0  0  0
    1.1548    0.8126   -0.2001 C   0  0  0  0  0  0  0  0  0  0  0  0
    2.4176    0.4192    0.0679 C   0  0  0  0  0  0  0  0  0  0  0  0
   -2.3608    0.1144   -0.1805 C   0  0  0  0  0  0  0  0  0  0  0  0
    0.3135   -1.4334   -0.6816 C   0  0  0  0  0  0  0  0  0  0  0  0
    2.7411   -1.0313   -0.0254 C   0  0  0  0  0  0  0  0  0  0  0  0
    1.6489   -1.9846   -0.4138 C   0  0  0  0  0  0  0  0  0  0  0  0
   -3.5476    0.7376   -0.5661 C   0  0  0  0  0  0  0  0  0  0  0  0
   -2.3655   -0.8083    0.8655 C   0  0  0  0  0  0  0  0  0  0  0  0
    3.4722    1.3777    0.4441 C   0  0  0  0  0  0  0  0  0  0  0  0
   -4.7391    0.4382    0.0943 C   0  0  0  0  0  0  0  0  0  0  0  0
   -3.5571   -1.1078    1.5261 C   0  0  0  0  0  0  0  0  0  0  0  0
   -4.7438   -0.4846    1.1405 C   0  0  0  0  0  0  0  0  0  0  0  0
   -1.1826    1.2317   -1.4198 H   0  0  0  0  0  0  0  0  0  0  0  0
   -0.4564   -2.1383   -0.9781 H   0  0  0  0  0  0  0  0  0  0  0  0
   -1.4686   -1.3006    1.2262 H   0  0  0  0  0  0  0  0  0  0  0  0
   -5.6712    0.9162   -0.1951 H   0  0  0  0  0  0  0  0  0  0  0  0
   -3.5604   -1.8211    2.3451 H   0  0  0  0  0  0  0  0  0  0  0  0
   -5.6713   -0.7166    1.6559 H   0  0  0  0  0  0  0  0  0  0  0  0
   -0.2438    2.1448   -0.0471 H   0  0  0  0  0  0  0  0  0  0  0  0
    3.9205   -2.5332    0.0886 H   0  0  0  0  0  0  0  0  0  0  0  0
    2.3303    1.9393    2.1204 H   0  0  0  0  0  0  0  0  0  0  0  0
    3.8322    2.7711    1.9507 H   0  0  0  0  0  0  0  0  0  0  0  0
   -4.4730    1.9665   -1.7079 H   0  0  0  0  0  0  0  0  0  0  0  0
  1  9  1  0  0  0  0
  1 27  1  0  0  0  0
  2 15  1  0  0  0  0
  2 31  1  0  0  0  0
  3 14  2  0  0  0  0
  4 17  2  0  0  0  0
  5  8  1  0  0  0  0
  5 11  1  0  0  0  0
  5 21  1  0  0  0  0
  6 13  2  0  0  0  0
  6 28  1  0  0  0  0
  7 17  1  0  0  0  0
  7 29  1  0  0  0  0
  7 30  1  0  0  0  0
  8  9  1  0  0  0  0
  8 12  2  0  0  0  0
  9 10  2  0  0  0  0
 10 13  1  0  0  0  0
 10 17  1  0  0  0  0
 11 15  1  0  0  0  0
 11 16  2  0  0  0  0
 12 14  1  0  0  0  0
 12 22  1  0  0  0  0
 13 14  1  0  0  0  0
 15 18  2  0  0  0  0
 16 19  1  0  0  0  0
 16 23  1  0  0  0  0
 18 20  1  0  0  0  0
 18 24  1  0  0  0  0
 19 20  2  0  0  0  0
 19 25  1  0  0  0  0
 20 26  1  0  0  0  0
M  END
> <PUBCHEM_COMPOUND_CID>
136726174

> <PUBCHEM_CONFORMER_RMSD>
0.6

> <PUBCHEM_CONFORMER_DIVERSEORDER>
1
3
47
16
56
51
59
26
65
38
52
21
27
42
37
28
63
49
53
57
25
15
46
48
24
41
40
62
60
43
64
22
30
39
32
19
29
44
45
31
61
20
4
23
58
2
34
12
13
33
50
35
54
14
8
5
36
55
11
7
18
6
17
9
10

> <PUBCHEM_MMFF94_PARTIAL_CHARGES>
31
1 -0.53
10 0.03
11 0.1
12 -0.14
13 0.44
14 0.56
15 0.08
16 -0.15
17 0.62
18 -0.15
19 -0.15
2 -0.53
20 -0.15
21 0.4
22 0.15
23 0.15
24 0.15
25 0.15
26 0.15
27 0.45
28 0.4
29 0.37
3 -0.57
30 0.37
31 0.45
4 -0.57
5 -0.6
6 -0.85
7 -0.8
8 0.1
9 0.08

> <PUBCHEM_EFFECTIVE_ROTOR_COUNT>
3

> <PUBCHEM_PHARMACOPHORE_FEATURES>
11
1 1 donor
1 2 donor
1 3 acceptor
1 4 acceptor
1 5 cation
1 5 donor
1 6 acceptor
1 6 donor
1 7 donor
6 11 15 16 18 19 20 rings
6 8 9 10 12 13 14 rings

> <PUBCHEM_HEAVY_ATOM_COUNT>
20

> <PUBCHEM_ATOM_DEF_STEREO_COUNT>
0

> <PUBCHEM_ATOM_UDEF_STEREO_COUNT>
0

> <PUBCHEM_BOND_DEF_STEREO_COUNT>
0

> <PUBCHEM_BOND_UDEF_STEREO_COUNT>
0

> <PUBCHEM_ISOTOPIC_ATOM_COUNT>
0

> <PUBCHEM_COMPONENT_COUNT>
1

> <PUBCHEM_CACTVS_TAUTO_COUNT>
-1

> <PUBCHEM_CONFORMER_ID>
0826469E00000001

> <PUBCHEM_MMFF94_ENERGY>
72.8954

> <PUBCHEM_FEATURE_SELFOVERLAP>
55.843

> <PUBCHEM_SHAPE_FINGERPRINT>
10493431 412 18125157384389973312
10608611 8 18334574607964002917
10980938 120 18413103978787384086
11615757 297 17917996061874438659
12236239 1 16917065534322164751
12390115 104 17840875397443375760
12403259 415 18187930534786423301
12507560 40 18333732412026841493
13140716 1 18341320185094836690
13533116 47 18271813380797466219
13675066 3 18333447651289476981
14790565 3 17976549621789025524
14866123 147 15452583524525227125
15219456 202 18334576832677817383
15375358 24 18260264144649565615
1813 80 12974151935803276866
18186145 218 17845936333253712256
19049666 15 18189334559458218549
19784866 170 18334579070113321988
200 152 18201996651786681535
204376 136 18270964677457284936
20645477 70 18272366430102216679
20739085 24 18410022013646550584
21033648 29 18339630209436313081
21065199 12 18335708226127374099
21065201 7 17313106302679623139
22854114 111 18272089409022168813
22854114 59 18411422842772740729
22943178 12 18260266300770738127
23557571 272 17749111041551617325
23559900 14 17895478007692268342
2838139 119 15553595378764517672
474 4 17416677145236132840
49207404 50 18335702775228351896
495365 180 18269254816674979329
5104073 3 18335141960343370713
602551 16 17095246929504887083
633830 44 17489596704808275024
77492 1 16917061132038656791
7808743 9 17833551572124150376
8272917 22 18272657809352548375
9709674 26 18260271845753092515

> <PUBCHEM_SHAPE_MULTIPOLES>
373.17
9.27
2.34
1.16
4.43
0.76
0.2
-1.78
2.09
-2.43
-0.13
0.78
-0.2
1.69

> <PUBCHEM_SHAPE_SELFOVERLAP>
811.666

> <PUBCHEM_SHAPE_VOLUME>
201.1

> <PUBCHEM_COORDINATE_TYPE>
2
5
10

$$$$
