136881500
  -OEChem-03292013293D

 49 52  0     1  0  0  0  0  0999 V2000
   -0.2984   -2.1424    2.3810 S   0  0  0  0  0  0  0  0  0  0  0  0
   -4.2133   -2.2888   -2.2104 O   0  0  0  0  0  0  0  0  0  0  0  0
   -0.5036    2.3205    0.8057 N   0  0  2  0  0  0  0  0  0  0  0  0
   -3.3383   -0.2914   -1.4419 N   0  0  0  0  0  0  0  0  0  0  0  0
   -1.4547   -0.2590   -0.0156 N   0  0  0  0  0  0  0  0  0  0  0  0
    3.2926    0.1017    0.2791 N   0  0  0  0  0  0  0  0  0  0  0  0
    3.3217    1.5663   -1.6342 N   0  0  0  0  0  0  0  0  0  0  0  0
    4.6959   -0.3335   -1.5506 N   0  0  0  0  0  0  0  0  0  0  0  0
   -2.4591    1.8506   -0.6767 C   0  0  1  0  0  0  0  0  0  0  0  0
   -3.4077    2.3212    0.4253 C   0  0  0  0  0  0  0  0  0  0  0  0
   -1.0648    2.4756   -0.5453 C   0  0  0  0  0  0  0  0  0  0  0  0
   -2.7588    2.2407    1.8047 C   0  0  0  0  0  0  0  0  0  0  0  0
   -1.3863    2.9115    1.8190 C   0  0  0  0  0  0  0  0  0  0  0  0
   -2.3810    0.3505   -0.6872 C   0  0  0  0  0  0  0  0  0  0  0  0
    0.8308    2.9152    0.8777 C   0  0  0  0  0  0  0  0  0  0  0  0
    1.8697    2.0421    0.2255 C   0  0  0  0  0  0  0  0  0  0  0  0
   -1.4513   -1.6371   -0.0742 C   0  0  0  0  0  0  0  0  0  0  0  0
   -3.3882   -1.6656   -1.5509 C   0  0  0  0  0  0  0  0  0  0  0  0
    2.3626    0.9061    0.8343 C   0  0  0  0  0  0  0  0  0  0  0  0
    2.3909    2.3258   -1.0203 C   0  0  0  0  0  0  0  0  0  0  0  0
   -2.3302   -2.3664   -0.7856 C   0  0  0  0  0  0  0  0  0  0  0  0
   -0.3861   -2.3349    0.6817 C   0  0  0  0  0  0  0  0  0  0  0  0
    3.7221    0.4852   -0.9382 C   0  0  0  0  0  0  0  0  0  0  0  0
    0.6049   -3.1637    0.2035 C   0  0  0  0  0  0  0  0  0  0  0  0
    1.4470   -3.6473    1.2460 C   0  0  0  0  0  0  0  0  0  0  0  0
    1.0678   -3.1697    2.4812 C   0  0  0  0  0  0  0  0  0  0  0  0
    5.2161   -1.5131   -0.9334 C   0  0  0  0  0  0  0  0  0  0  0  0
   -2.8832    2.1645   -1.6402 H   0  0  0  0  0  0  0  0  0  0  0  0
   -4.3377    1.7404    0.4238 H   0  0  0  0  0  0  0  0  0  0  0  0
   -3.6860    3.3648    0.2299 H   0  0  0  0  0  0  0  0  0  0  0  0
   -0.4121    2.0090   -1.2925 H   0  0  0  0  0  0  0  0  0  0  0  0
   -1.1335    3.5412   -0.8043 H   0  0  0  0  0  0  0  0  0  0  0  0
   -3.4103    2.7235    2.5423 H   0  0  0  0  0  0  0  0  0  0  0  0
   -2.6630    1.1920    2.1121 H   0  0  0  0  0  0  0  0  0  0  0  0
   -1.4978    3.9920    1.6593 H   0  0  0  0  0  0  0  0  0  0  0  0
   -0.9556    2.7719    2.8181 H   0  0  0  0  0  0  0  0  0  0  0  0
    1.1408    3.0326    1.9256 H   0  0  0  0  0  0  0  0  0  0  0  0
    0.8504    3.9283    0.4537 H   0  0  0  0  0  0  0  0  0  0  0  0
   -4.0366    0.2538   -1.9392 H   0  0  0  0  0  0  0  0  0  0  0  0
    2.0185    0.5944    1.8153 H   0  0  0  0  0  0  0  0  0  0  0  0
    2.0706    3.1961   -1.5843 H   0  0  0  0  0  0  0  0  0  0  0  0
   -2.3099   -3.4497   -0.8267 H   0  0  0  0  0  0  0  0  0  0  0  0
    0.7289   -3.4144   -0.8427 H   0  0  0  0  0  0  0  0  0  0  0  0
    2.2892   -4.3105    1.0973 H   0  0  0  0  0  0  0  0  0  0  0  0
    1.5283   -3.3742    3.4374 H   0  0  0  0  0  0  0  0  0  0  0  0
    5.0240   -0.0518   -2.4668 H   0  0  0  0  0  0  0  0  0  0  0  0
    4.4240   -2.2457   -0.7464 H   0  0  0  0  0  0  0  0  0  0  0  0
    5.7164   -1.2792    0.0119 H   0  0  0  0  0  0  0  0  0  0  0  0
    5.9535   -1.9824   -1.5921 H   0  0  0  0  0  0  0  0  0  0  0  0
  1 22  1  0  0  0  0
  1 26  1  0  0  0  0
  2 18  2  0  0  0  0
  3 11  1  0  0  0  0
  3 13  1  0  0  0  0
  3 15  1  0  0  0  0
  4 14  1  0  0  0  0
  4 18  1  0  0  0  0
  4 39  1  0  0  0  0
  5 14  2  0  0  0  0
  5 17  1  0  0  0  0
  6 19  2  0  0  0  0
  6 23  1  0  0  0  0
  7 20  1  0  0  0  0
  7 23  2  0  0  0  0
  8 23  1  0  0  0  0
  8 27  1  0  0  0  0
  8 46  1  0  0  0  0
  9 10  1  0  0  0  0
  9 11  1  0  0  0  0
  9 14  1  0  0  0  0
  9 28  1  0  0  0  0
 10 12  1  0  0  0  0
 10 29  1  0  0  0  0
 10 30  1  0  0  0  0
 11 31  1  0  0  0  0
 11 32  1  0  0  0  0
 12 13  1  0  0  0  0
 12 33  1  0  0  0  0
 12 34  1  0  0  0  0
 13 35  1  0  0  0  0
 13 36  1  0  0  0  0
 15 16  1  0  0  0  0
 15 37  1  0  0  0  0
 15 38  1  0  0  0  0
 16 19  1  0  0  0  0
 16 20  2  0  0  0  0
 17 21  2  0  0  0  0
 17 22  1  0  0  0  0
 18 21  1  0  0  0  0
 19 40  1  0  0  0  0
 20 41  1  0  0  0  0
 21 42  1  0  0  0  0
 22 24  2  0  0  0  0
 24 25  1  0  0  0  0
 24 43  1  0  0  0  0
 25 26  2  0  0  0  0
 25 44  1  0  0  0  0
 26 45  1  0  0  0  0
 27 47  1  0  0  0  0
 27 48  1  0  0  0  0
 27 49  1  0  0  0  0
M  END
> <PUBCHEM_COMPOUND_CID>
136881500

> <PUBCHEM_CONFORMER_RMSD>
0.8

> <PUBCHEM_CONFORMER_DIVERSEORDER>
5
349
347
264
287
303
78
232
321
118
240
289
244
75
229
297
353
248
252
45
329
44
11
85
327
128
346
301
242
7
15
104
196
320
173
94
113
134
292
299
150
310
281
194
103
250
8
123
81
249
176
29
135
318
256
283
132
276
105
355
36
216
47
226
30
230
285
331
12
215
168
272
325
64
155
62
257
137
258
144
304
231
86
286
274
84
203
102
68
58
211
221
351
26
115
149
335
214
227
269
219
61
247
107
139
159
98
323
328
22
290
171
17
288
278
209
87
241
311
111
9
326
294
261
27
152
225
138
201
161
260
133
40
267
268
147
213
336
42
210
181
69
3
350
235
330
1
228
63
265
324
35
356
13
172
70
145
275
308
93
170
245
266
332
184
110
73
207
175
59
46
52
200
56
233
234
129
14
198
259
186
157
97
154
220
344
192
338
300
38
48
239
273
263
298
197
51
295
66
114
57
37
319
178
74
77
183
279
167
199
195
342
312
10
188
271
180
307
112
202
322
316
20
136
217
262
348
23
33
83
164
72
16
90
25
28
237
120
270
251
190
334
34
49
148
341
352
89
125
91
212
179
206
79
99
32
333
101
169
280
146
18
65
236
131
313
24
177
50
296
314
67
315
293
140
92
224
238
337
345
6
109
163
142
208
127
282
193
277
100
95
106
82
182
21
302
160
54
117
53
254
218
166
153
39
253
151
340
55
354
156
223
19
60
305
309
343
187
246
116
43
119
88
243
189
162
204
122
174
141
191
205
165
126
185
143
124
96
71
306
284
222
108
31
4
339
2
80
158
130
121
41
317
291
76
255

> <PUBCHEM_MMFF94_PARTIAL_CHARGES>
33
1 -0.08
11 0.27
13 0.27
14 0.45
15 0.41
16 -0.14
17 0.22
18 0.62
19 0.16
2 -0.57
20 0.16
21 -0.14
22 -0.01
23 0.72
24 -0.15
25 -0.15
26 -0.11
27 0.37
3 -0.81
39 0.37
4 -0.49
40 0.15
41 0.15
42 0.15
43 0.15
44 0.15
45 0.15
46 0.4
5 -0.62
6 -0.62
7 -0.62
8 -0.87
9 0.06

> <PUBCHEM_EFFECTIVE_ROTOR_COUNT>
6.2

> <PUBCHEM_PHARMACOPHORE_FEATURES>
10
1 2 acceptor
1 3 cation
1 4 donor
1 6 acceptor
1 8 donor
4 6 7 8 23 cation
5 1 22 24 25 26 rings
6 3 9 10 11 12 13 rings
6 4 5 14 17 18 21 rings
6 6 7 16 19 20 23 rings

> <PUBCHEM_HEAVY_ATOM_COUNT>
27

> <PUBCHEM_ATOM_DEF_STEREO_COUNT>
0

> <PUBCHEM_ATOM_UDEF_STEREO_COUNT>
1

> <PUBCHEM_BOND_DEF_STEREO_COUNT>
0

> <PUBCHEM_BOND_UDEF_STEREO_COUNT>
0

> <PUBCHEM_ISOTOPIC_ATOM_COUNT>
0

> <PUBCHEM_COMPONENT_COUNT>
1

> <PUBCHEM_CACTVS_TAUTO_COUNT>
-1

> <PUBCHEM_CONFORMER_ID>
0828A55C00000005

> <PUBCHEM_MMFF94_ENERGY>
65.6444

> <PUBCHEM_FEATURE_SELFOVERLAP>
50.747

> <PUBCHEM_SHAPE_FINGERPRINT>
10190108 129 18261968444319758915
10675989 125 18121757677420791693
10693767 8 17699263763116493519
10906281 52 17620466252704402401
11578080 2 14907884025431635433
12035759 4 18339912745591127431
12788726 201 18196652015146395024
133893 2 17460294586826302179
14251740 79 18337121090053010846
14866123 147 18130796633678835261
14931854 50 18408318900168151646
15322534 239 18191602869406453166
19930381 70 17767959092934100215
20600515 1 17470411463796396457
20775438 99 17120827290927556710
20832881 197 18127974316163515879
20905425 154 18268125622459889423
2818148 4 18269830922435300315
3298306 158 17971203533934426768
35225 105 17838663050845642457
463206 1 18265607693598120264
469060 322 15432303904096229552
484985 159 16196821633580239076
5282940 2 18046065960839089170
57527585 103 17971225640268450794
6287921 2 16833191235053564899
81228 2 18195529422417390849
9925002 15 17980735178855453451

> <PUBCHEM_SHAPE_MULTIPOLES>
523.74
7.27
5.12
2.15
5.6
1.75
-0.54
-0.27
4.74
-0.58
-1.92
-0.62
1
-2.8

> <PUBCHEM_SHAPE_SELFOVERLAP>
1114.299

> <PUBCHEM_SHAPE_VOLUME>
293.7

> <PUBCHEM_COORDINATE_TYPE>
2
5
10

$$$$
