136880511
  -OEChem-03292013293D

 41 44  0     0  0  0  0  0  0999 V2000
   -1.9916   -0.9041   -0.2234 N   0  0  0  0  0  0  0  0  0  0  0  0
    2.5089    0.5758   -2.1286 N   0  0  0  0  0  0  0  0  0  0  0  0
   -2.1005   -2.1300   -0.7633 N   0  0  0  0  0  0  0  0  0  0  0  0
   -0.6045   -3.9971   -0.7164 N   0  0  0  0  0  0  0  0  0  0  0  0
   -2.2023    1.4076    2.9407 N   0  0  0  0  0  0  0  0  0  0  0  0
    2.1932   -2.3701    1.3884 N   0  0  0  0  0  0  0  0  0  0  0  0
    2.9455    0.9322    0.0299 C   0  0  0  0  0  0  0  0  0  0  0  0
    1.5448    1.0559   -0.1877 C   0  0  0  0  0  0  0  0  0  0  0  0
    3.5269    0.6307   -1.2036 C   0  0  0  0  0  0  0  0  0  0  0  0
   -0.8295   -0.7052    0.4626 C   0  0  0  0  0  0  0  0  0  0  0  0
    0.5415    1.3527    0.7611 C   0  0  0  0  0  0  0  0  0  0  0  0
    1.3072    0.8314   -1.5242 C   0  0  0  0  0  0  0  0  0  0  0  0
   -0.5569    0.5903    1.1151 C   0  0  0  0  0  0  0  0  0  0  0  0
   -0.1297   -1.8830    0.3649 C   0  0  0  0  0  0  0  0  0  0  0  0
    3.7772    1.0481    1.1614 C   0  0  0  0  0  0  0  0  0  0  0  0
   -3.0322    0.0111   -0.4075 C   0  0  0  0  0  0  0  0  0  0  0  0
    4.9038    0.4385   -1.3626 C   0  0  0  0  0  0  0  0  0  0  0  0
   -0.9602   -2.7234   -0.4006 C   0  0  0  0  0  0  0  0  0  0  0  0
    5.1564    0.8584    1.0173 C   0  0  0  0  0  0  0  0  0  0  0  0
    5.7089    0.5584   -0.2263 C   0  0  0  0  0  0  0  0  0  0  0  0
   -2.7889    1.2230   -1.0537 C   0  0  0  0  0  0  0  0  0  0  0  0
   -4.3141   -0.2885    0.0534 C   0  0  0  0  0  0  0  0  0  0  0  0
   -3.8275    2.1356   -1.2390 C   0  0  0  0  0  0  0  0  0  0  0  0
   -5.3528    0.6241   -0.1317 C   0  0  0  0  0  0  0  0  0  0  0  0
   -1.4642    1.0427    2.1229 C   0  0  0  0  0  0  0  0  0  0  0  0
   -5.1094    1.8361   -0.7779 C   0  0  0  0  0  0  0  0  0  0  0  0
    1.1501   -2.1513    0.9288 C   0  0  0  0  0  0  0  0  0  0  0  0
    0.6944    2.2762    1.3202 H   0  0  0  0  0  0  0  0  0  0  0  0
    0.3989    0.8297   -2.1102 H   0  0  0  0  0  0  0  0  0  0  0  0
    2.6316    0.3757   -3.1116 H   0  0  0  0  0  0  0  0  0  0  0  0
    3.3627    1.2806    2.1383 H   0  0  0  0  0  0  0  0  0  0  0  0
    5.3349    0.2048   -2.3302 H   0  0  0  0  0  0  0  0  0  0  0  0
    5.8027    0.9462    1.8866 H   0  0  0  0  0  0  0  0  0  0  0  0
    6.7828    0.4149   -0.3154 H   0  0  0  0  0  0  0  0  0  0  0  0
   -1.8052    1.4733   -1.4389 H   0  0  0  0  0  0  0  0  0  0  0  0
   -4.5209   -1.2262    0.5634 H   0  0  0  0  0  0  0  0  0  0  0  0
   -3.6390    3.0776   -1.7456 H   0  0  0  0  0  0  0  0  0  0  0  0
   -6.3507    0.3915    0.2281 H   0  0  0  0  0  0  0  0  0  0  0  0
   -5.9183    2.5464   -0.9225 H   0  0  0  0  0  0  0  0  0  0  0  0
    0.2722   -4.4180   -0.4240 H   0  0  0  0  0  0  0  0  0  0  0  0
   -1.2076   -4.5986   -1.2688 H   0  0  0  0  0  0  0  0  0  0  0  0
  1  3  1  0  0  0  0
  1 10  1  0  0  0  0
  1 16  1  0  0  0  0
  2  9  1  0  0  0  0
  2 12  1  0  0  0  0
  2 30  1  0  0  0  0
  3 18  2  0  0  0  0
  4 18  1  0  0  0  0
  4 40  1  0  0  0  0
  4 41  1  0  0  0  0
  5 25  3  0  0  0  0
  6 27  3  0  0  0  0
  7  8  1  0  0  0  0
  7  9  1  0  0  0  0
  7 15  2  0  0  0  0
  8 11  1  0  0  0  0
  8 12  2  0  0  0  0
  9 17  2  0  0  0  0
 10 13  1  0  0  0  0
 10 14  2  0  0  0  0
 11 13  2  0  0  0  0
 11 28  1  0  0  0  0
 12 29  1  0  0  0  0
 13 25  1  0  0  0  0
 14 18  1  0  0  0  0
 14 27  1  0  0  0  0
 15 19  1  0  0  0  0
 15 31  1  0  0  0  0
 16 21  2  0  0  0  0
 16 22  1  0  0  0  0
 17 20  1  0  0  0  0
 17 32  1  0  0  0  0
 19 20  2  0  0  0  0
 19 33  1  0  0  0  0
 20 34  1  0  0  0  0
 21 23  1  0  0  0  0
 21 35  1  0  0  0  0
 22 24  2  0  0  0  0
 22 36  1  0  0  0  0
 23 26  2  0  0  0  0
 23 37  1  0  0  0  0
 24 26  1  0  0  0  0
 24 38  1  0  0  0  0
 26 39  1  0  0  0  0
M  END
> <PUBCHEM_COMPOUND_CID>
136880511

> <PUBCHEM_CONFORMER_RMSD>
0.6

> <PUBCHEM_CONFORMER_DIVERSEORDER>
2
24
10
12
8
7
25
22
1
14
18
6
16
17
9
19
3
20
4
23
21
11
5
13
15

> <PUBCHEM_MMFF94_PARTIAL_CHARGES>
40
1 0.59
10 -0.2
11 -0.1
12 -0.3
13 0.11
14 0.02
15 -0.15
16 -0.02
17 -0.15
18 0.37
19 -0.15
2 0.03
20 -0.15
21 -0.15
22 -0.15
23 -0.15
24 -0.15
25 0.49
26 -0.15
27 0.54
28 0.15
29 0.15
3 -0.71
30 0.27
31 0.15
32 0.15
33 0.15
34 0.15
35 0.15
36 0.15
37 0.15
38 0.15
39 0.15
4 -0.88
40 0.4
41 0.4
5 -0.56
6 -0.56
8 -0.05
9 -0.15

> <PUBCHEM_EFFECTIVE_ROTOR_COUNT>
3

> <PUBCHEM_PHARMACOPHORE_FEATURES>
10
1 2 cation
1 2 donor
1 4 donor
1 5 acceptor
1 6 acceptor
3 3 4 18 cation
5 1 3 10 14 18 rings
5 2 7 8 9 12 rings
6 16 21 22 23 24 26 rings
6 7 9 15 17 19 20 rings

> <PUBCHEM_HEAVY_ATOM_COUNT>
27

> <PUBCHEM_ATOM_DEF_STEREO_COUNT>
0

> <PUBCHEM_ATOM_UDEF_STEREO_COUNT>
0

> <PUBCHEM_BOND_DEF_STEREO_COUNT>
1

> <PUBCHEM_BOND_UDEF_STEREO_COUNT>
0

> <PUBCHEM_ISOTOPIC_ATOM_COUNT>
0

> <PUBCHEM_COMPONENT_COUNT>
1

> <PUBCHEM_CACTVS_TAUTO_COUNT>
-1

> <PUBCHEM_CONFORMER_ID>
0828A17F00000002

> <PUBCHEM_MMFF94_ENERGY>
78.2226

> <PUBCHEM_FEATURE_SELFOVERLAP>
50.838

> <PUBCHEM_SHAPE_FINGERPRINT>
10165383 225 18412826872589290717
10906281 52 17345491433833251992
11315181 36 18130235947516466420
11578080 2 14780646216430527551
11582403 64 16337451459615727344
12035759 4 18200318693288402763
12236239 1 17385439934149893420
12293681 160 17917989452046377961
12422481 6 17606095322190774224
12516196 113 9295285049941784557
12592029 89 18113058229097946331
12623949 98 13407065943026502481
12788726 201 17489305244111736297
133893 2 17974586696816107587
13533116 47 17988927717751907750
14713325 29 18041283274421480043
1601671 61 18113612365910747724
16752209 62 18265610064494219338
17349148 13 17847066588299838008
18222031 100 8646765582418802709
200 152 15123797283661345652
23402539 116 17346605161871206409
23419403 2 11598857468891157937
23557571 272 17844809385427804882
23559900 14 18059293283822714136
394222 165 18115298973866687995
4015057 19 16988555870327848056
5265222 85 18191035689104748988
5283173 99 18201996672412809000
5385378 56 18338804386378233411
7226269 152 18130783481946097984
9862522 239 17750492045056534877

> <PUBCHEM_SHAPE_MULTIPOLES>
525.76
10.47
2.82
1.83
2.96
3.3
-0.76
-6.2
2.03
-1.42
0.35
0.2
-0.69
-0.21

> <PUBCHEM_SHAPE_SELFOVERLAP>
1178.298

> <PUBCHEM_SHAPE_VOLUME>
272.1

> <PUBCHEM_COORDINATE_TYPE>
2
5
10

$$$$
