136803946
  -OEChem-03292013293D

 51 54  0     1  0  0  0  0  0999 V2000
   -2.3682    1.9327    0.9492 O   0  0  0  0  0  0  0  0  0  0  0  0
   -0.7109    4.1822   -0.3182 O   0  0  0  0  0  0  0  0  0  0  0  0
   -5.0413    2.7471    1.0506 O   0  0  0  0  0  0  0  0  0  0  0  0
   -3.1819   -4.3291   -0.3383 O   0  0  0  0  0  0  0  0  0  0  0  0
    8.2769   -0.2702    0.6208 O   0  0  0  0  0  0  0  0  0  0  0  0
   -1.5102   -0.1440   -0.0138 N   0  0  0  0  0  0  0  0  0  0  0  0
   -1.0055   -2.3092   -0.2569 N   0  0  0  0  0  0  0  0  0  0  0  0
   -3.9249   -0.2619    0.1073 N   0  0  0  0  0  0  0  0  0  0  0  0
   -4.6555   -2.5362   -0.0784 N   0  0  0  0  0  0  0  0  0  0  0  0
   -6.2135   -0.7908    0.1806 N   0  0  0  0  0  0  0  0  0  0  0  0
   -1.3433    1.3483    0.1239 C   0  0  1  0  0  0  0  0  0  0  0  0
   -1.8460    3.4630   -0.7943 C   0  0  1  0  0  0  0  0  0  0  0  0
   -1.3976    2.0820   -1.2117 C   0  0  0  0  0  0  0  0  0  0  0  0
   -2.7946    3.1795    0.3633 C   0  0  1  0  0  0  0  0  0  0  0  0
   -4.2404    3.0172   -0.0864 C   0  0  0  0  0  0  0  0  0  0  0  0
   -2.6977   -0.8146   -0.0152 C   0  0  0  0  0  0  0  0  0  0  0  0
   -0.5217   -1.0861   -0.1618 C   0  0  0  0  0  0  0  0  0  0  0  0
   -2.3550   -2.1365   -0.1654 C   0  0  0  0  0  0  0  0  0  0  0  0
    0.8191   -0.6540   -0.1935 C   0  0  0  0  0  0  0  0  0  0  0  0
   -3.3921   -3.1299   -0.2070 C   0  0  0  0  0  0  0  0  0  0  0  0
   -4.8949   -1.1497    0.0725 C   0  0  0  0  0  0  0  0  0  0  0  0
    1.9255   -1.3627    0.2310 C   0  0  0  0  0  0  0  0  0  0  0  0
    3.3295   -0.9177    0.1818 C   0  0  0  0  0  0  0  0  0  0  0  0
    3.6266    0.4407    0.0716 C   0  0  0  0  0  0  0  0  0  0  0  0
    4.3613   -1.8543    0.2461 C   0  0  0  0  0  0  0  0  0  0  0  0
    4.9553    0.8625    0.0253 C   0  0  0  0  0  0  0  0  0  0  0  0
    5.6899   -1.4326    0.1998 C   0  0  0  0  0  0  0  0  0  0  0  0
    5.9870   -0.0741    0.0895 C   0  0  0  0  0  0  0  0  0  0  0  0
    7.3724    0.3663    0.0446 C   0  0  0  0  0  0  0  0  0  0  0  0
    7.7521    1.6319   -0.7167 C   0  0  0  0  0  0  0  0  0  0  0  0
   -0.3979    1.5157    0.6506 H   0  0  0  0  0  0  0  0  0  0  0  0
   -2.1447    1.6286   -1.8738 H   0  0  0  0  0  0  0  0  0  0  0  0
   -0.4298    2.0668   -1.7219 H   0  0  0  0  0  0  0  0  0  0  0  0
   -2.2924    4.0379   -1.6107 H   0  0  0  0  0  0  0  0  0  0  0  0
   -2.7306    3.9381    1.1514 H   0  0  0  0  0  0  0  0  0  0  0  0
   -4.3598    2.1924   -0.7941 H   0  0  0  0  0  0  0  0  0  0  0  0
   -4.6029    3.9381   -0.5544 H   0  0  0  0  0  0  0  0  0  0  0  0
   -1.0257    5.0484   -0.0079 H   0  0  0  0  0  0  0  0  0  0  0  0
    0.9987    0.3264   -0.6250 H   0  0  0  0  0  0  0  0  0  0  0  0
   -5.9578    2.6524    0.7398 H   0  0  0  0  0  0  0  0  0  0  0  0
   -5.4639   -3.1514   -0.0951 H   0  0  0  0  0  0  0  0  0  0  0  0
    1.7683   -2.3608    0.6372 H   0  0  0  0  0  0  0  0  0  0  0  0
   -6.4854    0.1800    0.2914 H   0  0  0  0  0  0  0  0  0  0  0  0
   -6.9543   -1.4827    0.1527 H   0  0  0  0  0  0  0  0  0  0  0  0
    2.8552    1.2046    0.0415 H   0  0  0  0  0  0  0  0  0  0  0  0
    4.1481   -2.9172    0.3303 H   0  0  0  0  0  0  0  0  0  0  0  0
    5.1586    1.9277   -0.0431 H   0  0  0  0  0  0  0  0  0  0  0  0
    6.4805   -2.1770    0.2472 H   0  0  0  0  0  0  0  0  0  0  0  0
    7.1039    1.7715   -1.5860 H   0  0  0  0  0  0  0  0  0  0  0  0
    8.7779    1.5329   -1.0843 H   0  0  0  0  0  0  0  0  0  0  0  0
    7.6845    2.4944   -0.0492 H   0  0  0  0  0  0  0  0  0  0  0  0
  1 11  1  0  0  0  0
  1 14  1  0  0  0  0
  2 12  1  0  0  0  0
  2 38  1  0  0  0  0
  3 15  1  0  0  0  0
  3 40  1  0  0  0  0
  4 20  2  0  0  0  0
  5 29  2  0  0  0  0
  6 11  1  0  0  0  0
  6 16  1  0  0  0  0
  6 17  1  0  0  0  0
  7 17  2  0  0  0  0
  7 18  1  0  0  0  0
  8 16  1  0  0  0  0
  8 21  2  0  0  0  0
  9 20  1  0  0  0  0
  9 21  1  0  0  0  0
  9 41  1  0  0  0  0
 10 21  1  0  0  0  0
 10 43  1  0  0  0  0
 10 44  1  0  0  0  0
 11 13  1  0  0  0  0
 11 31  1  0  0  0  0
 12 13  1  0  0  0  0
 12 14  1  0  0  0  0
 12 34  1  0  0  0  0
 13 32  1  0  0  0  0
 13 33  1  0  0  0  0
 14 15  1  0  0  0  0
 14 35  1  0  0  0  0
 15 36  1  0  0  0  0
 15 37  1  0  0  0  0
 16 18  2  0  0  0  0
 17 19  1  0  0  0  0
 18 20  1  0  0  0  0
 19 22  2  0  0  0  0
 19 39  1  0  0  0  0
 22 23  1  0  0  0  0
 22 42  1  0  0  0  0
 23 24  2  0  0  0  0
 23 25  1  0  0  0  0
 24 26  1  0  0  0  0
 24 45  1  0  0  0  0
 25 27  2  0  0  0  0
 25 46  1  0  0  0  0
 26 28  2  0  0  0  0
 26 47  1  0  0  0  0
 27 28  1  0  0  0  0
 27 48  1  0  0  0  0
 28 29  1  0  0  0  0
 29 30  1  0  0  0  0
 30 49  1  0  0  0  0
 30 50  1  0  0  0  0
 30 51  1  0  0  0  0
M  END
> <PUBCHEM_COMPOUND_CID>
136803946

> <PUBCHEM_CONFORMER_RMSD>
0.8

> <PUBCHEM_CONFORMER_DIVERSEORDER>
1
15
10
21
19
17
2
6
11
22
16
14
24
23
7
18
13
4
8
9
3
20
5
12

> <PUBCHEM_MMFF94_PARTIAL_CHARGES>
40
1 -0.56
10 -0.85
11 0.54
12 0.28
14 0.28
15 0.28
16 -0.03
17 0.14
18 0.14
19 -0.11
2 -0.68
20 0.72
21 0.56
22 -0.18
23 0.03
24 -0.15
25 -0.15
26 -0.15
27 -0.15
28 0.09
29 0.42
3 -0.68
30 0.06
38 0.4
39 0.15
4 -0.57
40 0.4
41 0.37
42 0.15
43 0.4
44 0.4
45 0.15
46 0.15
47 0.15
48 0.15
5 -0.57
6 0.05
7 -0.57
8 -0.58
9 -0.49

> <PUBCHEM_EFFECTIVE_ROTOR_COUNT>
6

> <PUBCHEM_PHARMACOPHORE_FEATURES>
14
1 1 acceptor
1 10 donor
1 2 acceptor
1 2 donor
1 3 acceptor
1 3 donor
1 4 acceptor
1 5 acceptor
1 9 donor
3 6 7 17 cation
5 1 11 12 13 14 rings
5 6 7 16 17 18 rings
6 23 24 25 26 27 28 rings
6 8 9 16 18 20 21 rings

> <PUBCHEM_HEAVY_ATOM_COUNT>
30

> <PUBCHEM_ATOM_DEF_STEREO_COUNT>
3

> <PUBCHEM_ATOM_UDEF_STEREO_COUNT>
0

> <PUBCHEM_BOND_DEF_STEREO_COUNT>
1

> <PUBCHEM_BOND_UDEF_STEREO_COUNT>
0

> <PUBCHEM_ISOTOPIC_ATOM_COUNT>
0

> <PUBCHEM_COMPONENT_COUNT>
1

> <PUBCHEM_CACTVS_TAUTO_COUNT>
-1

> <PUBCHEM_CONFORMER_ID>
0827766A00000001

> <PUBCHEM_MMFF94_ENERGY>
83.8408

> <PUBCHEM_FEATURE_SELFOVERLAP>
71.232

> <PUBCHEM_SHAPE_FINGERPRINT>
10050765 1 18338234839714326094
100830 39 18410008798316842004
10411042 1 18123468556253004839
10595046 47 18335700572891739618
1100329 8 18264774432105810803
11101153 10 18263927816615926468
11578080 2 12749311725667573675
12107183 9 17903348209572901842
12166972 35 17604146051536595436
12390115 104 18200604579027792937
12788726 201 18260821588228294723
13073987 5 18336260159901625042
13383665 225 18263101997657584174
15276724 80 18412260640373260279
15338160 23 18410859836742502204
15400415 2 17545880435317404412
15419008 145 18261940883683549080
15876981 60 18335422429954816847
16087824 20 18409446952623995509
16126227 98 18270404880042157569
18336668 15 18041000669989716197
18608769 82 18412542124462372344
19377110 9 17968087608781992674
19611394 137 17970641898146248331
21033648 29 17702645723670496322
21236236 1 18341048532438832289
21304303 172 18342738568259014615
21796203 349 17613750392358175739
23559900 14 18341323504661237138
24771293 8 18202292390571510155
249057 25 17895194437847151134
283562 15 18334571343705020627
335352 9 18411414051771654439
350125 39 18411981377663435512
4073 2 18041845133828404442
4197921 191 18186802500840042572
445580 37 18409738365679664942
469060 322 16805324362039854375
497634 4 18059864960685002592
5104073 3 18337940205094542570
5171179 24 17845351402027208593
5969126 39 18272078448672214679
6009941 240 17240481429862685515
6327066 14 18192144898020300845
6700243 42 17769973308368680662
7808743 9 18337950087418638304

> <PUBCHEM_SHAPE_MULTIPOLES>
563.13
17.91
4.63
0.77
35.8
1.72
-0.03
0.36
1.34
-8.17
-0.51
-0.11
0.32
-1.1

> <PUBCHEM_SHAPE_SELFOVERLAP>
1227.922

> <PUBCHEM_SHAPE_VOLUME>
302.3

> <PUBCHEM_COORDINATE_TYPE>
2
5
10

$$$$
