136815187
  -OEChem-03292013293D

 37 39  0     1  0  0  0  0  0999 V2000
   -2.4547   -0.0512   -0.9469 O   0  0  0  0  0  0  0  0  0  0  0  0
   -3.6873   -2.6194    0.1928 O   0  0  0  0  0  0  0  0  0  0  0  0
   -4.3413    2.0033   -0.7500 O   0  0  0  0  0  0  0  0  0  0  0  0
    4.2813    1.0945    0.1627 O   0  0  0  0  0  0  0  0  0  0  0  0
   -0.1520   -0.0025   -0.1271 N   0  0  0  0  0  0  0  0  0  0  0  0
    1.3793   -1.8483   -0.2005 N   0  0  0  0  0  0  0  0  0  0  0  0
    3.6543   -1.1365   -0.0401 N   0  0  0  0  0  0  0  0  0  0  0  0
    3.1258   -3.4183   -0.2420 N   0  0  0  0  0  0  0  0  0  0  0  0
   -1.4342   -0.7872   -0.2467 C   0  0  1  0  0  0  0  0  0  0  0  0
   -2.0303   -1.1684    1.1039 C   0  0  0  0  0  0  0  0  0  0  0  0
   -3.4945   -1.3292    0.7679 C   0  0  1  0  0  0  0  0  0  0  0  0
   -3.7222   -0.2580   -0.2908 C   0  0  1  0  0  0  0  0  0  0  0  0
   -4.1661    1.0720    0.3032 C   0  0  0  0  0  0  0  0  0  0  0  0
    1.1126   -0.5231   -0.1097 C   0  0  0  0  0  0  0  0  0  0  0  0
   -0.0797    1.3655   -0.0177 C   0  0  0  0  0  0  0  0  0  0  0  0
    1.9981    0.5269    0.0125 C   0  0  0  0  0  0  0  0  0  0  0  0
    1.2506    1.7226    0.0706 C   0  0  0  0  0  0  0  0  0  0  0  0
    3.4105    0.2385    0.0556 C   0  0  0  0  0  0  0  0  0  0  0  0
    1.7172    3.0485    0.1952 C   0  0  0  0  0  0  0  0  0  0  0  0
    2.6614   -2.1310   -0.1633 C   0  0  0  0  0  0  0  0  0  0  0  0
    0.9712    4.2013    0.2703 C   0  0  0  0  0  0  0  0  0  0  0  0
   -1.1961   -1.6695   -0.8523 H   0  0  0  0  0  0  0  0  0  0  0  0
   -1.8977   -0.3575    1.8298 H   0  0  0  0  0  0  0  0  0  0  0  0
   -1.5642   -2.0729    1.5068 H   0  0  0  0  0  0  0  0  0  0  0  0
   -4.1498   -1.2463    1.6396 H   0  0  0  0  0  0  0  0  0  0  0  0
   -4.4304   -0.5779   -1.0632 H   0  0  0  0  0  0  0  0  0  0  0  0
   -3.4120    1.4787    0.9844 H   0  0  0  0  0  0  0  0  0  0  0  0
   -5.1150    0.9639    0.8376 H   0  0  0  0  0  0  0  0  0  0  0  0
   -0.9831    1.9612   -0.0090 H   0  0  0  0  0  0  0  0  0  0  0  0
   -4.6232   -2.6861   -0.0626 H   0  0  0  0  0  0  0  0  0  0  0  0
   -4.6250    2.8416   -0.3474 H   0  0  0  0  0  0  0  0  0  0  0  0
    2.7942    3.1955    0.2401 H   0  0  0  0  0  0  0  0  0  0  0  0
    4.6232   -1.4414   -0.0190 H   0  0  0  0  0  0  0  0  0  0  0  0
    1.4709    5.1598    0.3658 H   0  0  0  0  0  0  0  0  0  0  0  0
   -0.1121    4.1940    0.2382 H   0  0  0  0  0  0  0  0  0  0  0  0
    2.4881   -4.2017   -0.3323 H   0  0  0  0  0  0  0  0  0  0  0  0
    4.1181   -3.6255   -0.2122 H   0  0  0  0  0  0  0  0  0  0  0  0
  1  9  1  0  0  0  0
  1 12  1  0  0  0  0
  2 11  1  0  0  0  0
  2 30  1  0  0  0  0
  3 13  1  0  0  0  0
  3 31  1  0  0  0  0
  4 18  2  0  0  0  0
  5  9  1  0  0  0  0
  5 14  1  0  0  0  0
  5 15  1  0  0  0  0
  6 14  1  0  0  0  0
  6 20  2  0  0  0  0
  7 18  1  0  0  0  0
  7 20  1  0  0  0  0
  7 33  1  0  0  0  0
  8 20  1  0  0  0  0
  8 36  1  0  0  0  0
  8 37  1  0  0  0  0
  9 10  1  0  0  0  0
  9 22  1  0  0  0  0
 10 11  1  0  0  0  0
 10 23  1  0  0  0  0
 10 24  1  0  0  0  0
 11 12  1  0  0  0  0
 11 25  1  0  0  0  0
 12 13  1  0  0  0  0
 12 26  1  0  0  0  0
 13 27  1  0  0  0  0
 13 28  1  0  0  0  0
 14 16  2  0  0  0  0
 15 17  2  0  0  0  0
 15 29  1  0  0  0  0
 16 17  1  0  0  0  0
 16 18  1  0  0  0  0
 17 19  1  0  0  0  0
 19 21  2  0  0  0  0
 19 32  1  0  0  0  0
 21 34  1  0  0  0  0
 21 35  1  0  0  0  0
M  END
> <PUBCHEM_COMPOUND_CID>
136815187

> <PUBCHEM_CONFORMER_RMSD>
0.6

> <PUBCHEM_CONFORMER_DIVERSEORDER>
1
17
15
9
18
6
23
22
16
13
4
20
11
10
24
8
25
21
14
2
3
12
7
19
5

> <PUBCHEM_MMFF94_PARTIAL_CHARGES>
29
1 -0.56
11 0.28
12 0.28
13 0.28
14 -0.03
15 -0.3
16 -0.09
17 -0.05
18 0.72
19 -0.1
2 -0.68
20 0.56
21 -0.3
29 0.15
3 -0.68
30 0.4
31 0.4
32 0.15
33 0.37
34 0.15
35 0.15
36 0.4
37 0.4
4 -0.57
5 0.05
6 -0.58
7 -0.49
8 -0.85
9 0.54

> <PUBCHEM_EFFECTIVE_ROTOR_COUNT>
4

> <PUBCHEM_PHARMACOPHORE_FEATURES>
13
1 1 acceptor
1 2 acceptor
1 2 donor
1 21 hydrophobe
1 3 acceptor
1 3 donor
1 4 acceptor
1 5 cation
1 7 donor
1 8 donor
5 1 9 10 11 12 rings
5 5 14 15 16 17 rings
6 6 7 14 16 18 20 rings

> <PUBCHEM_HEAVY_ATOM_COUNT>
21

> <PUBCHEM_ATOM_DEF_STEREO_COUNT>
3

> <PUBCHEM_ATOM_UDEF_STEREO_COUNT>
0

> <PUBCHEM_BOND_DEF_STEREO_COUNT>
0

> <PUBCHEM_BOND_UDEF_STEREO_COUNT>
0

> <PUBCHEM_ISOTOPIC_ATOM_COUNT>
0

> <PUBCHEM_COMPONENT_COUNT>
1

> <PUBCHEM_CACTVS_TAUTO_COUNT>
-1

> <PUBCHEM_CONFORMER_ID>
0827A25300000001

> <PUBCHEM_MMFF94_ENERGY>
47.6374

> <PUBCHEM_FEATURE_SELFOVERLAP>
66.137

> <PUBCHEM_SHAPE_FINGERPRINT>
10366900 7 18043539519204595627
10608611 8 18336262461513270665
10967382 1 18411699915597902972
1100329 8 17618503186214139888
11471102 20 18411133649523475982
116883 192 18052822442616963918
12553582 1 18123488089188948818
12788726 201 17903359208556612466
13134695 92 18340480088947998196
13140716 1 17979634864253234018
14178342 30 18055611048945020202
14223421 5 18192436483639533323
14466204 15 18338508742225825056
14790565 3 18193844966820769660
14866123 147 17114102166641884747
15042514 8 17113818488890458322
15196674 1 18410012139263406074
15375358 24 18407757032124429946
15442244 35 18341053995510762353
1601671 61 18410294726879473404
16945 1 18340486780781176196
17492 89 18339924913271283627
18335252 114 18194951952182069645
19049666 15 18334016111949559891
19591789 44 17834120019397469860
19930381 70 17834674177706258921
200 152 18130502054794263055
20645477 70 18191859231297570015
20681677 76 18337385071585772077
21065198 57 18410577314447463867
21421861 104 17824254896014491194
21524375 3 17481715564310882580
221357 26 18265320721765287301
221490 88 18336835285095163819
2255824 54 18196376042259920340
23559900 14 18337950070175699242
2748010 2 18269265782148479356
3084891 72 17833262026671009015
3091708 16 8997583497745014840
34934 24 18411975841308120598
350125 39 17834399299482413898
5104073 3 18409729555937038723
6443956 14 18409452449358733708
7364860 26 18339081626132269656
7399639 24 17904762529080403561
81228 2 17837503955141590224
84936 182 17914333738703058753
9709674 26 18336269037008338035
9981440 41 17835509793336947921

> <PUBCHEM_SHAPE_MULTIPOLES>
388.77
7.92
3.9
0.76
4.69
2
-0.05
-1.64
0.04
-2.47
-0.15
0.44
-0.02
0.86

> <PUBCHEM_SHAPE_SELFOVERLAP>
841.12

> <PUBCHEM_SHAPE_VOLUME>
212.9

> <PUBCHEM_COORDINATE_TYPE>
2
5
10

$$$$
