136901335
  -OEChem-03292013293D

 34 36  0     0  0  0  0  0  0999 V2000
   -0.0633   -1.1743    0.1083 O   0  0  0  0  0  0  0  0  0  0  0  0
   -1.3092    2.8766   -0.0158 O   0  0  0  0  0  0  0  0  0  0  0  0
    4.9484    1.8084   -0.1788 O   0  0  0  0  0  0  0  0  0  0  0  0
   -4.8852   -2.0280   -1.0095 O   0  0  0  0  0  0  0  0  0  0  0  0
    0.7265    0.9474   -0.0001 N   0  0  0  0  0  0  0  0  0  0  0  0
   -2.5503   -0.5512    0.1590 N   0  0  0  0  0  0  0  0  0  0  0  0
   -4.4065    0.9854    0.1548 N   0  0  0  0  0  0  0  0  0  0  0  0
    2.8305    2.6866   -0.1330 N   0  0  0  0  0  0  0  0  0  0  0  0
    1.3003   -1.2343    0.0695 C   0  0  0  0  0  0  0  0  0  0  0  0
    1.7800    0.0655    0.0031 C   0  0  0  0  0  0  0  0  0  0  0  0
    2.0974   -2.3722    0.0907 C   0  0  0  0  0  0  0  0  0  0  0  0
    3.1656    0.2749   -0.0471 C   0  0  0  0  0  0  0  0  0  0  0  0
   -0.3260    0.1618    0.0630 C   0  0  0  0  0  0  0  0  0  0  0  0
    3.4771   -2.1460    0.0396 C   0  0  0  0  0  0  0  0  0  0  0  0
    4.0030   -0.8499   -0.0278 C   0  0  0  0  0  0  0  0  0  0  0  0
   -1.7197    0.5099    0.0912 C   0  0  0  0  0  0  0  0  0  0  0  0
    1.5537   -3.7556    0.1624 C   0  0  0  0  0  0  0  0  0  0  0  0
    3.7199    1.6140   -0.1174 C   0  0  0  0  0  0  0  0  0  0  0  0
   -2.1512    1.8201    0.0522 C   0  0  0  0  0  0  0  0  0  0  0  0
   -3.8616   -0.2456    0.1871 C   0  0  0  0  0  0  0  0  0  0  0  0
   -3.5191    1.9994    0.0872 C   0  0  0  0  0  0  0  0  0  0  0  0
   -4.8106   -1.3930    0.2613 C   0  0  0  0  0  0  0  0  0  0  0  0
    4.1642   -2.9897    0.0523 H   0  0  0  0  0  0  0  0  0  0  0  0
    5.0843   -0.7359   -0.0649 H   0  0  0  0  0  0  0  0  0  0  0  0
    1.9190   -4.2601    1.0629 H   0  0  0  0  0  0  0  0  0  0  0  0
    0.4596   -3.7604    0.1963 H   0  0  0  0  0  0  0  0  0  0  0  0
    1.8643   -4.3308   -0.7159 H   0  0  0  0  0  0  0  0  0  0  0  0
   -3.9628    2.9896    0.0613 H   0  0  0  0  0  0  0  0  0  0  0  0
   -4.4650   -2.1222    1.0011 H   0  0  0  0  0  0  0  0  0  0  0  0
   -5.8132   -1.0564    0.5442 H   0  0  0  0  0  0  0  0  0  0  0  0
    1.8226    2.5849   -0.0916 H   0  0  0  0  0  0  0  0  0  0  0  0
    3.1794    3.6381   -0.1879 H   0  0  0  0  0  0  0  0  0  0  0  0
   -1.8321    3.6966   -0.0325 H   0  0  0  0  0  0  0  0  0  0  0  0
   -5.5047   -2.7722   -0.9200 H   0  0  0  0  0  0  0  0  0  0  0  0
  1  9  1  0  0  0  0
  1 13  1  0  0  0  0
  2 19  1  0  0  0  0
  2 33  1  0  0  0  0
  3 18  2  0  0  0  0
  4 22  1  0  0  0  0
  4 34  1  0  0  0  0
  5 10  1  0  0  0  0
  5 13  2  0  0  0  0
  6 16  2  0  0  0  0
  6 20  1  0  0  0  0
  7 20  2  0  0  0  0
  7 21  1  0  0  0  0
  8 18  1  0  0  0  0
  8 31  1  0  0  0  0
  8 32  1  0  0  0  0
  9 10  1  0  0  0  0
  9 11  2  0  0  0  0
 10 12  2  0  0  0  0
 11 14  1  0  0  0  0
 11 17  1  0  0  0  0
 12 15  1  0  0  0  0
 12 18  1  0  0  0  0
 13 16  1  0  0  0  0
 14 15  2  0  0  0  0
 14 23  1  0  0  0  0
 15 24  1  0  0  0  0
 16 19  1  0  0  0  0
 17 25  1  0  0  0  0
 17 26  1  0  0  0  0
 17 27  1  0  0  0  0
 19 21  2  0  0  0  0
 20 22  1  0  0  0  0
 21 28  1  0  0  0  0
 22 29  1  0  0  0  0
 22 30  1  0  0  0  0
M  END
> <PUBCHEM_COMPOUND_CID>
136901335

> <PUBCHEM_CONFORMER_RMSD>
0.6

> <PUBCHEM_CONFORMER_DIVERSEORDER>
1
27
19
17
3
24
6
7
12
22
10
15
25
4
5
13
8
18
14
23
21
16
9
2
28
11
26
20

> <PUBCHEM_MMFF94_PARTIAL_CHARGES>
29
1 -0.28
10 0.23
11 -0.14
12 0.09
13 0.43
14 -0.15
15 -0.15
16 0.36
17 0.14
18 0.54
19 0.08
2 -0.53
20 0.48
21 0.16
22 0.42
23 0.15
24 0.15
28 0.15
3 -0.57
31 0.37
32 0.37
33 0.45
34 0.4
4 -0.68
5 -0.57
6 -0.62
7 -0.62
8 -0.8
9 0.14

> <PUBCHEM_EFFECTIVE_ROTOR_COUNT>
3

> <PUBCHEM_PHARMACOPHORE_FEATURES>
10
1 2 donor
1 3 acceptor
1 4 acceptor
1 4 donor
1 6 acceptor
1 8 donor
3 6 7 20 cation
5 1 5 9 10 13 rings
6 6 7 16 19 20 21 rings
6 9 10 11 12 14 15 rings

> <PUBCHEM_HEAVY_ATOM_COUNT>
22

> <PUBCHEM_ATOM_DEF_STEREO_COUNT>
0

> <PUBCHEM_ATOM_UDEF_STEREO_COUNT>
0

> <PUBCHEM_BOND_DEF_STEREO_COUNT>
0

> <PUBCHEM_BOND_UDEF_STEREO_COUNT>
0

> <PUBCHEM_ISOTOPIC_ATOM_COUNT>
0

> <PUBCHEM_COMPONENT_COUNT>
1

> <PUBCHEM_CACTVS_TAUTO_COUNT>
-1

> <PUBCHEM_CONFORMER_ID>
0828F2D700000001

> <PUBCHEM_MMFF94_ENERGY>
49.4043

> <PUBCHEM_FEATURE_SELFOVERLAP>
50.865

> <PUBCHEM_SHAPE_FINGERPRINT>
10074138 170 17618472808347864362
10090160 65 18261670488377159471
10411042 1 17617379481152110618
10608611 8 18335702672212778012
10616163 171 18341332189349087463
10967382 1 18410013277561432944
11405975 8 18267023856200974161
11552529 35 18060697291377807251
11578080 2 17242159163503328820
12107183 9 17692256235924579049
12403259 226 18336542708024028100
12403260 363 18335978697292442330
12916754 54 18340491066958090617
13140716 1 17906449183980439632
13167823 11 18341331115443570703
138480 1 18121782729953764794
14223421 5 18336264539792086893
14289901 80 18412262800942120963
14787075 74 18128256881492480337
14790565 3 18122071059050310365
15196674 1 18410294696471557617
15375462 6 18410013217094352156
15442244 35 17978511927599557888
15536298 74 18412264999986631028
15927050 60 17043177632490417557
17349148 13 18040155119187068075
17492 89 18338798910074066947
18681886 176 18341889672157242346
19050596 39 18337955588817829825
19591789 44 18268148845258141097
19930381 70 18337952393199430321
20028762 73 18343858927152293150
20286276 3 18267030453270948259
20645477 70 18409448051043495990
21065198 57 18194402186864869945
21267235 1 18338808818331087995
21618674 54 18410009910254344837
21709351 56 18338230475446856902
221490 88 18337117760973672090
22393880 68 18339933614705259390
2255824 54 18337394838336316678
23366157 5 18041848285927535210
23559900 14 18195801873630382514
23598288 3 17846215497775738973
239999 70 18272658904954733718
2871803 45 18408600370707495263
335352 9 17977667511328205309
350125 39 18409730643281116980
4214541 1 18338517413700946009
4280585 95 17551524240981161694
4409770 3 14378689465646219045
474 4 18041002885976614572
474229 33 18336828722496119682
5104073 3 18409732828902610865
5283173 99 18115010902400517733
5312544 6 18263926699391302724
53777708 50 18269277867743332211
58051976 100 18267305335430466983
58051976 378 18339082700016479614
67856867 119 18337102393844093482
6913067 236 18042950133632392101
7364860 26 18338518530587491816
77779 3 18411140190901137921
9709674 26 18336553720141048003

> <PUBCHEM_SHAPE_MULTIPOLES>
409.35
9.83
3.49
0.63
5.41
0.9
-0.03
0.11
-0.53
-1.62
-0.09
0.18
0.11
-0.55

> <PUBCHEM_SHAPE_SELFOVERLAP>
910.566

> <PUBCHEM_SHAPE_VOLUME>
217.7

> <PUBCHEM_COORDINATE_TYPE>
2
5
10

$$$$
