137028602
  -OEChem-03292013293D

 55 58  0     1  0  0  0  0  0999 V2000
   -0.6417   -1.6598    0.2699 O   0  0  0  0  0  0  0  0  0  0  0  0
   -3.8796    1.8805    1.0776 O   0  0  0  0  0  0  0  0  0  0  0  0
   -5.2835   -2.5821    0.2769 O   0  0  0  0  0  0  0  0  0  0  0  0
    5.4330   -3.1103   -0.2597 O   0  0  0  0  0  0  0  0  0  0  0  0
   -5.3392   -2.1303   -2.0191 O   0  0  0  0  0  0  0  0  0  0  0  0
    6.3987   -1.0353    0.2317 O   0  0  0  0  0  0  0  0  0  0  0  0
   -1.1729    2.3918    1.0492 N   0  0  0  0  0  0  0  0  0  0  0  0
    0.0149    3.0064    1.2000 N   0  0  0  0  0  0  0  0  0  0  0  0
    0.3272   -0.6629   -0.0864 C   0  0  1  0  0  0  0  0  0  0  0  0
    0.3038    0.4919    0.9095 C   0  0  0  0  0  0  0  0  0  0  0  0
   -1.0694    1.1146    0.8800 C   0  0  0  0  0  0  0  0  0  0  0  0
   -2.2016    0.1809    0.6836 C   0  0  0  0  0  0  0  0  0  0  0  0
    1.6917   -1.3172   -0.1333 C   0  0  0  0  0  0  0  0  0  0  0  0
   -1.9131   -1.1625    0.4072 C   0  0  0  0  0  0  0  0  0  0  0  0
   -3.5329    0.5907    0.8072 C   0  0  0  0  0  0  0  0  0  0  0  0
   -2.9493   -2.0914    0.2836 C   0  0  0  0  0  0  0  0  0  0  0  0
    2.2427   -1.8638    1.0258 C   0  0  0  0  0  0  0  0  0  0  0  0
    2.3980   -1.3734   -1.3349 C   0  0  0  0  0  0  0  0  0  0  0  0
   -4.2743   -1.6783    0.4067 C   0  0  0  0  0  0  0  0  0  0  0  0
   -4.5648   -0.3399    0.6641 C   0  0  0  0  0  0  0  0  0  0  0  0
    3.4998   -2.4667    0.9833 C   0  0  0  0  0  0  0  0  0  0  0  0
    3.6551   -1.9762   -1.3774 C   0  0  0  0  0  0  0  0  0  0  0  0
    4.2059   -2.5229   -0.2183 C   0  0  0  0  0  0  0  0  0  0  0  0
    0.4227    4.0059    0.3027 C   0  0  0  0  0  0  0  0  0  0  0  0
    1.6577    4.6325    0.4702 C   0  0  0  0  0  0  0  0  0  0  0  0
   -0.4073    4.3729   -0.7565 C   0  0  0  0  0  0  0  0  0  0  0  0
   -5.7545   -2.7321   -1.0378 C   0  0  0  0  0  0  0  0  0  0  0  0
    6.4991   -2.2316   -0.0064 C   0  0  0  0  0  0  0  0  0  0  0  0
    2.0625    5.6260   -0.4213 C   0  0  0  0  0  0  0  0  0  0  0  0
   -0.0025    5.3663   -1.6481 C   0  0  0  0  0  0  0  0  0  0  0  0
   -6.8602   -3.7449   -1.0752 C   0  0  0  0  0  0  0  0  0  0  0  0
    1.2324    5.9928   -1.4804 C   0  0  0  0  0  0  0  0  0  0  0  0
    7.8020   -2.9715   -0.0746 C   0  0  0  0  0  0  0  0  0  0  0  0
    0.0735   -0.2942   -1.0913 H   0  0  0  0  0  0  0  0  0  0  0  0
    1.1183    1.1630    0.6256 H   0  0  0  0  0  0  0  0  0  0  0  0
    0.4769    0.1572    1.9399 H   0  0  0  0  0  0  0  0  0  0  0  0
   -2.7237   -3.1360    0.0828 H   0  0  0  0  0  0  0  0  0  0  0  0
    1.7041   -1.8404    1.9691 H   0  0  0  0  0  0  0  0  0  0  0  0
    1.9823   -0.9519   -2.2461 H   0  0  0  0  0  0  0  0  0  0  0  0
   -5.6029   -0.0297    0.7604 H   0  0  0  0  0  0  0  0  0  0  0  0
    3.9220   -2.8931    1.8892 H   0  0  0  0  0  0  0  0  0  0  0  0
    4.1999   -2.0169   -2.3167 H   0  0  0  0  0  0  0  0  0  0  0  0
    0.6230    2.7642    1.9743 H   0  0  0  0  0  0  0  0  0  0  0  0
   -4.8482    1.9536    1.1243 H   0  0  0  0  0  0  0  0  0  0  0  0
    2.3139    4.3551    1.2913 H   0  0  0  0  0  0  0  0  0  0  0  0
   -1.3757    3.9070   -0.9182 H   0  0  0  0  0  0  0  0  0  0  0  0
    3.0241    6.1138   -0.2909 H   0  0  0  0  0  0  0  0  0  0  0  0
   -0.6485    5.6523   -2.4731 H   0  0  0  0  0  0  0  0  0  0  0  0
    1.5475    6.7663   -2.1746 H   0  0  0  0  0  0  0  0  0  0  0  0
   -6.4888   -4.7098   -0.7213 H   0  0  0  0  0  0  0  0  0  0  0  0
   -7.2106   -3.8620   -2.1046 H   0  0  0  0  0  0  0  0  0  0  0  0
   -7.6946   -3.4030   -0.4580 H   0  0  0  0  0  0  0  0  0  0  0  0
    7.8143   -3.7669    0.6746 H   0  0  0  0  0  0  0  0  0  0  0  0
    8.6232   -2.2806    0.1364 H   0  0  0  0  0  0  0  0  0  0  0  0
    7.9400   -3.3838   -1.0771 H   0  0  0  0  0  0  0  0  0  0  0  0
  1  9  1  0  0  0  0
  1 14  1  0  0  0  0
  2 15  1  0  0  0  0
  2 44  1  0  0  0  0
  3 19  1  0  0  0  0
  3 27  1  0  0  0  0
  4 23  1  0  0  0  0
  4 28  1  0  0  0  0
  5 27  2  0  0  0  0
  6 28  2  0  0  0  0
  7  8  1  0  0  0  0
  7 11  2  3  0  0  0
  8 24  1  0  0  0  0
  8 43  1  0  0  0  0
  9 10  1  0  0  0  0
  9 13  1  0  0  0  0
  9 34  1  0  0  0  0
 10 11  1  0  0  0  0
 10 35  1  0  0  0  0
 10 36  1  0  0  0  0
 11 12  1  0  0  0  0
 12 14  1  0  0  0  0
 12 15  2  0  0  0  0
 13 17  2  0  0  0  0
 13 18  1  0  0  0  0
 14 16  2  0  0  0  0
 15 20  1  0  0  0  0
 16 19  1  0  0  0  0
 16 37  1  0  0  0  0
 17 21  1  0  0  0  0
 17 38  1  0  0  0  0
 18 22  2  0  0  0  0
 18 39  1  0  0  0  0
 19 20  2  0  0  0  0
 20 40  1  0  0  0  0
 21 23  2  0  0  0  0
 21 41  1  0  0  0  0
 22 23  1  0  0  0  0
 22 42  1  0  0  0  0
 24 25  2  0  0  0  0
 24 26  1  0  0  0  0
 25 29  1  0  0  0  0
 25 45  1  0  0  0  0
 26 30  2  0  0  0  0
 26 46  1  0  0  0  0
 27 31  1  0  0  0  0
 28 33  1  0  0  0  0
 29 32  2  0  0  0  0
 29 47  1  0  0  0  0
 30 32  1  0  0  0  0
 30 48  1  0  0  0  0
 31 50  1  0  0  0  0
 31 51  1  0  0  0  0
 31 52  1  0  0  0  0
 32 49  1  0  0  0  0
 33 53  1  0  0  0  0
 33 54  1  0  0  0  0
 33 55  1  0  0  0  0
M  END
> <PUBCHEM_COMPOUND_CID>
137028602

> <PUBCHEM_CONFORMER_RMSD>
1

> <PUBCHEM_CONFORMER_DIVERSEORDER>
1
13
24
4
9
21
12
11
23
27
25
10
17
19
20
8
3
5
28
26
15
18
16
7
14
22
6
29
2

> <PUBCHEM_MMFF94_PARTIAL_CHARGES>
46
1 -0.36
10 0.06
11 0.3
12 0.09
13 -0.14
14 0.08
15 0.08
16 -0.15
17 -0.15
18 -0.15
19 0.08
2 -0.53
20 -0.15
21 -0.15
22 -0.15
23 0.08
24 0.1
25 -0.15
26 -0.15
27 0.66
28 0.66
29 -0.15
3 -0.23
30 -0.15
31 0.06
32 -0.15
33 0.06
37 0.15
38 0.15
39 0.15
4 -0.23
40 0.15
41 0.15
42 0.15
43 0.4
44 0.45
45 0.15
46 0.15
47 0.15
48 0.15
49 0.15
5 -0.57
6 -0.57
7 -0.49
8 -0.46
9 0.42

> <PUBCHEM_EFFECTIVE_ROTOR_COUNT>
7.6

> <PUBCHEM_PHARMACOPHORE_FEATURES>
10
1 1 acceptor
1 2 donor
1 5 acceptor
1 6 acceptor
1 7 acceptor
1 8 donor
6 1 9 10 11 12 14 rings
6 12 14 15 16 19 20 rings
6 13 17 18 21 22 23 rings
6 24 25 26 29 30 32 rings

> <PUBCHEM_HEAVY_ATOM_COUNT>
33

> <PUBCHEM_ATOM_DEF_STEREO_COUNT>
0

> <PUBCHEM_ATOM_UDEF_STEREO_COUNT>
1

> <PUBCHEM_BOND_DEF_STEREO_COUNT>
0

> <PUBCHEM_BOND_UDEF_STEREO_COUNT>
1

> <PUBCHEM_ISOTOPIC_ATOM_COUNT>
0

> <PUBCHEM_COMPONENT_COUNT>
1

> <PUBCHEM_CACTVS_TAUTO_COUNT>
-1

> <PUBCHEM_CONFORMER_ID>
082AE3FA00000001

> <PUBCHEM_MMFF94_ENERGY>
123.1397

> <PUBCHEM_FEATURE_SELFOVERLAP>
50.777

> <PUBCHEM_SHAPE_FINGERPRINT>
10050765 1 18339366396498812147
100830 39 18049164359632878098
10411042 1 18342455967700451971
10940486 97 18342184315356002473
11059845 2 17108729971047651938
11445158 3 18270958076393589895
11488393 25 18048613799694599523
11763715 3 18192172437513782358
12522641 126 18051689146444095750
12660671 118 17825925277310218888
12788726 201 17826799135508234184
13540713 5 18057901310955219443
13782708 43 17560797672431714566
13968360 50 17835234928483378749
14068700 675 18273494594174612387
14394314 77 18337679598862971035
14508225 48 18411411796248698295
15198563 99 18337950065590238092
15439362 3 18120935276850610849
15705408 1 18336270157699241797
15773216 30 17977947118384850647
15876981 60 18263089829160828428
15961568 22 18411143537487951852
15968369 26 17830730220638128906
17686467 74 18272363179746052970
20771845 171 17977092793813232847
21033650 10 17612907828018690246
21304303 282 17255089291470704197
2132832 1 18041576732604710836
21344244 246 18194960966125387501
21927370 108 18337409157209019811
22956985 138 18267304407543503048
23366157 5 18263931119118333257
23559900 14 18265048205795041235
23576562 1 18335696140596273477
24771750 20 17758121783922177884
24893989 43 16539528391615656493
255183 313 17766299586675531265
255183 451 18342453785593178551
3504750 166 17975972064820771818
4015057 19 18188500171429223595
4017518 198 17762339519934964552
4280585 95 18339922623731032705
4409770 3 17902792960057900737
6673363 416 18337973216635088430
6700243 42 17771376117933853398

> <PUBCHEM_SHAPE_MULTIPOLES>
633.95
14.29
8.84
1.35
4.92
18.95
-0.41
-27.56
-3.06
5.08
-3.58
-0.75
0.4
-2.08

> <PUBCHEM_SHAPE_SELFOVERLAP>
1384.994

> <PUBCHEM_SHAPE_VOLUME>
340.9

> <PUBCHEM_COORDINATE_TYPE>
2
5
10

$$$$
