137092986
  -OEChem-03292013293D

 33 36  0     1  0  0  0  0  0999 V2000
   -1.9240    1.0740   -0.2187 O   0  0  0  0  0  0  0  0  0  0  0  0
   -3.6994   -1.3896   -1.3950 O   0  0  0  0  0  0  0  0  0  0  0  0
   -3.8141    2.7642    0.9597 O   0  0  0  0  0  0  0  0  0  0  0  0
    4.3397   -1.4315    0.6755 O   0  0  0  0  0  0  0  0  0  0  0  0
    0.0693   -0.3964   -0.1984 N   0  0  0  0  0  0  0  0  0  0  0  0
    1.4488   -2.0484    0.3934 N   0  0  0  0  0  0  0  0  0  0  0  0
    1.5753    1.4676   -0.4614 N   0  0  0  0  0  0  0  0  0  0  0  0
    3.8062    0.7530    0.0456 N   0  0  0  0  0  0  0  0  0  0  0  0
    3.3707    2.9778   -0.5880 N   0  0  0  0  0  0  0  0  0  0  0  0
   -2.0049   -1.1610    0.2890 C   0  0  1  0  0  0  0  0  0  0  0  0
   -1.2919   -0.1331   -0.5904 C   0  0  1  0  0  0  0  0  0  0  0  0
   -3.4204   -0.8595   -0.1073 C   0  0  1  0  0  0  0  0  0  0  0  0
   -1.1378   -2.4156    0.1092 C   0  0  0  0  0  0  0  0  0  0  0  0
   -3.3496    0.7021   -0.1535 C   0  0  1  0  0  0  0  0  0  0  0  0
    0.2046   -1.7366    0.1199 C   0  0  0  0  0  0  0  0  0  0  0  0
    1.2727    0.1838   -0.1745 C   0  0  0  0  0  0  0  0  0  0  0  0
   -3.9324    1.3575    1.0883 C   0  0  0  0  0  0  0  0  0  0  0  0
    2.1110   -0.8515    0.2058 C   0  0  0  0  0  0  0  0  0  0  0  0
    3.5177   -0.5867    0.3435 C   0  0  0  0  0  0  0  0  0  0  0  0
    2.8585    1.7302   -0.3424 C   0  0  0  0  0  0  0  0  0  0  0  0
   -1.9167   -0.8693    1.3520 H   0  0  0  0  0  0  0  0  0  0  0  0
   -1.3710   -0.3025   -1.6728 H   0  0  0  0  0  0  0  0  0  0  0  0
   -4.1655   -1.2446    0.5946 H   0  0  0  0  0  0  0  0  0  0  0  0
   -1.3173   -2.9162   -0.8467 H   0  0  0  0  0  0  0  0  0  0  0  0
   -1.2567   -3.1201    0.9355 H   0  0  0  0  0  0  0  0  0  0  0  0
   -3.8189    1.1040   -1.0592 H   0  0  0  0  0  0  0  0  0  0  0  0
   -3.3851    1.0585    1.9880 H   0  0  0  0  0  0  0  0  0  0  0  0
   -4.9900    1.1021    1.2053 H   0  0  0  0  0  0  0  0  0  0  0  0
   -4.5838   -1.0770   -1.6510 H   0  0  0  0  0  0  0  0  0  0  0  0
   -4.1949    3.1584    1.7629 H   0  0  0  0  0  0  0  0  0  0  0  0
    4.7770    1.0453    0.1121 H   0  0  0  0  0  0  0  0  0  0  0  0
    2.7711    3.7449   -0.8718 H   0  0  0  0  0  0  0  0  0  0  0  0
    4.3619    3.1707   -0.4937 H   0  0  0  0  0  0  0  0  0  0  0  0
  1 11  1  0  0  0  0
  1 14  1  0  0  0  0
  2 12  1  0  0  0  0
  2 29  1  0  0  0  0
  3 17  1  0  0  0  0
  3 30  1  0  0  0  0
  4 19  2  0  0  0  0
  5 11  1  0  0  0  0
  5 15  1  0  0  0  0
  5 16  1  0  0  0  0
  6 15  2  0  0  0  0
  6 18  1  0  0  0  0
  7 16  1  0  0  0  0
  7 20  2  0  0  0  0
  8 19  1  0  0  0  0
  8 20  1  0  0  0  0
  8 31  1  0  0  0  0
  9 20  1  0  0  0  0
  9 32  1  0  0  0  0
  9 33  1  0  0  0  0
 10 11  1  0  0  0  0
 10 12  1  0  0  0  0
 10 13  1  0  0  0  0
 10 21  1  0  0  0  0
 11 22  1  0  0  0  0
 12 14  1  0  0  0  0
 12 23  1  0  0  0  0
 13 15  1  0  0  0  0
 13 24  1  0  0  0  0
 13 25  1  0  0  0  0
 14 17  1  0  0  0  0
 14 26  1  0  0  0  0
 16 18  2  0  0  0  0
 17 27  1  0  0  0  0
 17 28  1  0  0  0  0
 18 19  1  0  0  0  0
M  END
> <PUBCHEM_COMPOUND_CID>
137092986

> <PUBCHEM_CONFORMER_RMSD>
0.6

> <PUBCHEM_CONFORMER_DIVERSEORDER>
1

> <PUBCHEM_MMFF94_PARTIAL_CHARGES>
24
1 -0.56
11 0.54
12 0.28
13 0.18
14 0.28
15 0.01
16 -0.03
17 0.28
18 0.14
19 0.72
2 -0.68
20 0.56
29 0.4
3 -0.68
30 0.4
31 0.37
32 0.4
33 0.4
4 -0.57
5 0.05
6 -0.57
7 -0.58
8 -0.49
9 -0.85

> <PUBCHEM_EFFECTIVE_ROTOR_COUNT>
1.8

> <PUBCHEM_PHARMACOPHORE_FEATURES>
13
1 1 acceptor
1 2 acceptor
1 2 donor
1 3 acceptor
1 3 donor
1 4 acceptor
1 8 donor
1 9 donor
3 5 6 15 cation
5 1 10 11 12 14 rings
5 5 10 11 13 15 rings
5 5 6 15 16 18 rings
6 7 8 16 18 19 20 rings

> <PUBCHEM_HEAVY_ATOM_COUNT>
20

> <PUBCHEM_ATOM_DEF_STEREO_COUNT>
4

> <PUBCHEM_ATOM_UDEF_STEREO_COUNT>
0

> <PUBCHEM_BOND_DEF_STEREO_COUNT>
0

> <PUBCHEM_BOND_UDEF_STEREO_COUNT>
0

> <PUBCHEM_ISOTOPIC_ATOM_COUNT>
0

> <PUBCHEM_COMPONENT_COUNT>
1

> <PUBCHEM_CACTVS_TAUTO_COUNT>
12

> <PUBCHEM_CONFORMER_ID>
082BDF7A00000001

> <PUBCHEM_MMFF94_ENERGY>
80.9025

> <PUBCHEM_FEATURE_SELFOVERLAP>
66.726

> <PUBCHEM_SHAPE_FINGERPRINT>
10062212 137 18342729706981782075
10411042 1 16752968634163128267
10465860 228 18268718216208820979
10608611 8 18334289911545412444
10967382 1 18263078963125619022
12173636 292 18271239546748135295
12251169 10 18335987458951801547
12390115 104 18048056339126756412
12403260 363 18339349842407884951
12633257 1 18262514797432773784
12644460 14 17821442483158122528
13140716 1 18334862718295797360
13583140 156 16443331100828936313
14739800 52 17985532584833433648
14790565 3 18335433331172994964
15196674 1 18408884052964709886
15209294 21 18270960137729523003
15309172 13 18334295332000186523
15442244 35 18408881824351482410
15475509 8 17983319053272508358
15536298 74 18411134779585210374
1601671 61 18338520716826202318
16945 1 18334010575378493238
17492 89 18337670935724692882
18186145 218 18410575063393971020
200 152 18270103717420333871
20510252 161 18120377815606872771
21267235 1 18408890650045610670
21501502 16 18410574023816816839
21524375 3 18411415133153755935
21864079 5 18411428323003583705
22094290 62 18335419071538160870
23402539 116 18200864102521683678
23557571 272 17346594175392186283
23558518 356 18261401108297555203
23559900 14 18411973681303808050
2748010 2 18117001198260398742
312423 11 18336834172788519407
335352 9 18336826369080823646
350125 39 18408324414452179281
474 4 18335139791115756217
5104073 3 18335419084159293610
633830 44 18412550907163869862
7832392 63 18268994180874385559
84936 182 18270116962988886784
9709674 26 18411140255284190030
9981440 41 17541935833966640096

> <PUBCHEM_SHAPE_MULTIPOLES>
363.21
8.02
2.76
0.85
0.28
1.07
-0.02
3.03
0.84
0.16
0.19
-0.55
0.08
-1.62

> <PUBCHEM_SHAPE_SELFOVERLAP>
813.307

> <PUBCHEM_SHAPE_VOLUME>
190.2

> <PUBCHEM_COORDINATE_TYPE>
2
5
10

$$$$
