137185509
  -OEChem-03292013293D

 38 39  0     0  0  0  0  0  0999 V2000
   -3.2135   -0.3726   -2.1682 O   0  0  0  0  0  0  0  0  0  0  0  0
    5.3605    1.5696   -0.2211 O   0  0  0  0  0  0  0  0  0  0  0  0
    2.6074    1.5393    0.0283 O   0  0  0  0  0  0  0  0  0  0  0  0
   -0.9000   -0.2353    0.0930 N   0  0  0  0  0  0  0  0  0  0  0  0
    0.4113   -0.0239   -0.1474 N   0  0  0  0  0  0  0  0  0  0  0  0
   -7.2828   -0.4493    0.3924 N   0  0  0  0  0  0  0  0  0  0  0  0
   -3.2196    0.5548    0.0421 C   0  0  0  0  0  0  0  0  0  0  0  0
   -1.7636    0.9224   -0.0657 C   0  0  0  0  0  0  0  0  0  0  0  0
   -3.8760   -0.0752   -1.0152 C   0  0  0  0  0  0  0  0  0  0  0  0
   -3.9129    0.8519    1.2156 C   0  0  0  0  0  0  0  0  0  0  0  0
   -5.2255   -0.4083   -0.8991 C   0  0  0  0  0  0  0  0  0  0  0  0
   -5.9186   -0.1113    0.2743 C   0  0  0  0  0  0  0  0  0  0  0  0
   -5.2624    0.5189    1.3317 C   0  0  0  0  0  0  0  0  0  0  0  0
    2.6474   -0.8381    0.3005 C   0  0  0  0  0  0  0  0  0  0  0  0
    3.3106    0.3726    0.1006 C   0  0  0  0  0  0  0  0  0  0  0  0
    4.6995    0.3943   -0.0258 C   0  0  0  0  0  0  0  0  0  0  0  0
    3.3731   -2.0272    0.3739 C   0  0  0  0  0  0  0  0  0  0  0  0
    1.1979   -0.8848    0.4350 C   0  0  0  0  0  0  0  0  0  0  0  0
    5.4252   -0.7945    0.0475 C   0  0  0  0  0  0  0  0  0  0  0  0
    4.7620   -2.0054    0.2475 C   0  0  0  0  0  0  0  0  0  0  0  0
    6.7802    1.5021   -0.3400 C   0  0  0  0  0  0  0  0  0  0  0  0
   -1.5907    1.3986   -1.0397 H   0  0  0  0  0  0  0  0  0  0  0  0
   -1.5078    1.6797    0.6864 H   0  0  0  0  0  0  0  0  0  0  0  0
   -3.4147    1.3407    2.0486 H   0  0  0  0  0  0  0  0  0  0  0  0
   -5.7387   -0.8999   -1.7225 H   0  0  0  0  0  0  0  0  0  0  0  0
   -5.7915    0.7549    2.2515 H   0  0  0  0  0  0  0  0  0  0  0  0
   -1.0525   -0.6684    1.0039 H   0  0  0  0  0  0  0  0  0  0  0  0
    2.8701   -2.9785    0.5277 H   0  0  0  0  0  0  0  0  0  0  0  0
    0.7897   -1.7336    1.0171 H   0  0  0  0  0  0  0  0  0  0  0  0
    6.5043   -0.8547   -0.0418 H   0  0  0  0  0  0  0  0  0  0  0  0
    5.3261   -2.9319    0.3044 H   0  0  0  0  0  0  0  0  0  0  0  0
   -7.7862   -0.2325    1.2423 H   0  0  0  0  0  0  0  0  0  0  0  0
   -7.7599   -0.9045   -0.3743 H   0  0  0  0  0  0  0  0  0  0  0  0
   -3.8279   -0.8057   -2.7853 H   0  0  0  0  0  0  0  0  0  0  0  0
    1.6766    1.3971    0.2608 H   0  0  0  0  0  0  0  0  0  0  0  0
    7.0848    0.9258   -1.2203 H   0  0  0  0  0  0  0  0  0  0  0  0
    7.2456    1.1349    0.5811 H   0  0  0  0  0  0  0  0  0  0  0  0
    7.1396    2.5254   -0.4908 H   0  0  0  0  0  0  0  0  0  0  0  0
  1  9  1  0  0  0  0
  1 34  1  0  0  0  0
  2 16  1  0  0  0  0
  2 21  1  0  0  0  0
  3 15  1  0  0  0  0
  3 35  1  0  0  0  0
  4  5  1  0  0  0  0
  4  8  1  0  0  0  0
  4 27  1  0  0  0  0
  5 18  2  3  0  0  0
  6 12  1  0  0  0  0
  6 32  1  0  0  0  0
  6 33  1  0  0  0  0
  7  8  1  0  0  0  0
  7  9  2  0  0  0  0
  7 10  1  0  0  0  0
  8 22  1  0  0  0  0
  8 23  1  0  0  0  0
  9 11  1  0  0  0  0
 10 13  2  0  0  0  0
 10 24  1  0  0  0  0
 11 12  2  0  0  0  0
 11 25  1  0  0  0  0
 12 13  1  0  0  0  0
 13 26  1  0  0  0  0
 14 15  2  0  0  0  0
 14 17  1  0  0  0  0
 14 18  1  0  0  0  0
 15 16  1  0  0  0  0
 16 19  2  0  0  0  0
 17 20  2  0  0  0  0
 17 28  1  0  0  0  0
 18 29  1  0  0  0  0
 19 20  1  0  0  0  0
 19 30  1  0  0  0  0
 20 31  1  0  0  0  0
 21 36  1  0  0  0  0
 21 37  1  0  0  0  0
 21 38  1  0  0  0  0
M  END
> <PUBCHEM_COMPOUND_CID>
137185509

> <PUBCHEM_CONFORMER_RMSD>
0.8

> <PUBCHEM_CONFORMER_DIVERSEORDER>
1
127
47
111
60
78
97
12
55
88
8
83
36
86
25
112
49
123
65
62
104
71
100
15
69
118
119
114
85
32
51
7
102
56
89
5
98
110
103
74
19
77
76
33
68
48
93
21
37
70
129
101
46
61
18
30
126
66
52
53
95
80
128
92
39
58
75
81
41
4
38
57
106
96
64
31
28
23
44
124
6
50
59
109
105
22
99
94
67
10
63
13
35
73
79
87
16
27
108
43
115
45
116
26
42
91
11
122
120
72
121
54
29
3
17
90
9
84
20
40
107
24
125
113
117
2
34
82
14

> <PUBCHEM_MMFF94_PARTIAL_CHARGES>
33
1 -0.53
10 -0.15
11 -0.15
12 0.1
13 -0.15
14 0.09
15 0.08
16 0.08
17 -0.15
18 0.3
19 -0.15
2 -0.36
20 -0.15
21 0.28
24 0.15
25 0.15
26 0.15
27 0.36
28 0.15
29 0.06
3 -0.53
30 0.15
31 0.15
32 0.4
33 0.4
34 0.45
35 0.45
4 -0.58
5 -0.5
6 -0.9
7 -0.14
8 0.41
9 0.08

> <PUBCHEM_EFFECTIVE_ROTOR_COUNT>
5

> <PUBCHEM_PHARMACOPHORE_FEATURES>
9
1 1 donor
1 2 acceptor
1 3 donor
1 4 donor
1 5 acceptor
1 6 cation
1 6 donor
6 14 15 16 17 19 20 rings
6 7 9 10 11 12 13 rings

> <PUBCHEM_HEAVY_ATOM_COUNT>
21

> <PUBCHEM_ATOM_DEF_STEREO_COUNT>
0

> <PUBCHEM_ATOM_UDEF_STEREO_COUNT>
0

> <PUBCHEM_BOND_DEF_STEREO_COUNT>
0

> <PUBCHEM_BOND_UDEF_STEREO_COUNT>
1

> <PUBCHEM_ISOTOPIC_ATOM_COUNT>
0

> <PUBCHEM_COMPONENT_COUNT>
1

> <PUBCHEM_CACTVS_TAUTO_COUNT>
-1

> <PUBCHEM_CONFORMER_ID>
082D48E500000001

> <PUBCHEM_MMFF94_ENERGY>
77.4677

> <PUBCHEM_FEATURE_SELFOVERLAP>
45.672

> <PUBCHEM_SHAPE_FINGERPRINT>
10 15 16877942785045677412
10299344 5 18060138743312229079
10354089 29 18342740719462305128
10411042 1 18048032966658699026
10595046 47 18342458118945583267
10638233 991 18202565102760350472
10912923 1 18202280277619107762
11315181 36 18272373084124720961
12107183 9 17407969790554040771
12236239 1 18202284684498088009
12516196 113 17749108889762536637
12596602 18 18411140221351102739
12616971 3 18201429255677231502
12730499 353 18114184125401210410
13073987 5 18261673679537931905
13167823 11 18201716219553691358
13533116 47 18342455911738925874
13914758 101 8934730993780392631
1420 363 17748830696119643507
14251764 18 17917992789599878567
14341114 176 18408046190739350941
14461889 52 18041562546021946210
14848160 23 17168145615662747091
15183329 4 17346598573354152053
15537594 2 18201717370620432837
15716309 27 18413108347233497131
17834072 33 18272649043492959250
17844677 252 18261114015229256404
18335252 98 18334582386303153251
19489759 90 14634868639450177685
20645477 70 18335138640523911586
21033648 29 17749374971381500597
21267235 1 18339928109079743094
21623969 137 18186524301910574498
220451 1 17918273155720854447
22224240 67 18040996289318129248
2297311 6 15769779061436368825
23035841 295 17060622191691594823
23081809 10 18059852848539773259
23522609 53 17916045553811470393
23559900 14 14057297440748384525
335352 9 18408328783874290710
34797466 226 18059582394960827940
351380 3 18131347501287931023
3545911 37 18260550039253112410
4073 2 18041286551038707962
4325135 7 18412826893098490372
4340502 62 17022900156015245410
5104073 3 17896313619608101952
542803 24 17847061077497613794
5758199 1 18342174510167023272

> <PUBCHEM_SHAPE_MULTIPOLES>
399.62
19.06
1.56
1.07
5.08
0.21
-0.27
-1.53
0.51
-3.15
0.11
1.73
0.02
-1.04

> <PUBCHEM_SHAPE_SELFOVERLAP>
850.512

> <PUBCHEM_SHAPE_VOLUME>
222.6

> <PUBCHEM_COORDINATE_TYPE>
2
5
10

$$$$
