137177172
  -OEChem-03292013293D

 54 56  0     0  0  0  0  0  0999 V2000
   -1.8151   -1.1977    0.4605 O   0  0  0  0  0  0  0  0  0  0  0  0
    2.3847   -2.4201   -1.6549 O   0  0  0  0  0  0  0  0  0  0  0  0
   -0.1631   -2.9648    0.9606 O   0  0  0  0  0  0  0  0  0  0  0  0
   -0.2950    3.1806   -0.8395 O   0  0  0  0  0  0  0  0  0  0  0  0
   -2.8425    2.6163   -0.8540 O   0  0  0  0  0  0  0  0  0  0  0  0
    2.8376   -0.3267   -0.1029 O   0  0  0  0  0  0  0  0  0  0  0  0
   -5.3591    1.9521   -0.4973 O   0  0  0  0  0  0  0  0  0  0  0  0
    2.7968   -3.1959   -0.5261 C   0  0  0  0  0  0  0  0  0  0  0  0
    2.2288   -2.5617    0.7640 C   0  0  0  0  0  0  0  0  0  0  0  0
    0.5218   -0.8034    0.2391 C   0  0  0  0  0  0  0  0  0  0  0  0
   -0.8291   -0.2793    0.1240 C   0  0  0  0  0  0  0  0  0  0  0  0
    0.8193   -2.0463    0.6545 C   0  0  0  0  0  0  0  0  0  0  0  0
   -1.0901    0.9897   -0.2769 C   0  0  0  0  0  0  0  0  0  0  0  0
    1.3495    1.4771   -0.5186 C   0  0  0  0  0  0  0  0  0  0  0  0
    1.6756    0.0690   -0.1272 C   0  0  0  0  0  0  0  0  0  0  0  0
    0.0602    1.8751   -0.5564 C   0  0  0  0  0  0  0  0  0  0  0  0
    2.2232   -4.6072   -0.7011 C   0  0  0  0  0  0  0  0  0  0  0  0
    4.3251   -3.2598   -0.5444 C   0  0  0  0  0  0  0  0  0  0  0  0
   -2.5222    1.3601   -0.3749 C   0  0  0  0  0  0  0  0  0  0  0  0
    2.5461    2.3296   -0.8453 C   0  0  0  0  0  0  0  0  0  0  0  0
   -3.4911    0.4907   -0.0290 C   0  0  0  0  0  0  0  0  0  0  0  0
   -3.1505   -0.8447    0.4244 C   0  0  0  0  0  0  0  0  0  0  0  0
    3.2122    2.8408    0.3926 C   0  0  0  0  0  0  0  0  0  0  0  0
   -4.9495    0.8630   -0.1119 C   0  0  0  0  0  0  0  0  0  0  0  0
   -4.0964   -1.7244    0.7805 C   0  0  0  0  0  0  0  0  0  0  0  0
   -5.9217   -0.1818    0.3146 C   0  0  0  0  0  0  0  0  0  0  0  0
    4.4921    2.6640    0.7732 C   0  0  0  0  0  0  0  0  0  0  0  0
   -5.4945   -1.3800    0.7298 C   0  0  0  0  0  0  0  0  0  0  0  0
    5.4434    1.8802   -0.0917 C   0  0  0  0  0  0  0  0  0  0  0  0
    5.1036    3.2056    2.0342 C   0  0  0  0  0  0  0  0  0  0  0  0
    2.2301   -3.3496    1.5350 H   0  0  0  0  0  0  0  0  0  0  0  0
    2.9182   -1.8645    1.2508 H   0  0  0  0  0  0  0  0  0  0  0  0
    1.1359   -4.5854   -0.8304 H   0  0  0  0  0  0  0  0  0  0  0  0
    2.6203   -5.0769   -1.6089 H   0  0  0  0  0  0  0  0  0  0  0  0
    2.4655   -5.2542    0.1482 H   0  0  0  0  0  0  0  0  0  0  0  0
    4.6927   -3.7036   -1.4766 H   0  0  0  0  0  0  0  0  0  0  0  0
    4.7097   -3.8475    0.2954 H   0  0  0  0  0  0  0  0  0  0  0  0
    4.7580   -2.2549   -0.4893 H   0  0  0  0  0  0  0  0  0  0  0  0
    3.2038    1.7749   -1.5181 H   0  0  0  0  0  0  0  0  0  0  0  0
    2.2580    3.1991   -1.4472 H   0  0  0  0  0  0  0  0  0  0  0  0
    2.7231   -2.8503   -2.4586 H   0  0  0  0  0  0  0  0  0  0  0  0
    2.5759    3.4346    1.0487 H   0  0  0  0  0  0  0  0  0  0  0  0
   -3.8361   -2.7242    1.1123 H   0  0  0  0  0  0  0  0  0  0  0  0
    0.2573   -3.7997    1.2254 H   0  0  0  0  0  0  0  0  0  0  0  0
    0.4936    3.7440   -0.8524 H   0  0  0  0  0  0  0  0  0  0  0  0
   -6.9775    0.0608    0.2779 H   0  0  0  0  0  0  0  0  0  0  0  0
   -6.2072   -2.1372    1.0395 H   0  0  0  0  0  0  0  0  0  0  0  0
   -3.8030    2.7339   -0.8940 H   0  0  0  0  0  0  0  0  0  0  0  0
    6.1527    2.5615   -0.5734 H   0  0  0  0  0  0  0  0  0  0  0  0
    6.0182    1.1854    0.5320 H   0  0  0  0  0  0  0  0  0  0  0  0
    5.4629    2.3879    2.6672 H   0  0  0  0  0  0  0  0  0  0  0  0
    4.3794    3.7853    2.6160 H   0  0  0  0  0  0  0  0  0  0  0  0
    5.9461    3.8633    1.7978 H   0  0  0  0  0  0  0  0  0  0  0  0
    4.9853    1.2673   -0.8670 H   0  0  0  0  0  0  0  0  0  0  0  0
  1 11  1  0  0  0  0
  1 22  1  0  0  0  0
  2  8  1  0  0  0  0
  2 41  1  0  0  0  0
  3 12  1  0  0  0  0
  3 44  1  0  0  0  0
  4 16  1  0  0  0  0
  4 45  1  0  0  0  0
  5 19  1  0  0  0  0
  5 48  1  0  0  0  0
  6 15  2  0  0  0  0
  7 24  2  0  0  0  0
  8  9  1  0  0  0  0
  8 17  1  0  0  0  0
  8 18  1  0  0  0  0
  9 12  1  0  0  0  0
  9 31  1  0  0  0  0
  9 32  1  0  0  0  0
 10 11  1  0  0  0  0
 10 12  2  0  0  0  0
 10 15  1  0  0  0  0
 11 13  2  0  0  0  0
 13 16  1  0  0  0  0
 13 19  1  0  0  0  0
 14 15  1  0  0  0  0
 14 16  2  0  0  0  0
 14 20  1  0  0  0  0
 17 33  1  0  0  0  0
 17 34  1  0  0  0  0
 17 35  1  0  0  0  0
 18 36  1  0  0  0  0
 18 37  1  0  0  0  0
 18 38  1  0  0  0  0
 19 21  2  0  0  0  0
 20 23  1  0  0  0  0
 20 39  1  0  0  0  0
 20 40  1  0  0  0  0
 21 22  1  0  0  0  0
 21 24  1  0  0  0  0
 22 25  2  0  0  0  0
 23 27  2  0  0  0  0
 23 42  1  0  0  0  0
 24 26  1  0  0  0  0
 25 28  1  0  0  0  0
 25 43  1  0  0  0  0
 26 28  2  0  0  0  0
 26 46  1  0  0  0  0
 27 29  1  0  0  0  0
 27 30  1  0  0  0  0
 28 47  1  0  0  0  0
 29 49  1  0  0  0  0
 29 50  1  0  0  0  0
 29 54  1  0  0  0  0
 30 51  1  0  0  0  0
 30 52  1  0  0  0  0
 30 53  1  0  0  0  0
M  END
> <PUBCHEM_COMPOUND_CID>
137177172

> <PUBCHEM_CONFORMER_RMSD>
0.8

> <PUBCHEM_CONFORMER_DIVERSEORDER>
1
12
5
27
25
19
29
20
22
4
24
8
15
21
18
7
10
26
17
6
2
13
14
28
16
9
11
3
23

> <PUBCHEM_MMFF94_PARTIAL_CHARGES>
35
1 -0.15
10 0.01
11 0.08
12 -0.06
14 -0.12
15 0.54
16 0.08
19 0.08
2 -0.68
20 0.28
21 0.01
22 0.08
23 -0.29
24 0.54
25 -0.15
26 -0.14
27 -0.28
28 -0.15
29 0.14
3 -0.53
30 0.14
4 -0.53
41 0.4
42 0.15
43 0.15
44 0.45
45 0.45
46 0.15
47 0.15
48 0.45
5 -0.53
6 -0.57
7 -0.57
8 0.28
9 0.14

> <PUBCHEM_EFFECTIVE_ROTOR_COUNT>
4

> <PUBCHEM_PHARMACOPHORE_FEATURES>
13
1 1 acceptor
1 2 acceptor
1 2 donor
1 3 donor
1 4 donor
1 5 donor
1 6 acceptor
1 7 acceptor
3 27 29 30 hydrophobe
3 8 17 18 hydrophobe
6 1 11 13 19 21 22 rings
6 10 11 13 14 15 16 rings
6 21 22 24 25 26 28 rings

> <PUBCHEM_HEAVY_ATOM_COUNT>
30

> <PUBCHEM_ATOM_DEF_STEREO_COUNT>
0

> <PUBCHEM_ATOM_UDEF_STEREO_COUNT>
0

> <PUBCHEM_BOND_DEF_STEREO_COUNT>
1

> <PUBCHEM_BOND_UDEF_STEREO_COUNT>
0

> <PUBCHEM_ISOTOPIC_ATOM_COUNT>
0

> <PUBCHEM_COMPONENT_COUNT>
1

> <PUBCHEM_CACTVS_TAUTO_COUNT>
-1

> <PUBCHEM_CONFORMER_ID>
082D285400000001

> <PUBCHEM_MMFF94_ENERGY>
96.2066

> <PUBCHEM_FEATURE_SELFOVERLAP>
66.037

> <PUBCHEM_SHAPE_FINGERPRINT>
10074138 170 17689414397972946594
10906281 52 17968955204332965009
1100329 8 17763749784381754072
11513181 2 18342740723926708343
11607047 141 17128497222719549795
11719270 70 18337388360955896165
12422481 6 18188756336527506360
12553582 1 17973722472503666979
12788726 201 16895397188075027186
12839892 36 18264480874499736952
13140716 1 18263359205352010657
13402501 40 18335422417128150760
13540713 4 18261106319238835613
13692114 37 17980473787082892019
13757389 114 17689728875478606188
138480 1 18336550404225250671
14466204 15 18336543944959240073
14739800 52 17703791422712500865
14790565 3 18046073919192670405
14863182 85 18262810678019991460
15081414 286 18335430070992104189
15420108 30 18196921378679464258
15927050 60 18198061585549800398
16728300 4 17534306112217231520
17492 89 18409173221099013347
17909252 39 18338809905131802722
17913733 40 18342740770632738961
18681886 176 18043818800049857932
1979834 28 18410293652995088448
20028762 73 17981327003863657791
20642791 35 18190178988746608361
20775438 99 17684326665439624765
21033648 29 17913479414553850232
21197605 99 18265618873456605131
21452121 103 18408882957848289456
21859007 373 17170655706789983245
221490 88 18262248746111196291
22149856 69 18193018074363008227
22182313 1 18186795859939745725
22956985 138 17896304832590239842
23559900 14 18266173938108046531
3298306 158 18340209691150886172
335352 9 18118406142935826061
3411729 13 18335134315301388552
3421961 26 18410859819625624822
350125 39 18334859398513138468
352729 6 17756441708722349093
38695281 34 18270962470055429342
4017518 198 18199477743883515334
4093350 32 17632029584717637621
4340502 62 18340206404920941720
5104073 3 18334017173176007633
5171179 24 18267585715269586336
5265222 85 18048889786394916492
532947 4 18409733966868327374
5385378 56 18412833503069139409
59755656 215 18408890654746422356
6669772 16 18272094946068606814
6823239 73 18265050241202948314
9709674 26 18261401052969415003
9981440 41 18267019655596533842

> <PUBCHEM_SHAPE_MULTIPOLES>
576.3
11.67
5.21
1.09
8.13
3.61
0.18
-4.86
2.48
-7.55
-0.47
-0.85
-0.2
2.82

> <PUBCHEM_SHAPE_SELFOVERLAP>
1249.358

> <PUBCHEM_SHAPE_VOLUME>
312.7

> <PUBCHEM_COORDINATE_TYPE>
2
5
10

$$$$
