137199502
  -OEChem-03292013293D

 31 33  0     0  0  0  0  0  0999 V2000
    4.2999   -2.8595    0.7697 S   0  0  0  0  0  0  0  0  0  0  0  0
    2.7358    2.6238   -0.1152 O   0  0  0  0  0  0  0  0  0  0  0  0
    2.4988   -0.0842   -0.5564 N   0  0  0  0  0  0  0  0  0  0  0  0
    2.9766   -0.5112    0.5179 N   0  0  0  0  0  0  0  0  0  0  0  0
    5.1499   -0.6089   -0.3376 N   0  0  0  0  0  0  0  0  0  0  0  0
   -1.0810    0.8594    0.0202 C   0  0  0  0  0  0  0  0  0  0  0  0
   -2.3690    0.2169    0.0577 C   0  0  0  0  0  0  0  0  0  0  0  0
    0.0743    0.0796   -0.2482 C   0  0  0  0  0  0  0  0  0  0  0  0
   -2.4524   -1.1810   -0.1745 C   0  0  0  0  0  0  0  0  0  0  0  0
   -0.0482   -1.2941   -0.4717 C   0  0  0  0  0  0  0  0  0  0  0  0
   -1.2925   -1.9149   -0.4356 C   0  0  0  0  0  0  0  0  0  0  0  0
    1.3459    0.6766   -0.2917 C   0  0  0  0  0  0  0  0  0  0  0  0
   -0.8768    2.2454    0.2363 C   0  0  0  0  0  0  0  0  0  0  0  0
   -3.5879    0.8927    0.3156 C   0  0  0  0  0  0  0  0  0  0  0  0
   -3.6944   -1.8379   -0.1449 C   0  0  0  0  0  0  0  0  0  0  0  0
    1.5051    2.0417   -0.0740 C   0  0  0  0  0  0  0  0  0  0  0  0
    0.3933    2.8265    0.1900 C   0  0  0  0  0  0  0  0  0  0  0  0
   -4.8165    0.2272    0.3424 C   0  0  0  0  0  0  0  0  0  0  0  0
   -4.8696   -1.1387    0.1119 C   0  0  0  0  0  0  0  0  0  0  0  0
    4.1087   -1.2595    0.2880 C   0  0  0  0  0  0  0  0  0  0  0  0
    0.8126   -1.9231   -0.6866 H   0  0  0  0  0  0  0  0  0  0  0  0
   -1.3428   -2.9870   -0.6167 H   0  0  0  0  0  0  0  0  0  0  0  0
   -1.7109    2.9097    0.4475 H   0  0  0  0  0  0  0  0  0  0  0  0
   -3.6079    1.9632    0.5032 H   0  0  0  0  0  0  0  0  0  0  0  0
   -3.7575   -2.9100   -0.3232 H   0  0  0  0  0  0  0  0  0  0  0  0
    0.4924    3.8948    0.3634 H   0  0  0  0  0  0  0  0  0  0  0  0
   -5.7286    0.7815    0.5437 H   0  0  0  0  0  0  0  0  0  0  0  0
   -5.8216   -1.6602    0.1316 H   0  0  0  0  0  0  0  0  0  0  0  0
    2.6439    3.5761    0.0603 H   0  0  0  0  0  0  0  0  0  0  0  0
    5.0695    0.3609   -0.6244 H   0  0  0  0  0  0  0  0  0  0  0  0
    6.0276   -1.0795   -0.5307 H   0  0  0  0  0  0  0  0  0  0  0  0
  1 20  2  0  0  0  0
  2 16  1  0  0  0  0
  2 29  1  0  0  0  0
  3  4  2  0  0  0  0
  3 12  1  0  0  0  0
  4 20  1  0  0  0  0
  5 20  1  0  0  0  0
  5 30  1  0  0  0  0
  5 31  1  0  0  0  0
  6  7  1  0  0  0  0
  6  8  2  0  0  0  0
  6 13  1  0  0  0  0
  7  9  1  0  0  0  0
  7 14  2  0  0  0  0
  8 10  1  0  0  0  0
  8 12  1  0  0  0  0
  9 11  1  0  0  0  0
  9 15  2  0  0  0  0
 10 11  2  0  0  0  0
 10 21  1  0  0  0  0
 11 22  1  0  0  0  0
 12 16  2  0  0  0  0
 13 17  2  0  0  0  0
 13 23  1  0  0  0  0
 14 18  1  0  0  0  0
 14 24  1  0  0  0  0
 15 19  1  0  0  0  0
 15 25  1  0  0  0  0
 16 17  1  0  0  0  0
 17 26  1  0  0  0  0
 18 19  2  0  0  0  0
 18 27  1  0  0  0  0
 19 28  1  0  0  0  0
M  END
> <PUBCHEM_COMPOUND_CID>
137199502

> <PUBCHEM_CONFORMER_RMSD>
0.6

> <PUBCHEM_CONFORMER_DIVERSEORDER>
1
2
6
5
3
4

> <PUBCHEM_MMFF94_PARTIAL_CHARGES>
27
1 -0.38
10 -0.15
11 -0.15
12 0.18
13 -0.15
14 -0.15
15 -0.15
16 0.08
17 -0.15
18 -0.15
19 -0.15
2 -0.53
20 0.65
21 0.15
22 0.15
23 0.15
24 0.15
25 0.15
26 0.15
27 0.15
28 0.15
29 0.45
3 -0.18
30 0.37
31 0.37
4 -0.21
5 -0.8

> <PUBCHEM_EFFECTIVE_ROTOR_COUNT>
2

> <PUBCHEM_PHARMACOPHORE_FEATURES>
6
1 1 acceptor
1 2 donor
1 5 donor
6 6 7 8 9 10 11 rings
6 6 8 12 13 16 17 rings
6 7 9 14 15 18 19 rings

> <PUBCHEM_HEAVY_ATOM_COUNT>
20

> <PUBCHEM_ATOM_DEF_STEREO_COUNT>
0

> <PUBCHEM_ATOM_UDEF_STEREO_COUNT>
0

> <PUBCHEM_BOND_DEF_STEREO_COUNT>
0

> <PUBCHEM_BOND_UDEF_STEREO_COUNT>
0

> <PUBCHEM_ISOTOPIC_ATOM_COUNT>
0

> <PUBCHEM_COMPONENT_COUNT>
1

> <PUBCHEM_CACTVS_TAUTO_COUNT>
-1

> <PUBCHEM_CONFORMER_ID>
082D7F8E00000001

> <PUBCHEM_MMFF94_ENERGY>
63.7734

> <PUBCHEM_FEATURE_SELFOVERLAP>
30.495

> <PUBCHEM_SHAPE_FINGERPRINT>
10062212 137 18272929453692651815
10967382 1 18196937888517691837
11578080 2 17677592221508171660
12107183 9 18196096547305656617
12236239 1 18040722429144328558
12403259 226 18337385037342377133
12403260 363 18342736330433028933
12507560 14 18344145895116822517
12553582 1 18410844452697181654
12633257 1 18342751697609697265
12788726 201 18339090272312568568
13140716 1 18341619239166565457
13533116 47 18266738163925451419
138480 1 18410574024107337384
13862211 1 18412540985947963599
14178342 30 17914062988290918697
15042514 8 18050284765637998858
15196674 1 18340207500770234541
15352361 1 18410009901633002178
15375462 189 18187078425843378714
15442244 35 18340488958224275553
15536298 74 18270682089983999752
16945 1 18270695168523348117
17349148 13 17989204854510832423
17492 89 18194963178466997039
17804303 29 18342177760539089005
1813 80 17676203559527432052
18186145 218 17676759976740734627
19591789 44 18410291428270522655
19784866 135 18194390109601697330
20028762 73 17987797540042561543
21029758 27 18335706030829477525
21267235 1 18411709802517945671
21501502 16 18198062676017241037
221490 88 18190748715815817339
22182313 1 18189310477150036844
22950370 63 18408888399846536658
2297311 6 18271817766001260510
2334 1 18197500829807299589
23366157 5 18116995691996326252
23402539 116 18201431450801015727
23463225 33 18411983598019024789
23559900 14 18411977000738424016
2748010 2 18341334512952508613
3004659 81 18041562438990959598
335352 9 18411419480283048093
3421961 26 18410852187795683664
34934 24 18127410274887968532
350125 39 18410296891616863117
4409770 3 17755290172050839277
465052 167 18410018740644211139
5104073 3 18271253823936605659
7097593 13 18268141131481345606
7364860 26 18268991067339801904
7970288 3 18336259063767755506
8863177 126 17897744277799718915
9709674 26 18120658191230165499
9981440 41 17401198375132861713

> <PUBCHEM_SHAPE_MULTIPOLES>
394.63
9.39
3.07
0.72
2.01
0.93
0.03
-6.03
1.25
1.93
0.28
0.15
-0.13
-0.82

> <PUBCHEM_SHAPE_SELFOVERLAP>
869.44

> <PUBCHEM_SHAPE_VOLUME>
214.4

> <PUBCHEM_COORDINATE_TYPE>
2
5
10

$$$$
