13712878
  -OEChem-03292013303D

 37 39  0     1  0  0  0  0  0999 V2000
    2.2269    0.3182    1.0569 O   0  0  0  0  0  0  0  0  0  0  0  0
    1.6481   -2.1175   -1.5224 O   0  0  0  0  0  0  0  0  0  0  0  0
    3.8827   -2.0236    0.0214 O   0  0  0  0  0  0  0  0  0  0  0  0
    3.7531    2.6597    0.8318 O   0  0  0  0  0  0  0  0  0  0  0  0
   -2.5509    3.0228   -1.4394 O   0  0  0  0  0  0  0  0  0  0  0  0
    0.0210   -0.0462    0.2623 N   0  0  0  0  0  0  0  0  0  0  0  0
   -1.2395   -2.0991    0.3839 N   0  0  0  0  0  0  0  0  0  0  0  0
   -3.6459   -1.7503    0.2615 N   0  0  0  0  0  0  0  0  0  0  0  0
   -4.6257    0.4115    0.0446 N   0  0  0  0  0  0  0  0  0  0  0  0
    1.3675   -0.6049    0.3609 C   0  0  1  0  0  0  0  0  0  0  0  0
    2.0292   -0.8683   -0.9831 C   0  0  1  0  0  0  0  0  0  0  0  0
    3.4981   -0.8043   -0.6138 C   0  0  1  0  0  0  0  0  0  0  0  0
    3.5251    0.3181    0.4191 C   0  0  1  0  0  0  0  0  0  0  0  0
    3.7556    1.6892   -0.2005 C   0  0  0  0  0  0  0  0  0  0  0  0
   -1.1500   -0.7620    0.2763 C   0  0  0  0  0  0  0  0  0  0  0  0
   -0.2697    1.2913    0.1399 C   0  0  0  0  0  0  0  0  0  0  0  0
   -2.2058    0.1339    0.1609 C   0  0  0  0  0  0  0  0  0  0  0  0
   -1.6397    1.4315    0.0752 C   0  0  0  0  0  0  0  0  0  0  0  0
   -2.3640    2.7117   -0.0592 C   0  0  0  0  0  0  0  0  0  0  0  0
   -3.4893   -0.4104    0.1562 C   0  0  0  0  0  0  0  0  0  0  0  0
   -2.5266   -2.5013    0.3673 C   0  0  0  0  0  0  0  0  0  0  0  0
    1.2937   -1.5122    0.9729 H   0  0  0  0  0  0  0  0  0  0  0  0
    1.7842   -0.0838   -1.7083 H   0  0  0  0  0  0  0  0  0  0  0  0
    4.1564   -0.6524   -1.4739 H   0  0  0  0  0  0  0  0  0  0  0  0
    4.2621    0.1384    1.2100 H   0  0  0  0  0  0  0  0  0  0  0  0
    2.9682    1.9580   -0.9116 H   0  0  0  0  0  0  0  0  0  0  0  0
    4.7215    1.7328   -0.7121 H   0  0  0  0  0  0  0  0  0  0  0  0
    0.5150    2.0350    0.1022 H   0  0  0  0  0  0  0  0  0  0  0  0
    1.9160   -2.8104   -0.8950 H   0  0  0  0  0  0  0  0  0  0  0  0
    4.8138   -1.9312    0.2864 H   0  0  0  0  0  0  0  0  0  0  0  0
   -3.3213    2.7303    0.4639 H   0  0  0  0  0  0  0  0  0  0  0  0
   -1.7638    3.5205    0.3749 H   0  0  0  0  0  0  0  0  0  0  0  0
    2.8917    2.6084    1.2803 H   0  0  0  0  0  0  0  0  0  0  0  0
   -2.6862   -3.5710    0.4499 H   0  0  0  0  0  0  0  0  0  0  0  0
   -4.5617    1.3926   -0.1710 H   0  0  0  0  0  0  0  0  0  0  0  0
   -5.5344   -0.0334    0.0388 H   0  0  0  0  0  0  0  0  0  0  0  0
   -3.0040    3.8824   -1.4777 H   0  0  0  0  0  0  0  0  0  0  0  0
  1 10  1  0  0  0  0
  1 13  1  0  0  0  0
  2 11  1  0  0  0  0
  2 29  1  0  0  0  0
  3 12  1  0  0  0  0
  3 30  1  0  0  0  0
  4 14  1  0  0  0  0
  4 33  1  0  0  0  0
  5 19  1  0  0  0  0
  5 37  1  0  0  0  0
  6 10  1  0  0  0  0
  6 15  1  0  0  0  0
  6 16  1  0  0  0  0
  7 15  2  0  0  0  0
  7 21  1  0  0  0  0
  8 20  1  0  0  0  0
  8 21  2  0  0  0  0
  9 20  1  0  0  0  0
  9 35  1  0  0  0  0
  9 36  1  0  0  0  0
 10 11  1  0  0  0  0
 10 22  1  0  0  0  0
 11 12  1  0  0  0  0
 11 23  1  0  0  0  0
 12 13  1  0  0  0  0
 12 24  1  0  0  0  0
 13 14  1  0  0  0  0
 13 25  1  0  0  0  0
 14 26  1  0  0  0  0
 14 27  1  0  0  0  0
 15 17  1  0  0  0  0
 16 18  2  0  0  0  0
 16 28  1  0  0  0  0
 17 18  1  0  0  0  0
 17 20  2  0  0  0  0
 18 19  1  0  0  0  0
 19 31  1  0  0  0  0
 19 32  1  0  0  0  0
 21 34  1  0  0  0  0
M  END
> <PUBCHEM_COMPOUND_CID>
13712878

> <PUBCHEM_CONFORMER_RMSD>
0.6

> <PUBCHEM_CONFORMER_DIVERSEORDER>
4
17
33
35
1
9
20
38
36
16
23
14
22
21
41
40
13
12
15
18
32
3
24
31
34
7
5
10
37
26
8
6
28
19
39
27
25
29
11
2
30

> <PUBCHEM_MMFF94_PARTIAL_CHARGES>
28
1 -0.56
10 0.54
11 0.28
12 0.28
13 0.28
14 0.28
15 0.11
16 -0.3
18 -0.18
19 0.46
2 -0.68
20 0.41
21 0.47
28 0.15
29 0.4
3 -0.68
30 0.4
33 0.4
34 0.15
35 0.4
36 0.4
37 0.4
4 -0.68
5 -0.68
6 0.05
7 -0.57
8 -0.62
9 -0.9

> <PUBCHEM_EFFECTIVE_ROTOR_COUNT>
4

> <PUBCHEM_PHARMACOPHORE_FEATURES>
16
1 1 acceptor
1 2 acceptor
1 2 donor
1 3 acceptor
1 3 donor
1 4 acceptor
1 4 donor
1 5 acceptor
1 5 donor
1 9 cation
1 9 donor
3 6 7 15 cation
3 7 8 21 cation
5 1 10 11 12 13 rings
5 6 15 16 17 18 rings
6 7 8 15 17 20 21 rings

> <PUBCHEM_HEAVY_ATOM_COUNT>
21

> <PUBCHEM_ATOM_DEF_STEREO_COUNT>
4

> <PUBCHEM_ATOM_UDEF_STEREO_COUNT>
0

> <PUBCHEM_BOND_DEF_STEREO_COUNT>
0

> <PUBCHEM_BOND_UDEF_STEREO_COUNT>
0

> <PUBCHEM_ISOTOPIC_ATOM_COUNT>
0

> <PUBCHEM_COMPONENT_COUNT>
1

> <PUBCHEM_CACTVS_TAUTO_COUNT>
4

> <PUBCHEM_CONFORMER_ID>
00D13DEE00000004

> <PUBCHEM_MMFF94_ENERGY>
49.8945

> <PUBCHEM_FEATURE_SELFOVERLAP>
81.493

> <PUBCHEM_SHAPE_FINGERPRINT>
10498660 4 18335417993353631069
10608611 8 18412262818143270688
10616163 171 18341336707374770086
1100329 8 17255965568290117251
11132069 177 18339923817600039841
11578080 2 17024840780884511716
12173636 292 18334852767231391949
12403259 226 18338234843518001036
12500047 106 18190741921177269238
12633257 1 18271817761089153770
13140716 1 18336837506236840923
14223421 5 18411135861653387232
15196674 1 18411702118768692731
15219456 202 18271811254203150434
15375358 24 18341613754261375539
15375462 6 18339927120894094334
15961568 22 18115309024343848892
16752209 62 18189605069430960339
16945 1 18334576820030383307
17134986 127 17830168005087510045
18186145 218 18197500610394754272
200 152 17132111312606622099
20510252 161 18412545379873509521
20645477 56 18336271132862428181
20645477 70 17775006760651965790
20681677 76 18411975849982600708
21524375 3 17681276555648705337
221490 88 18341059566468538434
23402539 116 18409160034699698911
23557571 272 18262243333950866636
23558518 356 18334021579079229633
23559900 14 18413107239010634914
2748010 2 18193563259666885197
34934 24 18338793541380245067
350125 39 18337397023899430176
474 4 17168717473816352852
5104073 3 18411141363306164235
559249 180 17899694557871380722
7097593 13 17898269629461419626
7364860 26 17690848182605049489
81228 2 18261971694834450849
9709674 26 18271250417278972806
9925002 15 16976173385261031236

> <PUBCHEM_SHAPE_MULTIPOLES>
382.9
7.9
3.07
0.93
1.79
1.09
-0.22
0.56
0.18
-0.88
-0.42
0.33
0.07
1.36

> <PUBCHEM_SHAPE_SELFOVERLAP>
830.083

> <PUBCHEM_SHAPE_VOLUME>
208.1

> <PUBCHEM_COORDINATE_TYPE>
2
5
10

$$$$
