137138799
  -OEChem-03292013293D

 32 33  0     1  0  0  0  0  0999 V2000
    1.5292    0.5215   -1.4479 S   0  0  0  0  0  0  0  0  0  0  0  0
   -0.9169    0.9820   -0.4783 O   0  0  0  0  0  0  0  0  0  0  0  0
   -2.3061   -2.3399   -0.8122 O   0  0  0  0  0  0  0  0  0  0  0  0
   -1.3955   -0.2800    2.0328 O   0  0  0  0  0  0  0  0  0  0  0  0
   -3.3476    2.6585   -0.3816 O   0  0  0  0  0  0  0  0  0  0  0  0
    0.9986   -1.2498    0.3543 N   0  0  0  0  0  0  0  0  0  0  0  0
    3.1519   -0.1983    0.5323 N   0  0  0  0  0  0  0  0  0  0  0  0
   -0.1248   -1.3628   -0.5642 C   0  0  1  0  0  0  0  0  0  0  0  0
   -1.4031   -1.7967    0.1545 C   0  0  1  0  0  0  0  0  0  0  0  0
   -2.1158   -0.6409    0.8567 C   0  0  2  0  0  0  0  0  0  0  0  0
   -0.2293    0.0082   -1.2605 C   0  0  2  0  0  0  0  0  0  0  0  0
   -2.2225    0.5736   -0.0720 C   0  0  1  0  0  0  0  0  0  0  0  0
   -2.8776    1.7675    0.6138 C   0  0  0  0  0  0  0  0  0  0  0  0
    2.0008   -0.3920   -0.0121 C   0  0  0  0  0  0  0  0  0  0  0  0
    3.9746    0.8040   -0.1323 C   0  0  0  0  0  0  0  0  0  0  0  0
    5.2840    0.9450    0.6164 C   0  0  0  0  0  0  0  0  0  0  0  0
    0.1428   -2.1167   -1.3175 H   0  0  0  0  0  0  0  0  0  0  0  0
   -1.1817   -2.5929    0.8755 H   0  0  0  0  0  0  0  0  0  0  0  0
   -3.1234   -0.9486    1.1614 H   0  0  0  0  0  0  0  0  0  0  0  0
   -0.7063   -0.0678   -2.2433 H   0  0  0  0  0  0  0  0  0  0  0  0
   -2.7974    0.3165   -0.9715 H   0  0  0  0  0  0  0  0  0  0  0  0
    1.1013   -1.9009    1.1253 H   0  0  0  0  0  0  0  0  0  0  0  0
   -2.1707    2.3071    1.2526 H   0  0  0  0  0  0  0  0  0  0  0  0
   -3.7414    1.4535    1.2082 H   0  0  0  0  0  0  0  0  0  0  0  0
   -1.8781   -3.1175   -1.2093 H   0  0  0  0  0  0  0  0  0  0  0  0
   -1.3628   -1.0629    2.6085 H   0  0  0  0  0  0  0  0  0  0  0  0
   -3.7643    3.4078    0.0772 H   0  0  0  0  0  0  0  0  0  0  0  0
    4.2290    0.5099   -1.1582 H   0  0  0  0  0  0  0  0  0  0  0  0
    3.5035    1.7948   -0.1227 H   0  0  0  0  0  0  0  0  0  0  0  0
    5.1112    1.2532    1.6530 H   0  0  0  0  0  0  0  0  0  0  0  0
    5.8265   -0.0062    0.6389 H   0  0  0  0  0  0  0  0  0  0  0  0
    5.9234    1.6933    0.1379 H   0  0  0  0  0  0  0  0  0  0  0  0
  1 11  1  0  0  0  0
  1 14  1  0  0  0  0
  2 11  1  0  0  0  0
  2 12  1  0  0  0  0
  3  9  1  0  0  0  0
  3 25  1  0  0  0  0
  4 10  1  0  0  0  0
  4 26  1  0  0  0  0
  5 13  1  0  0  0  0
  5 27  1  0  0  0  0
  6  8  1  0  0  0  0
  6 14  1  0  0  0  0
  6 22  1  0  0  0  0
  7 14  2  0  0  0  0
  7 15  1  0  0  0  0
  8  9  1  0  0  0  0
  8 11  1  0  0  0  0
  8 17  1  0  0  0  0
  9 10  1  0  0  0  0
  9 18  1  0  0  0  0
 10 12  1  0  0  0  0
 10 19  1  0  0  0  0
 11 20  1  0  0  0  0
 12 13  1  0  0  0  0
 12 21  1  0  0  0  0
 13 23  1  0  0  0  0
 13 24  1  0  0  0  0
 15 16  1  0  0  0  0
 15 28  1  0  0  0  0
 15 29  1  0  0  0  0
 16 30  1  0  0  0  0
 16 31  1  0  0  0  0
 16 32  1  0  0  0  0
M  END
> <PUBCHEM_COMPOUND_CID>
137138799

> <PUBCHEM_CONFORMER_RMSD>
0.6

> <PUBCHEM_CONFORMER_DIVERSEORDER>
1
10
11
12
4
3
5
6
2
9
7
8
13

> <PUBCHEM_MMFF94_PARTIAL_CHARGES>
19
1 -0.37
10 0.28
11 0.51
12 0.28
13 0.28
14 0.64
15 0.25
2 -0.56
22 0.4
25 0.4
26 0.4
27 0.4
3 -0.68
4 -0.68
5 -0.68
6 -0.82
7 -0.7
8 0.37
9 0.28

> <PUBCHEM_EFFECTIVE_ROTOR_COUNT>
3.2

> <PUBCHEM_PHARMACOPHORE_FEATURES>
11
1 2 acceptor
1 3 acceptor
1 3 donor
1 4 acceptor
1 4 donor
1 5 acceptor
1 5 donor
1 6 donor
3 6 7 14 cation
5 1 6 8 11 14 rings
6 2 8 9 10 11 12 rings

> <PUBCHEM_HEAVY_ATOM_COUNT>
16

> <PUBCHEM_ATOM_DEF_STEREO_COUNT>
5

> <PUBCHEM_ATOM_UDEF_STEREO_COUNT>
0

> <PUBCHEM_BOND_DEF_STEREO_COUNT>
0

> <PUBCHEM_BOND_UDEF_STEREO_COUNT>
0

> <PUBCHEM_ISOTOPIC_ATOM_COUNT>
0

> <PUBCHEM_COMPONENT_COUNT>
1

> <PUBCHEM_CACTVS_TAUTO_COUNT>
-1

> <PUBCHEM_CONFORMER_ID>
082C926F00000001

> <PUBCHEM_MMFF94_ENERGY>
43.3863

> <PUBCHEM_FEATURE_SELFOVERLAP>
55.985

> <PUBCHEM_SHAPE_FINGERPRINT>
11127187 94 9943528479283415553
11132069 177 18113898260709096636
12138202 97 17561079194219587559
122479 349 18261958444507076992
12251169 10 17603876589035038172
12382932 28 18260835851746164228
12500047 106 18413385423852258856
12507560 40 18337399257556919082
13024252 1 16515674572332921711
13296909 8 18411418457479210822
13571099 52 18267309733492769685
13764800 53 18341059544402780512
14178342 30 17676216774883748450
14251764 30 11023522753865940165
14614273 12 18131080358802203807
15061688 2 18270678649884150213
15209294 21 18334573543033704920
15775835 57 18412547600160208506
16945 1 18265070169940904903
200 152 18043237144901399830
20510252 161 18272093820054029699
20511035 2 17899725382777453639
20525323 117 18334577970548998558
20645476 183 9438587668680588059
20645477 56 18271816721654066896
21061003 4 14851607695605772860
22112679 90 17909290296436364855
2306618 200 18059581324959946938
23402539 116 17986667276110959007
23419403 2 17763992033843494325
23500284 214 18342461400227134064
23557571 272 17917439777594196822
23559900 14 18059579036750193382
27216 239 18335985341237837568
2748010 2 18049188604132375143
4921388 177 8718560431842804568

> <PUBCHEM_SHAPE_MULTIPOLES>
299.68
6.92
2.09
1.27
9.43
0.28
0.09
3.7
1.77
-2.55
-0.21
-0.14
-0.01
-0.03

> <PUBCHEM_SHAPE_SELFOVERLAP>
600.382

> <PUBCHEM_SHAPE_VOLUME>
178.4

> <PUBCHEM_COORDINATE_TYPE>
2
5
10

$$$$
