137241419
  -OEChem-03292013293D

 37 38  0     1  0  0  0  0  0999 V2000
   -1.7310    0.1594   -0.4918 S   0  0  0  0  0  0  0  0  0  0  0  0
   -1.3405   -3.6560   -0.0055 O   0  0  0  0  0  0  0  0  0  0  0  0
    1.5585   -0.0898   -1.4320 O   0  0  0  0  0  0  0  0  0  0  0  0
   -2.9506   -2.0026    0.1437 N   0  0  0  0  0  0  0  0  0  0  0  0
    2.6949   -0.4414    0.5936 N   0  0  0  0  0  0  0  0  0  0  0  0
   -4.3004   -0.0869    0.2127 N   0  0  0  0  0  0  0  0  0  0  0  0
   -4.2014    1.2774   -0.0344 N   0  0  0  0  0  0  0  0  0  0  0  0
   -0.7487   -1.3746   -0.5558 C   0  0  1  0  0  0  0  0  0  0  0  0
    0.4634   -1.2782    0.3533 C   0  0  0  0  0  0  0  0  0  0  0  0
   -1.6835   -2.4836   -0.1138 C   0  0  0  0  0  0  0  0  0  0  0  0
    1.6221   -0.5302   -0.2889 C   0  0  0  0  0  0  0  0  0  0  0  0
   -3.1716   -0.6658    0.0032 C   0  0  0  0  0  0  0  0  0  0  0  0
    3.9483    0.1759    0.3685 C   0  0  0  0  0  0  0  0  0  0  0  0
    4.9177    0.1719    1.3714 C   0  0  0  0  0  0  0  0  0  0  0  0
    4.2142    0.7884   -0.8562 C   0  0  0  0  0  0  0  0  0  0  0  0
    6.1532    0.7805    1.1497 C   0  0  0  0  0  0  0  0  0  0  0  0
    5.4496    1.3969   -1.0779 C   0  0  0  0  0  0  0  0  0  0  0  0
    6.4190    1.3930   -0.0749 C   0  0  0  0  0  0  0  0  0  0  0  0
   -5.3122    1.9204    0.1599 C   0  0  0  0  0  0  0  0  0  0  0  0
   -5.4824    3.4078   -0.0348 C   0  0  0  0  0  0  0  0  0  0  0  0
   -6.5187    1.1377    0.6102 C   0  0  0  0  0  0  0  0  0  0  0  0
   -0.4778   -1.5735   -1.5983 H   0  0  0  0  0  0  0  0  0  0  0  0
    0.8363   -2.2859    0.5816 H   0  0  0  0  0  0  0  0  0  0  0  0
    0.2168   -0.8141    1.3169 H   0  0  0  0  0  0  0  0  0  0  0  0
   -3.6933   -2.6274    0.4399 H   0  0  0  0  0  0  0  0  0  0  0  0
    2.5828   -0.8649    1.5123 H   0  0  0  0  0  0  0  0  0  0  0  0
    4.7234   -0.3018    2.3302 H   0  0  0  0  0  0  0  0  0  0  0  0
    3.5157    0.8327   -1.6798 H   0  0  0  0  0  0  0  0  0  0  0  0
    6.9081    0.7775    1.9306 H   0  0  0  0  0  0  0  0  0  0  0  0
    5.6581    1.8743   -2.0310 H   0  0  0  0  0  0  0  0  0  0  0  0
    7.3809    1.8669   -0.2476 H   0  0  0  0  0  0  0  0  0  0  0  0
   -4.5385    3.8530   -0.3599 H   0  0  0  0  0  0  0  0  0  0  0  0
   -6.3279    0.6620    1.5767 H   0  0  0  0  0  0  0  0  0  0  0  0
   -6.2475    3.5889   -0.7941 H   0  0  0  0  0  0  0  0  0  0  0  0
   -5.7907    3.8641    0.9094 H   0  0  0  0  0  0  0  0  0  0  0  0
   -7.3734    1.8102    0.7310 H   0  0  0  0  0  0  0  0  0  0  0  0
   -6.7879    0.3852   -0.1369 H   0  0  0  0  0  0  0  0  0  0  0  0
  1  8  1  0  0  0  0
  1 12  1  0  0  0  0
  2 10  2  0  0  0  0
  3 11  2  0  0  0  0
  4 10  1  0  0  0  0
  4 12  1  0  0  0  0
  4 25  1  0  0  0  0
  5 11  1  0  0  0  0
  5 13  1  0  0  0  0
  5 26  1  0  0  0  0
  6  7  1  0  0  0  0
  6 12  2  0  0  0  0
  7 19  2  0  0  0  0
  8  9  1  0  0  0  0
  8 10  1  0  0  0  0
  8 22  1  0  0  0  0
  9 11  1  0  0  0  0
  9 23  1  0  0  0  0
  9 24  1  0  0  0  0
 13 14  2  0  0  0  0
 13 15  1  0  0  0  0
 14 16  1  0  0  0  0
 14 27  1  0  0  0  0
 15 17  2  0  0  0  0
 15 28  1  0  0  0  0
 16 18  2  0  0  0  0
 16 29  1  0  0  0  0
 17 18  1  0  0  0  0
 17 30  1  0  0  0  0
 18 31  1  0  0  0  0
 19 20  1  0  0  0  0
 19 21  1  0  0  0  0
 20 32  1  0  0  0  0
 20 34  1  0  0  0  0
 20 35  1  0  0  0  0
 21 33  1  0  0  0  0
 21 36  1  0  0  0  0
 21 37  1  0  0  0  0
M  END
> <PUBCHEM_COMPOUND_CID>
137241419

> <PUBCHEM_CONFORMER_RMSD>
0.8

> <PUBCHEM_CONFORMER_DIVERSEORDER>
1
11
63
14
59
21
30
50
24
36
7
62
58
61
60
9
19
42
51
66
15
39
28
64
37
16
22
45
46
55
56
6
2
49
29
47
8
38
18
26
68
67
52
35
65
33
17
54
32
44
31
41
48
25
12
10
13
4
34
20
23
53
40
43
27
3
5
57

> <PUBCHEM_MMFF94_PARTIAL_CHARGES>
28
1 -0.37
10 0.57
11 0.57
12 0.65
13 0.12
14 -0.15
15 -0.15
16 -0.15
17 -0.15
18 -0.15
19 0.33
2 -0.57
20 0.06
21 0.06
25 0.37
26 0.37
27 0.15
28 0.15
29 0.15
3 -0.57
30 0.15
31 0.15
4 -0.49
5 -0.55
6 -0.45
7 -0.45
8 0.29
9 0.06

> <PUBCHEM_EFFECTIVE_ROTOR_COUNT>
5.6

> <PUBCHEM_PHARMACOPHORE_FEATURES>
7
1 2 acceptor
1 3 acceptor
1 4 donor
1 5 donor
1 7 acceptor
5 1 4 8 10 12 rings
6 13 14 15 16 17 18 rings

> <PUBCHEM_HEAVY_ATOM_COUNT>
21

> <PUBCHEM_ATOM_DEF_STEREO_COUNT>
0

> <PUBCHEM_ATOM_UDEF_STEREO_COUNT>
1

> <PUBCHEM_BOND_DEF_STEREO_COUNT>
1

> <PUBCHEM_BOND_UDEF_STEREO_COUNT>
0

> <PUBCHEM_ISOTOPIC_ATOM_COUNT>
0

> <PUBCHEM_COMPONENT_COUNT>
1

> <PUBCHEM_CACTVS_TAUTO_COUNT>
-1

> <PUBCHEM_CONFORMER_ID>
082E234B00000001

> <PUBCHEM_MMFF94_ENERGY>
57.6466

> <PUBCHEM_FEATURE_SELFOVERLAP>
35.522

> <PUBCHEM_SHAPE_FINGERPRINT>
10 15 18187091650474964017
10411042 1 17762900266522761775
10493431 412 18408886213955680653
105312 117 17988922296801599502
10912923 1 17822844424908046130
117890 112 18413669123801396432
12107183 9 18262789650134845722
12236239 1 18041276664709229002
12390115 104 18343030982116267723
12596602 18 17240485805933226425
12616971 3 17241037799809625470
13167372 99 18334856108969220432
15238133 3 18410290333470723600
15778101 99 18410295839222911230
16079462 125 17489299837317278176
16120349 189 18262511495220466045
17980427 23 18261673778348378935
20281389 69 18411135827019452960
20621476 21 11963390717457564952
20621476 66 18409169939522004768
20775438 99 9651858796854755245
21033648 29 17703214231090020000
21196832 93 11527073785955559644
21401589 2 18338246972985648083
21421861 104 17823121360188864498
21623969 137 14201392777306381480
21756936 100 18341887515534780119
23522609 53 17604446192736950540
23559900 14 18271541831606442486
268830 7 17604984987588200012
270888 7 18339922598462797945
2748736 6 18338227151390641429
2838139 119 18201427065333769385
2916195 48 18273492377612232857
293599 30 18342176652753998841
312425 54 15719397209258204297
3459 39 18337375063869360929
3472631 163 18410579513027842028
351380 3 9223227442575907769
465052 167 10953750979739278584
5104073 3 17677606631122988176
56616090 284 10592038064202752061
5718773 13 10809929405009613449
59682541 35 18337401504779435321
59682541 52 16343426077115677356
5969126 39 18057315296901597527
6327066 14 18337667521694398837
636775 72 18270956955539597872
7062679 6 18409168813612832348
77188 2 17258776448350257831
7808743 9 18410571782292255329
9981440 41 18335989679877603851

> <PUBCHEM_SHAPE_MULTIPOLES>
404.36
17.36
2.94
1.02
3.76
0.79
0
-15.92
-3.07
-5.12
0.1
1.36
-0.17
-0.55

> <PUBCHEM_SHAPE_SELFOVERLAP>
830.094

> <PUBCHEM_SHAPE_VOLUME>
233.9

> <PUBCHEM_COORDINATE_TYPE>
2
5
10

$$$$
