137246610
  -OEChem-03292013293D

 46 50  0     1  0  0  0  0  0999 V2000
   -2.0876    1.0650    1.9429 O   0  0  0  0  0  0  0  0  0  0  0  0
    1.4202   -1.2991   -2.3825 O   0  0  0  0  0  0  0  0  0  0  0  0
   -4.2259    2.8221   -0.4081 O   0  0  0  0  0  0  0  0  0  0  0  0
   -2.1771    3.8212   -0.4028 O   0  0  0  0  0  0  0  0  0  0  0  0
    3.7881   -1.3543    2.8927 O   0  0  0  0  0  0  0  0  0  0  0  0
   -2.9106   -3.0335    0.4991 N   0  0  0  0  0  0  0  0  0  0  0  0
   -0.9017    1.5483   -0.5424 N   0  0  0  0  0  0  0  0  0  0  0  0
    3.2362    1.9122   -1.4756 N   0  0  0  0  0  0  0  0  0  0  0  0
   -2.7956    0.6290    0.7836 C   0  0  2  0  0  0  0  0  0  0  0  0
   -2.6037   -0.8327    0.5697 C   0  0  0  0  0  0  0  0  0  0  0  0
   -1.5537   -1.4099   -0.2053 C   0  0  0  0  0  0  0  0  0  0  0  0
   -2.3483    1.4093   -0.4640 C   0  0  1  0  0  0  0  0  0  0  0  0
   -0.4362   -0.8745   -0.8794 C   0  0  0  0  0  0  0  0  0  0  0  0
   -0.0851    0.5717   -0.7406 C   0  0  0  0  0  0  0  0  0  0  0  0
   -1.7951   -2.7831   -0.2665 C   0  0  0  0  0  0  0  0  0  0  0  0
   -3.4097   -1.8634    1.0037 C   0  0  0  0  0  0  0  0  0  0  0  0
    1.3554    0.9485   -0.7965 C   0  0  0  0  0  0  0  0  0  0  0  0
    0.3621   -1.7454   -1.6433 C   0  0  0  0  0  0  0  0  0  0  0  0
   -0.9918   -3.6598   -1.0011 C   0  0  0  0  0  0  0  0  0  0  0  0
    2.4077    0.5247    0.0625 C   0  0  0  0  0  0  0  0  0  0  0  0
    0.0845   -3.1113   -1.7006 C   0  0  0  0  0  0  0  0  0  0  0  0
   -2.8706    2.8152   -0.4227 C   0  0  0  0  0  0  0  0  0  0  0  0
    3.5768    1.1435   -0.3854 C   0  0  0  0  0  0  0  0  0  0  0  0
    1.8958    1.8009   -1.7316 C   0  0  0  0  0  0  0  0  0  0  0  0
    2.4780   -0.3285    1.1816 C   0  0  0  0  0  0  0  0  0  0  0  0
   -2.8051    0.7637    3.1298 C   0  0  0  0  0  0  0  0  0  0  0  0
    4.8176    0.9509    0.2323 C   0  0  0  0  0  0  0  0  0  0  0  0
    3.7123   -0.5306    1.8096 C   0  0  0  0  0  0  0  0  0  0  0  0
    4.8630    0.1001    1.3406 C   0  0  0  0  0  0  0  0  0  0  0  0
   -3.8700    0.8066    0.9309 H   0  0  0  0  0  0  0  0  0  0  0  0
   -2.7326    0.9658   -1.3927 H   0  0  0  0  0  0  0  0  0  0  0  0
   -4.3091   -1.8650    1.6035 H   0  0  0  0  0  0  0  0  0  0  0  0
   -3.3187   -3.9467    0.6438 H   0  0  0  0  0  0  0  0  0  0  0  0
   -1.2012   -4.7234   -1.0402 H   0  0  0  0  0  0  0  0  0  0  0  0
    0.7083   -3.7775   -2.2928 H   0  0  0  0  0  0  0  0  0  0  0  0
    1.4498    2.3382   -2.5571 H   0  0  0  0  0  0  0  0  0  0  0  0
    3.8828    2.4765   -2.0093 H   0  0  0  0  0  0  0  0  0  0  0  0
    1.5828   -0.8201    1.5526 H   0  0  0  0  0  0  0  0  0  0  0  0
    5.7138    1.4416   -0.1322 H   0  0  0  0  0  0  0  0  0  0  0  0
   -2.8672   -0.3143    3.2993 H   0  0  0  0  0  0  0  0  0  0  0  0
   -3.8052    1.2081    3.1122 H   0  0  0  0  0  0  0  0  0  0  0  0
   -2.2585    1.1998    3.9711 H   0  0  0  0  0  0  0  0  0  0  0  0
    1.8425   -2.0488   -2.8352 H   0  0  0  0  0  0  0  0  0  0  0  0
    5.8149   -0.0670    1.8393 H   0  0  0  0  0  0  0  0  0  0  0  0
   -4.5875    3.7335   -0.3791 H   0  0  0  0  0  0  0  0  0  0  0  0
    2.9022   -1.7080    3.0828 H   0  0  0  0  0  0  0  0  0  0  0  0
  1  9  1  0  0  0  0
  1 26  1  0  0  0  0
  2 18  1  0  0  0  0
  2 43  1  0  0  0  0
  3 22  1  0  0  0  0
  3 45  1  0  0  0  0
  4 22  2  0  0  0  0
  5 28  1  0  0  0  0
  5 46  1  0  0  0  0
  6 15  1  0  0  0  0
  6 16  1  0  0  0  0
  6 33  1  0  0  0  0
  7 12  1  0  0  0  0
  7 14  2  0  0  0  0
  8 23  1  0  0  0  0
  8 24  1  0  0  0  0
  8 37  1  0  0  0  0
  9 10  1  0  0  0  0
  9 12  1  0  0  0  0
  9 30  1  0  0  0  0
 10 11  1  0  0  0  0
 10 16  2  0  0  0  0
 11 13  1  0  0  0  0
 11 15  2  0  0  0  0
 12 22  1  0  0  0  0
 12 31  1  0  0  0  0
 13 14  1  0  0  0  0
 13 18  2  0  0  0  0
 14 17  1  0  0  0  0
 15 19  1  0  0  0  0
 16 32  1  0  0  0  0
 17 20  1  0  0  0  0
 17 24  2  0  0  0  0
 18 21  1  0  0  0  0
 19 21  2  0  0  0  0
 19 34  1  0  0  0  0
 20 23  2  0  0  0  0
 20 25  1  0  0  0  0
 21 35  1  0  0  0  0
 23 27  1  0  0  0  0
 24 36  1  0  0  0  0
 25 28  2  0  0  0  0
 25 38  1  0  0  0  0
 26 40  1  0  0  0  0
 26 41  1  0  0  0  0
 26 42  1  0  0  0  0
 27 29  2  0  0  0  0
 27 39  1  0  0  0  0
 28 29  1  0  0  0  0
 29 44  1  0  0  0  0
M  END
> <PUBCHEM_COMPOUND_CID>
137246610

> <PUBCHEM_CONFORMER_RMSD>
0.8

> <PUBCHEM_CONFORMER_DIVERSEORDER>
1
4
3
2

> <PUBCHEM_MMFF94_PARTIAL_CHARGES>
39
1 -0.56
10 -0.18
12 0.31
13 0.09
14 0.45
15 -0.15
16 -0.3
17 -0.09
18 0.08
19 -0.15
2 -0.53
21 -0.15
22 0.66
23 -0.15
24 -0.3
25 -0.15
26 0.28
27 -0.15
28 0.08
29 -0.15
3 -0.65
32 0.15
33 0.27
34 0.15
35 0.15
36 0.15
37 0.27
38 0.15
39 0.15
4 -0.57
43 0.45
44 0.15
45 0.5
46 0.45
5 -0.53
6 0.03
7 -0.7
8 0.03
9 0.46

> <PUBCHEM_EFFECTIVE_ROTOR_COUNT>
3.4

> <PUBCHEM_PHARMACOPHORE_FEATURES>
16
1 1 acceptor
1 2 donor
1 3 acceptor
1 4 acceptor
1 5 donor
1 6 cation
1 6 donor
1 7 acceptor
1 8 cation
1 8 donor
3 3 4 22 anion
5 6 10 11 15 16 rings
5 8 17 20 23 24 rings
6 11 13 15 18 19 21 rings
6 20 23 25 27 28 29 rings
7 7 9 10 11 12 13 14 rings

> <PUBCHEM_HEAVY_ATOM_COUNT>
29

> <PUBCHEM_ATOM_DEF_STEREO_COUNT>
2

> <PUBCHEM_ATOM_UDEF_STEREO_COUNT>
0

> <PUBCHEM_BOND_DEF_STEREO_COUNT>
0

> <PUBCHEM_BOND_UDEF_STEREO_COUNT>
0

> <PUBCHEM_ISOTOPIC_ATOM_COUNT>
0

> <PUBCHEM_COMPONENT_COUNT>
1

> <PUBCHEM_CACTVS_TAUTO_COUNT>
-1

> <PUBCHEM_CONFORMER_ID>
082E379200000001

> <PUBCHEM_MMFF94_ENERGY>
79.668

> <PUBCHEM_FEATURE_SELFOVERLAP>
81.495

> <PUBCHEM_SHAPE_FINGERPRINT>
10165383 225 17479510785988993173
10369192 42 15835924817966039224
10764073 3 15149655314544783573
10930396 42 17553725802049870946
11595378 159 18125433366076885456
12156800 1 13341212657033562055
12160290 23 17988083425380134735
12422481 6 18265357061398780179
12553582 1 17978793737483789942
12633257 1 17559685133571251658
12788726 201 18191029095417403966
13004483 165 18192988451382593143
13140716 1 17410506793407931359
133893 2 17554613885575468209
13583140 156 17313110781982626429
13726171 33 18056784210719942048
13965767 371 18195274185401017009
15064986 96 18126556826458894938
15403338 16 17822847727258303763
16752209 62 18270671082003893519
17974551 9 17822566088956648824
19319366 153 17031922988307242148
20587220 46 13630908085516676505
21033648 29 17917414420460884960
23419403 2 16901844745840280244
23559900 14 18195822764240527951
23598288 3 18336540629037966774
23728640 28 18335971000473677545
238918 7 17396959289851534940
25222932 49 17174935293670790467
3493558 16 16114551508912936984
350125 39 18055385524401669271
35225 105 18129924780486638826
352729 6 18409451358458542677
3886686 26 18045778983714672779
484985 159 17170641472851645626
4938544 92 18267563811427201904
5265222 85 17415296194151784876
59444896 2 17615354318478246935
7097593 13 18041271089541043936
90316 7 18195808702744512151
9862522 239 18412539903446932421
9981440 41 18194397797577767969

> <PUBCHEM_SHAPE_MULTIPOLES>
552.52
7.73
3.93
2.28
6.77
0.55
-1.38
-2.46
-4.01
-4.52
1.71
0.88
0.31
-0.79

> <PUBCHEM_SHAPE_SELFOVERLAP>
1257.966

> <PUBCHEM_SHAPE_VOLUME>
286.1

> <PUBCHEM_COORDINATE_TYPE>
2
5
10

$$$$
