137235203
  -OEChem-03292013293D

 27 28  0     1  0  0  0  0  0999 V2000
    3.5026    1.2591   -0.8195 O   0  0  0  0  0  0  0  0  0  0  0  0
   -1.3173    2.6696   -0.2159 O   0  0  0  0  0  0  0  0  0  0  0  0
    0.1647   -1.7744    0.2624 N   0  0  0  0  0  0  0  0  0  0  0  0
    0.7841    0.9163    0.0272 N   0  0  0  0  0  0  0  0  0  0  0  0
   -2.1844   -1.2701    0.1796 N   0  0  0  0  0  0  0  0  0  0  0  0
   -2.8553    0.9639   -0.0666 N   0  0  0  0  0  0  0  0  0  0  0  0
   -4.4596   -0.7205    0.0860 N   0  0  0  0  0  0  0  0  0  0  0  0
    1.5666   -1.4620    0.0961 C   0  0  2  0  0  0  0  0  0  0  0  0
    1.7360    0.0398    0.0775 C   0  0  0  0  0  0  0  0  0  0  0  0
   -0.8659   -0.8532    0.1542 C   0  0  0  0  0  0  0  0  0  0  0  0
   -0.5085    0.4472    0.0266 C   0  0  0  0  0  0  0  0  0  0  0  0
    2.0673   -2.0788   -1.2040 C   0  0  0  0  0  0  0  0  0  0  0  0
    3.1279    0.5700    0.1151 C   0  0  0  0  0  0  0  0  0  0  0  0
   -1.5776    1.4758   -0.0977 C   0  0  0  0  0  0  0  0  0  0  0  0
   -3.1318   -0.3839    0.0713 C   0  0  0  0  0  0  0  0  0  0  0  0
    3.9511    0.2012    1.3078 C   0  0  0  0  0  0  0  0  0  0  0  0
    2.1198   -1.8773    0.9441 H   0  0  0  0  0  0  0  0  0  0  0  0
   -0.1137   -2.7449    0.3651 H   0  0  0  0  0  0  0  0  0  0  0  0
    1.5498   -1.6549   -2.0724 H   0  0  0  0  0  0  0  0  0  0  0  0
    1.9014   -3.1616   -1.2129 H   0  0  0  0  0  0  0  0  0  0  0  0
    3.1391   -1.8998   -1.3390 H   0  0  0  0  0  0  0  0  0  0  0  0
   -3.6339    1.6110   -0.1470 H   0  0  0  0  0  0  0  0  0  0  0  0
    4.3112   -0.8254    1.2098 H   0  0  0  0  0  0  0  0  0  0  0  0
    3.3591    0.3102    2.2203 H   0  0  0  0  0  0  0  0  0  0  0  0
    4.8093    0.8758    1.3757 H   0  0  0  0  0  0  0  0  0  0  0  0
   -4.7557   -1.6856    0.1832 H   0  0  0  0  0  0  0  0  0  0  0  0
   -5.1848   -0.0167    0.0005 H   0  0  0  0  0  0  0  0  0  0  0  0
  1 13  2  0  0  0  0
  2 14  2  0  0  0  0
  3  8  1  0  0  0  0
  3 10  1  0  0  0  0
  3 18  1  0  0  0  0
  4  9  2  0  0  0  0
  4 11  1  0  0  0  0
  5 10  1  0  0  0  0
  5 15  2  0  0  0  0
  6 14  1  0  0  0  0
  6 15  1  0  0  0  0
  6 22  1  0  0  0  0
  7 15  1  0  0  0  0
  7 26  1  0  0  0  0
  7 27  1  0  0  0  0
  8  9  1  0  0  0  0
  8 12  1  0  0  0  0
  8 17  1  0  0  0  0
  9 13  1  0  0  0  0
 10 11  2  0  0  0  0
 11 14  1  0  0  0  0
 12 19  1  0  0  0  0
 12 20  1  0  0  0  0
 12 21  1  0  0  0  0
 13 16  1  0  0  0  0
 16 23  1  0  0  0  0
 16 24  1  0  0  0  0
 16 25  1  0  0  0  0
M  END
> <PUBCHEM_COMPOUND_CID>
137235203

> <PUBCHEM_CONFORMER_RMSD>
0.6

> <PUBCHEM_CONFORMER_DIVERSEORDER>
1
3
4
2

> <PUBCHEM_MMFF94_PARTIAL_CHARGES>
19
1 -0.57
10 0.27
11 0.19
13 0.51
14 0.62
15 0.56
16 0.06
18 0.4
2 -0.57
22 0.37
26 0.4
27 0.4
3 -0.87
4 -0.62
5 -0.62
6 -0.49
7 -0.85
8 0.43
9 0.39

> <PUBCHEM_EFFECTIVE_ROTOR_COUNT>
1.4

> <PUBCHEM_PHARMACOPHORE_FEATURES>
9
1 1 acceptor
1 2 acceptor
1 3 cation
1 3 donor
1 4 acceptor
1 6 donor
1 7 donor
6 3 4 8 9 10 11 rings
6 5 6 10 11 14 15 rings

> <PUBCHEM_HEAVY_ATOM_COUNT>
16

> <PUBCHEM_ATOM_DEF_STEREO_COUNT>
0

> <PUBCHEM_ATOM_UDEF_STEREO_COUNT>
1

> <PUBCHEM_BOND_DEF_STEREO_COUNT>
0

> <PUBCHEM_BOND_UDEF_STEREO_COUNT>
0

> <PUBCHEM_ISOTOPIC_ATOM_COUNT>
0

> <PUBCHEM_COMPONENT_COUNT>
1

> <PUBCHEM_CACTVS_TAUTO_COUNT>
-1

> <PUBCHEM_CONFORMER_ID>
082E0B0300000001

> <PUBCHEM_MMFF94_ENERGY>
42.061

> <PUBCHEM_FEATURE_SELFOVERLAP>
45.756

> <PUBCHEM_SHAPE_FINGERPRINT>
10608611 8 18340202973352608016
107287 299 17988647389140983766
10967382 1 18410013277197338599
11132069 177 18342734160799285346
12251169 10 18187635925831201080
12932764 1 17131822149427214725
13140716 1 18123746723281049224
13380535 21 18270131101540793640
13380535 76 18410572907331372986
14252887 29 18341907306934172539
14614273 12 18041832909802132565
15219456 202 18272088240965326078
15536298 74 18271528597946903062
16945 1 18341894129515162998
17846911 113 18410287047013263448
18186145 218 18267308616511070397
20510252 161 18342175527504547457
20588541 1 18340772636318762123
20645477 70 18272086033732223839
21501502 16 18339646611768015195
21524375 3 18341328972471024978
21618674 68 18413111645277575431
22344851 341 18265329495707934306
22802520 49 18127417739203194103
2334 1 18339080376191070584
23402539 116 18337657711261048839
23463225 33 18260823791862787776
23557571 272 18341060644077743861
23559900 14 18267019453907241022
2748010 2 18266743476108471422
5104073 3 18339925909613227467
537710 114 18334862770057275709
53812653 166 18201431510730058912
58051976 378 18411416198347772108
7364860 26 18128534869283093006
81228 2 18262249815399817057
9709674 26 18411141307466456599

> <PUBCHEM_SHAPE_MULTIPOLES>
292.63
6.46
2.1
0.84
0.87
0.18
0
0.37
-0.73
0.05
0.45
-0.76
-0.11
0.42

> <PUBCHEM_SHAPE_SELFOVERLAP>
626.234

> <PUBCHEM_SHAPE_VOLUME>
160.1

> <PUBCHEM_COORDINATE_TYPE>
2
5
10

$$$$
