137239458
  -OEChem-03292013293D

 36 38  0     1  0  0  0  0  0999 V2000
    2.3244   -0.3174   -1.0344 O   0  0  0  0  0  0  0  0  0  0  0  0
    1.3883    2.1639    1.4041 O   0  0  0  0  0  0  0  0  0  0  0  0
    3.6106    2.2998   -0.2131 O   0  0  0  0  0  0  0  0  0  0  0  0
    4.3115   -2.2617   -0.6179 O   0  5  0  0  0  0  0  0  0  0  0  0
   -4.3536   -1.5323    0.3065 O   0  0  0  0  0  0  0  0  0  0  0  0
    0.0411   -0.2890   -0.1722 N   0  3  0  0  0  0  0  0  0  0  0  0
   -1.3061   -1.9399    0.1875 N   0  0  0  0  0  0  0  0  0  0  0  0
   -1.5855    1.5429   -0.3783 N   0  0  0  0  0  0  0  0  0  0  0  0
   -3.8032    0.6750   -0.0964 N   0  0  0  0  0  0  0  0  0  0  0  0
   -3.4488    2.9599   -0.5012 N   0  0  0  0  0  0  0  0  0  0  0  0
    1.3197    0.4868   -0.3825 C   0  0  1  0  0  0  0  0  0  0  0  0
    1.9510    0.9597    0.9228 C   0  0  1  0  0  0  0  0  0  0  0  0
    3.4091    1.1009    0.5340 C   0  0  1  0  0  0  0  0  0  0  0  0
    3.6054   -0.0791   -0.4093 C   0  0  1  0  0  0  0  0  0  0  0  0
   -1.2321    0.2456   -0.1826 C   0  0  0  0  0  0  0  0  0  0  0  0
    4.0299   -1.3530    0.3085 C   0  0  0  0  0  0  0  0  0  0  0  0
   -0.0189   -1.6061    0.0518 C   0  0  0  0  0  0  0  0  0  0  0  0
   -2.0828   -0.8155    0.0475 C   0  0  0  0  0  0  0  0  0  0  0  0
   -3.4929   -0.6780    0.1109 C   0  0  0  0  0  0  0  0  0  0  0  0
   -1.7818   -3.2840    0.4427 C   0  0  0  0  0  0  0  0  0  0  0  0
   -2.8852    1.7216   -0.3283 C   0  0  0  0  0  0  0  0  0  0  0  0
    1.0839    1.3268   -1.0474 H   0  0  0  0  0  0  0  0  0  0  0  0
    1.8321    0.1918    1.6961 H   0  0  0  0  0  0  0  0  0  0  0  0
    4.0851    1.1268    1.3933 H   0  0  0  0  0  0  0  0  0  0  0  0
    4.3128    0.1846   -1.2082 H   0  0  0  0  0  0  0  0  0  0  0  0
    4.8492   -1.0605    0.9848 H   0  0  0  0  0  0  0  0  0  0  0  0
    3.2322   -1.5992    1.0271 H   0  0  0  0  0  0  0  0  0  0  0  0
    0.8204   -2.2801    0.1155 H   0  0  0  0  0  0  0  0  0  0  0  0
    1.9150    2.4451    2.1716 H   0  0  0  0  0  0  0  0  0  0  0  0
    4.5512    2.3359   -0.4574 H   0  0  0  0  0  0  0  0  0  0  0  0
   -2.3281   -3.3018    1.3896 H   0  0  0  0  0  0  0  0  0  0  0  0
   -2.4371   -3.5980   -0.3742 H   0  0  0  0  0  0  0  0  0  0  0  0
   -0.9363   -3.9745    0.5064 H   0  0  0  0  0  0  0  0  0  0  0  0
   -4.7881    0.9245   -0.0776 H   0  0  0  0  0  0  0  0  0  0  0  0
   -2.8749    3.7781   -0.6736 H   0  0  0  0  0  0  0  0  0  0  0  0
   -4.4531    3.0945   -0.4619 H   0  0  0  0  0  0  0  0  0  0  0  0
  1 11  1  0  0  0  0
  1 14  1  0  0  0  0
  2 12  1  0  0  0  0
  2 29  1  0  0  0  0
  3 13  1  0  0  0  0
  3 30  1  0  0  0  0
  4 16  1  0  0  0  0
  5 19  2  0  0  0  0
  6 11  1  0  0  0  0
  6 15  1  0  0  0  0
  6 17  2  0  0  0  0
  7 17  1  0  0  0  0
  7 18  1  0  0  0  0
  7 20  1  0  0  0  0
  8 15  1  0  0  0  0
  8 21  2  0  0  0  0
  9 19  1  0  0  0  0
  9 21  1  0  0  0  0
  9 34  1  0  0  0  0
 10 21  1  0  0  0  0
 10 35  1  0  0  0  0
 10 36  1  0  0  0  0
 11 12  1  0  0  0  0
 11 22  1  0  0  0  0
 12 13  1  0  0  0  0
 12 23  1  0  0  0  0
 13 14  1  0  0  0  0
 13 24  1  0  0  0  0
 14 16  1  0  0  0  0
 14 25  1  0  0  0  0
 15 18  2  0  0  0  0
 16 26  1  0  0  0  0
 16 27  1  0  0  0  0
 17 28  1  0  0  0  0
 18 19  1  0  0  0  0
 20 31  1  0  0  0  0
 20 32  1  0  0  0  0
 20 33  1  0  0  0  0
M  CHG  2   4  -1   6   1
M  END
> <PUBCHEM_COMPOUND_CID>
137239458

> <PUBCHEM_CONFORMER_RMSD>
0.6

> <PUBCHEM_CONFORMER_DIVERSEORDER>
1
10
14
15
7
16
11
6
5
3
13
4
12
2
9
8

> <PUBCHEM_MMFF94_PARTIAL_CHARGES>
27
1 -0.56
10 -0.85
11 0.79
12 0.28
13 0.28
14 0.28
15 0.49
16 -0.07
17 0.65
18 0.28
19 0.7
2 -0.68
20 0.51
21 0.56
28 0.15
29 0.4
3 -0.68
30 0.4
34 0.37
35 0.4
36 0.4
4 -0.93
5 -0.57
6 -0.76
7 -0.76
8 -0.59
9 -0.49

> <PUBCHEM_EFFECTIVE_ROTOR_COUNT>
3

> <PUBCHEM_PHARMACOPHORE_FEATURES>
13
1 1 acceptor
1 10 donor
1 2 acceptor
1 2 donor
1 3 acceptor
1 3 donor
1 4 acceptor
1 5 acceptor
1 9 donor
3 6 7 17 cation
5 1 11 12 13 14 rings
5 6 7 15 17 18 rings
6 8 9 15 18 19 21 rings

> <PUBCHEM_HEAVY_ATOM_COUNT>
21

> <PUBCHEM_ATOM_DEF_STEREO_COUNT>
4

> <PUBCHEM_ATOM_UDEF_STEREO_COUNT>
0

> <PUBCHEM_BOND_DEF_STEREO_COUNT>
0

> <PUBCHEM_BOND_UDEF_STEREO_COUNT>
0

> <PUBCHEM_ISOTOPIC_ATOM_COUNT>
0

> <PUBCHEM_COMPONENT_COUNT>
1

> <PUBCHEM_CACTVS_TAUTO_COUNT>
-1

> <PUBCHEM_CONFORMER_ID>
082E1BA200000001

> <PUBCHEM_MMFF94_ENERGY>
53.1239

> <PUBCHEM_FEATURE_SELFOVERLAP>
66.162

> <PUBCHEM_SHAPE_FINGERPRINT>
10366900 7 18055629766164160400
10608611 8 18340766035017455000
10616163 171 18266180728477799638
10646746 165 18410009910022314324
1100329 8 16468119238469007120
12173636 292 18408036304115201525
12403259 226 18341327872800940185
12403259 415 18411981342971537077
12403260 363 18411971447472187399
12500047 106 18409164403050359750
12507560 40 18412821400394429328
12553582 1 17398966353511997307
13134695 92 17274246259130040160
13140716 1 18118964694420768987
13464514 151 17910111309410004501
13675066 3 18201428156529399010
14178342 30 18190168174061369554
14223421 5 18196085771079359408
14866123 147 16903287300933498962
15042514 8 18262245533760852939
15196674 1 18410575076083706837
15219456 202 18343862238323222596
15442244 35 18409165489756213276
16752209 62 18334283267510762219
16945 1 18335419131789106775
17804303 29 18410016511513687830
18186145 218 18200883885009108624
19049666 15 18341890818385508864
19591789 44 18409448059717950163
20510252 161 18412265064601187745
20645477 70 17704081711357234526
21279426 13 18051695438961899582
21524375 3 18339920399222829543
23402539 116 18340762762917202455
23559900 14 18342737369894151358
2748010 2 18263088730218990311
3004659 81 18044103359176895414
3084891 72 18125998261286351856
335352 9 18194401091505778604
350125 39 18336551504222077587
4214541 1 18409449167866582492
5104073 3 18410856555350156400
59755656 215 18263643970669393519
69090 78 18272930570014981127
7364860 26 17834391229408001143
81228 2 18116708719693182467
9709674 26 18411984688978063558

> <PUBCHEM_SHAPE_MULTIPOLES>
377.92
8.22
3.07
0.83
1.94
0.41
-0.1
0.05
0.4
-1.21
-0.19
0.41
-0.17
1.07

> <PUBCHEM_SHAPE_SELFOVERLAP>
818.866

> <PUBCHEM_SHAPE_VOLUME>
206.2

> <PUBCHEM_COORDINATE_TYPE>
2
5
10

$$$$
