137274215
  -OEChem-03292013293D

 32 34  0     1  0  0  0  0  0999 V2000
    2.2206   -1.9162   -1.2291 F   0  0  0  0  0  0  0  0  0  0  0  0
    2.2091    0.3027    0.9884 O   0  0  0  0  0  0  0  0  0  0  0  0
    2.5370    1.5465   -1.7715 O   0  0  0  0  0  0  0  0  0  0  0  0
    4.7477   -0.3767    1.9952 O   0  0  0  0  0  0  0  0  0  0  0  0
   -4.4050    1.7387    0.0926 O   0  0  0  0  0  0  0  0  0  0  0  0
   -0.0919    0.3969    0.1985 N   0  0  0  0  0  0  0  0  0  0  0  0
   -1.4663    2.1611    0.1908 N   0  0  0  0  0  0  0  0  0  0  0  0
   -1.6948   -1.4150    0.1146 N   0  0  0  0  0  0  0  0  0  0  0  0
   -3.9273   -0.5469    0.0631 N   0  0  0  0  0  0  0  0  0  0  0  0
   -3.5386   -2.8689    0.0297 N   0  0  0  0  0  0  0  0  0  0  0  0
    1.2026   -0.3848    0.2225 C   0  0  1  0  0  0  0  0  0  0  0  0
    2.9684    0.2934   -1.2523 C   0  0  2  0  0  0  0  0  0  0  0  0
    1.7770   -0.6291   -1.1689 C   0  0  1  0  0  0  0  0  0  0  0  0
    3.4006    0.4496    0.1970 C   0  0  2  0  0  0  0  0  0  0  0  0
    4.3991   -0.6124    0.6406 C   0  0  0  0  0  0  0  0  0  0  0  0
   -1.3584   -0.1066    0.1502 C   0  0  0  0  0  0  0  0  0  0  0  0
   -0.2089    1.7653    0.2215 C   0  0  0  0  0  0  0  0  0  0  0  0
   -2.1759    0.9976    0.1465 C   0  0  0  0  0  0  0  0  0  0  0  0
   -3.6003    0.8158    0.0995 C   0  0  0  0  0  0  0  0  0  0  0  0
   -2.9947   -1.6111    0.0711 C   0  0  0  0  0  0  0  0  0  0  0  0
    0.9657   -1.3213    0.7393 H   0  0  0  0  0  0  0  0  0  0  0  0
    3.7623   -0.0897   -1.9004 H   0  0  0  0  0  0  0  0  0  0  0  0
    1.0481   -0.4928   -1.9734 H   0  0  0  0  0  0  0  0  0  0  0  0
    3.8007    1.4475    0.4081 H   0  0  0  0  0  0  0  0  0  0  0  0
    5.3090   -0.5697    0.0340 H   0  0  0  0  0  0  0  0  0  0  0  0
    3.9719   -1.6182    0.5814 H   0  0  0  0  0  0  0  0  0  0  0  0
    0.6505    2.4204    0.2605 H   0  0  0  0  0  0  0  0  0  0  0  0
    3.3055    2.1423   -1.7697 H   0  0  0  0  0  0  0  0  0  0  0  0
    5.3880   -1.0628    2.2497 H   0  0  0  0  0  0  0  0  0  0  0  0
   -4.9134   -0.7892    0.0282 H   0  0  0  0  0  0  0  0  0  0  0  0
   -2.9508   -3.6953    0.0315 H   0  0  0  0  0  0  0  0  0  0  0  0
   -4.5422   -3.0103   -0.0039 H   0  0  0  0  0  0  0  0  0  0  0  0
  1 13  1  0  0  0  0
  2 11  1  0  0  0  0
  2 14  1  0  0  0  0
  3 12  1  0  0  0  0
  3 28  1  0  0  0  0
  4 15  1  0  0  0  0
  4 29  1  0  0  0  0
  5 19  2  0  0  0  0
  6 11  1  0  0  0  0
  6 16  1  0  0  0  0
  6 17  1  0  0  0  0
  7 17  2  0  0  0  0
  7 18  1  0  0  0  0
  8 16  1  0  0  0  0
  8 20  2  0  0  0  0
  9 19  1  0  0  0  0
  9 20  1  0  0  0  0
  9 30  1  0  0  0  0
 10 20  1  0  0  0  0
 10 31  1  0  0  0  0
 10 32  1  0  0  0  0
 11 13  1  0  0  0  0
 11 21  1  0  0  0  0
 12 13  1  0  0  0  0
 12 14  1  0  0  0  0
 12 22  1  0  0  0  0
 13 23  1  0  0  0  0
 14 15  1  0  0  0  0
 14 24  1  0  0  0  0
 15 25  1  0  0  0  0
 15 26  1  0  0  0  0
 16 18  2  0  0  0  0
 17 27  1  0  0  0  0
 18 19  1  0  0  0  0
M  END
> <PUBCHEM_COMPOUND_CID>
137274215

> <PUBCHEM_CONFORMER_RMSD>
0.6

> <PUBCHEM_CONFORMER_DIVERSEORDER>
3
29
22
13
18
25
27
16
2
6
7
28
12
5
14
1
8
20
17
26
10
9
4
19
21
30
23
24
11
31
15

> <PUBCHEM_MMFF94_PARTIAL_CHARGES>
26
1 -0.34
10 -0.85
11 0.54
12 0.28
13 0.34
14 0.28
15 0.28
16 -0.03
17 0.04
18 0.14
19 0.72
2 -0.56
20 0.56
27 0.15
28 0.4
29 0.4
3 -0.68
30 0.37
31 0.4
32 0.4
4 -0.68
5 -0.57
6 0.05
7 -0.57
8 -0.58
9 -0.49

> <PUBCHEM_EFFECTIVE_ROTOR_COUNT>
3

> <PUBCHEM_PHARMACOPHORE_FEATURES>
12
1 10 donor
1 2 acceptor
1 3 acceptor
1 3 donor
1 4 acceptor
1 4 donor
1 5 acceptor
1 9 donor
3 6 7 17 cation
5 2 11 12 13 14 rings
5 6 7 16 17 18 rings
6 8 9 16 18 19 20 rings

> <PUBCHEM_HEAVY_ATOM_COUNT>
20

> <PUBCHEM_ATOM_DEF_STEREO_COUNT>
3

> <PUBCHEM_ATOM_UDEF_STEREO_COUNT>
1

> <PUBCHEM_BOND_DEF_STEREO_COUNT>
0

> <PUBCHEM_BOND_UDEF_STEREO_COUNT>
0

> <PUBCHEM_ISOTOPIC_ATOM_COUNT>
0

> <PUBCHEM_COMPONENT_COUNT>
1

> <PUBCHEM_CACTVS_TAUTO_COUNT>
-1

> <PUBCHEM_CONFORMER_ID>
082EA36700000003

> <PUBCHEM_MMFF94_ENERGY>
43.325

> <PUBCHEM_FEATURE_SELFOVERLAP>
61.08

> <PUBCHEM_SHAPE_FINGERPRINT>
10062212 137 18187363246562527155
10616163 171 18412552023950695319
11132069 177 18341054034191750681
12173636 292 18196374719684728813
12236239 1 17748826306341222704
12553582 1 18125732433166294223
12892183 10 18267845273603270402
13134695 92 15791447128542488670
13140716 1 18341612676467340217
13214271 11 18201993348128740149
13296908 3 17632587062508196911
13544592 145 18058180418508189799
14115302 16 18335988592470038628
14178342 30 18272942591385394898
15099037 37 18342731953075513722
15219456 202 17989207010241504022
15375358 24 17988920054918133185
16945 1 18342471317401585409
17492 89 18334018315242240522
17862501 102 18041270002993387738
17980427 23 18336256933885300876
18186145 218 13190335777289081341
19050596 39 18334295366074809064
200 152 16732978717398734040
20279233 1 17989207031732008783
204376 136 16343409705164262650
20510252 161 18057887931462776921
20600515 1 18342736299656809704
20626108 58 18189046646046008256
20645477 70 16414918530761542772
21069387 34 17023182755819823514
21728266 224 18335404794719183987
23366157 5 17898852614999854869
23402539 116 18408595959759926718
23557571 272 18201728344346269934
23559900 14 18271253707708913086
474 4 17024607808957865052
495365 180 17059201541143211835
5104073 3 18410856598305377025
573450 72 18261385654725448122
67856867 119 18187645877339647252
77492 1 17749112205134163620
81228 2 18268727038230299049
9709674 26 18200880582226893559
9981440 41 17102291702901085344

> <PUBCHEM_SHAPE_MULTIPOLES>
355.93
8.61
2.11
1.17
1.11
0.53
0.09
1.24
-1.73
-2.3
0.22
1.85
0
-0.34

> <PUBCHEM_SHAPE_SELFOVERLAP>
775.572

> <PUBCHEM_SHAPE_VOLUME>
194.7

> <PUBCHEM_COORDINATE_TYPE>
2
5
10

$$$$
