137250088
  -OEChem-03292013293D

 49 51  0     0  0  0  0  0  0999 V2000
   -2.7653    0.1899    2.4084 O   0  0  0  0  0  0  0  0  0  0  0  0
   -2.4897    1.6042   -2.1695 O   0  0  0  0  0  0  0  0  0  0  0  0
   -6.7282    1.2041   -0.0324 O   0  0  0  0  0  0  0  0  0  0  0  0
    2.2436   -6.3898    0.2988 O   0  0  0  0  0  0  0  0  0  0  0  0
   -0.4191    1.8522   -0.1055 N   0  0  0  0  0  0  0  0  0  0  0  0
    0.9219    1.7465   -0.0430 N   0  0  0  0  0  0  0  0  0  0  0  0
    5.8820    2.4654    0.3461 N   0  0  0  0  0  0  0  0  0  0  0  0
   -0.5160   -0.5941    0.4995 C   0  0  0  0  0  0  0  0  0  0  0  0
   -0.2122   -1.4026   -0.7676 C   0  0  0  0  0  0  0  0  0  0  0  0
   -1.1066    0.7831    0.1757 C   0  0  0  0  0  0  0  0  0  0  0  0
    0.4424   -2.7325   -0.4814 C   0  0  0  0  0  0  0  0  0  0  0  0
   -2.5918    0.8942    0.1207 C   0  0  0  0  0  0  0  0  0  0  0  0
   -3.3562    0.5900    1.2471 C   0  0  0  0  0  0  0  0  0  0  0  0
   -3.2175    1.3022   -1.0573 C   0  0  0  0  0  0  0  0  0  0  0  0
    1.8328   -2.8268   -0.4225 C   0  0  0  0  0  0  0  0  0  0  0  0
   -0.3429   -3.8672   -0.2781 C   0  0  0  0  0  0  0  0  0  0  0  0
   -4.7462    0.6936    1.1955 C   0  0  0  0  0  0  0  0  0  0  0  0
   -4.6075    1.4060   -1.1089 C   0  0  0  0  0  0  0  0  0  0  0  0
    1.6554    2.9832   -0.2586 C   0  0  0  0  0  0  0  0  0  0  0  0
    2.4380   -4.0558   -0.1599 C   0  0  0  0  0  0  0  0  0  0  0  0
    0.2623   -5.0963   -0.0158 C   0  0  0  0  0  0  0  0  0  0  0  0
   -5.3719    1.1018    0.0176 C   0  0  0  0  0  0  0  0  0  0  0  0
    1.6527   -5.1906    0.0433 C   0  0  0  0  0  0  0  0  0  0  0  0
    3.1349    2.8017   -0.0468 C   0  0  0  0  0  0  0  0  0  0  0  0
    3.6505    2.7165    1.2418 C   0  0  0  0  0  0  0  0  0  0  0  0
    3.9913    2.7189   -1.1392 C   0  0  0  0  0  0  0  0  0  0  0  0
    5.0188    2.5499    1.3831 C   0  0  0  0  0  0  0  0  0  0  0  0
    5.3443    2.5522   -0.8913 C   0  0  0  0  0  0  0  0  0  0  0  0
   -1.2124   -1.1717    1.1152 H   0  0  0  0  0  0  0  0  0  0  0  0
    0.3847   -0.4689    1.1118 H   0  0  0  0  0  0  0  0  0  0  0  0
    0.4249   -0.8282   -1.4511 H   0  0  0  0  0  0  0  0  0  0  0  0
   -1.1419   -1.5691   -1.3280 H   0  0  0  0  0  0  0  0  0  0  0  0
    2.4546   -1.9489   -0.5774 H   0  0  0  0  0  0  0  0  0  0  0  0
   -1.4271   -3.8055   -0.3201 H   0  0  0  0  0  0  0  0  0  0  0  0
   -5.3433    0.4569    2.0729 H   0  0  0  0  0  0  0  0  0  0  0  0
   -5.1031    1.7235   -2.0230 H   0  0  0  0  0  0  0  0  0  0  0  0
    1.2982    3.7602    0.4298 H   0  0  0  0  0  0  0  0  0  0  0  0
    1.4631    3.3599   -1.2712 H   0  0  0  0  0  0  0  0  0  0  0  0
    1.2517    1.0277   -0.6855 H   0  0  0  0  0  0  0  0  0  0  0  0
    3.5216   -4.1228   -0.1148 H   0  0  0  0  0  0  0  0  0  0  0  0
   -0.3607   -5.9728    0.1411 H   0  0  0  0  0  0  0  0  0  0  0  0
   -3.4534    0.0220    3.0749 H   0  0  0  0  0  0  0  0  0  0  0  0
   -3.0948    1.8654   -2.8847 H   0  0  0  0  0  0  0  0  0  0  0  0
    3.0112    2.7776    2.1159 H   0  0  0  0  0  0  0  0  0  0  0  0
    3.6243    2.7794   -2.1580 H   0  0  0  0  0  0  0  0  0  0  0  0
   -7.0956    0.9564    0.8335 H   0  0  0  0  0  0  0  0  0  0  0  0
    5.4708    2.4779    2.3669 H   0  0  0  0  0  0  0  0  0  0  0  0
    6.0542    2.4814   -1.7089 H   0  0  0  0  0  0  0  0  0  0  0  0
    1.5517   -7.0639    0.4130 H   0  0  0  0  0  0  0  0  0  0  0  0
  1 13  1  0  0  0  0
  1 42  1  0  0  0  0
  2 14  1  0  0  0  0
  2 43  1  0  0  0  0
  3 22  1  0  0  0  0
  3 46  1  0  0  0  0
  4 23  1  0  0  0  0
  4 49  1  0  0  0  0
  5  6  1  0  0  0  0
  5 10  2  3  0  0  0
  6 19  1  0  0  0  0
  6 39  1  0  0  0  0
  7 27  2  0  0  0  0
  7 28  1  0  0  0  0
  8  9  1  0  0  0  0
  8 10  1  0  0  0  0
  8 29  1  0  0  0  0
  8 30  1  0  0  0  0
  9 11  1  0  0  0  0
  9 31  1  0  0  0  0
  9 32  1  0  0  0  0
 10 12  1  0  0  0  0
 11 15  2  0  0  0  0
 11 16  1  0  0  0  0
 12 13  2  0  0  0  0
 12 14  1  0  0  0  0
 13 17  1  0  0  0  0
 14 18  2  0  0  0  0
 15 20  1  0  0  0  0
 15 33  1  0  0  0  0
 16 21  2  0  0  0  0
 16 34  1  0  0  0  0
 17 22  2  0  0  0  0
 17 35  1  0  0  0  0
 18 22  1  0  0  0  0
 18 36  1  0  0  0  0
 19 24  1  0  0  0  0
 19 37  1  0  0  0  0
 19 38  1  0  0  0  0
 20 23  2  0  0  0  0
 20 40  1  0  0  0  0
 21 23  1  0  0  0  0
 21 41  1  0  0  0  0
 24 25  2  0  0  0  0
 24 26  1  0  0  0  0
 25 27  1  0  0  0  0
 25 44  1  0  0  0  0
 26 28  2  0  0  0  0
 26 45  1  0  0  0  0
 27 47  1  0  0  0  0
 28 48  1  0  0  0  0
M  END
> <PUBCHEM_COMPOUND_CID>
137250088

> <PUBCHEM_CONFORMER_RMSD>
0.8

> <PUBCHEM_CONFORMER_DIVERSEORDER>
1
190
183
135
177
60
114
193
148
121
176
22
219
122
77
196
137
12
136
225
178
173
123
14
143
119
116
141
226
80
25
94
215
75
113
59
87
48
43
98
9
132
74
7
46
88
13
104
145
228
23
203
154
39
102
118
181
50
214
212
124
166
66
31
63
220
111
207
96
8
73
70
185
67
222
27
65
205
56
64
227
53
131
28
108
197
218
146
89
144
16
184
29
171
82
151
186
160
200
155
195
30
36
47
93
125
83
192
159
147
179
138
38
152
109
224
52
163
194
210
99
128
55
161
165
167
217
117
134
92
199
182
106
11
84
49
208
204
44
45
42
68
175
213
221
202
198
162
35
18
187
76
79
156
223
100
54
72
120
101
140
97
209
149
158
91
21
174
85
201
34
115
58
170
189
103
81
130
6
180
164
110
61
153
206
10
172
5
126
211
90
3
32
169
129
105
139
127
62
69
150
33
86
142
133
41
15
216
78
157
191
112
26
107
37
24
95
188
20
71
2
17
168
4
19
51
40
57

> <PUBCHEM_MMFF94_PARTIAL_CHARGES>
43
1 -0.53
10 0.3
11 -0.14
12 0.09
13 0.08
14 0.08
15 -0.15
16 -0.15
17 -0.15
18 -0.15
19 0.41
2 -0.53
20 -0.15
21 -0.15
22 0.08
23 0.08
24 -0.14
25 -0.15
26 -0.15
27 0.16
28 0.16
3 -0.53
33 0.15
34 0.15
35 0.15
36 0.15
39 0.36
4 -0.53
40 0.15
41 0.15
42 0.45
43 0.45
44 0.15
45 0.15
46 0.45
47 0.15
48 0.15
49 0.45
5 -0.5
6 -0.58
7 -0.62
8 0.06
9 0.14

> <PUBCHEM_EFFECTIVE_ROTOR_COUNT>
7

> <PUBCHEM_PHARMACOPHORE_FEATURES>
10
1 1 donor
1 2 donor
1 3 donor
1 4 donor
1 5 acceptor
1 6 donor
1 7 acceptor
6 11 15 16 20 21 23 rings
6 12 13 14 17 18 22 rings
6 7 24 25 26 27 28 rings

> <PUBCHEM_HEAVY_ATOM_COUNT>
28

> <PUBCHEM_ATOM_DEF_STEREO_COUNT>
0

> <PUBCHEM_ATOM_UDEF_STEREO_COUNT>
0

> <PUBCHEM_BOND_DEF_STEREO_COUNT>
0

> <PUBCHEM_BOND_UDEF_STEREO_COUNT>
1

> <PUBCHEM_ISOTOPIC_ATOM_COUNT>
0

> <PUBCHEM_COMPONENT_COUNT>
1

> <PUBCHEM_CACTVS_TAUTO_COUNT>
-1

> <PUBCHEM_CONFORMER_ID>
082E452800000001

> <PUBCHEM_MMFF94_ENERGY>
81.4577

> <PUBCHEM_FEATURE_SELFOVERLAP>
50.749

> <PUBCHEM_SHAPE_FINGERPRINT>
10258939 38 15365649215534326090
11014199 57 17185882692946410542
11135926 11 18338791347569965495
11297750 10 17681837298347789093
11488393 25 18262803943152419320
11524674 6 18336827601446546865
11763715 3 16670198549247094563
12597179 24 18333734649915773587
12788726 201 17327741111909774912
12977781 61 18041862661579013651
13540713 4 17969785169174081917
13540713 5 17915744168321137793
13968360 50 18410847785649448965
14866123 147 18052261996666932098
15219462 58 17977985369627209625
15230672 131 18336273440267129980
15439362 3 18337948966363991861
15927050 60 18342457083985780303
17913733 40 18341065094080789201
1813 80 17698728000099657671
18915476 22 18408606929396843353
20101258 96 17332245299388729586
21033648 29 18269823358497797609
21120745 212 16823357778670466805
21792938 169 18338498765349079463
21796203 349 17692290385178687027
23559900 14 18046624500071951003
249999 5 18339924818548972107
3027735 51 18055066833306589398
38695281 34 18410293644225701752
4017518 198 18339647836672575390
508706 21 17981340190040633982
5171179 24 18048598110469690989
5309563 4 17907297654675156398
532947 4 18412550881620860636
5385378 56 18411990130838894753
563151 74 18126599810870746209
6669772 16 18413111671369256254
6673363 416 17548428008317797086
6679774 75 18187356628704383154
79837 15 18196377145829151850
9961470 85 18342450492070271730

> <PUBCHEM_SHAPE_MULTIPOLES>
537.81
11.44
8.06
1.36
2.34
19.24
0.2
-16.54
0.97
-9.69
-0.22
0.58
-0.94
0.58

> <PUBCHEM_SHAPE_SELFOVERLAP>
1156.348

> <PUBCHEM_SHAPE_VOLUME>
294.1

> <PUBCHEM_COORDINATE_TYPE>
2
5
10

$$$$
