137207468
  -OEChem-03292013293D

 42 41  0     0  0  0  0  0  0999 V2000
   -7.5986   -1.5715    0.7601 O   0  0  0  0  0  0  0  0  0  0  0  0
    7.6042   -1.5581   -0.7616 O   0  0  0  0  0  0  0  0  0  0  0  0
    0.0000    0.7396   -0.0126 N   0  0  0  0  0  0  0  0  0  0  0  0
   -3.6236   -0.0667   -0.0653 N   0  0  0  0  0  0  0  0  0  0  0  0
    3.6296   -0.0723    0.0565 N   0  0  0  0  0  0  0  0  0  0  0  0
    6.5005   -0.7277   -0.9671 N   0  0  0  0  0  0  0  0  0  0  0  0
   -6.4931   -0.7445    0.9703 N   0  0  0  0  0  0  0  0  0  0  0  0
   -1.2003   -0.0864   -0.0251 C   0  0  0  0  0  0  0  0  0  0  0  0
    1.1997   -0.0862   -0.0041 C   0  0  0  0  0  0  0  0  0  0  0  0
    2.4452    0.7882    0.0188 C   0  0  0  0  0  0  0  0  0  0  0  0
   -2.4460    0.7881   -0.0232 C   0  0  0  0  0  0  0  0  0  0  0  0
   -4.7740    0.5103   -0.0909 C   0  0  0  0  0  0  0  0  0  0  0  0
    4.7727    0.5093    0.1009 C   0  0  0  0  0  0  0  0  0  0  0  0
   -5.9676   -0.3943   -0.1592 C   0  0  0  0  0  0  0  0  0  0  0  0
    5.9657   -0.3964    0.1638 C   0  0  0  0  0  0  0  0  0  0  0  0
    5.0512    1.9832    0.1249 C   0  0  0  0  0  0  0  0  0  0  0  0
   -5.0526    1.9845   -0.0879 C   0  0  0  0  0  0  0  0  0  0  0  0
   -6.4406   -0.7871   -1.5274 C   0  0  0  0  0  0  0  0  0  0  0  0
    6.4275   -0.8121    1.5291 C   0  0  0  0  0  0  0  0  0  0  0  0
    1.2273   -0.7342   -0.8892 H   0  0  0  0  0  0  0  0  0  0  0  0
    1.2039   -0.7383    0.8782 H   0  0  0  0  0  0  0  0  0  0  0  0
   -1.2108   -0.7319   -0.9125 H   0  0  0  0  0  0  0  0  0  0  0  0
   -1.2207   -0.7410    0.8552 H   0  0  0  0  0  0  0  0  0  0  0  0
    0.0072    1.3516   -0.8281 H   0  0  0  0  0  0  0  0  0  0  0  0
   -2.4529    1.4057    0.8835 H   0  0  0  0  0  0  0  0  0  0  0  0
    2.4640    1.4194   -0.8783 H   0  0  0  0  0  0  0  0  0  0  0  0
    2.4185    1.4364    0.9037 H   0  0  0  0  0  0  0  0  0  0  0  0
   -2.4257    1.4517   -0.8968 H   0  0  0  0  0  0  0  0  0  0  0  0
   -4.5969    2.4489    0.7902 H   0  0  0  0  0  0  0  0  0  0  0  0
   -6.1296    2.1724   -0.0582 H   0  0  0  0  0  0  0  0  0  0  0  0
   -4.6456    2.4373   -0.9958 H   0  0  0  0  0  0  0  0  0  0  0  0
    4.6039    2.4620   -0.7499 H   0  0  0  0  0  0  0  0  0  0  0  0
    6.1284    2.1716    0.1088 H   0  0  0  0  0  0  0  0  0  0  0  0
    4.6353    2.4211    1.0361 H   0  0  0  0  0  0  0  0  0  0  0  0
    7.4414   -0.4404    1.7006 H   0  0  0  0  0  0  0  0  0  0  0  0
   -7.4556   -0.4120   -1.6846 H   0  0  0  0  0  0  0  0  0  0  0  0
   -5.7877   -0.3677   -2.2976 H   0  0  0  0  0  0  0  0  0  0  0  0
   -6.4361   -1.8766   -1.6195 H   0  0  0  0  0  0  0  0  0  0  0  0
    5.7687   -0.4051    2.3010 H   0  0  0  0  0  0  0  0  0  0  0  0
    6.4216   -1.9030    1.6031 H   0  0  0  0  0  0  0  0  0  0  0  0
    7.8975   -1.7226   -1.6737 H   0  0  0  0  0  0  0  0  0  0  0  0
   -7.8843   -1.7513    1.6716 H   0  0  0  0  0  0  0  0  0  0  0  0
  1  7  1  0  0  0  0
  1 42  1  0  0  0  0
  2  6  1  0  0  0  0
  2 41  1  0  0  0  0
  3  8  1  0  0  0  0
  3  9  1  0  0  0  0
  3 24  1  0  0  0  0
  4 11  1  0  0  0  0
  4 12  2  0  0  0  0
  5 10  1  0  0  0  0
  5 13  2  0  0  0  0
  6 15  2  3  0  0  0
  7 14  2  3  0  0  0
  8 11  1  0  0  0  0
  8 22  1  0  0  0  0
  8 23  1  0  0  0  0
  9 10  1  0  0  0  0
  9 20  1  0  0  0  0
  9 21  1  0  0  0  0
 10 26  1  0  0  0  0
 10 27  1  0  0  0  0
 11 25  1  0  0  0  0
 11 28  1  0  0  0  0
 12 14  1  0  0  0  0
 12 17  1  0  0  0  0
 13 15  1  0  0  0  0
 13 16  1  0  0  0  0
 14 18  1  0  0  0  0
 15 19  1  0  0  0  0
 16 32  1  0  0  0  0
 16 33  1  0  0  0  0
 16 34  1  0  0  0  0
 17 29  1  0  0  0  0
 17 30  1  0  0  0  0
 17 31  1  0  0  0  0
 18 36  1  0  0  0  0
 18 37  1  0  0  0  0
 18 38  1  0  0  0  0
 19 35  1  0  0  0  0
 19 39  1  0  0  0  0
 19 40  1  0  0  0  0
M  END
> <PUBCHEM_COMPOUND_CID>
137207468

> <PUBCHEM_CONFORMER_RMSD>
0.8

> <PUBCHEM_CONFORMER_DIVERSEORDER>
1
254
296
304
48
2
264
225
82
290
119
195
120
20
46
233
268
65
249
53
98
94
156
274
284
226
186
42
81
43
91
218
100
158
59
173
38
287
270
187
41
204
11
277
181
197
143
191
216
45
243
285
17
317
239
101
69
176
252
298
37
164
266
85
84
217
276
219
202
231
151
157
223
297
190
315
208
153
172
57
88
313
250
283
56
203
171
13
166
194
206
159
244
83
66
60
131
278
23
62
86
89
103
251
106
132
15
155
238
230
309
306
163
150
167
232
207
198
96
79
148
288
138
108
302
64
214
260
180
72
295
9
74
78
301
196
224
116
10
193
291
54
160
293
162
289
240
107
165
154
145
211
51
236
29
136
133
140
32
292
311
316
255
30
67
205
318
258
152
286
123
44
7
220
246
242
49
58
33
124
115
272
130
104
77
215
307
122
280
188
18
213
144
61
257
55
125
271
73
90
50
267
170
118
137
135
178
282
199
168
221
63
36
128
192
273
109
259
75
93
127
92
71
294
228
256
70
68
175
161
95
146
141
121
34
105
80
305
14
235
222
245
129
28
87
241
275
126
209
210
102
234
76
237
21
147
112
169
142
253
139
25
179
312
19
52
189
262
183
279
97
22
229
248
269
200
47
227
314
303
24
184
299
26
31
308
99
39
113
134
114
117
310
265
185
149
40
300
261
35
174
6
182
201
281
247
263
8
110
3
111
177
212
16
12
5
4
27

> <PUBCHEM_MMFF94_PARTIAL_CHARGES>
22
1 -0.34
10 0.25
11 0.25
12 0.39
13 0.39
14 0.39
15 0.39
16 0.06
17 0.06
18 0.06
19 0.06
2 -0.34
24 0.36
3 -0.9
4 -0.7
41 0.4
42 0.4
5 -0.7
6 -0.51
7 -0.51
8 0.27
9 0.27

> <PUBCHEM_EFFECTIVE_ROTOR_COUNT>
8

> <PUBCHEM_PHARMACOPHORE_FEATURES>
8
1 1 anion
1 2 anion
1 3 cation
1 3 donor
1 4 acceptor
1 5 acceptor
1 6 acceptor
1 7 acceptor

> <PUBCHEM_HEAVY_ATOM_COUNT>
19

> <PUBCHEM_ATOM_DEF_STEREO_COUNT>
0

> <PUBCHEM_ATOM_UDEF_STEREO_COUNT>
0

> <PUBCHEM_BOND_DEF_STEREO_COUNT>
0

> <PUBCHEM_BOND_UDEF_STEREO_COUNT>
2

> <PUBCHEM_ISOTOPIC_ATOM_COUNT>
0

> <PUBCHEM_COMPONENT_COUNT>
1

> <PUBCHEM_CACTVS_TAUTO_COUNT>
-1

> <PUBCHEM_CONFORMER_ID>
082D9EAC00000001

> <PUBCHEM_MMFF94_ENERGY>
34.3577

> <PUBCHEM_FEATURE_SELFOVERLAP>
40.597

> <PUBCHEM_SHAPE_FINGERPRINT>
10066227 112 8070024454502583935
11315181 36 17821731646268717517
12091667 2 18343862213212782405
12166972 35 18409169930384061184
125118 31 12319742470532524818
13533116 47 17989488516100416520
13668630 136 18333450941086778086
1420 363 18410857667757182697
14251764 18 18410570700277215584
14251764 46 18410571786128267049
14729087 3 10663824057610190323
15183329 4 18334292054771172306
15716309 27 18202003252945706397
15778101 99 18339081472326336969
17093844 174 12031786960124917677
20281389 69 18342736338279606904
21150785 3 16008752420053676558
21267235 1 18410860961981514828
21315763 28 18411136935105132300
220451 1 16950282888540571920
22224240 67 15626222429504335861
23035841 295 17489588974220290935
23081809 10 18186806859256278748
23559900 14 18189048875709489761
246663 6 18410579487010104902
3004659 81 18409167702076028760
328311 84 18341899584392849246
33532 11 18341050727473647502
42788 4 18410854360616897796
4340502 62 16200434663359715932
59755656 215 18259985942586114826

> <PUBCHEM_SHAPE_MULTIPOLES>
354.37
25.68
1.51
0.99
0
0.47
0
-9.61
-0.06
0.01
-0.01
0
-0.37
0.47

> <PUBCHEM_SHAPE_SELFOVERLAP>
673.02

> <PUBCHEM_SHAPE_VOLUME>
219.7

> <PUBCHEM_COORDINATE_TYPE>
2
5
10

$$$$
