137347863
  -OEChem-03292013293D

 63 64  0     1  0  0  0  0  0999 V2000
   -2.4079    1.5586    0.5291 S   0  0  0  0  0  0  0  0  0  0  0  0
    1.1336    1.3703   -1.7375 O   0  0  0  0  0  0  0  0  0  0  0  0
   -3.0543    2.8415    0.3337 O   0  0  0  0  0  0  0  0  0  0  0  0
   -2.7473    0.7223    1.6644 O   0  0  0  0  0  0  0  0  0  0  0  0
    4.1707    0.9989    1.3574 O   0  0  0  0  0  0  0  0  0  0  0  0
    5.9086   -3.2612   -0.9005 O   0  0  0  0  0  0  0  0  0  0  0  0
    2.3508    2.6892   -0.2684 N   0  0  0  0  0  0  0  0  0  0  0  0
   -0.7170    1.7462    0.4957 N   0  0  0  0  0  0  0  0  0  0  0  0
    4.1003   -0.2075   -0.6278 N   0  0  0  0  0  0  0  0  0  0  0  0
    0.3361   -2.7050    0.7689 N   0  3  0  0  0  0  0  0  0  0  0  0
   -1.2767   -4.4746    0.9865 N   0  0  0  0  0  0  0  0  0  0  0  0
   -1.4968   -2.5187    2.3577 N   0  0  0  0  0  0  0  0  0  0  0  0
   -0.1328    2.8219   -0.3414 C   0  0  1  0  0  0  0  0  0  0  0  0
   -0.0358    4.1101    0.4575 C   0  0  0  0  0  0  0  0  0  0  0  0
    1.1464    4.0772    1.4084 C   0  0  0  0  0  0  0  0  0  0  0  0
    2.4154    3.8546    0.6096 C   0  0  0  0  0  0  0  0  0  0  0  0
    1.1725    2.2441   -0.8653 C   0  0  0  0  0  0  0  0  0  0  0  0
    3.6310    2.1443   -0.7002 C   0  0  0  0  0  0  0  0  0  0  0  0
    3.9795    0.9380    0.1455 C   0  0  0  0  0  0  0  0  0  0  0  0
   -2.6616    0.5887   -0.9395 C   0  0  0  0  0  0  0  0  0  0  0  0
    4.4740   -1.4943   -0.0860 C   0  0  1  0  0  0  0  0  0  0  0  0
    3.2655   -2.3181    0.3613 C   0  0  0  0  0  0  0  0  0  0  0  0
    2.2772   -2.6437   -0.7681 C   0  0  0  0  0  0  0  0  0  0  0  0
   -3.9955   -0.0813   -0.8187 C   0  0  0  0  0  0  0  0  0  0  0  0
    1.0705   -3.4307   -0.2650 C   0  0  0  0  0  0  0  0  0  0  0  0
    5.3354   -2.1959   -1.1138 C   0  0  0  0  0  0  0  0  0  0  0  0
   -5.1659    0.6611   -0.9762 C   0  0  0  0  0  0  0  0  0  0  0  0
   -4.0675   -1.4477   -0.5488 C   0  0  0  0  0  0  0  0  0  0  0  0
   -6.4084    0.0369   -0.8635 C   0  0  0  0  0  0  0  0  0  0  0  0
   -5.3097   -2.0720   -0.4361 C   0  0  0  0  0  0  0  0  0  0  0  0
   -6.4802   -1.3297   -0.5935 C   0  0  0  0  0  0  0  0  0  0  0  0
   -0.8100   -3.2234    1.3746 C   0  0  0  0  0  0  0  0  0  0  0  0
   -0.7745    2.9943   -1.2141 H   0  0  0  0  0  0  0  0  0  0  0  0
   -0.9533    4.3054    1.0227 H   0  0  0  0  0  0  0  0  0  0  0  0
    0.0926    4.9515   -0.2356 H   0  0  0  0  0  0  0  0  0  0  0  0
    1.2138    5.0200    1.9621 H   0  0  0  0  0  0  0  0  0  0  0  0
    1.0180    3.2757    2.1454 H   0  0  0  0  0  0  0  0  0  0  0  0
    2.6274    4.7240   -0.0240 H   0  0  0  0  0  0  0  0  0  0  0  0
    3.2552    3.7292    1.3025 H   0  0  0  0  0  0  0  0  0  0  0  0
   -0.1202    1.2900    1.1957 H   0  0  0  0  0  0  0  0  0  0  0  0
    4.4208    2.8954   -0.5895 H   0  0  0  0  0  0  0  0  0  0  0  0
    3.5739    1.8871   -1.7630 H   0  0  0  0  0  0  0  0  0  0  0  0
   -2.6081    1.2390   -1.8171 H   0  0  0  0  0  0  0  0  0  0  0  0
   -1.8573   -0.1522   -0.9972 H   0  0  0  0  0  0  0  0  0  0  0  0
    5.1173   -1.3135    0.7841 H   0  0  0  0  0  0  0  0  0  0  0  0
    3.8842   -0.1584   -1.6193 H   0  0  0  0  0  0  0  0  0  0  0  0
    3.6165   -3.2602    0.8014 H   0  0  0  0  0  0  0  0  0  0  0  0
    2.7541   -1.7690    1.1601 H   0  0  0  0  0  0  0  0  0  0  0  0
    2.7772   -3.2220   -1.5530 H   0  0  0  0  0  0  0  0  0  0  0  0
    1.9215   -1.7123   -1.2242 H   0  0  0  0  0  0  0  0  0  0  0  0
    1.4085   -4.3845    0.1539 H   0  0  0  0  0  0  0  0  0  0  0  0
    0.3937   -3.6156   -1.1056 H   0  0  0  0  0  0  0  0  0  0  0  0
    5.4232   -1.7145   -2.1033 H   0  0  0  0  0  0  0  0  0  0  0  0
   -5.1264    1.7245   -1.1958 H   0  0  0  0  0  0  0  0  0  0  0  0
   -3.1643   -2.0387   -0.4232 H   0  0  0  0  0  0  0  0  0  0  0  0
    0.6308   -1.7734    1.0542 H   0  0  0  0  0  0  0  0  0  0  0  0
   -7.3197    0.6144   -0.9880 H   0  0  0  0  0  0  0  0  0  0  0  0
   -5.3655   -3.1360   -0.2255 H   0  0  0  0  0  0  0  0  0  0  0  0
   -7.4474   -1.8159   -0.5060 H   0  0  0  0  0  0  0  0  0  0  0  0
   -2.3322   -2.9007    2.7943 H   0  0  0  0  0  0  0  0  0  0  0  0
   -1.1832   -1.6000    2.6615 H   0  0  0  0  0  0  0  0  0  0  0  0
   -2.1105   -4.8729    1.4123 H   0  0  0  0  0  0  0  0  0  0  0  0
   -0.8140   -5.0320    0.2737 H   0  0  0  0  0  0  0  0  0  0  0  0
  1  3  2  0  0  0  0
  1  4  2  0  0  0  0
  1  8  1  0  0  0  0
  1 20  1  0  0  0  0
  2 17  2  0  0  0  0
  5 19  2  0  0  0  0
  6 26  2  0  0  0  0
  7 16  1  0  0  0  0
  7 17  1  0  0  0  0
  7 18  1  0  0  0  0
  8 13  1  0  0  0  0
  8 40  1  0  0  0  0
  9 19  1  0  0  0  0
  9 21  1  0  0  0  0
  9 46  1  0  0  0  0
 10 25  1  0  0  0  0
 10 32  2  0  0  0  0
 10 56  1  0  0  0  0
 11 32  1  0  0  0  0
 11 62  1  0  0  0  0
 11 63  1  0  0  0  0
 12 32  1  0  0  0  0
 12 60  1  0  0  0  0
 12 61  1  0  0  0  0
 13 14  1  0  0  0  0
 13 17  1  0  0  0  0
 13 33  1  0  0  0  0
 14 15  1  0  0  0  0
 14 34  1  0  0  0  0
 14 35  1  0  0  0  0
 15 16  1  0  0  0  0
 15 36  1  0  0  0  0
 15 37  1  0  0  0  0
 16 38  1  0  0  0  0
 16 39  1  0  0  0  0
 18 19  1  0  0  0  0
 18 41  1  0  0  0  0
 18 42  1  0  0  0  0
 20 24  1  0  0  0  0
 20 43  1  0  0  0  0
 20 44  1  0  0  0  0
 21 22  1  0  0  0  0
 21 26  1  0  0  0  0
 21 45  1  0  0  0  0
 22 23  1  0  0  0  0
 22 47  1  0  0  0  0
 22 48  1  0  0  0  0
 23 25  1  0  0  0  0
 23 49  1  0  0  0  0
 23 50  1  0  0  0  0
 24 27  2  0  0  0  0
 24 28  1  0  0  0  0
 25 51  1  0  0  0  0
 25 52  1  0  0  0  0
 26 53  1  0  0  0  0
 27 29  1  0  0  0  0
 27 54  1  0  0  0  0
 28 30  2  0  0  0  0
 28 55  1  0  0  0  0
 29 31  2  0  0  0  0
 29 57  1  0  0  0  0
 30 31  1  0  0  0  0
 30 58  1  0  0  0  0
 31 59  1  0  0  0  0
M  CHG  1  10   1
M  END
> <PUBCHEM_COMPOUND_CID>
137347863

> <PUBCHEM_CONFORMER_RMSD>
1.2

> <PUBCHEM_CONFORMER_DIVERSEORDER>
2
158
102
156
85
79
101
7
50
89
52
95
129
36
105
155
43
139
82
135
70
18
63
100
74
26
68
120
71
83
152
130
110
111
123
13
160
30
76
104
146
138
107
25
103
148
78
27
53
54
161
87
62
23
41
134
147
67
9
159
6
97
117
150
154
21
94
118
80
126
144
66
64
93
128
24
114
45
75
31
84
109
121
46
12
44
86
40
37
42
163
61
136
65
15
59
142
127
39
113
124
143
133
115
72
69
22
56
125
151
157
88
60
98
19
91
32
132
55
116
145
17
34
48
11
14
77
35
92
57
108
10
20
8
73
29
112
1
153
99
162
137
106
58
149
51
4
16
38
47
119
140
33
3
90
81
164
49
141
131
5
28
122
96

> <PUBCHEM_MMFF94_PARTIAL_CHARGES>
41
1 1.33
10 -0.84
11 -0.97
12 -0.97
13 0.42
16 0.3
17 0.57
18 0.36
19 0.57
2 -0.57
20 0.25
21 0.36
24 -0.14
25 0.33
26 0.45
27 -0.15
28 -0.15
29 -0.15
3 -0.65
30 -0.15
31 -0.15
32 1.2
4 -0.65
40 0.42
46 0.37
5 -0.57
53 0.06
54 0.15
55 0.15
56 0.45
57 0.15
58 0.15
59 0.15
6 -0.57
60 0.45
61 0.45
62 0.45
63 0.45
7 -0.66
8 -0.91
9 -0.73

> <PUBCHEM_EFFECTIVE_ROTOR_COUNT>
14

> <PUBCHEM_PHARMACOPHORE_FEATURES>
13
1 10 donor
1 11 donor
1 12 donor
1 2 acceptor
1 3 acceptor
1 4 acceptor
1 5 acceptor
1 6 acceptor
1 8 donor
1 9 donor
4 10 11 12 32 cation
6 24 27 28 29 30 31 rings
6 7 13 14 15 16 17 rings

> <PUBCHEM_HEAVY_ATOM_COUNT>
32

> <PUBCHEM_ATOM_DEF_STEREO_COUNT>
2

> <PUBCHEM_ATOM_UDEF_STEREO_COUNT>
0

> <PUBCHEM_BOND_DEF_STEREO_COUNT>
0

> <PUBCHEM_BOND_UDEF_STEREO_COUNT>
0

> <PUBCHEM_ISOTOPIC_ATOM_COUNT>
0

> <PUBCHEM_COMPONENT_COUNT>
1

> <PUBCHEM_CACTVS_TAUTO_COUNT>
-1

> <PUBCHEM_CONFORMER_ID>
082FC31700000002

> <PUBCHEM_MMFF94_ENERGY>
53.2918

> <PUBCHEM_FEATURE_SELFOVERLAP>
66.081

> <PUBCHEM_SHAPE_FINGERPRINT>
10816530 23 17618494828223866417
10864689 126 18263919956467169687
12645989 146 18198069075725358030
12838863 1 18263347145316478490
13402501 40 18334292097520528190
13533116 47 18341611563875696453
1361 2 18412258462920046411
13773456 30 17979345688084391129
14068700 675 18338798888951989460
14647877 51 18266178512164093427
14725015 67 18262501620720945370
15001296 14 18334850658291348129
15351339 4 18336817624754268801
15927050 60 17910670196313483574
20764821 26 18264512649005409482
20775438 99 18053359274727215015
23559900 14 18340476846886155261
3298306 158 18264765648549329455
463206 1 18339086994878261049
5265222 85 17542795655684959468
5309563 4 18341891831955833076
66674814 147 18260831462226011376
6669772 16 17983563393350632393

> <PUBCHEM_SHAPE_MULTIPOLES>
603.16
12.83
6.37
1.42
9.08
0.36
-0.46
-7.35
4.77
-4.83
-1.9
0.12
-0.34
1.29

> <PUBCHEM_SHAPE_SELFOVERLAP>
1213.688

> <PUBCHEM_SHAPE_VOLUME>
351.9

> <PUBCHEM_COORDINATE_TYPE>
2
5
10

$$$$
