137305
  -OEChem-03292013323D

 67 71  0     1  0  0  0  0  0999 V2000
   -1.3601   -2.4531   -1.5879 O   0  0  0  0  0  0  0  0  0  0  0  0
   -2.1998   -0.3034    0.9529 O   0  0  0  0  0  0  0  0  0  0  0  0
    8.0877    1.7450   -0.8030 O   0  0  0  0  0  0  0  0  0  0  0  0
   -5.1843   -1.6072    1.7591 O   0  0  0  0  0  0  0  0  0  0  0  0
   -7.6619    2.1406    0.7774 O   0  0  0  0  0  0  0  0  0  0  0  0
   -4.6996   -0.4674   -0.2205 N   0  0  0  0  0  0  0  0  0  0  0  0
   -6.4128    0.2632    1.2568 N   0  0  0  0  0  0  0  0  0  0  0  0
    0.2313   -1.3733   -0.0471 C   0  0  1  0  0  0  0  0  0  0  0  0
    0.6293    0.1079    0.1357 C   0  0  1  0  0  0  0  0  0  0  0  0
    2.0621    0.3173    0.6734 C   0  0  1  0  0  0  0  0  0  0  0  0
    3.1368   -0.4740   -0.1165 C   0  0  1  0  0  0  0  0  0  0  0  0
   -1.0528   -1.2470   -0.9106 C   0  0  1  0  0  0  0  0  0  0  0  0
    1.3409   -2.1489   -0.8057 C   0  0  0  0  0  0  0  0  0  0  0  0
    4.6022   -0.2501    0.4326 C   0  0  2  0  0  0  0  0  0  0  0  0
    2.7368   -1.9604   -0.2098 C   0  0  0  0  0  0  0  0  0  0  0  0
    0.3321    0.7477   -1.2344 C   0  0  0  0  0  0  0  0  0  0  0  0
   -0.7517   -0.1118   -1.8949 C   0  0  0  0  0  0  0  0  0  0  0  0
    2.4196    1.8100    0.7265 C   0  0  0  0  0  0  0  0  0  0  0  0
   -0.0322   -2.0695    1.3018 C   0  0  0  0  0  0  0  0  0  0  0  0
    4.8613    1.2491    0.6241 C   0  0  0  0  0  0  0  0  0  0  0  0
    3.7913    2.0299    1.3482 C   0  0  0  0  0  0  0  0  0  0  0  0
    5.6039   -0.8340   -0.6074 C   0  0  0  0  0  0  0  0  0  0  0  0
    4.8284   -0.9522    1.7915 C   0  0  0  0  0  0  0  0  0  0  0  0
   -2.2884   -0.9191   -0.1123 C   0  0  0  0  0  0  0  0  0  0  0  0
    7.0369   -0.3683   -0.4016 C   0  0  0  0  0  0  0  0  0  0  0  0
    5.9735    1.8798    0.2117 C   0  0  0  0  0  0  0  0  0  0  0  0
    7.1024    1.1357   -0.3920 C   0  0  0  0  0  0  0  0  0  0  0  0
   -3.6468   -1.3483   -0.6273 C   0  0  0  0  0  0  0  0  0  0  0  0
   -5.0211    0.6133   -1.0376 C   0  0  0  0  0  0  0  0  0  0  0  0
   -5.4109   -0.6749    0.9851 C   0  0  0  0  0  0  0  0  0  0  0  0
   -5.9805    1.5092   -0.7745 C   0  0  0  0  0  0  0  0  0  0  0  0
   -6.7687    1.3531    0.4768 C   0  0  0  0  0  0  0  0  0  0  0  0
   -6.3049    2.6611   -1.6705 C   0  0  0  0  0  0  0  0  0  0  0  0
   -0.0368    0.5903    0.8621 H   0  0  0  0  0  0  0  0  0  0  0  0
    2.0602   -0.0569    1.7063 H   0  0  0  0  0  0  0  0  0  0  0  0
    3.1285   -0.0813   -1.1438 H   0  0  0  0  0  0  0  0  0  0  0  0
    1.3809   -1.8376   -1.8571 H   0  0  0  0  0  0  0  0  0  0  0  0
    1.1038   -3.2204   -0.8202 H   0  0  0  0  0  0  0  0  0  0  0  0
    2.7840   -2.4356    0.7743 H   0  0  0  0  0  0  0  0  0  0  0  0
    3.4444   -2.5025   -0.8464 H   0  0  0  0  0  0  0  0  0  0  0  0
    1.2136    0.7765   -1.8827 H   0  0  0  0  0  0  0  0  0  0  0  0
   -0.0102    1.7816   -1.1133 H   0  0  0  0  0  0  0  0  0  0  0  0
   -1.6372    0.4949   -2.1170 H   0  0  0  0  0  0  0  0  0  0  0  0
   -0.3901   -0.4973   -2.8558 H   0  0  0  0  0  0  0  0  0  0  0  0
    1.6693    2.3518    1.3149 H   0  0  0  0  0  0  0  0  0  0  0  0
    2.4091    2.2450   -0.2806 H   0  0  0  0  0  0  0  0  0  0  0  0
   -0.5675   -1.4480    2.0232 H   0  0  0  0  0  0  0  0  0  0  0  0
   -0.5978   -2.9970    1.1587 H   0  0  0  0  0  0  0  0  0  0  0  0
    0.8991   -2.3408    1.8081 H   0  0  0  0  0  0  0  0  0  0  0  0
    3.7736    1.7235    2.4012 H   0  0  0  0  0  0  0  0  0  0  0  0
    4.0104    3.1048    1.3454 H   0  0  0  0  0  0  0  0  0  0  0  0
    5.2945   -0.5380   -1.6197 H   0  0  0  0  0  0  0  0  0  0  0  0
    5.5897   -1.9302   -0.5879 H   0  0  0  0  0  0  0  0  0  0  0  0
    5.7931   -0.6749    2.2325 H   0  0  0  0  0  0  0  0  0  0  0  0
    4.0586   -0.6932    2.5250 H   0  0  0  0  0  0  0  0  0  0  0  0
    4.8293   -2.0425    1.6869 H   0  0  0  0  0  0  0  0  0  0  0  0
   -1.8389   -2.2424   -2.4069 H   0  0  0  0  0  0  0  0  0  0  0  0
    7.6562   -0.7380   -1.2264 H   0  0  0  0  0  0  0  0  0  0  0  0
    7.4578   -0.7455    0.5355 H   0  0  0  0  0  0  0  0  0  0  0  0
    6.1142    2.9460    0.3542 H   0  0  0  0  0  0  0  0  0  0  0  0
   -3.8368   -2.3571   -0.2439 H   0  0  0  0  0  0  0  0  0  0  0  0
   -3.6433   -1.4006   -1.7208 H   0  0  0  0  0  0  0  0  0  0  0  0
   -4.4256    0.7036   -1.9414 H   0  0  0  0  0  0  0  0  0  0  0  0
   -6.9347    0.1309    2.1187 H   0  0  0  0  0  0  0  0  0  0  0  0
   -7.3443    2.6014   -2.0092 H   0  0  0  0  0  0  0  0  0  0  0  0
   -5.6660    2.6799   -2.5597 H   0  0  0  0  0  0  0  0  0  0  0  0
   -6.1652    3.6090   -1.1406 H   0  0  0  0  0  0  0  0  0  0  0  0
  1 12  1  0  0  0  0
  1 57  1  0  0  0  0
  2 24  2  0  0  0  0
  3 27  2  0  0  0  0
  4 30  2  0  0  0  0
  5 32  2  0  0  0  0
  6 28  1  0  0  0  0
  6 29  1  0  0  0  0
  6 30  1  0  0  0  0
  7 30  1  0  0  0  0
  7 32  1  0  0  0  0
  7 64  1  0  0  0  0
  8  9  1  0  0  0  0
  8 12  1  0  0  0  0
  8 13  1  0  0  0  0
  8 19  1  0  0  0  0
  9 10  1  0  0  0  0
  9 16  1  0  0  0  0
  9 34  1  0  0  0  0
 10 11  1  0  0  0  0
 10 18  1  0  0  0  0
 10 35  1  0  0  0  0
 11 14  1  0  0  0  0
 11 15  1  0  0  0  0
 11 36  1  0  0  0  0
 12 17  1  0  0  0  0
 12 24  1  0  0  0  0
 13 15  1  0  0  0  0
 13 37  1  0  0  0  0
 13 38  1  0  0  0  0
 14 20  1  0  0  0  0
 14 22  1  0  0  0  0
 14 23  1  0  0  0  0
 15 39  1  0  0  0  0
 15 40  1  0  0  0  0
 16 17  1  0  0  0  0
 16 41  1  0  0  0  0
 16 42  1  0  0  0  0
 17 43  1  0  0  0  0
 17 44  1  0  0  0  0
 18 21  1  0  0  0  0
 18 45  1  0  0  0  0
 18 46  1  0  0  0  0
 19 47  1  0  0  0  0
 19 48  1  0  0  0  0
 19 49  1  0  0  0  0
 20 21  1  0  0  0  0
 20 26  2  0  0  0  0
 21 50  1  0  0  0  0
 21 51  1  0  0  0  0
 22 25  1  0  0  0  0
 22 52  1  0  0  0  0
 22 53  1  0  0  0  0
 23 54  1  0  0  0  0
 23 55  1  0  0  0  0
 23 56  1  0  0  0  0
 24 28  1  0  0  0  0
 25 27  1  0  0  0  0
 25 58  1  0  0  0  0
 25 59  1  0  0  0  0
 26 27  1  0  0  0  0
 26 60  1  0  0  0  0
 28 61  1  0  0  0  0
 28 62  1  0  0  0  0
 29 31  2  0  0  0  0
 29 63  1  0  0  0  0
 31 32  1  0  0  0  0
 31 33  1  0  0  0  0
 33 65  1  0  0  0  0
 33 66  1  0  0  0  0
 33 67  1  0  0  0  0
M  END
> <PUBCHEM_COMPOUND_CID>
137305

> <PUBCHEM_CONFORMER_RMSD>
0.8

> <PUBCHEM_CONFORMER_DIVERSEORDER>
4
187
299
342
75
352
416
124
414
94
377
133
270
40
417
12
210
324
389
207
369
32
72
393
356
273
305
418
456
403
398
21
288
284
172
96
123
332
384
11
131
287
423
221
249
337
35
266
440
16
154
300
100
145
460
354
422
282
69
240
435
78
346
399
404
258
189
219
361
62
333
135
401
286
368
110
296
319
127
375
262
112
51
345
6
353
363
1
371
444
448
320
83
192
343
381
140
158
307
431
180
226
182
409
228
61
430
378
278
185
295
15
45
57
261
376
412
64
379
365
455
344
202
407
316
107
326
166
119
201
122
58
419
148
255
54
30
142
348
183
218
130
457
159
247
97
237
174
454
161
312
113
236
329
271
138
43
250
239
302
178
396
387
251
222
341
400
349
292
191
310
80
321
175
204
335
238
150
347
184
141
117
265
212
195
406
17
177
362
268
248
128
453
190
121
44
436
252
137
334
309
242
245
301
260
427
27
186
322
294
65
434
359
205
120
144
392
331
194
421
153
408
424
105
70
227
318
438
55
308
114
50
18
10
63
432
199
163
118
39
433
306
380
170
338
315
47
106
179
193
459
230
24
74
46
330
254
325
323
224
452
263
357
160
415
196
386
116
410
19
429
234
104
370
28
109
85
209
395
360
87
246
388
143
77
168
280
272
98
2
259
14
391
420
243
364
146
92
233
277
89
167
38
441
102
206
225
165
197
394
90
13
231
60
213
314
155
81
76
52
203
25
84
374
327
303
402
297
215
442
217
136
269
313
7
267
37
426
22
382
235
8
208
367
42
181
99
41
34
264
253
256
290
317
339
48
129
425
232
385
445
214
450
3
311
132
244
198
49
383
103
351
147
285
397
171
67
372
291
126
220
275
449
289
86
428
373
111
115
152
336
411
200
53
79
151
405
169
173
223
31
328
283
350
281
149
26
293
229
176
451
88
340
71
156
443
101
257
446
366
20
304
241
162
164
5
29
66
298
95
82
279
73
390
59
36
188
216
139
56
358
211
458
91
355
413
68
157
125
439
108
276
23
447
134
93
33
9
274
437

> <PUBCHEM_MMFF94_PARTIAL_CHARGES>
25
1 -0.68
12 0.34
14 0.14
2 -0.57
20 -0.28
21 0.14
24 0.45
25 0.06
26 -0.14
27 0.49
28 0.36
29 -0.04
3 -0.57
30 0.69
31 -0.12
32 0.62
33 0.14
4 -0.57
5 -0.57
57 0.4
6 -0.47
60 0.15
63 0.15
64 0.37
7 -0.49

> <PUBCHEM_EFFECTIVE_ROTOR_COUNT>
4.8

> <PUBCHEM_PHARMACOPHORE_FEATURES>
12
1 1 acceptor
1 1 donor
1 2 acceptor
1 3 acceptor
1 4 acceptor
1 5 acceptor
1 7 donor
5 8 9 12 16 17 rings
6 10 11 14 18 20 21 rings
6 14 20 22 25 26 27 rings
6 6 7 29 30 31 32 rings
6 8 9 10 11 13 15 rings

> <PUBCHEM_HEAVY_ATOM_COUNT>
33

> <PUBCHEM_ATOM_DEF_STEREO_COUNT>
3

> <PUBCHEM_ATOM_UDEF_STEREO_COUNT>
3

> <PUBCHEM_BOND_DEF_STEREO_COUNT>
0

> <PUBCHEM_BOND_UDEF_STEREO_COUNT>
0

> <PUBCHEM_ISOTOPIC_ATOM_COUNT>
0

> <PUBCHEM_COMPONENT_COUNT>
1

> <PUBCHEM_CACTVS_TAUTO_COUNT>
30

> <PUBCHEM_CONFORMER_ID>
0002185900000004

> <PUBCHEM_MMFF94_ENERGY>
98.812

> <PUBCHEM_FEATURE_SELFOVERLAP>
61.101

> <PUBCHEM_SHAPE_FINGERPRINT>
10 15 18186240615616458985
10066227 112 18411696599651405940
10554248 39 17275106106986824716
10670039 82 14764353717506958379
10674148 151 18408038533968145176
10763959 59 18412541046104093840
10906281 52 18260553359389777334
11456790 92 18187355524971225072
11991303 11 17060046095165132559
12236239 1 17060058194262142254
12422481 6 18260258642701495053
13914758 101 14620804786219249398
14020679 6 17386287704653340320
14849402 71 16371304331898062340
14856354 85 16732989747465964155
14933364 13 18408323297734458057
15064981 113 15554456184130631981
15142383 8 18272932722326170872
15183329 4 17274824657669166772
15461852 350 18343577474266662223
1577012 14 18273208716238867982
18335252 114 17917988356608332940
19377110 9 14345788327682635476
19958102 18 12391510901612838077
20567600 247 11241973685469873937
21033648 29 18338223959728267849
21033650 10 13686031882217372283
21130935 74 17458341914146925714
21792934 111 18131343082847934210
22149856 69 12757421692562091484
23559900 14 17274255192830522234
23576562 1 17986661765741647925
24771293 8 18040718108275250148
2838139 119 17060340734174556025
335352 9 18131351921510950950
350125 39 18412824690244750908
3633792 109 16415482658189825144
4058900 60 18341055137761501802
4073 2 18259989292349629707
4093350 32 18412265026394985174
4169191 19 18412545388526740853
4340502 62 16732978744023340450
474113 269 13398366616545738588
4938544 92 15719661071217047413
50009960 94 9654208500675163288
504579 68 15698282192258115797
504843 32 17917425458743763735
552612 73 17969776389300164164
5718773 13 10015599298222408780
58260988 393 15864061054073800148
59755656 215 18343300336399772540
6086070 43 17274813705586795987
6328613 192 18342739632598436156
6608658 132 15626228971066575763
7226269 152 18413389826389020241
9689198 14 18261115179534431088

> <PUBCHEM_SHAPE_MULTIPOLES>
639.82
21.03
2.5
1.51
6.79
0.32
-0.03
13.73
-1.19
0.79
0.18
0.98
-0.08
0.99

> <PUBCHEM_SHAPE_SELFOVERLAP>
1386.804

> <PUBCHEM_SHAPE_VOLUME>
345

> <PUBCHEM_COORDINATE_TYPE>
2
5
10

$$$$
