137333450
  -OEChem-03292013293D

 56 58  0     1  0  0  0  0  0999 V2000
    4.5360    1.4858    2.5491 Cl  0  0  0  0  0  0  0  0  0  0  0  0
    3.9069    1.6388   -1.6524 S   0  0  0  0  0  0  0  0  0  0  0  0
   -2.0378    1.1638    0.3954 S   0  0  0  0  0  0  0  0  0  0  0  0
   -5.5954   -1.6837   -0.6659 O   0  0  0  0  0  0  0  0  0  0  0  0
    4.9630    2.4759   -2.1907 O   0  0  0  0  0  0  0  0  0  0  0  0
    2.7779    1.2776   -2.4879 O   0  0  0  0  0  0  0  0  0  0  0  0
   -7.5493   -0.2852   -2.0320 N   0  0  0  0  0  0  0  0  0  0  0  0
   -4.4618    0.3406   -0.3209 N   0  0  0  0  0  0  0  0  0  0  0  0
    3.3516    2.3205   -0.1712 N   0  0  0  0  0  0  0  0  0  0  0  0
   -2.7281   -1.3179    0.1773 N   0  0  0  0  0  0  0  0  0  0  0  0
    2.2388    0.3370    2.7765 N   0  0  0  0  0  0  0  0  0  0  0  0
   -7.6187    0.7286    0.2699 C   0  0  0  0  0  0  0  0  0  0  0  0
   -6.7818    0.3983   -0.9899 C   0  0  1  0  0  0  0  0  0  0  0  0
   -8.1227   -0.5125    1.0159 C   0  0  0  0  0  0  0  0  0  0  0  0
   -8.8027    1.6385   -0.0754 C   0  0  0  0  0  0  0  0  0  0  0  0
   -5.5565   -0.4564   -0.6469 C   0  0  0  0  0  0  0  0  0  0  0  0
   -3.1658   -0.0842    0.0565 C   0  0  0  0  0  0  0  0  0  0  0  0
   -0.8552   -0.0310    0.7350 C   0  0  0  0  0  0  0  0  0  0  0  0
    0.4733    0.3709    1.1252 C   0  0  0  0  0  0  0  0  0  0  0  0
   -1.4032   -1.2853    0.5664 C   0  0  0  0  0  0  0  0  0  0  0  0
    4.6707    0.1406   -1.0999 C   0  0  0  0  0  0  0  0  0  0  0  0
    2.5396    1.5227    0.6911 C   0  0  0  0  0  0  0  0  0  0  0  0
    1.2627    1.1496    0.2863 C   0  0  0  0  0  0  0  0  0  0  0  0
    3.9210   -1.0321   -1.0078 C   0  0  0  0  0  0  0  0  0  0  0  0
    1.0030   -0.0059    2.3489 C   0  0  0  0  0  0  0  0  0  0  0  0
    4.5231   -2.2125   -0.5721 C   0  0  0  0  0  0  0  0  0  0  0  0
    6.0226    0.1329   -0.7561 C   0  0  0  0  0  0  0  0  0  0  0  0
   -0.7096   -2.5753    0.7638 C   0  0  0  0  0  0  0  0  0  0  0  0
    2.9769    1.0943    1.9342 C   0  0  0  0  0  0  0  0  0  0  0  0
    5.8750   -2.2203   -0.2284 C   0  0  0  0  0  0  0  0  0  0  0  0
    6.6248   -1.0476   -0.3206 C   0  0  0  0  0  0  0  0  0  0  0  0
    3.7218   -3.4664   -0.4733 C   0  0  0  0  0  0  0  0  0  0  0  0
   -6.9716    1.2811    0.9646 H   0  0  0  0  0  0  0  0  0  0  0  0
   -6.4304    1.3425   -1.4264 H   0  0  0  0  0  0  0  0  0  0  0  0
   -7.2918   -1.1248    1.3790 H   0  0  0  0  0  0  0  0  0  0  0  0
   -9.2902    1.9923    0.8399 H   0  0  0  0  0  0  0  0  0  0  0  0
   -8.4697    2.5200   -0.6332 H   0  0  0  0  0  0  0  0  0  0  0  0
   -9.5615    1.1194   -0.6698 H   0  0  0  0  0  0  0  0  0  0  0  0
   -8.7146   -0.2205    1.8904 H   0  0  0  0  0  0  0  0  0  0  0  0
   -8.7566   -1.1374    0.3784 H   0  0  0  0  0  0  0  0  0  0  0  0
   -6.9615   -0.4209   -2.8541 H   0  0  0  0  0  0  0  0  0  0  0  0
   -8.3223    0.3035   -2.3377 H   0  0  0  0  0  0  0  0  0  0  0  0
   -4.5705    1.3516   -0.3389 H   0  0  0  0  0  0  0  0  0  0  0  0
    0.8814    1.4741   -0.6788 H   0  0  0  0  0  0  0  0  0  0  0  0
    4.0283    2.9191    0.3206 H   0  0  0  0  0  0  0  0  0  0  0  0
    2.8670   -1.0387   -1.2730 H   0  0  0  0  0  0  0  0  0  0  0  0
    0.4387   -0.6094    3.0541 H   0  0  0  0  0  0  0  0  0  0  0  0
    6.6233    1.0361   -0.8121 H   0  0  0  0  0  0  0  0  0  0  0  0
   -0.5804   -2.7828    1.8306 H   0  0  0  0  0  0  0  0  0  0  0  0
   -1.2837   -3.3997    0.3283 H   0  0  0  0  0  0  0  0  0  0  0  0
    0.2760   -2.5712    0.2870 H   0  0  0  0  0  0  0  0  0  0  0  0
    6.3557   -3.1324    0.1150 H   0  0  0  0  0  0  0  0  0  0  0  0
    7.6767   -1.0531   -0.0504 H   0  0  0  0  0  0  0  0  0  0  0  0
    3.1808   -3.4917    0.4781 H   0  0  0  0  0  0  0  0  0  0  0  0
    2.9978   -3.5331   -1.2925 H   0  0  0  0  0  0  0  0  0  0  0  0
    4.3594   -4.3548   -0.5351 H   0  0  0  0  0  0  0  0  0  0  0  0
  1 29  1  0  0  0  0
  2  5  2  0  0  0  0
  2  6  2  0  0  0  0
  2  9  1  0  0  0  0
  2 21  1  0  0  0  0
  3 17  1  0  0  0  0
  3 18  1  0  0  0  0
  4 16  2  0  0  0  0
  7 13  1  0  0  0  0
  7 41  1  0  0  0  0
  7 42  1  0  0  0  0
  8 16  1  0  0  0  0
  8 17  1  0  0  0  0
  8 43  1  0  0  0  0
  9 22  1  0  0  0  0
  9 45  1  0  0  0  0
 10 17  2  0  0  0  0
 10 20  1  0  0  0  0
 11 25  2  0  0  0  0
 11 29  1  0  0  0  0
 12 13  1  0  0  0  0
 12 14  1  0  0  0  0
 12 15  1  0  0  0  0
 12 33  1  0  0  0  0
 13 16  1  0  0  0  0
 13 34  1  0  0  0  0
 14 35  1  0  0  0  0
 14 39  1  0  0  0  0
 14 40  1  0  0  0  0
 15 36  1  0  0  0  0
 15 37  1  0  0  0  0
 15 38  1  0  0  0  0
 18 19  1  0  0  0  0
 18 20  2  0  0  0  0
 19 23  2  0  0  0  0
 19 25  1  0  0  0  0
 20 28  1  0  0  0  0
 21 24  1  0  0  0  0
 21 27  2  0  0  0  0
 22 23  1  0  0  0  0
 22 29  2  0  0  0  0
 23 44  1  0  0  0  0
 24 26  2  0  0  0  0
 24 46  1  0  0  0  0
 25 47  1  0  0  0  0
 26 30  1  0  0  0  0
 26 32  1  0  0  0  0
 27 31  1  0  0  0  0
 27 48  1  0  0  0  0
 28 49  1  0  0  0  0
 28 50  1  0  0  0  0
 28 51  1  0  0  0  0
 30 31  2  0  0  0  0
 30 52  1  0  0  0  0
 31 53  1  0  0  0  0
 32 54  1  0  0  0  0
 32 55  1  0  0  0  0
 32 56  1  0  0  0  0
M  END
> <PUBCHEM_COMPOUND_CID>
137333450

> <PUBCHEM_CONFORMER_RMSD>
1.4

> <PUBCHEM_CONFORMER_DIVERSEORDER>
1
47
11
59
82
29
121
122
93
120
99
26
56
39
67
109
49
117
114
116
70
111
62
27
101
52
128
45
90
48
119
91
46
123
127
87
32
44
61
94
81
112
51
86
105
73
58
15
75
19
85
76
110
97
24
74
78
23
125
64
83
84
88
41
63
104
77
40
115
79
96
60
53
25
6
68
113
21
100
69
66
102
18
80
42
28
35
34
37
95
89
65
129
57
43
126
30
118
10
22
31
55
124
7
12
71
103
54
106
14
5
98
33
38
108
4
130
8
20
17
36
72
50
92
2
3
107
9
13
16

> <PUBCHEM_MMFF94_PARTIAL_CHARGES>
39
1 -0.18
10 -0.57
11 -0.62
13 0.33
16 0.57
17 0.44
18 -0.01
19 0.05
2 1.45
20 0.05
21 -0.01
22 0.2
23 -0.15
24 -0.15
25 0.16
26 -0.14
27 -0.15
28 0.18
29 0.49
3 -0.08
30 -0.15
31 -0.15
32 0.14
4 -0.57
41 0.36
42 0.36
43 0.37
44 0.15
45 0.42
46 0.15
47 0.15
48 0.15
5 -0.65
52 0.15
53 0.15
6 -0.65
7 -0.99
8 -0.49
9 -0.76

> <PUBCHEM_EFFECTIVE_ROTOR_COUNT>
8

> <PUBCHEM_PHARMACOPHORE_FEATURES>
12
1 11 acceptor
1 4 acceptor
1 5 acceptor
1 6 acceptor
1 7 cation
1 7 donor
1 8 donor
1 9 donor
3 12 14 15 hydrophobe
5 3 10 17 18 20 rings
6 11 19 22 23 25 29 rings
6 21 24 26 27 30 31 rings

> <PUBCHEM_HEAVY_ATOM_COUNT>
32

> <PUBCHEM_ATOM_DEF_STEREO_COUNT>
1

> <PUBCHEM_ATOM_UDEF_STEREO_COUNT>
0

> <PUBCHEM_BOND_DEF_STEREO_COUNT>
0

> <PUBCHEM_BOND_UDEF_STEREO_COUNT>
0

> <PUBCHEM_ISOTOPIC_ATOM_COUNT>
0

> <PUBCHEM_COMPONENT_COUNT>
1

> <PUBCHEM_CACTVS_TAUTO_COUNT>
-1

> <PUBCHEM_CONFORMER_ID>
082F8ACA00000001

> <PUBCHEM_MMFF94_ENERGY>
63.5514

> <PUBCHEM_FEATURE_SELFOVERLAP>
60.915

> <PUBCHEM_SHAPE_FINGERPRINT>
10 15 10665232553680589813
10670039 82 18261390001844788013
11115154 58 18336835204003261224
11135609 127 18338516464751232988
11719270 70 14692569931460061117
11796584 16 16916786335551618303
11828532 37 16588604083254423630
12373685 5 16629376194841962686
13533116 47 17918269853038508794
13617811 41 18408038511533543669
13782708 43 17203327832173816789
14347332 77 17988641848807433761
15119646 104 17845941740649297247
15183329 4 17274826840119058729
17899979 129 18044387238697079788
19309040 13 16881351348047735382
20465049 17 17385729092696054288
21315764 119 18335141994349745527
21781051 124 18260555554144712715
21792934 111 11167951268928294459
23559900 14 18340766039185568650
27425 322 16951136217291420382
3004659 81 18407758136426689306
4093350 32 18187085087554043116
4098825 35 18335985285804169949
439807 62 18271527507056657007
46194498 28 18040719164937392700
513532 50 17822005450354729184
5951187 136 17241051015456014444
59682541 52 18410855455901883422
6081469 158 18337392639830337950
6443934 186 11169920493567358201
9862260 156 18040992900436088442

> <PUBCHEM_SHAPE_MULTIPOLES>
625.6
22.42
2.63
2.12
49.26
1.4
0.21
0.81
-7.33
-3.97
-0.06
-2.35
-1.2
0.04

> <PUBCHEM_SHAPE_SELFOVERLAP>
1293.204

> <PUBCHEM_SHAPE_VOLUME>
362.3

> <PUBCHEM_COORDINATE_TYPE>
2
5
10

$$$$
