137326
  -OEChem-03292013323D

 38 39  0     1  0  0  0  0  0999 V2000
    1.8230    0.7728    0.2022 S   0  0  0  0  0  0  0  0  0  0  0  0
   -3.6572    2.3306    0.8370 O   0  0  0  0  0  0  0  0  0  0  0  0
   -4.6254   -1.0342    0.8046 O   0  0  0  0  0  0  0  0  0  0  0  0
    4.6235   -0.6903    2.1105 O   0  0  0  0  0  0  0  0  0  0  0  0
    4.3700   -1.8908    0.2025 O   0  0  0  0  0  0  0  0  0  0  0  0
   -1.5307   -0.0916   -0.3627 N   0  0  0  0  0  0  0  0  0  0  0  0
   -2.7337    0.2493    0.1828 N   0  0  0  0  0  0  0  0  0  0  0  0
    5.7572    0.4863   -0.8421 N   0  0  0  0  0  0  0  0  0  0  0  0
   -0.7667    1.0394   -0.5363 C   0  0  0  0  0  0  0  0  0  0  0  0
   -1.4822   -1.4528   -0.5572 C   0  0  0  0  0  0  0  0  0  0  0  0
   -1.4344    2.1366   -0.1155 C   0  0  0  0  0  0  0  0  0  0  0  0
   -2.6333   -2.0346   -0.1529 C   0  0  0  0  0  0  0  0  0  0  0  0
   -2.7662    1.6402    0.3762 C   0  0  0  0  0  0  0  0  0  0  0  0
   -3.5010   -0.9149    0.3522 C   0  0  0  0  0  0  0  0  0  0  0  0
    0.6047    0.9935   -1.1146 C   0  0  0  0  0  0  0  0  0  0  0  0
   -0.2925   -2.1326   -1.1401 C   0  0  0  0  0  0  0  0  0  0  0  0
   -1.0799    3.5735   -0.0812 C   0  0  0  0  0  0  0  0  0  0  0  0
   -3.0935   -3.4418   -0.1383 C   0  0  0  0  0  0  0  0  0  0  0  0
    3.3196    0.7605   -0.8131 C   0  0  0  0  0  0  0  0  0  0  0  0
    4.5762    0.5123    0.0233 C   0  0  1  0  0  0  0  0  0  0  0  0
    4.5224   -0.8114    0.7628 C   0  0  0  0  0  0  0  0  0  0  0  0
    0.8238    1.9386   -1.6238 H   0  0  0  0  0  0  0  0  0  0  0  0
    0.7041    0.2162   -1.8741 H   0  0  0  0  0  0  0  0  0  0  0  0
   -0.1244   -1.8048   -2.1701 H   0  0  0  0  0  0  0  0  0  0  0  0
   -0.4159   -3.2190   -1.1714 H   0  0  0  0  0  0  0  0  0  0  0  0
    0.6033   -1.9375   -0.5452 H   0  0  0  0  0  0  0  0  0  0  0  0
   -0.0663    3.7557   -0.4492 H   0  0  0  0  0  0  0  0  0  0  0  0
   -1.1348    3.9549    0.9434 H   0  0  0  0  0  0  0  0  0  0  0  0
   -1.7716    4.1518   -0.7017 H   0  0  0  0  0  0  0  0  0  0  0  0
   -4.0050   -3.5494   -0.7347 H   0  0  0  0  0  0  0  0  0  0  0  0
   -3.3141   -3.7586    0.8859 H   0  0  0  0  0  0  0  0  0  0  0  0
   -2.3474   -4.1287   -0.5459 H   0  0  0  0  0  0  0  0  0  0  0  0
    3.3979    1.7235   -1.3303 H   0  0  0  0  0  0  0  0  0  0  0  0
    3.2093   -0.0236   -1.5714 H   0  0  0  0  0  0  0  0  0  0  0  0
    4.7018    1.3232    0.7514 H   0  0  0  0  0  0  0  0  0  0  0  0
    6.5987    0.4249   -0.2697 H   0  0  0  0  0  0  0  0  0  0  0  0
    5.8259    1.3656   -1.3530 H   0  0  0  0  0  0  0  0  0  0  0  0
    4.5691   -1.5599    2.5612 H   0  0  0  0  0  0  0  0  0  0  0  0
  1 15  1  0  0  0  0
  1 19  1  0  0  0  0
  2 13  2  0  0  0  0
  3 14  2  0  0  0  0
  4 21  1  0  0  0  0
  4 38  1  0  0  0  0
  5 21  2  0  0  0  0
  6  7  1  0  0  0  0
  6  9  1  0  0  0  0
  6 10  1  0  0  0  0
  7 13  1  0  0  0  0
  7 14  1  0  0  0  0
  8 20  1  0  0  0  0
  8 36  1  0  0  0  0
  8 37  1  0  0  0  0
  9 11  2  0  0  0  0
  9 15  1  0  0  0  0
 10 12  2  0  0  0  0
 10 16  1  0  0  0  0
 11 13  1  0  0  0  0
 11 17  1  0  0  0  0
 12 14  1  0  0  0  0
 12 18  1  0  0  0  0
 15 22  1  0  0  0  0
 15 23  1  0  0  0  0
 16 24  1  0  0  0  0
 16 25  1  0  0  0  0
 16 26  1  0  0  0  0
 17 27  1  0  0  0  0
 17 28  1  0  0  0  0
 17 29  1  0  0  0  0
 18 30  1  0  0  0  0
 18 31  1  0  0  0  0
 18 32  1  0  0  0  0
 19 20  1  0  0  0  0
 19 33  1  0  0  0  0
 19 34  1  0  0  0  0
 20 21  1  0  0  0  0
 20 35  1  0  0  0  0
M  END
> <PUBCHEM_COMPOUND_CID>
137326

> <PUBCHEM_CONFORMER_RMSD>
0.8

> <PUBCHEM_CONFORMER_DIVERSEORDER>
1
12
7
13
8
21
14
15
9
18
22
16
10
20
11
17
4
2
6
19
3
5

> <PUBCHEM_MMFF94_PARTIAL_CHARGES>
24
1 -0.46
10 -0.04
11 -0.12
12 -0.12
13 0.62
14 0.62
15 0.37
16 0.14
17 0.14
18 0.14
19 0.23
2 -0.57
20 0.33
21 0.66
3 -0.57
36 0.36
37 0.36
38 0.5
4 -0.65
5 -0.57
6 -0.22
7 -0.1
8 -0.99
9 -0.04

> <PUBCHEM_EFFECTIVE_ROTOR_COUNT>
5

> <PUBCHEM_PHARMACOPHORE_FEATURES>
9
1 2 acceptor
1 3 acceptor
1 4 acceptor
1 5 acceptor
1 8 cation
1 8 donor
3 4 5 21 anion
5 6 7 10 12 14 rings
5 6 7 9 11 13 rings

> <PUBCHEM_HEAVY_ATOM_COUNT>
21

> <PUBCHEM_ATOM_DEF_STEREO_COUNT>
1

> <PUBCHEM_ATOM_UDEF_STEREO_COUNT>
0

> <PUBCHEM_BOND_DEF_STEREO_COUNT>
0

> <PUBCHEM_BOND_UDEF_STEREO_COUNT>
0

> <PUBCHEM_ISOTOPIC_ATOM_COUNT>
0

> <PUBCHEM_COMPONENT_COUNT>
1

> <PUBCHEM_CACTVS_TAUTO_COUNT>
1

> <PUBCHEM_CONFORMER_ID>
0002186E00000001

> <PUBCHEM_MMFF94_ENERGY>
48.3802

> <PUBCHEM_FEATURE_SELFOVERLAP>
45.986

> <PUBCHEM_SHAPE_FINGERPRINT>
10616163 171 18411422830162386022
12107183 9 17975976467082232816
12553582 1 18339354279599361566
12633257 1 17774736358174466025
12788726 201 18334298664831355648
13140716 1 17982467185190451867
13167823 11 18260831480086466480
13583140 156 17916565584789185224
14251751 93 18261948532012422562
14420673 8 17978231552710267294
15042514 8 18410297995291316509
16945 1 18197803165983245613
17780758 139 18265034878758701128
17804303 29 18271811279904200517
1813 80 17385731283350934830
19377110 9 18187076300546983512
20291156 8 18262514917818374140
21650355 55 18412263947746433085
2297311 6 18271260382125150764
2334 1 17478627058546033733
23402539 116 18272930549030365565
23557571 272 18059308603285022900
23559900 14 18340762758131851728
2748010 2 18123780594358450925
2838139 119 14188470139919875107
335352 9 18339365270911139725
5104073 3 18411693271657997736
573450 72 18408881832804305984
57724786 102 15626222472580544832
58807428 26 18194980560325289883
6823239 73 18128830659855287278
7097593 13 18117268160880154938

> <PUBCHEM_SHAPE_MULTIPOLES>
397.6
10.2
3.46
1.09
13.68
0.39
0.22
-3.44
2.68
-3.91
-0.11
0.91
-0.17
-1.03

> <PUBCHEM_SHAPE_SELFOVERLAP>
817.928

> <PUBCHEM_SHAPE_VOLUME>
232.6

> <PUBCHEM_COORDINATE_TYPE>
2
5
10

$$$$
