137321290
  -OEChem-03292013293D

 27 28  0     0  0  0  0  0  0999 V2000
    3.8102   -1.0606   -0.0022 O   0  0  0  0  0  0  0  0  0  0  0  0
    1.5493   -1.4837   -0.0011 N   0  0  0  0  0  0  0  0  0  0  0  0
   -4.0672    1.6639    0.0001 N   0  0  0  0  0  0  0  0  0  0  0  0
   -0.4908   -3.3525    0.0030 N   0  0  0  0  0  0  0  0  0  0  0  0
   -1.5809   -4.1434    0.0000 N   0  0  0  0  0  0  0  0  0  0  0  0
    4.2728    2.5414    0.0021 N   0  0  0  0  0  0  0  0  0  0  0  0
   -0.0461    0.2703   -0.0005 C   0  0  0  0  0  0  0  0  0  0  0  0
    0.2426   -1.0478   -0.0004 C   0  0  0  0  0  0  0  0  0  0  0  0
   -1.4260    0.7483   -0.0003 C   0  0  0  0  0  0  0  0  0  0  0  0
    1.0691    1.2108    0.0003 C   0  0  0  0  0  0  0  0  0  0  0  0
    2.3516    0.8167    0.0002 C   0  0  0  0  0  0  0  0  0  0  0  0
    2.6522   -0.6482   -0.0013 C   0  0  0  0  0  0  0  0  0  0  0  0
   -2.0856    0.9775   -1.2028 C   0  0  0  0  0  0  0  0  0  0  0  0
   -2.0855    0.9764    1.2023 C   0  0  0  0  0  0  0  0  0  0  0  0
   -0.7879   -2.0964   -0.0002 C   0  0  0  0  0  0  0  0  0  0  0  0
   -3.3937    1.4310   -1.1489 C   0  0  0  0  0  0  0  0  0  0  0  0
   -3.3937    1.4298    1.1488 C   0  0  0  0  0  0  0  0  0  0  0  0
    3.4095    1.7664    0.0011 C   0  0  0  0  0  0  0  0  0  0  0  0
    0.8179    2.2694    0.0012 H   0  0  0  0  0  0  0  0  0  0  0  0
    1.7105   -2.4871   -0.0015 H   0  0  0  0  0  0  0  0  0  0  0  0
   -1.6045    0.8110   -2.1613 H   0  0  0  0  0  0  0  0  0  0  0  0
   -1.6044    0.8091    2.1606 H   0  0  0  0  0  0  0  0  0  0  0  0
   -1.8408   -1.7635    0.0006 H   0  0  0  0  0  0  0  0  0  0  0  0
   -3.9523    1.6249   -2.0586 H   0  0  0  0  0  0  0  0  0  0  0  0
   -3.9523    1.6228    2.0587 H   0  0  0  0  0  0  0  0  0  0  0  0
   -2.2468   -3.8498   -0.7139 H   0  0  0  0  0  0  0  0  0  0  0  0
   -1.3028   -5.0982   -0.2184 H   0  0  0  0  0  0  0  0  0  0  0  0
  1 12  2  0  0  0  0
  2  8  1  0  0  0  0
  2 12  1  0  0  0  0
  2 20  1  0  0  0  0
  3 16  2  0  0  0  0
  3 17  1  0  0  0  0
  4  5  1  0  0  0  0
  4 15  2  3  0  0  0
  5 26  1  0  0  0  0
  5 27  1  0  0  0  0
  6 18  3  0  0  0  0
  7  8  2  0  0  0  0
  7  9  1  0  0  0  0
  7 10  1  0  0  0  0
  8 15  1  0  0  0  0
  9 13  2  0  0  0  0
  9 14  1  0  0  0  0
 10 11  2  0  0  0  0
 10 19  1  0  0  0  0
 11 12  1  0  0  0  0
 11 18  1  0  0  0  0
 13 16  1  0  0  0  0
 13 21  1  0  0  0  0
 14 17  2  0  0  0  0
 14 22  1  0  0  0  0
 15 23  1  0  0  0  0
 16 24  1  0  0  0  0
 17 25  1  0  0  0  0
M  END
> <PUBCHEM_COMPOUND_CID>
137321290

> <PUBCHEM_CONFORMER_RMSD>
0.6

> <PUBCHEM_CONFORMER_DIVERSEORDER>
1
2
3

> <PUBCHEM_MMFF94_PARTIAL_CHARGES>
27
1 -0.57
10 -0.15
11 0.08
12 0.62
13 -0.15
14 -0.15
15 0.38
16 0.16
17 0.16
18 0.49
19 0.15
2 -0.54
20 0.37
21 0.15
22 0.15
23 0.06
24 0.15
25 0.15
26 0.36
27 0.36
3 -0.62
4 -0.5
5 -0.67
6 -0.56
7 -0.03
8 0.12
9 0.03

> <PUBCHEM_EFFECTIVE_ROTOR_COUNT>
2

> <PUBCHEM_PHARMACOPHORE_FEATURES>
7
1 1 acceptor
1 2 donor
1 3 acceptor
1 4 acceptor
1 6 acceptor
6 2 7 8 10 11 12 rings
6 3 9 13 14 16 17 rings

> <PUBCHEM_HEAVY_ATOM_COUNT>
18

> <PUBCHEM_ATOM_DEF_STEREO_COUNT>
0

> <PUBCHEM_ATOM_UDEF_STEREO_COUNT>
0

> <PUBCHEM_BOND_DEF_STEREO_COUNT>
0

> <PUBCHEM_BOND_UDEF_STEREO_COUNT>
1

> <PUBCHEM_ISOTOPIC_ATOM_COUNT>
0

> <PUBCHEM_COMPONENT_COUNT>
1

> <PUBCHEM_CACTVS_TAUTO_COUNT>
-1

> <PUBCHEM_CONFORMER_ID>
082F5B4A00000001

> <PUBCHEM_MMFF94_ENERGY>
51.8281

> <PUBCHEM_FEATURE_SELFOVERLAP>
35.523

> <PUBCHEM_SHAPE_FINGERPRINT>
11578080 2 12586409374990620393
11582403 64 16519296303742534277
11725454 13 16807820245167075653
12236239 1 17631724951166906113
12390115 104 18051426346798422112
12553582 1 16826721687799684807
12788726 201 18122890195186506547
13140716 1 18408889503299470282
13380535 21 18338805619107752276
13583140 156 16733528486319479216
14178342 30 18194108840989183960
14787075 74 18131069372718446137
15309172 13 18337394842288308233
15342168 16 18408612473767586741
16945 1 18194682562108302756
1741750 31 18342737472541096736
18186145 218 18341896247103208940
204376 136 18410013230137626529
20645477 70 17901376802271636775
21160774 45 18265613371982709247
21499 59 18411696565339055701
21501502 16 18337950207656506426
21524375 3 18130220467430711501
22079108 93 18201445817561943353
2255824 54 18125439713595495567
23419403 2 16839438961028859719
23558518 356 18188773993254357738
2748010 2 18335999600455257515
283562 15 17832701653750823442
3060560 45 18193551173222947126
352729 6 18342462529951284362
474 4 18270121193251903433
495365 180 18192408806691507853
621550 34 18189061889523634973
633830 44 18059023765428384821
68521 5 17906172106876186014
7364860 26 17905890271407110955
77492 1 17631443476121604193
81228 2 17973163117010526691
8272917 22 18052822434364879677
9981440 41 16839900859023292080

> <PUBCHEM_SHAPE_MULTIPOLES>
339.66
6.67
3.53
0.92
1.91
4.63
0
-5.45
0
-0.31
0
-0.92
-0.38
0

> <PUBCHEM_SHAPE_SELFOVERLAP>
735.134

> <PUBCHEM_SHAPE_VOLUME>
182.9

> <PUBCHEM_COORDINATE_TYPE>
2
5
10

$$$$
