137306479
  -OEChem-03292013293D

 33 36  0     1  0  0  0  0  0999 V2000
   -1.9146   -0.9841    0.3791 O   0  0  0  0  0  0  0  0  0  0  0  0
   -3.7521    1.2918   -1.0462 O   0  0  0  0  0  0  0  0  0  0  0  0
   -4.0685   -2.7529    0.1428 O   0  0  0  0  0  0  0  0  0  0  0  0
    4.4537    1.4054    0.1446 O   0  0  0  0  0  0  0  0  0  0  0  0
    0.0947    0.3932   -0.0717 N   0  0  0  0  0  0  0  0  0  0  0  0
    1.5613    2.0712    0.0562 N   0  0  0  0  0  0  0  0  0  0  0  0
    1.5278   -1.5439   -0.1407 N   0  0  0  0  0  0  0  0  0  0  0  0
    3.8138   -0.8353   -0.0092 N   0  0  0  0  0  0  0  0  0  0  0  0
    3.2700   -3.1200   -0.1690 N   0  0  0  0  0  0  0  0  0  0  0  0
   -1.9003    1.3145    0.4772 C   0  0  2  0  0  0  0  0  0  0  0  0
   -1.3059    0.1161   -0.2651 C   0  0  2  0  0  0  0  0  0  0  0  0
   -3.3538    1.0000    0.2827 C   0  0  2  0  0  0  0  0  0  0  0  0
   -1.0336    2.4801   -0.0211 C   0  0  0  0  0  0  0  0  0  0  0  0
   -3.3034   -0.5350    0.5929 C   0  0  1  0  0  0  0  0  0  0  0  0
    0.2889    1.7629   -0.0237 C   0  0  0  0  0  0  0  0  0  0  0  0
    1.2825   -0.2186   -0.0669 C   0  0  0  0  0  0  0  0  0  0  0  0
   -4.2331   -1.3977   -0.2415 C   0  0  0  0  0  0  0  0  0  0  0  0
    2.1765    0.8356    0.0254 C   0  0  0  0  0  0  0  0  0  0  0  0
    3.5847    0.5464    0.0627 C   0  0  0  0  0  0  0  0  0  0  0  0
    2.8114   -1.8296   -0.1085 C   0  0  0  0  0  0  0  0  0  0  0  0
   -1.7071    1.2177    1.5620 H   0  0  0  0  0  0  0  0  0  0  0  0
   -1.4973    0.0907   -1.3464 H   0  0  0  0  0  0  0  0  0  0  0  0
   -4.0213    1.5269    0.9706 H   0  0  0  0  0  0  0  0  0  0  0  0
   -1.0482    3.3275    0.6680 H   0  0  0  0  0  0  0  0  0  0  0  0
   -1.3040    2.8054   -1.0297 H   0  0  0  0  0  0  0  0  0  0  0  0
   -3.4842   -0.7058    1.6613 H   0  0  0  0  0  0  0  0  0  0  0  0
   -3.9854   -1.3294   -1.3056 H   0  0  0  0  0  0  0  0  0  0  0  0
   -5.2775   -1.1087   -0.0907 H   0  0  0  0  0  0  0  0  0  0  0  0
   -3.6909    2.2549   -1.1641 H   0  0  0  0  0  0  0  0  0  0  0  0
   -4.6747   -3.2813   -0.4039 H   0  0  0  0  0  0  0  0  0  0  0  0
    4.7804   -1.1478    0.0095 H   0  0  0  0  0  0  0  0  0  0  0  0
    2.6287   -3.9023   -0.2412 H   0  0  0  0  0  0  0  0  0  0  0  0
    4.2617   -3.3307   -0.1433 H   0  0  0  0  0  0  0  0  0  0  0  0
  1 11  1  0  0  0  0
  1 14  1  0  0  0  0
  2 12  1  0  0  0  0
  2 29  1  0  0  0  0
  3 17  1  0  0  0  0
  3 30  1  0  0  0  0
  4 19  2  0  0  0  0
  5 11  1  0  0  0  0
  5 15  1  0  0  0  0
  5 16  1  0  0  0  0
  6 15  2  0  0  0  0
  6 18  1  0  0  0  0
  7 16  1  0  0  0  0
  7 20  2  0  0  0  0
  8 19  1  0  0  0  0
  8 20  1  0  0  0  0
  8 31  1  0  0  0  0
  9 20  1  0  0  0  0
  9 32  1  0  0  0  0
  9 33  1  0  0  0  0
 10 11  1  0  0  0  0
 10 12  1  0  0  0  0
 10 13  1  0  0  0  0
 10 21  1  0  0  0  0
 11 22  1  0  0  0  0
 12 14  1  0  0  0  0
 12 23  1  0  0  0  0
 13 15  1  0  0  0  0
 13 24  1  0  0  0  0
 13 25  1  0  0  0  0
 14 17  1  0  0  0  0
 14 26  1  0  0  0  0
 16 18  2  0  0  0  0
 17 27  1  0  0  0  0
 17 28  1  0  0  0  0
 18 19  1  0  0  0  0
M  END
> <PUBCHEM_COMPOUND_CID>
137306479

> <PUBCHEM_CONFORMER_RMSD>
0.6

> <PUBCHEM_CONFORMER_DIVERSEORDER>
1

> <PUBCHEM_MMFF94_PARTIAL_CHARGES>
24
1 -0.56
11 0.54
12 0.28
13 0.18
14 0.28
15 0.01
16 -0.03
17 0.28
18 0.14
19 0.72
2 -0.68
20 0.56
29 0.4
3 -0.68
30 0.4
31 0.37
32 0.4
33 0.4
4 -0.57
5 0.05
6 -0.57
7 -0.58
8 -0.49
9 -0.85

> <PUBCHEM_EFFECTIVE_ROTOR_COUNT>
1.8

> <PUBCHEM_PHARMACOPHORE_FEATURES>
13
1 1 acceptor
1 2 acceptor
1 2 donor
1 3 acceptor
1 3 donor
1 4 acceptor
1 8 donor
1 9 donor
3 5 6 15 cation
5 1 10 11 12 14 rings
5 5 10 11 13 15 rings
5 5 6 15 16 18 rings
6 7 8 16 18 19 20 rings

> <PUBCHEM_HEAVY_ATOM_COUNT>
20

> <PUBCHEM_ATOM_DEF_STEREO_COUNT>
4

> <PUBCHEM_ATOM_UDEF_STEREO_COUNT>
0

> <PUBCHEM_BOND_DEF_STEREO_COUNT>
0

> <PUBCHEM_BOND_UDEF_STEREO_COUNT>
0

> <PUBCHEM_ISOTOPIC_ATOM_COUNT>
0

> <PUBCHEM_COMPONENT_COUNT>
1

> <PUBCHEM_CACTVS_TAUTO_COUNT>
-1

> <PUBCHEM_CONFORMER_ID>
082F216F00000001

> <PUBCHEM_MMFF94_ENERGY>
81.4305

> <PUBCHEM_FEATURE_SELFOVERLAP>
66.728

> <PUBCHEM_SHAPE_FINGERPRINT>
10616163 171 18413111649409311014
10618630 7 18409732837329014212
10967382 1 18339081613384231976
11578080 2 17242158060224026996
11806522 49 18337391650874237264
12839892 36 18339062870558766706
13140716 1 18268717099496153722
13296908 3 18410294674848807179
14223421 5 18411980226501514760
14576447 43 18198898291816741135
14787075 74 18263084490711709688
14790565 3 18122353634018865644
15196674 1 18410856555397595834
15352361 1 18410856590137545059
15442244 35 18124318211909224448
15536298 74 18342177726574918080
16945 1 18410864243479291576
17492 89 18411138017558898787
1813 80 17458637704602638981
19141452 34 18411424986483751897
19591789 44 18124035890982095004
200 152 18131063879444803021
20261772 1 17917431002918372383
20281475 54 18411705348288583200
20645477 70 18340200782834891350
21267235 1 18339371854152050759
21501502 16 18268998583337475656
21673915 165 18340769350605769402
221490 88 18410300177145421306
23184049 29 18339084769905691198
23402539 116 18114454630530176484
23463225 33 18411422773990090396
23559900 14 18339355250283049816
2748010 2 18338798918388999972
2871803 45 18335699463803538659
335352 9 18050569534538400557
33824 294 18410855507847776746
34934 24 18410568470524518201
474229 33 18266457788396681696
5104073 3 18413107242809477576
8809292 202 18262525783932808259
9709674 26 18335145297084780563

> <PUBCHEM_SHAPE_MULTIPOLES>
363.21
8.23
2.86
0.67
0.53
1.23
-0.03
3.36
-0.11
-0.24
-0.06
0.32
-0.07
0.32

> <PUBCHEM_SHAPE_SELFOVERLAP>
813.561

> <PUBCHEM_SHAPE_VOLUME>
189.2

> <PUBCHEM_COORDINATE_TYPE>
2
5
10

$$$$
