137343
  -OEChem-03292013323D

 43 44  0     1  0  0  0  0  0999 V2000
   -1.7784   -1.1075    0.9197 S   0  0  1  0  0  0  0  0  0  0  0  0
    4.4844   -0.0271   -1.6903 O   0  0  0  0  0  0  0  0  0  0  0  0
    2.8589    2.0460    0.9543 O   0  0  0  0  0  0  0  0  0  0  0  0
    0.0189    2.6836   -0.6934 O   0  0  0  0  0  0  0  0  0  0  0  0
   -1.6763   -2.4638    1.5659 O   0  0  0  0  0  0  0  0  0  0  0  0
   -1.3000    2.0193    1.0528 O   0  0  0  0  0  0  0  0  0  0  0  0
   -5.4199    0.6073   -1.6335 O   0  0  0  0  0  0  0  0  0  0  0  0
    1.5841    0.5245   -0.3228 N   0  0  0  0  0  0  0  0  0  0  0  0
   -4.7842   -0.7258    0.1672 N   0  0  0  0  0  0  0  0  0  0  0  0
    2.0704   -0.8692   -0.4349 C   0  0  1  0  0  0  0  0  0  0  0  0
    3.3123   -0.4012    0.3713 C   0  0  1  0  0  0  0  0  0  0  0  0
    0.9360   -1.7153    0.1517 C   0  0  0  0  0  0  0  0  0  0  0  0
    4.6519   -0.4310   -0.3245 C   0  0  0  0  0  0  0  0  0  0  0  0
    2.6374    0.9880    0.4092 C   0  0  0  0  0  0  0  0  0  0  0  0
    0.2778    0.5319    0.0787 C   0  0  0  0  0  0  0  0  0  0  0  0
   -0.1618   -0.7040    0.3448 C   0  0  0  0  0  0  0  0  0  0  0  0
    5.2568   -1.8414   -0.3210 C   0  0  0  0  0  0  0  0  0  0  0  0
    5.6324    0.5592    0.3158 C   0  0  0  0  0  0  0  0  0  0  0  0
   -0.4311    1.7992    0.2239 C   0  0  0  0  0  0  0  0  0  0  0  0
   -2.5600   -1.3274   -0.6982 C   0  0  0  0  0  0  0  0  0  0  0  0
   -4.0257   -1.7042   -0.5652 C   0  0  0  0  0  0  0  0  0  0  0  0
   -5.4203    0.3527   -0.4319 C   0  0  0  0  0  0  0  0  0  0  0  0
   -6.1635    1.2063    0.5604 C   0  0  0  0  0  0  0  0  0  0  0  0
    2.2620   -1.1308   -1.4836 H   0  0  0  0  0  0  0  0  0  0  0  0
    3.3618   -0.8370    1.3793 H   0  0  0  0  0  0  0  0  0  0  0  0
    1.2249   -2.1752    1.1020 H   0  0  0  0  0  0  0  0  0  0  0  0
    0.6295   -2.4974   -0.5504 H   0  0  0  0  0  0  0  0  0  0  0  0
    6.2032   -1.8656   -0.8725 H   0  0  0  0  0  0  0  0  0  0  0  0
    5.4322   -2.1993    0.6987 H   0  0  0  0  0  0  0  0  0  0  0  0
    4.5851   -2.5502   -0.8186 H   0  0  0  0  0  0  0  0  0  0  0  0
    5.3097    1.5978    0.1900 H   0  0  0  0  0  0  0  0  0  0  0  0
    6.6164    0.4928   -0.1629 H   0  0  0  0  0  0  0  0  0  0  0  0
    5.7550    0.3640    1.3864 H   0  0  0  0  0  0  0  0  0  0  0  0
    4.1969    0.9016   -1.7034 H   0  0  0  0  0  0  0  0  0  0  0  0
   -2.4634   -0.3860   -1.2501 H   0  0  0  0  0  0  0  0  0  0  0  0
   -2.0222   -2.1076   -1.2468 H   0  0  0  0  0  0  0  0  0  0  0  0
   -4.1341   -2.6560   -0.0336 H   0  0  0  0  0  0  0  0  0  0  0  0
   -4.4660   -1.8253   -1.5609 H   0  0  0  0  0  0  0  0  0  0  0  0
   -0.4372    3.5494   -0.6246 H   0  0  0  0  0  0  0  0  0  0  0  0
   -4.8581   -0.8421    1.1738 H   0  0  0  0  0  0  0  0  0  0  0  0
   -6.4585    2.1475    0.0884 H   0  0  0  0  0  0  0  0  0  0  0  0
   -7.0580    0.6764    0.8987 H   0  0  0  0  0  0  0  0  0  0  0  0
   -5.5256    1.4311    1.4200 H   0  0  0  0  0  0  0  0  0  0  0  0
  1  5  2  0  0  0  0
  1 16  1  0  0  0  0
  1 20  1  0  0  0  0
  2 13  1  0  0  0  0
  2 34  1  0  0  0  0
  3 14  2  0  0  0  0
  4 19  1  0  0  0  0
  4 39  1  0  0  0  0
  6 19  2  0  0  0  0
  7 22  2  0  0  0  0
  8 10  1  0  0  0  0
  8 14  1  0  0  0  0
  8 15  1  0  0  0  0
  9 21  1  0  0  0  0
  9 22  1  0  0  0  0
  9 40  1  0  0  0  0
 10 11  1  0  0  0  0
 10 12  1  0  0  0  0
 10 24  1  0  0  0  0
 11 13  1  0  0  0  0
 11 14  1  0  0  0  0
 11 25  1  0  0  0  0
 12 16  1  0  0  0  0
 12 26  1  0  0  0  0
 12 27  1  0  0  0  0
 13 17  1  0  0  0  0
 13 18  1  0  0  0  0
 15 16  2  0  0  0  0
 15 19  1  0  0  0  0
 17 28  1  0  0  0  0
 17 29  1  0  0  0  0
 17 30  1  0  0  0  0
 18 31  1  0  0  0  0
 18 32  1  0  0  0  0
 18 33  1  0  0  0  0
 20 21  1  0  0  0  0
 20 35  1  0  0  0  0
 20 36  1  0  0  0  0
 21 37  1  0  0  0  0
 21 38  1  0  0  0  0
 22 23  1  0  0  0  0
 23 41  1  0  0  0  0
 23 42  1  0  0  0  0
 23 43  1  0  0  0  0
M  END
> <PUBCHEM_COMPOUND_CID>
137343

> <PUBCHEM_CONFORMER_RMSD>
0.8

> <PUBCHEM_CONFORMER_DIVERSEORDER>
1
106
61
142
156
121
7
60
133
146
88
29
82
154
40
10
93
132
148
12
51
123
31
137
72
94
8
112
140
111
13
100
116
124
47
119
38
86
152
9
75
134
16
97
162
4
90
125
131
161
35
52
23
24
99
56
138
3
66
108
36
143
115
78
45
84
25
64
26
149
96
103
164
79
113
41
2
136
17
54
127
50
150
160
74
68
122
163
144
128
101
117
147
83
107
151
67
91
135
21
102
6
110
43
126
73
80
70
139
129
98
22
76
155
158
18
157
118
39
89
32
34
49
141
105
62
5
19
14
87
114
55
15
63
57
159
46
92
65
42
120
130
27
20
69
59
30
48
153
145
44
58
11
104
28
85
95
37
53
109
77
71
33
81

> <PUBCHEM_MMFF94_PARTIAL_CHARGES>
24
1 0.25
10 0.22
11 0.05
12 0.14
13 0.28
14 0.58
15 0.12
16 -0.08
19 0.71
2 -0.68
20 0.19
21 0.3
22 0.57
23 0.06
3 -0.57
34 0.4
39 0.5
4 -0.65
40 0.37
5 -0.5
6 -0.57
7 -0.57
8 -0.39
9 -0.73

> <PUBCHEM_EFFECTIVE_ROTOR_COUNT>
7.4

> <PUBCHEM_PHARMACOPHORE_FEATURES>
11
1 2 acceptor
1 2 donor
1 3 acceptor
1 4 acceptor
1 5 acceptor
1 6 acceptor
1 7 acceptor
1 9 donor
3 13 17 18 hydrophobe
3 4 6 19 anion
7 8 10 11 12 14 15 16 rings

> <PUBCHEM_HEAVY_ATOM_COUNT>
23

> <PUBCHEM_ATOM_DEF_STEREO_COUNT>
2

> <PUBCHEM_ATOM_UDEF_STEREO_COUNT>
1

> <PUBCHEM_BOND_DEF_STEREO_COUNT>
0

> <PUBCHEM_BOND_UDEF_STEREO_COUNT>
0

> <PUBCHEM_ISOTOPIC_ATOM_COUNT>
0

> <PUBCHEM_COMPONENT_COUNT>
1

> <PUBCHEM_CACTVS_TAUTO_COUNT>
2

> <PUBCHEM_CONFORMER_ID>
0002187F00000001

> <PUBCHEM_MMFF94_ENERGY>
66.4931

> <PUBCHEM_FEATURE_SELFOVERLAP>
55.878

> <PUBCHEM_SHAPE_FINGERPRINT>
10906281 52 18338253612145302294
11089746 13 17846773014415578561
11578080 2 14202555038216545556
11646440 116 18341059579485121449
12011746 2 18412549808053083790
12236239 1 17632857533953106215
12788726 201 18336541599574124753
13533116 47 18261105215601286162
13583140 156 14117245997218525346
14251752 14 17967808302067349262
15099037 51 18408886252336469455
15163728 17 16157674844649239876
15183329 4 18343018865844896023
15196674 1 18341047523179423113
1601671 61 18410571777897074215
17357779 13 18413103987393116980
17834072 8 18411414016978860071
17980427 23 14620526661338343971
200 152 17632859737086569875
21236236 1 18271528589372864313
21267235 1 18341620325888379523
21279426 13 18337952298857134919
21421861 104 17970620796919116899
21452121 103 18057873826810925168
221357 26 18338789118207359271
23402539 116 18413102874944125575
23402655 69 18412823582143091111
23559900 14 18342171210914669928
3004659 81 18040996216240764762
3286 77 17060339660495860194
335352 9 18412545409679518863
350125 39 18341893017810236664
5104073 3 18339074999319492635
5283173 99 18410569565931342585
542803 24 17458345255784143607
59755656 215 18337956688504258694
59755656 520 17676207966317566779
6913067 236 12319740237149134347
7226269 152 18408038507459797945

> <PUBCHEM_SHAPE_MULTIPOLES>
432
13.07
2.33
1.11
6.56
0.45
0.1
-0.11
2.51
0.4
-0.38
0.39
-0.08
0.41

> <PUBCHEM_SHAPE_SELFOVERLAP>
885.642

> <PUBCHEM_SHAPE_VOLUME>
252.3

> <PUBCHEM_COORDINATE_TYPE>
2
5
10

$$$$
