137365
  -OEChem-03292013323D

 32 33  0     1  0  0  0  0  0999 V2000
   -1.0029   -3.4908    0.3582 O   0  0  0  0  0  0  0  0  0  0  0  0
    0.3165    1.7650   -0.1778 O   0  0  0  0  0  0  0  0  0  0  0  0
   -3.5514    2.7621    0.0132 O   0  0  0  0  0  0  0  0  0  0  0  0
   -2.9699    1.1909    1.5588 O   0  0  0  0  0  0  0  0  0  0  0  0
    5.5218    0.4713   -1.2490 O   0  0  0  0  0  0  0  0  0  0  0  0
    5.0572    0.8278    0.9457 O   0  0  0  0  0  0  0  0  0  0  0  0
   -1.2744    0.0833   -0.2778 N   0  0  0  0  0  0  0  0  0  0  0  0
   -2.4051    0.8667   -0.7692 C   0  0  1  0  0  0  0  0  0  0  0  0
   -3.3601   -0.1831   -1.3303 C   0  0  0  0  0  0  0  0  0  0  0  0
   -3.0497   -1.4543   -0.5312 C   0  0  0  0  0  0  0  0  0  0  0  0
   -1.6159   -1.2483   -0.1492 C   0  0  0  0  0  0  0  0  0  0  0  0
   -0.0032    0.5859   -0.0396 C   0  0  0  0  0  0  0  0  0  0  0  0
   -0.7093   -2.1531    0.2336 C   0  0  0  0  0  0  0  0  0  0  0  0
    1.0086   -0.4335    0.4201 C   0  0  0  0  0  0  0  0  0  0  0  0
   -2.9899    1.5923    0.4047 C   0  0  0  0  0  0  0  0  0  0  0  0
    0.6367   -1.7213    0.5363 C   0  0  0  0  0  0  0  0  0  0  0  0
    2.3906    0.0536    0.7218 C   0  0  0  0  0  0  0  0  0  0  0  0
    3.2996    0.0146   -0.4982 C   0  0  0  0  0  0  0  0  0  0  0  0
    4.7008    0.4708   -0.1701 C   0  0  0  0  0  0  0  0  0  0  0  0
   -2.0550    1.5833   -1.5197 H   0  0  0  0  0  0  0  0  0  0  0  0
   -3.1299   -0.3588   -2.3891 H   0  0  0  0  0  0  0  0  0  0  0  0
   -4.4152    0.0998   -1.2587 H   0  0  0  0  0  0  0  0  0  0  0  0
   -3.2148   -2.3483   -1.1390 H   0  0  0  0  0  0  0  0  0  0  0  0
   -3.6759   -1.5046    0.3662 H   0  0  0  0  0  0  0  0  0  0  0  0
    1.3456   -2.4766    0.8617 H   0  0  0  0  0  0  0  0  0  0  0  0
    2.8264   -0.5678    1.5165 H   0  0  0  0  0  0  0  0  0  0  0  0
    2.3576    1.0658    1.1443 H   0  0  0  0  0  0  0  0  0  0  0  0
    3.3638   -1.0063   -0.8921 H   0  0  0  0  0  0  0  0  0  0  0  0
    2.9061    0.6712   -1.2827 H   0  0  0  0  0  0  0  0  0  0  0  0
   -1.9423   -3.6289    0.1525 H   0  0  0  0  0  0  0  0  0  0  0  0
   -3.9417    3.2520    0.7682 H   0  0  0  0  0  0  0  0  0  0  0  0
    6.4244    0.7818   -1.0224 H   0  0  0  0  0  0  0  0  0  0  0  0
  1 13  1  0  0  0  0
  1 30  1  0  0  0  0
  2 12  2  0  0  0  0
  3 15  1  0  0  0  0
  3 31  1  0  0  0  0
  4 15  2  0  0  0  0
  5 19  1  0  0  0  0
  5 32  1  0  0  0  0
  6 19  2  0  0  0  0
  7  8  1  0  0  0  0
  7 11  1  0  0  0  0
  7 12  1  0  0  0  0
  8  9  1  0  0  0  0
  8 15  1  0  0  0  0
  8 20  1  0  0  0  0
  9 10  1  0  0  0  0
  9 21  1  0  0  0  0
  9 22  1  0  0  0  0
 10 11  1  0  0  0  0
 10 23  1  0  0  0  0
 10 24  1  0  0  0  0
 11 13  2  0  0  0  0
 12 14  1  0  0  0  0
 13 16  1  0  0  0  0
 14 16  2  0  0  0  0
 14 17  1  0  0  0  0
 16 25  1  0  0  0  0
 17 18  1  0  0  0  0
 17 26  1  0  0  0  0
 17 27  1  0  0  0  0
 18 19  1  0  0  0  0
 18 28  1  0  0  0  0
 18 29  1  0  0  0  0
M  END
> <PUBCHEM_COMPOUND_CID>
137365

> <PUBCHEM_CONFORMER_RMSD>
0.6

> <PUBCHEM_CONFORMER_DIVERSEORDER>
11
29
6
34
35
19
33
16
24
31
9
23
20
21
26
32
2
28
27
7
30
25
36
5
17
10
4
12
13
8
15
3
1
14
22
18

> <PUBCHEM_MMFF94_PARTIAL_CHARGES>
22
1 -0.53
10 0.14
11 -0.03
12 0.62
13 0.08
14 -0.12
15 0.66
16 -0.15
17 0.14
18 0.06
19 0.66
2 -0.57
25 0.15
3 -0.65
30 0.45
31 0.5
32 0.5
4 -0.57
5 -0.65
6 -0.57
7 -0.47
8 0.36

> <PUBCHEM_EFFECTIVE_ROTOR_COUNT>
4.6

> <PUBCHEM_PHARMACOPHORE_FEATURES>
10
1 1 donor
1 2 acceptor
1 3 acceptor
1 4 acceptor
1 5 acceptor
1 6 acceptor
3 3 4 15 anion
3 5 6 19 anion
5 7 8 9 10 11 rings
6 7 11 12 13 14 16 rings

> <PUBCHEM_HEAVY_ATOM_COUNT>
19

> <PUBCHEM_ATOM_DEF_STEREO_COUNT>
0

> <PUBCHEM_ATOM_UDEF_STEREO_COUNT>
1

> <PUBCHEM_BOND_DEF_STEREO_COUNT>
0

> <PUBCHEM_BOND_UDEF_STEREO_COUNT>
0

> <PUBCHEM_ISOTOPIC_ATOM_COUNT>
0

> <PUBCHEM_COMPONENT_COUNT>
1

> <PUBCHEM_CACTVS_TAUTO_COUNT>
5

> <PUBCHEM_CONFORMER_ID>
000218950000000B

> <PUBCHEM_MMFF94_ENERGY>
34.5795

> <PUBCHEM_FEATURE_SELFOVERLAP>
50.946

> <PUBCHEM_SHAPE_FINGERPRINT>
10382601 240 17898577466588332769
10411042 1 17761210316238169043
10493431 412 18411142390125197961
12173636 292 18410288077821336364
12236239 1 17385990811514208914
12390115 104 18270695177055396985
12403814 3 17167857560674774436
13140716 1 17903358448215707595
13214271 11 15574712504012395342
13583140 156 16443063924041109504
14790565 3 18266465295515101816
15309172 13 18261109643205431657
15534591 1 18341614785063913755
16945 1 18338503257531235243
1741750 31 18410008832275738434
1813 80 12679184963672283336
18186145 218 18343300353875229064
200 152 12391509767688340716
20300324 65 18201712998401851647
20510252 161 18270675480382642523
20645477 56 18410015442219649348
20871999 31 18412825802440528396
2334 1 18337660932761080683
23366157 5 17898002426524324738
23402539 116 18269826661695938943
23557571 272 18271821154614172142
23559900 14 18413672414410899006
25147074 1 18265031571186100515
2748010 2 18337104554165683511
350125 39 18336267924822583901
5104073 3 18335414669608224554
9709674 26 18271812345663024590

> <PUBCHEM_SHAPE_MULTIPOLES>
350.81
8.56
2.54
1.04
12.81
1.13
0.01
-4.13
1.51
-2.66
-0.44
-0.08
-0.16
-0.48

> <PUBCHEM_SHAPE_SELFOVERLAP>
747.664

> <PUBCHEM_SHAPE_VOLUME>
194.7

> <PUBCHEM_COORDINATE_TYPE>
2
5
10

$$$$
