137387
  -OEChem-03292013323D

 26 26  0     0  0  0  0  0  0999 V2000
   -5.1991   -0.9559   -0.9750 S   0  0  0  0  0  0  0  0  0  0  0  0
    2.8817    2.4606   -0.1835 O   0  0  0  0  0  0  0  0  0  0  0  0
    3.5147   -1.7691   -0.1163 O   0  0  0  0  0  0  0  0  0  0  0  0
    0.8967    3.5622   -0.0710 O   0  0  0  0  0  0  0  0  0  0  0  0
    1.9392   -3.3996    0.0435 O   0  0  0  0  0  0  0  0  0  0  0  0
   -2.3393   -0.4761    0.2735 N   0  0  0  0  0  0  0  0  0  0  0  0
    1.8084    0.1391   -0.0436 N   0  0  0  0  0  0  0  0  0  0  0  0
   -0.9488   -0.2699    0.1674 C   0  0  0  0  0  0  0  0  0  0  0  0
   -3.2838    0.5977    0.3121 C   0  0  0  0  0  0  0  0  0  0  0  0
   -0.4382    1.0215    0.0949 C   0  0  0  0  0  0  0  0  0  0  0  0
   -0.0824   -1.3569    0.1347 C   0  0  0  0  0  0  0  0  0  0  0  0
   -4.7103    0.0781    0.4398 C   0  0  0  0  0  0  0  0  0  0  0  0
    0.9354    1.1708   -0.0087 C   0  0  0  0  0  0  0  0  0  0  0  0
    1.2753   -1.1011    0.0294 C   0  0  0  0  0  0  0  0  0  0  0  0
    1.5237    2.4968   -0.0874 C   0  0  0  0  0  0  0  0  0  0  0  0
    2.2267   -2.1983   -0.0099 C   0  0  0  0  0  0  0  0  0  0  0  0
   -3.0855    1.2420    1.1774 H   0  0  0  0  0  0  0  0  0  0  0  0
   -3.2073    1.2177   -0.5902 H   0  0  0  0  0  0  0  0  0  0  0  0
   -2.6671   -1.4347    0.3173 H   0  0  0  0  0  0  0  0  0  0  0  0
   -1.0762    1.8980    0.1174 H   0  0  0  0  0  0  0  0  0  0  0  0
   -0.4656   -2.3712    0.1903 H   0  0  0  0  0  0  0  0  0  0  0  0
   -4.8204   -0.5209    1.3502 H   0  0  0  0  0  0  0  0  0  0  0  0
   -5.4084    0.9186    0.5061 H   0  0  0  0  0  0  0  0  0  0  0  0
   -6.4432   -1.2179   -0.5486 H   0  0  0  0  0  0  0  0  0  0  0  0
    3.2678    3.3610   -0.2353 H   0  0  0  0  0  0  0  0  0  0  0  0
    4.1478   -2.5180   -0.1424 H   0  0  0  0  0  0  0  0  0  0  0  0
  1 12  1  0  0  0  0
  1 24  1  0  0  0  0
  2 15  1  0  0  0  0
  2 25  1  0  0  0  0
  3 16  1  0  0  0  0
  3 26  1  0  0  0  0
  4 15  2  0  0  0  0
  5 16  2  0  0  0  0
  6  8  1  0  0  0  0
  6  9  1  0  0  0  0
  6 19  1  0  0  0  0
  7 13  2  0  0  0  0
  7 14  1  0  0  0  0
  8 10  2  0  0  0  0
  8 11  1  0  0  0  0
  9 12  1  0  0  0  0
  9 17  1  0  0  0  0
  9 18  1  0  0  0  0
 10 13  1  0  0  0  0
 10 20  1  0  0  0  0
 11 14  2  0  0  0  0
 11 21  1  0  0  0  0
 12 22  1  0  0  0  0
 12 23  1  0  0  0  0
 13 15  1  0  0  0  0
 14 16  1  0  0  0  0
M  END
> <PUBCHEM_COMPOUND_CID>
137387

> <PUBCHEM_CONFORMER_RMSD>
0.6

> <PUBCHEM_CONFORMER_DIVERSEORDER>
1
16
11
10
18
9
4
8
17
14
19
5
13
20
2
6
7
3
15
12

> <PUBCHEM_MMFF94_PARTIAL_CHARGES>
22
1 -0.41
10 -0.15
11 -0.15
12 0.23
13 0.4
14 0.4
15 0.63
16 0.63
19 0.4
2 -0.65
20 0.15
21 0.15
24 0.18
25 0.5
26 0.5
3 -0.65
4 -0.57
5 -0.57
6 -0.87
7 -0.62
8 0.1
9 0.37

> <PUBCHEM_EFFECTIVE_ROTOR_COUNT>
5

> <PUBCHEM_PHARMACOPHORE_FEATURES>
10
1 2 acceptor
1 3 acceptor
1 4 acceptor
1 5 acceptor
1 6 cation
1 6 donor
1 7 acceptor
3 2 4 15 anion
3 3 5 16 anion
6 7 8 10 11 13 14 rings

> <PUBCHEM_HEAVY_ATOM_COUNT>
16

> <PUBCHEM_ATOM_DEF_STEREO_COUNT>
0

> <PUBCHEM_ATOM_UDEF_STEREO_COUNT>
0

> <PUBCHEM_BOND_DEF_STEREO_COUNT>
0

> <PUBCHEM_BOND_UDEF_STEREO_COUNT>
0

> <PUBCHEM_ISOTOPIC_ATOM_COUNT>
0

> <PUBCHEM_COMPONENT_COUNT>
1

> <PUBCHEM_CACTVS_TAUTO_COUNT>
2

> <PUBCHEM_CONFORMER_ID>
000218AB00000001

> <PUBCHEM_MMFF94_ENERGY>
48.3362

> <PUBCHEM_FEATURE_SELFOVERLAP>
50.89

> <PUBCHEM_SHAPE_FINGERPRINT>
10693767 8 18202570587739419846
10967382 1 18410296929891409864
11471102 20 18409448111236016909
12730499 353 18192157203607369227
13009979 54 17773890713700559795
13380535 76 18191303986372793257
13955234 65 18340206396937142915
14178000 15 18340204085859992025
14178000 29 18200316502639252543
14251717 144 18410852183363689495
15442244 35 18268716017708025825
15477762 27 18411980226470048119
15502722 9 18338800117154282871
16945 1 18410300223978208752
17134986 127 18048038759329585892
17539 30 17689710866100036838
20645477 70 18335133224585676635
20671657 1 18341335582177630629
20671657 53 18267869393622652339
20871998 22 18197502809502516286
21029758 11 18336829663030504547
21054139 6 17912069853315048039
212916 134 17912910975310399720
21296965 67 18194964045648723738
21499 59 18121214544261448349
21524375 3 17984707980633702125
21639500 275 18338225072636415717
221490 88 18336271223389232859
2255824 54 18412265055758090871
23402539 116 18197209244182532303
23419403 2 17896860111399377684
23526113 38 18041848298475015931
23559900 14 18411130360101033123
23598291 2 18202846552383443127
257057 1 18121779426527945234
2748010 2 18122330286359476796
3060560 45 18265898136530088980
3071541 12 18410863195443643064
3071541 37 18335426823664246348
3091708 16 9288054643980759448
54173680 148 17545040403288074146
58779409 54 17542214671194691854
6025842 7 18339355379332762895
7364860 26 18410858784475170416
81228 2 17688885137420994274
81539 233 18188771789555969429
84936 182 18129663148454170609

> <PUBCHEM_SHAPE_MULTIPOLES>
299.68
7.44
3.48
0.69
12.13
0.81
0.06
-1.99
1.06
-4.81
0.2
0.52
-0.05
-0.5

> <PUBCHEM_SHAPE_SELFOVERLAP>
611.801

> <PUBCHEM_SHAPE_VOLUME>
174.7

> <PUBCHEM_COORDINATE_TYPE>
2
5
10

$$$$
