137333523
  -OEChem-03292013293D

 26 28  0     0  0  0  0  0  0999 V2000
    1.9001    0.8992   -0.0033 S   0  0  0  0  0  0  0  0  0  0  0  0
    4.7227    1.8172    0.0109 O   0  0  0  0  0  0  0  0  0  0  0  0
   -1.1386    0.8790   -0.0024 N   0  0  0  0  0  0  0  0  0  0  0  0
   -4.0002   -1.1831    0.0029 N   0  0  0  0  0  0  0  0  0  0  0  0
    5.7431   -0.2363   -0.0025 N   0  0  0  0  0  0  0  0  0  0  0  0
   -0.5211   -0.3457   -0.0005 C   0  0  0  0  0  0  0  0  0  0  0  0
   -2.5023    0.7155   -0.0013 C   0  0  0  0  0  0  0  0  0  0  0  0
   -2.7492   -0.6560    0.0013 C   0  0  0  0  0  0  0  0  0  0  0  0
    0.8878   -0.4819   -0.0010 C   0  0  0  0  0  0  0  0  0  0  0  0
   -1.4968   -1.3179    0.0018 C   0  0  0  0  0  0  0  0  0  0  0  0
    1.6122   -1.6536    0.0007 C   0  0  0  0  0  0  0  0  0  0  0  0
   -3.5468    1.6387   -0.0023 C   0  0  0  0  0  0  0  0  0  0  0  0
    3.3124   -0.0691   -0.0021 C   0  0  0  0  0  0  0  0  0  0  0  0
    3.0167   -1.4146    0.0002 C   0  0  0  0  0  0  0  0  0  0  0  0
   -4.8340    1.1106   -0.0007 C   0  0  0  0  0  0  0  0  0  0  0  0
   -4.9961   -0.2682    0.0018 C   0  0  0  0  0  0  0  0  0  0  0  0
    4.5901    0.5663   -0.0034 C   0  0  0  0  0  0  0  0  0  0  0  0
   -0.6643    1.7720   -0.0043 H   0  0  0  0  0  0  0  0  0  0  0  0
   -1.3375   -2.3879    0.0037 H   0  0  0  0  0  0  0  0  0  0  0  0
    1.1734   -2.6438    0.0024 H   0  0  0  0  0  0  0  0  0  0  0  0
   -3.3695    2.7077   -0.0043 H   0  0  0  0  0  0  0  0  0  0  0  0
    3.7547   -2.2062    0.0015 H   0  0  0  0  0  0  0  0  0  0  0  0
   -5.6976    1.7673   -0.0014 H   0  0  0  0  0  0  0  0  0  0  0  0
   -5.9961   -0.6938    0.0031 H   0  0  0  0  0  0  0  0  0  0  0  0
    5.7129   -1.2501   -0.0071 H   0  0  0  0  0  0  0  0  0  0  0  0
    6.6646    0.1886    0.0027 H   0  0  0  0  0  0  0  0  0  0  0  0
  1  9  1  0  0  0  0
  1 13  1  0  0  0  0
  2 17  2  0  0  0  0
  3  6  1  0  0  0  0
  3  7  1  0  0  0  0
  3 18  1  0  0  0  0
  4  8  1  0  0  0  0
  4 16  2  0  0  0  0
  5 17  1  0  0  0  0
  5 25  1  0  0  0  0
  5 26  1  0  0  0  0
  6  9  1  0  0  0  0
  6 10  2  0  0  0  0
  7  8  2  0  0  0  0
  7 12  1  0  0  0  0
  8 10  1  0  0  0  0
  9 11  2  0  0  0  0
 10 19  1  0  0  0  0
 11 14  1  0  0  0  0
 11 20  1  0  0  0  0
 12 15  2  0  0  0  0
 12 21  1  0  0  0  0
 13 14  2  0  0  0  0
 13 17  1  0  0  0  0
 14 22  1  0  0  0  0
 15 16  1  0  0  0  0
 15 23  1  0  0  0  0
 16 24  1  0  0  0  0
M  END
> <PUBCHEM_COMPOUND_CID>
137333523

> <PUBCHEM_CONFORMER_RMSD>
0.6

> <PUBCHEM_CONFORMER_DIVERSEORDER>
1
7
8
3
2
5
6
4

> <PUBCHEM_MMFF94_PARTIAL_CHARGES>
26
1 -0.08
10 -0.15
11 -0.15
12 -0.15
13 -0.05
14 -0.15
15 -0.15
16 0.16
17 0.71
18 0.27
19 0.15
2 -0.57
20 0.15
21 0.15
22 0.15
23 0.15
24 0.15
25 0.37
26 0.37
3 0.03
4 -0.57
5 -0.8
6 -0.15
7 -0.15
8 0.26
9 0.04

> <PUBCHEM_EFFECTIVE_ROTOR_COUNT>
2

> <PUBCHEM_PHARMACOPHORE_FEATURES>
8
1 2 acceptor
1 3 cation
1 3 donor
1 4 acceptor
1 5 donor
5 1 9 11 13 14 rings
5 3 6 7 8 10 rings
6 4 7 8 12 15 16 rings

> <PUBCHEM_HEAVY_ATOM_COUNT>
17

> <PUBCHEM_ATOM_DEF_STEREO_COUNT>
0

> <PUBCHEM_ATOM_UDEF_STEREO_COUNT>
0

> <PUBCHEM_BOND_DEF_STEREO_COUNT>
0

> <PUBCHEM_BOND_UDEF_STEREO_COUNT>
0

> <PUBCHEM_ISOTOPIC_ATOM_COUNT>
0

> <PUBCHEM_COMPONENT_COUNT>
1

> <PUBCHEM_CACTVS_TAUTO_COUNT>
-1

> <PUBCHEM_CONFORMER_ID>
082F8B1300000001

> <PUBCHEM_MMFF94_ENERGY>
29.0612

> <PUBCHEM_FEATURE_SELFOVERLAP>
40.708

> <PUBCHEM_SHAPE_FINGERPRINT>
10014705 185 18261107440293696141
12107183 9 17617093607779768464
12236239 1 18040152920184943898
13081056 2 18411982472932875940
13214271 11 18410011048600065535
14123238 8 18260266347656545621
14252887 29 12973879283042761336
14528608 73 18412545439923663908
15196674 1 18410573959381679846
15375358 24 18407762533961783354
15536298 74 18412264999786216542
17834072 33 18342736329710303542
18522853 276 18411419509677821321
200 152 18060698390520046323
20645477 56 18334576824114250061
20645477 70 18130510713132022366
21267235 1 18410582789834667791
21652331 79 18409166601746911877
23402539 116 18342170085675221975
23402655 69 18272086071917014983
23559900 14 18270398266108908870
245318 6 17026860764213153644
2916195 48 18129934698093555096
300161 21 18334570222807492869
34797466 226 17703517682781745116
3545911 37 18410576171305635581
4214541 1 18410575071947150981
42788 4 18410856568234998918
449060 50 18409450275730683671
465052 167 8286195076369202320
474 4 17822297924246760908
4990 188 17988933262491103958
5104073 3 18335984181522626835
542803 24 18410855455843744000
59755656 215 18340493270967865014
77779 3 18411419488260955111
9709674 26 18410863152673792407

> <PUBCHEM_SHAPE_MULTIPOLES>
332.89
11.73
1.66
0.6
3.42
0.08
0
2.86
0.01
0.11
0
-0.02
0
0.01

> <PUBCHEM_SHAPE_SELFOVERLAP>
731.855

> <PUBCHEM_SHAPE_VOLUME>
182.4

> <PUBCHEM_COORDINATE_TYPE>
2
5
10

$$$$
