137360
  -OEChem-03292013323D

 47 49  0     1  0  0  0  0  0999 V2000
    4.0934   -0.7922    1.2577 S   0  0  0  0  0  0  0  0  0  0  0  0
   -5.9844   -2.2305   -1.6972 O   0  0  0  0  0  0  0  0  0  0  0  0
   -2.2120    1.5876    0.4375 O   0  0  0  0  0  0  0  0  0  0  0  0
    5.3469   -0.1629   -2.3377 O   0  0  0  0  0  0  0  0  0  0  0  0
    6.4896   -1.6837    1.8706 O   0  0  0  0  0  0  0  0  0  0  0  0
    6.1033   -0.9732   -0.3081 N   0  0  0  0  0  0  0  0  0  0  0  0
   -4.3493    0.5236    0.3519 C   0  0  1  0  0  0  0  0  0  0  0  0
   -5.3659   -0.1907   -0.5655 C   0  0  0  0  0  0  0  0  0  0  0  0
   -3.9999   -0.3840    1.5540 C   0  0  0  0  0  0  0  0  0  0  0  0
   -4.9313   -1.6007   -0.9727 C   0  0  1  0  0  0  0  0  0  0  0  0
   -3.5722   -1.7948    1.1483 C   0  0  0  0  0  0  0  0  0  0  0  0
   -4.6065   -2.4575    0.2471 C   0  0  0  0  0  0  0  0  0  0  0  0
   -3.0772    0.8936   -0.4349 C   0  0  0  0  0  0  0  0  0  0  0  0
   -4.9781    1.8282    0.8761 C   0  0  0  0  0  0  0  0  0  0  0  0
   -0.8618    1.4818    0.1990 C   0  0  0  0  0  0  0  0  0  0  0  0
   -0.4105    1.2938   -1.0999 C   0  0  0  0  0  0  0  0  0  0  0  0
    0.0286    1.5651    1.2604 C   0  0  0  0  0  0  0  0  0  0  0  0
    1.8631    1.2689   -0.2836 C   0  0  0  0  0  0  0  0  0  0  0  0
    3.3271    1.1546   -0.5429 C   0  0  0  0  0  0  0  0  0  0  0  0
    0.9589    1.1867   -1.3424 C   0  0  0  0  0  0  0  0  0  0  0  0
    1.3980    1.4581    1.0177 C   0  0  0  0  0  0  0  0  0  0  0  0
    3.8194   -0.2886   -0.4685 C   0  0  1  0  0  0  0  0  0  0  0  0
    5.1526   -0.4540   -1.1623 C   0  0  0  0  0  0  0  0  0  0  0  0
    5.7681   -1.2291    0.9955 C   0  0  0  0  0  0  0  0  0  0  0  0
   -5.5571    0.4041   -1.4685 H   0  0  0  0  0  0  0  0  0  0  0  0
   -6.3394   -0.2598   -0.0597 H   0  0  0  0  0  0  0  0  0  0  0  0
   -4.8833   -0.4735    2.2014 H   0  0  0  0  0  0  0  0  0  0  0  0
   -3.2181    0.0652    2.1780 H   0  0  0  0  0  0  0  0  0  0  0  0
   -4.0647   -1.5491   -1.6405 H   0  0  0  0  0  0  0  0  0  0  0  0
   -3.4317   -2.4039    2.0488 H   0  0  0  0  0  0  0  0  0  0  0  0
   -2.6018   -1.7642    0.6401 H   0  0  0  0  0  0  0  0  0  0  0  0
   -4.2452   -3.4419   -0.0744 H   0  0  0  0  0  0  0  0  0  0  0  0
   -5.5248   -2.6528    0.8166 H   0  0  0  0  0  0  0  0  0  0  0  0
   -3.3313    1.5453   -1.2804 H   0  0  0  0  0  0  0  0  0  0  0  0
   -2.6119   -0.0168   -0.8293 H   0  0  0  0  0  0  0  0  0  0  0  0
   -5.9220    1.6277    1.3963 H   0  0  0  0  0  0  0  0  0  0  0  0
   -4.3237    2.3441    1.5873 H   0  0  0  0  0  0  0  0  0  0  0  0
   -5.1966    2.5205    0.0550 H   0  0  0  0  0  0  0  0  0  0  0  0
   -5.6751   -3.1156   -1.9555 H   0  0  0  0  0  0  0  0  0  0  0  0
   -1.0792    1.2532   -1.9541 H   0  0  0  0  0  0  0  0  0  0  0  0
   -0.3308    1.7149    2.2743 H   0  0  0  0  0  0  0  0  0  0  0  0
    3.5296    1.5657   -1.5418 H   0  0  0  0  0  0  0  0  0  0  0  0
    3.8910    1.8118    0.1337 H   0  0  0  0  0  0  0  0  0  0  0  0
    3.1180   -0.9912   -0.9327 H   0  0  0  0  0  0  0  0  0  0  0  0
    1.3088    1.0432   -2.3613 H   0  0  0  0  0  0  0  0  0  0  0  0
    2.0880    1.5384    1.8530 H   0  0  0  0  0  0  0  0  0  0  0  0
    7.0455   -1.1521   -0.6401 H   0  0  0  0  0  0  0  0  0  0  0  0
  1 22  1  0  0  0  0
  1 24  1  0  0  0  0
  2 10  1  0  0  0  0
  2 39  1  0  0  0  0
  3 13  1  0  0  0  0
  3 15  1  0  0  0  0
  4 23  2  0  0  0  0
  5 24  2  0  0  0  0
  6 23  1  0  0  0  0
  6 24  1  0  0  0  0
  6 47  1  0  0  0  0
  7  8  1  0  0  0  0
  7  9  1  0  0  0  0
  7 13  1  0  0  0  0
  7 14  1  0  0  0  0
  8 10  1  0  0  0  0
  8 25  1  0  0  0  0
  8 26  1  0  0  0  0
  9 11  1  0  0  0  0
  9 27  1  0  0  0  0
  9 28  1  0  0  0  0
 10 12  1  0  0  0  0
 10 29  1  0  0  0  0
 11 12  1  0  0  0  0
 11 30  1  0  0  0  0
 11 31  1  0  0  0  0
 12 32  1  0  0  0  0
 12 33  1  0  0  0  0
 13 34  1  0  0  0  0
 13 35  1  0  0  0  0
 14 36  1  0  0  0  0
 14 37  1  0  0  0  0
 14 38  1  0  0  0  0
 15 16  2  0  0  0  0
 15 17  1  0  0  0  0
 16 20  1  0  0  0  0
 16 40  1  0  0  0  0
 17 21  2  0  0  0  0
 17 41  1  0  0  0  0
 18 19  1  0  0  0  0
 18 20  2  0  0  0  0
 18 21  1  0  0  0  0
 19 22  1  0  0  0  0
 19 42  1  0  0  0  0
 19 43  1  0  0  0  0
 20 45  1  0  0  0  0
 21 46  1  0  0  0  0
 22 23  1  0  0  0  0
 22 44  1  0  0  0  0
M  END
> <PUBCHEM_COMPOUND_CID>
137360

> <PUBCHEM_CONFORMER_RMSD>
1

> <PUBCHEM_CONFORMER_DIVERSEORDER>
2
161
478
163
566
308
435
546
197
462
71
607
492
3
614
231
227
37
485
125
383
621
224
210
18
109
346
353
148
541
305
59
288
25
70
200
119
451
587
658
599
102
545
425
536
265
31
552
14
375
237
30
120
569
613
650
226
80
184
166
12
579
547
39
525
83
129
521
480
94
447
183
617
24
115
32
146
52
193
543
642
48
268
596
564
49
8
133
366
277
523
628
191
29
489
310
638
73
274
449
557
192
393
46
315
159
33
16
298
143
522
190
40
35
90
539
173
91
6
23
81
158
100
261
407
216
177
42
1
519
316
26
132
509
276
89
20
164
212
61
219
475
154
573
253
126
135
21
300
122
82
4
17
278
55
7
299
196
409
79
388
307
397
5
662
45
57
93
97
180
160
98
60
27
358
107
134
182
250
503
15
103
9
65
36
291
104
302

> <PUBCHEM_MMFF94_PARTIAL_CHARGES>
24
1 -0.37
10 0.28
13 0.28
15 0.08
16 -0.15
17 -0.15
18 -0.14
19 0.14
2 -0.68
20 -0.15
21 -0.15
22 0.29
23 0.57
24 0.77
3 -0.36
39 0.4
4 -0.57
40 0.15
41 0.15
45 0.15
46 0.15
47 0.37
5 -0.57
6 -0.49

> <PUBCHEM_EFFECTIVE_ROTOR_COUNT>
6.8

> <PUBCHEM_PHARMACOPHORE_FEATURES>
8
1 2 acceptor
1 2 donor
1 3 acceptor
1 4 acceptor
1 6 donor
5 1 6 22 23 24 rings
6 15 16 17 18 20 21 rings
6 7 8 9 10 11 12 rings

> <PUBCHEM_HEAVY_ATOM_COUNT>
24

> <PUBCHEM_ATOM_DEF_STEREO_COUNT>
0

> <PUBCHEM_ATOM_UDEF_STEREO_COUNT>
3

> <PUBCHEM_BOND_DEF_STEREO_COUNT>
0

> <PUBCHEM_BOND_UDEF_STEREO_COUNT>
0

> <PUBCHEM_ISOTOPIC_ATOM_COUNT>
0

> <PUBCHEM_COMPONENT_COUNT>
1

> <PUBCHEM_CACTVS_TAUTO_COUNT>
3

> <PUBCHEM_CONFORMER_ID>
0002189000000002

> <PUBCHEM_MMFF94_ENERGY>
62.4269

> <PUBCHEM_FEATURE_SELFOVERLAP>
40.597

> <PUBCHEM_SHAPE_FINGERPRINT>
10 15 13398633874626453319
10319926 262 17561369469779576633
10378564 45 13262670410304058416
10447042 23 17458348520686963870
10670039 82 7853577941734074202
11545043 162 17775566438066913913
11796584 16 18412550881304401269
11809386 21 18410012148412373611
12390115 104 11097850775095378925
12596602 18 14979955856706063055
12670543 26 15502375591277366252
12969540 114 13840270316219131280
13761468 95 16517915227302704133
14251751 18 18408037412248191514
14848178 5 18410571799087216994
15163728 17 8286210477889765345
15183329 4 17240484701968018202
15188451 53 17917422160023379735
15250474 111 18260828189561633106
15348495 7 17489584575746596737
15510800 12 18339654394339381351
15880784 105 17917713538857025961
17857418 61 18333731308193814186
19377110 9 12175619594734000293
19958102 18 17603580846192885530
20028762 73 18202280325186164486
20567600 247 18260542321091607554
21315759 148 16773801376873227718
21315763 87 17203608202943440846
21637258 2 18335693936497113932
22061861 79 15863791677629389586
22393880 68 15502657165075183217
2303208 19 16988573364167306148
23522609 53 17899449473878607060
23559900 14 18336260258216640737
23569914 152 15000455052705056194
25122255 55 18059307473745547478
2838139 119 8574427595878230638
3004659 81 18411427211018517476
312425 54 17274832306842637827
314194 84 17967540051727557208
392239 28 13542461003667250127
397830 11 17560788970721399688
4015057 19 16588604070844957908
439807 62 17749116633847443875
5104073 3 17917153896276810553
531348 171 17822004260384972957
559249 180 18409727344941457949
5718773 13 17916014841323087519
960060 61 17167867473992049692

> <PUBCHEM_SHAPE_MULTIPOLES>
469.3
17.12
2.35
1.71
8.49
0.69
0.23
11.32
1.12
-2.14
-0.27
0.9
0.35
-2.08

> <PUBCHEM_SHAPE_SELFOVERLAP>
977.765

> <PUBCHEM_SHAPE_VOLUME>
268.6

> <PUBCHEM_COORDINATE_TYPE>
2
5
10

$$$$
