137324
  -OEChem-03292013323D

 43 44  0     1  0  0  0  0  0999 V2000
   -0.3232   -1.4381   -1.1123 O   0  0  0  0  0  0  0  0  0  0  0  0
    3.5680   -1.7959    1.0094 O   0  0  0  0  0  0  0  0  0  0  0  0
    0.1861    0.7742   -1.5501 O   0  0  0  0  0  0  0  0  0  0  0  0
    5.3850    0.3251    0.6935 O   0  0  0  0  0  0  0  0  0  0  0  0
   -6.0814    2.0510    1.1861 O   0  5  0  0  0  0  0  0  0  0  0  0
   -6.7226    0.0762    0.4729 O   0  0  0  0  0  0  0  0  0  0  0  0
    1.0976   -1.6560   -0.8703 N   0  0  1  0  0  0  0  0  0  0  0  0
    3.0814    0.3931    0.3505 N   0  0  0  0  0  0  0  0  0  0  0  0
    5.4302    3.0820    0.7513 N   0  0  0  0  0  0  0  0  0  0  0  0
   -5.8368    0.9504    0.6351 N   0  3  0  0  0  0  0  0  0  0  0  0
    1.3057   -1.2106    0.5148 C   0  0  1  0  0  0  0  0  0  0  0  0
    0.8575   -2.3502    1.4254 C   0  0  0  0  0  0  0  0  0  0  0  0
    0.6531   -3.5485    0.5058 C   0  0  0  0  0  0  0  0  0  0  0  0
    1.2411   -3.1188   -0.8279 C   0  0  0  0  0  0  0  0  0  0  0  0
    2.7705   -0.9287    0.6632 C   0  0  0  0  0  0  0  0  0  0  0  0
   -0.5734   -0.1047   -1.1710 C   0  0  0  0  0  0  0  0  0  0  0  0
    4.3669    0.9404    0.3840 C   0  0  0  0  0  0  0  0  0  0  0  0
    4.3647    2.4167    0.0060 C   0  0  2  0  0  0  0  0  0  0  0  0
   -1.9550    0.1725   -0.6987 C   0  0  0  0  0  0  0  0  0  0  0  0
    4.5891    2.5780   -1.4923 C   0  0  0  0  0  0  0  0  0  0  0  0
   -2.2211    1.3835   -0.0948 C   0  0  0  0  0  0  0  0  0  0  0  0
   -2.9259   -0.7906   -0.8780 C   0  0  0  0  0  0  0  0  0  0  0  0
   -3.5174    1.6434    0.3500 C   0  0  0  0  0  0  0  0  0  0  0  0
   -4.2222   -0.5307   -0.4333 C   0  0  0  0  0  0  0  0  0  0  0  0
   -4.5180    0.6863    0.1808 C   0  0  0  0  0  0  0  0  0  0  0  0
    0.7722   -0.2987    0.8078 H   0  0  0  0  0  0  0  0  0  0  0  0
    1.5691   -2.5851    2.2238 H   0  0  0  0  0  0  0  0  0  0  0  0
   -0.0979   -2.1055    1.9052 H   0  0  0  0  0  0  0  0  0  0  0  0
   -0.4178   -3.7610    0.4043 H   0  0  0  0  0  0  0  0  0  0  0  0
    1.1385   -4.4490    0.8945 H   0  0  0  0  0  0  0  0  0  0  0  0
    2.3047   -3.3809   -0.8754 H   0  0  0  0  0  0  0  0  0  0  0  0
    0.7521   -3.6126   -1.6749 H   0  0  0  0  0  0  0  0  0  0  0  0
    2.3194    1.0017    0.0615 H   0  0  0  0  0  0  0  0  0  0  0  0
    3.4103    2.8756    0.2861 H   0  0  0  0  0  0  0  0  0  0  0  0
    4.6122    3.6356   -1.7762 H   0  0  0  0  0  0  0  0  0  0  0  0
    3.7839    2.0952   -2.0572 H   0  0  0  0  0  0  0  0  0  0  0  0
    5.5311    2.1169   -1.8113 H   0  0  0  0  0  0  0  0  0  0  0  0
   -1.4492    2.1341    0.0462 H   0  0  0  0  0  0  0  0  0  0  0  0
   -2.7256   -1.7404   -1.3648 H   0  0  0  0  0  0  0  0  0  0  0  0
    5.2973    2.9366    1.7512 H   0  0  0  0  0  0  0  0  0  0  0  0
    6.3332    2.6727    0.5143 H   0  0  0  0  0  0  0  0  0  0  0  0
   -3.7109    2.6018    0.8251 H   0  0  0  0  0  0  0  0  0  0  0  0
   -4.9769   -1.2984   -0.5842 H   0  0  0  0  0  0  0  0  0  0  0  0
  1  7  1  0  0  0  0
  1 16  1  0  0  0  0
  2 15  2  0  0  0  0
  3 16  2  0  0  0  0
  4 17  2  0  0  0  0
  5 10  1  0  0  0  0
  6 10  2  0  0  0  0
  7 11  1  0  0  0  0
  7 14  1  0  0  0  0
  8 15  1  0  0  0  0
  8 17  1  0  0  0  0
  8 33  1  0  0  0  0
  9 18  1  0  0  0  0
  9 40  1  0  0  0  0
  9 41  1  0  0  0  0
 10 25  1  0  0  0  0
 11 12  1  0  0  0  0
 11 15  1  0  0  0  0
 11 26  1  0  0  0  0
 12 13  1  0  0  0  0
 12 27  1  0  0  0  0
 12 28  1  0  0  0  0
 13 14  1  0  0  0  0
 13 29  1  0  0  0  0
 13 30  1  0  0  0  0
 14 31  1  0  0  0  0
 14 32  1  0  0  0  0
 16 19  1  0  0  0  0
 17 18  1  0  0  0  0
 18 20  1  0  0  0  0
 18 34  1  0  0  0  0
 19 21  2  0  0  0  0
 19 22  1  0  0  0  0
 20 35  1  0  0  0  0
 20 36  1  0  0  0  0
 20 37  1  0  0  0  0
 21 23  1  0  0  0  0
 21 38  1  0  0  0  0
 22 24  2  0  0  0  0
 22 39  1  0  0  0  0
 23 25  2  0  0  0  0
 23 42  1  0  0  0  0
 24 25  1  0  0  0  0
 24 43  1  0  0  0  0
M  CHG  2   5  -1  10   1
M  END
> <PUBCHEM_COMPOUND_CID>
137324

> <PUBCHEM_CONFORMER_RMSD>
1

> <PUBCHEM_CONFORMER_DIVERSEORDER>
1
69
10
18
90
29
36
30
103
93
94
56
38
100
64
66
76
16
80
25
20
75
74
3
17
77
88
91
24
40
102
44
26
41
32
53
96
60
101
92
61
89
71
78
82
59
98
28
33
13
95
15
11
70
48
27
39
8
72
86
83
84
12
7
46
62
42
97
54
14
58
73
65
4
79
31
68
21
81
49
19
5
35
85
23
34
51
52
87
67
22
37
50
43
45
55
63
99
6
57
2
47
9

> <PUBCHEM_MMFF94_PARTIAL_CHARGES>
29
1 -0.05
10 0.91
11 0.33
14 0.27
15 0.57
16 0.63
17 0.57
18 0.33
19 0.09
2 -0.57
21 -0.15
22 -0.15
23 -0.15
24 -0.15
25 0.13
3 -0.57
33 0.37
38 0.15
39 0.15
4 -0.57
40 0.36
41 0.36
42 0.15
43 0.15
5 -0.52
6 -0.52
7 -0.64
8 -0.49
9 -0.99

> <PUBCHEM_EFFECTIVE_ROTOR_COUNT>
9

> <PUBCHEM_PHARMACOPHORE_FEATURES>
11
1 2 acceptor
1 3 acceptor
1 4 acceptor
1 5 acceptor
1 5 anion
1 6 acceptor
1 8 donor
1 9 cation
1 9 donor
5 7 11 12 13 14 rings
6 19 21 22 23 24 25 rings

> <PUBCHEM_HEAVY_ATOM_COUNT>
25

> <PUBCHEM_ATOM_DEF_STEREO_COUNT>
2

> <PUBCHEM_ATOM_UDEF_STEREO_COUNT>
0

> <PUBCHEM_BOND_DEF_STEREO_COUNT>
0

> <PUBCHEM_BOND_UDEF_STEREO_COUNT>
0

> <PUBCHEM_ISOTOPIC_ATOM_COUNT>
0

> <PUBCHEM_COMPONENT_COUNT>
1

> <PUBCHEM_CACTVS_TAUTO_COUNT>
3

> <PUBCHEM_CONFORMER_ID>
0002186C00000001

> <PUBCHEM_MMFF94_ENERGY>
65.4824

> <PUBCHEM_FEATURE_SELFOVERLAP>
55.907

> <PUBCHEM_SHAPE_FINGERPRINT>
10378564 45 10447644652688322411
10493431 412 18264202676936565884
10674148 151 18271817835190671132
12390115 104 18267876149474301190
12596602 18 18411140204508694427
12788726 201 17034185787917437294
12895836 83 17059770160749207372
12895837 130 17484513792172855464
13955234 65 18264490589721600482
14251764 75 18190746538784947556
14341114 328 18413101749910438603
14429115 67 10953728985586418960
1454969 45 18270956960182133647
146900 427 18409729551874146849
14787075 74 18341325669641070371
14790565 3 18341613749876964809
14840074 17 17894632603493801668
14849402 71 18334577907010556634
14863182 85 15358266961363442667
15142526 21 18409726308936351440
15183329 4 9007062370497658419
15342168 16 18334575780500578844
15475509 35 16299216909881949954
17349148 13 12613038253956181613
18222031 100 8574439729192574844
18785283 64 18336260129536459314
20626108 58 10953458531168495212
20739085 24 18186803543799768588
21250096 35 8646774412960883412
21365058 113 17626966178895314262
21756936 100 18199178671898310596
22224240 67 18334008419473397555
23559900 14 17486779576082909367
2637199 183 18412825802851867878
3027735 51 11094796357410519884
3411729 13 18341334409477414215
3729539 64 13829589621333077277
38570 142 18340782502370298692
392239 28 17749380468907685826
4340502 62 18259990374886479619
474 4 18408600357748493482
5104073 3 18260544537052302123
633830 44 18272083894542988062
6438754 60 11383846938997643268
76465 3 7997976781828345806
7808743 9 18201150056964544154
960060 61 11383830502342157784

> <PUBCHEM_SHAPE_MULTIPOLES>
459.35
13.32
3.58
1.26
9.15
1.36
-0.19
-12.46
3.99
-4.17
0.29
-0.28
0.04
-1.35

> <PUBCHEM_SHAPE_SELFOVERLAP>
967.346

> <PUBCHEM_SHAPE_VOLUME>
258.9

> <PUBCHEM_COORDINATE_TYPE>
2
5
10

$$$$
