13755
  -OEChem-03292013323D

 34 35  0     0  0  0  0  0  0999 V2000
    1.8435   -2.0107   -0.4249 S   0  0  0  0  0  0  0  0  0  0  0  0
    3.0378   -2.7217    0.0159 O   0  0  0  0  0  0  0  0  0  0  0  0
    1.3148   -2.2835   -1.7558 O   0  0  0  0  0  0  0  0  0  0  0  0
   -3.8705    0.8514    0.3634 O   0  0  0  0  0  0  0  0  0  0  0  0
    0.6077   -2.2622    0.7490 N   0  0  0  0  0  0  0  0  0  0  0  0
   -1.3572   -1.5766   -0.3686 N   0  0  0  0  0  0  0  0  0  0  0  0
    2.9324    3.8170    0.0334 N   0  0  0  0  0  0  0  0  0  0  0  0
   -2.4723   -0.8045   -0.4689 N   0  0  0  0  0  0  0  0  0  0  0  0
    2.1629   -0.2995   -0.2903 C   0  0  0  0  0  0  0  0  0  0  0  0
    3.1319    0.1610    0.6015 C   0  0  0  0  0  0  0  0  0  0  0  0
    1.4495    0.6072   -1.0743 C   0  0  0  0  0  0  0  0  0  0  0  0
   -0.5554   -1.4177    0.6989 C   0  0  0  0  0  0  0  0  0  0  0  0
    2.6737    2.4346   -0.0746 C   0  0  0  0  0  0  0  0  0  0  0  0
    3.3871    1.5280    0.7093 C   0  0  0  0  0  0  0  0  0  0  0  0
    1.7049    1.9743   -0.9664 C   0  0  0  0  0  0  0  0  0  0  0  0
   -0.7937   -0.5140    1.7066 C   0  0  0  0  0  0  0  0  0  0  0  0
   -1.9282    0.2717    1.6046 C   0  0  0  0  0  0  0  0  0  0  0  0
   -2.7396    0.0946    0.5019 C   0  0  0  0  0  0  0  0  0  0  0  0
   -4.6619    0.6179   -0.7968 C   0  0  0  0  0  0  0  0  0  0  0  0
   -5.8676    1.5328   -0.7636 C   0  0  0  0  0  0  0  0  0  0  0  0
    0.9456   -2.4543    1.7016 H   0  0  0  0  0  0  0  0  0  0  0  0
    3.6944   -0.5259    1.2275 H   0  0  0  0  0  0  0  0  0  0  0  0
    0.6896    0.2720   -1.7745 H   0  0  0  0  0  0  0  0  0  0  0  0
    4.1433    1.8746    1.4090 H   0  0  0  0  0  0  0  0  0  0  0  0
    1.1418    2.6709   -1.5823 H   0  0  0  0  0  0  0  0  0  0  0  0
   -0.1255   -0.4088    2.5543 H   0  0  0  0  0  0  0  0  0  0  0  0
   -2.1659    1.0022    2.3700 H   0  0  0  0  0  0  0  0  0  0  0  0
    3.6334    4.1516    0.6810 H   0  0  0  0  0  0  0  0  0  0  0  0
    2.4141    4.4748   -0.5336 H   0  0  0  0  0  0  0  0  0  0  0  0
   -4.0769    0.8283   -1.7002 H   0  0  0  0  0  0  0  0  0  0  0  0
   -5.0048   -0.4236   -0.8170 H   0  0  0  0  0  0  0  0  0  0  0  0
   -6.4994    1.3796   -1.6431 H   0  0  0  0  0  0  0  0  0  0  0  0
   -6.4647    1.3514    0.1362 H   0  0  0  0  0  0  0  0  0  0  0  0
   -5.5549    2.5817   -0.7316 H   0  0  0  0  0  0  0  0  0  0  0  0
  1  2  2  0  0  0  0
  1  3  2  0  0  0  0
  1  5  1  0  0  0  0
  1  9  1  0  0  0  0
  4 18  1  0  0  0  0
  4 19  1  0  0  0  0
  5 12  1  0  0  0  0
  5 21  1  0  0  0  0
  6  8  1  0  0  0  0
  6 12  2  0  0  0  0
  7 13  1  0  0  0  0
  7 28  1  0  0  0  0
  7 29  1  0  0  0  0
  8 18  2  0  0  0  0
  9 10  2  0  0  0  0
  9 11  1  0  0  0  0
 10 14  1  0  0  0  0
 10 22  1  0  0  0  0
 11 15  2  0  0  0  0
 11 23  1  0  0  0  0
 12 16  1  0  0  0  0
 13 14  2  0  0  0  0
 13 15  1  0  0  0  0
 14 24  1  0  0  0  0
 15 25  1  0  0  0  0
 16 17  2  0  0  0  0
 16 26  1  0  0  0  0
 17 18  1  0  0  0  0
 17 27  1  0  0  0  0
 19 20  1  0  0  0  0
 19 30  1  0  0  0  0
 19 31  1  0  0  0  0
 20 32  1  0  0  0  0
 20 33  1  0  0  0  0
 20 34  1  0  0  0  0
M  END
> <PUBCHEM_COMPOUND_CID>
13755

> <PUBCHEM_CONFORMER_RMSD>
0.8

> <PUBCHEM_CONFORMER_DIVERSEORDER>
1
8
4
28
19
30
2
5
25
32
7
40
38
13
23
33
34
31
3
6
15
22
17
39
35
20
11
29
21
16
18
12
24
27
10
37
14
36
9
26

> <PUBCHEM_MMFF94_PARTIAL_CHARGES>
28
1 1.45
10 -0.15
11 -0.15
12 0.51
13 0.1
14 -0.15
15 -0.15
16 -0.15
17 -0.15
18 0.39
19 0.28
2 -0.65
21 0.42
22 0.15
23 0.15
24 0.15
25 0.15
26 0.15
27 0.15
28 0.4
29 0.4
3 -0.65
4 -0.36
5 -0.76
6 -0.31
7 -0.9
8 -0.31
9 -0.01

> <PUBCHEM_EFFECTIVE_ROTOR_COUNT>
5

> <PUBCHEM_PHARMACOPHORE_FEATURES>
8
1 2 acceptor
1 3 acceptor
1 5 donor
1 6 acceptor
1 7 cation
1 7 donor
6 6 8 12 16 17 18 rings
6 9 10 11 13 14 15 rings

> <PUBCHEM_HEAVY_ATOM_COUNT>
20

> <PUBCHEM_ATOM_DEF_STEREO_COUNT>
0

> <PUBCHEM_ATOM_UDEF_STEREO_COUNT>
0

> <PUBCHEM_BOND_DEF_STEREO_COUNT>
0

> <PUBCHEM_BOND_UDEF_STEREO_COUNT>
0

> <PUBCHEM_ISOTOPIC_ATOM_COUNT>
0

> <PUBCHEM_COMPONENT_COUNT>
1

> <PUBCHEM_CACTVS_TAUTO_COUNT>
2

> <PUBCHEM_CONFORMER_ID>
000035BB00000001

> <PUBCHEM_MMFF94_ENERGY>
55.1364

> <PUBCHEM_FEATURE_SELFOVERLAP>
40.615

> <PUBCHEM_SHAPE_FINGERPRINT>
11140007 195 14779535738938750849
11370993 70 18267298905600888369
11640471 11 18059297672556136126
12011746 2 18409173173705913598
12633257 1 16009858618951197052
12788726 201 17685786722798835330
13134695 92 18265056834336580126
13583140 156 18187374186171921131
14115302 16 17489014973253181287
14250199 8 18270692973647269291
14251764 30 10737827743789674600
15061688 2 18338792437431160352
17492 54 13829274178029130512
17980427 23 18054474067927459226
18186145 218 18263659385222577235
192875 21 18200313204130197123
20510252 161 17405440274255680178
20621476 13 18408040732206027485
20715895 44 18266449928712434241
21304303 282 17411872339942235518
21475661 188 17821721715903649693
21524375 3 17983027927161684066
21713013 43 12535089514965816161
22892500 29 18334859376911760206
22956985 138 9065151841525491495
23419403 2 16664265735038920698
23559900 14 18342455919870067346
238 59 18343033202086676459
3052486 1 15050576432096186773
3060560 45 18265894653443824663
43658 37 18409447020609917673
474 4 18409728478063679601
495365 180 18341607156975578024
57527585 21 14761552363263028296
81228 2 17326078160728965338
84936 182 18271809059427487240
9981440 41 18122618628994058856

> <PUBCHEM_SHAPE_MULTIPOLES>
377.91
8.31
3.28
1.33
12.92
0.98
-0.14
5.52
1.46
-3.9
0.5
0.27
-0.25
0.74

> <PUBCHEM_SHAPE_SELFOVERLAP>
782.433

> <PUBCHEM_SHAPE_VOLUME>
216.2

> <PUBCHEM_COORDINATE_TYPE>
2
5
10

$$$$
