137520952
  -OEChem-03292013293D

 39 38  0     1  0  0  0  0  0999 V2000
   -2.0854   -1.9902    0.6139 O   0  0  0  0  0  0  0  0  0  0  0  0
    0.0420   -1.0094    1.9137 O   0  0  0  0  0  0  0  0  0  0  0  0
    1.6225    2.2766   -0.1872 O   0  0  0  0  0  0  0  0  0  0  0  0
    3.6391    1.9519    0.7722 O   0  0  0  0  0  0  0  0  0  0  0  0
    0.9037   -0.2291   -0.0964 N   0  0  0  0  0  0  0  0  0  0  0  0
   -1.8477    1.4478   -0.6720 N   0  0  0  0  0  0  0  0  0  0  0  0
   -2.3536    0.3834    0.2074 C   0  0  1  0  0  0  0  0  0  0  0  0
   -3.8585    0.0981   -0.0596 C   0  0  0  0  0  0  0  0  0  0  0  0
   -1.4476   -0.8541    0.0356 C   0  0  1  0  0  0  0  0  0  0  0  0
    2.2574   -0.0017    0.3544 C   0  0  1  0  0  0  0  0  0  0  0  0
    3.2390   -0.8939   -0.4353 C   0  0  0  0  0  0  0  0  0  0  0  0
   -0.0966   -0.7171    0.7269 C   0  0  0  0  0  0  0  0  0  0  0  0
   -4.1455   -0.4283   -1.4700 C   0  0  0  0  0  0  0  0  0  0  0  0
   -4.7303    1.3304    0.2158 C   0  0  0  0  0  0  0  0  0  0  0  0
    3.3616   -0.4646   -1.8999 C   0  0  0  0  0  0  0  0  0  0  0  0
    2.9033   -2.3859   -0.3468 C   0  0  0  0  0  0  0  0  0  0  0  0
    2.5964    1.4860    0.3270 C   0  0  0  0  0  0  0  0  0  0  0  0
   -2.2638    0.7350    1.2440 H   0  0  0  0  0  0  0  0  0  0  0  0
   -4.1865   -0.6720    0.6510 H   0  0  0  0  0  0  0  0  0  0  0  0
   -1.2958   -1.0803   -1.0272 H   0  0  0  0  0  0  0  0  0  0  0  0
    2.3094   -0.2861    1.4132 H   0  0  0  0  0  0  0  0  0  0  0  0
    4.2322   -0.7581    0.0145 H   0  0  0  0  0  0  0  0  0  0  0  0
    0.6698    0.0332   -1.0494 H   0  0  0  0  0  0  0  0  0  0  0  0
   -3.6118   -1.3630   -1.6657 H   0  0  0  0  0  0  0  0  0  0  0  0
   -5.7920    1.0622    0.1790 H   0  0  0  0  0  0  0  0  0  0  0  0
   -4.5269    1.7382    1.2115 H   0  0  0  0  0  0  0  0  0  0  0  0
   -4.5673    2.1227   -0.5218 H   0  0  0  0  0  0  0  0  0  0  0  0
   -5.2146   -0.6340   -1.5924 H   0  0  0  0  0  0  0  0  0  0  0  0
   -3.8573    0.2965   -2.2384 H   0  0  0  0  0  0  0  0  0  0  0  0
   -2.3493    2.3153   -0.4890 H   0  0  0  0  0  0  0  0  0  0  0  0
   -0.8707    1.6392   -0.4531 H   0  0  0  0  0  0  0  0  0  0  0  0
    1.9632   -2.6223   -0.8560 H   0  0  0  0  0  0  0  0  0  0  0  0
    2.4151   -0.5819   -2.4374 H   0  0  0  0  0  0  0  0  0  0  0  0
    4.1117   -1.0746   -2.4154 H   0  0  0  0  0  0  0  0  0  0  0  0
    3.6772    0.5797   -1.9877 H   0  0  0  0  0  0  0  0  0  0  0  0
    3.6929   -2.9860   -0.8119 H   0  0  0  0  0  0  0  0  0  0  0  0
    2.8161   -2.7018    0.6980 H   0  0  0  0  0  0  0  0  0  0  0  0
   -1.5613   -2.7736    0.3741 H   0  0  0  0  0  0  0  0  0  0  0  0
    1.8706    3.2253   -0.1651 H   0  0  0  0  0  0  0  0  0  0  0  0
  1  9  1  0  0  0  0
  1 38  1  0  0  0  0
  2 12  2  0  0  0  0
  3 17  1  0  0  0  0
  3 39  1  0  0  0  0
  4 17  2  0  0  0  0
  5 10  1  0  0  0  0
  5 12  1  0  0  0  0
  5 23  1  0  0  0  0
  6  7  1  0  0  0  0
  6 30  1  0  0  0  0
  6 31  1  0  0  0  0
  7  8  1  0  0  0  0
  7  9  1  0  0  0  0
  7 18  1  0  0  0  0
  8 13  1  0  0  0  0
  8 14  1  0  0  0  0
  8 19  1  0  0  0  0
  9 12  1  0  0  0  0
  9 20  1  0  0  0  0
 10 11  1  0  0  0  0
 10 17  1  0  0  0  0
 10 21  1  0  0  0  0
 11 15  1  0  0  0  0
 11 16  1  0  0  0  0
 11 22  1  0  0  0  0
 13 24  1  0  0  0  0
 13 28  1  0  0  0  0
 13 29  1  0  0  0  0
 14 25  1  0  0  0  0
 14 26  1  0  0  0  0
 14 27  1  0  0  0  0
 15 33  1  0  0  0  0
 15 34  1  0  0  0  0
 15 35  1  0  0  0  0
 16 32  1  0  0  0  0
 16 36  1  0  0  0  0
 16 37  1  0  0  0  0
M  END
> <PUBCHEM_COMPOUND_CID>
137520952

> <PUBCHEM_CONFORMER_RMSD>
0.8

> <PUBCHEM_CONFORMER_DIVERSEORDER>
1
172
214
213
164
112
57
27
351
135
41
138
400
59
392
250
32
238
42
151
192
257
179
367
206
217
45
316
224
386
302
343
325
152
323
215
5
397
195
145
160
197
221
317
162
327
62
52
108
74
284
355
362
86
320
228
81
187
220
350
95
56
77
298
97
366
307
188
196
122
244
395
223
301
264
296
24
219
380
201
342
65
144
125
385
155
251
199
253
61
339
13
335
36
191
16
118
360
332
98
375
382
93
363
381
194
31
347
300
283
85
340
286
73
87
356
315
102
268
282
383
146
352
30
37
358
308
374
69
242
227
272
18
403
190
80
398
248
318
134
254
26
174
396
15
120
312
58
167
236
329
255
290
303
281
64
280
78
346
48
389
142
377
391
131
359
153
165
212
114
171
293
181
38
378
370
178
126
182
89
278
311
23
105
46
384
234
186
2
277
183
305
285
337
369
133
210
310
390
10
175
8
204
259
90
354
49
388
109
279
275
101
294
292
60
50
53
198
177
117
19
341
127
313
66
232
107
319
256
273
330
297
169
371
211
233
88
373
103
361
274
71
205
70
258
137
63
124
185
25
306
20
150
161
193
106
288
3
299
173
92
245
119
331
209
387
158
295
249
184
104
72
35
229
401
262
83
130
267
376
163
269
344
399
128
12
218
132
309
143
44
123
240
68
304
170
166
247
91
156
266
222
263
75
176
94
379
39
129
116
111
365
21
368
203
9
43
243
17
141
402
79
11
207
202
338
287
113
345
115
180
225
226
357
348
76
265
326
271
4
200
55
29
110
148
364
260
96
334
208
14
261
22
157
231
393
276
230
239
47
235
333
139
189
353
154
241
28
34
100
372
84
67
289
349
140
328
40
147
394
99
82
314
270
121
168
149
321
33
324
237
159
336
6
7
322
54
246
216
252
51
136
291

> <PUBCHEM_MMFF94_PARTIAL_CHARGES>
16
1 -0.68
10 0.36
12 0.57
17 0.66
2 -0.57
23 0.37
3 -0.65
30 0.36
31 0.36
38 0.4
39 0.5
4 -0.57
5 -0.73
6 -0.99
7 0.27
9 0.34

> <PUBCHEM_EFFECTIVE_ROTOR_COUNT>
7

> <PUBCHEM_PHARMACOPHORE_FEATURES>
11
1 1 acceptor
1 1 donor
1 2 acceptor
1 3 acceptor
1 4 acceptor
1 5 donor
1 6 cation
1 6 donor
3 11 15 16 hydrophobe
3 3 4 17 anion
3 8 13 14 hydrophobe

> <PUBCHEM_HEAVY_ATOM_COUNT>
17

> <PUBCHEM_ATOM_DEF_STEREO_COUNT>
0

> <PUBCHEM_ATOM_UDEF_STEREO_COUNT>
3

> <PUBCHEM_BOND_DEF_STEREO_COUNT>
0

> <PUBCHEM_BOND_UDEF_STEREO_COUNT>
0

> <PUBCHEM_ISOTOPIC_ATOM_COUNT>
0

> <PUBCHEM_COMPONENT_COUNT>
1

> <PUBCHEM_CACTVS_TAUTO_COUNT>
-1

> <PUBCHEM_CONFORMER_ID>
0832673800000001

> <PUBCHEM_MMFF94_ENERGY>
23.1777

> <PUBCHEM_FEATURE_SELFOVERLAP>
55.891

> <PUBCHEM_SHAPE_FINGERPRINT>
10608611 8 18410011073916130105
11132069 177 18040430027443717181
11543360 7 17846209007979330279
12616999 72 16415479384807729740
14250199 8 18410575097780355845
15219456 202 18339647844508200682
15536298 74 18341892995818214469
18186145 218 18261108565268893029
19026448 5 17632293476050771949
200 152 17704354376865501098
20645477 56 18334015016532432763
20645477 70 17917716803032385334
20671657 53 17988089863937018118
212847 35 18114186280699053477
21486144 27 18408039632514161711
21947302 44 18411699915571522824
22096605 113 18201715218921036128
22802520 49 18335993024891982602
23402539 116 18270391681622870231
23402655 69 18272933804025011141
23557571 272 18193843866643704715
23559900 14 18412542111466544634
2748010 2 18117567433668304403
3060560 45 18059579044807592814
3286 77 18337386033257520022
4028521 119 18187356641071605029
58051976 100 18272653433097722967
6049 1 18117860973213573946
633830 44 18409445865289887501
69090 78 18411975879925987535
7364860 26 18341891888032897018
74978 22 18412270535983373274
81228 2 17243593171811660123
93112 12 18413111670878885662
9709674 26 18340487871502558791

> <PUBCHEM_SHAPE_MULTIPOLES>
316.41
8.51
2.13
1.27
5.49
0.35
0.18
1.13
2.28
-1.63
-0.19
-0.25
-0.32
0.51

> <PUBCHEM_SHAPE_SELFOVERLAP>
606.958

> <PUBCHEM_SHAPE_VOLUME>
193.7

> <PUBCHEM_COORDINATE_TYPE>
2
5
10

$$$$
