137630424
  -OEChem-03292013293D

 39 41  0     1  0  0  0  0  0999 V2000
   -4.0819    0.5968    1.3817 O   0  0  0  0  0  0  0  0  0  0  0  0
   -3.1075   -2.0387    0.8180 O   0  0  0  0  0  0  0  0  0  0  0  0
    0.0675    2.5498   -0.0075 O   0  0  0  0  0  0  0  0  0  0  0  0
   -0.3591   -2.7692   -0.2590 O   0  0  0  0  0  0  0  0  0  0  0  0
    2.5888    2.4223    0.2597 O   0  0  0  0  0  0  0  0  0  0  0  0
    2.1611   -3.0696   -0.0106 O   0  0  0  0  0  0  0  0  0  0  0  0
    4.7991    0.8348    0.4034 O   0  0  0  0  0  0  0  0  0  0  0  0
   -3.9126    0.8842   -0.0097 C   0  0  2  0  0  0  0  0  0  0  0  0
   -3.9519   -0.4346   -0.7937 C   0  0  0  0  0  0  0  0  0  0  0  0
   -2.5600    1.5898   -0.2177 C   0  0  0  0  0  0  0  0  0  0  0  0
   -2.7993   -1.3738   -0.4074 C   0  0  1  0  0  0  0  0  0  0  0  0
   -1.3642    0.6646   -0.1709 C   0  0  0  0  0  0  0  0  0  0  0  0
   -1.4732   -0.6728   -0.2385 C   0  0  0  0  0  0  0  0  0  0  0  0
   -5.0670    1.7963   -0.4320 C   0  0  0  0  0  0  0  0  0  0  0  0
   -0.0359    1.3285   -0.0420 C   0  0  0  0  0  0  0  0  0  0  0  0
   -0.2673   -1.5487   -0.1823 C   0  0  0  0  0  0  0  0  0  0  0  0
    1.1626    0.4764    0.0400 C   0  0  0  0  0  0  0  0  0  0  0  0
    1.0510   -0.9102   -0.0279 C   0  0  0  0  0  0  0  0  0  0  0  0
    2.4234    1.0695    0.1850 C   0  0  0  0  0  0  0  0  0  0  0  0
    2.2001   -1.7076    0.0489 C   0  0  0  0  0  0  0  0  0  0  0  0
    3.5658    0.2725    0.2618 C   0  0  0  0  0  0  0  0  0  0  0  0
    3.4543   -1.1142    0.1938 C   0  0  0  0  0  0  0  0  0  0  0  0
    5.5062    1.1539   -0.7932 C   0  0  0  0  0  0  0  0  0  0  0  0
   -3.8950   -0.2194   -1.8687 H   0  0  0  0  0  0  0  0  0  0  0  0
   -4.9034   -0.9473   -0.6030 H   0  0  0  0  0  0  0  0  0  0  0  0
   -2.4441    2.3629    0.5529 H   0  0  0  0  0  0  0  0  0  0  0  0
   -2.5490    2.0926   -1.1937 H   0  0  0  0  0  0  0  0  0  0  0  0
   -2.7279   -2.1434   -1.1854 H   0  0  0  0  0  0  0  0  0  0  0  0
   -6.0331    1.3214   -0.2262 H   0  0  0  0  0  0  0  0  0  0  0  0
   -5.0208    2.0404   -1.4982 H   0  0  0  0  0  0  0  0  0  0  0  0
   -5.0533    2.7326    0.1376 H   0  0  0  0  0  0  0  0  0  0  0  0
   -4.0623    1.4385    1.8684 H   0  0  0  0  0  0  0  0  0  0  0  0
   -2.4335   -2.7242    0.9644 H   0  0  0  0  0  0  0  0  0  0  0  0
    4.3458   -1.7340    0.2545 H   0  0  0  0  0  0  0  0  0  0  0  0
    1.7343    2.8771    0.2844 H   0  0  0  0  0  0  0  0  0  0  0  0
    1.2486   -3.3871   -0.0773 H   0  0  0  0  0  0  0  0  0  0  0  0
    5.7026    0.2479   -1.3753 H   0  0  0  0  0  0  0  0  0  0  0  0
    4.9419    1.8726   -1.3958 H   0  0  0  0  0  0  0  0  0  0  0  0
    6.4627    1.6053   -0.5159 H   0  0  0  0  0  0  0  0  0  0  0  0
  1  8  1  0  0  0  0
  1 32  1  0  0  0  0
  2 11  1  0  0  0  0
  2 33  1  0  0  0  0
  3 15  2  0  0  0  0
  4 16  2  0  0  0  0
  5 19  1  0  0  0  0
  5 35  1  0  0  0  0
  6 20  1  0  0  0  0
  6 36  1  0  0  0  0
  7 21  1  0  0  0  0
  7 23  1  0  0  0  0
  8  9  1  0  0  0  0
  8 10  1  0  0  0  0
  8 14  1  0  0  0  0
  9 11  1  0  0  0  0
  9 24  1  0  0  0  0
  9 25  1  0  0  0  0
 10 12  1  0  0  0  0
 10 26  1  0  0  0  0
 10 27  1  0  0  0  0
 11 13  1  0  0  0  0
 11 28  1  0  0  0  0
 12 13  2  0  0  0  0
 12 15  1  0  0  0  0
 13 16  1  0  0  0  0
 14 29  1  0  0  0  0
 14 30  1  0  0  0  0
 14 31  1  0  0  0  0
 15 17  1  0  0  0  0
 16 18  1  0  0  0  0
 17 18  2  0  0  0  0
 17 19  1  0  0  0  0
 18 20  1  0  0  0  0
 19 21  2  0  0  0  0
 20 22  2  0  0  0  0
 21 22  1  0  0  0  0
 22 34  1  0  0  0  0
 23 37  1  0  0  0  0
 23 38  1  0  0  0  0
 23 39  1  0  0  0  0
M  END
> <PUBCHEM_COMPOUND_CID>
137630424

> <PUBCHEM_CONFORMER_RMSD>
0.6

> <PUBCHEM_CONFORMER_DIVERSEORDER>
1
2

> <PUBCHEM_MMFF94_PARTIAL_CHARGES>
26
1 -0.68
10 0.14
11 0.42
12 -0.12
13 -0.12
15 0.47
16 0.47
17 0.09
18 0.09
19 0.08
2 -0.68
20 0.08
21 0.08
22 -0.15
23 0.28
3 -0.57
32 0.4
33 0.4
34 0.15
35 0.45
36 0.45
4 -0.57
5 -0.53
6 -0.53
7 -0.36
8 0.28

> <PUBCHEM_EFFECTIVE_ROTOR_COUNT>
1.8

> <PUBCHEM_PHARMACOPHORE_FEATURES>
12
1 1 acceptor
1 1 donor
1 2 acceptor
1 2 donor
1 3 acceptor
1 4 acceptor
1 5 donor
1 6 donor
1 7 acceptor
6 12 13 15 16 17 18 rings
6 17 18 19 20 21 22 rings
6 8 9 10 11 12 13 rings

> <PUBCHEM_HEAVY_ATOM_COUNT>
23

> <PUBCHEM_ATOM_DEF_STEREO_COUNT>
2

> <PUBCHEM_ATOM_UDEF_STEREO_COUNT>
0

> <PUBCHEM_BOND_DEF_STEREO_COUNT>
0

> <PUBCHEM_BOND_UDEF_STEREO_COUNT>
0

> <PUBCHEM_ISOTOPIC_ATOM_COUNT>
0

> <PUBCHEM_COMPONENT_COUNT>
1

> <PUBCHEM_CACTVS_TAUTO_COUNT>
-1

> <PUBCHEM_CONFORMER_ID>
083412D800000001

> <PUBCHEM_MMFF94_ENERGY>
74.3116

> <PUBCHEM_FEATURE_SELFOVERLAP>
60.941

> <PUBCHEM_SHAPE_FINGERPRINT>
10411042 1 17401766823019389798
10616163 171 18411136982476431671
10967382 1 18339357453184625654
11132069 177 18410005520676390593
11471102 20 18411976927839810092
11578080 2 17025139736251354406
12011746 2 18411696620904287180
12236239 1 17822288033559544348
12403814 3 17603297155044510597
12644460 14 18334295323473309082
12788726 201 17702951309708052641
13140716 1 18410290268397374363
13224815 77 18410294709409174523
138480 1 17907294356314463326
14790565 3 18265058114358491372
15196674 1 18411134723239159958
15442244 35 18124875664035377523
15536298 74 18271804588508768150
1601671 61 18410011040010247708
16945 1 18195522829552472183
19591789 44 18267022949852033028
19784866 170 18408326587943001386
200 152 17988634221029593701
20642791 178 18115037427411889796
20645477 70 18267013969275942415
20739085 24 18121240700100811905
21267235 1 18339647848819128567
21279426 13 18340774754317979086
21421861 104 17897154728881198602
22182313 1 18269293351037695895
2334 1 18411697711968567255
23366157 5 18041843883829085130
23402539 116 18272362096759737668
23402655 69 18343297054796819092
23463225 33 18410570652304308791
23559900 14 18340761525734525298
2748010 2 18411417297780220071
296302 2 18410292501600656183
335352 9 18339357466512717534
34934 24 18410005512049532711
350125 39 18338802337831651539
3545911 37 18411419514236526189
4340502 62 16805326565358194184
474 4 18408884044385350793
5104073 3 18410288116724170274
59755656 215 18338519625915026470
633830 44 18201151161293638932
7364860 26 18269553854005455254
9709674 26 18411700971896568575

> <PUBCHEM_SHAPE_MULTIPOLES>
432.24
9.48
2.78
0.77
1.15
0.91
-0.05
-3.78
0.47
0.41
0.01
-0.31
-0.02
-0.04

> <PUBCHEM_SHAPE_SELFOVERLAP>
955.966

> <PUBCHEM_SHAPE_VOLUME>
230.3

> <PUBCHEM_COORDINATE_TYPE>
2
5
10

$$$$
