137638243
  -OEChem-03292013293D

 69 72  0     1  0  0  0  0  0999 V2000
    1.2103    0.7193    0.8474 O   0  0  0  0  0  0  0  0  0  0  0  0
    2.9299   -1.1372   -2.2892 O   0  0  0  0  0  0  0  0  0  0  0  0
    4.8406    0.9119    1.2725 O   0  0  0  0  0  0  0  0  0  0  0  0
    4.9554   -2.1806    1.3228 O   0  0  0  0  0  0  0  0  0  0  0  0
   -2.5803   -0.3377    0.4763 O   0  0  0  0  0  0  0  0  0  0  0  0
   -3.3090    2.8265    1.3549 O   0  0  0  0  0  0  0  0  0  0  0  0
   -3.1126    0.9224   -1.3797 O   0  0  0  0  0  0  0  0  0  0  0  0
   -4.1991   -3.5197   -0.3426 O   0  0  0  0  0  0  0  0  0  0  0  0
   -6.4009   -2.0440    0.5533 O   0  0  0  0  0  0  0  0  0  0  0  0
    2.1435    0.9792   -1.3134 C   0  0  1  0  0  0  0  0  0  0  0  0
    0.8125    0.6730   -0.5630 C   0  0  2  0  0  0  0  0  0  0  0  0
    2.6612    2.0949   -0.4023 C   0  0  2  0  0  0  0  0  0  0  0  0
    2.4903    1.3899    0.9449 C   0  0  2  0  0  0  0  0  0  0  0  0
    3.2350   -0.1320   -1.3282 C   0  0  1  0  0  0  0  0  0  0  0  0
   -0.2406    1.8757   -0.7442 C   0  0  2  0  0  0  0  0  0  0  0  0
    3.5083   -0.7659    0.0549 C   0  0  2  0  0  0  0  0  0  0  0  0
    3.5570    0.3061    1.1647 C   0  0  1  0  0  0  0  0  0  0  0  0
    1.7891    3.3166   -0.4710 C   0  0  0  0  0  0  0  0  0  0  0  0
    0.1321   -0.6526   -0.9190 C   0  0  0  0  0  0  0  0  0  0  0  0
    0.4654    3.2162   -0.6444 C   0  0  0  0  0  0  0  0  0  0  0  0
   -1.4888    1.7690    0.2252 C   0  0  1  0  0  0  0  0  0  0  0  0
    4.7617   -1.6454    0.0287 C   0  0  0  0  0  0  0  0  0  0  0  0
   -0.2591   -1.4972    0.0603 C   0  0  0  0  0  0  0  0  0  0  0  0
   -0.2618   -0.8494   -2.3640 C   0  0  0  0  0  0  0  0  0  0  0  0
   -2.2594    3.0765    0.4415 C   0  0  0  0  0  0  0  0  0  0  0  0
   -2.5075    0.7691   -0.3253 C   0  0  0  0  0  0  0  0  0  0  0  0
   -1.4382   -2.4521   -0.0215 C   0  0  2  0  0  0  0  0  0  0  0  0
   -2.7493   -1.6138   -0.2034 C   0  0  1  0  0  0  0  0  0  0  0  0
   -1.4446   -3.3359    1.2320 C   0  0  0  0  0  0  0  0  0  0  0  0
   -4.0248   -2.2645    0.3125 C   0  0  1  0  0  0  0  0  0  0  0  0
    6.1076   -3.0150    1.3834 C   0  0  0  0  0  0  0  0  0  0  0  0
   -5.2459   -1.4009    0.0248 C   0  0  0  0  0  0  0  0  0  0  0  0
   -4.0778    3.9974    1.6113 C   0  0  0  0  0  0  0  0  0  0  0  0
    1.9506    1.3144   -2.3401 H   0  0  0  0  0  0  0  0  0  0  0  0
    3.6953    2.3823   -0.6193 H   0  0  0  0  0  0  0  0  0  0  0  0
    2.4735    2.0906    1.7873 H   0  0  0  0  0  0  0  0  0  0  0  0
    4.1687    0.3302   -1.6769 H   0  0  0  0  0  0  0  0  0  0  0  0
   -0.6138    1.8390   -1.7772 H   0  0  0  0  0  0  0  0  0  0  0  0
    2.6720   -1.4374    0.2894 H   0  0  0  0  0  0  0  0  0  0  0  0
    3.3576   -0.1945    2.1207 H   0  0  0  0  0  0  0  0  0  0  0  0
    2.2558    4.2938   -0.3990 H   0  0  0  0  0  0  0  0  0  0  0  0
   -0.1108    4.1291   -0.7575 H   0  0  0  0  0  0  0  0  0  0  0  0
   -1.1633    1.4151    1.2119 H   0  0  0  0  0  0  0  0  0  0  0  0
    5.6409   -1.0618   -0.2694 H   0  0  0  0  0  0  0  0  0  0  0  0
    4.6325   -2.4635   -0.6898 H   0  0  0  0  0  0  0  0  0  0  0  0
    2.8710   -0.7030   -3.1572 H   0  0  0  0  0  0  0  0  0  0  0  0
    0.0573   -1.2878    1.0808 H   0  0  0  0  0  0  0  0  0  0  0  0
   -1.1100   -0.2196   -2.6399 H   0  0  0  0  0  0  0  0  0  0  0  0
   -0.5295   -1.8879   -2.5798 H   0  0  0  0  0  0  0  0  0  0  0  0
    0.5610   -0.5992   -3.0373 H   0  0  0  0  0  0  0  0  0  0  0  0
    4.7991    1.5619    1.9944 H   0  0  0  0  0  0  0  0  0  0  0  0
   -2.6679    3.4549   -0.5036 H   0  0  0  0  0  0  0  0  0  0  0  0
   -1.6072    3.8386    0.8805 H   0  0  0  0  0  0  0  0  0  0  0  0
   -1.3213   -3.1295   -0.8759 H   0  0  0  0  0  0  0  0  0  0  0  0
   -2.8623   -1.4528   -1.2845 H   0  0  0  0  0  0  0  0  0  0  0  0
   -2.1858   -4.1370    1.1576 H   0  0  0  0  0  0  0  0  0  0  0  0
   -1.6572   -2.7537    2.1358 H   0  0  0  0  0  0  0  0  0  0  0  0
   -0.4705   -3.8200    1.3706 H   0  0  0  0  0  0  0  0  0  0  0  0
   -3.9746   -2.4479    1.3918 H   0  0  0  0  0  0  0  0  0  0  0  0
    6.2016   -3.3968    2.4035 H   0  0  0  0  0  0  0  0  0  0  0  0
    7.0075   -2.4423    1.1395 H   0  0  0  0  0  0  0  0  0  0  0  0
    6.0021   -3.8631    0.7000 H   0  0  0  0  0  0  0  0  0  0  0  0
   -5.1669   -0.4150    0.4918 H   0  0  0  0  0  0  0  0  0  0  0  0
   -5.3984   -1.2822   -1.0531 H   0  0  0  0  0  0  0  0  0  0  0  0
   -4.8699    3.7394    2.3192 H   0  0  0  0  0  0  0  0  0  0  0  0
   -4.5384    4.3620    0.6881 H   0  0  0  0  0  0  0  0  0  0  0  0
   -3.4516    4.7772    2.0554 H   0  0  0  0  0  0  0  0  0  0  0  0
   -5.0240   -3.9112   -0.0081 H   0  0  0  0  0  0  0  0  0  0  0  0
   -7.1623   -1.4743    0.3500 H   0  0  0  0  0  0  0  0  0  0  0  0
  1 11  1  0  0  0  0
  1 13  1  0  0  0  0
  2 14  1  0  0  0  0
  2 46  1  0  0  0  0
  3 17  1  0  0  0  0
  3 51  1  0  0  0  0
  4 22  1  0  0  0  0
  4 31  1  0  0  0  0
  5 26  1  0  0  0  0
  5 28  1  0  0  0  0
  6 25  1  0  0  0  0
  6 33  1  0  0  0  0
  7 26  2  0  0  0  0
  8 30  1  0  0  0  0
  8 68  1  0  0  0  0
  9 32  1  0  0  0  0
  9 69  1  0  0  0  0
 10 11  1  0  0  0  0
 10 12  1  0  0  0  0
 10 14  1  0  0  0  0
 10 34  1  0  0  0  0
 11 15  1  0  0  0  0
 11 19  1  0  0  0  0
 12 13  1  0  0  0  0
 12 18  1  0  0  0  0
 12 35  1  0  0  0  0
 13 17  1  0  0  0  0
 13 36  1  0  0  0  0
 14 16  1  0  0  0  0
 14 37  1  0  0  0  0
 15 20  1  0  0  0  0
 15 21  1  0  0  0  0
 15 38  1  0  0  0  0
 16 17  1  0  0  0  0
 16 22  1  0  0  0  0
 16 39  1  0  0  0  0
 17 40  1  0  0  0  0
 18 20  2  0  0  0  0
 18 41  1  0  0  0  0
 19 23  2  3  0  0  0
 19 24  1  0  0  0  0
 20 42  1  0  0  0  0
 21 25  1  0  0  0  0
 21 26  1  0  0  0  0
 21 43  1  0  0  0  0
 22 44  1  0  0  0  0
 22 45  1  0  0  0  0
 23 27  1  0  0  0  0
 23 47  1  0  0  0  0
 24 48  1  0  0  0  0
 24 49  1  0  0  0  0
 24 50  1  0  0  0  0
 25 52  1  0  0  0  0
 25 53  1  0  0  0  0
 27 28  1  0  0  0  0
 27 29  1  0  0  0  0
 27 54  1  0  0  0  0
 28 30  1  0  0  0  0
 28 55  1  0  0  0  0
 29 56  1  0  0  0  0
 29 57  1  0  0  0  0
 29 58  1  0  0  0  0
 30 32  1  0  0  0  0
 30 59  1  0  0  0  0
 31 60  1  0  0  0  0
 31 61  1  0  0  0  0
 31 62  1  0  0  0  0
 32 63  1  0  0  0  0
 32 64  1  0  0  0  0
 33 65  1  0  0  0  0
 33 66  1  0  0  0  0
 33 67  1  0  0  0  0
M  END
> <PUBCHEM_COMPOUND_CID>
137638243

> <PUBCHEM_CONFORMER_RMSD>
1

> <PUBCHEM_CONFORMER_DIVERSEORDER>
1
5
7
6
4
8
3
2

> <PUBCHEM_MMFF94_PARTIAL_CHARGES>
37
1 -0.56
11 0.42
12 0.14
13 0.28
14 0.28
15 0.14
17 0.28
18 -0.29
19 -0.28
2 -0.68
20 -0.29
21 0.06
22 0.28
23 -0.29
24 0.14
25 0.28
26 0.66
27 0.14
28 0.28
3 -0.68
30 0.28
31 0.28
32 0.28
33 0.28
4 -0.56
41 0.15
42 0.15
46 0.4
47 0.15
5 -0.43
51 0.4
6 -0.56
68 0.4
69 0.4
7 -0.57
8 -0.68
9 -0.68

> <PUBCHEM_EFFECTIVE_ROTOR_COUNT>
7.6

> <PUBCHEM_PHARMACOPHORE_FEATURES>
14
1 1 acceptor
1 2 acceptor
1 2 donor
1 3 acceptor
1 3 donor
1 4 acceptor
1 6 acceptor
1 7 acceptor
1 8 acceptor
1 8 donor
1 9 acceptor
1 9 donor
8 1 10 11 12 13 14 16 17 rings
8 1 10 11 12 13 15 18 20 rings

> <PUBCHEM_HEAVY_ATOM_COUNT>
33

> <PUBCHEM_ATOM_DEF_STEREO_COUNT>
12

> <PUBCHEM_ATOM_UDEF_STEREO_COUNT>
0

> <PUBCHEM_BOND_DEF_STEREO_COUNT>
1

> <PUBCHEM_BOND_UDEF_STEREO_COUNT>
0

> <PUBCHEM_ISOTOPIC_ATOM_COUNT>
0

> <PUBCHEM_COMPONENT_COUNT>
1

> <PUBCHEM_CACTVS_TAUTO_COUNT>
-1

> <PUBCHEM_CONFORMER_ID>
0834316300000001

> <PUBCHEM_MMFF94_ENERGY>
125.8209

> <PUBCHEM_FEATURE_SELFOVERLAP>
71.996

> <PUBCHEM_SHAPE_FINGERPRINT>
1100329 8 18335420110561556905
12107183 9 18193839245506645608
12403260 363 18411419518499754119
12422481 6 17988653964852120787
12633257 1 18265059041606826852
12788726 201 18268160923170849513
12892183 10 18272074038004402656
13140716 1 18341614759215592768
13533116 47 18188488098244719923
13692114 37 18058450916250267669
14178342 30 18341336587321693425
14223421 5 18047188841193960316
14705955 166 18129925867281832936
14866123 147 18120650241024356250
15042514 8 18265046938747500782
15420108 30 17907859501296288569
17492 89 18335978778443510522
1813 80 17240474819622751646
19319366 153 17472702897531483124
19591789 44 17474685952788315477
20600515 1 18269558230735619380
20642791 105 18340768140084258409
20691752 17 18193559973706213556
21033648 29 17203324456187142502
21421861 104 18118117198383220368
23558518 356 18411145757163364553
23559900 14 18194974151801886062
24893992 56 18335423509426859827
3052486 1 18336282158048661053
350125 39 18409172103968899895
3680242 22 18336837489136339771
392239 28 18339935852921277691
484985 159 17681530568910837770
5104073 3 18271516512615743136

> <PUBCHEM_SHAPE_MULTIPOLES>
626.3
10.65
4.79
1.58
0.7
1.14
-0.4
-7.91
4.37
-3.57
1.64
0.83
0.02
-1.88

> <PUBCHEM_SHAPE_SELFOVERLAP>
1322.022

> <PUBCHEM_SHAPE_VOLUME>
346.7

> <PUBCHEM_COORDINATE_TYPE>
2
5
10

$$$$
