137796782
  -OEChem-03292013293D

 44 46  0     0  0  0  0  0  0999 V2000
   -5.1618    0.3910   -1.8351 Cl  0  0  0  0  0  0  0  0  0  0  0  0
   -1.5273    1.3941    2.1329 S   0  0  0  0  0  0  0  0  0  0  0  0
   -1.1874    2.7754   -1.6079 F   0  0  0  0  0  0  0  0  0  0  0  0
    2.8285    0.5425   -2.7046 F   0  0  0  0  0  0  0  0  0  0  0  0
   -2.6132    2.0865    2.8014 O   0  0  0  0  0  0  0  0  0  0  0  0
   -0.5821    0.6164    2.9109 O   0  0  0  0  0  0  0  0  0  0  0  0
   -3.7682    2.0281    0.2393 O   0  0  0  0  0  0  0  0  0  0  0  0
   -0.5301   -3.3060    0.0972 O   0  0  0  0  0  0  0  0  0  0  0  0
   -2.5459   -4.1935   -0.5723 O   0  0  0  0  0  0  0  0  0  0  0  0
   -0.6862    2.5105    1.1258 N   0  0  0  0  0  0  0  0  0  0  0  0
   -2.2644    0.3127    0.9411 C   0  0  0  0  0  0  0  0  0  0  0  0
    0.2183    2.0041    0.1437 C   0  0  0  0  0  0  0  0  0  0  0  0
    2.2726    0.8615   -0.4144 C   0  0  0  0  0  0  0  0  0  0  0  0
    1.3877    1.3570    0.5433 C   0  0  0  0  0  0  0  0  0  0  0  0
   -1.7883   -0.9936    0.8270 C   0  0  0  0  0  0  0  0  0  0  0  0
   -3.3064    0.7491    0.1231 C   0  0  0  0  0  0  0  0  0  0  0  0
    3.4847    0.1914    0.0043 C   0  0  0  0  0  0  0  0  0  0  0  0
   -0.0662    2.1556   -1.2133 C   0  0  0  0  0  0  0  0  0  0  0  0
   -2.3544   -1.8632   -0.1051 C   0  0  0  0  0  0  0  0  0  0  0  0
    1.9880    1.0131   -1.7715 C   0  0  0  0  0  0  0  0  0  0  0  0
    0.8185    1.6600   -2.1709 C   0  0  0  0  0  0  0  0  0  0  0  0
   -3.8724   -0.1205   -0.8090 C   0  0  0  0  0  0  0  0  0  0  0  0
   -3.3965   -1.4266   -0.9231 C   0  0  0  0  0  0  0  0  0  0  0  0
    3.4096   -0.9595    0.7887 C   0  0  0  0  0  0  0  0  0  0  0  0
    4.7279    0.6961   -0.3765 C   0  0  0  0  0  0  0  0  0  0  0  0
   -1.8575   -3.2251   -0.2240 C   0  0  0  0  0  0  0  0  0  0  0  0
    4.5781   -1.6057    1.1925 C   0  0  0  0  0  0  0  0  0  0  0  0
    5.8963    0.0498    0.0270 C   0  0  0  0  0  0  0  0  0  0  0  0
    5.8213   -1.1011    0.8117 C   0  0  0  0  0  0  0  0  0  0  0  0
    0.0766   -4.6003    0.0179 C   0  0  0  0  0  0  0  0  0  0  0  0
   -1.2312    3.3276    0.8200 H   0  0  0  0  0  0  0  0  0  0  0  0
    1.6193    1.2608    1.6017 H   0  0  0  0  0  0  0  0  0  0  0  0
   -0.9833   -1.3373    1.4703 H   0  0  0  0  0  0  0  0  0  0  0  0
    0.5966    1.7776   -3.2273 H   0  0  0  0  0  0  0  0  0  0  0  0
   -3.8365   -2.1031   -1.6528 H   0  0  0  0  0  0  0  0  0  0  0  0
    2.4504   -1.3734    1.0913 H   0  0  0  0  0  0  0  0  0  0  0  0
    4.8094    1.5954   -0.9826 H   0  0  0  0  0  0  0  0  0  0  0  0
    4.5197   -2.5027    1.8021 H   0  0  0  0  0  0  0  0  0  0  0  0
    6.8645    0.4433   -0.2683 H   0  0  0  0  0  0  0  0  0  0  0  0
    6.7311   -1.6042    1.1259 H   0  0  0  0  0  0  0  0  0  0  0  0
   -4.4863    2.1552   -0.4046 H   0  0  0  0  0  0  0  0  0  0  0  0
    0.0196   -4.9814   -1.0059 H   0  0  0  0  0  0  0  0  0  0  0  0
   -0.4111   -5.2884    0.7147 H   0  0  0  0  0  0  0  0  0  0  0  0
    1.1284   -4.5005    0.2989 H   0  0  0  0  0  0  0  0  0  0  0  0
  1 22  1  0  0  0  0
  2  5  2  0  0  0  0
  2  6  2  0  0  0  0
  2 10  1  0  0  0  0
  2 11  1  0  0  0  0
  3 18  1  0  0  0  0
  4 20  1  0  0  0  0
  7 16  1  0  0  0  0
  7 41  1  0  0  0  0
  8 26  1  0  0  0  0
  8 30  1  0  0  0  0
  9 26  2  0  0  0  0
 10 12  1  0  0  0  0
 10 31  1  0  0  0  0
 11 15  1  0  0  0  0
 11 16  2  0  0  0  0
 12 14  1  0  0  0  0
 12 18  2  0  0  0  0
 13 14  2  0  0  0  0
 13 17  1  0  0  0  0
 13 20  1  0  0  0  0
 14 32  1  0  0  0  0
 15 19  2  0  0  0  0
 15 33  1  0  0  0  0
 16 22  1  0  0  0  0
 17 24  2  0  0  0  0
 17 25  1  0  0  0  0
 18 21  1  0  0  0  0
 19 23  1  0  0  0  0
 19 26  1  0  0  0  0
 20 21  2  0  0  0  0
 21 34  1  0  0  0  0
 22 23  2  0  0  0  0
 23 35  1  0  0  0  0
 24 27  1  0  0  0  0
 24 36  1  0  0  0  0
 25 28  2  0  0  0  0
 25 37  1  0  0  0  0
 27 29  2  0  0  0  0
 27 38  1  0  0  0  0
 28 29  1  0  0  0  0
 28 39  1  0  0  0  0
 29 40  1  0  0  0  0
 30 42  1  0  0  0  0
 30 43  1  0  0  0  0
 30 44  1  0  0  0  0
M  END
> <PUBCHEM_COMPOUND_CID>
137796782

> <PUBCHEM_CONFORMER_RMSD>
0.8

> <PUBCHEM_CONFORMER_DIVERSEORDER>
1
193
200
195
219
229
218
89
49
53
199
182
119
188
171
110
100
118
234
223
136
215
244
94
201
80
78
9
192
140
30
6
212
247
107
194
122
72
163
227
126
13
186
252
71
162
50
197
233
210
111
130
211
73
172
99
152
245
66
98
217
232
246
178
249
8
97
205
164
202
221
41
228
251
142
239
116
38
149
248
225
174
19
55
206
253
151
115
3
79
134
125
209
86
235
32
84
154
141
133
113
132
20
48
10
155
250
114
204
82
117
150
189
28
240
92
51
208
222
77
54
238
33
160
17
108
35
176
120
183
131
90
220
187
161
145
159
157
26
40
147
177
29
231
52
143
101
207
242
2
168
46
56
158
31
169
105
144
74
181
216
180
175
58
14
167
88
75
230
34
226
128
109
198
83
16
15
185
106
214
138
36
139
196
5
91
93
224
170
173
96
4
184
241
85
67
146
69
236
102
112
237
64
95
45
25
39
166
87
81
156
191
148
203
23
24
190
165
7
37
70
11
43
213
27
103
153
121
179
137
12
21
59
76
68
243
22
104
127
44
18
62
57
135
61
123
63
129
65
42
124
47
60

> <PUBCHEM_MMFF94_PARTIAL_CHARGES>
39
1 -0.18
10 -0.76
11 -0.01
12 0.2
14 -0.15
15 -0.15
16 0.08
18 0.19
19 0.09
2 1.45
20 0.19
21 -0.15
22 0.18
23 -0.15
24 -0.15
25 -0.15
26 0.63
27 -0.15
28 -0.15
29 -0.15
3 -0.19
30 0.28
31 0.42
32 0.15
33 0.15
34 0.15
35 0.15
36 0.15
37 0.15
38 0.15
39 0.15
4 -0.19
40 0.15
41 0.45
5 -0.65
6 -0.65
7 -0.53
8 -0.43
9 -0.57

> <PUBCHEM_EFFECTIVE_ROTOR_COUNT>
6

> <PUBCHEM_PHARMACOPHORE_FEATURES>
8
1 10 donor
1 5 acceptor
1 6 acceptor
1 7 donor
1 9 acceptor
6 11 15 16 19 22 23 rings
6 12 13 14 18 20 21 rings
6 17 24 25 27 28 29 rings

> <PUBCHEM_HEAVY_ATOM_COUNT>
30

> <PUBCHEM_ATOM_DEF_STEREO_COUNT>
0

> <PUBCHEM_ATOM_UDEF_STEREO_COUNT>
0

> <PUBCHEM_BOND_DEF_STEREO_COUNT>
0

> <PUBCHEM_BOND_UDEF_STEREO_COUNT>
0

> <PUBCHEM_ISOTOPIC_ATOM_COUNT>
0

> <PUBCHEM_COMPONENT_COUNT>
1

> <PUBCHEM_CACTVS_TAUTO_COUNT>
-1

> <PUBCHEM_CONFORMER_ID>
08369CAE00000001

> <PUBCHEM_MMFF94_ENERGY>
77.9916

> <PUBCHEM_FEATURE_SELFOVERLAP>
40.615

> <PUBCHEM_SHAPE_FINGERPRINT>
10366900 7 17489869349727480994
10369192 42 14349215660573023902
11513181 2 17772746074430230366
11578080 2 18264196083861865748
12156800 1 15693443190213432959
12422481 6 17755315473840213273
12633257 1 18131360678532900168
12712778 12 18270385213703238282
12788726 201 17844830237546638545
13004483 165 17968359166489305764
14028597 1 17774165587861117465
14068700 675 18130493241093713831
14114207 22 17970610909909955222
14279260 333 16227436375789433490
14840074 17 18114754733022526170
15297060 5 18201999893728212306
15484559 13 15297692456929476390
15968369 26 16174792200516310162
16120349 306 18337101259957423242
17357779 13 16877663448888833692
19309040 13 16227483821575728103
20511986 3 18114729525991315296
20600515 1 18272942642999335828
20775530 9 17693385850678075623
21781051 124 18188762977296421723
23419403 2 17557952221789561273
23559900 14 18128241471134381808
238 59 16521033785179750038
3027735 51 18195514909769870191
340366 18 18041273370079072743
35225 105 17988064635146270614
3797600 57 10880000176327767102
392239 28 11455602270516998239
463206 1 18261392286439919642
484989 97 18193264416418306831

> <PUBCHEM_SHAPE_MULTIPOLES>
574.23
9.94
4.11
2.17
10.26
5.32
-0.47
1.74
0.99
-2.71
0.28
-0.82
-1.62
-1.72

> <PUBCHEM_SHAPE_SELFOVERLAP>
1234.697

> <PUBCHEM_SHAPE_VOLUME>
322

> <PUBCHEM_COORDINATE_TYPE>
2
5
10

$$$$
