137704512
  -OEChem-03292013293D

 34 35  0     1  0  0  0  0  0999 V2000
    2.3029    1.7049   -0.3861 S   0  0  0  0  0  0  0  0  0  0  0  0
    2.2841    3.1401   -0.1970 O   0  0  0  0  0  0  0  0  0  0  0  0
    2.3845    1.0994   -1.6991 O   0  0  0  0  0  0  0  0  0  0  0  0
    2.6005   -3.0304   -1.1187 O   0  0  0  0  0  0  0  0  0  0  0  0
   -6.3230   -0.7239    0.6561 O   0  0  0  0  0  0  0  0  0  0  0  0
   -5.4734    0.1709   -1.2503 O   0  0  0  0  0  0  0  0  0  0  0  0
    1.2820   -1.4527    0.0028 N   0  0  0  0  0  0  0  0  0  0  0  0
    3.5079   -1.4360    0.3372 N   0  0  0  0  0  0  0  0  0  0  0  0
    1.4822   -0.3997    0.9777 C   0  0  2  0  0  0  0  0  0  0  0  0
    0.9612    0.9730    0.5296 C   0  0  2  0  0  0  0  0  0  0  0  0
    3.0217   -0.3386    1.1478 C   0  0  2  0  0  0  0  0  0  0  0  0
    3.5663    1.0003    0.6457 C   0  0  0  0  0  0  0  0  0  0  0  0
   -0.3468    0.9729   -0.2390 C   0  0  0  0  0  0  0  0  0  0  0  0
    2.4785   -2.0837   -0.3533 C   0  0  0  0  0  0  0  0  0  0  0  0
   -1.5197    0.3730    0.5429 C   0  0  0  0  0  0  0  0  0  0  0  0
   -2.8736    0.3973   -0.1723 C   0  0  0  0  0  0  0  0  0  0  0  0
   -4.0178   -0.1601    0.6736 C   0  0  0  0  0  0  0  0  0  0  0  0
   -5.3175   -0.2067   -0.0975 C   0  0  0  0  0  0  0  0  0  0  0  0
    0.9912   -0.7238    1.9019 H   0  0  0  0  0  0  0  0  0  0  0  0
    0.8562    1.6045    1.4224 H   0  0  0  0  0  0  0  0  0  0  0  0
    3.3368   -0.5279    2.1788 H   0  0  0  0  0  0  0  0  0  0  0  0
    3.7011    1.6889    1.4862 H   0  0  0  0  0  0  0  0  0  0  0  0
    4.4989    0.9231    0.0816 H   0  0  0  0  0  0  0  0  0  0  0  0
   -0.5981    2.0064   -0.5106 H   0  0  0  0  0  0  0  0  0  0  0  0
   -0.2390    0.4387   -1.1910 H   0  0  0  0  0  0  0  0  0  0  0  0
    0.3739   -1.7632   -0.3276 H   0  0  0  0  0  0  0  0  0  0  0  0
    4.4831   -1.7125    0.2804 H   0  0  0  0  0  0  0  0  0  0  0  0
   -1.2964   -0.6657    0.8108 H   0  0  0  0  0  0  0  0  0  0  0  0
   -1.6188    0.9188    1.4902 H   0  0  0  0  0  0  0  0  0  0  0  0
   -3.1088    1.4283   -0.4653 H   0  0  0  0  0  0  0  0  0  0  0  0
   -2.7910   -0.1766   -1.1041 H   0  0  0  0  0  0  0  0  0  0  0  0
   -4.1640    0.4672    1.5594 H   0  0  0  0  0  0  0  0  0  0  0  0
   -3.7773   -1.1801    0.9931 H   0  0  0  0  0  0  0  0  0  0  0  0
   -7.1705   -0.7548    0.1630 H   0  0  0  0  0  0  0  0  0  0  0  0
  1  2  2  0  0  0  0
  1  3  2  0  0  0  0
  1 10  1  0  0  0  0
  1 12  1  0  0  0  0
  4 14  2  0  0  0  0
  5 18  1  0  0  0  0
  5 34  1  0  0  0  0
  6 18  2  0  0  0  0
  7  9  1  0  0  0  0
  7 14  1  0  0  0  0
  7 26  1  0  0  0  0
  8 11  1  0  0  0  0
  8 14  1  0  0  0  0
  8 27  1  0  0  0  0
  9 10  1  0  0  0  0
  9 11  1  0  0  0  0
  9 19  1  0  0  0  0
 10 13  1  0  0  0  0
 10 20  1  0  0  0  0
 11 12  1  0  0  0  0
 11 21  1  0  0  0  0
 12 22  1  0  0  0  0
 12 23  1  0  0  0  0
 13 15  1  0  0  0  0
 13 24  1  0  0  0  0
 13 25  1  0  0  0  0
 15 16  1  0  0  0  0
 15 28  1  0  0  0  0
 15 29  1  0  0  0  0
 16 17  1  0  0  0  0
 16 30  1  0  0  0  0
 16 31  1  0  0  0  0
 17 18  1  0  0  0  0
 17 32  1  0  0  0  0
 17 33  1  0  0  0  0
M  END
> <PUBCHEM_COMPOUND_CID>
137704512

> <PUBCHEM_CONFORMER_RMSD>
0.8

> <PUBCHEM_CONFORMER_DIVERSEORDER>
1
70
64
69
73
61
75
7
15
21
60
72
45
3
19
17
41
42
39
36
71
13
16
53
29
62
18
33
57
44
74
6
77
24
52
2
65
5
23
68
31
27
43
20
47
40
66
34
9
55
50
4
32
14
46
30
10
54
37
8
67
35
76
56
22
59
49
38
25
26
58
63
12
48
28
51
11

> <PUBCHEM_MMFF94_PARTIAL_CHARGES>
18
1 1.09
10 0.11
11 0.3
12 0.11
14 0.69
17 0.06
18 0.66
2 -0.65
26 0.37
27 0.37
3 -0.65
34 0.5
4 -0.57
5 -0.65
6 -0.57
7 -0.73
8 -0.73
9 0.3

> <PUBCHEM_EFFECTIVE_ROTOR_COUNT>
5.8

> <PUBCHEM_PHARMACOPHORE_FEATURES>
11
1 2 acceptor
1 3 acceptor
1 4 acceptor
1 5 acceptor
1 6 acceptor
1 7 donor
1 8 donor
3 5 6 18 anion
4 13 15 16 17 hydrophobe
5 1 9 10 11 12 rings
5 7 8 9 11 14 rings

> <PUBCHEM_HEAVY_ATOM_COUNT>
18

> <PUBCHEM_ATOM_DEF_STEREO_COUNT>
2

> <PUBCHEM_ATOM_UDEF_STEREO_COUNT>
1

> <PUBCHEM_BOND_DEF_STEREO_COUNT>
0

> <PUBCHEM_BOND_UDEF_STEREO_COUNT>
0

> <PUBCHEM_ISOTOPIC_ATOM_COUNT>
0

> <PUBCHEM_COMPONENT_COUNT>
1

> <PUBCHEM_CACTVS_TAUTO_COUNT>
-1

> <PUBCHEM_CONFORMER_ID>
0835344000000001

> <PUBCHEM_MMFF94_ENERGY>
30.7072

> <PUBCHEM_FEATURE_SELFOVERLAP>
56.452

> <PUBCHEM_SHAPE_FINGERPRINT>
11595378 159 16916798349039070353
12346645 6 18410854390992762392
12616999 72 18408891758183622141
13464513 79 18411135801798301162
13533116 47 18202284697995049739
13836976 161 18336548317203584188
13955234 65 18412545443917892737
14251717 144 18410009931628935211
14251764 30 16914267165803607966
14252887 29 18411136918146621243
14863182 85 18343865507146983822
15477762 27 18411419466991801658
16945 1 18042668642219597784
17834072 33 18337389452605277817
17844677 252 17675926487340975717
18186145 218 17530685381877584817
20281475 54 18272649078464549353
20388580 30 18340778026708421070
20559304 39 18413671301096997856
20645477 70 18335139799964114771
21054139 6 17985816258289567311
212847 35 10375871887400490299
22224240 67 18058995281700695698
23557571 272 17168137945252252293
23559900 14 18410292531797296371
239999 70 18260548926514023091
29717793 49 18410004426224556357
3060560 45 18339369659998834348
312423 11 18341345400779090945
33824 294 18410852153172539058
4463277 69 18200311000875453303
495365 180 18268707388602023632
4990 188 17822007606153745593
5281201 14 18187644674584877829
6025842 7 18338517542365459109
633830 44 18186513286068325403
7164475 11 18270402685561840985
7364860 26 18411139156088664008
8272917 22 18411984680171506725
9709674 26 18335704936177345587
9999458 23 15792007931065360072

> <PUBCHEM_SHAPE_MULTIPOLES>
334.97
10.76
2.39
1.11
23.69
0.39
-0.19
1.99
0.01
-3.82
-0.78
-0.3
0.05
0.34

> <PUBCHEM_SHAPE_SELFOVERLAP>
674.843

> <PUBCHEM_SHAPE_VOLUME>
196.7

> <PUBCHEM_COORDINATE_TYPE>
2
5
10

$$$$
