137705073
  -OEChem-03292013293D

 74 79  0     1  0  0  0  0  0999 V2000
   -0.3462    0.3295   -2.7387 O   0  0  0  0  0  0  0  0  0  0  0  0
    1.4975   -1.8134   -2.3176 O   0  0  0  0  0  0  0  0  0  0  0  0
   -2.0465   -1.4613   -1.7584 O   0  0  0  0  0  0  0  0  0  0  0  0
    0.3064    1.1184    3.3002 O   0  0  0  0  0  0  0  0  0  0  0  0
    3.2408   -2.3783    1.4134 O   0  0  0  0  0  0  0  0  0  0  0  0
    3.4457    2.1128   -0.4034 O   0  0  0  0  0  0  0  0  0  0  0  0
   -3.9416   -1.8274    0.8856 O   0  0  0  0  0  0  0  0  0  0  0  0
   -1.3429    2.0028   -0.5125 N   0  0  2  0  0  0  0  0  0  0  0  0
   -0.2612    0.3169    1.0090 C   0  0  2  0  0  0  0  0  0  0  0  0
   -1.4680   -0.6162    0.5431 C   0  0  2  0  0  0  0  0  0  0  0  0
   -0.1658    1.1151   -0.3685 C   0  0  1  0  0  0  0  0  0  0  0  0
    1.0834   -0.5071    1.3027 C   0  0  1  0  0  0  0  0  0  0  0  0
   -0.0329   -0.0775   -1.4208 C   0  0  2  0  0  0  0  0  0  0  0  0
    1.6776   -1.0721    0.0170 C   0  0  1  0  0  0  0  0  0  0  0  0
    1.4160   -0.6979   -1.4296 C   0  0  1  0  0  0  0  0  0  0  0  0
   -1.0044   -1.1636   -0.8486 C   0  0  2  0  0  0  0  0  0  0  0  0
   -2.7944    0.2273    0.4734 C   0  0  2  0  0  0  0  0  0  0  0  0
   -0.6371    1.2181    2.2328 C   0  0  1  0  0  0  0  0  0  0  0  0
    2.4201    0.3205    1.7565 C   0  0  0  0  0  0  0  0  0  0  0  0
    3.5914   -0.0984    0.7146 C   0  0  1  0  0  0  0  0  0  0  0  0
    3.1225   -1.4898    0.3128 C   0  0  1  0  0  0  0  0  0  0  0  0
    2.6350    0.2731   -1.8588 C   0  0  0  0  0  0  0  0  0  0  0  0
   -2.6271    1.3109   -0.6283 C   0  0  0  0  0  0  0  0  0  0  0  0
   -3.1027    0.9128    1.8379 C   0  0  0  0  0  0  0  0  0  0  0  0
    3.6426    0.7265   -0.6624 C   0  0  1  0  0  0  0  0  0  0  0  0
   -1.9760    0.8419    2.8431 C   0  0  0  0  0  0  0  0  0  0  0  0
   -4.0403   -0.6300    0.1489 C   0  0  0  0  0  0  0  0  0  0  0  0
   -1.1777    3.0261   -1.5367 C   0  0  0  0  0  0  0  0  0  0  0  0
   -1.6154   -2.3517   -2.7819 C   0  0  0  0  0  0  0  0  0  0  0  0
   -2.2672    4.0805   -1.4399 C   0  0  0  0  0  0  0  0  0  0  0  0
    3.2601   -3.7357    0.9908 C   0  0  0  0  0  0  0  0  0  0  0  0
    4.5597    2.6780    0.2721 C   0  0  0  0  0  0  0  0  0  0  0  0
   -5.0518   -2.6906    0.6523 C   0  0  0  0  0  0  0  0  0  0  0  0
   -1.5762   -1.4482    1.2493 H   0  0  0  0  0  0  0  0  0  0  0  0
    0.7383    1.7325   -0.3598 H   0  0  0  0  0  0  0  0  0  0  0  0
    0.8856   -1.2821    2.0544 H   0  0  0  0  0  0  0  0  0  0  0  0
    1.2270   -2.0752    0.0487 H   0  0  0  0  0  0  0  0  0  0  0  0
   -0.5236   -2.1207   -0.6384 H   0  0  0  0  0  0  0  0  0  0  0  0
   -0.6423    2.2735    1.9396 H   0  0  0  0  0  0  0  0  0  0  0  0
    2.2572    1.4008    1.7429 H   0  0  0  0  0  0  0  0  0  0  0  0
    2.7031    0.0065    2.7676 H   0  0  0  0  0  0  0  0  0  0  0  0
    4.5575   -0.0778    1.2283 H   0  0  0  0  0  0  0  0  0  0  0  0
    3.6858   -1.8692   -0.5475 H   0  0  0  0  0  0  0  0  0  0  0  0
    2.2466    1.1716   -2.3491 H   0  0  0  0  0  0  0  0  0  0  0  0
    3.2490   -0.2474   -2.6057 H   0  0  0  0  0  0  0  0  0  0  0  0
   -3.4636    2.0115   -0.5238 H   0  0  0  0  0  0  0  0  0  0  0  0
   -2.7370    0.8800   -1.6298 H   0  0  0  0  0  0  0  0  0  0  0  0
   -3.9822    0.4666    2.3203 H   0  0  0  0  0  0  0  0  0  0  0  0
   -3.3711    1.9662    1.6855 H   0  0  0  0  0  0  0  0  0  0  0  0
    4.6474    0.5885   -1.0871 H   0  0  0  0  0  0  0  0  0  0  0  0
   -2.2018    1.4989    3.6929 H   0  0  0  0  0  0  0  0  0  0  0  0
   -1.9177   -0.1663    3.2749 H   0  0  0  0  0  0  0  0  0  0  0  0
   -4.1167   -0.8610   -0.9177 H   0  0  0  0  0  0  0  0  0  0  0  0
   -4.9638   -0.0958    0.4092 H   0  0  0  0  0  0  0  0  0  0  0  0
    0.2716    1.0316   -2.9987 H   0  0  0  0  0  0  0  0  0  0  0  0
    2.3501   -2.2588   -2.1835 H   0  0  0  0  0  0  0  0  0  0  0  0
   -1.1813    2.6148   -2.5502 H   0  0  0  0  0  0  0  0  0  0  0  0
   -0.2154    3.5329   -1.3953 H   0  0  0  0  0  0  0  0  0  0  0  0
    0.0555    1.7655    3.9813 H   0  0  0  0  0  0  0  0  0  0  0  0
   -2.4863   -2.5908   -3.3993 H   0  0  0  0  0  0  0  0  0  0  0  0
   -1.2426   -3.2883   -2.3550 H   0  0  0  0  0  0  0  0  0  0  0  0
   -0.8627   -1.9072   -3.4348 H   0  0  0  0  0  0  0  0  0  0  0  0
   -3.2327    3.7188   -1.8066 H   0  0  0  0  0  0  0  0  0  0  0  0
   -2.3901    4.4428   -0.4134 H   0  0  0  0  0  0  0  0  0  0  0  0
   -1.9987    4.9428   -2.0605 H   0  0  0  0  0  0  0  0  0  0  0  0
    3.3135   -4.3690    1.8806 H   0  0  0  0  0  0  0  0  0  0  0  0
    2.3517   -3.9917    0.4382 H   0  0  0  0  0  0  0  0  0  0  0  0
    4.1435   -3.9318    0.3751 H   0  0  0  0  0  0  0  0  0  0  0  0
    4.3840    3.7533    0.3680 H   0  0  0  0  0  0  0  0  0  0  0  0
    5.4809    2.5350   -0.3015 H   0  0  0  0  0  0  0  0  0  0  0  0
    4.6717    2.2677    1.2791 H   0  0  0  0  0  0  0  0  0  0  0  0
   -4.9160   -3.5934    1.2535 H   0  0  0  0  0  0  0  0  0  0  0  0
   -5.0979   -2.9756   -0.4031 H   0  0  0  0  0  0  0  0  0  0  0  0
   -5.9840   -2.2039    0.9548 H   0  0  0  0  0  0  0  0  0  0  0  0
  1 13  1  0  0  0  0
  1 55  1  0  0  0  0
  2 15  1  0  0  0  0
  2 56  1  0  0  0  0
  3 16  1  0  0  0  0
  3 29  1  0  0  0  0
  4 18  1  0  0  0  0
  4 59  1  0  0  0  0
  5 21  1  0  0  0  0
  5 31  1  0  0  0  0
  6 25  1  0  0  0  0
  6 32  1  0  0  0  0
  7 27  1  0  0  0  0
  7 33  1  0  0  0  0
  8 11  1  0  0  0  0
  8 23  1  0  0  0  0
  8 28  1  0  0  0  0
  9 10  1  0  0  0  0
  9 11  1  0  0  0  0
  9 12  1  0  0  0  0
  9 18  1  0  0  0  0
 10 16  1  0  0  0  0
 10 17  1  0  0  0  0
 10 34  1  0  0  0  0
 11 13  1  0  0  0  0
 11 35  1  0  0  0  0
 12 14  1  0  0  0  0
 12 19  1  0  0  0  0
 12 36  1  0  0  0  0
 13 15  1  0  0  0  0
 13 16  1  0  0  0  0
 14 15  1  0  0  0  0
 14 21  1  0  0  0  0
 14 37  1  0  0  0  0
 15 22  1  0  0  0  0
 16 38  1  0  0  0  0
 17 23  1  0  0  0  0
 17 24  1  0  0  0  0
 17 27  1  0  0  0  0
 18 26  1  0  0  0  0
 18 39  1  0  0  0  0
 19 20  1  0  0  0  0
 19 40  1  0  0  0  0
 19 41  1  0  0  0  0
 20 21  1  0  0  0  0
 20 25  1  0  0  0  0
 20 42  1  0  0  0  0
 21 43  1  0  0  0  0
 22 25  1  0  0  0  0
 22 44  1  0  0  0  0
 22 45  1  0  0  0  0
 23 46  1  0  0  0  0
 23 47  1  0  0  0  0
 24 26  1  0  0  0  0
 24 48  1  0  0  0  0
 24 49  1  0  0  0  0
 25 50  1  0  0  0  0
 26 51  1  0  0  0  0
 26 52  1  0  0  0  0
 27 53  1  0  0  0  0
 27 54  1  0  0  0  0
 28 30  1  0  0  0  0
 28 57  1  0  0  0  0
 28 58  1  0  0  0  0
 29 60  1  0  0  0  0
 29 61  1  0  0  0  0
 29 62  1  0  0  0  0
 30 63  1  0  0  0  0
 30 64  1  0  0  0  0
 30 65  1  0  0  0  0
 31 66  1  0  0  0  0
 31 67  1  0  0  0  0
 31 68  1  0  0  0  0
 32 69  1  0  0  0  0
 32 70  1  0  0  0  0
 32 71  1  0  0  0  0
 33 72  1  0  0  0  0
 33 73  1  0  0  0  0
 33 74  1  0  0  0  0
M  END
> <PUBCHEM_COMPOUND_CID>
137705073

> <PUBCHEM_CONFORMER_RMSD>
1

> <PUBCHEM_CONFORMER_DIVERSEORDER>
1

> <PUBCHEM_MMFF94_PARTIAL_CHARGES>
25
1 -0.68
11 0.27
13 0.28
15 0.28
16 0.28
18 0.28
2 -0.68
21 0.28
23 0.27
25 0.28
27 0.28
28 0.27
29 0.28
3 -0.56
31 0.28
32 0.28
33 0.28
4 -0.68
5 -0.56
55 0.4
56 0.4
59 0.4
6 -0.56
7 -0.56
8 -0.81

> <PUBCHEM_EFFECTIVE_ROTOR_COUNT>
8

> <PUBCHEM_PHARMACOPHORE_FEATURES>
15
1 1 acceptor
1 1 donor
1 2 acceptor
1 2 donor
1 3 acceptor
1 4 acceptor
1 4 donor
1 5 acceptor
1 6 acceptor
1 7 acceptor
1 8 cation
6 9 10 17 18 24 26 rings
8 12 14 15 19 20 21 22 25 rings
8 8 9 10 11 13 16 17 23 rings
8 9 10 11 12 13 14 15 16 rings

> <PUBCHEM_HEAVY_ATOM_COUNT>
33

> <PUBCHEM_ATOM_DEF_STEREO_COUNT>
12

> <PUBCHEM_ATOM_UDEF_STEREO_COUNT>
1

> <PUBCHEM_BOND_DEF_STEREO_COUNT>
0

> <PUBCHEM_BOND_UDEF_STEREO_COUNT>
0

> <PUBCHEM_ISOTOPIC_ATOM_COUNT>
0

> <PUBCHEM_COMPONENT_COUNT>
1

> <PUBCHEM_CACTVS_TAUTO_COUNT>
-1

> <PUBCHEM_CONFORMER_ID>
0835367100000001

> <PUBCHEM_MMFF94_ENERGY>
228.5653

> <PUBCHEM_FEATURE_SELFOVERLAP>
77.543

> <PUBCHEM_SHAPE_FINGERPRINT>
10165383 225 16772693159309579350
10366900 7 17749403580596274992
10863032 1 18334010553818961933
11578080 2 18127100066459060152
11763715 3 17896909627908605911
12403814 3 18412822508163877445
13224815 77 18201166485224903498
13583140 156 18340472375281686498
13726171 33 17345216521624410792
13965767 371 17980237155981083785
14223421 5 18187364307509256316
14289901 80 18187088317057914384
14787075 74 18057329606856583347
16945 1 18194102217716810638
17974551 9 17316770867418581744
18393751 57 17900811967018197936
19319366 153 18200306766428498682
19930381 70 18114743853480326096
229495 10 18340474621512671880
23419403 2 16122122016322118941
23559900 14 18190732047121581594
2748010 2 16341702210460687330
35225 105 18273211984730553423
3797600 57 17988935508426605848
469060 322 17906985698330870200
484985 159 16964067204200456938
57527293 21 18340499910638884899
70251023 43 17822293422762676971

> <PUBCHEM_SHAPE_MULTIPOLES>
633.06
7.17
3.53
2.79
0.41
0.72
0.21
-1.97
1.6
-0.2
-0.97
-0.7
0.03
-0.18

> <PUBCHEM_SHAPE_SELFOVERLAP>
1362.225

> <PUBCHEM_SHAPE_VOLUME>
342.6

> <PUBCHEM_COORDINATE_TYPE>
2
5
10

$$$$
