137795376
  -OEChem-03292013293D

 73 75  0     1  0  0  0  0  0999 V2000
   -2.7356   -4.0122   -1.3344 O   0  0  0  0  0  0  0  0  0  0  0  0
   -3.4442    4.0935   -1.1033 O   0  0  0  0  0  0  0  0  0  0  0  0
    2.8731   -2.0105   -0.2283 O   0  0  0  0  0  0  0  0  0  0  0  0
    0.3229    1.9559    0.5311 O   0  0  0  0  0  0  0  0  0  0  0  0
    4.7883    2.2732   -1.1497 O   0  0  0  0  0  0  0  0  0  0  0  0
    1.4230    4.1837    0.0115 O   0  0  0  0  0  0  0  0  0  0  0  0
    6.1869    0.0107   -1.0097 O   0  0  0  0  0  0  0  0  0  0  0  0
   -2.5973   -1.1308   -0.7719 C   0  0  1  0  0  0  0  0  0  0  0  0
   -4.0134   -1.0713   -0.2227 C   0  0  0  0  0  0  0  0  0  0  0  0
   -2.9994    0.0119    0.1218 C   0  0  2  0  0  0  0  0  0  0  0  0
   -1.5948   -2.1352   -0.2972 C   0  0  2  0  0  0  0  0  0  0  0  0
   -0.1045   -1.7594   -0.5095 C   0  0  2  0  0  0  0  0  0  0  0  0
   -3.0853    1.3949   -0.4274 C   0  0  0  0  0  0  0  0  0  0  0  0
   -5.1632   -0.6829   -1.1185 C   0  0  0  0  0  0  0  0  0  0  0  0
   -4.3967   -2.1056    0.8062 C   0  0  0  0  0  0  0  0  0  0  0  0
    0.5882   -3.1392   -0.4840 C   0  0  0  0  0  0  0  0  0  0  0  0
   -1.6862   -3.4719   -1.0070 C   0  0  0  0  0  0  0  0  0  0  0  0
    0.4188   -0.8777    0.6316 C   0  0  1  0  0  0  0  0  0  0  0  0
   -0.3288   -4.0711   -1.2694 C   0  0  0  0  0  0  0  0  0  0  0  0
    0.1740   -1.0537   -1.8505 C   0  0  0  0  0  0  0  0  0  0  0  0
   -3.9132    2.3168    0.4677 C   0  0  0  0  0  0  0  0  0  0  0  0
    0.7569   -1.7568    1.8578 C   0  0  0  0  0  0  0  0  0  0  0  0
    1.5885   -0.0341    0.1546 C   0  0  0  0  0  0  0  0  0  0  0  0
    0.8063   -1.0157    3.2115 C   0  0  0  0  0  0  0  0  0  0  0  0
   -3.9794    3.7412   -0.0533 C   0  0  0  0  0  0  0  0  0  0  0  0
    2.7706   -0.6499   -0.2567 C   0  0  0  0  0  0  0  0  0  0  0  0
    1.4806    1.3563    0.1279 C   0  0  0  0  0  0  0  0  0  0  0  0
    1.8559    0.0964    3.2310 C   0  0  0  0  0  0  0  0  0  0  0  0
    1.0965   -2.0156    4.3349 C   0  0  0  0  0  0  0  0  0  0  0  0
   -4.7471    4.7224    0.7940 C   0  0  0  0  0  0  0  0  0  0  0  0
    3.8448    0.1247   -0.6945 C   0  0  0  0  0  0  0  0  0  0  0  0
    2.5547    2.1310   -0.3099 C   0  0  0  0  0  0  0  0  0  0  0  0
    3.7368    1.5153   -0.7210 C   0  0  0  0  0  0  0  0  0  0  0  0
    2.4409    3.5852   -0.3386 C   0  0  0  0  0  0  0  0  0  0  0  0
    5.0813   -0.5197   -1.1242 C   0  0  0  0  0  0  0  0  0  0  0  0
   -2.5025   -0.9371   -1.8356 H   0  0  0  0  0  0  0  0  0  0  0  0
   -2.6238    0.0191    1.1399 H   0  0  0  0  0  0  0  0  0  0  0  0
   -1.7536   -2.3657    0.7607 H   0  0  0  0  0  0  0  0  0  0  0  0
   -3.4773    1.4133   -1.4499 H   0  0  0  0  0  0  0  0  0  0  0  0
   -2.0686    1.7961   -0.5053 H   0  0  0  0  0  0  0  0  0  0  0  0
   -5.8652   -0.0335   -0.5861 H   0  0  0  0  0  0  0  0  0  0  0  0
   -4.8374   -0.1749   -2.0309 H   0  0  0  0  0  0  0  0  0  0  0  0
   -4.5141   -3.0914    0.3475 H   0  0  0  0  0  0  0  0  0  0  0  0
   -3.6786   -2.1791    1.6279 H   0  0  0  0  0  0  0  0  0  0  0  0
   -5.3567   -1.8373    1.2622 H   0  0  0  0  0  0  0  0  0  0  0  0
   -5.7095   -1.5774   -1.4382 H   0  0  0  0  0  0  0  0  0  0  0  0
    0.7421   -3.6239    0.4798 H   0  0  0  0  0  0  0  0  0  0  0  0
    1.5047   -3.2108   -1.0652 H   0  0  0  0  0  0  0  0  0  0  0  0
   -0.3890   -0.2105    0.9428 H   0  0  0  0  0  0  0  0  0  0  0  0
   -0.2783   -5.0992   -0.9026 H   0  0  0  0  0  0  0  0  0  0  0  0
   -0.1278   -4.0368   -2.3444 H   0  0  0  0  0  0  0  0  0  0  0  0
   -0.1731   -0.0140   -1.8563 H   0  0  0  0  0  0  0  0  0  0  0  0
   -0.3804   -1.5504   -2.6577 H   0  0  0  0  0  0  0  0  0  0  0  0
    1.2127   -1.0923   -2.1873 H   0  0  0  0  0  0  0  0  0  0  0  0
   -3.4777    2.3462    1.4732 H   0  0  0  0  0  0  0  0  0  0  0  0
   -4.9379    1.9398    0.5531 H   0  0  0  0  0  0  0  0  0  0  0  0
   -0.0248   -2.5125    2.0016 H   0  0  0  0  0  0  0  0  0  0  0  0
    1.7081   -2.2885    1.7594 H   0  0  0  0  0  0  0  0  0  0  0  0
   -0.1760   -0.5670    3.4071 H   0  0  0  0  0  0  0  0  0  0  0  0
    2.8081   -0.2285    2.8008 H   0  0  0  0  0  0  0  0  0  0  0  0
    2.0585    0.4115    4.2617 H   0  0  0  0  0  0  0  0  0  0  0  0
    2.0795   -2.4822    4.2087 H   0  0  0  0  0  0  0  0  0  0  0  0
    1.5013    0.9908    2.7201 H   0  0  0  0  0  0  0  0  0  0  0  0
    0.3431   -2.8102    4.3551 H   0  0  0  0  0  0  0  0  0  0  0  0
    1.0799   -1.5201    5.3115 H   0  0  0  0  0  0  0  0  0  0  0  0
   -4.2826    4.7963    1.7804 H   0  0  0  0  0  0  0  0  0  0  0  0
   -5.7842    4.3914    0.8887 H   0  0  0  0  0  0  0  0  0  0  0  0
   -4.7327    5.7085    0.3216 H   0  0  0  0  0  0  0  0  0  0  0  0
    3.8005   -2.2742   -0.1180 H   0  0  0  0  0  0  0  0  0  0  0  0
    0.2824    2.8768    0.2337 H   0  0  0  0  0  0  0  0  0  0  0  0
    3.3139    4.1578   -0.6921 H   0  0  0  0  0  0  0  0  0  0  0  0
    5.0032   -1.5306   -1.5567 H   0  0  0  0  0  0  0  0  0  0  0  0
    5.4935    1.7175   -1.5161 H   0  0  0  0  0  0  0  0  0  0  0  0
  1 17  2  0  0  0  0
  2 25  2  0  0  0  0
  3 26  1  0  0  0  0
  3 69  1  0  0  0  0
  4 27  1  0  0  0  0
  4 70  1  0  0  0  0
  5 33  1  0  0  0  0
  5 73  1  0  0  0  0
  6 34  2  0  0  0  0
  7 35  2  0  0  0  0
  8  9  1  0  0  0  0
  8 10  1  0  0  0  0
  8 11  1  0  0  0  0
  8 36  1  0  0  0  0
  9 10  1  0  0  0  0
  9 14  1  0  0  0  0
  9 15  1  0  0  0  0
 10 13  1  0  0  0  0
 10 37  1  0  0  0  0
 11 12  1  0  0  0  0
 11 17  1  0  0  0  0
 11 38  1  0  0  0  0
 12 16  1  0  0  0  0
 12 18  1  0  0  0  0
 12 20  1  0  0  0  0
 13 21  1  0  0  0  0
 13 39  1  0  0  0  0
 13 40  1  0  0  0  0
 14 41  1  0  0  0  0
 14 42  1  0  0  0  0
 14 46  1  0  0  0  0
 15 43  1  0  0  0  0
 15 44  1  0  0  0  0
 15 45  1  0  0  0  0
 16 19  1  0  0  0  0
 16 47  1  0  0  0  0
 16 48  1  0  0  0  0
 17 19  1  0  0  0  0
 18 22  1  0  0  0  0
 18 23  1  0  0  0  0
 18 49  1  0  0  0  0
 19 50  1  0  0  0  0
 19 51  1  0  0  0  0
 20 52  1  0  0  0  0
 20 53  1  0  0  0  0
 20 54  1  0  0  0  0
 21 25  1  0  0  0  0
 21 55  1  0  0  0  0
 21 56  1  0  0  0  0
 22 24  1  0  0  0  0
 22 57  1  0  0  0  0
 22 58  1  0  0  0  0
 23 26  2  0  0  0  0
 23 27  1  0  0  0  0
 24 28  1  0  0  0  0
 24 29  1  0  0  0  0
 24 59  1  0  0  0  0
 25 30  1  0  0  0  0
 26 31  1  0  0  0  0
 27 32  2  0  0  0  0
 28 60  1  0  0  0  0
 28 61  1  0  0  0  0
 28 63  1  0  0  0  0
 29 62  1  0  0  0  0
 29 64  1  0  0  0  0
 29 65  1  0  0  0  0
 30 66  1  0  0  0  0
 30 67  1  0  0  0  0
 30 68  1  0  0  0  0
 31 33  2  0  0  0  0
 31 35  1  0  0  0  0
 32 33  1  0  0  0  0
 32 34  1  0  0  0  0
 34 71  1  0  0  0  0
 35 72  1  0  0  0  0
M  END
> <PUBCHEM_COMPOUND_CID>
137795376

> <PUBCHEM_CONFORMER_RMSD>
1.2

> <PUBCHEM_CONFORMER_DIVERSEORDER>
6
13
26
25
15
1
19
22
18
30
28
12
27
20
7
17
16
29
4
14
9
24
5
11
8
23
21
3
10
2

> <PUBCHEM_MMFF94_PARTIAL_CHARGES>
35
1 -0.57
10 -0.19
11 0.16
13 0.09
14 0.09
15 0.09
17 0.45
18 0.14
19 0.06
2 -0.57
21 0.06
23 -0.14
25 0.45
26 0.08
27 0.08
3 -0.53
30 0.06
31 0.09
32 0.09
33 0.08
34 0.42
35 0.42
36 0.1
37 0.1
4 -0.53
5 -0.53
6 -0.57
69 0.45
7 -0.57
70 0.45
71 0.06
72 0.06
73 0.45
8 -0.19
9 -0.19

> <PUBCHEM_EFFECTIVE_ROTOR_COUNT>
11.4

> <PUBCHEM_PHARMACOPHORE_FEATURES>
11
1 1 acceptor
1 2 acceptor
1 3 donor
1 4 donor
1 5 donor
1 6 acceptor
1 7 acceptor
3 24 28 29 hydrophobe
3 9 14 15 hydrophobe
5 11 12 16 17 19 rings
6 23 26 27 31 32 33 rings

> <PUBCHEM_HEAVY_ATOM_COUNT>
35

> <PUBCHEM_ATOM_DEF_STEREO_COUNT>
1

> <PUBCHEM_ATOM_UDEF_STEREO_COUNT>
4

> <PUBCHEM_BOND_DEF_STEREO_COUNT>
0

> <PUBCHEM_BOND_UDEF_STEREO_COUNT>
0

> <PUBCHEM_ISOTOPIC_ATOM_COUNT>
0

> <PUBCHEM_COMPONENT_COUNT>
1

> <PUBCHEM_CACTVS_TAUTO_COUNT>
-1

> <PUBCHEM_CONFORMER_ID>
0836973000000006

> <PUBCHEM_MMFF94_ENERGY>
129.3928

> <PUBCHEM_FEATURE_SELFOVERLAP>
55.822

> <PUBCHEM_SHAPE_FINGERPRINT>
10165383 225 17988379117326699699
10483366 6 17837225774705775390
11093857 51 17912068465829484789
11513181 2 18130506319269618551
11578080 2 16842475962558088722
1200032 147 18048335348501959129
12107698 1 18261680367229273363
12156800 1 15596092117152797667
12788726 201 18409438194974175801
13383661 66 12367287058857724373
133893 2 16084418602791015130
13726171 33 18339652122306736169
14790565 3 18411708659935417004
15082195 135 18196634221856257669
15219462 58 17241907406180636737
15297060 5 17986955145956174921
15320467 1 17980201108421210933
17921350 177 17464524313716814525
19311894 1 18412267220210838996
19319366 153 17532663333948937768
19930381 70 15962863563328348743
20764821 26 17832127343551142325
21033648 29 17700095904049352803
21033650 10 18118145747368720468
22149856 69 17986101909299147233
23419403 2 15301113694222358619
23559900 14 17986949850604344366
350125 39 18412831274582336757
508180 173 18269573705829750056
5252454 2 17917150473604093467
57527295 17 18114479872507097722
57527585 103 16739459479561778098
5895379 119 18340188787333943154

> <PUBCHEM_SHAPE_MULTIPOLES>
679.2
9.6
5.89
2.42
0.43
3.88
-3.99
6.69
3.42
5.76
1.28
-1.67
-1.86
-1.7

> <PUBCHEM_SHAPE_SELFOVERLAP>
1437.993

> <PUBCHEM_SHAPE_VOLUME>
381.8

> <PUBCHEM_COORDINATE_TYPE>
2
5
10

$$$$
