137706306
  -OEChem-03292013293D

 59 63  0     1  0  0  0  0  0999 V2000
   -0.5476   -1.7011    1.7189 O   0  0  0  0  0  0  0  0  0  0  0  0
   -2.2403   -2.5928    0.3538 O   0  0  0  0  0  0  0  0  0  0  0  0
    0.2740   -3.4862   -0.3044 O   0  0  0  0  0  0  0  0  0  0  0  0
    2.1530    1.7866   -0.4262 O   0  0  0  0  0  0  0  0  0  0  0  0
   -3.7677   -0.6376    1.3751 O   0  0  0  0  0  0  0  0  0  0  0  0
   -2.3554   -0.6756   -2.1712 O   0  0  0  0  0  0  0  0  0  0  0  0
    3.0612    3.4419    0.9048 O   0  0  0  0  0  0  0  0  0  0  0  0
    0.8846   -0.0535    0.5406 C   0  0  1  0  0  0  0  0  0  0  0  0
   -1.6403   -0.2508    0.1478 C   0  0  1  0  0  0  0  0  0  0  0  0
   -0.4185    0.7223    0.0673 C   0  0  1  0  0  0  0  0  0  0  0  0
    1.1700   -1.1715   -0.5429 C   0  0  2  0  0  0  0  0  0  0  0  0
   -1.1427   -1.6834    0.4051 C   0  0  1  0  0  0  0  0  0  0  0  0
   -0.0522   -2.1316   -0.5915 C   0  0  2  0  0  0  0  0  0  0  0  0
   -2.6903    0.2730    1.1775 C   0  0  1  0  0  0  0  0  0  0  0  0
    2.6187   -1.8050   -0.5686 C   0  0  0  0  0  0  0  0  0  0  0  0
    2.0865    0.9084    0.7032 C   0  0  1  0  0  0  0  0  0  0  0  0
    0.5143   -0.7459    1.8735 C   0  0  0  0  0  0  0  0  0  0  0  0
   -0.6893    2.0622    0.8022 C   0  0  0  0  0  0  0  0  0  0  0  0
   -3.1952    1.5586    0.5080 C   0  0  1  0  0  0  0  0  0  0  0  0
   -2.4582   -0.0535   -1.1278 C   0  0  0  0  0  0  0  0  0  0  0  0
   -2.0984    2.6336    0.5612 C   0  0  0  0  0  0  0  0  0  0  0  0
    3.6735   -0.6796   -0.4210 C   0  0  0  0  0  0  0  0  0  0  0  0
    3.4291    0.1924    0.8070 C   0  0  0  0  0  0  0  0  0  0  0  0
   -3.4020    1.0822   -0.9101 C   0  0  0  0  0  0  0  0  0  0  0  0
    2.9321   -2.8785    0.4984 C   0  0  0  0  0  0  0  0  0  0  0  0
    2.8498   -2.4697   -1.9490 C   0  0  0  0  0  0  0  0  0  0  0  0
   -4.2844    1.5016   -1.8175 C   0  0  0  0  0  0  0  0  0  0  0  0
    2.6639    3.0248   -0.1747 C   0  0  0  0  0  0  0  0  0  0  0  0
    2.6720    3.8287   -1.4395 C   0  0  0  0  0  0  0  0  0  0  0  0
   -0.2644    1.0023   -0.9859 H   0  0  0  0  0  0  0  0  0  0  0  0
    1.1194   -0.6187   -1.4959 H   0  0  0  0  0  0  0  0  0  0  0  0
   -0.4442   -2.1404   -1.6145 H   0  0  0  0  0  0  0  0  0  0  0  0
   -2.2539    0.4575    2.1646 H   0  0  0  0  0  0  0  0  0  0  0  0
    1.9315    1.4901    1.6215 H   0  0  0  0  0  0  0  0  0  0  0  0
    1.3575   -1.2640    2.3297 H   0  0  0  0  0  0  0  0  0  0  0  0
    0.1872   -0.0178    2.6231 H   0  0  0  0  0  0  0  0  0  0  0  0
    0.0324    2.8265    0.5020 H   0  0  0  0  0  0  0  0  0  0  0  0
   -0.5500    1.9353    1.8819 H   0  0  0  0  0  0  0  0  0  0  0  0
   -4.1373    1.9176    0.9359 H   0  0  0  0  0  0  0  0  0  0  0  0
   -2.3217    3.3298    1.3796 H   0  0  0  0  0  0  0  0  0  0  0  0
   -2.0994    3.2364   -0.3558 H   0  0  0  0  0  0  0  0  0  0  0  0
    3.6758   -0.0501   -1.3207 H   0  0  0  0  0  0  0  0  0  0  0  0
    4.6832   -1.1058   -0.3591 H   0  0  0  0  0  0  0  0  0  0  0  0
    3.4809   -0.4026    1.7243 H   0  0  0  0  0  0  0  0  0  0  0  0
    4.2417    0.9264    0.8662 H   0  0  0  0  0  0  0  0  0  0  0  0
    2.4429   -3.8346    0.2990 H   0  0  0  0  0  0  0  0  0  0  0  0
    2.1599   -3.3023   -2.1192 H   0  0  0  0  0  0  0  0  0  0  0  0
    3.8691   -2.8650   -2.0310 H   0  0  0  0  0  0  0  0  0  0  0  0
    2.7106   -1.7521   -2.7655 H   0  0  0  0  0  0  0  0  0  0  0  0
    2.6657   -2.5706    1.5078 H   0  0  0  0  0  0  0  0  0  0  0  0
    4.0060   -3.1047    0.5139 H   0  0  0  0  0  0  0  0  0  0  0  0
   -1.8879   -3.4947    0.2884 H   0  0  0  0  0  0  0  0  0  0  0  0
   -0.3592   -4.0541   -0.7751 H   0  0  0  0  0  0  0  0  0  0  0  0
   -4.4080   -0.2069    1.9668 H   0  0  0  0  0  0  0  0  0  0  0  0
   -4.9658    2.3145   -1.5905 H   0  0  0  0  0  0  0  0  0  0  0  0
   -4.3488    1.0506   -2.8016 H   0  0  0  0  0  0  0  0  0  0  0  0
    3.3023    3.3386   -2.1858 H   0  0  0  0  0  0  0  0  0  0  0  0
    3.0814    4.8222   -1.2353 H   0  0  0  0  0  0  0  0  0  0  0  0
    1.6508    3.9426   -1.8120 H   0  0  0  0  0  0  0  0  0  0  0  0
  1 12  1  0  0  0  0
  1 17  1  0  0  0  0
  2 12  1  0  0  0  0
  2 52  1  0  0  0  0
  3 13  1  0  0  0  0
  3 53  1  0  0  0  0
  4 16  1  0  0  0  0
  4 28  1  0  0  0  0
  5 14  1  0  0  0  0
  5 54  1  0  0  0  0
  6 20  2  0  0  0  0
  7 28  2  0  0  0  0
  8 10  1  0  0  0  0
  8 11  1  0  0  0  0
  8 16  1  0  0  0  0
  8 17  1  0  0  0  0
  9 10  1  0  0  0  0
  9 12  1  0  0  0  0
  9 14  1  0  0  0  0
  9 20  1  0  0  0  0
 10 18  1  0  0  0  0
 10 30  1  0  0  0  0
 11 13  1  0  0  0  0
 11 15  1  0  0  0  0
 11 31  1  0  0  0  0
 12 13  1  0  0  0  0
 13 32  1  0  0  0  0
 14 19  1  0  0  0  0
 14 33  1  0  0  0  0
 15 22  1  0  0  0  0
 15 25  1  0  0  0  0
 15 26  1  0  0  0  0
 16 23  1  0  0  0  0
 16 34  1  0  0  0  0
 17 35  1  0  0  0  0
 17 36  1  0  0  0  0
 18 21  1  0  0  0  0
 18 37  1  0  0  0  0
 18 38  1  0  0  0  0
 19 21  1  0  0  0  0
 19 24  1  0  0  0  0
 19 39  1  0  0  0  0
 20 24  1  0  0  0  0
 21 40  1  0  0  0  0
 21 41  1  0  0  0  0
 22 23  1  0  0  0  0
 22 42  1  0  0  0  0
 22 43  1  0  0  0  0
 23 44  1  0  0  0  0
 23 45  1  0  0  0  0
 24 27  2  0  0  0  0
 25 46  1  0  0  0  0
 25 50  1  0  0  0  0
 25 51  1  0  0  0  0
 26 47  1  0  0  0  0
 26 48  1  0  0  0  0
 26 49  1  0  0  0  0
 27 55  1  0  0  0  0
 27 56  1  0  0  0  0
 28 29  1  0  0  0  0
 29 57  1  0  0  0  0
 29 58  1  0  0  0  0
 29 59  1  0  0  0  0
M  END
> <PUBCHEM_COMPOUND_CID>
137706306

> <PUBCHEM_CONFORMER_RMSD>
0.8

> <PUBCHEM_CONFORMER_DIVERSEORDER>
1
3
2

> <PUBCHEM_MMFF94_PARTIAL_CHARGES>
24
1 -0.56
12 0.56
13 0.28
14 0.28
16 0.28
17 0.28
19 0.14
2 -0.68
20 0.49
24 -0.12
27 -0.3
28 0.66
29 0.06
3 -0.68
4 -0.43
5 -0.68
52 0.4
53 0.4
54 0.4
55 0.15
56 0.15
6 -0.57
7 -0.57
9 0.06

> <PUBCHEM_EFFECTIVE_ROTOR_COUNT>
4

> <PUBCHEM_PHARMACOPHORE_FEATURES>
13
1 1 acceptor
1 2 acceptor
1 2 donor
1 3 acceptor
1 3 donor
1 5 acceptor
1 5 donor
1 6 acceptor
1 7 acceptor
3 15 25 26 hydrophobe
6 8 11 15 16 22 23 rings
8 1 8 9 10 11 12 13 17 rings
8 9 10 14 18 19 20 21 24 rings

> <PUBCHEM_HEAVY_ATOM_COUNT>
29

> <PUBCHEM_ATOM_DEF_STEREO_COUNT>
7

> <PUBCHEM_ATOM_UDEF_STEREO_COUNT>
2

> <PUBCHEM_BOND_DEF_STEREO_COUNT>
0

> <PUBCHEM_BOND_UDEF_STEREO_COUNT>
0

> <PUBCHEM_ISOTOPIC_ATOM_COUNT>
0

> <PUBCHEM_COMPONENT_COUNT>
1

> <PUBCHEM_CACTVS_TAUTO_COUNT>
-1

> <PUBCHEM_CONFORMER_ID>
08353B4200000001

> <PUBCHEM_MMFF94_ENERGY>
126.7313

> <PUBCHEM_FEATURE_SELFOVERLAP>
66.065

> <PUBCHEM_SHAPE_FINGERPRINT>
10165383 225 17908732830818642056
10863032 1 18198919173915910267
10871710 139 17038114372838711396
10948715 1 18188475961136087637
10967382 1 18196095443298269706
11578080 2 17385714786186463084
12173636 292 18197786711204346977
12553582 1 18051140185410270898
12788726 201 17686622342977009866
13134695 92 18191297183403208702
13140716 1 18267868474589146864
13149001 5 18262814981413743254
13224815 77 18270113509528881059
13583140 156 17603578625657487355
14223421 5 18262807379279223633
14713325 29 17758969512099001896
14955137 171 17694249697545044889
15420108 30 16330195413223444769
16945 1 18197221351726851875
17349148 13 18269533040403742546
17980427 23 17980721040050027056
18186145 218 18265340507946032527
18981168 100 18261397779497161445
19591789 44 16898212538841857114
19930381 70 18340212989369160913
20691752 17 17905326230268077210
22907989 373 17616811471389169773
2334 1 18196371639591349034
23419403 2 17683571416677731416
23558518 356 18335984276122624648
23559900 14 18342170064590795016
238 59 18411693279409168101
2748010 2 18411425045948811731
34934 24 17619068330689867689
350125 39 18337966699845658898
352729 6 18341330084360944712
469060 322 17396711246804875705
474 4 18411129217164984957
6287921 2 18338813297955487237
70251023 43 18128529376235634341
9709674 26 18342739606833894198
9981440 41 18051393352463522440

> <PUBCHEM_SHAPE_MULTIPOLES>
555.72
6.56
4.15
1.64
2
2.43
0.35
1.22
1.56
-3.62
0.6
0.53
-0.18
0.47

> <PUBCHEM_SHAPE_SELFOVERLAP>
1222.798

> <PUBCHEM_SHAPE_VOLUME>
290.3

> <PUBCHEM_COORDINATE_TYPE>
2
5
10

$$$$
