137706174
  -OEChem-03292013293D

 52 55  0     1  0  0  0  0  0999 V2000
    2.2793    3.8567   -0.8326 O   0  0  0  0  0  0  0  0  0  0  0  0
    4.1111    2.5874    0.7621 O   0  0  0  0  0  0  0  0  0  0  0  0
    1.3290   -2.5688   -0.2729 O   0  0  0  0  0  0  0  0  0  0  0  0
   -4.9820   -2.5009    1.2167 O   0  0  0  0  0  0  0  0  0  0  0  0
    3.8837   -4.9484    0.5235 O   0  0  0  0  0  0  0  0  0  0  0  0
    3.9208   -3.1460   -0.8686 O   0  0  0  0  0  0  0  0  0  0  0  0
    0.0001   -2.4607    0.1535 N   0  0  0  0  0  0  0  0  0  0  0  0
    0.4412    2.9182    0.4959 C   0  0  1  0  0  0  0  0  0  0  0  0
    0.6682    1.3933    0.2225 C   0  0  1  0  0  0  0  0  0  0  0  0
    0.0503    0.9124   -1.1127 C   0  0  2  0  0  0  0  0  0  0  0  0
    1.8677    3.5293    0.4931 C   0  0  1  0  0  0  0  0  0  0  0  0
   -1.4560    1.2640   -1.2321 C   0  0  2  0  0  0  0  0  0  0  0  0
   -0.4958    3.5558   -0.5507 C   0  0  0  0  0  0  0  0  0  0  0  0
    2.1970    1.1830    0.2735 C   0  0  0  0  0  0  0  0  0  0  0  0
    2.7355    2.3906    1.0245 C   0  0  1  0  0  0  0  0  0  0  0  0
   -1.7514    2.7145   -0.7716 C   0  0  0  0  0  0  0  0  0  0  0  0
   -0.1689    3.0957    1.9086 C   0  0  0  0  0  0  0  0  0  0  0  0
    0.2751   -0.5777   -1.3727 C   0  0  0  0  0  0  0  0  0  0  0  0
   -2.3802    0.2402   -0.5791 C   0  0  0  0  0  0  0  0  0  0  0  0
   -0.5211   -1.4171   -0.4062 C   0  0  0  0  0  0  0  0  0  0  0  0
   -1.9241   -1.0217   -0.1600 C   0  0  0  0  0  0  0  0  0  0  0  0
   -3.7508    0.5230   -0.4295 C   0  0  0  0  0  0  0  0  0  0  0  0
   -2.7934   -1.9348    0.4543 C   0  0  0  0  0  0  0  0  0  0  0  0
   -4.6185   -0.3887    0.1751 C   0  0  0  0  0  0  0  0  0  0  0  0
   -4.1373   -1.6122    0.6264 C   0  0  0  0  0  0  0  0  0  0  0  0
    1.8942   -3.7154    0.3447 C   0  0  0  0  0  0  0  0  0  0  0  0
    3.3262   -3.8717   -0.0858 C   0  0  0  0  0  0  0  0  0  0  0  0
    0.2260    0.8134    1.0436 H   0  0  0  0  0  0  0  0  0  0  0  0
    0.5697    1.4478   -1.9214 H   0  0  0  0  0  0  0  0  0  0  0  0
    1.9659    4.4304    1.1076 H   0  0  0  0  0  0  0  0  0  0  0  0
   -1.6956    1.2122   -2.3053 H   0  0  0  0  0  0  0  0  0  0  0  0
   -0.0024    3.6687   -1.5226 H   0  0  0  0  0  0  0  0  0  0  0  0
   -0.7800    4.5680   -0.2374 H   0  0  0  0  0  0  0  0  0  0  0  0
    2.4620    0.2477    0.7788 H   0  0  0  0  0  0  0  0  0  0  0  0
    2.6386    1.1329   -0.7297 H   0  0  0  0  0  0  0  0  0  0  0  0
    2.6041    2.2645    2.1046 H   0  0  0  0  0  0  0  0  0  0  0  0
   -2.3434    2.7307    0.1504 H   0  0  0  0  0  0  0  0  0  0  0  0
   -2.3768    3.2057   -1.5286 H   0  0  0  0  0  0  0  0  0  0  0  0
    0.4780    2.6867    2.6914 H   0  0  0  0  0  0  0  0  0  0  0  0
   -1.1342    2.5881    2.0016 H   0  0  0  0  0  0  0  0  0  0  0  0
   -0.3253    4.1566    2.1339 H   0  0  0  0  0  0  0  0  0  0  0  0
    1.3495   -0.7668   -1.3770 H   0  0  0  0  0  0  0  0  0  0  0  0
   -0.0751   -0.8344   -2.3817 H   0  0  0  0  0  0  0  0  0  0  0  0
    1.8761    4.7119   -1.0594 H   0  0  0  0  0  0  0  0  0  0  0  0
    4.5800    1.7826    1.0414 H   0  0  0  0  0  0  0  0  0  0  0  0
   -4.1625    1.4653   -0.7832 H   0  0  0  0  0  0  0  0  0  0  0  0
   -2.4354   -2.9073    0.7831 H   0  0  0  0  0  0  0  0  0  0  0  0
   -5.6693   -0.1358    0.2875 H   0  0  0  0  0  0  0  0  0  0  0  0
   -4.4809   -3.2967    1.4648 H   0  0  0  0  0  0  0  0  0  0  0  0
    1.8660   -3.5929    1.4328 H   0  0  0  0  0  0  0  0  0  0  0  0
    1.3366   -4.6072    0.0392 H   0  0  0  0  0  0  0  0  0  0  0  0
    4.8203   -5.0738    0.2601 H   0  0  0  0  0  0  0  0  0  0  0  0
  1 11  1  0  0  0  0
  1 44  1  0  0  0  0
  2 15  1  0  0  0  0
  2 45  1  0  0  0  0
  3  7  1  0  0  0  0
  3 26  1  0  0  0  0
  4 25  1  0  0  0  0
  4 49  1  0  0  0  0
  5 27  1  0  0  0  0
  5 52  1  0  0  0  0
  6 27  2  0  0  0  0
  7 20  2  3  0  0  0
  8  9  1  0  0  0  0
  8 11  1  0  0  0  0
  8 13  1  0  0  0  0
  8 17  1  0  0  0  0
  9 10  1  0  0  0  0
  9 14  1  0  0  0  0
  9 28  1  0  0  0  0
 10 12  1  0  0  0  0
 10 18  1  0  0  0  0
 10 29  1  0  0  0  0
 11 15  1  0  0  0  0
 11 30  1  0  0  0  0
 12 16  1  0  0  0  0
 12 19  1  0  0  0  0
 12 31  1  0  0  0  0
 13 16  1  0  0  0  0
 13 32  1  0  0  0  0
 13 33  1  0  0  0  0
 14 15  1  0  0  0  0
 14 34  1  0  0  0  0
 14 35  1  0  0  0  0
 15 36  1  0  0  0  0
 16 37  1  0  0  0  0
 16 38  1  0  0  0  0
 17 39  1  0  0  0  0
 17 40  1  0  0  0  0
 17 41  1  0  0  0  0
 18 20  1  0  0  0  0
 18 42  1  0  0  0  0
 18 43  1  0  0  0  0
 19 21  2  0  0  0  0
 19 22  1  0  0  0  0
 20 21  1  0  0  0  0
 21 23  1  0  0  0  0
 22 24  2  0  0  0  0
 22 46  1  0  0  0  0
 23 25  2  0  0  0  0
 23 47  1  0  0  0  0
 24 25  1  0  0  0  0
 24 48  1  0  0  0  0
 26 27  1  0  0  0  0
 26 50  1  0  0  0  0
 26 51  1  0  0  0  0
M  END
> <PUBCHEM_COMPOUND_CID>
137706174

> <PUBCHEM_CONFORMER_RMSD>
0.8

> <PUBCHEM_CONFORMER_DIVERSEORDER>
1
14
13
19
9
7
15
17
10
20
12
16
3
8
11
5
2
21
4
18
6

> <PUBCHEM_MMFF94_PARTIAL_CHARGES>
27
1 -0.68
11 0.28
12 0.14
15 0.28
18 0.06
19 -0.14
2 -0.68
20 0.3
21 0.09
22 -0.15
23 -0.15
24 -0.15
25 0.08
26 0.34
27 0.66
3 -0.22
4 -0.53
44 0.4
45 0.4
46 0.15
47 0.15
48 0.15
49 0.45
5 -0.65
52 0.5
6 -0.57
7 -0.51

> <PUBCHEM_EFFECTIVE_ROTOR_COUNT>
4.2

> <PUBCHEM_PHARMACOPHORE_FEATURES>
13
1 1 acceptor
1 1 donor
1 2 acceptor
1 2 donor
1 4 donor
1 5 acceptor
1 6 acceptor
1 7 acceptor
3 5 6 27 anion
5 8 9 11 14 15 rings
6 10 12 18 19 20 21 rings
6 19 21 22 23 24 25 rings
6 8 9 10 12 13 16 rings

> <PUBCHEM_HEAVY_ATOM_COUNT>
27

> <PUBCHEM_ATOM_DEF_STEREO_COUNT>
4

> <PUBCHEM_ATOM_UDEF_STEREO_COUNT>
2

> <PUBCHEM_BOND_DEF_STEREO_COUNT>
0

> <PUBCHEM_BOND_UDEF_STEREO_COUNT>
1

> <PUBCHEM_ISOTOPIC_ATOM_COUNT>
0

> <PUBCHEM_COMPONENT_COUNT>
1

> <PUBCHEM_CACTVS_TAUTO_COUNT>
-1

> <PUBCHEM_CONFORMER_ID>
08353ABE00000001

> <PUBCHEM_MMFF94_ENERGY>
91.1934

> <PUBCHEM_FEATURE_SELFOVERLAP>
66.172

> <PUBCHEM_SHAPE_FINGERPRINT>
10290309 65 18266726060797554888
10411042 1 18194679272654581775
10871710 139 16684555920654124908
1100329 8 17835240047794375161
11578080 2 16662300950461500823
12633257 1 17766843101701347673
12788726 201 17471562236264999451
12839892 36 17760370294350791539
13140716 1 18124590048741913429
13540713 4 18114178658308847055
138480 1 18411136905193407018
14178342 30 16754356840032555544
14790565 3 18048323532878564333
14866123 147 17907851053053626738
15295992 7 16910887623383594057
15420108 30 17988082300484032703
15475509 84 18124904295184237217
15927050 60 18197780109945478758
19591789 44 18193553604337856236
19930381 70 18410569630244816050
20028762 73 17622163894320633663
20510252 161 17401766324760212519
20642791 105 17467919567058326197
21033648 29 17838890787766987521
21731228 192 17765999780725003219
22956985 138 18334295413320215715
23419403 2 18116695345064783735
23557571 272 17765156068596926078
23559900 14 18187083923538797775
484989 97 18045778980463853005
5265222 85 18120378919909755828
5385378 56 18341059626634666515
58807428 26 17979924040138208067

> <PUBCHEM_SHAPE_MULTIPOLES>
515.45
7.1
6.76
1.19
5.13
6.79
0.1
3.13
2.04
-9.27
0.67
0.07
-0.58
1.33

> <PUBCHEM_SHAPE_SELFOVERLAP>
1115.952

> <PUBCHEM_SHAPE_VOLUME>
279.6

> <PUBCHEM_COORDINATE_TYPE>
2
5
10

$$$$
