137705752
  -OEChem-03292013293D

 55 59  0     1  0  0  0  0  0999 V2000
    2.0932    0.6645    2.2866 O   0  0  0  0  0  0  0  0  0  0  0  0
    0.8157   -2.5473   -0.4701 O   0  0  0  0  0  0  0  0  0  0  0  0
    2.9809   -1.4522    0.7983 O   0  0  0  0  0  0  0  0  0  0  0  0
    0.5349    1.7457   -1.5761 O   0  0  0  0  0  0  0  0  0  0  0  0
    2.7927    2.7769   -0.7031 O   0  0  0  0  0  0  0  0  0  0  0  0
    3.5956   -0.6070   -1.7327 O   0  0  0  0  0  0  0  0  0  0  0  0
   -2.1785    2.1300   -1.5305 O   0  0  0  0  0  0  0  0  0  0  0  0
    2.3332   -3.0221   -2.1124 O   0  0  0  0  0  0  0  0  0  0  0  0
   -4.4516    0.8410   -2.0525 O   0  0  0  0  0  0  0  0  0  0  0  0
    0.7218   -0.3724    0.7185 C   0  0  2  0  0  0  0  0  0  0  0  0
   -0.1619    0.9602    0.6148 C   0  0  2  0  0  0  0  0  0  0  0  0
    2.1923   -0.3563    0.2149 C   0  0  1  0  0  0  0  0  0  0  0  0
   -1.7367    0.7240    0.4367 C   0  0  2  0  0  0  0  0  0  0  0  0
    2.6515    0.9072    0.9190 C   0  0  1  0  0  0  0  0  0  0  0  0
   -0.0173   -1.4583   -0.0429 C   0  0  2  0  0  0  0  0  0  0  0  0
    0.5558    2.0442   -0.1907 C   0  0  1  0  0  0  0  0  0  0  0  0
    1.0708   -0.4006    2.2077 C   0  0  0  0  0  0  0  0  0  0  0  0
   -2.1463   -0.6624    1.0828 C   0  0  2  0  0  0  0  0  0  0  0  0
    2.0051    2.2036    0.3369 C   0  0  2  0  0  0  0  0  0  0  0  0
   -1.2854   -1.8824    0.6566 C   0  0  0  0  0  0  0  0  0  0  0  0
    2.2664   -0.7288   -1.2608 C   0  0  2  0  0  0  0  0  0  0  0  0
   -2.2714    0.8044   -1.0194 C   0  0  1  0  0  0  0  0  0  0  0  0
   -2.4363    1.8655    1.2567 C   0  0  0  0  0  0  0  0  0  0  0  0
    4.1658    1.0792    1.0870 C   0  0  0  0  0  0  0  0  0  0  0  0
   -3.6090   -1.0067    0.8654 C   0  0  0  0  0  0  0  0  0  0  0  0
    1.8173   -2.2039   -1.3598 C   0  0  0  0  0  0  0  0  0  0  0  0
   -3.7396    0.4151   -1.1426 C   0  0  0  0  0  0  0  0  0  0  0  0
   -4.3288   -0.5194   -0.1550 C   0  0  0  0  0  0  0  0  0  0  0  0
   -4.2301   -1.9416    1.8669 C   0  0  0  0  0  0  0  0  0  0  0  0
   -0.1348    1.4154    1.6173 H   0  0  0  0  0  0  0  0  0  0  0  0
   -0.3437   -1.0465   -0.9998 H   0  0  0  0  0  0  0  0  0  0  0  0
    0.0437    3.0068   -0.0843 H   0  0  0  0  0  0  0  0  0  0  0  0
    0.2561   -0.1571    2.8967 H   0  0  0  0  0  0  0  0  0  0  0  0
    1.5093   -1.3409    2.5581 H   0  0  0  0  0  0  0  0  0  0  0  0
   -2.0036   -0.5451    2.1671 H   0  0  0  0  0  0  0  0  0  0  0  0
    1.9735    2.9330    1.1577 H   0  0  0  0  0  0  0  0  0  0  0  0
   -1.0422   -2.4903    1.5380 H   0  0  0  0  0  0  0  0  0  0  0  0
   -1.8375   -2.5610   -0.0078 H   0  0  0  0  0  0  0  0  0  0  0  0
    1.6395   -0.1485   -1.9273 H   0  0  0  0  0  0  0  0  0  0  0  0
   -1.7514    0.1328   -1.7038 H   0  0  0  0  0  0  0  0  0  0  0  0
   -2.1090    2.8567    0.9247 H   0  0  0  0  0  0  0  0  0  0  0  0
   -2.1997    1.7857    2.3244 H   0  0  0  0  0  0  0  0  0  0  0  0
   -3.5269    1.8403    1.1721 H   0  0  0  0  0  0  0  0  0  0  0  0
    4.5992    0.2828    1.7016 H   0  0  0  0  0  0  0  0  0  0  0  0
    4.3857    2.0126    1.6183 H   0  0  0  0  0  0  0  0  0  0  0  0
    4.6834    1.1014    0.1238 H   0  0  0  0  0  0  0  0  0  0  0  0
    3.8709   -1.4173    0.4069 H   0  0  0  0  0  0  0  0  0  0  0  0
   -0.0321    0.9851   -1.7505 H   0  0  0  0  0  0  0  0  0  0  0  0
    2.3530    3.5964   -0.9871 H   0  0  0  0  0  0  0  0  0  0  0  0
   -5.3731   -0.7800   -0.2912 H   0  0  0  0  0  0  0  0  0  0  0  0
    3.5934   -0.8331   -2.6785 H   0  0  0  0  0  0  0  0  0  0  0  0
   -2.3906    2.0954   -2.4790 H   0  0  0  0  0  0  0  0  0  0  0  0
   -5.2866   -2.1345    1.6518 H   0  0  0  0  0  0  0  0  0  0  0  0
   -4.1705   -1.5128    2.8726 H   0  0  0  0  0  0  0  0  0  0  0  0
   -3.7119   -2.9056    1.8683 H   0  0  0  0  0  0  0  0  0  0  0  0
  1 14  1  0  0  0  0
  1 17  1  0  0  0  0
  2 15  1  0  0  0  0
  2 26  1  0  0  0  0
  3 12  1  0  0  0  0
  3 47  1  0  0  0  0
  4 16  1  0  0  0  0
  4 48  1  0  0  0  0
  5 19  1  0  0  0  0
  5 49  1  0  0  0  0
  6 21  1  0  0  0  0
  6 51  1  0  0  0  0
  7 22  1  0  0  0  0
  7 52  1  0  0  0  0
  8 26  2  0  0  0  0
  9 27  2  0  0  0  0
 10 11  1  0  0  0  0
 10 12  1  0  0  0  0
 10 15  1  0  0  0  0
 10 17  1  0  0  0  0
 11 13  1  0  0  0  0
 11 16  1  0  0  0  0
 11 30  1  0  0  0  0
 12 14  1  0  0  0  0
 12 21  1  0  0  0  0
 13 18  1  0  0  0  0
 13 22  1  0  0  0  0
 13 23  1  0  0  0  0
 14 19  1  0  0  0  0
 14 24  1  0  0  0  0
 15 20  1  0  0  0  0
 15 31  1  0  0  0  0
 16 19  1  0  0  0  0
 16 32  1  0  0  0  0
 17 33  1  0  0  0  0
 17 34  1  0  0  0  0
 18 20  1  0  0  0  0
 18 25  1  0  0  0  0
 18 35  1  0  0  0  0
 19 36  1  0  0  0  0
 20 37  1  0  0  0  0
 20 38  1  0  0  0  0
 21 26  1  0  0  0  0
 21 39  1  0  0  0  0
 22 27  1  0  0  0  0
 22 40  1  0  0  0  0
 23 41  1  0  0  0  0
 23 42  1  0  0  0  0
 23 43  1  0  0  0  0
 24 44  1  0  0  0  0
 24 45  1  0  0  0  0
 24 46  1  0  0  0  0
 25 28  2  0  0  0  0
 25 29  1  0  0  0  0
 27 28  1  0  0  0  0
 28 50  1  0  0  0  0
 29 53  1  0  0  0  0
 29 54  1  0  0  0  0
 29 55  1  0  0  0  0
M  END
> <PUBCHEM_COMPOUND_CID>
137705752

> <PUBCHEM_CONFORMER_RMSD>
0.6

> <PUBCHEM_CONFORMER_DIVERSEORDER>
3
2
1

> <PUBCHEM_MMFF94_PARTIAL_CHARGES>
29
1 -0.56
12 0.28
14 0.28
15 0.28
16 0.28
17 0.28
18 0.14
19 0.28
2 -0.43
21 0.34
22 0.34
25 -0.28
26 0.66
27 0.49
28 -0.14
29 0.14
3 -0.68
4 -0.68
47 0.4
48 0.4
49 0.4
5 -0.68
50 0.15
51 0.4
52 0.4
6 -0.68
7 -0.68
8 -0.57
9 -0.57

> <PUBCHEM_EFFECTIVE_ROTOR_COUNT>
1.6

> <PUBCHEM_PHARMACOPHORE_FEATURES>
17
1 1 acceptor
1 3 acceptor
1 3 donor
1 4 acceptor
1 4 donor
1 5 acceptor
1 5 donor
1 6 acceptor
1 6 donor
1 7 acceptor
1 7 donor
1 8 acceptor
1 9 acceptor
6 10 11 13 15 18 20 rings
6 13 18 22 25 27 28 rings
6 2 10 12 15 21 26 rings
8 1 10 11 12 14 16 17 19 rings

> <PUBCHEM_HEAVY_ATOM_COUNT>
29

> <PUBCHEM_ATOM_DEF_STEREO_COUNT>
7

> <PUBCHEM_ATOM_UDEF_STEREO_COUNT>
4

> <PUBCHEM_BOND_DEF_STEREO_COUNT>
0

> <PUBCHEM_BOND_UDEF_STEREO_COUNT>
0

> <PUBCHEM_ISOTOPIC_ATOM_COUNT>
0

> <PUBCHEM_COMPONENT_COUNT>
1

> <PUBCHEM_CACTVS_TAUTO_COUNT>
-1

> <PUBCHEM_CONFORMER_ID>
0835391800000003

> <PUBCHEM_MMFF94_ENERGY>
167.9807

> <PUBCHEM_FEATURE_SELFOVERLAP>
86.479

> <PUBCHEM_SHAPE_FINGERPRINT>
10165383 225 17769960169789245808
10169797 241 14717388378727078195
10646746 165 17603854633230740881
10675989 125 17180774412899492509
10863032 1 17313646235734506825
10871710 139 16460522274446598076
10948715 1 17896876762850764960
11578080 2 15839553961734076819
11640471 11 15285654169962057207
12011746 2 18410281511312297020
12035758 1 18201437013226938274
12156800 1 11542814003802824625
12553582 1 17764317136871481627
12788726 201 16828981188072922662
13140716 1 17907863151401175387
13224815 77 18202281407596212345
13583140 156 17459449191475979091
13726171 33 17823440273736468653
13911987 19 18128808836198287660
14223421 5 18041276664223854747
14787075 74 16916778613558979722
16945 1 18060140895032880570
17349148 13 18342727537854187537
17357779 13 18341618057744636415
17492 54 17608689241887631524
1813 80 16986339096104265758
18981168 100 18409452462101126305
20691752 17 18190745223833124449
20905425 154 17896038922052646293
22182313 1 18410578391788065803
23419403 2 17986101925465529698
23557571 272 18114179761566335249
23559900 14 18114449072816011762
238 59 18059561516607726655
25222932 49 16812363702318430363
2748010 2 18338800013732358451
35225 105 13267398300948585756
57527293 21 17972331869293513883
5895379 119 15142345928894682063
6287921 2 18270419268245161759
633830 44 16772683297769405385
6669772 16 18268998760227440732
70251023 43 17773025355421950655
84936 31 17917999368767252254
9709674 26 18335411357950957701

> <PUBCHEM_SHAPE_MULTIPOLES>
543.98
7.17
2.79
2.01
4.24
0.4
-0.1
0.14
-0.23
-1.15
-0.91
0.06
0.26
1.95

> <PUBCHEM_SHAPE_SELFOVERLAP>
1205.973

> <PUBCHEM_SHAPE_VOLUME>
281.8

> <PUBCHEM_COORDINATE_TYPE>
2
5
10

$$$$
