137706510
  -OEChem-03292013293D

 63 64  0     1  0  0  0  0  0999 V2000
    0.7256   -2.6598   -2.1891 O   0  0  0  0  0  0  0  0  0  0  0  0
   -1.8917   -0.5741    0.2022 O   0  0  0  0  0  0  0  0  0  0  0  0
    4.4227   -0.7446    0.5962 O   0  0  0  0  0  0  0  0  0  0  0  0
   -0.4349   -2.9425   -4.1561 O   0  0  0  0  0  0  0  0  0  0  0  0
    0.0377    3.6702   -0.0870 O   0  0  0  0  0  0  0  0  0  0  0  0
   -3.2397    1.2694    0.4949 O   0  0  0  0  0  0  0  0  0  0  0  0
    5.9123   -0.6958    2.3612 O   0  0  0  0  0  0  0  0  0  0  0  0
    0.2341    4.9887   -1.9738 O   0  0  0  0  0  0  0  0  0  0  0  0
   -7.1361   -0.6036    2.5851 O   0  0  0  0  0  0  0  0  0  0  0  0
   -0.1239   -0.5658   -1.4859 C   0  0  1  0  0  0  0  0  0  0  0  0
   -0.8958    0.2473   -0.4180 C   0  0  2  0  0  0  0  0  0  0  0  0
    0.5308   -1.8673   -1.0059 C   0  0  2  0  0  0  0  0  0  0  0  0
   -0.0615    0.8524    0.7410 C   0  0  0  0  0  0  0  0  0  0  0  0
   -0.8997   -1.1134   -2.6432 C   0  0  0  0  0  0  0  0  0  0  0  0
    1.8608   -1.5642   -0.3858 C   0  0  0  0  0  0  0  0  0  0  0  0
    1.1858    1.6328    0.3783 C   0  0  0  0  0  0  0  0  0  0  0  0
    2.2001   -1.7372    0.9053 C   0  0  0  0  0  0  0  0  0  0  0  0
   -0.2215   -2.3399   -3.1196 C   0  0  0  0  0  0  0  0  0  0  0  0
    3.3394   -0.9308    1.5040 C   0  0  2  0  0  0  0  0  0  0  0  0
    2.8312    0.4465    1.9868 C   0  0  0  0  0  0  0  0  0  0  0  0
    2.4136    1.4151    0.8995 C   0  0  0  0  0  0  0  0  0  0  0  0
    0.9827    2.7576   -0.6058 C   0  0  0  0  0  0  0  0  0  0  0  0
   -2.0185   -0.6708   -3.2223 C   0  0  0  0  0  0  0  0  0  0  0  0
    1.4207   -2.5596    1.8962 C   0  0  0  0  0  0  0  0  0  0  0  0
   -3.0171    0.0728    0.6116 C   0  0  0  0  0  0  0  0  0  0  0  0
   -3.9525   -0.9087    1.2405 C   0  0  0  0  0  0  0  0  0  0  0  0
    5.6604   -0.6423    1.1651 C   0  0  0  0  0  0  0  0  0  0  0  0
   -3.3699   -2.1241    1.8991 C   0  0  0  0  0  0  0  0  0  0  0  0
   -0.2523    4.7540   -0.8759 C   0  0  0  0  0  0  0  0  0  0  0  0
   -5.2634   -0.6229    1.1321 C   0  0  0  0  0  0  0  0  0  0  0  0
    6.6943   -0.4503    0.0973 C   0  0  0  0  0  0  0  0  0  0  0  0
   -6.4098   -1.4195    1.6732 C   0  0  0  0  0  0  0  0  0  0  0  0
   -1.2637    5.6304   -0.2013 C   0  0  0  0  0  0  0  0  0  0  0  0
    0.6366    0.0877   -1.9358 H   0  0  0  0  0  0  0  0  0  0  0  0
   -1.3787    1.0779   -0.9509 H   0  0  0  0  0  0  0  0  0  0  0  0
   -0.1319   -2.4318   -0.3433 H   0  0  0  0  0  0  0  0  0  0  0  0
    0.1642    0.0570    1.4565 H   0  0  0  0  0  0  0  0  0  0  0  0
   -0.7104    1.5261    1.3178 H   0  0  0  0  0  0  0  0  0  0  0  0
    2.5190   -0.9664   -1.0157 H   0  0  0  0  0  0  0  0  0  0  0  0
    3.6973   -1.4940    2.3765 H   0  0  0  0  0  0  0  0  0  0  0  0
    3.6346    0.9411    2.5488 H   0  0  0  0  0  0  0  0  0  0  0  0
    2.0153    0.3182    2.7082 H   0  0  0  0  0  0  0  0  0  0  0  0
    3.2329    2.0396    0.5437 H   0  0  0  0  0  0  0  0  0  0  0  0
    0.6296    2.3624   -1.5644 H   0  0  0  0  0  0  0  0  0  0  0  0
    1.9234    3.2893   -0.7962 H   0  0  0  0  0  0  0  0  0  0  0  0
   -2.5147    0.2273   -2.8716 H   0  0  0  0  0  0  0  0  0  0  0  0
   -2.4703   -1.1886   -4.0617 H   0  0  0  0  0  0  0  0  0  0  0  0
    0.9275   -1.9187    2.6331 H   0  0  0  0  0  0  0  0  0  0  0  0
    2.0964   -3.2371    2.4298 H   0  0  0  0  0  0  0  0  0  0  0  0
    0.6598   -3.1902    1.4310 H   0  0  0  0  0  0  0  0  0  0  0  0
   -3.0569   -2.8533    1.1447 H   0  0  0  0  0  0  0  0  0  0  0  0
   -4.0644   -2.6177    2.5824 H   0  0  0  0  0  0  0  0  0  0  0  0
   -2.4934   -1.8488    2.4964 H   0  0  0  0  0  0  0  0  0  0  0  0
   -5.5664    0.2813    0.6053 H   0  0  0  0  0  0  0  0  0  0  0  0
    6.6949   -1.3105   -0.5767 H   0  0  0  0  0  0  0  0  0  0  0  0
    7.6823   -0.3687    0.5594 H   0  0  0  0  0  0  0  0  0  0  0  0
    6.4903    0.4711   -0.4538 H   0  0  0  0  0  0  0  0  0  0  0  0
   -6.1095   -2.3319    2.1909 H   0  0  0  0  0  0  0  0  0  0  0  0
   -7.0780   -1.6969    0.8514 H   0  0  0  0  0  0  0  0  0  0  0  0
   -2.1846    5.0674   -0.0298 H   0  0  0  0  0  0  0  0  0  0  0  0
   -1.4919    6.4843   -0.8455 H   0  0  0  0  0  0  0  0  0  0  0  0
   -0.8588    6.0033    0.7427 H   0  0  0  0  0  0  0  0  0  0  0  0
   -7.8962   -1.1265    2.8924 H   0  0  0  0  0  0  0  0  0  0  0  0
  1 12  1  0  0  0  0
  1 18  1  0  0  0  0
  2 11  1  0  0  0  0
  2 25  1  0  0  0  0
  3 19  1  0  0  0  0
  3 27  1  0  0  0  0
  4 18  2  0  0  0  0
  5 22  1  0  0  0  0
  5 29  1  0  0  0  0
  6 25  2  0  0  0  0
  7 27  2  0  0  0  0
  8 29  2  0  0  0  0
  9 32  1  0  0  0  0
  9 63  1  0  0  0  0
 10 11  1  0  0  0  0
 10 12  1  0  0  0  0
 10 14  1  0  0  0  0
 10 34  1  0  0  0  0
 11 13  1  0  0  0  0
 11 35  1  0  0  0  0
 12 15  1  0  0  0  0
 12 36  1  0  0  0  0
 13 16  1  0  0  0  0
 13 37  1  0  0  0  0
 13 38  1  0  0  0  0
 14 18  1  0  0  0  0
 14 23  2  0  0  0  0
 15 17  2  3  0  0  0
 15 39  1  0  0  0  0
 16 21  2  3  0  0  0
 16 22  1  0  0  0  0
 17 19  1  0  0  0  0
 17 24  1  0  0  0  0
 19 20  1  0  0  0  0
 19 40  1  0  0  0  0
 20 21  1  0  0  0  0
 20 41  1  0  0  0  0
 20 42  1  0  0  0  0
 21 43  1  0  0  0  0
 22 44  1  0  0  0  0
 22 45  1  0  0  0  0
 23 46  1  0  0  0  0
 23 47  1  0  0  0  0
 24 48  1  0  0  0  0
 24 49  1  0  0  0  0
 24 50  1  0  0  0  0
 25 26  1  0  0  0  0
 26 28  1  0  0  0  0
 26 30  2  3  0  0  0
 27 31  1  0  0  0  0
 28 51  1  0  0  0  0
 28 52  1  0  0  0  0
 28 53  1  0  0  0  0
 29 33  1  0  0  0  0
 30 32  1  0  0  0  0
 30 54  1  0  0  0  0
 31 55  1  0  0  0  0
 31 56  1  0  0  0  0
 31 57  1  0  0  0  0
 32 58  1  0  0  0  0
 32 59  1  0  0  0  0
 33 60  1  0  0  0  0
 33 61  1  0  0  0  0
 33 62  1  0  0  0  0
M  END
> <PUBCHEM_COMPOUND_CID>
137706510

> <PUBCHEM_CONFORMER_RMSD>
1

> <PUBCHEM_CONFORMER_DIVERSEORDER>
1
39
35
3
30
8
40
44
19
16
6
36
26
25
43
38
11
17
21
27
9
37
7
45
5
41
33
42
13
20
18
2
22
14
28
31
24
15
34
23
12
29
10
46
4
32

> <PUBCHEM_MMFF94_PARTIAL_CHARGES>
39
1 -0.43
10 0.14
11 0.28
12 0.42
13 0.14
14 -0.12
15 -0.29
16 -0.28
17 -0.28
18 0.71
19 0.42
2 -0.43
20 0.14
21 -0.29
22 0.42
23 -0.3
24 0.14
25 0.71
26 -0.12
27 0.66
28 0.14
29 0.66
3 -0.43
30 -0.29
31 0.06
32 0.42
33 0.06
39 0.15
4 -0.57
43 0.15
46 0.15
47 0.15
5 -0.43
54 0.15
6 -0.57
63 0.4
7 -0.57
8 -0.57
9 -0.68

> <PUBCHEM_EFFECTIVE_ROTOR_COUNT>
10

> <PUBCHEM_PHARMACOPHORE_FEATURES>
8
1 28 hydrophobe
1 4 acceptor
1 6 acceptor
1 7 acceptor
1 8 acceptor
1 9 acceptor
1 9 donor
5 1 10 12 14 18 rings

> <PUBCHEM_HEAVY_ATOM_COUNT>
33

> <PUBCHEM_ATOM_DEF_STEREO_COUNT>
2

> <PUBCHEM_ATOM_UDEF_STEREO_COUNT>
2

> <PUBCHEM_BOND_DEF_STEREO_COUNT>
0

> <PUBCHEM_BOND_UDEF_STEREO_COUNT>
3

> <PUBCHEM_ISOTOPIC_ATOM_COUNT>
0

> <PUBCHEM_COMPONENT_COUNT>
1

> <PUBCHEM_CACTVS_TAUTO_COUNT>
-1

> <PUBCHEM_CONFORMER_ID>
08353C0E00000001

> <PUBCHEM_MMFF94_ENERGY>
66.3668

> <PUBCHEM_FEATURE_SELFOVERLAP>
40.599

> <PUBCHEM_SHAPE_FINGERPRINT>
11093857 5 17472160383972070217
11297750 10 17481734969353148999
11578080 2 16807559570611503470
12058002 1 17769135398614058826
12160290 23 17759759756001656632
12633257 1 18336270140851804859
14840074 17 18272925033938942164
14856354 85 18333455339682169242
14955137 171 18131077056114434002
15219462 58 17972856095927250018
15775530 1 17408810916959864228
17980427 23 18271245036249303847
17980427 26 17685781619612095349
1979834 28 17845673503220540435
22121540 332 17057258643836293896
23558518 356 17261028243546592164
23559900 14 15503517013797267539
3380486 145 17979879956367717160
469060 322 18269813428553728631
550186 7 18194115218535550788
57527306 92 18341908427846595432
59755656 520 15985381183714001987

> <PUBCHEM_SHAPE_MULTIPOLES>
626.3
10.88
5.22
3.31
2
11.82
3.4
-6.84
-12.15
0.99
2.75
1.82
-3.19
0.35

> <PUBCHEM_SHAPE_SELFOVERLAP>
1286.717

> <PUBCHEM_SHAPE_VOLUME>
357.4

> <PUBCHEM_COORDINATE_TYPE>
2
5
10

$$$$
