13797589
  -OEChem-03292013303D

 57 60  0     1  0  0  0  0  0999 V2000
    3.4382   -1.4964    1.7949 O   0  0  0  0  0  0  0  0  0  0  0  0
    2.2690    1.7073    0.5027 O   0  0  0  0  0  0  0  0  0  0  0  0
    3.5753   -2.1025   -1.3789 O   0  0  0  0  0  0  0  0  0  0  0  0
    4.0673    1.2305   -1.5739 O   0  0  0  0  0  0  0  0  0  0  0  0
    0.6374   -0.3914   -2.5951 O   0  0  0  0  0  0  0  0  0  0  0  0
   -2.5815    0.6020    0.1596 O   0  0  0  0  0  0  0  0  0  0  0  0
   -3.1092   -0.9908    1.7421 O   0  0  0  0  0  0  0  0  0  0  0  0
    1.7739   -1.0574   -0.0260 C   0  0  1  0  0  0  0  0  0  0  0  0
    2.5655   -0.5454    1.1633 C   0  0  2  0  0  0  0  0  0  0  0  0
    0.5814   -0.0079   -0.2379 C   0  0  2  0  0  0  0  0  0  0  0  0
    3.2533    0.6808    0.6699 C   0  0  1  0  0  0  0  0  0  0  0  0
    2.8593   -0.8853   -1.1702 C   0  0  1  0  0  0  0  0  0  0  0  0
    2.4111   -0.9253    2.6162 C   0  0  0  0  0  0  0  0  0  0  0  0
    3.8589    0.1804   -0.6499 C   0  0  1  0  0  0  0  0  0  0  0  0
    1.1908    1.4274   -0.4095 C   0  0  1  0  0  0  0  0  0  0  0  0
    1.2909   -2.5055    0.1150 C   0  0  0  0  0  0  0  0  0  0  0  0
   -0.3872    0.0250    0.9906 C   0  0  0  0  0  0  0  0  0  0  0  0
   -0.2458   -0.3769   -1.4995 C   0  0  0  0  0  0  0  0  0  0  0  0
   -1.4822    1.1038    0.9172 C   0  0  1  0  0  0  0  0  0  0  0  0
    0.2007    2.5469   -0.2275 C   0  0  0  0  0  0  0  0  0  0  0  0
   -1.0090    2.4148    0.3421 C   0  0  0  0  0  0  0  0  0  0  0  0
   -1.9408    3.5863    0.4721 C   0  0  0  0  0  0  0  0  0  0  0  0
   -3.1015   -0.5895    0.5865 C   0  0  0  0  0  0  0  0  0  0  0  0
   -3.6343   -1.3554   -0.6057 C   0  0  0  0  0  0  0  0  0  0  0  0
   -5.1318   -1.1186   -0.8556 C   0  0  0  0  0  0  0  0  0  0  0  0
   -5.9711   -1.5066    0.3644 C   0  0  0  0  0  0  0  0  0  0  0  0
   -5.3785    0.3498   -1.2071 C   0  0  0  0  0  0  0  0  0  0  0  0
    4.0239    1.0608    1.3478 H   0  0  0  0  0  0  0  0  0  0  0  0
    2.5522   -0.6008   -2.1632 H   0  0  0  0  0  0  0  0  0  0  0  0
    2.7117   -0.2072    3.3683 H   0  0  0  0  0  0  0  0  0  0  0  0
    1.5921   -1.5685    2.9087 H   0  0  0  0  0  0  0  0  0  0  0  0
    4.8331   -0.2860   -0.4567 H   0  0  0  0  0  0  0  0  0  0  0  0
    1.5869    1.5467   -1.4236 H   0  0  0  0  0  0  0  0  0  0  0  0
    2.1077   -3.1882    0.3736 H   0  0  0  0  0  0  0  0  0  0  0  0
    0.5484   -2.6192    0.9093 H   0  0  0  0  0  0  0  0  0  0  0  0
    0.8505   -2.8739   -0.8166 H   0  0  0  0  0  0  0  0  0  0  0  0
    0.1956    0.2630    1.8878 H   0  0  0  0  0  0  0  0  0  0  0  0
   -0.7876   -0.9755    1.1583 H   0  0  0  0  0  0  0  0  0  0  0  0
   -1.0204    0.3586   -1.7261 H   0  0  0  0  0  0  0  0  0  0  0  0
   -0.7133   -1.3602   -1.4044 H   0  0  0  0  0  0  0  0  0  0  0  0
   -1.8409    1.2960    1.9378 H   0  0  0  0  0  0  0  0  0  0  0  0
    0.5116    3.5214   -0.5980 H   0  0  0  0  0  0  0  0  0  0  0  0
    4.0007   -2.3527   -0.5411 H   0  0  0  0  0  0  0  0  0  0  0  0
    4.6226    1.8982   -1.1367 H   0  0  0  0  0  0  0  0  0  0  0  0
    0.1199   -0.6339   -3.3817 H   0  0  0  0  0  0  0  0  0  0  0  0
   -1.5150    4.5035    0.0520 H   0  0  0  0  0  0  0  0  0  0  0  0
   -2.1661    3.7766    1.5264 H   0  0  0  0  0  0  0  0  0  0  0  0
   -2.8799    3.3852   -0.0535 H   0  0  0  0  0  0  0  0  0  0  0  0
   -3.0576   -1.0965   -1.5000 H   0  0  0  0  0  0  0  0  0  0  0  0
   -3.4405   -2.4195   -0.4235 H   0  0  0  0  0  0  0  0  0  0  0  0
   -5.4391   -1.7399   -1.7056 H   0  0  0  0  0  0  0  0  0  0  0  0
   -5.7833   -0.8528    1.2221 H   0  0  0  0  0  0  0  0  0  0  0  0
   -7.0385   -1.4375    0.1277 H   0  0  0  0  0  0  0  0  0  0  0  0
   -5.7641   -2.5386    0.6665 H   0  0  0  0  0  0  0  0  0  0  0  0
   -5.1851    1.0176   -0.3613 H   0  0  0  0  0  0  0  0  0  0  0  0
   -4.7483    0.6639   -2.0457 H   0  0  0  0  0  0  0  0  0  0  0  0
   -6.4224    0.4967   -1.5056 H   0  0  0  0  0  0  0  0  0  0  0  0
  1  9  1  0  0  0  0
  1 13  1  0  0  0  0
  2 11  1  0  0  0  0
  2 15  1  0  0  0  0
  3 12  1  0  0  0  0
  3 43  1  0  0  0  0
  4 14  1  0  0  0  0
  4 44  1  0  0  0  0
  5 18  1  0  0  0  0
  5 45  1  0  0  0  0
  6 19  1  0  0  0  0
  6 23  1  0  0  0  0
  7 23  2  0  0  0  0
  8  9  1  0  0  0  0
  8 10  1  0  0  0  0
  8 12  1  0  0  0  0
  8 16  1  0  0  0  0
  9 11  1  0  0  0  0
  9 13  1  0  0  0  0
 10 15  1  0  0  0  0
 10 17  1  0  0  0  0
 10 18  1  0  0  0  0
 11 14  1  0  0  0  0
 11 28  1  0  0  0  0
 12 14  1  0  0  0  0
 12 29  1  0  0  0  0
 13 30  1  0  0  0  0
 13 31  1  0  0  0  0
 14 32  1  0  0  0  0
 15 20  1  0  0  0  0
 15 33  1  0  0  0  0
 16 34  1  0  0  0  0
 16 35  1  0  0  0  0
 16 36  1  0  0  0  0
 17 19  1  0  0  0  0
 17 37  1  0  0  0  0
 17 38  1  0  0  0  0
 18 39  1  0  0  0  0
 18 40  1  0  0  0  0
 19 21  1  0  0  0  0
 19 41  1  0  0  0  0
 20 21  2  0  0  0  0
 20 42  1  0  0  0  0
 21 22  1  0  0  0  0
 22 46  1  0  0  0  0
 22 47  1  0  0  0  0
 22 48  1  0  0  0  0
 23 24  1  0  0  0  0
 24 25  1  0  0  0  0
 24 49  1  0  0  0  0
 24 50  1  0  0  0  0
 25 26  1  0  0  0  0
 25 27  1  0  0  0  0
 25 51  1  0  0  0  0
 26 52  1  0  0  0  0
 26 53  1  0  0  0  0
 26 54  1  0  0  0  0
 27 55  1  0  0  0  0
 27 56  1  0  0  0  0
 27 57  1  0  0  0  0
M  END
> <PUBCHEM_COMPOUND_CID>
13797589

> <PUBCHEM_CONFORMER_RMSD>
0.8

> <PUBCHEM_CONFORMER_DIVERSEORDER>
2
14
13
4
15
8
9
10
5
11
1
7
12
6
3

> <PUBCHEM_MMFF94_PARTIAL_CHARGES>
27
1 -0.3
11 0.38
12 0.28
13 -0.05
14 0.28
15 0.42
18 0.28
19 0.42
2 -0.56
20 -0.29
21 -0.28
22 0.14
23 0.66
24 0.06
3 -0.68
30 0.1
31 0.1
4 -0.68
42 0.15
43 0.4
44 0.4
45 0.4
5 -0.68
6 -0.43
7 -0.57
8 0.09
9 -0.04

> <PUBCHEM_EFFECTIVE_ROTOR_COUNT>
6.4

> <PUBCHEM_PHARMACOPHORE_FEATURES>
12
1 1 acceptor
1 2 acceptor
1 3 acceptor
1 3 donor
1 4 acceptor
1 4 donor
1 5 acceptor
1 5 donor
1 7 acceptor
3 25 26 27 hydrophobe
6 10 15 17 19 20 21 rings
8 2 8 9 10 11 12 14 15 rings

> <PUBCHEM_HEAVY_ATOM_COUNT>
27

> <PUBCHEM_ATOM_DEF_STEREO_COUNT>
8

> <PUBCHEM_ATOM_UDEF_STEREO_COUNT>
0

> <PUBCHEM_BOND_DEF_STEREO_COUNT>
0

> <PUBCHEM_BOND_UDEF_STEREO_COUNT>
0

> <PUBCHEM_ISOTOPIC_ATOM_COUNT>
0

> <PUBCHEM_COMPONENT_COUNT>
1

> <PUBCHEM_CACTVS_TAUTO_COUNT>
1

> <PUBCHEM_CONFORMER_ID>
00D288D500000002

> <PUBCHEM_MMFF94_ENERGY>
106.1882

> <PUBCHEM_FEATURE_SELFOVERLAP>
60.911

> <PUBCHEM_SHAPE_FINGERPRINT>
10366900 7 18411423924856553843
10863032 1 18054243042084753132
11578080 2 17386550385212541988
11796584 16 18259982695796606303
12011746 2 18336550503352311870
12363563 72 18411705391818323043
12553582 1 18410020935619977947
12633257 1 15697457524288822411
12788726 201 18409728435404494993
13140716 1 17979064209281672424
13224815 77 17703788119919007243
13544653 18 18408888438595798073
13583140 156 15051458141980312689
14178342 30 18050834538257379010
14223421 5 18272367512602669440
14787075 74 17826535532270249456
15183329 4 18411974755636125173
16752209 62 18337952286072407827
16945 1 18130497583363802244
17349148 13 18187082828443079411
17357779 13 18272359863693436733
17492 54 18192449652072800548
1813 80 18343580776690330497
18222031 100 18059568131384824775
18981168 100 16485824949273594368
20626108 58 17843671399920522919
20645477 70 18337392768014257153
20691752 17 18340786874262098355
21250096 35 18410285943823820891
21421861 104 18262524671905368763
21756936 100 13900754502640152026
23419403 2 17609452238306464040
23557571 272 18129647596155733793
23559900 14 18126278640904204623
25147074 1 18115590331642222064
25222932 49 18119808260268550339
2637199 183 9222951538424552643
2871803 45 18411983550568597775
3004659 81 17822279159360721115
34934 24 18125715944459498224
404807 78 16590574524604993651
4340502 62 17677043667841371136
46194498 28 17896317107643396165
5283173 99 18261099730906891581
70251023 43 18341344317861600987
7164475 11 18263917744321186865

> <PUBCHEM_SHAPE_MULTIPOLES>
514.56
9.33
2.72
1.82
11.85
1.95
-0.12
-4.32
1.17
0.49
-0.2
-1.2
-0.63
-0.34

> <PUBCHEM_SHAPE_SELFOVERLAP>
1097.083

> <PUBCHEM_SHAPE_VOLUME>
282

> <PUBCHEM_COORDINATE_TYPE>
2
5
10

$$$$
