138059746
  -OEChem-03292013293D

 55 58  0     1  0  0  0  0  0999 V2000
    2.9501   -0.6676   -0.7300 O   0  0  0  0  0  0  0  0  0  0  0  0
    1.6424   -2.4057   -1.1560 O   0  0  0  0  0  0  0  0  0  0  0  0
   -0.2304   -0.7551   -0.4474 O   0  0  0  0  0  0  0  0  0  0  0  0
    2.2752   -1.6095    0.5906 O   0  0  0  0  0  0  0  0  0  0  0  0
   -2.0219    0.7111   -0.1288 O   0  0  0  0  0  0  0  0  0  0  0  0
   -3.1092   -0.7960   -1.4946 O   0  0  0  0  0  0  0  0  0  0  0  0
   -7.8031   -0.8584    0.6116 O   0  0  0  0  0  0  0  0  0  0  0  0
   -6.6182    0.6836    1.7867 O   0  0  0  0  0  0  0  0  0  0  0  0
    2.0263    0.2521   -0.4507 C   0  0  1  0  0  0  0  0  0  0  0  0
    2.9767    0.4340    0.9046 C   0  0  2  0  0  0  0  0  0  0  0  0
    1.5818    1.5094   -1.1610 C   0  0  2  0  0  0  0  0  0  0  0  0
    3.7302    1.7801    0.9957 C   0  0  1  0  0  0  0  0  0  0  0  0
    1.0349   -0.9145   -1.0702 C   0  0  1  0  0  0  0  0  0  0  0  0
    2.5278    2.6956   -0.9820 C   0  0  0  0  0  0  0  0  0  0  0  0
    0.1204    1.7441   -0.6356 C   0  0  2  0  0  0  0  0  0  0  0  0
    4.2601   -0.8575    1.0736 C   0  0  0  0  0  0  0  0  0  0  0  0
    2.9027    2.9469    0.4683 C   0  0  0  0  0  0  0  0  0  0  0  0
    2.5057   -2.7651   -0.0366 C   0  0  2  0  0  0  0  0  0  0  0  0
    4.0421   -2.4131    0.2164 C   0  0  0  0  0  0  0  0  0  0  0  0
   -0.8105    0.4990   -0.8547 C   0  0  1  0  0  0  0  0  0  0  0  0
    4.1880    2.0632    2.4290 C   0  0  0  0  0  0  0  0  0  0  0  0
   -0.5310    2.9880   -1.2534 C   0  0  0  0  0  0  0  0  0  0  0  0
    1.9781   -3.9598    0.7173 C   0  0  0  0  0  0  0  0  0  0  0  0
   -3.1035   -0.0075   -0.5598 C   0  0  0  0  0  0  0  0  0  0  0  0
   -4.2955    0.3331    0.3087 C   0  0  0  0  0  0  0  0  0  0  0  0
   -5.5372   -0.4815   -0.0334 C   0  0  0  0  0  0  0  0  0  0  0  0
   -6.6820   -0.1491    0.8917 C   0  0  0  0  0  0  0  0  0  0  0  0
    2.3172    0.3479    1.7829 H   0  0  0  0  0  0  0  0  0  0  0  0
    1.5374    1.3355   -2.2450 H   0  0  0  0  0  0  0  0  0  0  0  0
    4.6322    1.7120    0.3730 H   0  0  0  0  0  0  0  0  0  0  0  0
    0.9051   -0.7472   -2.1500 H   0  0  0  0  0  0  0  0  0  0  0  0
    2.0987    3.6050   -1.4141 H   0  0  0  0  0  0  0  0  0  0  0  0
    3.4429    2.5040   -1.5587 H   0  0  0  0  0  0  0  0  0  0  0  0
    0.1670    1.9127    0.4493 H   0  0  0  0  0  0  0  0  0  0  0  0
    4.3201   -1.0855    2.1450 H   0  0  0  0  0  0  0  0  0  0  0  0
    5.2189   -0.4492    0.7348 H   0  0  0  0  0  0  0  0  0  0  0  0
    3.4945    3.8691    0.5233 H   0  0  0  0  0  0  0  0  0  0  0  0
    2.0120    3.1088    1.0852 H   0  0  0  0  0  0  0  0  0  0  0  0
    4.5935   -2.3546   -0.7311 H   0  0  0  0  0  0  0  0  0  0  0  0
    4.5329   -3.1680    0.8419 H   0  0  0  0  0  0  0  0  0  0  0  0
   -1.0381    0.4357   -1.9287 H   0  0  0  0  0  0  0  0  0  0  0  0
    3.3333    2.1468    3.1089 H   0  0  0  0  0  0  0  0  0  0  0  0
    4.7494    3.0025    2.4778 H   0  0  0  0  0  0  0  0  0  0  0  0
    4.8424    1.2701    2.8029 H   0  0  0  0  0  0  0  0  0  0  0  0
   -0.5205    2.9340   -2.3470 H   0  0  0  0  0  0  0  0  0  0  0  0
   -0.0142    3.9025   -0.9483 H   0  0  0  0  0  0  0  0  0  0  0  0
   -1.5720    3.0958   -0.9315 H   0  0  0  0  0  0  0  0  0  0  0  0
    0.8872   -3.9141    0.8102 H   0  0  0  0  0  0  0  0  0  0  0  0
    2.3856   -4.0129    1.7323 H   0  0  0  0  0  0  0  0  0  0  0  0
    2.2264   -4.8849    0.1884 H   0  0  0  0  0  0  0  0  0  0  0  0
   -4.0127    0.1513    1.3527 H   0  0  0  0  0  0  0  0  0  0  0  0
   -4.5071    1.4022    0.1888 H   0  0  0  0  0  0  0  0  0  0  0  0
   -5.3205   -1.5517    0.0573 H   0  0  0  0  0  0  0  0  0  0  0  0
   -5.8501   -0.2733   -1.0625 H   0  0  0  0  0  0  0  0  0  0  0  0
   -8.5429   -0.6266    1.2127 H   0  0  0  0  0  0  0  0  0  0  0  0
  1  4  1  0  0  0  0
  1  9  1  0  0  0  0
  2 13  1  0  0  0  0
  2 18  1  0  0  0  0
  3 13  1  0  0  0  0
  3 20  1  0  0  0  0
  4 18  1  0  0  0  0
  5 20  1  0  0  0  0
  5 24  1  0  0  0  0
  6 24  2  0  0  0  0
  7 27  1  0  0  0  0
  7 55  1  0  0  0  0
  8 27  2  0  0  0  0
  9 10  1  0  0  0  0
  9 11  1  0  0  0  0
  9 13  1  0  0  0  0
 10 12  1  0  0  0  0
 10 16  1  0  0  0  0
 10 28  1  0  0  0  0
 11 14  1  0  0  0  0
 11 15  1  0  0  0  0
 11 29  1  0  0  0  0
 12 17  1  0  0  0  0
 12 21  1  0  0  0  0
 12 30  1  0  0  0  0
 13 31  1  0  0  0  0
 14 17  1  0  0  0  0
 14 32  1  0  0  0  0
 14 33  1  0  0  0  0
 15 20  1  0  0  0  0
 15 22  1  0  0  0  0
 15 34  1  0  0  0  0
 16 19  1  0  0  0  0
 16 35  1  0  0  0  0
 16 36  1  0  0  0  0
 17 37  1  0  0  0  0
 17 38  1  0  0  0  0
 18 19  1  0  0  0  0
 18 23  1  0  0  0  0
 19 39  1  0  0  0  0
 19 40  1  0  0  0  0
 20 41  1  0  0  0  0
 21 42  1  0  0  0  0
 21 43  1  0  0  0  0
 21 44  1  0  0  0  0
 22 45  1  0  0  0  0
 22 46  1  0  0  0  0
 22 47  1  0  0  0  0
 23 48  1  0  0  0  0
 23 49  1  0  0  0  0
 23 50  1  0  0  0  0
 24 25  1  0  0  0  0
 25 26  1  0  0  0  0
 25 51  1  0  0  0  0
 25 52  1  0  0  0  0
 26 27  1  0  0  0  0
 26 53  1  0  0  0  0
 26 54  1  0  0  0  0
M  END
> <PUBCHEM_COMPOUND_CID>
138059746

> <PUBCHEM_CONFORMER_RMSD>
0.8

> <PUBCHEM_CONFORMER_DIVERSEORDER>
1
19
27
8
29
13
22
5
30
21
15
9
18
14
11
12
20
2
7
16
6
3
25
28
24
26
4
17
10
23

> <PUBCHEM_MMFF94_PARTIAL_CHARGES>
17
1 -0.28
13 0.56
18 0.56
2 -0.56
20 0.56
24 0.66
25 0.06
26 0.06
27 0.66
3 -0.56
4 -0.28
5 -0.43
55 0.5
6 -0.57
7 -0.65
8 -0.57
9 0.28

> <PUBCHEM_EFFECTIVE_ROTOR_COUNT>
7.2

> <PUBCHEM_PHARMACOPHORE_FEATURES>
9
1 2 acceptor
1 3 acceptor
1 6 acceptor
1 7 acceptor
1 8 acceptor
3 7 8 27 anion
6 3 9 11 13 15 20 rings
6 9 10 11 12 14 17 rings
9 1 2 4 9 10 13 16 18 19 rings

> <PUBCHEM_HEAVY_ATOM_COUNT>
27

> <PUBCHEM_ATOM_DEF_STEREO_COUNT>
8

> <PUBCHEM_ATOM_UDEF_STEREO_COUNT>
0

> <PUBCHEM_BOND_DEF_STEREO_COUNT>
0

> <PUBCHEM_BOND_UDEF_STEREO_COUNT>
0

> <PUBCHEM_ISOTOPIC_ATOM_COUNT>
0

> <PUBCHEM_COMPONENT_COUNT>
1

> <PUBCHEM_CACTVS_TAUTO_COUNT>
-1

> <PUBCHEM_CONFORMER_ID>
083A9FE200000001

> <PUBCHEM_MMFF94_ENERGY>
342.5346

> <PUBCHEM_FEATURE_SELFOVERLAP>
45.779

> <PUBCHEM_SHAPE_FINGERPRINT>
10165383 225 18341891957243536544
114674 6 18187366493289382043
11796584 16 16298113094612215313
12035758 1 18267561599740434906
12107183 9 18050580552000102393
12422481 6 18266750095587576057
12553582 1 18337103471596405774
12596602 18 17703793660896610171
12633257 1 17750224975473734145
12661589 4 15141542358189341961
12778500 126 17560806497992317840
13140716 1 18337945818089225190
13533116 47 18411144623819045059
13540713 4 18190163599394055748
13782708 43 16950568822611110323
13785724 45 17981339889171942039
13955234 65 18410293626892630993
14178342 30 18195800997472904447
14211702 104 17532666835444692851
14223421 5 18265316336286867748
14565420 104 18058159708160577944
146900 427 18060134379667453257
14739800 52 17346593105998155937
14790565 3 17613449156210107573
14863182 85 18261394481342066980
15238133 3 16343979200052056363
15250474 111 18270677701535531599
15420108 30 17988069127518434870
15475509 35 17241033328295237362
15475509 84 17987238820209615193
15950262 2 15911065347738935408
16945 1 18195781078079243388
16992610 120 18120383314220923868
17844677 252 18336834096323113669
1813 80 17458068149227068973
19377110 9 18059008506073928159
19591789 44 18267284492755798582
1979834 28 18336262431000301745
20511986 3 17988345058282930533
20739085 24 18260547874305415276
21049683 271 18337679603622155286
21197605 99 18191873542345476043
21421861 104 18343022172658432073
21792934 111 18409727328036330769
21859007 373 17604976054399402069
22182313 1 18116411692260423365
22224240 67 18269547402959380000
23424782 7 11527655411576355093
23559900 14 18188486874194293487
239999 70 17603588551411485913
25147074 1 17988351676896398167
25222932 49 17023736961092963889
29717793 49 11458415848064052329
3117164 225 18124602972953102937
3178227 256 18409727362000105658
3380486 145 18119498098951738205
3421961 26 18335423430845609391
427121 178 18059005215817879392
4340502 62 18201999983911280289
465052 167 17458614640802605416
5104073 3 18341906169353083689
513532 50 17846230972231332796
57527306 92 16343420713266391280
58807428 26 18195507385430285616
9896288 288 17184741937074732464

> <PUBCHEM_SHAPE_MULTIPOLES>
508.69
13.04
3.72
1.52
35.46
1.36
0.5
1.71
7.88
-5.72
-0.06
-0.41
-0.66
0.62

> <PUBCHEM_SHAPE_SELFOVERLAP>
1067.226

> <PUBCHEM_SHAPE_VOLUME>
286.2

> <PUBCHEM_COORDINATE_TYPE>
2
5
10

$$$$
