138113832
  -OEChem-03292013293D

 51 55  0     1  0  0  0  0  0999 V2000
   -2.1948    0.9623   -1.9484 O   0  0  0  0  0  0  0  0  0  0  0  0
   -1.1318   -2.8679   -0.2040 O   0  0  0  0  0  0  0  0  0  0  0  0
   -0.7172    2.8184   -1.9652 O   0  0  0  0  0  0  0  0  0  0  0  0
   -1.0200    3.0003    0.8651 O   0  0  0  0  0  0  0  0  0  0  0  0
    1.2662    1.9877    1.5432 O   0  0  0  0  0  0  0  0  0  0  0  0
   -2.8018   -3.8377    0.9590 O   0  0  0  0  0  0  0  0  0  0  0  0
    3.5713    1.0087    2.3754 O   0  0  0  0  0  0  0  0  0  0  0  0
   -1.0117   -0.4822   -0.4668 C   0  0  1  0  0  0  0  0  0  0  0  0
   -0.1163    0.6303   -0.9990 C   0  0  2  0  0  0  0  0  0  0  0  0
    1.3601    0.6411   -0.5044 C   0  0  2  0  0  0  0  0  0  0  0  0
   -1.1720    1.7144   -1.1991 C   0  0  2  0  0  0  0  0  0  0  0  0
   -0.2339   -1.7593   -0.1981 C   0  0  2  0  0  0  0  0  0  0  0  0
   -1.7600   -0.2066    0.8668 C   0  0  1  0  0  0  0  0  0  0  0  0
    1.9748   -0.7347   -1.0679 C   0  0  2  0  0  0  0  0  0  0  0  0
   -2.0405   -0.4520   -1.6190 C   0  0  0  0  0  0  0  0  0  0  0  0
    0.9553   -1.9303   -1.1352 C   0  0  0  0  0  0  0  0  0  0  0  0
   -1.8978    2.2418    0.0493 C   0  0  1  0  0  0  0  0  0  0  0  0
    1.5911    0.7103    1.0253 C   0  0  1  0  0  0  0  0  0  0  0  0
   -2.5044    1.1247    0.8792 C   0  0  0  0  0  0  0  0  0  0  0  0
   -2.6150   -1.4578    1.2071 C   0  0  0  0  0  0  0  0  0  0  0  0
    2.1056    1.8278   -1.1719 C   0  0  0  0  0  0  0  0  0  0  0  0
    3.2958   -1.1402   -0.4331 C   0  0  0  0  0  0  0  0  0  0  0  0
   -2.1771   -2.8192    0.6658 C   0  0  0  0  0  0  0  0  0  0  0  0
    3.0289    0.4353    1.4317 C   0  0  0  0  0  0  0  0  0  0  0  0
    3.7791   -0.6004    0.6938 C   0  0  0  0  0  0  0  0  0  0  0  0
   -3.6568    1.3360    1.5375 C   0  0  0  0  0  0  0  0  0  0  0  0
    4.1229   -2.1507   -1.1870 C   0  0  0  0  0  0  0  0  0  0  0  0
    0.0891    0.3870   -2.0622 H   0  0  0  0  0  0  0  0  0  0  0  0
    0.2051   -1.7612    0.8070 H   0  0  0  0  0  0  0  0  0  0  0  0
   -1.0263   -0.1122    1.6748 H   0  0  0  0  0  0  0  0  0  0  0  0
    2.2276   -0.5345   -2.1217 H   0  0  0  0  0  0  0  0  0  0  0  0
   -1.6749   -0.9612   -2.5181 H   0  0  0  0  0  0  0  0  0  0  0  0
   -3.0257   -0.8600   -1.3805 H   0  0  0  0  0  0  0  0  0  0  0  0
    0.5852   -2.0273   -2.1650 H   0  0  0  0  0  0  0  0  0  0  0  0
    1.4359   -2.8926   -0.9257 H   0  0  0  0  0  0  0  0  0  0  0  0
   -2.6946    2.9244   -0.2763 H   0  0  0  0  0  0  0  0  0  0  0  0
    1.0002   -0.0232    1.5694 H   0  0  0  0  0  0  0  0  0  0  0  0
   -3.6354   -1.3229    0.8264 H   0  0  0  0  0  0  0  0  0  0  0  0
   -2.6778   -1.5508    2.2985 H   0  0  0  0  0  0  0  0  0  0  0  0
    1.7111    2.7910   -0.8322 H   0  0  0  0  0  0  0  0  0  0  0  0
    1.9998    1.7985   -2.2625 H   0  0  0  0  0  0  0  0  0  0  0  0
    3.1784    1.8163   -0.9542 H   0  0  0  0  0  0  0  0  0  0  0  0
   -1.3166    3.5696   -1.8240 H   0  0  0  0  0  0  0  0  0  0  0  0
    4.7467   -0.8831    1.0950 H   0  0  0  0  0  0  0  0  0  0  0  0
   -4.1541    2.3000    1.5013 H   0  0  0  0  0  0  0  0  0  0  0  0
   -4.1268    0.5694    2.1425 H   0  0  0  0  0  0  0  0  0  0  0  0
   -1.5301    3.3457    1.6176 H   0  0  0  0  0  0  0  0  0  0  0  0
    1.2860    1.9290    2.5138 H   0  0  0  0  0  0  0  0  0  0  0  0
    3.6319   -3.1276   -1.2060 H   0  0  0  0  0  0  0  0  0  0  0  0
    5.1118   -2.2920   -0.7373 H   0  0  0  0  0  0  0  0  0  0  0  0
    4.2798   -1.8193   -2.2188 H   0  0  0  0  0  0  0  0  0  0  0  0
  1 11  1  0  0  0  0
  1 15  1  0  0  0  0
  2 12  1  0  0  0  0
  2 23  1  0  0  0  0
  3 11  1  0  0  0  0
  3 43  1  0  0  0  0
  4 17  1  0  0  0  0
  4 47  1  0  0  0  0
  5 18  1  0  0  0  0
  5 48  1  0  0  0  0
  6 23  2  0  0  0  0
  7 24  2  0  0  0  0
  8  9  1  0  0  0  0
  8 12  1  0  0  0  0
  8 13  1  0  0  0  0
  8 15  1  0  0  0  0
  9 10  1  0  0  0  0
  9 11  1  0  0  0  0
  9 28  1  0  0  0  0
 10 14  1  0  0  0  0
 10 18  1  0  0  0  0
 10 21  1  0  0  0  0
 11 17  1  0  0  0  0
 12 16  1  0  0  0  0
 12 29  1  0  0  0  0
 13 19  1  0  0  0  0
 13 20  1  0  0  0  0
 13 30  1  0  0  0  0
 14 16  1  0  0  0  0
 14 22  1  0  0  0  0
 14 31  1  0  0  0  0
 15 32  1  0  0  0  0
 15 33  1  0  0  0  0
 16 34  1  0  0  0  0
 16 35  1  0  0  0  0
 17 19  1  0  0  0  0
 17 36  1  0  0  0  0
 18 24  1  0  0  0  0
 18 37  1  0  0  0  0
 19 26  2  0  0  0  0
 20 23  1  0  0  0  0
 20 38  1  0  0  0  0
 20 39  1  0  0  0  0
 21 40  1  0  0  0  0
 21 41  1  0  0  0  0
 21 42  1  0  0  0  0
 22 25  2  0  0  0  0
 22 27  1  0  0  0  0
 24 25  1  0  0  0  0
 25 44  1  0  0  0  0
 26 45  1  0  0  0  0
 26 46  1  0  0  0  0
 27 49  1  0  0  0  0
 27 50  1  0  0  0  0
 27 51  1  0  0  0  0
M  END
> <PUBCHEM_COMPOUND_CID>
138113832

> <PUBCHEM_CONFORMER_RMSD>
0.6

> <PUBCHEM_CONFORMER_DIVERSEORDER>
1
3
2

> <PUBCHEM_MMFF94_PARTIAL_CHARGES>
28
1 -0.56
11 0.56
12 0.28
13 0.14
14 0.14
15 0.28
17 0.42
18 0.34
19 -0.28
2 -0.43
20 0.06
22 -0.28
23 0.66
24 0.49
25 -0.14
26 -0.3
27 0.14
3 -0.68
4 -0.68
43 0.4
44 0.15
45 0.15
46 0.15
47 0.4
48 0.4
5 -0.68
6 -0.57
7 -0.57

> <PUBCHEM_EFFECTIVE_ROTOR_COUNT>
1.4

> <PUBCHEM_PHARMACOPHORE_FEATURES>
13
1 1 acceptor
1 3 acceptor
1 3 donor
1 4 acceptor
1 4 donor
1 5 acceptor
1 5 donor
1 6 acceptor
1 7 acceptor
6 10 14 18 22 24 25 rings
6 2 8 12 13 20 23 rings
6 8 9 10 12 14 16 rings
8 1 8 9 11 13 15 17 19 rings

> <PUBCHEM_HEAVY_ATOM_COUNT>
27

> <PUBCHEM_ATOM_DEF_STEREO_COUNT>
7

> <PUBCHEM_ATOM_UDEF_STEREO_COUNT>
2

> <PUBCHEM_BOND_DEF_STEREO_COUNT>
0

> <PUBCHEM_BOND_UDEF_STEREO_COUNT>
0

> <PUBCHEM_ISOTOPIC_ATOM_COUNT>
0

> <PUBCHEM_COMPONENT_COUNT>
1

> <PUBCHEM_CACTVS_TAUTO_COUNT>
-1

> <PUBCHEM_CONFORMER_ID>
083B732800000001

> <PUBCHEM_MMFF94_ENERGY>
127.4104

> <PUBCHEM_FEATURE_SELFOVERLAP>
66.182

> <PUBCHEM_SHAPE_FINGERPRINT>
10064457 181 18196955287066022937
10165383 225 17905351540431211636
10369192 42 17771347754498077688
10863032 1 18266483037950414589
10948715 1 17060053679935081249
11640471 11 14620789388640206538
12011746 2 18191319169271984717
12422481 6 18121812580283019355
12553582 1 17835807773588113774
12633257 1 18128280924808918843
12716301 132 17824540768779340332
13140716 1 18337680801047468966
13583140 156 17561089141305926786
14178342 30 18408600370792099578
14223421 5 18270116966977359648
15209289 33 18197787595782668879
15295992 7 17846222111592345274
15420108 30 16901867306860737686
16752209 62 17677042452339323927
16945 1 18114457860282026454
19049666 15 18272364223016598650
19591789 44 17759257192850352783
20600515 1 18043513101045062599
20691752 17 18123736578695214524
21033648 29 18194672675379216856
21330990 113 17757582679653563815
21421861 104 17684392911205004275
21731516 1 17604152630825157610
2334 1 18193000545483374614
23419403 2 17616217692608363981
23493267 7 17244713256395690756
23559900 14 18340783618455056159
2748010 2 18339354292194438166
2818148 4 18118430499004356222
3380486 145 17839441625263585855
3380486 77 17461421792292783970
35225 105 17604441712310470739
394222 165 16383390412945330577
4340502 62 18271812255663701865
484985 159 17028760509878523930
5845 1 17968938729043795407
70251023 43 18201709695509678975
81228 2 18335979860959930831
9981440 41 16767834421784637304

> <PUBCHEM_SHAPE_MULTIPOLES>
514.56
5.84
3.49
1.9
3.73
1.66
-0.07
1.15
-1.79
-2.19
-0.22
0.21
-0.8
1.31

> <PUBCHEM_SHAPE_SELFOVERLAP>
1139.536

> <PUBCHEM_SHAPE_VOLUME>
269.7

> <PUBCHEM_COORDINATE_TYPE>
2
5
10

$$$$
