138107785
  -OEChem-03292013293D

 53 58  0     1  0  0  0  0  0999 V2000
   -0.3141    1.2347   -1.0892 O   0  0  0  0  0  0  0  0  0  0  0  0
   -0.4092    0.8656    2.6151 O   0  0  0  0  0  0  0  0  0  0  0  0
    1.7961    0.9884   -2.2778 O   0  0  0  0  0  0  0  0  0  0  0  0
   -2.8031   -2.0313   -0.4008 O   0  0  0  0  0  0  0  0  0  0  0  0
   -2.8960    0.0508    1.2814 O   0  0  0  0  0  0  0  0  0  0  0  0
    1.5289    2.7133    0.1936 O   0  0  0  0  0  0  0  0  0  0  0  0
   -1.4784    2.7687    1.7499 O   0  0  0  0  0  0  0  0  0  0  0  0
    3.5902    2.3751   -1.9499 O   0  0  0  0  0  0  0  0  0  0  0  0
   -4.8022   -1.5634   -1.4690 O   0  0  0  0  0  0  0  0  0  0  0  0
    0.2183   -0.0367    0.7041 C   0  0  2  0  0  0  0  0  0  0  0  0
    1.4999    0.1758   -0.0794 C   0  0  1  0  0  0  0  0  0  0  0  0
   -0.8282    0.9206    0.2075 C   0  0  2  0  0  0  0  0  0  0  0  0
    0.7524    0.3672    2.0310 C   0  0  2  0  0  0  0  0  0  0  0  0
    2.4036   -0.8329    0.6868 C   0  0  1  0  0  0  0  0  0  0  0  0
   -2.1448    0.1086    0.0496 C   0  0  1  0  0  0  0  0  0  0  0  0
   -0.5490   -1.4456    0.7137 C   0  0  0  0  0  0  0  0  0  0  0  0
    0.8553    0.3485   -1.4182 C   0  0  1  0  0  0  0  0  0  0  0  0
    1.7464   -0.7997    2.1819 C   0  0  0  0  0  0  0  0  0  0  0  0
   -1.6301   -1.2561   -0.3229 C   0  0  1  0  0  0  0  0  0  0  0  0
    2.2900    1.5482   -0.0748 C   0  0  1  0  0  0  0  0  0  0  0  0
   -0.9313    1.6920    1.5720 C   0  0  0  0  0  0  0  0  0  0  0  0
    2.5905   -2.2000    0.0502 C   0  0  0  0  0  0  0  0  0  0  0  0
   -3.1661    0.2420   -1.0650 C   0  0  1  0  0  0  0  0  0  0  0  0
    2.6760    1.6933   -1.5151 C   0  0  0  0  0  0  0  0  0  0  0  0
   -3.7240   -1.1947   -1.0304 C   0  0  0  0  0  0  0  0  0  0  0  0
    1.9936   -3.2913    0.9594 C   0  0  0  0  0  0  0  0  0  0  0  0
    4.0905   -2.4861   -0.1547 C   0  0  0  0  0  0  0  0  0  0  0  0
    1.8819   -2.2465   -1.3170 C   0  0  0  0  0  0  0  0  0  0  0  0
   -4.2373    1.2916   -0.8320 C   0  0  0  0  0  0  0  0  0  0  0  0
    1.4115    1.2415    2.0887 H   0  0  0  0  0  0  0  0  0  0  0  0
    3.4064   -0.4083    0.8233 H   0  0  0  0  0  0  0  0  0  0  0  0
   -0.9798   -1.6775    1.6950 H   0  0  0  0  0  0  0  0  0  0  0  0
   -0.0317   -2.3078    0.3667 H   0  0  0  0  0  0  0  0  0  0  0  0
    0.4362   -0.4772   -1.9762 H   0  0  0  0  0  0  0  0  0  0  0  0
    1.2511   -1.6889    2.5653 H   0  0  0  0  0  0  0  0  0  0  0  0
    2.5223   -0.5475    2.9148 H   0  0  0  0  0  0  0  0  0  0  0  0
   -1.1921   -1.3083   -1.3223 H   0  0  0  0  0  0  0  0  0  0  0  0
    3.1860    1.5559    0.5521 H   0  0  0  0  0  0  0  0  0  0  0  0
   -2.6894    0.3986   -2.0400 H   0  0  0  0  0  0  0  0  0  0  0  0
   -3.2397    0.9399    1.4711 H   0  0  0  0  0  0  0  0  0  0  0  0
    4.2488   -3.4762   -0.5970 H   0  0  0  0  0  0  0  0  0  0  0  0
    4.6351   -2.4583    0.7961 H   0  0  0  0  0  0  0  0  0  0  0  0
    4.5459   -1.7472   -0.8241 H   0  0  0  0  0  0  0  0  0  0  0  0
    2.1313   -3.2159   -1.7777 H   0  0  0  0  0  0  0  0  0  0  0  0
    0.8018   -2.2712   -1.3280 H   0  0  0  0  0  0  0  0  0  0  0  0
    2.3088   -1.5322   -2.0257 H   0  0  0  0  0  0  0  0  0  0  0  0
    2.0394   -4.2528    0.4287 H   0  0  0  0  0  0  0  0  0  0  0  0
    0.9971   -3.2591    1.3768 H   0  0  0  0  0  0  0  0  0  0  0  0
    2.6514   -3.4248    1.8308 H   0  0  0  0  0  0  0  0  0  0  0  0
   -4.9063    1.0322   -0.0047 H   0  0  0  0  0  0  0  0  0  0  0  0
   -3.7901    2.2702   -0.6316 H   0  0  0  0  0  0  0  0  0  0  0  0
   -4.8683    1.3855   -1.7229 H   0  0  0  0  0  0  0  0  0  0  0  0
    2.1369    3.4724    0.1877 H   0  0  0  0  0  0  0  0  0  0  0  0
  1 12  1  0  0  0  0
  1 17  1  0  0  0  0
  2 13  1  0  0  0  0
  2 21  1  0  0  0  0
  3 17  1  0  0  0  0
  3 24  1  0  0  0  0
  4 19  1  0  0  0  0
  4 25  1  0  0  0  0
  5 15  1  0  0  0  0
  5 40  1  0  0  0  0
  6 20  1  0  0  0  0
  6 53  1  0  0  0  0
  7 21  2  0  0  0  0
  8 24  2  0  0  0  0
  9 25  2  0  0  0  0
 10 11  1  0  0  0  0
 10 12  1  0  0  0  0
 10 13  1  0  0  0  0
 10 16  1  0  0  0  0
 11 14  1  0  0  0  0
 11 17  1  0  0  0  0
 11 20  1  0  0  0  0
 12 15  1  0  0  0  0
 12 21  1  0  0  0  0
 13 18  1  0  0  0  0
 13 30  1  0  0  0  0
 14 18  1  0  0  0  0
 14 22  1  0  0  0  0
 14 31  1  0  0  0  0
 15 19  1  0  0  0  0
 15 23  1  0  0  0  0
 16 19  1  0  0  0  0
 16 32  1  0  0  0  0
 16 33  1  0  0  0  0
 17 34  1  0  0  0  0
 18 35  1  0  0  0  0
 18 36  1  0  0  0  0
 19 37  1  0  0  0  0
 20 24  1  0  0  0  0
 20 38  1  0  0  0  0
 22 26  1  0  0  0  0
 22 27  1  0  0  0  0
 22 28  1  0  0  0  0
 23 25  1  0  0  0  0
 23 29  1  0  0  0  0
 23 39  1  0  0  0  0
 26 47  1  0  0  0  0
 26 48  1  0  0  0  0
 26 49  1  0  0  0  0
 27 41  1  0  0  0  0
 27 42  1  0  0  0  0
 27 43  1  0  0  0  0
 28 44  1  0  0  0  0
 28 45  1  0  0  0  0
 28 46  1  0  0  0  0
 29 50  1  0  0  0  0
 29 51  1  0  0  0  0
 29 52  1  0  0  0  0
M  END
> <PUBCHEM_COMPOUND_CID>
138107785

> <PUBCHEM_CONFORMER_RMSD>
0.8

> <PUBCHEM_CONFORMER_DIVERSEORDER>
1
3
2
4

> <PUBCHEM_MMFF94_PARTIAL_CHARGES>
21
1 -0.56
12 0.34
13 0.28
15 0.28
17 0.56
19 0.28
2 -0.43
20 0.34
21 0.66
23 0.06
24 0.66
25 0.66
3 -0.43
4 -0.43
40 0.4
5 -0.68
53 0.4
6 -0.68
7 -0.57
8 -0.57
9 -0.57

> <PUBCHEM_EFFECTIVE_ROTOR_COUNT>
2.8

> <PUBCHEM_PHARMACOPHORE_FEATURES>
15
1 1 acceptor
1 5 acceptor
1 5 donor
1 6 acceptor
1 6 donor
1 7 acceptor
1 8 acceptor
1 9 acceptor
4 22 26 27 28 hydrophobe
5 1 10 11 12 17 rings
5 10 11 13 14 18 rings
5 10 12 15 16 19 rings
5 2 10 12 13 21 rings
5 3 11 17 20 24 rings
5 4 15 19 23 25 rings

> <PUBCHEM_HEAVY_ATOM_COUNT>
29

> <PUBCHEM_ATOM_DEF_STEREO_COUNT>
5

> <PUBCHEM_ATOM_UDEF_STEREO_COUNT>
5

> <PUBCHEM_BOND_DEF_STEREO_COUNT>
0

> <PUBCHEM_BOND_UDEF_STEREO_COUNT>
0

> <PUBCHEM_ISOTOPIC_ATOM_COUNT>
0

> <PUBCHEM_COMPONENT_COUNT>
1

> <PUBCHEM_CACTVS_TAUTO_COUNT>
-1

> <PUBCHEM_CONFORMER_ID>
083B5B8900000001

> <PUBCHEM_MMFF94_ENERGY>
255.7502

> <PUBCHEM_FEATURE_SELFOVERLAP>
78.836

> <PUBCHEM_SHAPE_FINGERPRINT>
10863032 1 18334857276567004015
10948715 1 16952248965718258932
11578080 2 18197474273850955040
11582403 64 16808959540813215428
12035759 4 18340503200430632116
12160290 23 16628858162189585377
12422481 6 15886605092122640648
12788726 201 17845672351837340169
13004483 165 17685479967132488538
13009979 54 18271250400114674346
13134695 92 17273666859161679321
13140716 1 18201999898418506179
13149001 5 17313685771040601826
133893 2 17969243208197568220
14068700 675 18270667676422284334
14115302 16 18270673156894953865
14181834 199 18115008788542890826
14713325 29 17245286445240006666
14863182 85 18200014274544292442
14910302 57 17264697911435134662
14955137 171 17617412513707634872
15163728 17 16951712352641376172
15238133 3 17632019624968306561
15849732 13 17762355620838195744
1601671 61 17392750372299026997
16945 1 18270127923301989488
17980427 23 18046311319362071856
1813 80 18044076991338307162
18981168 100 15865224375381728772
20600515 1 17829290689002101744
21452121 199 18272355469445936179
22112679 90 18055657039380699952
22182313 1 16878525525437901816
23419403 2 17692763239586574978
23557571 272 16414352252218782337
23559900 14 18129363952220356482
238 59 17896050999510965996
25222932 49 17055239146356474687
2748010 2 16589175842375829128
376196 1 16735222975403348805
394222 165 17677883724921963304
404807 78 17178541764862002879
46194498 28 17967802856344588015
463206 1 18129364055722513623
474 4 16516239781465508533
5845 1 17899126114733304808
6669772 16 17484225724257347896
6992083 37 17906177248067811210
9981440 41 17826240867523364976

> <PUBCHEM_SHAPE_MULTIPOLES>
543.98
6.27
3.06
2.1
4.32
0.18
0.5
2.47
-2.83
-2.02
-0.34
-0.42
-0.84
-1.69

> <PUBCHEM_SHAPE_SELFOVERLAP>
1251.349

> <PUBCHEM_SHAPE_VOLUME>
284.7

> <PUBCHEM_COORDINATE_TYPE>
2
5
10

$$$$
