138113346
  -OEChem-03292013293D

 57 60  0     1  0  0  0  0  0999 V2000
    3.2240    0.9121    1.4174 O   0  0  0  0  0  0  0  0  0  0  0  0
   -0.3942   -2.6060    1.1591 O   0  0  0  0  0  0  0  0  0  0  0  0
   -2.4054    2.0533    1.9620 O   0  0  0  0  0  0  0  0  0  0  0  0
    5.2175   -0.1040   -1.1736 O   0  0  0  0  0  0  0  0  0  0  0  0
   -6.5136   -0.5664   -0.2456 O   0  0  0  0  0  0  0  0  0  0  0  0
    6.2412   -1.6666    0.7573 O   0  0  0  0  0  0  0  0  0  0  0  0
    2.0001   -0.1793   -0.4522 C   0  0  1  0  0  0  0  0  0  0  0  0
    0.9794    0.9731   -0.7269 C   0  0  1  0  0  0  0  0  0  0  0  0
   -0.2103    1.0308    0.2643 C   0  0  2  0  0  0  0  0  0  0  0  0
   -0.9526   -0.3319    0.4656 C   0  0  1  0  0  0  0  0  0  0  0  0
    3.2769    0.5622    0.0389 C   0  0  1  0  0  0  0  0  0  0  0  0
   -2.3323   -0.4330   -0.2934 C   0  0  2  0  0  0  0  0  0  0  0  0
    1.4462   -1.2020    0.5572 C   0  0  0  0  0  0  0  0  0  0  0  0
   -0.0150   -1.5506    0.2715 C   0  0  1  0  0  0  0  0  0  0  0  0
    1.8062    2.2793   -0.7249 C   0  0  0  0  0  0  0  0  0  0  0  0
    3.2694    1.8592   -0.7638 C   0  0  0  0  0  0  0  0  0  0  0  0
   -1.1654    2.1977   -0.0770 C   0  0  0  0  0  0  0  0  0  0  0  0
    2.2759   -0.9057   -1.7994 C   0  0  0  0  0  0  0  0  0  0  0  0
   -3.2215    0.7473    0.1171 C   0  0  0  0  0  0  0  0  0  0  0  0
   -2.5490    2.0341    0.5406 C   0  0  1  0  0  0  0  0  0  0  0  0
   -3.0714   -1.7424    0.0998 C   0  0  0  0  0  0  0  0  0  0  0  0
   -2.1454   -0.4200   -1.8304 C   0  0  0  0  0  0  0  0  0  0  0  0
    4.5670   -0.1835   -0.1327 C   0  0  0  0  0  0  0  0  0  0  0  0
   -4.4919   -1.8274   -0.4498 C   0  0  0  0  0  0  0  0  0  0  0  0
   -4.5636    0.6752    0.1545 C   0  0  0  0  0  0  0  0  0  0  0  0
   -5.2853   -0.5748   -0.1758 C   0  0  0  0  0  0  0  0  0  0  0  0
    5.0130   -1.0303    1.0402 C   0  0  0  0  0  0  0  0  0  0  0  0
    0.5686    0.8522   -1.7368 H   0  0  0  0  0  0  0  0  0  0  0  0
    0.2216    1.2703    1.2489 H   0  0  0  0  0  0  0  0  0  0  0  0
   -1.2238   -0.3475    1.5349 H   0  0  0  0  0  0  0  0  0  0  0  0
    1.5179   -0.8328    1.5881 H   0  0  0  0  0  0  0  0  0  0  0  0
    2.0524   -2.1165    0.5445 H   0  0  0  0  0  0  0  0  0  0  0  0
   -0.1089   -1.9522   -0.7398 H   0  0  0  0  0  0  0  0  0  0  0  0
    1.6275    2.8610    0.1872 H   0  0  0  0  0  0  0  0  0  0  0  0
    1.5511    2.9204   -1.5751 H   0  0  0  0  0  0  0  0  0  0  0  0
    3.5843    1.7153   -1.8034 H   0  0  0  0  0  0  0  0  0  0  0  0
    3.9061    2.6392   -0.3318 H   0  0  0  0  0  0  0  0  0  0  0  0
   -1.2635    2.3166   -1.1621 H   0  0  0  0  0  0  0  0  0  0  0  0
   -0.7187    3.1309    0.2897 H   0  0  0  0  0  0  0  0  0  0  0  0
    2.7138   -0.2372   -2.5476 H   0  0  0  0  0  0  0  0  0  0  0  0
    1.3558   -1.3042   -2.2396 H   0  0  0  0  0  0  0  0  0  0  0  0
    2.9592   -1.7513   -1.6639 H   0  0  0  0  0  0  0  0  0  0  0  0
   -3.1682    2.8955    0.2616 H   0  0  0  0  0  0  0  0  0  0  0  0
   -3.1183   -1.8192    1.1951 H   0  0  0  0  0  0  0  0  0  0  0  0
   -2.5223   -2.6222   -0.2550 H   0  0  0  0  0  0  0  0  0  0  0  0
   -1.6469   -1.3289   -2.1823 H   0  0  0  0  0  0  0  0  0  0  0  0
   -1.5582    0.4290   -2.1824 H   0  0  0  0  0  0  0  0  0  0  0  0
   -3.1043   -0.3588   -2.3576 H   0  0  0  0  0  0  0  0  0  0  0  0
    3.9214    1.5647    1.6007 H   0  0  0  0  0  0  0  0  0  0  0  0
   -5.0059   -2.6706    0.0253 H   0  0  0  0  0  0  0  0  0  0  0  0
   -4.4874   -2.0020   -1.5306 H   0  0  0  0  0  0  0  0  0  0  0  0
    0.1800   -3.3681    0.9721 H   0  0  0  0  0  0  0  0  0  0  0  0
   -5.1706    1.5251    0.4490 H   0  0  0  0  0  0  0  0  0  0  0  0
   -2.0098    2.9074    2.2064 H   0  0  0  0  0  0  0  0  0  0  0  0
    4.2636   -1.7977    1.2447 H   0  0  0  0  0  0  0  0  0  0  0  0
    5.1678   -0.4042    1.9221 H   0  0  0  0  0  0  0  0  0  0  0  0
    6.4668   -2.2144    1.5284 H   0  0  0  0  0  0  0  0  0  0  0  0
  1 11  1  0  0  0  0
  1 49  1  0  0  0  0
  2 14  1  0  0  0  0
  2 52  1  0  0  0  0
  3 20  1  0  0  0  0
  3 54  1  0  0  0  0
  4 23  2  0  0  0  0
  5 26  2  0  0  0  0
  6 27  1  0  0  0  0
  6 57  1  0  0  0  0
  7  8  1  0  0  0  0
  7 11  1  0  0  0  0
  7 13  1  0  0  0  0
  7 18  1  0  0  0  0
  8  9  1  0  0  0  0
  8 15  1  0  0  0  0
  8 28  1  0  0  0  0
  9 10  1  0  0  0  0
  9 17  1  0  0  0  0
  9 29  1  0  0  0  0
 10 12  1  0  0  0  0
 10 14  1  0  0  0  0
 10 30  1  0  0  0  0
 11 16  1  0  0  0  0
 11 23  1  0  0  0  0
 12 19  1  0  0  0  0
 12 21  1  0  0  0  0
 12 22  1  0  0  0  0
 13 14  1  0  0  0  0
 13 31  1  0  0  0  0
 13 32  1  0  0  0  0
 14 33  1  0  0  0  0
 15 16  1  0  0  0  0
 15 34  1  0  0  0  0
 15 35  1  0  0  0  0
 16 36  1  0  0  0  0
 16 37  1  0  0  0  0
 17 20  1  0  0  0  0
 17 38  1  0  0  0  0
 17 39  1  0  0  0  0
 18 40  1  0  0  0  0
 18 41  1  0  0  0  0
 18 42  1  0  0  0  0
 19 20  1  0  0  0  0
 19 25  2  0  0  0  0
 20 43  1  0  0  0  0
 21 24  1  0  0  0  0
 21 44  1  0  0  0  0
 21 45  1  0  0  0  0
 22 46  1  0  0  0  0
 22 47  1  0  0  0  0
 22 48  1  0  0  0  0
 23 27  1  0  0  0  0
 24 26  1  0  0  0  0
 24 50  1  0  0  0  0
 24 51  1  0  0  0  0
 25 26  1  0  0  0  0
 25 53  1  0  0  0  0
 27 55  1  0  0  0  0
 27 56  1  0  0  0  0
M  END
> <PUBCHEM_COMPOUND_CID>
138113346

> <PUBCHEM_CONFORMER_RMSD>
0.8

> <PUBCHEM_CONFORMER_DIVERSEORDER>
1
14
3
19
13
9
11
12
7
2
10
15
17
16
18
6
4
5
8

> <PUBCHEM_MMFF94_PARTIAL_CHARGES>
21
1 -0.68
11 0.34
12 0.14
14 0.28
19 -0.28
2 -0.68
20 0.42
23 0.45
24 0.06
25 -0.14
26 0.49
27 0.34
3 -0.68
4 -0.57
49 0.4
5 -0.57
52 0.4
53 0.15
54 0.4
57 0.4
6 -0.68

> <PUBCHEM_EFFECTIVE_ROTOR_COUNT>
3.8

> <PUBCHEM_PHARMACOPHORE_FEATURES>
14
1 1 acceptor
1 1 donor
1 2 acceptor
1 2 donor
1 3 acceptor
1 3 donor
1 4 acceptor
1 5 acceptor
1 6 acceptor
1 6 donor
5 7 8 11 15 16 rings
6 12 19 21 24 25 26 rings
6 7 8 9 10 13 14 rings
6 9 10 12 17 19 20 rings

> <PUBCHEM_HEAVY_ATOM_COUNT>
27

> <PUBCHEM_ATOM_DEF_STEREO_COUNT>
6

> <PUBCHEM_ATOM_UDEF_STEREO_COUNT>
2

> <PUBCHEM_BOND_DEF_STEREO_COUNT>
0

> <PUBCHEM_BOND_UDEF_STEREO_COUNT>
0

> <PUBCHEM_ISOTOPIC_ATOM_COUNT>
0

> <PUBCHEM_COMPONENT_COUNT>
1

> <PUBCHEM_CACTVS_TAUTO_COUNT>
-1

> <PUBCHEM_CONFORMER_ID>
083B714200000001

> <PUBCHEM_MMFF94_ENERGY>
94.8228

> <PUBCHEM_FEATURE_SELFOVERLAP>
71.158

> <PUBCHEM_SHAPE_FINGERPRINT>
10 15 17560507479050181498
12166972 35 17894349998935170293
12236239 1 18408323276349331253
12403259 226 18409160030584547308
12403259 415 17676756656351285341
12403260 363 18408324375987825908
12403814 3 17489587883393459023
12592029 89 17095792270203080259
12633257 1 18338522941508810232
12788726 201 18271540770137752553
13140716 1 18335424628867126578
13224815 77 18342740732020341137
13533116 47 18410289250822349968
13583140 156 16128080166901560170
13862211 1 18408039610902395923
14178342 30 18198909119292241416
14251764 18 18408039607482998506
14787075 74 18268711778622595325
15196674 1 18337111271240982605
15209289 33 18408042892331152706
15420108 30 17762057644586844409
15788980 27 17967813855607626013
16945 1 18264500481373667549
17349148 13 18409730672797229420
17492 89 18117561944853659226
17862501 102 18409448076770867984
1813 80 17096373826751698438
18186145 218 18187075200037985821
18681886 176 18411694430587049640
192875 21 18410012164880326476
200 152 18409728486927933637
20028762 73 18413103961608275078
20691752 17 18043271066542053884
20775438 99 16616982728072746551
21033648 29 16733250335536433148
21267235 1 18410301332734048135
21792934 111 18272928328822625329
23402539 116 18413101775284674943
23522609 53 18118434824010997964
23557571 272 17703797993811599889
23559900 14 18340205318600177336
25147074 1 18337405888971048100
3004659 81 18336267924199949116
335352 9 18334575741471385359
345986 75 17605532385496873392
34797466 226 17131839793870648812
350125 39 18335420149274538221
3680242 22 18334579027400785819
4340502 62 17313107454332141715
5104073 3 18342462577090293849
559249 180 18335978671459347797
59755656 215 18411420587809935327
59755656 520 17603584145208174267
67856867 119 18339359789900574980
9709674 26 18342188785730941031
9981440 41 17397266513400122592

> <PUBCHEM_SHAPE_MULTIPOLES>
520.43
11.66
2.36
1.28
0.86
0.36
-0.11
-3.8
0.29
-0.26
0.43
0.49
0.02
-1.13

> <PUBCHEM_SHAPE_SELFOVERLAP>
1120.428

> <PUBCHEM_SHAPE_VOLUME>
282.4

> <PUBCHEM_COORDINATE_TYPE>
2
5
10

$$$$
