138114793
  -OEChem-03292013293D

 53 57  0     1  0  0  0  0  0999 V2000
   -1.8456   -1.5624    1.8986 O   0  0  0  0  0  0  0  0  0  0  0  0
   -1.0984    2.6285    0.8646 O   0  0  0  0  0  0  0  0  0  0  0  0
   -3.2457   -0.1106    0.0572 O   0  0  0  0  0  0  0  0  0  0  0  0
   -0.1732   -3.2167    1.5801 O   0  0  0  0  0  0  0  0  0  0  0  0
   -2.5069   -3.1345   -0.2833 O   0  0  0  0  0  0  0  0  0  0  0  0
    1.0279    0.1825   -1.8098 O   0  0  0  0  0  0  0  0  0  0  0  0
   -3.1687    1.5681   -1.9462 O   0  0  0  0  0  0  0  0  0  0  0  0
   -2.9611    3.5064   -0.0992 O   0  0  0  0  0  0  0  0  0  0  0  0
    3.7786   -0.9582   -2.4105 O   0  0  0  0  0  0  0  0  0  0  0  0
   -0.8559    0.2475    0.8030 C   0  0  2  0  0  0  0  0  0  0  0  0
    0.1791   -0.8776    1.0263 C   0  0  2  0  0  0  0  0  0  0  0  0
    1.6163   -0.7240    0.4663 C   0  0  2  0  0  0  0  0  0  0  0  0
   -1.8974    0.1308   -0.4220 C   0  0  1  0  0  0  0  0  0  0  0  0
   -0.7704   -2.0602    1.0155 C   0  0  2  0  0  0  0  0  0  0  0  0
   -0.1391    1.5864    0.6961 C   0  0  2  0  0  0  0  0  0  0  0  0
    2.1988    0.6118    1.1368 C   0  0  2  0  0  0  0  0  0  0  0  0
   -1.6684   -0.1132    2.0608 C   0  0  0  0  0  0  0  0  0  0  0  0
    1.1116    1.6773    1.5552 C   0  0  0  0  0  0  0  0  0  0  0  0
   -1.3119   -2.3614   -0.3987 C   0  0  2  0  0  0  0  0  0  0  0  0
   -1.5865   -1.1163   -1.2281 C   0  0  0  0  0  0  0  0  0  0  0  0
    1.7957   -0.7439   -1.0697 C   0  0  2  0  0  0  0  0  0  0  0  0
   -2.0038    1.5121   -1.1313 C   0  0  2  0  0  0  0  0  0  0  0  0
    2.4686   -1.9223    1.0014 C   0  0  0  0  0  0  0  0  0  0  0  0
    3.4089    1.1873    0.4062 C   0  0  0  0  0  0  0  0  0  0  0  0
   -2.0911    2.6419   -0.0872 C   0  0  0  0  0  0  0  0  0  0  0  0
    3.2133   -0.4012   -1.4718 C   0  0  0  0  0  0  0  0  0  0  0  0
    3.8886    0.7045   -0.7517 C   0  0  0  0  0  0  0  0  0  0  0  0
   -1.5269   -1.1692   -2.5687 C   0  0  0  0  0  0  0  0  0  0  0  0
    4.1636    2.2866    1.1101 C   0  0  0  0  0  0  0  0  0  0  0  0
    0.4559   -0.8346    2.0992 H   0  0  0  0  0  0  0  0  0  0  0  0
    0.2742    1.7378   -0.3039 H   0  0  0  0  0  0  0  0  0  0  0  0
    2.6158    0.2967    2.1078 H   0  0  0  0  0  0  0  0  0  0  0  0
   -1.1293    0.0624    3.0005 H   0  0  0  0  0  0  0  0  0  0  0  0
   -2.6377    0.3764    2.1824 H   0  0  0  0  0  0  0  0  0  0  0  0
    0.8379    1.5238    2.6073 H   0  0  0  0  0  0  0  0  0  0  0  0
    1.5035    2.6988    1.5175 H   0  0  0  0  0  0  0  0  0  0  0  0
   -0.5789   -2.9925   -0.9179 H   0  0  0  0  0  0  0  0  0  0  0  0
    1.5637   -1.7466   -1.4481 H   0  0  0  0  0  0  0  0  0  0  0  0
   -1.1540    1.7107   -1.7917 H   0  0  0  0  0  0  0  0  0  0  0  0
    2.1541   -2.8678    0.5466 H   0  0  0  0  0  0  0  0  0  0  0  0
    2.3832   -2.0254    2.0890 H   0  0  0  0  0  0  0  0  0  0  0  0
    3.5352   -1.7992    0.7851 H   0  0  0  0  0  0  0  0  0  0  0  0
   -3.6396    0.7289    0.3473 H   0  0  0  0  0  0  0  0  0  0  0  0
    0.3407   -2.9496    2.3595 H   0  0  0  0  0  0  0  0  0  0  0  0
    4.7921    1.0977   -1.2057 H   0  0  0  0  0  0  0  0  0  0  0  0
   -1.7072   -0.3008   -3.1906 H   0  0  0  0  0  0  0  0  0  0  0  0
   -1.2914   -2.0968   -3.0805 H   0  0  0  0  0  0  0  0  0  0  0  0
   -2.8041   -3.3596   -1.1815 H   0  0  0  0  0  0  0  0  0  0  0  0
    1.1371   -0.0221   -2.7544 H   0  0  0  0  0  0  0  0  0  0  0  0
    3.6027    3.2251    1.0828 H   0  0  0  0  0  0  0  0  0  0  0  0
    5.1392    2.4770    0.6493 H   0  0  0  0  0  0  0  0  0  0  0  0
    4.3478    2.0168    2.1552 H   0  0  0  0  0  0  0  0  0  0  0  0
   -3.1457    2.4107   -2.4314 H   0  0  0  0  0  0  0  0  0  0  0  0
  1 14  1  0  0  0  0
  1 17  1  0  0  0  0
  2 15  1  0  0  0  0
  2 25  1  0  0  0  0
  3 13  1  0  0  0  0
  3 43  1  0  0  0  0
  4 14  1  0  0  0  0
  4 44  1  0  0  0  0
  5 19  1  0  0  0  0
  5 48  1  0  0  0  0
  6 21  1  0  0  0  0
  6 49  1  0  0  0  0
  7 22  1  0  0  0  0
  7 53  1  0  0  0  0
  8 25  2  0  0  0  0
  9 26  2  0  0  0  0
 10 11  1  0  0  0  0
 10 13  1  0  0  0  0
 10 15  1  0  0  0  0
 10 17  1  0  0  0  0
 11 12  1  0  0  0  0
 11 14  1  0  0  0  0
 11 30  1  0  0  0  0
 12 16  1  0  0  0  0
 12 21  1  0  0  0  0
 12 23  1  0  0  0  0
 13 20  1  0  0  0  0
 13 22  1  0  0  0  0
 14 19  1  0  0  0  0
 15 18  1  0  0  0  0
 15 31  1  0  0  0  0
 16 18  1  0  0  0  0
 16 24  1  0  0  0  0
 16 32  1  0  0  0  0
 17 33  1  0  0  0  0
 17 34  1  0  0  0  0
 18 35  1  0  0  0  0
 18 36  1  0  0  0  0
 19 20  1  0  0  0  0
 19 37  1  0  0  0  0
 20 28  2  0  0  0  0
 21 26  1  0  0  0  0
 21 38  1  0  0  0  0
 22 25  1  0  0  0  0
 22 39  1  0  0  0  0
 23 40  1  0  0  0  0
 23 41  1  0  0  0  0
 23 42  1  0  0  0  0
 24 27  2  0  0  0  0
 24 29  1  0  0  0  0
 26 27  1  0  0  0  0
 27 45  1  0  0  0  0
 28 46  1  0  0  0  0
 28 47  1  0  0  0  0
 29 50  1  0  0  0  0
 29 51  1  0  0  0  0
 29 52  1  0  0  0  0
M  END
> <PUBCHEM_COMPOUND_CID>
138114793

> <PUBCHEM_CONFORMER_RMSD>
0.6

> <PUBCHEM_CONFORMER_DIVERSEORDER>
1
2
3

> <PUBCHEM_MMFF94_PARTIAL_CHARGES>
32
1 -0.56
13 0.42
14 0.56
15 0.28
16 0.14
17 0.28
19 0.42
2 -0.43
20 -0.28
21 0.34
22 0.34
24 -0.28
25 0.66
26 0.49
27 -0.14
28 -0.3
29 0.14
3 -0.68
4 -0.68
43 0.4
44 0.4
45 0.15
46 0.15
47 0.15
48 0.4
49 0.4
5 -0.68
53 0.4
6 -0.68
7 -0.68
8 -0.57
9 -0.57

> <PUBCHEM_EFFECTIVE_ROTOR_COUNT>
1.4

> <PUBCHEM_PHARMACOPHORE_FEATURES>
17
1 1 acceptor
1 3 acceptor
1 3 donor
1 4 acceptor
1 4 donor
1 5 acceptor
1 5 donor
1 6 acceptor
1 6 donor
1 7 acceptor
1 7 donor
1 8 acceptor
1 9 acceptor
6 10 11 12 15 16 18 rings
6 12 16 21 24 26 27 rings
6 2 10 13 15 22 25 rings
8 1 10 11 13 14 17 19 20 rings

> <PUBCHEM_HEAVY_ATOM_COUNT>
29

> <PUBCHEM_ATOM_DEF_STEREO_COUNT>
7

> <PUBCHEM_ATOM_UDEF_STEREO_COUNT>
3

> <PUBCHEM_BOND_DEF_STEREO_COUNT>
0

> <PUBCHEM_BOND_UDEF_STEREO_COUNT>
0

> <PUBCHEM_ISOTOPIC_ATOM_COUNT>
0

> <PUBCHEM_COMPONENT_COUNT>
1

> <PUBCHEM_CACTVS_TAUTO_COUNT>
-1

> <PUBCHEM_CONFORMER_ID>
083B76E900000001

> <PUBCHEM_MMFF94_ENERGY>
151.0496

> <PUBCHEM_FEATURE_SELFOVERLAP>
86.486

> <PUBCHEM_SHAPE_FINGERPRINT>
10165383 225 17683562491746492512
10764073 3 17408297586885037595
10863032 1 18115031775176184453
10948715 1 18191873318637157701
11578080 2 18408045126131202884
11582403 64 17123892519166087976
11640471 11 17168407329669079928
12156800 1 14212009802980387150
12173636 292 18260267438530811527
12788726 201 18116156751786377933
13140716 1 17975695313711540096
13224815 77 17987527085956283944
14142880 1 17531540844214219861
14817 1 17903681558599753255
16945 1 17986645199751749169
17357779 13 17982160424855208654
1813 80 17904779017291554435
18981168 100 17749679506253465642
23419403 2 16753874742980477099
23557571 272 18192157207612121072
23559900 14 18270387301611037394
238 59 17979640035125196665
2748010 2 17764292243130095864
350125 39 18042136361794324050
35225 105 18264507116871072155
469060 322 17749969867512549337
484985 159 12532552744610235468
5845 1 18120388802117066665
81228 2 18264223562961353104
9981440 41 18192125266045882160

> <PUBCHEM_SHAPE_MULTIPOLES>
543.98
5.68
3.33
2.15
4.59
0.65
-0.63
1.87
-1.65
-2.09
0.63
-0.02
-0.7
1.09

> <PUBCHEM_SHAPE_SELFOVERLAP>
1209.589

> <PUBCHEM_SHAPE_VOLUME>
282.5

> <PUBCHEM_COORDINATE_TYPE>
2
5
10

$$$$
