138115154
  -OEChem-03292013293D

 51 54  0     1  0  0  0  0  0999 V2000
   -3.1958    1.5614   -0.5269 P   0  0  2  0  0  0  0  0  0  0  0  0
    0.3291    1.3109    0.0548 O   0  0  0  0  0  0  0  0  0  0  0  0
    1.4868    4.5842    0.9293 O   0  0  0  0  0  0  0  0  0  0  0  0
    2.9436    2.2068    2.2985 O   0  0  0  0  0  0  0  0  0  0  0  0
   -2.0128    2.6088   -0.8655 O   0  0  0  0  0  0  0  0  0  0  0  0
   -2.4000    0.2694    0.0406 O   0  0  0  0  0  0  0  0  0  0  0  0
   -3.6841    1.0525   -1.9845 O   0  0  0  0  0  0  0  0  0  0  0  0
   -4.2764    2.0872    0.3715 O   0  0  0  0  0  0  0  0  0  0  0  0
    3.2733   -1.0718    1.6153 O   0  0  0  0  0  0  0  0  0  0  0  0
    2.3415    0.1339   -0.1180 N   0  0  0  0  0  0  0  0  0  0  0  0
    3.9230   -1.6537   -0.4802 N   0  0  0  0  0  0  0  0  0  0  0  0
    4.5850   -2.2446   -2.6298 N   0  0  0  0  0  0  0  0  0  0  0  0
   -0.5757   -4.0554    1.6543 N   0  0  0  0  0  0  0  0  0  0  0  0
    1.0886    3.2469    1.1607 C   0  0  1  0  0  0  0  0  0  0  0  0
    0.1916    2.7408    0.0455 C   0  0  2  0  0  0  0  0  0  0  0  0
    2.2508    2.2840    1.0661 C   0  0  2  0  0  0  0  0  0  0  0  0
    1.5503    0.9759    0.7337 C   0  0  1  0  0  0  0  0  0  0  0  0
   -1.2675    3.1170    0.2290 C   0  0  0  0  0  0  0  0  0  0  0  0
   -3.0994   -0.9773    0.0119 C   0  0  1  0  0  0  0  0  0  0  0  0
   -3.5272   -1.2964   -1.4309 C   0  0  0  0  0  0  0  0  0  0  0  0
    2.2726    0.3206   -1.4906 C   0  0  0  0  0  0  0  0  0  0  0  0
    3.1882   -0.8789    0.4011 C   0  0  0  0  0  0  0  0  0  0  0  0
   -4.3914   -0.1826   -2.0211 C   0  0  0  0  0  0  0  0  0  0  0  0
   -2.2143   -2.0574    0.5880 C   0  0  0  0  0  0  0  0  0  0  0  0
    2.9711   -0.4136   -2.3544 C   0  0  0  0  0  0  0  0  0  0  0  0
    3.8461   -1.4639   -1.7713 C   0  0  0  0  0  0  0  0  0  0  0  0
   -2.5952   -2.7292    1.7443 C   0  0  0  0  0  0  0  0  0  0  0  0
   -1.0150   -2.3834   -0.0358 C   0  0  0  0  0  0  0  0  0  0  0  0
   -1.7482   -3.7112    2.2325 C   0  0  0  0  0  0  0  0  0  0  0  0
   -0.2388   -3.3808    0.5321 C   0  0  0  0  0  0  0  0  0  0  0  0
    0.6040    3.1940    2.1425 H   0  0  0  0  0  0  0  0  0  0  0  0
    0.5307    3.0942   -0.9368 H   0  0  0  0  0  0  0  0  0  0  0  0
    2.9680    2.5940    0.2972 H   0  0  0  0  0  0  0  0  0  0  0  0
    1.2835    0.4207    1.6407 H   0  0  0  0  0  0  0  0  0  0  0  0
   -1.3900    4.2043    0.2468 H   0  0  0  0  0  0  0  0  0  0  0  0
   -1.6550    2.7133    1.1714 H   0  0  0  0  0  0  0  0  0  0  0  0
    1.9227    4.6291    0.0614 H   0  0  0  0  0  0  0  0  0  0  0  0
    2.3144    1.9370    2.9889 H   0  0  0  0  0  0  0  0  0  0  0  0
   -3.9957   -0.8641    0.6346 H   0  0  0  0  0  0  0  0  0  0  0  0
   -4.0679   -2.2488   -1.4712 H   0  0  0  0  0  0  0  0  0  0  0  0
   -2.6403   -1.3880   -2.0700 H   0  0  0  0  0  0  0  0  0  0  0  0
    1.6374    1.1118   -1.8698 H   0  0  0  0  0  0  0  0  0  0  0  0
   -4.6357   -0.4041   -3.0643 H   0  0  0  0  0  0  0  0  0  0  0  0
   -5.3293   -0.0728   -1.4666 H   0  0  0  0  0  0  0  0  0  0  0  0
    2.9284   -0.2673   -3.4254 H   0  0  0  0  0  0  0  0  0  0  0  0
   -3.5228   -2.5023    2.2582 H   0  0  0  0  0  0  0  0  0  0  0  0
   -0.6729   -1.8748   -0.9303 H   0  0  0  0  0  0  0  0  0  0  0  0
   -1.9993   -4.2645    3.1315 H   0  0  0  0  0  0  0  0  0  0  0  0
    0.7082   -3.6683    0.0869 H   0  0  0  0  0  0  0  0  0  0  0  0
    4.5468   -2.1219   -3.6362 H   0  0  0  0  0  0  0  0  0  0  0  0
    5.1954   -2.9733   -2.2758 H   0  0  0  0  0  0  0  0  0  0  0  0
  1  5  1  0  0  0  0
  1  6  1  0  0  0  0
  1  7  1  0  0  0  0
  1  8  2  0  0  0  0
  2 15  1  0  0  0  0
  2 17  1  0  0  0  0
  3 14  1  0  0  0  0
  3 37  1  0  0  0  0
  4 16  1  0  0  0  0
  4 38  1  0  0  0  0
  5 18  1  0  0  0  0
  6 19  1  0  0  0  0
  7 23  1  0  0  0  0
  9 22  2  0  0  0  0
 10 17  1  0  0  0  0
 10 21  1  0  0  0  0
 10 22  1  0  0  0  0
 11 22  1  0  0  0  0
 11 26  2  0  0  0  0
 12 26  1  0  0  0  0
 12 50  1  0  0  0  0
 12 51  1  0  0  0  0
 13 29  2  0  0  0  0
 13 30  1  0  0  0  0
 14 15  1  0  0  0  0
 14 16  1  0  0  0  0
 14 31  1  0  0  0  0
 15 18  1  0  0  0  0
 15 32  1  0  0  0  0
 16 17  1  0  0  0  0
 16 33  1  0  0  0  0
 17 34  1  0  0  0  0
 18 35  1  0  0  0  0
 18 36  1  0  0  0  0
 19 20  1  0  0  0  0
 19 24  1  0  0  0  0
 19 39  1  0  0  0  0
 20 23  1  0  0  0  0
 20 40  1  0  0  0  0
 20 41  1  0  0  0  0
 21 25  2  0  0  0  0
 21 42  1  0  0  0  0
 23 43  1  0  0  0  0
 23 44  1  0  0  0  0
 24 27  2  0  0  0  0
 24 28  1  0  0  0  0
 25 26  1  0  0  0  0
 25 45  1  0  0  0  0
 27 29  1  0  0  0  0
 27 46  1  0  0  0  0
 28 30  2  0  0  0  0
 28 47  1  0  0  0  0
 29 48  1  0  0  0  0
 30 49  1  0  0  0  0
M  END
> <PUBCHEM_COMPOUND_CID>
138115154

> <PUBCHEM_CONFORMER_RMSD>
1.6

> <PUBCHEM_CONFORMER_DIVERSEORDER>
1
63
33
65
26
15
17
41
20
3
67
62
59
39
25
60
58
6
4
47
44
48
30
24
38
35
66
32
57
27
21
54
68
11
8
51
45
7
43
29
72
37
18
2
16
64
5
34
22
14
49
52
69
12
50
70
55
71
42
23
28
19
56
10
53
13
9
61
46
40
31
36

> <PUBCHEM_MMFF94_PARTIAL_CHARGES>
39
1 1.51
10 -0.47
11 -0.66
12 -0.85
13 -0.62
14 0.28
15 0.28
16 0.28
17 0.58
18 0.28
19 0.42
2 -0.56
21 -0.04
22 0.84
23 0.28
24 -0.14
25 -0.14
26 0.49
27 -0.15
28 -0.15
29 0.16
3 -0.68
30 0.16
37 0.4
38 0.4
4 -0.68
42 0.15
45 0.15
46 0.15
47 0.15
48 0.15
49 0.15
5 -0.55
50 0.4
51 0.4
6 -0.55
7 -0.55
8 -0.7
9 -0.57

> <PUBCHEM_EFFECTIVE_ROTOR_COUNT>
7

> <PUBCHEM_PHARMACOPHORE_FEATURES>
14
1 11 donor
1 12 donor
1 13 acceptor
1 2 acceptor
1 3 acceptor
1 3 donor
1 4 acceptor
1 4 donor
1 8 acceptor
1 9 acceptor
5 2 14 15 16 17 rings
6 1 6 7 19 20 23 rings
6 10 11 21 22 25 26 rings
6 13 24 27 28 29 30 rings

> <PUBCHEM_HEAVY_ATOM_COUNT>
30

> <PUBCHEM_ATOM_DEF_STEREO_COUNT>
1

> <PUBCHEM_ATOM_UDEF_STEREO_COUNT>
5

> <PUBCHEM_BOND_DEF_STEREO_COUNT>
0

> <PUBCHEM_BOND_UDEF_STEREO_COUNT>
0

> <PUBCHEM_ISOTOPIC_ATOM_COUNT>
0

> <PUBCHEM_COMPONENT_COUNT>
1

> <PUBCHEM_CACTVS_TAUTO_COUNT>
-1

> <PUBCHEM_CONFORMER_ID>
083B785200000001

> <PUBCHEM_MMFF94_ENERGY>
79.8836

> <PUBCHEM_FEATURE_SELFOVERLAP>
71.097

> <PUBCHEM_SHAPE_FINGERPRINT>
108634 29 18191571159140154023
11488393 25 18199762512847433960
12156800 1 14103077977749790363
12363563 72 18059577957837566300
12553582 1 18340210669849619529
12712778 12 18261663788956522658
12788726 201 17909844141164308254
13140716 1 18410566284871662961
13773456 22 16961874137515404694
13941206 138 17753635454422361106
14114206 34 18265897943261816356
14114211 68 17826247189841501079
14117953 113 16682600520554470495
14251740 79 17979376174120629774
14251757 5 18191049870559681046
14725015 67 18335967728041147723
15420108 30 17196302816441109465
18336668 15 17393301244720139458
19319366 153 17831311497364772829
20600515 1 18409163282206722948
20775438 99 17838028744691305047
21133410 32 17244462817206601790
3298306 158 18046902680951547365
3493558 16 11609557215583465288
394071 54 16603810604278095467
463206 1 18122053205150264291
474144 1 16678107288940507655
5282940 2 17325780175259632919
70634741 139 18118435941493279646
7226269 152 18266742381551655150
9709674 26 18268699688031272245
9981440 41 17410744262244790073

> <PUBCHEM_SHAPE_MULTIPOLES>
554.36
7.86
5.5
2.31
0.28
0.7
-0.6
-1.91
-3.84
-0.46
3.03
0.92
-1.16
3.82

> <PUBCHEM_SHAPE_SELFOVERLAP>
1171.969

> <PUBCHEM_SHAPE_VOLUME>
310.7

> <PUBCHEM_COORDINATE_TYPE>
2
5
10

$$$$
