138112573
  -OEChem-03292013293D

 62 63  0     1  0  0  0  0  0999 V2000
   -2.9617    0.7476   -0.0005 O   0  0  0  0  0  0  0  0  0  0  0  0
    1.0023   -0.9461    0.6876 O   0  0  0  0  0  0  0  0  0  0  0  0
    4.5116   -0.3109    0.6914 O   0  0  0  0  0  0  0  0  0  0  0  0
    1.5375    1.6743   -0.1300 O   0  0  0  0  0  0  0  0  0  0  0  0
    1.9049   -0.6703   -1.8528 O   0  0  0  0  0  0  0  0  0  0  0  0
    2.6898   -1.4092    2.1751 O   0  0  0  0  0  0  0  0  0  0  0  0
   -1.3639    1.5301    1.4612 O   0  0  0  0  0  0  0  0  0  0  0  0
   -2.7105   -2.4100   -0.9476 N   0  0  2  0  0  0  0  0  0  0  0  0
   -1.8965   -1.4203   -0.1753 C   0  0  1  0  0  0  0  0  0  0  0  0
   -2.8935   -0.5457    0.5952 C   0  0  2  0  0  0  0  0  0  0  0  0
   -4.2339   -1.2512    0.4618 C   0  0  0  0  0  0  0  0  0  0  0  0
   -4.1112   -1.9828   -0.8626 C   0  0  0  0  0  0  0  0  0  0  0  0
   -1.0077   -2.2443    0.7079 C   0  0  0  0  0  0  0  0  0  0  0  0
   -2.4689   -3.7292   -0.3209 C   0  0  0  0  0  0  0  0  0  0  0  0
   -1.3271   -3.5370    0.6162 C   0  0  0  0  0  0  0  0  0  0  0  0
    0.0763   -1.6434    1.5268 C   0  0  0  0  0  0  0  0  0  0  0  0
    3.1844   -0.1252    0.1540 C   0  0  1  0  0  0  0  0  0  0  0  0
    2.9039    1.4137    0.1998 C   0  0  0  0  0  0  0  0  0  0  0  0
    3.2051   -0.7801   -1.2563 C   0  0  1  0  0  0  0  0  0  0  0  0
    2.2901   -0.9028    1.1326 C   0  0  0  0  0  0  0  0  0  0  0  0
   -2.1387    1.7023    0.5308 C   0  0  0  0  0  0  0  0  0  0  0  0
    3.7723    2.1889   -0.8089 C   0  0  0  0  0  0  0  0  0  0  0  0
    3.1565    1.9995    1.5999 C   0  0  0  0  0  0  0  0  0  0  0  0
    3.6471   -2.2344   -1.3605 C   0  0  0  0  0  0  0  0  0  0  0  0
   -2.3270    2.9979   -0.1898 C   0  0  0  0  0  0  0  0  0  0  0  0
   -3.2938    3.0410   -1.3359 C   0  0  0  0  0  0  0  0  0  0  0  0
    1.9971   -0.6060   -3.2647 C   0  0  0  0  0  0  0  0  0  0  0  0
   -1.5741    4.0258    0.2434 C   0  0  0  0  0  0  0  0  0  0  0  0
   -1.5703    5.4279   -0.2779 C   0  0  0  0  0  0  0  0  0  0  0  0
   -1.2956   -0.8355   -0.8816 H   0  0  0  0  0  0  0  0  0  0  0  0
   -2.6634   -0.4575    1.6641 H   0  0  0  0  0  0  0  0  0  0  0  0
   -5.0820   -0.5598    0.4632 H   0  0  0  0  0  0  0  0  0  0  0  0
   -4.3636   -1.9748    1.2754 H   0  0  0  0  0  0  0  0  0  0  0  0
   -4.8272   -2.8055   -0.9621 H   0  0  0  0  0  0  0  0  0  0  0  0
   -4.3093   -1.2859   -1.6863 H   0  0  0  0  0  0  0  0  0  0  0  0
   -2.2087   -4.4547   -1.0981 H   0  0  0  0  0  0  0  0  0  0  0  0
   -3.3347   -4.1103    0.2330 H   0  0  0  0  0  0  0  0  0  0  0  0
   -0.8401   -4.3393    1.1508 H   0  0  0  0  0  0  0  0  0  0  0  0
   -0.3432   -0.9288    2.2420 H   0  0  0  0  0  0  0  0  0  0  0  0
    0.5765   -2.4334    2.1001 H   0  0  0  0  0  0  0  0  0  0  0  0
    3.9328   -0.2198   -1.8581 H   0  0  0  0  0  0  0  0  0  0  0  0
    2.5075    1.5313    2.3480 H   0  0  0  0  0  0  0  0  0  0  0  0
    2.9130    3.0686    1.6234 H   0  0  0  0  0  0  0  0  0  0  0  0
    4.1976    1.8852    1.9173 H   0  0  0  0  0  0  0  0  0  0  0  0
    3.4982    1.9507   -1.8415 H   0  0  0  0  0  0  0  0  0  0  0  0
    4.8408    2.0020   -0.6676 H   0  0  0  0  0  0  0  0  0  0  0  0
    3.6058    3.2685   -0.7088 H   0  0  0  0  0  0  0  0  0  0  0  0
    2.8987   -2.9013   -0.9185 H   0  0  0  0  0  0  0  0  0  0  0  0
    3.7744   -2.5513   -2.3998 H   0  0  0  0  0  0  0  0  0  0  0  0
    4.6014   -2.4002   -0.8517 H   0  0  0  0  0  0  0  0  0  0  0  0
    5.1596   -0.1085   -0.0041 H   0  0  0  0  0  0  0  0  0  0  0  0
    1.3939    2.6356   -0.0998 H   0  0  0  0  0  0  0  0  0  0  0  0
    0.9890   -0.4452   -3.6583 H   0  0  0  0  0  0  0  0  0  0  0  0
    2.3719   -1.5392   -3.6917 H   0  0  0  0  0  0  0  0  0  0  0  0
    2.6181    0.2368   -3.5842 H   0  0  0  0  0  0  0  0  0  0  0  0
   -4.3127    2.8555   -0.9797 H   0  0  0  0  0  0  0  0  0  0  0  0
   -3.3025    3.9961   -1.8647 H   0  0  0  0  0  0  0  0  0  0  0  0
   -3.0402    2.2768   -2.0788 H   0  0  0  0  0  0  0  0  0  0  0  0
   -0.8838    3.8772    1.0721 H   0  0  0  0  0  0  0  0  0  0  0  0
   -0.6007    5.6487   -0.7351 H   0  0  0  0  0  0  0  0  0  0  0  0
   -1.7186    6.1247    0.5536 H   0  0  0  0  0  0  0  0  0  0  0  0
   -2.3495    5.6321   -1.0137 H   0  0  0  0  0  0  0  0  0  0  0  0
  1 10  1  0  0  0  0
  1 21  1  0  0  0  0
  2 16  1  0  0  0  0
  2 20  1  0  0  0  0
  3 17  1  0  0  0  0
  3 51  1  0  0  0  0
  4 18  1  0  0  0  0
  4 52  1  0  0  0  0
  5 19  1  0  0  0  0
  5 27  1  0  0  0  0
  6 20  2  0  0  0  0
  7 21  2  0  0  0  0
  8  9  1  0  0  0  0
  8 12  1  0  0  0  0
  8 14  1  0  0  0  0
  9 10  1  0  0  0  0
  9 13  1  0  0  0  0
  9 30  1  0  0  0  0
 10 11  1  0  0  0  0
 10 31  1  0  0  0  0
 11 12  1  0  0  0  0
 11 32  1  0  0  0  0
 11 33  1  0  0  0  0
 12 34  1  0  0  0  0
 12 35  1  0  0  0  0
 13 15  2  0  0  0  0
 13 16  1  0  0  0  0
 14 15  1  0  0  0  0
 14 36  1  0  0  0  0
 14 37  1  0  0  0  0
 15 38  1  0  0  0  0
 16 39  1  0  0  0  0
 16 40  1  0  0  0  0
 17 18  1  0  0  0  0
 17 19  1  0  0  0  0
 17 20  1  0  0  0  0
 18 22  1  0  0  0  0
 18 23  1  0  0  0  0
 19 24  1  0  0  0  0
 19 41  1  0  0  0  0
 21 25  1  0  0  0  0
 22 45  1  0  0  0  0
 22 46  1  0  0  0  0
 22 47  1  0  0  0  0
 23 42  1  0  0  0  0
 23 43  1  0  0  0  0
 23 44  1  0  0  0  0
 24 48  1  0  0  0  0
 24 49  1  0  0  0  0
 24 50  1  0  0  0  0
 25 26  1  0  0  0  0
 25 28  2  3  0  0  0
 26 56  1  0  0  0  0
 26 57  1  0  0  0  0
 26 58  1  0  0  0  0
 27 53  1  0  0  0  0
 27 54  1  0  0  0  0
 27 55  1  0  0  0  0
 28 29  1  0  0  0  0
 28 59  1  0  0  0  0
 29 60  1  0  0  0  0
 29 61  1  0  0  0  0
 29 62  1  0  0  0  0
M  END
> <PUBCHEM_COMPOUND_CID>
138112573

> <PUBCHEM_CONFORMER_RMSD>
1.2

> <PUBCHEM_CONFORMER_DIVERSEORDER>
1
96
117
104
156
186
100
217
204
146
149
37
194
150
12
114
201
82
125
182
72
233
230
15
197
51
179
200
159
154
89
222
102
75
173
152
9
239
180
99
31
226
193
138
106
79
224
238
111
192
112
54
206
214
55
53
229
184
157
185
136
213
189
116
164
174
36
163
78
84
67
85
176
80
187
44
58
231
94
119
64
42
171
23
134
236
145
178
29
158
74
207
92
76
98
28
90
86
237
183
118
120
124
101
153
40
108
144
33
195
68
135
203
205
16
47
61
143
148
155
30
172
57
218
56
128
103
21
18
220
4
142
228
71
162
107
188
132
211
122
32
109
50
127
170
14
62
22
141
131
232
24
121
175
199
235
93
223
165
38
52
147
48
35
137
168
83
212
65
181
41
126
216
34
133
227
70
123
219
160
215
196
225
113
190
115
105
140
221
210
177
6
39
49
43
139
87
19
234
3
7
209
60
26
13
45
97
73
81
151
167
8
129
202
91
110
130
63
69
20
46
25
208
17
5
88
77
191
166
10
169
161
66
2
11
95
59
198
27

> <PUBCHEM_MMFF94_PARTIAL_CHARGES>
29
1 -0.43
10 0.28
12 0.27
13 -0.28
14 0.41
15 -0.29
16 0.42
17 0.34
18 0.28
19 0.28
2 -0.43
20 0.66
21 0.71
25 -0.12
26 0.14
27 0.28
28 -0.29
29 0.14
3 -0.68
38 0.15
4 -0.68
5 -0.56
51 0.4
52 0.4
59 0.15
6 -0.57
7 -0.57
8 -0.81
9 0.41

> <PUBCHEM_EFFECTIVE_ROTOR_COUNT>
10.8

> <PUBCHEM_PHARMACOPHORE_FEATURES>
13
1 26 hydrophobe
1 29 hydrophobe
1 3 acceptor
1 3 donor
1 4 acceptor
1 4 donor
1 5 acceptor
1 6 acceptor
1 7 acceptor
1 8 cation
3 18 22 23 hydrophobe
5 8 9 10 11 12 rings
5 8 9 13 14 15 rings

> <PUBCHEM_HEAVY_ATOM_COUNT>
29

> <PUBCHEM_ATOM_DEF_STEREO_COUNT>
2

> <PUBCHEM_ATOM_UDEF_STEREO_COUNT>
2

> <PUBCHEM_BOND_DEF_STEREO_COUNT>
0

> <PUBCHEM_BOND_UDEF_STEREO_COUNT>
1

> <PUBCHEM_ISOTOPIC_ATOM_COUNT>
0

> <PUBCHEM_COMPONENT_COUNT>
1

> <PUBCHEM_CACTVS_TAUTO_COUNT>
-1

> <PUBCHEM_CONFORMER_ID>
083B6E3D00000001

> <PUBCHEM_MMFF94_ENERGY>
70.3948

> <PUBCHEM_FEATURE_SELFOVERLAP>
66.492

> <PUBCHEM_SHAPE_FINGERPRINT>
10498660 4 18265329701824302651
11582403 64 16477621432556965194
12166972 35 17241878994281311638
12553582 1 18193278726573603481
12788726 201 18335145323028534133
138480 1 16321460867224460537
14251751 93 18191878833338112539
14251757 17 17914345575674559070
14790565 3 18412546484234232905
14955137 171 18265636427831761571
15664445 248 17835818760293720559
15961568 22 18122900099887467320
19930381 70 17039787838136189787
20905425 154 18268988868063209088
21285901 2 18060425737517315247
21860390 5 17906168812810291740
23557571 272 18202560717556335450
23559900 14 18131072627998318458
35225 105 18191293897515792413
463206 1 18046917244779569985
81228 2 18269007525548660785
9709674 26 18271531986934705294

> <PUBCHEM_SHAPE_MULTIPOLES>
550.74
7.87
5.72
1.87
2.41
6.15
-0.92
-1.03
-1.04
-5.59
-0.42
1.73
-0.57
0.67

> <PUBCHEM_SHAPE_SELFOVERLAP>
1128.952

> <PUBCHEM_SHAPE_VOLUME>
320.4

> <PUBCHEM_COORDINATE_TYPE>
2
5
10

$$$$
