138112823
  -OEChem-03292013293D

 54 57  0     1  0  0  0  0  0999 V2000
   -0.7198   -4.2123   -1.0590 O   0  0  0  0  0  0  0  0  0  0  0  0
   -0.4118   -1.8769   -2.2502 O   0  0  0  0  0  0  0  0  0  0  0  0
   -3.6192    2.6926    0.5260 O   0  0  0  0  0  0  0  0  0  0  0  0
   -4.8629    0.9299   -0.5460 O   0  0  0  0  0  0  0  0  0  0  0  0
   -0.8259    2.5731    1.0125 O   0  0  0  0  0  0  0  0  0  0  0  0
    0.9072    2.2540   -1.3441 O   0  0  0  0  0  0  0  0  0  0  0  0
    4.8598    0.2560    0.3851 O   0  0  0  0  0  0  0  0  0  0  0  0
    3.6118    2.2272   -1.0987 O   0  0  0  0  0  0  0  0  0  0  0  0
    0.4456   -3.0508    0.6911 C   0  0  1  0  0  0  0  0  0  0  0  0
   -0.8468   -3.0863   -0.1737 C   0  0  1  0  0  0  0  0  0  0  0  0
    0.5879   -1.7849    1.5669 C   0  0  0  0  0  0  0  0  0  0  0  0
    1.3334   -0.6782    0.8480 C   0  0  0  0  0  0  0  0  0  0  0  0
   -0.9018   -1.8807   -1.1240 C   0  0  0  0  0  0  0  0  0  0  0  0
    0.6833    0.3215    0.0929 C   0  0  0  0  0  0  0  0  0  0  0  0
    0.5780   -4.2988    1.5819 C   0  0  0  0  0  0  0  0  0  0  0  0
   -1.5464   -0.6380   -0.6563 C   0  0  0  0  0  0  0  0  0  0  0  0
   -0.7831    0.3957   -0.0567 C   0  0  0  0  0  0  0  0  0  0  0  0
   -2.1318   -3.3001    0.6319 C   0  0  0  0  0  0  0  0  0  0  0  0
    2.7407   -0.6806    0.9284 C   0  0  0  0  0  0  0  0  0  0  0  0
   -1.4644    1.5537    0.3719 C   0  0  0  0  0  0  0  0  0  0  0  0
    1.4787    1.2937   -0.5507 C   0  0  0  0  0  0  0  0  0  0  0  0
   -2.9265   -0.5161   -0.8733 C   0  0  0  0  0  0  0  0  0  0  0  0
   -2.8291    1.6419    0.1727 C   0  0  0  0  0  0  0  0  0  0  0  0
   -3.5386    0.6375   -0.4378 C   0  0  0  0  0  0  0  0  0  0  0  0
    3.5024    0.2912    0.2843 C   0  0  0  0  0  0  0  0  0  0  0  0
    2.8705    1.2803   -0.4560 C   0  0  0  0  0  0  0  0  0  0  0  0
   -4.9076    2.2332    0.0695 C   0  0  0  0  0  0  0  0  0  0  0  0
   -0.7605    2.5034    2.4354 C   0  0  0  0  0  0  0  0  0  0  0  0
    5.5640   -0.4977   -0.6005 C   0  0  0  0  0  0  0  0  0  0  0  0
    3.9126    3.4163   -0.3715 C   0  0  0  0  0  0  0  0  0  0  0  0
    1.3046   -3.0994    0.0051 H   0  0  0  0  0  0  0  0  0  0  0  0
    1.1546   -2.0189    2.4790 H   0  0  0  0  0  0  0  0  0  0  0  0
   -0.3785   -1.4281    1.9382 H   0  0  0  0  0  0  0  0  0  0  0  0
   -0.1633   -4.3007    2.3874 H   0  0  0  0  0  0  0  0  0  0  0  0
    1.5695   -4.3300    2.0478 H   0  0  0  0  0  0  0  0  0  0  0  0
    0.4626   -5.2204    1.0029 H   0  0  0  0  0  0  0  0  0  0  0  0
   -2.1296   -4.2727    1.1355 H   0  0  0  0  0  0  0  0  0  0  0  0
   -2.2957   -2.5222    1.3826 H   0  0  0  0  0  0  0  0  0  0  0  0
   -3.0037   -3.3217   -0.0320 H   0  0  0  0  0  0  0  0  0  0  0  0
    3.2463   -1.4556    1.5019 H   0  0  0  0  0  0  0  0  0  0  0  0
    0.1268   -4.1373   -1.5317 H   0  0  0  0  0  0  0  0  0  0  0  0
   -3.4983   -1.2988   -1.3602 H   0  0  0  0  0  0  0  0  0  0  0  0
   -5.2986    2.9524   -0.6593 H   0  0  0  0  0  0  0  0  0  0  0  0
   -5.5901    2.1938    0.9263 H   0  0  0  0  0  0  0  0  0  0  0  0
    0.0439    1.9518   -1.6687 H   0  0  0  0  0  0  0  0  0  0  0  0
   -0.1726    3.3534    2.7924 H   0  0  0  0  0  0  0  0  0  0  0  0
   -0.2705    1.5798    2.7592 H   0  0  0  0  0  0  0  0  0  0  0  0
   -1.7638    2.5662    2.8681 H   0  0  0  0  0  0  0  0  0  0  0  0
    6.6341   -0.4230   -0.3886 H   0  0  0  0  0  0  0  0  0  0  0  0
    5.3762   -0.0947   -1.6007 H   0  0  0  0  0  0  0  0  0  0  0  0
    5.2712   -1.5516   -0.5585 H   0  0  0  0  0  0  0  0  0  0  0  0
    4.4955    4.0760   -1.0200 H   0  0  0  0  0  0  0  0  0  0  0  0
    4.5084    3.1838    0.5168 H   0  0  0  0  0  0  0  0  0  0  0  0
    2.9929    3.9342   -0.0813 H   0  0  0  0  0  0  0  0  0  0  0  0
  1 10  1  0  0  0  0
  1 41  1  0  0  0  0
  2 13  2  0  0  0  0
  3 23  1  0  0  0  0
  3 27  1  0  0  0  0
  4 24  1  0  0  0  0
  4 27  1  0  0  0  0
  5 20  1  0  0  0  0
  5 28  1  0  0  0  0
  6 21  1  0  0  0  0
  6 45  1  0  0  0  0
  7 25  1  0  0  0  0
  7 29  1  0  0  0  0
  8 26  1  0  0  0  0
  8 30  1  0  0  0  0
  9 10  1  0  0  0  0
  9 11  1  0  0  0  0
  9 15  1  0  0  0  0
  9 31  1  0  0  0  0
 10 13  1  0  0  0  0
 10 18  1  0  0  0  0
 11 12  1  0  0  0  0
 11 32  1  0  0  0  0
 11 33  1  0  0  0  0
 12 14  1  0  0  0  0
 12 19  2  0  0  0  0
 13 16  1  0  0  0  0
 14 17  1  0  0  0  0
 14 21  2  0  0  0  0
 15 34  1  0  0  0  0
 15 35  1  0  0  0  0
 15 36  1  0  0  0  0
 16 17  1  0  0  0  0
 16 22  2  0  0  0  0
 17 20  2  0  0  0  0
 18 37  1  0  0  0  0
 18 38  1  0  0  0  0
 18 39  1  0  0  0  0
 19 25  1  0  0  0  0
 19 40  1  0  0  0  0
 20 23  1  0  0  0  0
 21 26  1  0  0  0  0
 22 24  1  0  0  0  0
 22 42  1  0  0  0  0
 23 24  2  0  0  0  0
 25 26  2  0  0  0  0
 27 43  1  0  0  0  0
 27 44  1  0  0  0  0
 28 46  1  0  0  0  0
 28 47  1  0  0  0  0
 28 48  1  0  0  0  0
 29 49  1  0  0  0  0
 29 50  1  0  0  0  0
 29 51  1  0  0  0  0
 30 52  1  0  0  0  0
 30 53  1  0  0  0  0
 30 54  1  0  0  0  0
M  END
> <PUBCHEM_COMPOUND_CID>
138112823

> <PUBCHEM_CONFORMER_RMSD>
0.8

> <PUBCHEM_CONFORMER_DIVERSEORDER>
1
4
3
2

> <PUBCHEM_MMFF94_PARTIAL_CHARGES>
29
1 -0.68
10 0.34
11 0.14
12 -0.14
13 0.42
16 0.09
19 -0.15
2 -0.57
20 0.08
21 0.08
22 -0.15
23 0.08
24 0.08
25 0.08
26 0.08
27 0.56
28 0.28
29 0.28
3 -0.36
30 0.28
4 -0.36
40 0.15
41 0.4
42 0.15
45 0.45
5 -0.36
6 -0.53
7 -0.36
8 -0.36

> <PUBCHEM_EFFECTIVE_ROTOR_COUNT>
4.2

> <PUBCHEM_PHARMACOPHORE_FEATURES>
12
1 1 acceptor
1 1 donor
1 2 acceptor
1 3 acceptor
1 4 acceptor
1 5 acceptor
1 6 donor
1 7 acceptor
1 8 acceptor
5 3 4 23 24 27 rings
6 12 14 19 21 25 26 rings
6 16 17 20 22 23 24 rings

> <PUBCHEM_HEAVY_ATOM_COUNT>
30

> <PUBCHEM_ATOM_DEF_STEREO_COUNT>
1

> <PUBCHEM_ATOM_UDEF_STEREO_COUNT>
1

> <PUBCHEM_BOND_DEF_STEREO_COUNT>
0

> <PUBCHEM_BOND_UDEF_STEREO_COUNT>
0

> <PUBCHEM_ISOTOPIC_ATOM_COUNT>
0

> <PUBCHEM_COMPONENT_COUNT>
1

> <PUBCHEM_CACTVS_TAUTO_COUNT>
-1

> <PUBCHEM_CONFORMER_ID>
083B6F3700000001

> <PUBCHEM_MMFF94_ENERGY>
138.1147

> <PUBCHEM_FEATURE_SELFOVERLAP>
61.071

> <PUBCHEM_SHAPE_FINGERPRINT>
10382601 240 18050294669547824803
107951 10 18409456868849219230
1100329 8 18409162229934292000
11421498 54 17987525805966639153
11578080 2 16985464151004458290
12156800 1 16519109433736782490
12236239 1 18410571756137797224
12422481 6 17473225840207427538
12592029 89 18263365802469094209
12788726 201 18048874400967175274
13140716 1 18334565867626362962
133893 2 17762358928110492217
14787075 74 18341609361074041975
14790565 3 18408324371492658572
14955137 171 18117273649800906370
16752209 62 18272074046330502055
17138139 8 18056731408718208119
18681886 176 18410567362792396832
19591789 44 18193837265959459155
20715895 44 17258767128477025153
20739085 24 17905039253348823562
20775438 99 16546605161588950335
21421861 104 17766287475104860217
22149856 69 16194802742240675201
229495 10 16589967365935644731
23419403 2 17549598050932292115
23558518 356 18045221789411975070
23559900 14 18272085046280116032
23598288 3 18127127691857097182
3380486 145 17036150628282005346
35225 105 17610384697075487867
394222 165 18261105236489982313
404807 14 15546882508016105406
469060 322 15069456223487407586
474 4 18334013848116913281
484989 97 18191861439512380999
6287921 2 17767675062615397995
8272917 22 18120090590032624505

> <PUBCHEM_SHAPE_MULTIPOLES>
570.43
7.76
4.98
1.49
3.33
3.85
-0.28
-6.36
1.38
-0.94
-0.92
-0.04
0.24
-1.31

> <PUBCHEM_SHAPE_SELFOVERLAP>
1257.091

> <PUBCHEM_SHAPE_VOLUME>
307.7

> <PUBCHEM_COORDINATE_TYPE>
2
5
10

$$$$
