138397773
  -OEChem-03292013293D

 47 46  0     1  0  0  0  0  0999 V2000
    1.6989    1.4134    1.3059 O   0  0  0  0  0  0  0  0  0  0  0  0
   -1.2708   -0.9419    0.0328 O   0  0  0  0  0  0  0  0  0  0  0  0
    4.8981   -1.1537   -1.4206 O   0  0  0  0  0  0  0  0  0  0  0  0
   -4.4159    0.9950   -1.3535 O   0  5  0  0  0  0  0  0  0  0  0  0
   -0.6137    1.2766   -0.1750 N   0  0  0  0  0  0  0  0  0  0  0  0
    2.6998   -0.0482   -0.1939 N   0  0  0  0  0  0  0  0  0  0  0  0
   -3.8295   -0.1249    0.5894 N   0  0  0  0  0  0  0  0  0  0  0  0
    6.2281   -0.2687    0.2624 N   0  0  0  0  0  0  0  0  0  0  0  0
    0.6400    1.0445   -0.8428 C   0  0  2  0  0  0  0  0  0  0  0  0
    3.8414   -0.3786    0.6180 C   0  0  1  0  0  0  0  0  0  0  0  0
   -2.7236    0.7855    0.9005 C   0  0  2  0  0  0  0  0  0  0  0  0
    1.7080    0.8332    0.2222 C   0  0  0  0  0  0  0  0  0  0  0  0
   -1.4759    0.2566    0.2125 C   0  0  0  0  0  0  0  0  0  0  0  0
    1.0043    2.2055   -1.7549 C   0  0  0  0  0  0  0  0  0  0  0  0
   -5.6605   -0.9371   -0.6984 C   0  0  0  0  0  0  0  0  0  0  0  0
    3.5639   -1.5887    1.4964 C   0  0  0  0  0  0  0  0  0  0  0  0
   -2.5367    0.8528    2.4072 C   0  0  0  0  0  0  0  0  0  0  0  0
    5.0197   -0.6390   -0.3110 C   0  0  0  0  0  0  0  0  0  0  0  0
   -4.5192    0.1000   -0.4852 C   0  0  0  0  0  0  0  0  0  0  0  0
   -6.6627   -0.8814    0.4545 C   0  0  0  0  0  0  0  0  0  0  0  0
   -5.0900   -2.3460   -0.8635 C   0  0  0  0  0  0  0  0  0  0  0  0
    7.4964   -0.4551   -0.4030 C   0  0  0  0  0  0  0  0  0  0  0  0
    0.5410    0.1316   -1.4422 H   0  0  0  0  0  0  0  0  0  0  0  0
    4.0672    0.4831    1.2575 H   0  0  0  0  0  0  0  0  0  0  0  0
   -2.9323    1.8078    0.5600 H   0  0  0  0  0  0  0  0  0  0  0  0
   -0.8370    2.2319    0.0895 H   0  0  0  0  0  0  0  0  0  0  0  0
    2.6168   -0.4890   -1.1058 H   0  0  0  0  0  0  0  0  0  0  0  0
    1.1187    3.1364   -1.1877 H   0  0  0  0  0  0  0  0  0  0  0  0
    1.9508    2.0157   -2.2720 H   0  0  0  0  0  0  0  0  0  0  0  0
    0.2269    2.3682   -2.5091 H   0  0  0  0  0  0  0  0  0  0  0  0
   -6.2026   -0.6885   -1.6218 H   0  0  0  0  0  0  0  0  0  0  0  0
    3.3258   -2.4710    0.8913 H   0  0  0  0  0  0  0  0  0  0  0  0
    2.7149   -1.4044    2.1632 H   0  0  0  0  0  0  0  0  0  0  0  0
    4.4355   -1.8352    2.1118 H   0  0  0  0  0  0  0  0  0  0  0  0
   -2.3100   -0.1359    2.8223 H   0  0  0  0  0  0  0  0  0  0  0  0
   -1.7090    1.5195    2.6712 H   0  0  0  0  0  0  0  0  0  0  0  0
   -3.4452    1.2190    2.8968 H   0  0  0  0  0  0  0  0  0  0  0  0
   -6.2065   -1.1851    1.4030 H   0  0  0  0  0  0  0  0  0  0  0  0
   -7.0493    0.1352    0.5841 H   0  0  0  0  0  0  0  0  0  0  0  0
   -7.5117   -1.5456    0.2615 H   0  0  0  0  0  0  0  0  0  0  0  0
   -4.5902   -2.6899    0.0486 H   0  0  0  0  0  0  0  0  0  0  0  0
   -4.3538   -2.3737   -1.6741 H   0  0  0  0  0  0  0  0  0  0  0  0
   -5.8852   -3.0601   -1.1017 H   0  0  0  0  0  0  0  0  0  0  0  0
    6.2413    0.1054    1.2066 H   0  0  0  0  0  0  0  0  0  0  0  0
    7.8984   -1.4279   -0.1091 H   0  0  0  0  0  0  0  0  0  0  0  0
    8.1765    0.3364   -0.0799 H   0  0  0  0  0  0  0  0  0  0  0  0
    7.3717   -0.4220   -1.4882 H   0  0  0  0  0  0  0  0  0  0  0  0
  1 12  2  0  0  0  0
  2 13  2  0  0  0  0
  3 18  2  0  0  0  0
  4 19  1  0  0  0  0
  5  9  1  0  0  0  0
  5 13  1  0  0  0  0
  5 26  1  0  0  0  0
  6 10  1  0  0  0  0
  6 12  1  0  0  0  0
  6 27  1  0  0  0  0
  7 11  1  0  0  0  0
  7 19  2  0  0  0  0
  8 18  1  0  0  0  0
  8 22  1  0  0  0  0
  8 44  1  0  0  0  0
  9 12  1  0  0  0  0
  9 14  1  0  0  0  0
  9 23  1  0  0  0  0
 10 16  1  0  0  0  0
 10 18  1  0  0  0  0
 10 24  1  0  0  0  0
 11 13  1  0  0  0  0
 11 17  1  0  0  0  0
 11 25  1  0  0  0  0
 14 28  1  0  0  0  0
 14 29  1  0  0  0  0
 14 30  1  0  0  0  0
 15 19  1  0  0  0  0
 15 20  1  0  0  0  0
 15 21  1  0  0  0  0
 15 31  1  0  0  0  0
 16 32  1  0  0  0  0
 16 33  1  0  0  0  0
 16 34  1  0  0  0  0
 17 35  1  0  0  0  0
 17 36  1  0  0  0  0
 17 37  1  0  0  0  0
 20 38  1  0  0  0  0
 20 39  1  0  0  0  0
 20 40  1  0  0  0  0
 21 41  1  0  0  0  0
 21 42  1  0  0  0  0
 21 43  1  0  0  0  0
 22 45  1  0  0  0  0
 22 46  1  0  0  0  0
 22 47  1  0  0  0  0
M  CHG  1   4  -1
M  END
> <PUBCHEM_COMPOUND_CID>
138397773

> <PUBCHEM_CONFORMER_RMSD>
1

> <PUBCHEM_CONFORMER_DIVERSEORDER>
1
116
126
82
120
117
80
90
88
27
87
17
118
57
32
38
61
34
75
106
30
21
55
12
97
59
20
91
115
13
46
98
84
36
10
9
125
74
53
19
48
47
122
133
135
129
112
86
56
96
8
63
15
81
121
113
111
107
95
23
26
94
100
79
31
92
108
3
14
134
89
124
104
137
83
78
128
69
110
70
136
65
109
52
24
77
35
39
45
49
54
105
22
114
132
11
67
119
25
127
60
50
64
72
42
5
37
130
71
18
16
68
103
66
101
58
93
99
85
73
40
131
4
123
43
29
62
28
51
41
76
44
33
6
102
7
2

> <PUBCHEM_MMFF94_PARTIAL_CHARGES>
20
1 -0.57
10 0.36
11 0.31
12 0.57
13 0.57
15 0.06
18 0.57
19 0.25
2 -0.57
22 0.3
26 0.37
27 0.37
3 -0.57
4 -0.86
44 0.37
5 -0.73
6 -0.73
7 -0.7
8 -0.73
9 0.36

> <PUBCHEM_EFFECTIVE_ROTOR_COUNT>
10

> <PUBCHEM_PHARMACOPHORE_FEATURES>
7
1 1 acceptor
1 2 acceptor
1 3 acceptor
1 5 donor
1 6 donor
1 8 donor
3 15 20 21 hydrophobe

> <PUBCHEM_HEAVY_ATOM_COUNT>
22

> <PUBCHEM_ATOM_DEF_STEREO_COUNT>
3

> <PUBCHEM_ATOM_UDEF_STEREO_COUNT>
0

> <PUBCHEM_BOND_DEF_STEREO_COUNT>
0

> <PUBCHEM_BOND_UDEF_STEREO_COUNT>
0

> <PUBCHEM_ISOTOPIC_ATOM_COUNT>
0

> <PUBCHEM_COMPONENT_COUNT>
1

> <PUBCHEM_CACTVS_TAUTO_COUNT>
-1

> <PUBCHEM_CONFORMER_ID>
083FC84D00000001

> <PUBCHEM_MMFF94_ENERGY>
44.5586

> <PUBCHEM_FEATURE_SELFOVERLAP>
35.522

> <PUBCHEM_SHAPE_FINGERPRINT>
10447042 23 17458338616344913906
106641 1 16917062287669643994
10730089 173 11746929889183067519
11135609 99 18059009622027213574
11315181 36 18202004334718503961
11796584 16 18343298154746355047
12166972 35 18411138078015098921
12516196 113 18408882936727231388
12596602 18 18060699498542436096
12788726 201 16588291744659211149
12892183 10 16773796944466731616
12895836 83 12973604456348351201
13288520 33 18272651251459655137
13533116 47 17917991710998721608
13540713 4 16445053039434253641
13668630 136 18412266138047703583
13685833 64 18408323297760675923
14123256 34 18273500082562191078
14178342 30 16987458442186530241
14251764 18 13758063109518907720
14341114 176 16486970709125044642
15183329 4 15068336800448788756
15716309 27 16774078470830081774
17349148 13 18272093816149251095
17834072 8 16226047803512909493
18222031 100 18335138687483286356
18927931 339 16702303455923788317
19784866 240 18411986875321755701
20281389 69 11674876701623102286
20645477 70 18040154036902840636
20871999 31 16950278468861247924
21033648 29 14260777340113977970
21150785 3 17313105271639506711
21756936 100 8790881869958820141
22224240 67 13254792438975643685
23198884 109 15574431012103676671
23557571 272 16271938082030818097
23559900 14 18129934710651247041
25122255 55 18131359630566284439
26918003 58 17704071815916036353
2838139 119 10881408646929413206
300161 21 13551190000451929736
3004659 81 18411132572019642363
3009799 131 16515402980408158252
351380 3 18410853265627071167
465052 167 17703792539635572916
59682541 52 17313095371866516271
5969126 39 17967245378269159548
59755656 215 18411978027910860695
960060 61 17458061551787815562

> <PUBCHEM_SHAPE_MULTIPOLES>
409.35
17.3
1.77
1.55
7.87
0.1
0.55
-9.09
-3.54
-0.55
-0.53
-0.59
0.25
-0.88

> <PUBCHEM_SHAPE_SELFOVERLAP>
795.027

> <PUBCHEM_SHAPE_VOLUME>
247.3

> <PUBCHEM_COORDINATE_TYPE>
2
5
10

$$$$
