138319048
  -OEChem-03292013293D

 60 60  0     1  0  0  0  0  0999 V2000
   -2.2995   -0.3228   -0.1833 O   0  0  0  0  0  0  0  0  0  0  0  0
    4.4352    2.7345   -1.0008 O   0  0  0  0  0  0  0  0  0  0  0  0
   -1.1331   -2.5466   -1.3808 O   0  5  0  0  0  0  0  0  0  0  0  0
    1.0676   -2.6688   -0.7828 O   0  0  0  0  0  0  0  0  0  0  0  0
   -3.3234    0.6856    1.6212 O   0  0  0  0  0  0  0  0  0  0  0  0
   -5.9488    1.8561    0.2588 O   0  0  0  0  0  0  0  0  0  0  0  0
   -7.2048    0.0673   -1.5470 O   0  0  0  0  0  0  0  0  0  0  0  0
    5.3576   -2.3592   -1.4107 O   0  0  0  0  0  0  0  0  0  0  0  0
   -0.1590    0.7879   -0.4113 C   0  0  2  0  0  0  0  0  0  0  0  0
   -1.0258   -0.1706    0.4544 C   0  0  2  0  0  0  0  0  0  0  0  0
    1.2367    1.0353    0.2073 C   0  0  0  0  0  0  0  0  0  0  0  0
   -0.4327   -1.5734    0.6880 C   0  0  1  0  0  0  0  0  0  0  0  0
    2.2174    1.8566   -0.6420 C   0  0  0  0  0  0  0  0  0  0  0  0
   -0.9151    2.1096   -0.6224 C   0  0  0  0  0  0  0  0  0  0  0  0
    3.6290    2.0245   -0.0567 C   0  0  1  0  0  0  0  0  0  0  0  0
   -1.3626   -2.5060    1.4595 C   0  0  0  0  0  0  0  0  0  0  0  0
   -0.1436   -2.3380   -0.6249 C   0  0  0  0  0  0  0  0  0  0  0  0
    4.3431    0.7323    0.2617 C   0  0  0  0  0  0  0  0  0  0  0  0
   -3.3688    0.1542    0.5204 C   0  0  0  0  0  0  0  0  0  0  0  0
   -4.6300   -0.0932   -0.2816 C   0  0  0  0  0  0  0  0  0  0  0  0
   -5.8844    0.4372    0.4214 C   0  0  2  0  0  0  0  0  0  0  0  0
    4.5237   -0.2282   -0.7335 C   0  0  0  0  0  0  0  0  0  0  0  0
    4.8213    0.4990    1.5514 C   0  0  0  0  0  0  0  0  0  0  0  0
   -7.1744   -0.1810   -0.1401 C   0  0  1  0  0  0  0  0  0  0  0  0
    5.5057    3.4066   -0.3582 C   0  0  0  0  0  0  0  0  0  0  0  0
    5.1826   -1.4220   -0.4394 C   0  0  0  0  0  0  0  0  0  0  0  0
    5.4799   -0.6949    1.8455 C   0  0  0  0  0  0  0  0  0  0  0  0
   -8.4547    0.3733    0.4756 C   0  0  0  0  0  0  0  0  0  0  0  0
    5.6608   -1.6553    0.8500 C   0  0  0  0  0  0  0  0  0  0  0  0
   -0.0267    0.3391   -1.4043 H   0  0  0  0  0  0  0  0  0  0  0  0
   -1.1230    0.2911    1.4458 H   0  0  0  0  0  0  0  0  0  0  0  0
    1.1180    1.5246    1.1825 H   0  0  0  0  0  0  0  0  0  0  0  0
    1.7038    0.0663    0.4035 H   0  0  0  0  0  0  0  0  0  0  0  0
    0.4957   -1.4867    1.2643 H   0  0  0  0  0  0  0  0  0  0  0  0
    1.8118    2.8620   -0.8085 H   0  0  0  0  0  0  0  0  0  0  0  0
    2.2815    1.4108   -1.6433 H   0  0  0  0  0  0  0  0  0  0  0  0
   -1.1045    2.6129    0.3316 H   0  0  0  0  0  0  0  0  0  0  0  0
   -0.3487    2.7946   -1.2599 H   0  0  0  0  0  0  0  0  0  0  0  0
   -1.8751    1.9514   -1.1237 H   0  0  0  0  0  0  0  0  0  0  0  0
    3.5180    2.6271    0.8557 H   0  0  0  0  0  0  0  0  0  0  0  0
   -2.3128   -2.6847    0.9447 H   0  0  0  0  0  0  0  0  0  0  0  0
   -0.8911   -3.4820    1.6234 H   0  0  0  0  0  0  0  0  0  0  0  0
   -1.5936   -2.0822    2.4429 H   0  0  0  0  0  0  0  0  0  0  0  0
   -4.7110   -1.1775   -0.4194 H   0  0  0  0  0  0  0  0  0  0  0  0
   -4.5044    0.3953   -1.2547 H   0  0  0  0  0  0  0  0  0  0  0  0
   -5.8439    0.2331    1.4980 H   0  0  0  0  0  0  0  0  0  0  0  0
    4.1614   -0.0561   -1.7437 H   0  0  0  0  0  0  0  0  0  0  0  0
    4.6881    1.2378    2.3370 H   0  0  0  0  0  0  0  0  0  0  0  0
   -7.1457   -1.2674    0.0034 H   0  0  0  0  0  0  0  0  0  0  0  0
    6.2081    2.7044    0.0995 H   0  0  0  0  0  0  0  0  0  0  0  0
    5.1332    4.1142    0.3895 H   0  0  0  0  0  0  0  0  0  0  0  0
    6.0504    3.9752   -1.1176 H   0  0  0  0  0  0  0  0  0  0  0  0
    5.8521   -0.8767    2.8495 H   0  0  0  0  0  0  0  0  0  0  0  0
   -8.5758    1.4387    0.2525 H   0  0  0  0  0  0  0  0  0  0  0  0
   -8.4622    0.2355    1.5609 H   0  0  0  0  0  0  0  0  0  0  0  0
   -9.3298   -0.1338    0.0549 H   0  0  0  0  0  0  0  0  0  0  0  0
    6.1755   -2.5812    1.0921 H   0  0  0  0  0  0  0  0  0  0  0  0
   -5.1457    2.2339    0.6561 H   0  0  0  0  0  0  0  0  0  0  0  0
   -7.9999   -0.3643   -1.9037 H   0  0  0  0  0  0  0  0  0  0  0  0
    5.8311   -3.1201   -1.0325 H   0  0  0  0  0  0  0  0  0  0  0  0
  1 10  1  0  0  0  0
  1 19  1  0  0  0  0
  2 15  1  0  0  0  0
  2 25  1  0  0  0  0
  3 17  1  0  0  0  0
  4 17  2  0  0  0  0
  5 19  2  0  0  0  0
  6 21  1  0  0  0  0
  6 58  1  0  0  0  0
  7 24  1  0  0  0  0
  7 59  1  0  0  0  0
  8 26  1  0  0  0  0
  8 60  1  0  0  0  0
  9 10  1  0  0  0  0
  9 11  1  0  0  0  0
  9 14  1  0  0  0  0
  9 30  1  0  0  0  0
 10 12  1  0  0  0  0
 10 31  1  0  0  0  0
 11 13  1  0  0  0  0
 11 32  1  0  0  0  0
 11 33  1  0  0  0  0
 12 16  1  0  0  0  0
 12 17  1  0  0  0  0
 12 34  1  0  0  0  0
 13 15  1  0  0  0  0
 13 35  1  0  0  0  0
 13 36  1  0  0  0  0
 14 37  1  0  0  0  0
 14 38  1  0  0  0  0
 14 39  1  0  0  0  0
 15 18  1  0  0  0  0
 15 40  1  0  0  0  0
 16 41  1  0  0  0  0
 16 42  1  0  0  0  0
 16 43  1  0  0  0  0
 18 22  2  0  0  0  0
 18 23  1  0  0  0  0
 19 20  1  0  0  0  0
 20 21  1  0  0  0  0
 20 44  1  0  0  0  0
 20 45  1  0  0  0  0
 21 24  1  0  0  0  0
 21 46  1  0  0  0  0
 22 26  1  0  0  0  0
 22 47  1  0  0  0  0
 23 27  2  0  0  0  0
 23 48  1  0  0  0  0
 24 28  1  0  0  0  0
 24 49  1  0  0  0  0
 25 50  1  0  0  0  0
 25 51  1  0  0  0  0
 25 52  1  0  0  0  0
 26 29  2  0  0  0  0
 27 29  1  0  0  0  0
 27 53  1  0  0  0  0
 28 54  1  0  0  0  0
 28 55  1  0  0  0  0
 28 56  1  0  0  0  0
 29 57  1  0  0  0  0
M  CHG  1   3  -1
M  END
> <PUBCHEM_COMPOUND_CID>
138319048

> <PUBCHEM_CONFORMER_RMSD>
1.2

> <PUBCHEM_CONFORMER_DIVERSEORDER>
1
48
28
120
65
93
97
58
23
106
32
124
19
56
119
42
7
91
125
99
87
45
5
104
49
39
102
94
109
24
81
78
115
75
112
44
66
105
101
86
96
53
118
77
10
67
74
33
107
22
16
114
52
103
126
9
71
76
116
12
70
20
50
26
92
35
108
11
60
34
111
43
57
8
63
62
122
73
61
80
2
18
38
89
83
6
68
41
54
69
3
117
88
64
90
30
59
47
121
40
95
36
25
82
37
110
72
55
51
14
4
31
21
84
100
123
29
27
79
15
113
17
46
13
85
98

> <PUBCHEM_MMFF94_PARTIAL_CHARGES>
30
1 -0.43
10 0.28
12 -0.11
15 0.42
17 0.91
18 -0.14
19 0.66
2 -0.56
20 0.06
21 0.28
22 -0.15
23 -0.15
24 0.28
25 0.28
26 0.08
27 -0.15
29 -0.15
3 -0.9
4 -0.9
47 0.15
48 0.15
5 -0.57
53 0.15
57 0.15
58 0.4
59 0.4
6 -0.68
60 0.45
7 -0.68
8 -0.53

> <PUBCHEM_EFFECTIVE_ROTOR_COUNT>
13

> <PUBCHEM_PHARMACOPHORE_FEATURES>
13
1 14 hydrophobe
1 16 hydrophobe
1 2 acceptor
1 3 acceptor
1 4 acceptor
1 5 acceptor
1 6 acceptor
1 6 donor
1 7 acceptor
1 7 donor
1 8 donor
3 3 4 17 anion
6 18 22 23 26 27 29 rings

> <PUBCHEM_HEAVY_ATOM_COUNT>
29

> <PUBCHEM_ATOM_DEF_STEREO_COUNT>
6

> <PUBCHEM_ATOM_UDEF_STEREO_COUNT>
0

> <PUBCHEM_BOND_DEF_STEREO_COUNT>
0

> <PUBCHEM_BOND_UDEF_STEREO_COUNT>
0

> <PUBCHEM_ISOTOPIC_ATOM_COUNT>
0

> <PUBCHEM_COMPONENT_COUNT>
1

> <PUBCHEM_CACTVS_TAUTO_COUNT>
-1

> <PUBCHEM_CONFORMER_ID>
083E94C800000001

> <PUBCHEM_MMFF94_ENERGY>
67.9199

> <PUBCHEM_FEATURE_SELFOVERLAP>
66.034

> <PUBCHEM_SHAPE_FINGERPRINT>
11578080 2 17629744928362155008
11719270 70 18343582928374259999
12422481 6 18410577275249699327
12633257 1 18411415125307399094
12788726 201 17988657297799945504
13533116 47 18273215305030079520
1361 2 18201440229451269270
13914758 101 18336828598696754185
14170010 4 18341333318872368371
14347424 109 18335135401965654696
14725015 67 18261949636198871266
15183329 4 18412267241980833973
1577012 14 18341894147286090573
16728300 4 17463107073747615682
21781051 124 17531545238562005723
23081809 10 18060145344867192113
23559900 14 18342466954553238710
23569917 315 18343306963830839911
3004659 81 18335706044458398628
335352 9 18408889529691857166
3633792 109 18342464733475359008
404807 14 16480249166637903718
4073 2 17823985734688068256
4340502 62 17489869323694011231
59755656 215 18261109630521158671

> <PUBCHEM_SHAPE_MULTIPOLES>
549.85
19.53
3.14
1.33
27.76
0.2
-0.19
4.13
-1
-4.7
0.77
-0.74
-0.54
-0.37

> <PUBCHEM_SHAPE_SELFOVERLAP>
1106.427

> <PUBCHEM_SHAPE_VOLUME>
321.5

> <PUBCHEM_COORDINATE_TYPE>
2
5
10

$$$$
