138319335
  -OEChem-03292013293D

 73 75  0     1  0  0  0  0  0999 V2000
    1.7678    0.2654    0.4480 O   0  0  0  0  0  0  0  0  0  0  0  0
    3.1224   -3.0732   -0.1645 O   0  0  0  0  0  0  0  0  0  0  0  0
    3.1276   -1.9511   -2.8016 O   0  0  0  0  0  0  0  0  0  0  0  0
    2.2605   -2.9984    2.0766 O   0  0  0  0  0  0  0  0  0  0  0  0
   -2.3068    0.6741    0.3358 O   0  0  0  0  0  0  0  0  0  0  0  0
    1.4404    2.8140    1.7792 O   0  0  0  0  0  0  0  0  0  0  0  0
   -1.5899   -1.3740   -0.6427 O   0  0  0  0  0  0  0  0  0  0  0  0
   -3.0063   -0.7299    2.6077 O   0  0  0  0  0  0  0  0  0  0  0  0
    2.3199    5.4928    1.5708 O   0  0  0  0  0  0  0  0  0  0  0  0
   -0.4110    0.1529    2.5871 O   0  0  0  0  0  0  0  0  0  0  0  0
    0.2385   -1.8651    1.6389 N   0  0  0  0  0  0  0  0  0  0  0  0
    2.5963    0.2860   -1.8830 C   0  0  0  0  0  0  0  0  0  0  0  0
    3.1892   -1.1370   -1.6311 C   0  0  1  0  0  0  0  0  0  0  0  0
    2.5205    1.0292   -0.5103 C   0  0  1  0  0  0  0  0  0  0  0  0
    2.4403   -1.8652   -0.5134 C   0  0  2  0  0  0  0  0  0  0  0  0
    2.3792   -0.9855    0.7304 C   0  0  2  0  0  0  0  0  0  0  0  0
    1.6551   -1.7193    1.8601 C   0  0  2  0  0  0  0  0  0  0  0  0
    1.8751    2.4132   -0.5524 C   0  0  0  0  0  0  0  0  0  0  0  0
    1.1999    0.1836   -2.5388 C   0  0  0  0  0  0  0  0  0  0  0  0
    3.5174    1.0515   -2.8559 C   0  0  0  0  0  0  0  0  0  0  0  0
    2.2309    3.2520    0.6744 C   0  0  1  0  0  0  0  0  0  0  0  0
    2.4176   -3.7583    0.8738 C   0  0  0  0  0  0  0  0  0  0  0  0
   -2.4892   -0.7489    0.2765 C   0  0  1  0  0  0  0  0  0  0  0  0
   -2.1137   -1.2870    1.6573 C   0  0  1  0  0  0  0  0  0  0  0  0
   -0.6867   -0.9051    2.0257 C   0  0  0  0  0  0  0  0  0  0  0  0
    1.9481    4.7313    0.4266 C   0  0  0  0  0  0  0  0  0  0  0  0
   -3.9498   -1.1151   -0.0437 C   0  0  0  0  0  0  0  0  0  0  0  0
   -4.1681    1.1512   -1.1893 C   0  0  1  0  0  0  0  0  0  0  0  0
   -2.6682    1.3429   -0.8807 C   0  0  1  0  0  0  0  0  0  0  0  0
   -4.4462   -0.3373   -1.2379 C   0  0  0  0  0  0  0  0  0  0  0  0
   -5.0970    1.8304   -0.1760 C   0  0  0  0  0  0  0  0  0  0  0  0
   -2.2691    2.8073   -0.7322 C   0  0  0  0  0  0  0  0  0  0  0  0
   -5.0493   -0.9266   -2.2807 C   0  0  0  0  0  0  0  0  0  0  0  0
   -1.9957   -2.7007   -0.9344 C   0  0  0  0  0  0  0  0  0  0  0  0
    4.2498   -1.0628   -1.3564 H   0  0  0  0  0  0  0  0  0  0  0  0
    3.5450    1.1382   -0.1268 H   0  0  0  0  0  0  0  0  0  0  0  0
    1.4386   -2.1314   -0.8747 H   0  0  0  0  0  0  0  0  0  0  0  0
    3.4058   -0.8101    1.0856 H   0  0  0  0  0  0  0  0  0  0  0  0
    1.7774   -1.1451    2.7858 H   0  0  0  0  0  0  0  0  0  0  0  0
    2.2142    2.9551   -1.4391 H   0  0  0  0  0  0  0  0  0  0  0  0
    0.7910    2.3016   -0.6166 H   0  0  0  0  0  0  0  0  0  0  0  0
    3.1210    2.0374   -3.1158 H   0  0  0  0  0  0  0  0  0  0  0  0
    3.6409    0.5118   -3.8010 H   0  0  0  0  0  0  0  0  0  0  0  0
    0.8038    1.1738   -2.7897 H   0  0  0  0  0  0  0  0  0  0  0  0
    0.4751   -0.2969   -1.8775 H   0  0  0  0  0  0  0  0  0  0  0  0
    4.5137    1.1941   -2.4231 H   0  0  0  0  0  0  0  0  0  0  0  0
    1.2336   -0.3890   -3.4719 H   0  0  0  0  0  0  0  0  0  0  0  0
    3.2834    3.1356    0.9572 H   0  0  0  0  0  0  0  0  0  0  0  0
    3.7610   -1.5947   -3.4462 H   0  0  0  0  0  0  0  0  0  0  0  0
    1.4441   -4.1021    0.5053 H   0  0  0  0  0  0  0  0  0  0  0  0
    2.9978   -4.6502    1.1281 H   0  0  0  0  0  0  0  0  0  0  0  0
   -0.0877   -2.7009    1.1652 H   0  0  0  0  0  0  0  0  0  0  0  0
   -2.2168   -2.3730    1.7363 H   0  0  0  0  0  0  0  0  0  0  0  0
    2.5162    5.1030   -0.4319 H   0  0  0  0  0  0  0  0  0  0  0  0
    0.8795    4.8976    0.2531 H   0  0  0  0  0  0  0  0  0  0  0  0
   -4.5930   -0.7946    0.7873 H   0  0  0  0  0  0  0  0  0  0  0  0
   -4.1589   -2.1844   -0.1390 H   0  0  0  0  0  0  0  0  0  0  0  0
   -4.3733    1.5978   -2.1715 H   0  0  0  0  0  0  0  0  0  0  0  0
   -2.0682    0.9223   -1.6990 H   0  0  0  0  0  0  0  0  0  0  0  0
    1.6579    1.8810    1.9456 H   0  0  0  0  0  0  0  0  0  0  0  0
   -4.8501    1.5637    0.8570 H   0  0  0  0  0  0  0  0  0  0  0  0
   -6.1424    1.5544   -0.3551 H   0  0  0  0  0  0  0  0  0  0  0  0
   -5.0338    2.9202   -0.2617 H   0  0  0  0  0  0  0  0  0  0  0  0
   -2.5422    3.3852   -1.6200 H   0  0  0  0  0  0  0  0  0  0  0  0
   -1.1942    2.9013   -0.5769 H   0  0  0  0  0  0  0  0  0  0  0  0
   -2.7361    3.2631    0.1472 H   0  0  0  0  0  0  0  0  0  0  0  0
   -2.8153   -1.1425    3.4674 H   0  0  0  0  0  0  0  0  0  0  0  0
    2.1214    6.4234    1.3703 H   0  0  0  0  0  0  0  0  0  0  0  0
   -5.3840   -0.3506   -3.1368 H   0  0  0  0  0  0  0  0  0  0  0  0
   -5.2249   -1.9968   -2.2998 H   0  0  0  0  0  0  0  0  0  0  0  0
   -2.7654   -2.7212   -1.7105 H   0  0  0  0  0  0  0  0  0  0  0  0
   -2.2787   -3.3044   -0.0694 H   0  0  0  0  0  0  0  0  0  0  0  0
   -1.1259   -3.1993   -1.3769 H   0  0  0  0  0  0  0  0  0  0  0  0
  1 14  1  0  0  0  0
  1 16  1  0  0  0  0
  2 15  1  0  0  0  0
  2 22  1  0  0  0  0
  3 13  1  0  0  0  0
  3 49  1  0  0  0  0
  4 17  1  0  0  0  0
  4 22  1  0  0  0  0
  5 23  1  0  0  0  0
  5 29  1  0  0  0  0
  6 21  1  0  0  0  0
  6 60  1  0  0  0  0
  7 23  1  0  0  0  0
  7 34  1  0  0  0  0
  8 24  1  0  0  0  0
  8 67  1  0  0  0  0
  9 26  1  0  0  0  0
  9 68  1  0  0  0  0
 10 25  2  0  0  0  0
 11 17  1  0  0  0  0
 11 25  1  0  0  0  0
 11 52  1  0  0  0  0
 12 13  1  0  0  0  0
 12 14  1  0  0  0  0
 12 19  1  0  0  0  0
 12 20  1  0  0  0  0
 13 15  1  0  0  0  0
 13 35  1  0  0  0  0
 14 18  1  0  0  0  0
 14 36  1  0  0  0  0
 15 16  1  0  0  0  0
 15 37  1  0  0  0  0
 16 17  1  0  0  0  0
 16 38  1  0  0  0  0
 17 39  1  0  0  0  0
 18 21  1  0  0  0  0
 18 40  1  0  0  0  0
 18 41  1  0  0  0  0
 19 44  1  0  0  0  0
 19 45  1  0  0  0  0
 19 47  1  0  0  0  0
 20 42  1  0  0  0  0
 20 43  1  0  0  0  0
 20 46  1  0  0  0  0
 21 26  1  0  0  0  0
 21 48  1  0  0  0  0
 22 50  1  0  0  0  0
 22 51  1  0  0  0  0
 23 24  1  0  0  0  0
 23 27  1  0  0  0  0
 24 25  1  0  0  0  0
 24 53  1  0  0  0  0
 26 54  1  0  0  0  0
 26 55  1  0  0  0  0
 27 30  1  0  0  0  0
 27 56  1  0  0  0  0
 27 57  1  0  0  0  0
 28 29  1  0  0  0  0
 28 30  1  0  0  0  0
 28 31  1  0  0  0  0
 28 58  1  0  0  0  0
 29 32  1  0  0  0  0
 29 59  1  0  0  0  0
 30 33  2  0  0  0  0
 31 61  1  0  0  0  0
 31 62  1  0  0  0  0
 31 63  1  0  0  0  0
 32 64  1  0  0  0  0
 32 65  1  0  0  0  0
 32 66  1  0  0  0  0
 33 69  1  0  0  0  0
 33 70  1  0  0  0  0
 34 71  1  0  0  0  0
 34 72  1  0  0  0  0
 34 73  1  0  0  0  0
M  END
> <PUBCHEM_COMPOUND_CID>
138319335

> <PUBCHEM_CONFORMER_RMSD>
1

> <PUBCHEM_CONFORMER_DIVERSEORDER>
3
50
115
80
71
19
20
57
48
79
66
96
116
30
40
108
113
45
22
54
33
27
49
111
41
60
106
93
61
64
31
75
11
91
114
21
99
104
92
81
53
47
4
88
55
65
63
89
2
44
24
8
94
103
62
6
87
16
105
38
112
10
56
102
43
67
107
29
74
97
37
70
98
42
101
32
73
1
110
84
35
15
68
18
86
58
13
72
109
25
14
26
12
36
52
5
82
51
28
100
23
85
77
59
78
95
69
34
76
39
46
90
17
83
9
7

> <PUBCHEM_MMFF94_PARTIAL_CHARGES>
35
1 -0.56
10 -0.57
11 -0.73
13 0.28
14 0.28
15 0.28
16 0.28
17 0.58
2 -0.56
21 0.28
22 0.56
23 0.56
24 0.34
25 0.57
26 0.28
27 0.14
28 0.14
29 0.28
3 -0.68
30 -0.28
33 -0.3
34 0.28
4 -0.56
49 0.4
5 -0.56
52 0.37
6 -0.68
60 0.4
67 0.4
68 0.4
69 0.15
7 -0.56
70 0.15
8 -0.68
9 -0.68

> <PUBCHEM_EFFECTIVE_ROTOR_COUNT>
10.6

> <PUBCHEM_PHARMACOPHORE_FEATURES>
19
1 1 acceptor
1 10 acceptor
1 11 donor
1 2 acceptor
1 3 acceptor
1 3 donor
1 4 acceptor
1 5 acceptor
1 6 acceptor
1 6 donor
1 7 acceptor
1 8 acceptor
1 8 donor
1 9 acceptor
1 9 donor
3 12 19 20 hydrophobe
6 1 12 13 14 15 16 rings
6 2 4 15 16 17 22 rings
6 5 23 27 28 29 30 rings

> <PUBCHEM_HEAVY_ATOM_COUNT>
34

> <PUBCHEM_ATOM_DEF_STEREO_COUNT>
10

> <PUBCHEM_ATOM_UDEF_STEREO_COUNT>
0

> <PUBCHEM_BOND_DEF_STEREO_COUNT>
0

> <PUBCHEM_BOND_UDEF_STEREO_COUNT>
0

> <PUBCHEM_ISOTOPIC_ATOM_COUNT>
0

> <PUBCHEM_COMPONENT_COUNT>
1

> <PUBCHEM_CACTVS_TAUTO_COUNT>
-1

> <PUBCHEM_CONFORMER_ID>
083E95E700000003

> <PUBCHEM_MMFF94_ENERGY>
101.5194

> <PUBCHEM_FEATURE_SELFOVERLAP>
96.552

> <PUBCHEM_SHAPE_FINGERPRINT>
10165383 225 17392806752202534370
10764073 3 17390745026631023992
12156800 1 16189978565082009784
12788726 201 17835533613304464908
14674994 50 15683106410375530134
15297060 5 16542682645329993865
15664445 248 17763450017866881767
17980427 23 17904719519067022442
20600515 1 17628899162938152097
20764821 26 18043815500828756213
20775438 99 18047442768905348199
21860390 5 18341314648554632672
23536364 44 17829369867341661526
238 59 18262246628354663806
35225 105 16959260645968753940
469060 322 16543839954068265382
70634741 139 9434128101528604152
7399639 24 17903084665656974787

> <PUBCHEM_SHAPE_MULTIPOLES>
636.03
8.3
5.08
2.81
9.31
5.07
0.34
0.43
4.28
-5.54
-2.63
-1.18
-0.52
0.7

> <PUBCHEM_SHAPE_SELFOVERLAP>
1313.355

> <PUBCHEM_SHAPE_VOLUME>
357.8

> <PUBCHEM_COORDINATE_TYPE>
2
5
10

$$$$
