138394154
  -OEChem-03292013293D

 54 59  0     1  0  0  0  0  0999 V2000
    0.7904    0.4931    1.4765 O   0  0  0  0  0  0  0  0  0  0  0  0
   -0.5899    2.7563   -0.6092 O   0  0  0  0  0  0  0  0  0  0  0  0
    0.5882   -1.8638    1.2243 O   0  0  0  0  0  0  0  0  0  0  0  0
    2.7382   -1.1162   -0.4935 O   0  0  0  0  0  0  0  0  0  0  0  0
    0.6833   -1.3947   -2.3719 O   0  0  0  0  0  0  0  0  0  0  0  0
   -3.2228    2.2480   -0.9607 O   0  0  0  0  0  0  0  0  0  0  0  0
   -1.6576   -2.0963   -1.5313 O   0  0  0  0  0  0  0  0  0  0  0  0
    0.7101    3.3605    1.1694 O   0  0  0  0  0  0  0  0  0  0  0  0
    0.4122   -3.6690   -0.1860 O   0  0  0  0  0  0  0  0  0  0  0  0
    4.0426   -1.3789    1.3749 O   0  0  0  0  0  0  0  0  0  0  0  0
   -0.0289    0.4256   -0.7855 C   0  0  2  0  0  0  0  0  0  0  0  0
   -0.9424   -0.4453    0.1325 C   0  0  2  0  0  0  0  0  0  0  0  0
    0.8918    1.1384    0.2151 C   0  0  2  0  0  0  0  0  0  0  0  0
   -0.9244    1.5568   -1.3287 C   0  0  1  0  0  0  0  0  0  0  0  0
   -2.1980    0.4500    0.3609 C   0  0  1  0  0  0  0  0  0  0  0  0
    0.9412   -0.1057   -1.8697 C   0  0  1  0  0  0  0  0  0  0  0  0
    2.3208    1.1748   -0.3704 C   0  0  2  0  0  0  0  0  0  0  0  0
   -0.1066   -0.6154    1.3875 C   0  0  2  0  0  0  0  0  0  0  0  0
   -2.3519    1.1339   -0.9963 C   0  0  1  0  0  0  0  0  0  0  0  0
    2.3550   -0.0090   -1.3075 C   0  0  1  0  0  0  0  0  0  0  0  0
   -1.2559   -1.8951   -0.2083 C   0  0  2  0  0  0  0  0  0  0  0  0
    0.3523    2.5332    0.3448 C   0  0  0  0  0  0  0  0  0  0  0  0
   -3.4797   -0.2389    0.8186 C   0  0  0  0  0  0  0  0  0  0  0  0
    3.4387    0.8501    0.6101 C   0  0  1  0  0  0  0  0  0  0  0  0
   -0.0037   -2.6019    0.2347 C   0  0  0  0  0  0  0  0  0  0  0  0
    3.4619   -0.6594    0.5765 C   0  0  0  0  0  0  0  0  0  0  0  0
   -3.2588   -0.8916    2.1944 C   0  0  0  0  0  0  0  0  0  0  0  0
   -3.8797   -1.3248   -0.1958 C   0  0  0  0  0  0  0  0  0  0  0  0
   -4.6168    0.7924    0.9270 C   0  0  0  0  0  0  0  0  0  0  0  0
    4.7905    1.3930    0.1674 C   0  0  0  0  0  0  0  0  0  0  0  0
   -0.8193    1.7718   -2.3963 H   0  0  0  0  0  0  0  0  0  0  0  0
   -1.9657    1.2192    1.1131 H   0  0  0  0  0  0  0  0  0  0  0  0
    0.9029    0.5702   -2.7332 H   0  0  0  0  0  0  0  0  0  0  0  0
    2.4886    2.1105   -0.9178 H   0  0  0  0  0  0  0  0  0  0  0  0
   -0.6564   -0.6672    2.3277 H   0  0  0  0  0  0  0  0  0  0  0  0
   -2.6923    0.4641   -1.7880 H   0  0  0  0  0  0  0  0  0  0  0  0
    3.0948    0.0844   -2.1108 H   0  0  0  0  0  0  0  0  0  0  0  0
   -1.9371   -2.3941    0.4694 H   0  0  0  0  0  0  0  0  0  0  0  0
    3.2041    1.2038    1.6186 H   0  0  0  0  0  0  0  0  0  0  0  0
    1.3903   -1.6170   -3.0013 H   0  0  0  0  0  0  0  0  0  0  0  0
   -3.1712    2.6883   -1.8261 H   0  0  0  0  0  0  0  0  0  0  0  0
   -3.6660   -1.1324   -1.2440 H   0  0  0  0  0  0  0  0  0  0  0  0
   -3.7022   -2.3633    0.0900 H   0  0  0  0  0  0  0  0  0  0  0  0
   -2.9281   -0.1469    2.9280 H   0  0  0  0  0  0  0  0  0  0  0  0
   -2.5522   -1.7199    2.2182 H   0  0  0  0  0  0  0  0  0  0  0  0
   -4.2979    1.6942    1.4614 H   0  0  0  0  0  0  0  0  0  0  0  0
   -5.0264    1.0770   -0.0469 H   0  0  0  0  0  0  0  0  0  0  0  0
   -5.4616    0.3752    1.4895 H   0  0  0  0  0  0  0  0  0  0  0  0
   -4.9831   -1.3425   -0.2092 H   0  0  0  0  0  0  0  0  0  0  0  0
   -4.2044   -1.3026    2.5705 H   0  0  0  0  0  0  0  0  0  0  0  0
    5.0844    1.0090   -0.8156 H   0  0  0  0  0  0  0  0  0  0  0  0
    5.5728    1.1010    0.8765 H   0  0  0  0  0  0  0  0  0  0  0  0
    4.7706    2.4863    0.1157 H   0  0  0  0  0  0  0  0  0  0  0  0
   -1.8147   -3.0480   -1.6526 H   0  0  0  0  0  0  0  0  0  0  0  0
  1 13  1  0  0  0  0
  1 18  1  0  0  0  0
  2 14  1  0  0  0  0
  2 22  1  0  0  0  0
  3 18  1  0  0  0  0
  3 25  1  0  0  0  0
  4 20  1  0  0  0  0
  4 26  1  0  0  0  0
  5 16  1  0  0  0  0
  5 40  1  0  0  0  0
  6 19  1  0  0  0  0
  6 41  1  0  0  0  0
  7 21  1  0  0  0  0
  7 54  1  0  0  0  0
  8 22  2  0  0  0  0
  9 25  2  0  0  0  0
 10 26  2  0  0  0  0
 11 12  1  0  0  0  0
 11 13  1  0  0  0  0
 11 14  1  0  0  0  0
 11 16  1  0  0  0  0
 12 15  1  0  0  0  0
 12 18  1  0  0  0  0
 12 21  1  0  0  0  0
 13 17  1  0  0  0  0
 13 22  1  0  0  0  0
 14 19  1  0  0  0  0
 14 31  1  0  0  0  0
 15 19  1  0  0  0  0
 15 23  1  0  0  0  0
 15 32  1  0  0  0  0
 16 20  1  0  0  0  0
 16 33  1  0  0  0  0
 17 20  1  0  0  0  0
 17 24  1  0  0  0  0
 17 34  1  0  0  0  0
 18 35  1  0  0  0  0
 19 36  1  0  0  0  0
 20 37  1  0  0  0  0
 21 25  1  0  0  0  0
 21 38  1  0  0  0  0
 23 27  1  0  0  0  0
 23 28  1  0  0  0  0
 23 29  1  0  0  0  0
 24 26  1  0  0  0  0
 24 30  1  0  0  0  0
 24 39  1  0  0  0  0
 27 44  1  0  0  0  0
 27 45  1  0  0  0  0
 27 50  1  0  0  0  0
 28 42  1  0  0  0  0
 28 43  1  0  0  0  0
 28 49  1  0  0  0  0
 29 46  1  0  0  0  0
 29 47  1  0  0  0  0
 29 48  1  0  0  0  0
 30 51  1  0  0  0  0
 30 52  1  0  0  0  0
 30 53  1  0  0  0  0
M  END
> <PUBCHEM_COMPOUND_CID>
138394154

> <PUBCHEM_CONFORMER_RMSD>
0.8

> <PUBCHEM_CONFORMER_DIVERSEORDER>
1
2
3

> <PUBCHEM_MMFF94_PARTIAL_CHARGES>
24
1 -0.56
10 -0.57
13 0.34
14 0.28
16 0.28
18 0.56
19 0.28
2 -0.43
20 0.28
21 0.34
22 0.66
24 0.06
25 0.66
26 0.66
3 -0.43
4 -0.43
40 0.4
41 0.4
5 -0.68
54 0.4
6 -0.68
7 -0.68
8 -0.57
9 -0.57

> <PUBCHEM_EFFECTIVE_ROTOR_COUNT>
2.8

> <PUBCHEM_PHARMACOPHORE_FEATURES>
17
1 1 acceptor
1 10 acceptor
1 5 acceptor
1 5 donor
1 6 acceptor
1 6 donor
1 7 acceptor
1 7 donor
1 8 acceptor
1 9 acceptor
4 23 27 28 29 hydrophobe
5 1 11 12 13 18 rings
5 11 12 14 15 19 rings
5 11 13 16 17 20 rings
5 2 11 13 14 22 rings
5 3 12 18 21 25 rings
5 4 17 20 24 26 rings

> <PUBCHEM_HEAVY_ATOM_COUNT>
30

> <PUBCHEM_ATOM_DEF_STEREO_COUNT>
9

> <PUBCHEM_ATOM_UDEF_STEREO_COUNT>
3

> <PUBCHEM_BOND_DEF_STEREO_COUNT>
0

> <PUBCHEM_BOND_UDEF_STEREO_COUNT>
0

> <PUBCHEM_ISOTOPIC_ATOM_COUNT>
0

> <PUBCHEM_COMPONENT_COUNT>
1

> <PUBCHEM_CACTVS_TAUTO_COUNT>
-1

> <PUBCHEM_CONFORMER_ID>
083FBA2A00000001

> <PUBCHEM_MMFF94_ENERGY>
150.7502

> <PUBCHEM_FEATURE_SELFOVERLAP>
89.673

> <PUBCHEM_SHAPE_FINGERPRINT>
10863032 1 18187358779786048060
10948715 1 18336536110695493428
11680986 33 17830171312043379879
12035758 1 18267591375762371272
12403814 3 18335136526945788465
12422481 6 18045500820272765529
12633257 1 18270405021722778504
12788726 201 18341623573010568072
13132413 78 18335419092728342708
13140716 1 18335703776040238560
13224815 77 18187085048598396867
14223421 5 18120092779848754052
14787075 74 18261393411816296536
14790565 3 18410584984600555049
16945 1 18121498217770732580
1813 80 15646774474811979758
19591789 44 18408879646534252467
20028762 73 17984711266716928199
20691752 17 18336277802983685903
20905425 154 18118408337020665775
23184049 59 18410865377413428793
23419403 2 17484567482735804455
23559900 14 18339360761158548974
2748010 2 18335703814636967285
296302 2 17203338835394569832
34934 24 18340769359786352960
350125 39 18196377142008957723
4340502 62 17703240542260368899
5265222 85 18335714871006465646

> <PUBCHEM_SHAPE_MULTIPOLES>
558.69
6.5
3.03
1.68
0.52
0.18
0.21
-0.63
-2.07
-0.1
0.06
-0.23
0.28
0.25

> <PUBCHEM_SHAPE_SELFOVERLAP>
1280.497

> <PUBCHEM_SHAPE_VOLUME>
291

> <PUBCHEM_COORDINATE_TYPE>
2
5
10

$$$$
