138454441
  -OEChem-03292013293D

 40 39  0     1  0  0  0  0  0999 V2000
   -0.5970   -3.8577   -0.4703 Cl  0  0  0  0  0  0  0  0  0  0  0  0
    6.0264    0.0567    0.7643 Cl  0  0  0  0  0  0  0  0  0  0  0  0
   -2.6034    1.0458    0.0173 O   0  0  0  0  0  0  0  0  0  0  0  0
    1.2282    1.0596   -1.6226 O   0  0  0  0  0  0  0  0  0  0  0  0
    2.2523   -1.0338   -0.1204 N   0  0  0  0  0  0  0  0  0  0  0  0
    1.4655   -0.0208    0.4185 N   0  0  0  0  0  0  0  0  0  0  0  0
    1.0662    3.0193    0.8984 N   0  0  0  0  0  0  0  0  0  0  0  0
   -3.5556    0.1499   -0.4879 N   0  0  0  0  0  0  0  0  0  0  0  0
   -3.9741   -0.2546    1.8392 N   0  0  0  0  0  0  0  0  0  0  0  0
    0.1658    2.0117    0.3421 C   0  0  1  0  0  0  0  0  0  0  0  0
   -0.9102    2.6429   -0.5517 C   0  0  0  0  0  0  0  0  0  0  0  0
    1.0001    0.9844   -0.4166 C   0  0  0  0  0  0  0  0  0  0  0  0
    1.5814   -2.3226    0.0358 C   0  0  0  0  0  0  0  0  0  0  0  0
    3.5597   -1.0476    0.5324 C   0  0  0  0  0  0  0  0  0  0  0  0
   -1.9517    1.6629   -1.0864 C   0  0  0  0  0  0  0  0  0  0  0  0
    4.4249    0.0784   -0.0120 C   0  0  0  0  0  0  0  0  0  0  0  0
    0.2355   -2.2976   -0.6721 C   0  0  0  0  0  0  0  0  0  0  0  0
   -4.1760   -0.4373    0.4921 C   0  0  0  0  0  0  0  0  0  0  0  0
   -5.2382   -1.4396    0.0998 C   0  0  0  0  0  0  0  0  0  0  0  0
   -0.3323    1.5105    1.1814 H   0  0  0  0  0  0  0  0  0  0  0  0
   -0.4436    3.1559   -1.4023 H   0  0  0  0  0  0  0  0  0  0  0  0
   -1.4358    3.4099    0.0332 H   0  0  0  0  0  0  0  0  0  0  0  0
    4.0734   -1.9938    0.3147 H   0  0  0  0  0  0  0  0  0  0  0  0
    3.4666   -0.9842    1.6252 H   0  0  0  0  0  0  0  0  0  0  0  0
    1.4453   -2.5675    1.0981 H   0  0  0  0  0  0  0  0  0  0  0  0
    2.1974   -3.1156   -0.4071 H   0  0  0  0  0  0  0  0  0  0  0  0
    1.2588   -0.0445    1.4128 H   0  0  0  0  0  0  0  0  0  0  0  0
   -2.6908    2.2067   -1.6863 H   0  0  0  0  0  0  0  0  0  0  0  0
   -1.4864    0.8971   -1.7166 H   0  0  0  0  0  0  0  0  0  0  0  0
    1.6954    2.5819    1.5708 H   0  0  0  0  0  0  0  0  0  0  0  0
    0.5276    3.7095    1.4203 H   0  0  0  0  0  0  0  0  0  0  0  0
   -0.4443   -1.5431   -0.2667 H   0  0  0  0  0  0  0  0  0  0  0  0
    0.3511   -2.1212   -1.7464 H   0  0  0  0  0  0  0  0  0  0  0  0
    4.5798   -0.0222   -1.0910 H   0  0  0  0  0  0  0  0  0  0  0  0
    3.9898    1.0626    0.1859 H   0  0  0  0  0  0  0  0  0  0  0  0
   -4.9430   -2.4328    0.4505 H   0  0  0  0  0  0  0  0  0  0  0  0
   -6.1884   -1.1646    0.5665 H   0  0  0  0  0  0  0  0  0  0  0  0
   -5.3687   -1.4683   -0.9856 H   0  0  0  0  0  0  0  0  0  0  0  0
   -4.5093   -0.7640    2.5344 H   0  0  0  0  0  0  0  0  0  0  0  0
   -3.2766    0.3992    2.1783 H   0  0  0  0  0  0  0  0  0  0  0  0
  1 17  1  0  0  0  0
  2 16  1  0  0  0  0
  3  8  1  0  0  0  0
  3 15  1  0  0  0  0
  4 12  2  0  0  0  0
  5  6  1  0  0  0  0
  5 13  1  0  0  0  0
  5 14  1  0  0  0  0
  6 12  1  0  0  0  0
  6 27  1  0  0  0  0
  7 10  1  0  0  0  0
  7 30  1  0  0  0  0
  7 31  1  0  0  0  0
  8 18  2  0  0  0  0
  9 18  1  0  0  0  0
  9 39  1  0  0  0  0
  9 40  1  0  0  0  0
 10 11  1  0  0  0  0
 10 12  1  0  0  0  0
 10 20  1  0  0  0  0
 11 15  1  0  0  0  0
 11 21  1  0  0  0  0
 11 22  1  0  0  0  0
 13 17  1  0  0  0  0
 13 25  1  0  0  0  0
 13 26  1  0  0  0  0
 14 16  1  0  0  0  0
 14 23  1  0  0  0  0
 14 24  1  0  0  0  0
 15 28  1  0  0  0  0
 15 29  1  0  0  0  0
 16 34  1  0  0  0  0
 16 35  1  0  0  0  0
 17 32  1  0  0  0  0
 17 33  1  0  0  0  0
 18 19  1  0  0  0  0
 19 36  1  0  0  0  0
 19 37  1  0  0  0  0
 19 38  1  0  0  0  0
M  END
> <PUBCHEM_COMPOUND_CID>
138454441

> <PUBCHEM_CONFORMER_RMSD>
1

> <PUBCHEM_CONFORMER_DIVERSEORDER>
1
5
126
129
65
105
121
133
135
23
64
8
16
71
134
116
118
112
58
28
88
40
55
119
24
90
106
81
117
6
15
22
109
33
9
76
32
45
87
38
60
43
12
56
101
82
104
47
11
85
110
131
10
54
50
125
62
3
66
25
108
97
35
19
63
31
21
68
14
127
98
79
30
122
103
84
46
132
83
115
61
57
4
52
114
36
48
89
102
44
2
73
39
130
20
96
100
34
123
74
53
67
80
86
18
113
26
99
72
49
41
111
29
7
120
91
69
42
51
136
77
128
93
107
92
13
94
78
70
17
95
59
75
124
27
37

> <PUBCHEM_MMFF94_PARTIAL_CHARGES>
23
1 -0.29
10 0.33
12 0.57
13 0.27
14 0.27
15 0.28
16 0.29
17 0.29
18 0.44
19 0.06
2 -0.29
27 0.37
3 -0.22
30 0.36
31 0.36
39 0.4
4 -0.57
40 0.4
5 -0.55
6 -0.42
7 -0.99
8 -0.51
9 -0.85

> <PUBCHEM_EFFECTIVE_ROTOR_COUNT>
11

> <PUBCHEM_PHARMACOPHORE_FEATURES>
6
1 4 acceptor
1 6 donor
1 7 cation
1 7 donor
1 9 donor
3 8 9 18 cation

> <PUBCHEM_HEAVY_ATOM_COUNT>
19

> <PUBCHEM_ATOM_DEF_STEREO_COUNT>
1

> <PUBCHEM_ATOM_UDEF_STEREO_COUNT>
0

> <PUBCHEM_BOND_DEF_STEREO_COUNT>
1

> <PUBCHEM_BOND_UDEF_STEREO_COUNT>
0

> <PUBCHEM_ISOTOPIC_ATOM_COUNT>
0

> <PUBCHEM_COMPONENT_COUNT>
1

> <PUBCHEM_CACTVS_TAUTO_COUNT>
-1

> <PUBCHEM_CONFORMER_ID>
0840A5A900000001

> <PUBCHEM_MMFF94_ENERGY>
20.3575

> <PUBCHEM_FEATURE_SELFOVERLAP>
30.448

> <PUBCHEM_SHAPE_FINGERPRINT>
1100329 8 18267864059399728456
12035758 1 18271232928746604776
13140716 1 18194680599408793658
13911882 115 18343027653337596566
14178342 30 18049448045578963708
14251705 54 18265619788553177183
14787075 74 18335421283599468176
19591789 44 18340201891411395558
20028762 73 17987513874389728919
20261772 1 18412260653311227806
20645477 70 18189046655327032885
21202864 24 18341608252666907638
221490 88 18052258389137068022
23402539 116 17022902311503537900
23559900 14 17762605197672787610
474229 33 18410006616251844598
5486654 2 18412545397169267180
6438718 38 17845365712341410806
9709674 26 17763457318677931583

> <PUBCHEM_SHAPE_MULTIPOLES>
358.11
9.73
3.71
1.11
1.77
1.5
-0.08
2.25
-3.45
-0.8
0.6
-0.47
-0.24
0.37

> <PUBCHEM_SHAPE_SELFOVERLAP>
658.951

> <PUBCHEM_SHAPE_VOLUME>
228

> <PUBCHEM_COORDINATE_TYPE>
2
5
10

$$$$
