13846336
  -OEChem-03292013303D

 38 40  0     1  0  0  0  0  0999 V2000
   -3.3066    0.4625   -0.8745 O   0  0  0  0  0  0  0  0  0  0  0  0
   -5.1223   -1.7904    0.2017 O   0  0  0  0  0  0  0  0  0  0  0  0
   -4.6982    2.8752   -0.6343 O   0  0  0  0  0  0  0  0  0  0  0  0
    5.4778    2.0951    0.2890 O   0  0  0  0  0  0  0  0  0  0  0  0
   -1.1224   -0.0835   -0.1270 N   0  0  0  0  0  0  0  0  0  0  0  0
    0.6117    1.3084    0.0742 N   0  0  0  0  0  0  0  0  0  0  0  0
    0.0646   -2.1938   -0.3307 N   0  0  0  0  0  0  0  0  0  0  0  0
    3.4768    0.2909    0.0401 N   0  0  0  0  0  0  0  0  0  0  0  0
    2.4812   -1.8686   -0.2295 N   0  0  0  0  0  0  0  0  0  0  0  0
    7.1069    0.4786    0.1534 N   0  0  0  0  0  0  0  0  0  0  0  0
   -2.5068   -0.5335   -0.2138 C   0  0  1  0  0  0  0  0  0  0  0  0
   -4.6253   -0.5973    0.8039 C   0  0  1  0  0  0  0  0  0  0  0  0
   -3.1641   -0.8008    1.1326 C   0  0  0  0  0  0  0  0  0  0  0  0
   -4.5967    0.5232   -0.2303 C   0  0  1  0  0  0  0  0  0  0  0  0
   -4.7472    1.9031    0.3951 C   0  0  0  0  0  0  0  0  0  0  0  0
    0.0011   -0.8619   -0.1836 C   0  0  0  0  0  0  0  0  0  0  0  0
   -0.7007    1.2128    0.0280 C   0  0  0  0  0  0  0  0  0  0  0  0
    1.0633    0.0191   -0.0568 C   0  0  0  0  0  0  0  0  0  0  0  0
    2.3417   -0.5289   -0.0835 C   0  0  0  0  0  0  0  0  0  0  0  0
    1.3506   -2.6069   -0.3424 C   0  0  0  0  0  0  0  0  0  0  0  0
    4.8155   -0.2196    0.0195 C   0  0  0  0  0  0  0  0  0  0  0  0
    5.7993    0.9163    0.1689 C   0  0  0  0  0  0  0  0  0  0  0  0
   -2.5162   -1.4275   -0.8486 H   0  0  0  0  0  0  0  0  0  0  0  0
   -5.2450   -0.3832    1.6785 H   0  0  0  0  0  0  0  0  0  0  0  0
   -2.8412   -0.0642    1.8779 H   0  0  0  0  0  0  0  0  0  0  0  0
   -2.9257   -1.8013    1.5064 H   0  0  0  0  0  0  0  0  0  0  0  0
   -5.3502    0.3838   -1.0138 H   0  0  0  0  0  0  0  0  0  0  0  0
   -3.9313    2.1163    1.0931 H   0  0  0  0  0  0  0  0  0  0  0  0
   -5.7040    1.9933    0.9186 H   0  0  0  0  0  0  0  0  0  0  0  0
   -1.3889    2.0434    0.1065 H   0  0  0  0  0  0  0  0  0  0  0  0
   -4.6817   -1.9193   -0.6547 H   0  0  0  0  0  0  0  0  0  0  0  0
   -4.7974    3.7454   -0.2119 H   0  0  0  0  0  0  0  0  0  0  0  0
    1.4999   -3.6751   -0.4577 H   0  0  0  0  0  0  0  0  0  0  0  0
    3.3187    1.2869    0.1483 H   0  0  0  0  0  0  0  0  0  0  0  0
    4.9723   -0.9245    0.8441 H   0  0  0  0  0  0  0  0  0  0  0  0
    5.0188   -0.7311   -0.9285 H   0  0  0  0  0  0  0  0  0  0  0  0
    7.8771    1.1328    0.2441 H   0  0  0  0  0  0  0  0  0  0  0  0
    7.3502   -0.5017    0.0526 H   0  0  0  0  0  0  0  0  0  0  0  0
  1 11  1  0  0  0  0
  1 14  1  0  0  0  0
  2 12  1  0  0  0  0
  2 31  1  0  0  0  0
  3 15  1  0  0  0  0
  3 32  1  0  0  0  0
  4 22  2  0  0  0  0
  5 11  1  0  0  0  0
  5 16  1  0  0  0  0
  5 17  1  0  0  0  0
  6 17  2  0  0  0  0
  6 18  1  0  0  0  0
  7 16  2  0  0  0  0
  7 20  1  0  0  0  0
  8 19  1  0  0  0  0
  8 21  1  0  0  0  0
  8 34  1  0  0  0  0
  9 19  1  0  0  0  0
  9 20  2  0  0  0  0
 10 22  1  0  0  0  0
 10 37  1  0  0  0  0
 10 38  1  0  0  0  0
 11 13  1  0  0  0  0
 11 23  1  0  0  0  0
 12 13  1  0  0  0  0
 12 14  1  0  0  0  0
 12 24  1  0  0  0  0
 13 25  1  0  0  0  0
 13 26  1  0  0  0  0
 14 15  1  0  0  0  0
 14 27  1  0  0  0  0
 15 28  1  0  0  0  0
 15 29  1  0  0  0  0
 16 18  1  0  0  0  0
 17 30  1  0  0  0  0
 18 19  2  0  0  0  0
 20 33  1  0  0  0  0
 21 22  1  0  0  0  0
 21 35  1  0  0  0  0
 21 36  1  0  0  0  0
M  END
> <PUBCHEM_COMPOUND_CID>
13846336

> <PUBCHEM_CONFORMER_RMSD>
0.8

> <PUBCHEM_CONFORMER_DIVERSEORDER>
1
40
51
45
29
14
3
28
34
24
33
42
19
47
50
11
4
22
27
15
46
44
7
16
13
21
37
17
49
12
53
48
52
30
9
23
39
8
20
26
43
35
6
38
18
32
2
10
41
25
31
5
36

> <PUBCHEM_MMFF94_PARTIAL_CHARGES>
28
1 -0.56
10 -0.8
11 0.54
12 0.28
14 0.28
15 0.28
16 0.11
17 0.04
18 0.23
19 0.41
2 -0.68
20 0.47
21 0.43
22 0.57
3 -0.68
30 0.15
31 0.4
32 0.4
33 0.15
34 0.4
37 0.37
38 0.37
4 -0.57
5 0.05
6 -0.57
7 -0.57
8 -0.87
9 -0.62

> <PUBCHEM_EFFECTIVE_ROTOR_COUNT>
6

> <PUBCHEM_PHARMACOPHORE_FEATURES>
15
1 1 acceptor
1 10 donor
1 2 acceptor
1 2 donor
1 3 acceptor
1 3 donor
1 4 acceptor
1 8 cation
1 8 donor
3 5 6 17 cation
3 5 7 16 cation
3 7 9 20 cation
5 1 11 12 13 14 rings
5 5 6 16 17 18 rings
6 7 9 16 18 19 20 rings

> <PUBCHEM_HEAVY_ATOM_COUNT>
22

> <PUBCHEM_ATOM_DEF_STEREO_COUNT>
3

> <PUBCHEM_ATOM_UDEF_STEREO_COUNT>
0

> <PUBCHEM_BOND_DEF_STEREO_COUNT>
0

> <PUBCHEM_BOND_UDEF_STEREO_COUNT>
0

> <PUBCHEM_ISOTOPIC_ATOM_COUNT>
0

> <PUBCHEM_COMPONENT_COUNT>
1

> <PUBCHEM_CACTVS_TAUTO_COUNT>
6

> <PUBCHEM_CONFORMER_ID>
00D3474000000001

> <PUBCHEM_MMFF94_ENERGY>
49.0377

> <PUBCHEM_FEATURE_SELFOVERLAP>
76.731

> <PUBCHEM_SHAPE_FINGERPRINT>
10 15 18187372000075486017
10835480 77 18337387128669826885
11315181 36 17530968020515983009
12236239 1 17489874829947748219
13073987 5 18113620041365153803
13288520 33 9295283946192984129
13631057 29 17844801676299476471
13785724 45 17833827171781026274
14790565 3 18411704322203278276
15196674 1 18411139095605706919
15375358 24 18335704897338101339
1601671 61 18409167688600484588
17980427 23 17749116603307354061
19489759 90 17240480325216858929
19784866 170 18409166588877587376
20645477 70 17915458303233450183
21033648 29 18271230707958940360
21150785 3 17560793334540268597
21279426 13 18341336574473403358
21315763 129 18335421300426227732
21452121 103 18410573947072076746
22224240 67 18340207487574570851
23402539 116 16660359294620696095
23559900 14 18050002194939069978
2916195 48 18342454880835783976
293599 30 18342739619961116302
296302 2 18340770347454575627
34934 24 18340764858238607519
350125 39 18197781218120464939
4340502 62 17167863063008084610
474229 33 18411419540006531342
5104073 3 18261117309833072411
59755656 215 18341901754037155862

> <PUBCHEM_SHAPE_MULTIPOLES>
399.39
14.19
2.36
0.75
12.33
0.02
0.07
6.72
1.54
-1
-0.24
-0.54
-0.02
0.89

> <PUBCHEM_SHAPE_SELFOVERLAP>
856.946

> <PUBCHEM_SHAPE_VOLUME>
217.9

> <PUBCHEM_COORDINATE_TYPE>
2
5
10

$$$$
