13854113
  -OEChem-03292013303D

 54 56  0     1  0  0  0  0  0999 V2000
    3.1140   -2.0743   -0.9916 S   0  0  0  0  0  0  0  0  0  0  0  0
    6.6115   -0.0700   -1.0750 S   0  0  0  0  0  0  0  0  0  0  0  0
   -0.0581    1.3931   -1.3492 O   0  0  0  0  0  0  0  0  0  0  0  0
   -1.5908   -1.6840    2.3717 O   0  0  0  0  0  0  0  0  0  0  0  0
   -1.3821   -3.1915    0.6917 O   0  0  0  0  0  0  0  0  0  0  0  0
    1.2343    2.7809    1.5906 O   0  0  0  0  0  0  0  0  0  0  0  0
    2.0047    4.6889    0.6347 O   0  0  0  0  0  0  0  0  0  0  0  0
    2.0138    1.1968   -0.3428 N   0  0  0  0  0  0  0  0  0  0  0  0
   -0.7907   -1.1106   -1.0127 N   0  0  0  0  0  0  0  0  0  0  0  0
    0.6157   -0.8285   -0.6936 C   0  0  1  0  0  0  0  0  0  0  0  0
    3.8720   -0.4352   -0.6490 C   0  0  1  0  0  0  0  0  0  0  0  0
    3.0388    0.3974    0.3370 C   0  0  0  0  0  0  0  0  0  0  0  0
    1.5061   -1.5763   -1.6896 C   0  0  0  0  0  0  0  0  0  0  0  0
   -1.6370   -0.8349    0.1346 C   0  0  1  0  0  0  0  0  0  0  0  0
    0.8073    0.6855   -0.8244 C   0  0  0  0  0  0  0  0  0  0  0  0
   -3.0823   -0.6297   -0.3405 C   0  0  0  0  0  0  0  0  0  0  0  0
    2.3262    2.6088   -0.5334 C   0  0  0  0  0  0  0  0  0  0  0  0
    5.2938   -0.6435   -0.1439 C   0  0  0  0  0  0  0  0  0  0  0  0
   -4.0817   -0.3071    0.7814 C   0  0  0  0  0  0  0  0  0  0  0  0
   -1.5302   -2.0331    1.0614 C   0  0  0  0  0  0  0  0  0  0  0  0
   -5.4871   -0.0299    0.3069 C   0  0  0  0  0  0  0  0  0  0  0  0
    5.7096   -1.2598    1.0159 C   0  0  0  0  0  0  0  0  0  0  0  0
    1.8493    3.4743    0.6045 C   0  0  0  0  0  0  0  0  0  0  0  0
    7.1289   -1.2609    1.1418 C   0  0  0  0  0  0  0  0  0  0  0  0
    7.7435   -0.6457    0.0735 C   0  0  0  0  0  0  0  0  0  0  0  0
   -5.8708    1.2724   -0.0140 C   0  0  0  0  0  0  0  0  0  0  0  0
   -6.4025   -1.0758    0.1884 C   0  0  0  0  0  0  0  0  0  0  0  0
   -7.1697    1.5288   -0.4528 C   0  0  0  0  0  0  0  0  0  0  0  0
   -7.7014   -0.8192   -0.2506 C   0  0  0  0  0  0  0  0  0  0  0  0
   -8.0850    0.4831   -0.5711 C   0  0  0  0  0  0  0  0  0  0  0  0
    0.8268   -1.1565    0.3290 H   0  0  0  0  0  0  0  0  0  0  0  0
    3.9178    0.0857   -1.6141 H   0  0  0  0  0  0  0  0  0  0  0  0
    3.6815    1.0940    0.8914 H   0  0  0  0  0  0  0  0  0  0  0  0
    2.5657   -0.2275    1.1028 H   0  0  0  0  0  0  0  0  0  0  0  0
    1.6789   -0.9970   -2.6038 H   0  0  0  0  0  0  0  0  0  0  0  0
    1.0293   -2.5157   -1.9934 H   0  0  0  0  0  0  0  0  0  0  0  0
   -1.3161    0.0666    0.6711 H   0  0  0  0  0  0  0  0  0  0  0  0
   -1.0759   -0.5689   -1.8279 H   0  0  0  0  0  0  0  0  0  0  0  0
   -3.4317   -1.5279   -0.8690 H   0  0  0  0  0  0  0  0  0  0  0  0
   -3.1077    0.1876   -1.0744 H   0  0  0  0  0  0  0  0  0  0  0  0
    3.4076    2.7283   -0.6543 H   0  0  0  0  0  0  0  0  0  0  0  0
    1.8289    2.9634   -1.4426 H   0  0  0  0  0  0  0  0  0  0  0  0
   -3.7216    0.5594    1.3516 H   0  0  0  0  0  0  0  0  0  0  0  0
   -4.1175   -1.1346    1.5010 H   0  0  0  0  0  0  0  0  0  0  0  0
    5.0342   -1.6889    1.7452 H   0  0  0  0  0  0  0  0  0  0  0  0
    7.6713   -1.6905    1.9739 H   0  0  0  0  0  0  0  0  0  0  0  0
    8.8033   -0.5066   -0.0873 H   0  0  0  0  0  0  0  0  0  0  0  0
   -5.1658    2.0950    0.0720 H   0  0  0  0  0  0  0  0  0  0  0  0
   -6.1148   -2.0948    0.4331 H   0  0  0  0  0  0  0  0  0  0  0  0
   -1.5104   -2.4633    2.9619 H   0  0  0  0  0  0  0  0  0  0  0  0
   -7.4683    2.5427   -0.7030 H   0  0  0  0  0  0  0  0  0  0  0  0
   -8.4141   -1.6336   -0.3435 H   0  0  0  0  0  0  0  0  0  0  0  0
   -9.0963    0.6826   -0.9132 H   0  0  0  0  0  0  0  0  0  0  0  0
    0.9342    3.3656    2.3188 H   0  0  0  0  0  0  0  0  0  0  0  0
  1 11  1  0  0  0  0
  1 13  1  0  0  0  0
  2 18  1  0  0  0  0
  2 25  1  0  0  0  0
  3 15  2  0  0  0  0
  4 20  1  0  0  0  0
  4 50  1  0  0  0  0
  5 20  2  0  0  0  0
  6 23  1  0  0  0  0
  6 54  1  0  0  0  0
  7 23  2  0  0  0  0
  8 12  1  0  0  0  0
  8 15  1  0  0  0  0
  8 17  1  0  0  0  0
  9 10  1  0  0  0  0
  9 14  1  0  0  0  0
  9 38  1  0  0  0  0
 10 13  1  0  0  0  0
 10 15  1  0  0  0  0
 10 31  1  0  0  0  0
 11 12  1  0  0  0  0
 11 18  1  0  0  0  0
 11 32  1  0  0  0  0
 12 33  1  0  0  0  0
 12 34  1  0  0  0  0
 13 35  1  0  0  0  0
 13 36  1  0  0  0  0
 14 16  1  0  0  0  0
 14 20  1  0  0  0  0
 14 37  1  0  0  0  0
 16 19  1  0  0  0  0
 16 39  1  0  0  0  0
 16 40  1  0  0  0  0
 17 23  1  0  0  0  0
 17 41  1  0  0  0  0
 17 42  1  0  0  0  0
 18 22  2  0  0  0  0
 19 21  1  0  0  0  0
 19 43  1  0  0  0  0
 19 44  1  0  0  0  0
 21 26  2  0  0  0  0
 21 27  1  0  0  0  0
 22 24  1  0  0  0  0
 22 45  1  0  0  0  0
 24 25  2  0  0  0  0
 24 46  1  0  0  0  0
 25 47  1  0  0  0  0
 26 28  1  0  0  0  0
 26 48  1  0  0  0  0
 27 29  2  0  0  0  0
 27 49  1  0  0  0  0
 28 30  2  0  0  0  0
 28 51  1  0  0  0  0
 29 30  1  0  0  0  0
 29 52  1  0  0  0  0
 30 53  1  0  0  0  0
M  END
> <PUBCHEM_COMPOUND_CID>
13854113

> <PUBCHEM_CONFORMER_RMSD>
1

> <PUBCHEM_CONFORMER_DIVERSEORDER>
1
33
59
66
51
39
64
45
53
65
60
57
32
71
43
58
73
7
62
54
38
70
9
28
52
44
41
42
30
72
40
61
19
36
55
49
56
26
47
5
48
69
13
63
15
68
20
46
23
24
22
50
2
27
14
17
67
35
16
25
18
34
29
31
4
37
11
21
12
8
6
10
3

> <PUBCHEM_MMFF94_PARTIAL_CHARGES>
40
1 -0.46
10 0.33
11 0.41
12 0.3
13 0.23
14 0.33
15 0.57
17 0.36
18 -0.14
19 0.14
2 -0.08
20 0.66
21 -0.14
22 -0.15
23 0.66
24 -0.15
25 -0.11
26 -0.15
27 -0.15
28 -0.15
29 -0.15
3 -0.57
30 -0.15
38 0.36
4 -0.65
45 0.15
46 0.15
47 0.15
48 0.15
49 0.15
5 -0.57
50 0.5
51 0.15
52 0.15
53 0.15
54 0.5
6 -0.65
7 -0.57
8 -0.66
9 -0.9

> <PUBCHEM_EFFECTIVE_ROTOR_COUNT>
10.2

> <PUBCHEM_PHARMACOPHORE_FEATURES>
12
1 3 acceptor
1 4 acceptor
1 5 acceptor
1 6 acceptor
1 7 acceptor
1 9 cation
1 9 donor
3 4 5 20 anion
3 6 7 23 anion
5 2 18 22 24 25 rings
6 21 26 27 28 29 30 rings
7 1 8 10 11 12 13 15 rings

> <PUBCHEM_HEAVY_ATOM_COUNT>
30

> <PUBCHEM_ATOM_DEF_STEREO_COUNT>
2

> <PUBCHEM_ATOM_UDEF_STEREO_COUNT>
1

> <PUBCHEM_BOND_DEF_STEREO_COUNT>
0

> <PUBCHEM_BOND_UDEF_STEREO_COUNT>
0

> <PUBCHEM_ISOTOPIC_ATOM_COUNT>
0

> <PUBCHEM_COMPONENT_COUNT>
1

> <PUBCHEM_CACTVS_TAUTO_COUNT>
1

> <PUBCHEM_CONFORMER_ID>
00D365A100000001

> <PUBCHEM_MMFF94_ENERGY>
62.2185

> <PUBCHEM_FEATURE_SELFOVERLAP>
61.015

> <PUBCHEM_SHAPE_FINGERPRINT>
10050765 1 18123188167169173503
10162869 55 18060128865552054807
10674148 151 15719392841676955056
11456790 92 18261967267087471353
12166972 35 17775570844545143193
12664476 115 18334011671755638605
12788726 201 18263074423835713504
13008946 113 18118403089173056188
13560911 43 18410577275703614145
14123256 10 9583516520988292758
14170010 4 18060138730152975310
14251764 18 18260550017314377406
14849402 71 18408325505785790453
15183329 4 18335143072523381657
15537594 2 12324239507623576473
15840311 113 17060333050599278560
15849732 13 17489586757753311982
18365409 1 16199856375497891094
19301679 30 18196086647981304942
20105231 36 12324246035894875041
20642791 13 18058178215137648152
21521721 280 10881695615079573222
21792934 111 18412818085239106112
23559900 14 18339359798215845952
24771293 8 17989213603211547400
24893992 56 18334015004554853435
249057 3 18131348631207591975
2838139 119 18412543228701237301
335352 9 18334577953400765270
335507 130 17917710228466187919
4325135 7 10879991363097222787
59755656 520 17894628180453277315
6004065 56 18343022198533906191
6009941 240 16805615780161468922
6081469 158 17561083567124139330
6086070 43 18129673035220550004
6328613 192 17895486919701876660
6371380 46 18261110798304046051
6394761 36 18113336396997512943

> <PUBCHEM_SHAPE_MULTIPOLES>
585.78
21.5
3.31
1.35
18.17
3.99
-0.26
-3.23
0.14
-1.9
-0.99
-0.75
-0.35
0.7

> <PUBCHEM_SHAPE_SELFOVERLAP>
1199.963

> <PUBCHEM_SHAPE_VOLUME>
336.6

> <PUBCHEM_COORDINATE_TYPE>
2
5
10

$$$$
