13854106
  -OEChem-03292013303D

 60 62  0     1  0  0  0  0  0999 V2000
    2.5338    0.1149   -2.3841 S   0  0  0  0  0  0  0  0  0  0  0  0
    5.8853    1.0771   -0.3804 S   0  0  0  0  0  0  0  0  0  0  0  0
    0.5509   -3.2346    0.4029 O   0  0  0  0  0  0  0  0  0  0  0  0
   -2.7595   -3.0258   -0.3776 O   0  0  0  0  0  0  0  0  0  0  0  0
   -2.2069   -2.3211   -2.5016 O   0  0  0  0  0  0  0  0  0  0  0  0
    0.4216   -0.8526    2.8562 O   0  0  0  0  0  0  0  0  0  0  0  0
    1.8297   -1.8805    4.3084 O   0  0  0  0  0  0  0  0  0  0  0  0
    1.8510   -1.3528    0.7199 N   0  0  0  0  0  0  0  0  0  0  0  0
   -0.3909   -0.5986   -1.3000 N   0  0  0  0  0  0  0  0  0  0  0  0
    0.5530   -1.7042   -1.4072 C   0  0  1  0  0  0  0  0  0  0  0  0
    3.3004    0.0950   -0.7174 C   0  0  2  0  0  0  0  0  0  0  0  0
    1.7145   -1.5071   -2.3842 C   0  0  0  0  0  0  0  0  0  0  0  0
    2.2334    0.0234    0.3824 C   0  0  0  0  0  0  0  0  0  0  0  0
   -1.5647   -1.0044   -0.5480 C   0  0  1  0  0  0  0  0  0  0  0  0
    0.9788   -2.1506   -0.0145 C   0  0  0  0  0  0  0  0  0  0  0  0
   -2.5808    0.1417   -0.4182 C   0  0  0  0  0  0  0  0  0  0  0  0
    2.4005   -1.8683    1.9700 C   0  0  0  0  0  0  0  0  0  0  0  0
    4.2005    1.3035   -0.5731 C   0  0  0  0  0  0  0  0  0  0  0  0
   -2.0546    1.4101    0.2685 C   0  0  0  0  0  0  0  0  0  0  0  0
   -2.2014   -2.1699   -1.2867 C   0  0  0  0  0  0  0  0  0  0  0  0
   -3.0591    2.5332    0.3225 C   0  0  0  0  0  0  0  0  0  0  0  0
    3.8506    2.6339   -0.5736 C   0  0  0  0  0  0  0  0  0  0  0  0
    1.5420   -1.5459    3.1657 C   0  0  0  0  0  0  0  0  0  0  0  0
    4.9839    3.4825   -0.4137 C   0  0  0  0  0  0  0  0  0  0  0  0
    6.1545    2.7661   -0.2969 C   0  0  0  0  0  0  0  0  0  0  0  0
   -3.1119    3.4502   -0.7165 C   0  0  0  0  0  0  0  0  0  0  0  0
   -3.9137    2.6313    1.4102 C   0  0  0  0  0  0  0  0  0  0  0  0
   -3.3941   -4.1842   -0.9283 C   0  0  0  0  0  0  0  0  0  0  0  0
   -4.0411    4.4894   -0.6667 C   0  0  0  0  0  0  0  0  0  0  0  0
   -4.8428    3.6705    1.4601 C   0  0  0  0  0  0  0  0  0  0  0  0
   -4.9065    4.5996    0.4216 C   0  0  0  0  0  0  0  0  0  0  0  0
   -3.9564   -5.0219    0.2003 C   0  0  0  0  0  0  0  0  0  0  0  0
    0.0665   -2.5929   -1.8290 H   0  0  0  0  0  0  0  0  0  0  0  0
    3.9199   -0.8103   -0.6759 H   0  0  0  0  0  0  0  0  0  0  0  0
    2.4810   -2.2761   -2.2343 H   0  0  0  0  0  0  0  0  0  0  0  0
    1.3351   -1.6382   -3.4048 H   0  0  0  0  0  0  0  0  0  0  0  0
    2.6100    0.4920    1.3015 H   0  0  0  0  0  0  0  0  0  0  0  0
    1.3379    0.5967    0.1223 H   0  0  0  0  0  0  0  0  0  0  0  0
   -1.2963   -1.3129    0.4683 H   0  0  0  0  0  0  0  0  0  0  0  0
   -0.6587   -0.2780   -2.2300 H   0  0  0  0  0  0  0  0  0  0  0  0
   -3.4592   -0.2245    0.1311 H   0  0  0  0  0  0  0  0  0  0  0  0
   -2.9573    0.4058   -1.4169 H   0  0  0  0  0  0  0  0  0  0  0  0
    2.4729   -2.9592    1.9047 H   0  0  0  0  0  0  0  0  0  0  0  0
    3.4046   -1.4583    2.1189 H   0  0  0  0  0  0  0  0  0  0  0  0
   -1.1540    1.7719   -0.2439 H   0  0  0  0  0  0  0  0  0  0  0  0
   -1.7277    1.1633    1.2872 H   0  0  0  0  0  0  0  0  0  0  0  0
    2.8340    2.9908   -0.6800 H   0  0  0  0  0  0  0  0  0  0  0  0
    4.9425    4.5635   -0.3847 H   0  0  0  0  0  0  0  0  0  0  0  0
    7.1551    3.1536   -0.1663 H   0  0  0  0  0  0  0  0  0  0  0  0
   -2.4437    3.3717   -1.5694 H   0  0  0  0  0  0  0  0  0  0  0  0
   -3.8730    1.9116    2.2228 H   0  0  0  0  0  0  0  0  0  0  0  0
   -2.6591   -4.7688   -1.4927 H   0  0  0  0  0  0  0  0  0  0  0  0
   -4.2038   -3.8733   -1.5978 H   0  0  0  0  0  0  0  0  0  0  0  0
   -4.0911    5.2124   -1.4756 H   0  0  0  0  0  0  0  0  0  0  0  0
   -5.5171    3.7560    2.3072 H   0  0  0  0  0  0  0  0  0  0  0  0
   -5.6302    5.4086    0.4603 H   0  0  0  0  0  0  0  0  0  0  0  0
   -0.1204   -0.6557    3.6496 H   0  0  0  0  0  0  0  0  0  0  0  0
   -4.4496   -5.9182   -0.1860 H   0  0  0  0  0  0  0  0  0  0  0  0
   -3.1604   -5.3247    0.8886 H   0  0  0  0  0  0  0  0  0  0  0  0
   -4.6796   -4.4442    0.7853 H   0  0  0  0  0  0  0  0  0  0  0  0
  1 11  1  0  0  0  0
  1 12  1  0  0  0  0
  2 18  1  0  0  0  0
  2 25  1  0  0  0  0
  3 15  2  0  0  0  0
  4 20  1  0  0  0  0
  4 28  1  0  0  0  0
  5 20  2  0  0  0  0
  6 23  1  0  0  0  0
  6 57  1  0  0  0  0
  7 23  2  0  0  0  0
  8 13  1  0  0  0  0
  8 15  1  0  0  0  0
  8 17  1  0  0  0  0
  9 10  1  0  0  0  0
  9 14  1  0  0  0  0
  9 40  1  0  0  0  0
 10 12  1  0  0  0  0
 10 15  1  0  0  0  0
 10 33  1  0  0  0  0
 11 13  1  0  0  0  0
 11 18  1  0  0  0  0
 11 34  1  0  0  0  0
 12 35  1  0  0  0  0
 12 36  1  0  0  0  0
 13 37  1  0  0  0  0
 13 38  1  0  0  0  0
 14 16  1  0  0  0  0
 14 20  1  0  0  0  0
 14 39  1  0  0  0  0
 16 19  1  0  0  0  0
 16 41  1  0  0  0  0
 16 42  1  0  0  0  0
 17 23  1  0  0  0  0
 17 43  1  0  0  0  0
 17 44  1  0  0  0  0
 18 22  2  0  0  0  0
 19 21  1  0  0  0  0
 19 45  1  0  0  0  0
 19 46  1  0  0  0  0
 21 26  2  0  0  0  0
 21 27  1  0  0  0  0
 22 24  1  0  0  0  0
 22 47  1  0  0  0  0
 24 25  2  0  0  0  0
 24 48  1  0  0  0  0
 25 49  1  0  0  0  0
 26 29  1  0  0  0  0
 26 50  1  0  0  0  0
 27 30  2  0  0  0  0
 27 51  1  0  0  0  0
 28 32  1  0  0  0  0
 28 52  1  0  0  0  0
 28 53  1  0  0  0  0
 29 31  2  0  0  0  0
 29 54  1  0  0  0  0
 30 31  1  0  0  0  0
 30 55  1  0  0  0  0
 31 56  1  0  0  0  0
 32 58  1  0  0  0  0
 32 59  1  0  0  0  0
 32 60  1  0  0  0  0
M  END
> <PUBCHEM_COMPOUND_CID>
13854106

> <PUBCHEM_CONFORMER_RMSD>
1.2

> <PUBCHEM_CONFORMER_DIVERSEORDER>
1
34
40
19
66
25
7
50
74
23
71
2
13
80
8
46
27
59
14
42
69
53
41
36
72
44
15
3
55
79
32
56
31
37
68
62
51
24
4
16
39
21
22
45
35
52
38
30
75
33
11
9
73
43
48
64
12
28
76
6
26
61
67
81
77
20
49
65
17
10
60
29
18
5
58
63
57
54
78
70
47

> <PUBCHEM_MMFF94_PARTIAL_CHARGES>
40
1 -0.46
10 0.33
11 0.41
12 0.23
13 0.3
14 0.33
15 0.57
17 0.36
18 -0.14
19 0.14
2 -0.08
20 0.66
21 -0.14
22 -0.15
23 0.66
24 -0.15
25 -0.11
26 -0.15
27 -0.15
28 0.28
29 -0.15
3 -0.57
30 -0.15
31 -0.15
4 -0.43
40 0.36
47 0.15
48 0.15
49 0.15
5 -0.57
50 0.15
51 0.15
54 0.15
55 0.15
56 0.15
57 0.5
6 -0.65
7 -0.57
8 -0.66
9 -0.9

> <PUBCHEM_EFFECTIVE_ROTOR_COUNT>
12.2

> <PUBCHEM_PHARMACOPHORE_FEATURES>
10
1 3 acceptor
1 5 acceptor
1 6 acceptor
1 7 acceptor
1 9 cation
1 9 donor
3 6 7 23 anion
5 2 18 22 24 25 rings
6 21 26 27 29 30 31 rings
7 1 8 10 11 12 13 15 rings

> <PUBCHEM_HEAVY_ATOM_COUNT>
32

> <PUBCHEM_ATOM_DEF_STEREO_COUNT>
3

> <PUBCHEM_ATOM_UDEF_STEREO_COUNT>
0

> <PUBCHEM_BOND_DEF_STEREO_COUNT>
0

> <PUBCHEM_BOND_UDEF_STEREO_COUNT>
0

> <PUBCHEM_ISOTOPIC_ATOM_COUNT>
0

> <PUBCHEM_COMPONENT_COUNT>
1

> <PUBCHEM_CACTVS_TAUTO_COUNT>
1

> <PUBCHEM_CONFORMER_ID>
00D3659A00000001

> <PUBCHEM_MMFF94_ENERGY>
69.4081

> <PUBCHEM_FEATURE_SELFOVERLAP>
50.805

> <PUBCHEM_SHAPE_FINGERPRINT>
11421498 54 18192423284899629978
12107183 9 18338509726294951118
12160290 23 18058990845025858655
12788726 201 18269258193083997639
13726171 33 18201446886650513496
13965767 371 18042407919844392876
14028597 1 17968936534452943059
14932701 244 18192150614468251565
14955137 171 17476922827870423463
16067690 210 17331366163166584088
17974551 9 16158212106340088909
19304152 47 17530690896294677956
19311894 1 18412265038879265956
21796203 349 16954489461426305970
21814621 53 18060409224032505618
283562 15 18265048222552624823
5081480 168 14836397026025146313
563151 74 17023455348888633565
57527295 17 18261969509466737198
57527306 92 17760073408498069102
57527358 35 18412548730359567462
6376802 137 17537730175724766482
7808743 9 18342740714830058956

> <PUBCHEM_SHAPE_MULTIPOLES>
626.94
11.44
7.1
2.69
6.08
0.73
2.76
14.71
-0.49
-11.86
-0.15
1.39
-2.43
-2.98

> <PUBCHEM_SHAPE_SELFOVERLAP>
1278.514

> <PUBCHEM_SHAPE_VOLUME>
361.9

> <PUBCHEM_COORDINATE_TYPE>
2
5
10

$$$$
