13879996
  -OEChem-03292013303D

 58 61  0     1  0  0  0  0  0999 V2000
    1.7333   -2.3733   -2.0348 O   0  0  0  0  0  0  0  0  0  0  0  0
    0.1092   -2.2582    1.2286 O   0  0  0  0  0  0  0  0  0  0  0  0
    3.0505    0.3377   -0.8622 O   0  0  0  0  0  0  0  0  0  0  0  0
    2.5282   -1.1837    2.1045 O   0  0  0  0  0  0  0  0  0  0  0  0
    0.2750    1.8088    0.9186 O   0  0  0  0  0  0  0  0  0  0  0  0
   -3.7925    0.5831   -0.0249 O   0  0  0  0  0  0  0  0  0  0  0  0
    4.4247    0.5553    0.9820 O   0  0  0  0  0  0  0  0  0  0  0  0
   -0.0423    3.8955   -0.0210 O   0  0  0  0  0  0  0  0  0  0  0  0
   -4.2775    0.2675   -2.2615 O   0  0  0  0  0  0  0  0  0  0  0  0
    0.6836   -0.4142   -0.8780 C   0  0  1  0  0  0  0  0  0  0  0  0
    0.8585   -1.9175   -0.9898 C   0  0  2  0  0  0  0  0  0  0  0  0
   -0.6417   -0.1952   -0.0038 C   0  0  2  0  0  0  0  0  0  0  0  0
    1.2548   -2.3625    0.3759 C   0  0  1  0  0  0  0  0  0  0  0  0
    1.9675   -0.0536   -0.0185 C   0  0  1  0  0  0  0  0  0  0  0  0
    0.3755   -2.8305   -2.0909 C   0  0  0  0  0  0  0  0  0  0  0  0
    2.3710   -1.3619    0.7105 C   0  0  1  0  0  0  0  0  0  0  0  0
   -0.4822   -0.9521    1.3609 C   0  0  1  0  0  0  0  0  0  0  0  0
    0.6511    0.3182   -2.2244 C   0  0  0  0  0  0  0  0  0  0  0  0
   -1.9106   -0.7624   -0.7225 C   0  0  0  0  0  0  0  0  0  0  0  0
   -0.8695    1.3177    0.2631 C   0  0  0  0  0  0  0  0  0  0  0  0
   -3.2014   -0.7075    0.1137 C   0  0  1  0  0  0  0  0  0  0  0  0
   -1.7724   -1.1617    2.1078 C   0  0  0  0  0  0  0  0  0  0  0  0
   -2.9977   -1.0330    1.5717 C   0  0  0  0  0  0  0  0  0  0  0  0
    4.2250    0.6135   -0.2238 C   0  0  0  0  0  0  0  0  0  0  0  0
   -4.2352   -1.2494    2.3959 C   0  0  0  0  0  0  0  0  0  0  0  0
    0.5876    3.1275    0.6936 C   0  0  0  0  0  0  0  0  0  0  0  0
    5.2649    1.0073   -1.2285 C   0  0  0  0  0  0  0  0  0  0  0  0
   -4.0268    0.9909   -1.3069 C   0  0  0  0  0  0  0  0  0  0  0  0
    1.8224    3.5092    1.4522 C   0  0  0  0  0  0  0  0  0  0  0  0
   -3.9332    2.4845   -1.3875 C   0  0  0  0  0  0  0  0  0  0  0  0
    1.6131   -3.3957    0.4194 H   0  0  0  0  0  0  0  0  0  0  0  0
    1.8891    0.7164    0.7282 H   0  0  0  0  0  0  0  0  0  0  0  0
    0.1856   -3.8684   -1.8494 H   0  0  0  0  0  0  0  0  0  0  0  0
   -0.2539   -2.4270   -2.8725 H   0  0  0  0  0  0  0  0  0  0  0  0
    3.3146   -1.7564    0.3127 H   0  0  0  0  0  0  0  0  0  0  0  0
    0.1580   -0.3749    2.0366 H   0  0  0  0  0  0  0  0  0  0  0  0
    0.6501    1.4042   -2.0912 H   0  0  0  0  0  0  0  0  0  0  0  0
   -0.2227    0.0480   -2.8230 H   0  0  0  0  0  0  0  0  0  0  0  0
    1.5238    0.0736   -2.8405 H   0  0  0  0  0  0  0  0  0  0  0  0
   -2.0145   -0.2845   -1.6974 H   0  0  0  0  0  0  0  0  0  0  0  0
   -1.7459   -1.8254   -0.9326 H   0  0  0  0  0  0  0  0  0  0  0  0
   -1.0677    1.8416   -0.6780 H   0  0  0  0  0  0  0  0  0  0  0  0
   -1.7142    1.4947    0.9334 H   0  0  0  0  0  0  0  0  0  0  0  0
   -3.9062   -1.4429   -0.2984 H   0  0  0  0  0  0  0  0  0  0  0  0
   -1.6758   -1.4309    3.1575 H   0  0  0  0  0  0  0  0  0  0  0  0
    2.6757   -2.0612    2.4965 H   0  0  0  0  0  0  0  0  0  0  0  0
   -4.8482   -0.3425    2.4073 H   0  0  0  0  0  0  0  0  0  0  0  0
   -4.8313   -2.0670    1.9778 H   0  0  0  0  0  0  0  0  0  0  0  0
   -4.0019   -1.5054    3.4348 H   0  0  0  0  0  0  0  0  0  0  0  0
    6.2039    1.2258   -0.7121 H   0  0  0  0  0  0  0  0  0  0  0  0
    5.4349    0.1843   -1.9273 H   0  0  0  0  0  0  0  0  0  0  0  0
    4.9431    1.9054   -1.7616 H   0  0  0  0  0  0  0  0  0  0  0  0
    1.8674    4.5980    1.5444 H   0  0  0  0  0  0  0  0  0  0  0  0
    1.7894    3.0880    2.4607 H   0  0  0  0  0  0  0  0  0  0  0  0
    2.7068    3.1540    0.9194 H   0  0  0  0  0  0  0  0  0  0  0  0
   -3.4739    2.9005   -0.4863 H   0  0  0  0  0  0  0  0  0  0  0  0
   -4.9357    2.9038   -1.5001 H   0  0  0  0  0  0  0  0  0  0  0  0
   -3.3068    2.7587   -2.2404 H   0  0  0  0  0  0  0  0  0  0  0  0
  1 11  1  0  0  0  0
  1 15  1  0  0  0  0
  2 13  1  0  0  0  0
  2 17  1  0  0  0  0
  3 14  1  0  0  0  0
  3 24  1  0  0  0  0
  4 16  1  0  0  0  0
  4 46  1  0  0  0  0
  5 20  1  0  0  0  0
  5 26  1  0  0  0  0
  6 21  1  0  0  0  0
  6 28  1  0  0  0  0
  7 24  2  0  0  0  0
  8 26  2  0  0  0  0
  9 28  2  0  0  0  0
 10 11  1  0  0  0  0
 10 12  1  0  0  0  0
 10 14  1  0  0  0  0
 10 18  1  0  0  0  0
 11 13  1  0  0  0  0
 11 15  1  0  0  0  0
 12 17  1  0  0  0  0
 12 19  1  0  0  0  0
 12 20  1  0  0  0  0
 13 16  1  0  0  0  0
 13 31  1  0  0  0  0
 14 16  1  0  0  0  0
 14 32  1  0  0  0  0
 15 33  1  0  0  0  0
 15 34  1  0  0  0  0
 16 35  1  0  0  0  0
 17 22  1  0  0  0  0
 17 36  1  0  0  0  0
 18 37  1  0  0  0  0
 18 38  1  0  0  0  0
 18 39  1  0  0  0  0
 19 21  1  0  0  0  0
 19 40  1  0  0  0  0
 19 41  1  0  0  0  0
 20 42  1  0  0  0  0
 20 43  1  0  0  0  0
 21 23  1  0  0  0  0
 21 44  1  0  0  0  0
 22 23  2  0  0  0  0
 22 45  1  0  0  0  0
 23 25  1  0  0  0  0
 24 27  1  0  0  0  0
 25 47  1  0  0  0  0
 25 48  1  0  0  0  0
 25 49  1  0  0  0  0
 26 29  1  0  0  0  0
 27 50  1  0  0  0  0
 27 51  1  0  0  0  0
 27 52  1  0  0  0  0
 28 30  1  0  0  0  0
 29 53  1  0  0  0  0
 29 54  1  0  0  0  0
 29 55  1  0  0  0  0
 30 56  1  0  0  0  0
 30 57  1  0  0  0  0
 30 58  1  0  0  0  0
M  END
> <PUBCHEM_COMPOUND_CID>
13879996

> <PUBCHEM_CONFORMER_RMSD>
1

> <PUBCHEM_CONFORMER_DIVERSEORDER>
2
1
5
3
4

> <PUBCHEM_MMFF94_PARTIAL_CHARGES>
31
1 -0.3
10 0.09
11 -0.04
13 0.38
14 0.28
15 -0.05
16 0.28
17 0.42
2 -0.56
20 0.28
21 0.42
22 -0.29
23 -0.28
24 0.66
25 0.14
26 0.66
27 0.06
28 0.66
29 0.06
3 -0.43
30 0.06
33 0.1
34 0.1
4 -0.68
45 0.15
46 0.4
5 -0.43
6 -0.43
7 -0.57
8 -0.57
9 -0.57

> <PUBCHEM_EFFECTIVE_ROTOR_COUNT>
8.4

> <PUBCHEM_PHARMACOPHORE_FEATURES>
9
1 1 acceptor
1 2 acceptor
1 4 acceptor
1 4 donor
1 7 acceptor
1 8 acceptor
1 9 acceptor
6 12 17 19 21 22 23 rings
8 2 10 11 12 13 14 16 17 rings

> <PUBCHEM_HEAVY_ATOM_COUNT>
30

> <PUBCHEM_ATOM_DEF_STEREO_COUNT>
8

> <PUBCHEM_ATOM_UDEF_STEREO_COUNT>
0

> <PUBCHEM_BOND_DEF_STEREO_COUNT>
0

> <PUBCHEM_BOND_UDEF_STEREO_COUNT>
0

> <PUBCHEM_ISOTOPIC_ATOM_COUNT>
0

> <PUBCHEM_COMPONENT_COUNT>
1

> <PUBCHEM_CACTVS_TAUTO_COUNT>
1

> <PUBCHEM_CONFORMER_ID>
00D3CABC00000002

> <PUBCHEM_MMFF94_ENERGY>
111.3647

> <PUBCHEM_FEATURE_SELFOVERLAP>
45.69

> <PUBCHEM_SHAPE_FINGERPRINT>
10366900 7 18114178704898989339
10675989 125 17539958482320933197
10863032 1 17530961367332229138
10906281 52 18339646624975313601
10948715 1 18040433295766324726
11370993 70 17385997334978888955
11578080 2 17677062239132428261
12788726 201 17691967064208406137
12969540 114 18201157745398992500
13140716 1 17982749758840195979
13464514 151 18335975372919495077
13583140 156 18261382412162458651
13911987 19 18271536393655645212
14178342 30 17168434787532263755
14787075 74 17898586512079861786
14955137 171 17984731005889773794
16945 1 17346593058568950683
17492 54 18341317964026519749
20600515 1 17824258207080737365
20691752 17 17845948341934988038
20715895 44 17606385554506062245
21033648 29 18261951976476519232
21756936 100 18042403707251329068
229495 10 17751329860485633214
23419403 2 18261673791481420697
23558518 356 17762902069754112408
23559900 14 17896314719362543698
238 59 18268409395729276989
3493558 16 17313106354087642108
633830 44 16773809111961628410
70251023 43 17699293153239783919
81228 2 17764875693199836505

> <PUBCHEM_SHAPE_MULTIPOLES>
564.56
7.51
3.51
2.31
0.25
2.63
-0.15
2.13
-0.86
0.71
0.2
-1.22
-0.75
1.87

> <PUBCHEM_SHAPE_SELFOVERLAP>
1207.234

> <PUBCHEM_SHAPE_VOLUME>
307.4

> <PUBCHEM_COORDINATE_TYPE>
2
5
10

$$$$
