13871382
  -OEChem-03292013303D

 37 38  0     1  0  0  0  0  0999 V2000
    2.6537   -0.1472    1.0367 O   0  0  0  0  0  0  0  0  0  0  0  0
    4.3105   -2.4683   -0.0766 O   0  0  0  0  0  0  0  0  0  0  0  0
    4.1415    2.2172    0.8137 O   0  0  0  0  0  0  0  0  0  0  0  0
   -0.7068   -2.2266    0.1606 O   0  0  0  0  0  0  0  0  0  0  0  0
   -2.8813    1.8779   -0.4364 O   0  0  0  0  0  0  0  0  0  0  0  0
   -6.5386   -0.6314    0.4669 O   0  0  0  0  0  0  0  0  0  0  0  0
    0.5138   -0.2622    0.0970 N   0  0  0  0  0  0  0  0  0  0  0  0
   -1.8543   -0.2092   -0.1393 N   0  0  0  0  0  0  0  0  0  0  0  0
    1.7488   -0.9663    0.2827 C   0  0  1  0  0  0  0  0  0  0  0  0
    3.8988   -1.2352   -0.6624 C   0  0  1  0  0  0  0  0  0  0  0  0
    2.4348   -1.3097   -1.0296 C   0  0  0  0  0  0  0  0  0  0  0  0
    3.9366   -0.1277    0.3813 C   0  0  1  0  0  0  0  0  0  0  0  0
    4.1301    1.2548   -0.2280 C   0  0  0  0  0  0  0  0  0  0  0  0
    0.5445    1.1060   -0.0270 C   0  0  0  0  0  0  0  0  0  0  0  0
   -0.6823   -0.9963    0.0485 C   0  0  0  0  0  0  0  0  0  0  0  0
   -0.5438    1.8583   -0.2039 C   0  0  0  0  0  0  0  0  0  0  0  0
   -1.8719    1.1919   -0.2721 C   0  0  0  0  0  0  0  0  0  0  0  0
   -0.4959    3.3479   -0.3382 C   0  0  0  0  0  0  0  0  0  0  0  0
   -3.0684   -0.8727   -0.1955 C   0  0  0  0  0  0  0  0  0  0  0  0
   -4.2105   -0.3107    0.2089 C   0  0  0  0  0  0  0  0  0  0  0  0
   -5.4593   -1.0903    0.1127 C   0  0  0  0  0  0  0  0  0  0  0  0
    1.5808   -1.8764    0.8706 H   0  0  0  0  0  0  0  0  0  0  0  0
    4.5487   -1.0501   -1.5220 H   0  0  0  0  0  0  0  0  0  0  0  0
    2.2086   -0.5640   -1.8013 H   0  0  0  0  0  0  0  0  0  0  0  0
    2.1200   -2.2891   -1.4033 H   0  0  0  0  0  0  0  0  0  0  0  0
    4.6926   -0.3078    1.1537 H   0  0  0  0  0  0  0  0  0  0  0  0
    3.3511    1.5190   -0.9468 H   0  0  0  0  0  0  0  0  0  0  0  0
    5.0954    1.3037   -0.7431 H   0  0  0  0  0  0  0  0  0  0  0  0
    1.5011    1.5998    0.0290 H   0  0  0  0  0  0  0  0  0  0  0  0
    3.7958   -2.6123    0.7353 H   0  0  0  0  0  0  0  0  0  0  0  0
    4.2793    3.0860    0.3993 H   0  0  0  0  0  0  0  0  0  0  0  0
   -0.9070    3.6582   -1.3044 H   0  0  0  0  0  0  0  0  0  0  0  0
    0.5273    3.7334   -0.2742 H   0  0  0  0  0  0  0  0  0  0  0  0
   -1.0792    3.8225    0.4575 H   0  0  0  0  0  0  0  0  0  0  0  0
   -3.0351   -1.9140   -0.5001 H   0  0  0  0  0  0  0  0  0  0  0  0
   -4.3257    0.6670    0.6551 H   0  0  0  0  0  0  0  0  0  0  0  0
   -5.3698   -2.1089   -0.3004 H   0  0  0  0  0  0  0  0  0  0  0  0
  1  9  1  0  0  0  0
  1 12  1  0  0  0  0
  2 10  1  0  0  0  0
  2 30  1  0  0  0  0
  3 13  1  0  0  0  0
  3 31  1  0  0  0  0
  4 15  2  0  0  0  0
  5 17  2  0  0  0  0
  6 21  2  0  0  0  0
  7  9  1  0  0  0  0
  7 14  1  0  0  0  0
  7 15  1  0  0  0  0
  8 15  1  0  0  0  0
  8 17  1  0  0  0  0
  8 19  1  0  0  0  0
  9 11  1  0  0  0  0
  9 22  1  0  0  0  0
 10 11  1  0  0  0  0
 10 12  1  0  0  0  0
 10 23  1  0  0  0  0
 11 24  1  0  0  0  0
 11 25  1  0  0  0  0
 12 13  1  0  0  0  0
 12 26  1  0  0  0  0
 13 27  1  0  0  0  0
 13 28  1  0  0  0  0
 14 16  2  0  0  0  0
 14 29  1  0  0  0  0
 16 17  1  0  0  0  0
 16 18  1  0  0  0  0
 18 32  1  0  0  0  0
 18 33  1  0  0  0  0
 18 34  1  0  0  0  0
 19 20  2  0  0  0  0
 19 35  1  0  0  0  0
 20 21  1  0  0  0  0
 20 36  1  0  0  0  0
 21 37  1  0  0  0  0
M  END
> <PUBCHEM_COMPOUND_CID>
13871382

> <PUBCHEM_CONFORMER_RMSD>
0.8

> <PUBCHEM_CONFORMER_DIVERSEORDER>
1
5
11
3
12
7
9
13
6
4
8
10
2

> <PUBCHEM_MMFF94_PARTIAL_CHARGES>
26
1 -0.56
10 0.28
12 0.28
13 0.28
14 -0.04
15 0.69
16 -0.12
17 0.62
18 0.14
19 -0.04
2 -0.68
20 -0.14
21 0.5
29 0.15
3 -0.68
30 0.4
31 0.4
35 0.15
36 0.15
37 0.06
4 -0.57
5 -0.57
6 -0.57
7 -0.47
8 -0.23
9 0.58

> <PUBCHEM_EFFECTIVE_ROTOR_COUNT>
5

> <PUBCHEM_PHARMACOPHORE_FEATURES>
10
1 1 acceptor
1 2 acceptor
1 2 donor
1 3 acceptor
1 3 donor
1 4 acceptor
1 5 acceptor
1 6 acceptor
5 1 9 10 11 12 rings
6 7 8 14 15 16 17 rings

> <PUBCHEM_HEAVY_ATOM_COUNT>
21

> <PUBCHEM_ATOM_DEF_STEREO_COUNT>
3

> <PUBCHEM_ATOM_UDEF_STEREO_COUNT>
0

> <PUBCHEM_BOND_DEF_STEREO_COUNT>
1

> <PUBCHEM_BOND_UDEF_STEREO_COUNT>
0

> <PUBCHEM_ISOTOPIC_ATOM_COUNT>
0

> <PUBCHEM_COMPONENT_COUNT>
1

> <PUBCHEM_CACTVS_TAUTO_COUNT>
1

> <PUBCHEM_CONFORMER_ID>
00D3A91600000001

> <PUBCHEM_MMFF94_ENERGY>
61.9131

> <PUBCHEM_FEATURE_SELFOVERLAP>
50.754

> <PUBCHEM_SHAPE_FINGERPRINT>
10498660 4 18262796263767081804
10608611 8 18340482275608636364
10967382 1 18338233877182228724
12032990 46 18410293588538618447
12236239 1 17386006135403912150
12403259 226 18265894645116828716
12553582 1 18336815447243110347
12916754 54 18340489950335191408
13140716 1 18266739086800140169
13862211 1 18409163312356130371
14170010 4 18338236076648479041
14787075 74 18335700593574993001
14790565 3 18410299103546184461
15196674 1 18410292480368666173
16945 1 18049153363424739677
17492 89 18192991526405909338
1813 80 18340783580343734661
18186145 218 18041555832866469740
18222031 100 18411692206369197851
18785283 64 17754462570882008949
19141452 34 18060418041099574439
19591789 44 18410291380851744123
20028762 73 18200034087988513279
20510252 161 18412543176133234913
21029758 11 18410291432729039741
21029758 27 18260833717669566797
21267235 1 18409736140438647582
21279426 13 18335134242593127021
21618674 68 18412825794035281548
21792934 111 18338786841373701433
221490 88 18340487747433719398
22182313 1 18262779848834872605
23352939 185 18343309188396363889
23402539 116 18341606006367266183
23557571 272 18340775853317676452
23559900 14 18268985385293176742
23845131 108 17260759447593564465
2748010 2 18337655469578472053
2871803 45 18333729091864400627
34934 24 18266738163524271366
350125 39 18340488864119961048
4340502 62 16153703249988610347
4463277 17 18409450289333055605
474 4 17096380586850738164
5104073 3 18341044108448561888
5283173 99 18041549236029487677
5374978 207 18335415781598565114
537710 114 18334862761303862876
9709674 26 18340491067264714942

> <PUBCHEM_SHAPE_MULTIPOLES>
386.99
10.62
2.73
0.77
8.8
1.69
0.02
-3.8
-1.09
-1.12
0.24
-0.4
-0.01
0.79

> <PUBCHEM_SHAPE_SELFOVERLAP>
812.913

> <PUBCHEM_SHAPE_VOLUME>
218

> <PUBCHEM_COORDINATE_TYPE>
2
5
10

$$$$
