138756762
  -OEChem-03292013293D

 37 38  0     1  0  0  0  0  0999 V2000
   -4.5577   -1.3947    0.4373 P   0  0  0  0  0  0  0  0  0  0  0  0
   -0.6857    0.5210    0.2366 O   0  0  0  0  0  0  0  0  0  0  0  0
   -1.9213    3.2005   -0.3454 O   0  0  0  0  0  0  0  0  0  0  0  0
   -3.1272   -0.8343   -0.0714 O   0  0  0  0  0  0  0  0  0  0  0  0
    2.7832    2.4013    1.4502 O   0  0  0  0  0  0  0  0  0  0  0  0
    5.1195   -1.3356    0.1366 O   0  0  0  0  0  0  0  0  0  0  0  0
   -4.9022   -0.4234    1.6834 O   0  0  0  0  0  0  0  0  0  0  0  0
   -5.5900   -0.9094   -0.7091 O   0  0  0  0  0  0  0  0  0  0  0  0
    2.9094   -3.5728   -0.2334 O   0  0  0  0  0  0  0  0  0  0  0  0
   -4.5894   -2.8622    0.7498 O   0  0  0  0  0  0  0  0  0  0  0  0
    1.6427    0.7775    0.2193 N   0  0  0  0  0  0  0  0  0  0  0  0
    3.9362    0.5323    0.7889 N   0  0  0  0  0  0  0  0  0  0  0  0
   -1.3013    2.2736   -1.2281 C   0  0  2  0  0  0  0  0  0  0  0  0
   -1.5946    0.8308   -0.8369 C   0  0  2  0  0  0  0  0  0  0  0  0
    0.3885    1.4730    0.2123 C   0  0  1  0  0  0  0  0  0  0  0  0
    0.1951    2.3396   -1.0241 C   0  0  0  0  0  0  0  0  0  0  0  0
   -3.0152    0.5440   -0.3875 C   0  0  0  0  0  0  0  0  0  0  0  0
    1.7268   -0.4540   -0.4234 C   0  0  0  0  0  0  0  0  0  0  0  0
    2.7809    1.3182    0.8614 C   0  0  0  0  0  0  0  0  0  0  0  0
    2.8342   -1.2033   -0.4911 C   0  0  0  0  0  0  0  0  0  0  0  0
    4.0705   -0.6973    0.1620 C   0  0  0  0  0  0  0  0  0  0  0  0
    2.8974   -2.5249   -1.1872 C   0  0  0  0  0  0  0  0  0  0  0  0
   -1.6165    2.5034   -2.2499 H   0  0  0  0  0  0  0  0  0  0  0  0
   -1.3267    0.1574   -1.6611 H   0  0  0  0  0  0  0  0  0  0  0  0
    0.3011    2.0839    1.1187 H   0  0  0  0  0  0  0  0  0  0  0  0
    0.7049    1.9065   -1.8935 H   0  0  0  0  0  0  0  0  0  0  0  0
    0.5848    3.3509   -0.8708 H   0  0  0  0  0  0  0  0  0  0  0  0
   -3.2556    1.1218    0.5103 H   0  0  0  0  0  0  0  0  0  0  0  0
   -3.7226    0.7999   -1.1821 H   0  0  0  0  0  0  0  0  0  0  0  0
   -1.6470    4.0925   -0.6189 H   0  0  0  0  0  0  0  0  0  0  0  0
    0.8288   -0.8118   -0.9148 H   0  0  0  0  0  0  0  0  0  0  0  0
    4.7652    0.9036    1.2445 H   0  0  0  0  0  0  0  0  0  0  0  0
    3.7988   -2.6014   -1.8038 H   0  0  0  0  0  0  0  0  0  0  0  0
    2.0403   -2.6774   -1.8524 H   0  0  0  0  0  0  0  0  0  0  0  0
   -6.5275   -1.1924   -0.6540 H   0  0  0  0  0  0  0  0  0  0  0  0
   -5.6926   -0.6165    2.2312 H   0  0  0  0  0  0  0  0  0  0  0  0
    2.0821   -3.5211    0.2754 H   0  0  0  0  0  0  0  0  0  0  0  0
  1  4  1  0  0  0  0
  1  7  1  0  0  0  0
  1  8  1  0  0  0  0
  1 10  2  0  0  0  0
  2 14  1  0  0  0  0
  2 15  1  0  0  0  0
  3 13  1  0  0  0  0
  3 30  1  0  0  0  0
  4 17  1  0  0  0  0
  5 19  2  0  0  0  0
  6 21  2  0  0  0  0
  7 36  1  0  0  0  0
  8 35  1  0  0  0  0
  9 22  1  0  0  0  0
  9 37  1  0  0  0  0
 11 15  1  0  0  0  0
 11 18  1  0  0  0  0
 11 19  1  0  0  0  0
 12 19  1  0  0  0  0
 12 21  1  0  0  0  0
 12 32  1  0  0  0  0
 13 14  1  0  0  0  0
 13 16  1  0  0  0  0
 13 23  1  0  0  0  0
 14 17  1  0  0  0  0
 14 24  1  0  0  0  0
 15 16  1  0  0  0  0
 15 25  1  0  0  0  0
 16 26  1  0  0  0  0
 16 27  1  0  0  0  0
 17 28  1  0  0  0  0
 17 29  1  0  0  0  0
 18 20  2  0  0  0  0
 18 31  1  0  0  0  0
 20 21  1  0  0  0  0
 20 22  1  0  0  0  0
 22 33  1  0  0  0  0
 22 34  1  0  0  0  0
M  END
> <PUBCHEM_COMPOUND_CID>
138756762

> <PUBCHEM_CONFORMER_RMSD>
0.8

> <PUBCHEM_CONFORMER_DIVERSEORDER>
1
54
123
87
74
100
125
45
126
63
18
107
99
35
92
41
14
65
111
55
64
66
86
78
103
4
83
11
118
129
115
2
58
23
69
71
112
43
114
33
108
46
48
89
49
85
31
102
47
42
128
106
62
104
95
75
10
98
36
51
97
25
38
7
90
93
101
131
84
67
34
29
120
121
96
124
122
57
81
82
12
59
44
16
113
77
37
109
70
9
72
94
30
116
53
39
76
50
88
3
73
13
79
60
61
28
40
5
80
56
119
127
19
22
68
21
17
27
110
130
15
26
117
32
105
91
24
52
8
6
20

> <PUBCHEM_MMFF94_PARTIAL_CHARGES>
27
1 1.51
10 -0.7
11 -0.47
12 -0.49
13 0.28
14 0.28
15 0.58
17 0.28
18 -0.04
19 0.69
2 -0.56
20 -0.12
21 0.62
22 0.42
3 -0.68
30 0.4
31 0.15
32 0.37
35 0.5
36 0.5
37 0.4
4 -0.55
5 -0.57
6 -0.57
7 -0.77
8 -0.77
9 -0.68

> <PUBCHEM_EFFECTIVE_ROTOR_COUNT>
6

> <PUBCHEM_PHARMACOPHORE_FEATURES>
14
1 10 acceptor
1 12 donor
1 2 acceptor
1 3 acceptor
1 3 donor
1 5 acceptor
1 6 acceptor
1 7 acceptor
1 8 acceptor
1 9 acceptor
1 9 donor
4 1 7 8 10 anion
5 2 13 14 15 16 rings
6 11 12 18 19 20 21 rings

> <PUBCHEM_HEAVY_ATOM_COUNT>
22

> <PUBCHEM_ATOM_DEF_STEREO_COUNT>
2

> <PUBCHEM_ATOM_UDEF_STEREO_COUNT>
1

> <PUBCHEM_BOND_DEF_STEREO_COUNT>
0

> <PUBCHEM_BOND_UDEF_STEREO_COUNT>
0

> <PUBCHEM_ISOTOPIC_ATOM_COUNT>
0

> <PUBCHEM_COMPONENT_COUNT>
1

> <PUBCHEM_CACTVS_TAUTO_COUNT>
-1

> <PUBCHEM_CONFORMER_ID>
0845429A00000001

> <PUBCHEM_MMFF94_ENERGY>
14.3075

> <PUBCHEM_FEATURE_SELFOVERLAP>
71.09

> <PUBCHEM_SHAPE_FINGERPRINT>
114674 6 18409449189178603466
11796584 16 17754727235704733298
12363563 72 17967819383410001073
12549972 3 17771318925501071208
12596602 18 16415195723745783115
12633257 1 17131831001460255231
12892183 10 17988648549072330257
13402501 40 18408886260789539890
13533116 47 18131351955897283715
13544653 18 18413388765463591165
13911882 115 18343304747658635910
14252887 29 18336826497866597289
14386348 63 18334292076488731839
14790565 3 17472701806625828268
14863182 85 18119818151308610316
15352361 1 18407760348213858751
15422964 175 18408882953732839277
1813 80 17676779725137726549
19141452 34 18411142403368529513
193927 3 17894635893950186361
20403669 9 18335136488454976871
20871998 22 18335702775629674925
221490 88 18269271271206542774
23557571 272 18187074027749576789
23559900 14 18335974294729879116
31174 14 18201998828712874580
3421961 26 18339364166408263927
5104073 3 18270106917228927080
5352402 22 18343587347504950955
5486654 36 18055364543296153850
621550 34 18341320197552464192
6433294 58 18265894653122233594
7399639 24 18267849731363111464
9709674 26 18267857290040789780
9795274 37 17975973155446942418

> <PUBCHEM_SHAPE_MULTIPOLES>
393.81
10.53
3.5
1.16
7.66
0.65
0.11
8.22
2.39
-0.33
-0.46
0.21
-0.24
2.08

> <PUBCHEM_SHAPE_SELFOVERLAP>
805.794

> <PUBCHEM_SHAPE_VOLUME>
227.1

> <PUBCHEM_COORDINATE_TYPE>
2
5
10

$$$$
