13871040
  -OEChem-03292013303D

 32 34  0     1  0  0  0  0  0999 V2000
    2.3048   -0.0858   -0.9653 O   0  0  0  0  0  0  0  0  0  0  0  0
    3.4941    2.5075    0.0579 O   0  0  0  0  0  0  0  0  0  0  0  0
    4.1825   -2.1424   -0.6588 O   0  0  0  0  0  0  0  0  0  0  0  0
   -4.0298   -1.9739    0.2962 O   0  0  0  0  0  0  0  0  0  0  0  0
    0.1224   -0.2439   -0.0452 N   0  0  0  0  0  0  0  0  0  0  0  0
   -1.9662   -0.9932    0.1104 N   0  0  0  0  0  0  0  0  0  0  0  0
   -1.7648    1.3093   -0.2244 N   0  0  0  0  0  0  0  0  0  0  0  0
   -3.9031    0.2867   -0.0276 N   0  0  0  0  0  0  0  0  0  0  0  0
   -3.7485    2.5777   -0.3595 N   0  0  0  0  0  0  0  0  0  0  0  0
    1.2623    0.6091   -0.2616 C   0  0  1  0  0  0  0  0  0  0  0  0
    1.8560    1.0727    1.0597 C   0  0  0  0  0  0  0  0  0  0  0  0
    3.3148    1.2526    0.7105 C   0  0  1  0  0  0  0  0  0  0  0  0
    3.5615    0.1403   -0.2977 C   0  0  1  0  0  0  0  0  0  0  0  0
    3.9877   -1.1688    0.3538 C   0  0  0  0  0  0  0  0  0  0  0  0
   -1.2078    0.1582   -0.0716 C   0  0  0  0  0  0  0  0  0  0  0  0
    0.1449   -1.6181    0.1428 C   0  0  0  0  0  0  0  0  0  0  0  0
   -1.1160   -2.0718    0.2399 C   0  0  0  0  0  0  0  0  0  0  0  0
   -3.3427   -0.9660    0.1382 C   0  0  0  0  0  0  0  0  0  0  0  0
   -3.1519    1.3500   -0.1977 C   0  0  0  0  0  0  0  0  0  0  0  0
    0.9876    1.4713   -0.8812 H   0  0  0  0  0  0  0  0  0  0  0  0
    1.7522    0.3030    1.8341 H   0  0  0  0  0  0  0  0  0  0  0  0
    1.3682    1.9841    1.4195 H   0  0  0  0  0  0  0  0  0  0  0  0
    3.9850    1.2204    1.5741 H   0  0  0  0  0  0  0  0  0  0  0  0
    4.2844    0.4290   -1.0690 H   0  0  0  0  0  0  0  0  0  0  0  0
    3.2362   -1.5537    1.0493 H   0  0  0  0  0  0  0  0  0  0  0  0
    4.9309   -1.0465    0.8946 H   0  0  0  0  0  0  0  0  0  0  0  0
    1.0686   -2.1695    0.1894 H   0  0  0  0  0  0  0  0  0  0  0  0
    3.2714    3.2031    0.6999 H   0  0  0  0  0  0  0  0  0  0  0  0
   -1.4740   -3.0772    0.3867 H   0  0  0  0  0  0  0  0  0  0  0  0
    3.3422   -2.2375   -1.1390 H   0  0  0  0  0  0  0  0  0  0  0  0
   -4.7576    2.6772   -0.3498 H   0  0  0  0  0  0  0  0  0  0  0  0
   -3.1955    3.4174   -0.4925 H   0  0  0  0  0  0  0  0  0  0  0  0
  1 10  1  0  0  0  0
  1 13  1  0  0  0  0
  2 12  1  0  0  0  0
  2 28  1  0  0  0  0
  3 14  1  0  0  0  0
  3 30  1  0  0  0  0
  4 18  2  0  0  0  0
  5 10  1  0  0  0  0
  5 15  1  0  0  0  0
  5 16  1  0  0  0  0
  6 15  1  0  0  0  0
  6 17  1  0  0  0  0
  6 18  1  0  0  0  0
  7 15  2  0  0  0  0
  7 19  1  0  0  0  0
  8 18  1  0  0  0  0
  8 19  2  0  0  0  0
  9 19  1  0  0  0  0
  9 31  1  0  0  0  0
  9 32  1  0  0  0  0
 10 11  1  0  0  0  0
 10 20  1  0  0  0  0
 11 12  1  0  0  0  0
 11 21  1  0  0  0  0
 11 22  1  0  0  0  0
 12 13  1  0  0  0  0
 12 23  1  0  0  0  0
 13 14  1  0  0  0  0
 13 24  1  0  0  0  0
 14 25  1  0  0  0  0
 14 26  1  0  0  0  0
 16 17  2  0  0  0  0
 16 27  1  0  0  0  0
 17 29  1  0  0  0  0
M  END
> <PUBCHEM_COMPOUND_CID>
13871040

> <PUBCHEM_CONFORMER_RMSD>
0.6

> <PUBCHEM_CONFORMER_DIVERSEORDER>
1
16
10
5
7
17
11
14
4
2
13
8
12
6
3
15
9

> <PUBCHEM_MMFF94_PARTIAL_CHARGES>
24
1 -0.56
10 0.65
12 0.28
13 0.28
14 0.28
15 0.56
16 -0.05
17 -0.04
18 0.84
19 0.71
2 -0.68
27 0.15
28 0.4
29 0.15
3 -0.68
30 0.4
31 0.4
32 0.4
4 -0.57
5 -0.52
6 -0.23
7 -0.66
8 -0.66
9 -0.85

> <PUBCHEM_EFFECTIVE_ROTOR_COUNT>
3

> <PUBCHEM_PHARMACOPHORE_FEATURES>
11
1 1 acceptor
1 2 acceptor
1 2 donor
1 3 acceptor
1 3 donor
1 4 acceptor
1 8 donor
1 9 donor
5 1 10 11 12 13 rings
5 5 6 15 16 17 rings
6 6 7 8 15 18 19 rings

> <PUBCHEM_HEAVY_ATOM_COUNT>
19

> <PUBCHEM_ATOM_DEF_STEREO_COUNT>
3

> <PUBCHEM_ATOM_UDEF_STEREO_COUNT>
0

> <PUBCHEM_BOND_DEF_STEREO_COUNT>
0

> <PUBCHEM_BOND_UDEF_STEREO_COUNT>
0

> <PUBCHEM_ISOTOPIC_ATOM_COUNT>
0

> <PUBCHEM_COMPONENT_COUNT>
1

> <PUBCHEM_CACTVS_TAUTO_COUNT>
3

> <PUBCHEM_CONFORMER_ID>
00D3A7C000000001

> <PUBCHEM_MMFF94_ENERGY>
69.3759

> <PUBCHEM_FEATURE_SELFOVERLAP>
55.999

> <PUBCHEM_SHAPE_FINGERPRINT>
10062212 137 18338789018568997579
10608611 8 18412542145425447200
10646746 165 18410572877166121724
1100329 8 16539049833088503624
11132069 177 18260263062381396509
11405975 8 18341614780615998377
12173636 292 18408880759062527781
12403259 226 18412541033171231937
12403259 415 18411983554848026553
12403260 363 18412252939549593903
12500047 106 18410853287391681262
12507560 40 18341045298481445816
13134695 92 17274810308621359112
13675066 3 18201711843345812330
14178342 30 18119516894124010306
14289901 80 18339078319017787000
14866123 147 16759453574896645890
15196674 1 18410011043793239193
15219456 202 18343581867184619076
15442244 35 18410292484874565120
15536298 74 18411416219986145234
17492 89 18410574019675603294
17804303 29 18409170970039738966
18186145 218 18202010914523933760
19049666 15 18341612641927811866
200 152 17418087711506707127
20510252 161 18340488971262223633
20645477 70 17846509153353119166
21065198 57 18411418392922832436
21065199 12 18411979199914504552
21524375 3 18335983048025773735
23402539 116 18268138941739192791
23559900 14 18343017753769840264
2748010 2 18336554811473749591
3004659 81 18116160957515032878
335352 9 18194401095695172852
350125 39 18409736127627286947
4214541 1 18410011022460983408
43471831 8 18186794786251072019
495365 180 17560504167208292488
5104073 3 18410293618286866297
633830 44 18410566267190185621
69090 78 18201997784867237599
7364860 26 18123749747207609239
77779 3 18410012147805699008
9709674 26 18410577331279699522

> <PUBCHEM_SHAPE_MULTIPOLES>
342.63
8.53
2.49
0.76
0.49
0.25
0.04
0.39
-0.2
-0.37
-0.01
0.4
0.04
0.87

> <PUBCHEM_SHAPE_SELFOVERLAP>
743.618

> <PUBCHEM_SHAPE_VOLUME>
186

> <PUBCHEM_COORDINATE_TYPE>
2
5
10

$$$$
