13871063
  -OEChem-03292013303D

 30 31  0     1  0  0  0  0  0999 V2000
    1.3737    0.5388   -0.6776 O   0  0  0  0  0  0  0  0  0  0  0  0
    3.3270   -1.3207    1.6907 O   0  0  0  0  0  0  0  0  0  0  0  0
    3.5571    2.3048   -0.8584 O   0  0  0  0  0  0  0  0  0  0  0  0
   -1.7783   -2.0423   -1.3289 O   0  0  0  0  0  0  0  0  0  0  0  0
   -0.7927   -0.2390   -0.2379 N   0  0  0  0  0  0  0  0  0  0  0  0
   -3.1260   -0.4838   -0.3376 N   0  0  0  0  0  0  0  0  0  0  0  0
   -2.3633    1.4092    0.8057 N   0  0  0  0  0  0  0  0  0  0  0  0
   -4.6522    1.0185    0.5765 N   0  0  0  0  0  0  0  0  0  0  0  0
    0.5576   -0.6324   -0.5159 C   0  0  2  0  0  0  0  0  0  0  0  0
    2.6363   -1.0841    0.4820 C   0  0  1  0  0  0  0  0  0  0  0  0
    1.1774   -1.4558    0.5984 C   0  0  0  0  0  0  0  0  0  0  0  0
    2.5413    0.3961    0.1486 C   0  0  1  0  0  0  0  0  0  0  0  0
    3.7563    0.9280   -0.5905 C   0  0  0  0  0  0  0  0  0  0  0  0
   -0.9922    0.9770    0.5542 C   0  0  0  0  0  0  0  0  0  0  0  0
   -1.8824   -0.9995   -0.6806 C   0  0  0  0  0  0  0  0  0  0  0  0
   -3.3395    0.6854    0.3714 C   0  0  0  0  0  0  0  0  0  0  0  0
    0.5947   -1.1910   -1.4586 H   0  0  0  0  0  0  0  0  0  0  0  0
    3.1072   -1.6568   -0.3259 H   0  0  0  0  0  0  0  0  0  0  0  0
    0.9974   -2.5293    0.4809 H   0  0  0  0  0  0  0  0  0  0  0  0
    0.7900   -1.1817    1.5877 H   0  0  0  0  0  0  0  0  0  0  0  0
    2.3736    0.9979    1.0511 H   0  0  0  0  0  0  0  0  0  0  0  0
    3.8984    0.4191   -1.5495 H   0  0  0  0  0  0  0  0  0  0  0  0
    4.6664    0.8190    0.0060 H   0  0  0  0  0  0  0  0  0  0  0  0
   -0.4928    1.8028    0.0368 H   0  0  0  0  0  0  0  0  0  0  0  0
   -0.4926    0.8330    1.5182 H   0  0  0  0  0  0  0  0  0  0  0  0
    4.2348   -0.9912    1.5794 H   0  0  0  0  0  0  0  0  0  0  0  0
   -3.9435   -1.0037   -0.6432 H   0  0  0  0  0  0  0  0  0  0  0  0
    2.7431    2.3871   -1.3842 H   0  0  0  0  0  0  0  0  0  0  0  0
   -5.4067    0.4381    0.2267 H   0  0  0  0  0  0  0  0  0  0  0  0
   -4.9075    1.8582    1.0847 H   0  0  0  0  0  0  0  0  0  0  0  0
  1  9  1  0  0  0  0
  1 12  1  0  0  0  0
  2 10  1  0  0  0  0
  2 26  1  0  0  0  0
  3 13  1  0  0  0  0
  3 28  1  0  0  0  0
  4 15  2  0  0  0  0
  5  9  1  0  0  0  0
  5 14  1  0  0  0  0
  5 15  1  0  0  0  0
  6 15  1  0  0  0  0
  6 16  1  0  0  0  0
  6 27  1  0  0  0  0
  7 14  1  0  0  0  0
  7 16  2  0  0  0  0
  8 16  1  0  0  0  0
  8 29  1  0  0  0  0
  8 30  1  0  0  0  0
  9 11  1  0  0  0  0
  9 17  1  0  0  0  0
 10 11  1  0  0  0  0
 10 12  1  0  0  0  0
 10 18  1  0  0  0  0
 11 19  1  0  0  0  0
 11 20  1  0  0  0  0
 12 13  1  0  0  0  0
 12 21  1  0  0  0  0
 13 22  1  0  0  0  0
 13 23  1  0  0  0  0
 14 24  1  0  0  0  0
 14 25  1  0  0  0  0
M  END
> <PUBCHEM_COMPOUND_CID>
13871063

> <PUBCHEM_CONFORMER_RMSD>
0.6

> <PUBCHEM_CONFORMER_DIVERSEORDER>
1
9
11
5
2
6
10
7
8
4
3

> <PUBCHEM_MMFF94_PARTIAL_CHARGES>
20
1 -0.56
10 0.28
12 0.28
13 0.28
14 0.55
15 0.69
16 0.56
2 -0.68
26 0.4
27 0.37
28 0.4
29 0.4
3 -0.68
30 0.4
4 -0.57
5 -0.66
6 -0.49
7 -0.7
8 -0.85
9 0.58

> <PUBCHEM_EFFECTIVE_ROTOR_COUNT>
3.6

> <PUBCHEM_PHARMACOPHORE_FEATURES>
10
1 1 acceptor
1 2 acceptor
1 2 donor
1 3 acceptor
1 3 donor
1 4 acceptor
1 6 donor
1 8 donor
5 1 9 10 11 12 rings
6 5 6 7 14 15 16 rings

> <PUBCHEM_HEAVY_ATOM_COUNT>
16

> <PUBCHEM_ATOM_DEF_STEREO_COUNT>
3

> <PUBCHEM_ATOM_UDEF_STEREO_COUNT>
0

> <PUBCHEM_BOND_DEF_STEREO_COUNT>
0

> <PUBCHEM_BOND_UDEF_STEREO_COUNT>
0

> <PUBCHEM_ISOTOPIC_ATOM_COUNT>
0

> <PUBCHEM_COMPONENT_COUNT>
1

> <PUBCHEM_CACTVS_TAUTO_COUNT>
5

> <PUBCHEM_CONFORMER_ID>
00D3A7D700000001

> <PUBCHEM_MMFF94_ENERGY>
40.6437

> <PUBCHEM_FEATURE_SELFOVERLAP>
50.796

> <PUBCHEM_SHAPE_FINGERPRINT>
11132069 177 17845928542309371643
12251169 10 18339072684068329810
12346645 44 18336829800849285708
12932764 1 18040431071041694550
13538477 17 18343014506099454719
14144814 61 18341892982801092987
15279307 12 18412825785076432502
15342168 16 17677346041965777956
15669948 3 18130783511957933055
15775835 57 18411425015783748724
16945 1 17917423246149068791
17846911 113 17775278314660027585
1813 80 17972881355004678266
18186145 218 18260264148881385542
19026448 4 16877660137173298477
19049666 15 15286457865648470070
19422 9 18410288125066353015
201361 129 18335423473964028832
20279233 1 15502371235905961739
204376 136 17459758214689528316
20559304 39 18340487751464877784
20645476 183 18411986896691071391
20645477 70 17531788187107408394
2255824 54 18187082828564853506
22854114 111 18261111872304215624
23048698 100 18261112945898249265
23236772 104 18336828692468167883
23402539 116 17559938962296891781
23557571 272 16342842382290867754
23559900 14 17632304423753793414
23598291 2 18410285900452538182
23598294 1 18201434839303800335
2748010 2 17402601953481193430
474 4 17969508293442473076
57096353 35 18269549597328563199
633830 44 18189063156412017092
7364860 26 18200600172655344782
7615 1 18267564936038583670
77492 1 18410284830878950774
88987 49 17703498978309830286

> <PUBCHEM_SHAPE_MULTIPOLES>
285.87
7.33
1.85
1.08
1.83
0.1
-0.11
2.74
-0.73
-0.69
0.23
-0.39
-0.27
-1.81

> <PUBCHEM_SHAPE_SELFOVERLAP>
592.775

> <PUBCHEM_SHAPE_VOLUME>
162

> <PUBCHEM_COORDINATE_TYPE>
2
5
10

$$$$
