13888976
  -OEChem-03292013303D

 36 38  0     1  0  0  0  0  0999 V2000
    0.9585   -1.0179    0.8018 O   0  0  0  0  0  0  0  0  0  0  0  0
   -0.5767    2.3027    1.0602 O   0  0  0  0  0  0  0  0  0  0  0  0
    1.7935    2.8898   -0.1552 O   0  0  0  0  0  0  0  0  0  0  0  0
    5.3649   -2.3652   -0.3114 O   0  0  0  0  0  0  0  0  0  0  0  0
   -3.8102   -2.6902    0.0850 O   0  0  0  0  0  0  0  0  0  0  0  0
   -5.8978   -0.8584    0.1859 O   0  0  0  0  0  0  0  0  0  0  0  0
    0.1065    1.2492    0.3978 C   0  0  2  0  0  0  0  0  0  0  0  0
   -0.6419    0.8936   -0.8858 C   0  0  0  0  0  0  0  0  0  0  0  0
    0.2198    0.0710    1.3592 C   0  0  0  0  0  0  0  0  0  0  0  0
    1.5119    1.7178    0.0673 C   0  0  0  0  0  0  0  0  0  0  0  0
    2.5430    0.6591    0.0014 C   0  0  0  0  0  0  0  0  0  0  0  0
   -2.0419    0.4237   -0.5995 C   0  0  0  0  0  0  0  0  0  0  0  0
    2.2030   -0.6498    0.3592 C   0  0  0  0  0  0  0  0  0  0  0  0
    3.8343    0.9572   -0.4410 C   0  0  0  0  0  0  0  0  0  0  0  0
   -2.2798   -0.9276   -0.3868 C   0  0  0  0  0  0  0  0  0  0  0  0
   -3.0779    1.3468   -0.5522 C   0  0  0  0  0  0  0  0  0  0  0  0
    3.1500   -1.6681    0.2399 C   0  0  0  0  0  0  0  0  0  0  0  0
    4.7815   -0.0625   -0.5400 C   0  0  0  0  0  0  0  0  0  0  0  0
    4.4391   -1.3728   -0.2047 C   0  0  0  0  0  0  0  0  0  0  0  0
   -3.5779   -1.3639   -0.1218 C   0  0  0  0  0  0  0  0  0  0  0  0
   -4.3760    0.9104   -0.2873 C   0  0  0  0  0  0  0  0  0  0  0  0
   -4.6260   -0.4448   -0.0721 C   0  0  0  0  0  0  0  0  0  0  0  0
   -0.1078    0.1315   -1.4682 H   0  0  0  0  0  0  0  0  0  0  0  0
   -0.6934    1.7705   -1.5465 H   0  0  0  0  0  0  0  0  0  0  0  0
    0.7158    0.3850    2.2903 H   0  0  0  0  0  0  0  0  0  0  0  0
   -0.7545   -0.2974    1.6947 H   0  0  0  0  0  0  0  0  0  0  0  0
   -0.6666    3.0444    0.4376 H   0  0  0  0  0  0  0  0  0  0  0  0
    4.1168    1.9680   -0.7214 H   0  0  0  0  0  0  0  0  0  0  0  0
   -1.4664   -1.6463   -0.4385 H   0  0  0  0  0  0  0  0  0  0  0  0
   -2.8965    2.4046   -0.7203 H   0  0  0  0  0  0  0  0  0  0  0  0
    2.8815   -2.6885    0.5030 H   0  0  0  0  0  0  0  0  0  0  0  0
    5.7849    0.1693   -0.8870 H   0  0  0  0  0  0  0  0  0  0  0  0
   -5.1881    1.6314   -0.2502 H   0  0  0  0  0  0  0  0  0  0  0  0
    4.9588   -3.2061   -0.0396 H   0  0  0  0  0  0  0  0  0  0  0  0
   -2.9695   -3.1743    0.0142 H   0  0  0  0  0  0  0  0  0  0  0  0
   -5.8866   -1.8236    0.3089 H   0  0  0  0  0  0  0  0  0  0  0  0
  1  9  1  0  0  0  0
  1 13  1  0  0  0  0
  2  7  1  0  0  0  0
  2 27  1  0  0  0  0
  3 10  2  0  0  0  0
  4 19  1  0  0  0  0
  4 34  1  0  0  0  0
  5 20  1  0  0  0  0
  5 35  1  0  0  0  0
  6 22  1  0  0  0  0
  6 36  1  0  0  0  0
  7  8  1  0  0  0  0
  7  9  1  0  0  0  0
  7 10  1  0  0  0  0
  8 12  1  0  0  0  0
  8 23  1  0  0  0  0
  8 24  1  0  0  0  0
  9 25  1  0  0  0  0
  9 26  1  0  0  0  0
 10 11  1  0  0  0  0
 11 13  2  0  0  0  0
 11 14  1  0  0  0  0
 12 15  2  0  0  0  0
 12 16  1  0  0  0  0
 13 17  1  0  0  0  0
 14 18  2  0  0  0  0
 14 28  1  0  0  0  0
 15 20  1  0  0  0  0
 15 29  1  0  0  0  0
 16 21  2  0  0  0  0
 16 30  1  0  0  0  0
 17 19  2  0  0  0  0
 17 31  1  0  0  0  0
 18 19  1  0  0  0  0
 18 32  1  0  0  0  0
 20 22  2  0  0  0  0
 21 22  1  0  0  0  0
 21 33  1  0  0  0  0
M  END
> <PUBCHEM_COMPOUND_CID>
13888976

> <PUBCHEM_CONFORMER_RMSD>
0.6

> <PUBCHEM_CONFORMER_DIVERSEORDER>
1
10
7
11
14
9
5
4
8
12
2
6
13
16
3
15

> <PUBCHEM_MMFF94_PARTIAL_CHARGES>
32
1 -0.36
10 0.42
11 0.09
12 -0.14
13 0.08
14 -0.15
15 -0.15
16 -0.15
17 -0.15
18 -0.15
19 0.08
2 -0.68
20 0.08
21 -0.15
22 0.08
27 0.4
28 0.15
29 0.15
3 -0.57
30 0.15
31 0.15
32 0.15
33 0.15
34 0.45
35 0.45
36 0.45
4 -0.53
5 -0.53
6 -0.53
7 0.34
8 0.14
9 0.28

> <PUBCHEM_EFFECTIVE_ROTOR_COUNT>
2.6

> <PUBCHEM_PHARMACOPHORE_FEATURES>
10
1 1 acceptor
1 2 acceptor
1 2 donor
1 3 acceptor
1 4 donor
1 5 donor
1 6 donor
6 1 7 9 10 11 13 rings
6 11 13 14 17 18 19 rings
6 12 15 16 20 21 22 rings

> <PUBCHEM_HEAVY_ATOM_COUNT>
22

> <PUBCHEM_ATOM_DEF_STEREO_COUNT>
1

> <PUBCHEM_ATOM_UDEF_STEREO_COUNT>
0

> <PUBCHEM_BOND_DEF_STEREO_COUNT>
0

> <PUBCHEM_BOND_UDEF_STEREO_COUNT>
0

> <PUBCHEM_ISOTOPIC_ATOM_COUNT>
0

> <PUBCHEM_COMPONENT_COUNT>
1

> <PUBCHEM_CACTVS_TAUTO_COUNT>
90

> <PUBCHEM_CONFORMER_ID>
00D3EDD000000001

> <PUBCHEM_MMFF94_ENERGY>
63.0807

> <PUBCHEM_FEATURE_SELFOVERLAP>
50.787

> <PUBCHEM_SHAPE_FINGERPRINT>
10616163 171 18338797939532550127
11045515 52 18187647955824406292
11135609 187 18191595361861940908
12011746 2 18336537249600383279
12107183 9 18197787596384283401
12236239 1 18201442449764114576
12553582 1 18337656538835262123
12596602 18 13758062000536968943
12633257 1 18202013148587585099
12670546 177 18113623374159425190
12788726 201 17846510192281900944
13533116 47 18126559253484155871
14251764 38 9655579629754250755
14341114 176 18410859875787143237
14576447 43 18336547132093303658
14790565 3 17689434880287832989
14866123 147 17622448242365934961
15188451 53 15410313564820538477
15196674 1 18409446985780512110
15238133 3 16988579995797167489
15352361 1 18411981334534498982
15536298 74 18339074990312825825
17804303 29 18410854365613134469
1813 80 17988935444049945996
18186145 218 17822282487770178716
193927 3 17916875621182343942
19784866 240 18343026553503708534
200 152 18341049636292809272
21250096 35 18273494576440277016
21267235 1 18410863135271948382
21713013 43 18113328704679301375
221357 26 18407755941629751325
221490 88 18263648522748859338
2215653 11 18410845560961787575
22393880 68 18040987410787096588
22950370 63 18412548712525095999
23379529 103 18341901804865145894
23402539 116 18338511946466158014
23559900 14 18411971477516171265
23566358 27 18190463950994365437
2838139 119 15864083104567578598
2871803 45 18113327631174827751
3004659 81 18260829259530586094
314173 41 18411420600826160142
3323516 105 18333729139108891432
335352 9 18339359661383541085
350125 39 18408886214262057957
4214541 1 18409446964770055221
46194498 28 17604149332280004781
465052 167 18272937145620318143
4921388 177 16588316015856504571
5104073 3 18342454824695397624
6287921 2 17824546494034439869
633830 44 16805606975146332085
6786 2 16477662496924399040
77779 3 18409166631974973013
9709674 26 18190180272694182891

> <PUBCHEM_SHAPE_MULTIPOLES>
417.53
11.06
2.45
0.88
2.49
0.03
-0.12
-6.01
1.69
-0.61
-0.09
-0.05
0.13
0.17

> <PUBCHEM_SHAPE_SELFOVERLAP>
925.73

> <PUBCHEM_SHAPE_VOLUME>
221.4

> <PUBCHEM_COORDINATE_TYPE>
2
5
10

$$$$
