13894650
  -OEChem-03292013303D

 33 32  0     1  0  0  0  0  0999 V2000
   -3.2059   -2.0156    0.4223 S   0  0  0  0  0  0  0  0  0  0  0  0
   -0.0380    0.8723   -1.9134 O   0  0  0  0  0  0  0  0  0  0  0  0
    3.4927   -0.7512    1.9522 O   0  0  0  0  0  0  0  0  0  0  0  0
   -2.8482    1.4728    1.7909 O   0  0  0  0  0  0  0  0  0  0  0  0
    4.4962   -1.7168    0.1629 O   0  0  0  0  0  0  0  0  0  0  0  0
   -4.6005    1.4738    0.3524 O   0  0  0  0  0  0  0  0  0  0  0  0
   -1.1307    0.4974    0.1019 N   0  0  0  0  0  0  0  0  0  0  0  0
    4.9642    0.7919   -0.8787 N   0  0  0  0  0  0  0  0  0  0  0  0
    2.5198    0.6869   -0.7812 C   0  0  0  0  0  0  0  0  0  0  0  0
    1.2738    0.5164    0.0904 C   0  0  0  0  0  0  0  0  0  0  0  0
    3.8226    0.6215    0.0235 C   0  0  1  0  0  0  0  0  0  0  0  0
   -2.4806    0.5739   -0.4065 C   0  0  1  0  0  0  0  0  0  0  0  0
   -0.0131    0.6551   -0.7050 C   0  0  0  0  0  0  0  0  0  0  0  0
   -2.9831   -0.7838   -0.9039 C   0  0  0  0  0  0  0  0  0  0  0  0
    3.9925   -0.7323    0.6890 C   0  0  0  0  0  0  0  0  0  0  0  0
   -3.4294    1.2096    0.5962 C   0  0  0  0  0  0  0  0  0  0  0  0
   -3.8322   -3.3719   -0.5930 C   0  0  0  0  0  0  0  0  0  0  0  0
    2.4631    1.6500   -1.3058 H   0  0  0  0  0  0  0  0  0  0  0  0
    2.5160   -0.0908   -1.5573 H   0  0  0  0  0  0  0  0  0  0  0  0
    1.2676    1.2695    0.8872 H   0  0  0  0  0  0  0  0  0  0  0  0
    1.2627   -0.4753    0.5563 H   0  0  0  0  0  0  0  0  0  0  0  0
    3.8562    1.4088    0.7847 H   0  0  0  0  0  0  0  0  0  0  0  0
   -2.4555    1.2627   -1.2611 H   0  0  0  0  0  0  0  0  0  0  0  0
   -1.0031    0.3002    1.0905 H   0  0  0  0  0  0  0  0  0  0  0  0
   -3.9524   -0.6507   -1.3971 H   0  0  0  0  0  0  0  0  0  0  0  0
   -2.2830   -1.1945   -1.6398 H   0  0  0  0  0  0  0  0  0  0  0  0
    5.8259    0.8310   -0.3351 H   0  0  0  0  0  0  0  0  0  0  0  0
    4.8904    1.6894   -1.3563 H   0  0  0  0  0  0  0  0  0  0  0  0
   -4.0301   -4.2375    0.0448 H   0  0  0  0  0  0  0  0  0  0  0  0
   -3.0932   -3.6582   -1.3459 H   0  0  0  0  0  0  0  0  0  0  0  0
   -4.7652   -3.0827   -1.0837 H   0  0  0  0  0  0  0  0  0  0  0  0
    3.5931   -1.6322    2.3718 H   0  0  0  0  0  0  0  0  0  0  0  0
   -3.4754    1.8884    2.4204 H   0  0  0  0  0  0  0  0  0  0  0  0
  1 14  1  0  0  0  0
  1 17  1  0  0  0  0
  2 13  2  0  0  0  0
  3 15  1  0  0  0  0
  3 32  1  0  0  0  0
  4 16  1  0  0  0  0
  4 33  1  0  0  0  0
  5 15  2  0  0  0  0
  6 16  2  0  0  0  0
  7 12  1  0  0  0  0
  7 13  1  0  0  0  0
  7 24  1  0  0  0  0
  8 11  1  0  0  0  0
  8 27  1  0  0  0  0
  8 28  1  0  0  0  0
  9 10  1  0  0  0  0
  9 11  1  0  0  0  0
  9 18  1  0  0  0  0
  9 19  1  0  0  0  0
 10 13  1  0  0  0  0
 10 20  1  0  0  0  0
 10 21  1  0  0  0  0
 11 15  1  0  0  0  0
 11 22  1  0  0  0  0
 12 14  1  0  0  0  0
 12 16  1  0  0  0  0
 12 23  1  0  0  0  0
 14 25  1  0  0  0  0
 14 26  1  0  0  0  0
 17 29  1  0  0  0  0
 17 30  1  0  0  0  0
 17 31  1  0  0  0  0
M  END
> <PUBCHEM_COMPOUND_CID>
13894650

> <PUBCHEM_CONFORMER_RMSD>
0.8

> <PUBCHEM_CONFORMER_DIVERSEORDER>
1
356
35
73
275
216
300
315
255
365
400
31
258
102
230
393
298
144
58
219
208
280
397
285
101
384
118
392
213
53
436
89
247
217
287
225
405
153
425
122
352
370
85
414
226
291
276
60
432
422
103
193
164
278
363
344
394
27
308
16
330
209
347
211
46
385
391
86
141
126
410
351
304
299
124
254
212
421
376
260
130
19
162
159
30
236
399
270
197
218
316
67
237
47
15
194
268
354
214
341
413
14
321
331
123
242
8
4
191
314
195
346
266
146
256
362
157
398
48
135
10
192
108
395
411
293
426
45
206
160
359
239
128
343
235
324
317
437
72
11
87
2
152
117
50
340
84
41
334
433
224
133
111
222
369
34
201
328
404
389
379
295
430
74
435
29
155
277
358
173
185
65
62
198
169
322
94
221
220
121
228
350
289
203
265
417
210
402
420
167
110
174
306
319
244
257
13
284
183
69
202
355
274
227
28
68
142
403
337
409
109
339
106
75
165
248
114
279
187
181
98
36
215
434
20
172
105
273
281
229
184
263
286
79
345
357
310
249
424
200
238
163
131
91
318
364
42
338
412
23
120
171
161
99
240
243
22
406
329
76
333
423
104
416
140
253
353
251
83
44
82
320
262
64
179
129
259
283
427
378
294
149
39
292
245
100
407
77
205
178
93
156
177
148
312
302
88
282
419
348
59
95
12
147
7
158
168
326
366
151
132
264
269
323
154
418
182
396
107
290
37
166
61
261
25
207
138
56
21
371
252
307
401
368
305
119
288
223
250
415
327
43
383
204
9
97
24
332
241
408
388
387
438
136
336
381
297
78
267
90
92
367
66
301
81
55
33
57
80
311
372
360
96
52
313
180
382
232
145
390
139
112
18
188
150
431
272
175
196
377
32
189
190
40
70
127
170
231
199
6
296
428
71
115
386
116
38
325
342
137
49
309
125
186
54
176
373
26
134
271
246
380
17
234
349
51
113
374
63
143
233
3
375
361
335
429
303
5

> <PUBCHEM_MMFF94_PARTIAL_CHARGES>
21
1 -0.46
10 0.06
11 0.33
12 0.36
13 0.57
14 0.23
15 0.66
16 0.66
17 0.23
2 -0.57
24 0.37
27 0.36
28 0.36
3 -0.65
32 0.5
33 0.5
4 -0.65
5 -0.57
6 -0.57
7 -0.73
8 -0.99

> <PUBCHEM_EFFECTIVE_ROTOR_COUNT>
9

> <PUBCHEM_PHARMACOPHORE_FEATURES>
11
1 17 hydrophobe
1 2 acceptor
1 3 acceptor
1 4 acceptor
1 5 acceptor
1 6 acceptor
1 7 donor
1 8 cation
1 8 donor
3 3 5 15 anion
3 4 6 16 anion

> <PUBCHEM_HEAVY_ATOM_COUNT>
17

> <PUBCHEM_ATOM_DEF_STEREO_COUNT>
0

> <PUBCHEM_ATOM_UDEF_STEREO_COUNT>
2

> <PUBCHEM_BOND_DEF_STEREO_COUNT>
0

> <PUBCHEM_BOND_UDEF_STEREO_COUNT>
0

> <PUBCHEM_ISOTOPIC_ATOM_COUNT>
0

> <PUBCHEM_COMPONENT_COUNT>
1

> <PUBCHEM_CACTVS_TAUTO_COUNT>
2

> <PUBCHEM_CONFORMER_ID>
00D403FA00000001

> <PUBCHEM_MMFF94_ENERGY>
22.4197

> <PUBCHEM_FEATURE_SELFOVERLAP>
55.94

> <PUBCHEM_SHAPE_FINGERPRINT>
11552529 35 18272085045367466983
12596599 1 18334571317840076498
12633257 1 18262512581567629658
12824470 246 18262793094397565875
13167823 11 18333452057783452434
13583140 156 17203600489166151498
13631057 29 18048037655786578742
13675066 3 17060618897768255004
13760787 19 18408890637466183292
15099037 8 18190744322322424533
15537594 2 17676773072164930082
18186145 218 13623532363622153300
19141452 34 18334575711680784279
20281475 54 18333728031255138676
20645477 70 17603860071033838482
22485316 2 18186799184249674780
23503953 91 18409159987718620984
23503958 8 18412822520980201051
235170 7 12973886974918147842
23557571 272 17560536070225555429
23559900 14 17987815020352720916
23598288 3 18058457671938432077
300161 21 18335415768708661172
5104073 3 18272085015750647650
573450 72 18411415116063239179
5924683 9 18340482357028535087
633830 44 16588308263261225564
90127 26 16989124266605580096
9981440 41 16701462239365770855

> <PUBCHEM_SHAPE_MULTIPOLES>
314.39
10.8
2.36
1.36
6.83
2.07
-0.21
2.95
-1.27
-3.59
-0.11
0.23
-0.21
-1.74

> <PUBCHEM_SHAPE_SELFOVERLAP>
593.778

> <PUBCHEM_SHAPE_VOLUME>
194.9

> <PUBCHEM_COORDINATE_TYPE>
2
5
10

$$$$
