139059412
  -OEChem-03292013293D

 46 48  0     1  0  0  0  0  0999 V2000
    4.8165   -3.3682   -1.2481 Cl  0  0  0  0  0  0  0  0  0  0  0  0
   -2.9338    1.1595   -1.2291 S   0  0  0  0  0  0  0  0  0  0  0  0
   -5.6948    0.0182   -0.8066 S   0  0  0  0  0  0  0  0  0  0  0  0
   -2.4265   -3.6811    0.5183 O   0  0  0  0  0  0  0  0  0  0  0  0
    0.1757    3.4372   -1.7924 O   0  0  0  0  0  0  0  0  0  0  0  0
   -0.6943    1.5843    2.4074 O   0  0  0  0  0  0  0  0  0  0  0  0
   -0.3921    2.4188    0.2406 N   0  0  0  0  0  0  0  0  0  0  0  0
    1.0630    0.8086    1.1719 N   0  0  0  0  0  0  0  0  0  0  0  0
   -3.4042   -1.1333   -0.1043 N   0  0  0  0  0  0  0  0  0  0  0  0
    1.7243    0.6782   -0.1141 C   0  0  1  0  0  0  0  0  0  0  0  0
    1.8215    2.0506   -0.7635 C   0  0  0  0  0  0  0  0  0  0  0  0
    0.4530    2.6880   -0.8551 C   0  0  0  0  0  0  0  0  0  0  0  0
    3.0732    0.0054    0.0091 C   0  0  0  0  0  0  0  0  0  0  0  0
   -1.6703    3.1182    0.2834 C   0  0  0  0  0  0  0  0  0  0  0  0
   -0.0618    1.6011    1.3487 C   0  0  0  0  0  0  0  0  0  0  0  0
   -2.0337   -1.4900   -0.4439 C   0  0  0  0  0  0  0  0  0  0  0  0
   -4.0139   -1.9052    0.9697 C   0  0  0  0  0  0  0  0  0  0  0  0
   -2.8656    2.1749    0.2782 C   0  0  0  0  0  0  0  0  0  0  0  0
   -3.8147   -3.3936    0.7197 C   0  0  0  0  0  0  0  0  0  0  0  0
   -1.9180   -2.9964   -0.6322 C   0  0  0  0  0  0  0  0  0  0  0  0
   -4.0362   -0.0828   -0.6810 C   0  0  0  0  0  0  0  0  0  0  0  0
    3.2968   -1.2270   -0.6049 C   0  0  0  0  0  0  0  0  0  0  0  0
    4.0941    0.6179    0.7361 C   0  0  0  0  0  0  0  0  0  0  0  0
    4.5413   -1.8469   -0.4921 C   0  0  0  0  0  0  0  0  0  0  0  0
    5.3385   -0.0021    0.8491 C   0  0  0  0  0  0  0  0  0  0  0  0
    5.5622   -1.2344    0.2349 C   0  0  0  0  0  0  0  0  0  0  0  0
    1.0560    0.0518   -0.7208 H   0  0  0  0  0  0  0  0  0  0  0  0
    2.2384    1.9665   -1.7740 H   0  0  0  0  0  0  0  0  0  0  0  0
    2.4556    2.7397   -0.1929 H   0  0  0  0  0  0  0  0  0  0  0  0
    1.3295    0.1876    1.9305 H   0  0  0  0  0  0  0  0  0  0  0  0
   -1.6921    3.6989    1.2143 H   0  0  0  0  0  0  0  0  0  0  0  0
   -1.7585    3.8410   -0.5351 H   0  0  0  0  0  0  0  0  0  0  0  0
   -1.4035   -1.1680    0.3936 H   0  0  0  0  0  0  0  0  0  0  0  0
   -5.0690   -1.6868    1.1429 H   0  0  0  0  0  0  0  0  0  0  0  0
   -3.4774   -1.6175    1.8831 H   0  0  0  0  0  0  0  0  0  0  0  0
   -1.6681   -1.0245   -1.3619 H   0  0  0  0  0  0  0  0  0  0  0  0
   -2.8489    1.5152    1.1507 H   0  0  0  0  0  0  0  0  0  0  0  0
   -3.7888    2.7614    0.3378 H   0  0  0  0  0  0  0  0  0  0  0  0
   -0.8686   -3.2816   -0.7565 H   0  0  0  0  0  0  0  0  0  0  0  0
   -2.4655   -3.3323   -1.5210 H   0  0  0  0  0  0  0  0  0  0  0  0
   -4.3842   -3.7331   -0.1536 H   0  0  0  0  0  0  0  0  0  0  0  0
   -4.1533   -3.9697    1.5864 H   0  0  0  0  0  0  0  0  0  0  0  0
    2.5013   -1.7054   -1.1715 H   0  0  0  0  0  0  0  0  0  0  0  0
    3.9378    1.5732    1.2296 H   0  0  0  0  0  0  0  0  0  0  0  0
    6.1327    0.4736    1.4171 H   0  0  0  0  0  0  0  0  0  0  0  0
    6.5367   -1.7060    0.3321 H   0  0  0  0  0  0  0  0  0  0  0  0
  1 24  1  0  0  0  0
  2 18  1  0  0  0  0
  2 21  1  0  0  0  0
  3 21  2  0  0  0  0
  4 19  1  0  0  0  0
  4 20  1  0  0  0  0
  5 12  2  0  0  0  0
  6 15  2  0  0  0  0
  7 12  1  0  0  0  0
  7 14  1  0  0  0  0
  7 15  1  0  0  0  0
  8 10  1  0  0  0  0
  8 15  1  0  0  0  0
  8 30  1  0  0  0  0
  9 16  1  0  0  0  0
  9 17  1  0  0  0  0
  9 21  1  0  0  0  0
 10 11  1  0  0  0  0
 10 13  1  0  0  0  0
 10 27  1  0  0  0  0
 11 12  1  0  0  0  0
 11 28  1  0  0  0  0
 11 29  1  0  0  0  0
 13 22  2  0  0  0  0
 13 23  1  0  0  0  0
 14 18  1  0  0  0  0
 14 31  1  0  0  0  0
 14 32  1  0  0  0  0
 16 20  1  0  0  0  0
 16 33  1  0  0  0  0
 16 36  1  0  0  0  0
 17 19  1  0  0  0  0
 17 34  1  0  0  0  0
 17 35  1  0  0  0  0
 18 37  1  0  0  0  0
 18 38  1  0  0  0  0
 19 41  1  0  0  0  0
 19 42  1  0  0  0  0
 20 39  1  0  0  0  0
 20 40  1  0  0  0  0
 22 24  1  0  0  0  0
 22 43  1  0  0  0  0
 23 25  2  0  0  0  0
 23 44  1  0  0  0  0
 24 26  2  0  0  0  0
 25 26  1  0  0  0  0
 25 45  1  0  0  0  0
 26 46  1  0  0  0  0
M  END
> <PUBCHEM_COMPOUND_CID>
139059412

> <PUBCHEM_CONFORMER_RMSD>
1.2

> <PUBCHEM_CONFORMER_DIVERSEORDER>
1
79
84
80
127
30
120
132
113
54
133
39
65
85
11
129
134
114
110
42
69
96
64
48
81
89
130
122
115
41
17
112
83
75
25
93
9
116
119
76
97
106
3
71
34
49
59
58
60
21
100
77
56
70
105
104
98
44
18
91
72
88
26
94
55
50
78
46
63
12
27
67
15
66
36
86
131
108
35
23
51
19
47
87
121
111
107
125
124
73
92
68
52
103
31
22
28
24
4
118
126
20
61
128
16
99
8
109
37
32
74
102
33
62
82
5
14
53
123
2
13
57
40
117
45
7
43
101
29
95
10
90
38
6

> <PUBCHEM_MMFF94_PARTIAL_CHARGES>
31
1 -0.18
10 0.44
11 0.06
12 0.57
13 -0.14
14 0.3
15 0.69
16 0.3
17 0.3
18 0.23
19 0.28
2 -0.37
20 0.28
21 0.58
22 -0.15
23 -0.15
24 0.18
25 -0.15
26 -0.15
3 -0.38
30 0.37
4 -0.56
43 0.15
44 0.15
45 0.15
46 0.15
5 -0.57
6 -0.57
7 -0.42
8 -0.73
9 -0.66

> <PUBCHEM_EFFECTIVE_ROTOR_COUNT>
8

> <PUBCHEM_PHARMACOPHORE_FEATURES>
8
1 3 acceptor
1 4 acceptor
1 5 acceptor
1 6 acceptor
1 8 donor
6 13 22 23 24 25 26 rings
6 4 9 16 17 19 20 rings
6 7 8 10 11 12 15 rings

> <PUBCHEM_HEAVY_ATOM_COUNT>
26

> <PUBCHEM_ATOM_DEF_STEREO_COUNT>
1

> <PUBCHEM_ATOM_UDEF_STEREO_COUNT>
0

> <PUBCHEM_BOND_DEF_STEREO_COUNT>
0

> <PUBCHEM_BOND_UDEF_STEREO_COUNT>
0

> <PUBCHEM_ISOTOPIC_ATOM_COUNT>
0

> <PUBCHEM_COMPONENT_COUNT>
1

> <PUBCHEM_CACTVS_TAUTO_COUNT>
-1

> <PUBCHEM_CONFORMER_ID>
0849E0D400000001

> <PUBCHEM_MMFF94_ENERGY>
66.2598

> <PUBCHEM_FEATURE_SELFOVERLAP>
40.598

> <PUBCHEM_SHAPE_FINGERPRINT>
11135609 12 18263362649926377417
12422481 6 18127999449958971163
13402501 40 18342452630267912647
13544653 18 18131067147361241544
14251740 79 18198624324231724107
14251757 5 18260824865330370207
14866123 147 18269843013132014481
150020 26 18126853926130820491
15927050 60 17693088571007783709
17627616 140 17183354910997628246
17909252 39 18193283107482450064
19315092 285 16340867750266489943
19958102 18 18192425269179431846
20465049 17 17967808375830951299
20600515 1 18340779173348872325
20775530 9 18266457787790468403
23379529 103 18335988648330818335
23466295 7 18338249175476137003
23559900 14 18267011928871662209
3027735 51 18126283034914308791
3383291 50 18409443709581029603
340366 18 18113899381785563341
4073 2 18270398287984042162
4280585 95 18187632618406137816
56633871 153 18269002036918871891
9709674 26 18271243824983701454
9862886 166 18410851062556566962

> <PUBCHEM_SHAPE_MULTIPOLES>
512.09
11.77
4.69
1.4
7.05
1.63
-0.24
8.82
0.92
-2.19
0.51
-0.15
-0.49
1.63

> <PUBCHEM_SHAPE_SELFOVERLAP>
1040.585

> <PUBCHEM_SHAPE_VOLUME>
298.4

> <PUBCHEM_COORDINATE_TYPE>
2
5
10

$$$$
