139060698
  -OEChem-03292013293D

 49 52  0     1  0  0  0  0  0999 V2000
   -2.0828    0.6657    0.9997 S   0  0  0  0  0  0  0  0  0  0  0  0
    0.6507    1.9641   -1.5483 O   0  0  0  0  0  0  0  0  0  0  0  0
    0.5200   -0.2030   -2.5160 O   0  0  0  0  0  0  0  0  0  0  0  0
    2.6173    0.9339   -2.4253 O   0  0  0  0  0  0  0  0  0  0  0  0
   -1.1955    0.1921   -0.2860 O   0  0  0  0  0  0  0  0  0  0  0  0
    2.7543    0.8363    1.2303 O   0  0  0  0  0  0  0  0  0  0  0  0
    2.5992   -1.7285    0.0854 O   0  0  0  0  0  0  0  0  0  0  0  0
   -2.0882    2.1161    1.0293 O   0  0  0  0  0  0  0  0  0  0  0  0
   -1.6928   -0.1136    2.1587 O   0  0  0  0  0  0  0  0  0  0  0  0
    4.7503    1.9965    1.1454 O   0  0  0  0  0  0  0  0  0  0  0  0
    4.4717   -2.6338   -0.9201 O   0  0  0  0  0  0  0  0  0  0  0  0
    0.7548   -0.8487   -1.2517 C   0  0  2  0  0  0  0  0  0  0  0  0
    0.8915    1.4293   -0.2341 C   0  0  1  0  0  0  0  0  0  0  0  0
    2.9398    0.3465   -1.1524 C   0  0  0  0  0  0  0  0  0  0  0  0
    0.2139    0.0541   -0.1312 C   0  0  0  0  0  0  0  0  0  0  0  0
    2.4129    1.3009   -0.0639 C   0  0  2  0  0  0  0  0  0  0  0  0
    2.2723   -1.0413   -1.1097 C   0  0  1  0  0  0  0  0  0  0  0  0
    1.1879    1.0697   -2.5369 C   0  0  0  0  0  0  0  0  0  0  0  0
    3.7328   -2.4961    0.0454 C   0  0  0  0  0  0  0  0  0  0  0  0
    3.9597    1.2620    1.7221 C   0  0  0  0  0  0  0  0  0  0  0  0
   -3.7231    0.1515    0.5988 C   0  0  0  0  0  0  0  0  0  0  0  0
    3.9518   -3.1598    1.3711 C   0  0  0  0  0  0  0  0  0  0  0  0
    4.1860    0.6949    3.0908 C   0  0  0  0  0  0  0  0  0  0  0  0
   -4.1672   -1.1166    0.9733 C   0  0  0  0  0  0  0  0  0  0  0  0
   -4.5741    1.0119   -0.0949 C   0  0  0  0  0  0  0  0  0  0  0  0
   -5.4623   -1.5243    0.6542 C   0  0  0  0  0  0  0  0  0  0  0  0
   -5.8692    0.6041   -0.4140 C   0  0  0  0  0  0  0  0  0  0  0  0
   -6.3134   -0.6639   -0.0394 C   0  0  0  0  0  0  0  0  0  0  0  0
   -7.6983   -1.0999   -0.3806 C   0  0  0  0  0  0  0  0  0  0  0  0
    0.2268   -1.8081   -1.2546 H   0  0  0  0  0  0  0  0  0  0  0  0
    0.4815    2.1286    0.4998 H   0  0  0  0  0  0  0  0  0  0  0  0
    4.0275    0.2462   -1.0743 H   0  0  0  0  0  0  0  0  0  0  0  0
    0.4264   -0.4119    0.8377 H   0  0  0  0  0  0  0  0  0  0  0  0
    2.5968   -1.6112   -1.9921 H   0  0  0  0  0  0  0  0  0  0  0  0
    2.8316    2.3011   -0.2456 H   0  0  0  0  0  0  0  0  0  0  0  0
    0.9874    1.5181   -3.5140 H   0  0  0  0  0  0  0  0  0  0  0  0
    3.6376    1.2871    3.8268 H   0  0  0  0  0  0  0  0  0  0  0  0
    4.3831   -2.4454    2.0744 H   0  0  0  0  0  0  0  0  0  0  0  0
    4.6386   -4.0015    1.2438 H   0  0  0  0  0  0  0  0  0  0  0  0
    3.0071   -3.5532    1.7560 H   0  0  0  0  0  0  0  0  0  0  0  0
    5.2546    0.7217    3.3216 H   0  0  0  0  0  0  0  0  0  0  0  0
    3.8599   -0.3472    3.1280 H   0  0  0  0  0  0  0  0  0  0  0  0
   -3.5195   -1.8067    1.5064 H   0  0  0  0  0  0  0  0  0  0  0  0
   -4.2467    2.0008   -0.4029 H   0  0  0  0  0  0  0  0  0  0  0  0
   -5.7969   -2.5148    0.9512 H   0  0  0  0  0  0  0  0  0  0  0  0
   -6.5230    1.2833   -0.9547 H   0  0  0  0  0  0  0  0  0  0  0  0
   -7.7454   -2.1837   -0.5318 H   0  0  0  0  0  0  0  0  0  0  0  0
   -8.0424   -0.6320   -1.3092 H   0  0  0  0  0  0  0  0  0  0  0  0
   -8.3870   -0.8279    0.4254 H   0  0  0  0  0  0  0  0  0  0  0  0
  1  5  1  0  0  0  0
  1  8  2  0  0  0  0
  1  9  2  0  0  0  0
  1 21  1  0  0  0  0
  2 13  1  0  0  0  0
  2 18  1  0  0  0  0
  3 12  1  0  0  0  0
  3 18  1  0  0  0  0
  4 14  1  0  0  0  0
  4 18  1  0  0  0  0
  5 15  1  0  0  0  0
  6 16  1  0  0  0  0
  6 20  1  0  0  0  0
  7 17  1  0  0  0  0
  7 19  1  0  0  0  0
 10 20  2  0  0  0  0
 11 19  2  0  0  0  0
 12 15  1  0  0  0  0
 12 17  1  0  0  0  0
 12 30  1  0  0  0  0
 13 15  1  0  0  0  0
 13 16  1  0  0  0  0
 13 31  1  0  0  0  0
 14 16  1  0  0  0  0
 14 17  1  0  0  0  0
 14 32  1  0  0  0  0
 15 33  1  0  0  0  0
 16 35  1  0  0  0  0
 17 34  1  0  0  0  0
 18 36  1  0  0  0  0
 19 22  1  0  0  0  0
 20 23  1  0  0  0  0
 21 24  2  0  0  0  0
 21 25  1  0  0  0  0
 22 38  1  0  0  0  0
 22 39  1  0  0  0  0
 22 40  1  0  0  0  0
 23 37  1  0  0  0  0
 23 41  1  0  0  0  0
 23 42  1  0  0  0  0
 24 26  1  0  0  0  0
 24 43  1  0  0  0  0
 25 27  2  0  0  0  0
 25 44  1  0  0  0  0
 26 28  2  0  0  0  0
 26 45  1  0  0  0  0
 27 28  1  0  0  0  0
 27 46  1  0  0  0  0
 28 29  1  0  0  0  0
 29 47  1  0  0  0  0
 29 48  1  0  0  0  0
 29 49  1  0  0  0  0
M  END
> <PUBCHEM_COMPOUND_CID>
139060698

> <PUBCHEM_CONFORMER_RMSD>
1

> <PUBCHEM_CONFORMER_DIVERSEORDER>
1
4
9
5
14
6
12
2
7
13
3
8
10
11

> <PUBCHEM_MMFF94_PARTIAL_CHARGES>
33
1 1.49
10 -0.57
11 -0.57
12 0.28
13 0.28
14 0.28
15 0.28
16 0.28
17 0.28
18 0.84
19 0.66
2 -0.56
20 0.66
21 -0.01
22 0.06
23 0.06
24 -0.15
25 -0.15
26 -0.15
27 -0.15
28 -0.14
29 0.14
3 -0.56
4 -0.56
43 0.15
44 0.15
45 0.15
46 0.15
5 -0.46
6 -0.43
7 -0.43
8 -0.65
9 -0.65

> <PUBCHEM_EFFECTIVE_ROTOR_COUNT>
8.2

> <PUBCHEM_PHARMACOPHORE_FEATURES>
12
1 10 acceptor
1 11 acceptor
1 2 acceptor
1 3 acceptor
1 4 acceptor
1 8 acceptor
1 9 acceptor
6 12 13 14 15 16 17 rings
6 2 3 12 13 15 18 rings
6 2 4 13 14 16 18 rings
6 21 24 25 26 27 28 rings
6 3 4 12 14 17 18 rings

> <PUBCHEM_HEAVY_ATOM_COUNT>
29

> <PUBCHEM_ATOM_DEF_STEREO_COUNT>
4

> <PUBCHEM_ATOM_UDEF_STEREO_COUNT>
0

> <PUBCHEM_BOND_DEF_STEREO_COUNT>
0

> <PUBCHEM_BOND_UDEF_STEREO_COUNT>
0

> <PUBCHEM_ISOTOPIC_ATOM_COUNT>
0

> <PUBCHEM_COMPONENT_COUNT>
1

> <PUBCHEM_CACTVS_TAUTO_COUNT>
-1

> <PUBCHEM_CONFORMER_ID>
0849E5DA00000001

> <PUBCHEM_MMFF94_ENERGY>
61.4666

> <PUBCHEM_FEATURE_SELFOVERLAP>
74.958

> <PUBCHEM_SHAPE_FINGERPRINT>
10721379 63 11674879962278642602
11135609 99 18343864420024977230
11954058 11 18058735693561398662
12166972 35 18260836977618147429
13224815 77 16773529793527699765
13533116 47 18341897368079253643
14341114 328 15410896279981450321
146900 427 15913328035188408281
14910302 57 18114177532642008023
15183329 4 16877660154722556191
15664445 248 15357996563735012358
17349148 13 17967541168466572385
1813 80 17095519569939461620
18222031 100 17748828479636924346
19315092 285 18270674264717345058
19377110 9 15841549670007124403
22149856 69 14979687624195097103
23559900 14 17968391094869982659
25222932 49 17916015957465860271
3004659 81 17822015311288229159
4340502 62 17917704746879603256
439807 62 18337677525206552687
5104073 3 18060426777078333489
513532 50 17168147866494544626
8988823 20 18060698412021217817
9971528 1 18041000626575617693

> <PUBCHEM_SHAPE_MULTIPOLES>
541.96
14.16
2.46
2.31
25.17
1.59
0.29
5.69
2.79
-3.25
-0.09
-3.37
-0.7
0.57

> <PUBCHEM_SHAPE_SELFOVERLAP>
1158.203

> <PUBCHEM_SHAPE_VOLUME>
300.6

> <PUBCHEM_COORDINATE_TYPE>
2
5
10

$$$$
