139072
  -OEChem-03292013323D

 35 36  0     0  0  0  0  0  0999 V2000
   -3.6027    2.7387   -0.0047 O   0  0  0  0  0  0  0  0  0  0  0  0
    8.6830   -0.9244    0.0066 O   0  0  0  0  0  0  0  0  0  0  0  0
    7.7692    1.1543    0.0464 O   0  0  0  0  0  0  0  0  0  0  0  0
   -5.6261   -2.4535    0.0042 O   0  5  0  0  0  0  0  0  0  0  0  0
   -6.2881   -0.3605    0.0008 O   0  0  0  0  0  0  0  0  0  0  0  0
    0.1455    0.4971    0.0044 N   0  0  0  0  0  0  0  0  0  0  0  0
   -2.2736    2.3513   -0.0029 N   0  0  0  0  0  0  0  0  0  0  0  0
   -4.4573    1.6497   -0.0020 N   0  0  0  0  0  0  0  0  0  0  0  0
   -5.3699   -1.2214    0.0032 N   0  3  0  0  0  0  0  0  0  0  0  0
    2.5713    0.3202   -0.0274 C   0  0  0  0  0  0  0  0  0  0  0  0
    3.7976   -0.5963   -0.0276 C   0  0  0  0  0  0  0  0  0  0  0  0
    1.2468   -0.4375    0.0085 C   0  0  0  0  0  0  0  0  0  0  0  0
    5.1249    0.1646   -0.0321 C   0  0  0  0  0  0  0  0  0  0  0  0
    6.3139   -0.7961   -0.0189 C   0  0  0  0  0  0  0  0  0  0  0  0
   -1.1863    0.1154    0.0040 C   0  0  0  0  0  0  0  0  0  0  0  0
   -2.2823    1.0124    0.0008 C   0  0  0  0  0  0  0  0  0  0  0  0
   -1.5772   -1.2449    0.0076 C   0  0  0  0  0  0  0  0  0  0  0  0
   -3.6704    0.5664    0.0014 C   0  0  0  0  0  0  0  0  0  0  0  0
   -4.0235   -0.7955    0.0051 C   0  0  0  0  0  0  0  0  0  0  0  0
   -2.9288   -1.6792    0.0081 C   0  0  0  0  0  0  0  0  0  0  0  0
    7.6339   -0.0608    0.0146 C   0  0  0  0  0  0  0  0  0  0  0  0
    2.6014    0.9606   -0.9185 H   0  0  0  0  0  0  0  0  0  0  0  0
    2.6267    0.9940    0.8375 H   0  0  0  0  0  0  0  0  0  0  0  0
    3.7535   -1.2530   -0.9054 H   0  0  0  0  0  0  0  0  0  0  0  0
    3.7575   -1.2456    0.8559 H   0  0  0  0  0  0  0  0  0  0  0  0
    1.2118   -1.0595    0.9107 H   0  0  0  0  0  0  0  0  0  0  0  0
    1.1899   -1.0949   -0.8672 H   0  0  0  0  0  0  0  0  0  0  0  0
    5.1784    0.8096   -0.9177 H   0  0  0  0  0  0  0  0  0  0  0  0
    5.1718    0.8250    0.8427 H   0  0  0  0  0  0  0  0  0  0  0  0
    0.3424    1.4919    0.0035 H   0  0  0  0  0  0  0  0  0  0  0  0
    6.2627   -1.4395    0.8665 H   0  0  0  0  0  0  0  0  0  0  0  0
    6.2943   -1.4224   -0.9177 H   0  0  0  0  0  0  0  0  0  0  0  0
   -0.8221   -2.0303    0.0113 H   0  0  0  0  0  0  0  0  0  0  0  0
   -3.0996   -2.7557    0.0109 H   0  0  0  0  0  0  0  0  0  0  0  0
    9.5436   -0.4540    0.0287 H   0  0  0  0  0  0  0  0  0  0  0  0
  1  7  1  0  0  0  0
  1  8  1  0  0  0  0
  2 21  1  0  0  0  0
  2 35  1  0  0  0  0
  3 21  2  0  0  0  0
  4  9  1  0  0  0  0
  5  9  2  0  0  0  0
  6 12  1  0  0  0  0
  6 15  1  0  0  0  0
  6 30  1  0  0  0  0
  7 16  2  0  0  0  0
  8 18  2  0  0  0  0
  9 19  1  0  0  0  0
 10 11  1  0  0  0  0
 10 12  1  0  0  0  0
 10 22  1  0  0  0  0
 10 23  1  0  0  0  0
 11 13  1  0  0  0  0
 11 24  1  0  0  0  0
 11 25  1  0  0  0  0
 12 26  1  0  0  0  0
 12 27  1  0  0  0  0
 13 14  1  0  0  0  0
 13 28  1  0  0  0  0
 13 29  1  0  0  0  0
 14 21  1  0  0  0  0
 14 31  1  0  0  0  0
 14 32  1  0  0  0  0
 15 16  1  0  0  0  0
 15 17  2  0  0  0  0
 16 18  1  0  0  0  0
 17 20  1  0  0  0  0
 17 33  1  0  0  0  0
 18 19  1  0  0  0  0
 19 20  2  0  0  0  0
 20 34  1  0  0  0  0
M  CHG  2   4  -1   9   1
M  END
> <PUBCHEM_COMPOUND_CID>
139072

> <PUBCHEM_CONFORMER_RMSD>
0.8

> <PUBCHEM_CONFORMER_DIVERSEORDER>
1
95
107
88
102
18
56
46
21
78
133
11
118
142
24
30
106
26
126
110
104
39
69
3
138
10
36
58
64
89
52
100
117
35
83
105
98
132
62
67
122
45
91
87
55
112
137
13
103
16
136
2
63
38
7
43
76
59
82
37
111
144
130
120
23
74
73
75
145
34
93
70
84
139
125
20
97
115
96
41
47
131
128
114
28
92
65
19
72
44
71
99
81
90
61
48
8
94
40
66
15
31
17
123
77
51
42
113
85
86
109
80
27
135
49
12
6
50
141
79
5
29
108
53
119
127
140
57
4
60
143
101
124
32
33
121
9
68
116
129
54
134
14
25
22

> <PUBCHEM_MMFF94_PARTIAL_CHARGES>
22
1 0.24
12 0.37
14 0.06
15 0.1
16 0.29
17 -0.15
18 0.29
19 0.13
2 -0.65
20 -0.15
21 0.66
3 -0.57
30 0.4
33 0.15
34 0.15
35 0.5
4 -0.52
5 -0.52
6 -0.87
7 -0.41
8 -0.41
9 0.91

> <PUBCHEM_EFFECTIVE_ROTOR_COUNT>
8

> <PUBCHEM_PHARMACOPHORE_FEATURES>
13
1 2 acceptor
1 3 acceptor
1 4 acceptor
1 4 anion
1 5 acceptor
1 6 cation
1 6 donor
1 7 acceptor
1 8 acceptor
3 2 3 21 anion
4 10 11 13 14 hydrophobe
5 1 7 8 16 18 rings
6 15 16 17 18 19 20 rings

> <PUBCHEM_HEAVY_ATOM_COUNT>
21

> <PUBCHEM_ATOM_DEF_STEREO_COUNT>
0

> <PUBCHEM_ATOM_UDEF_STEREO_COUNT>
0

> <PUBCHEM_BOND_DEF_STEREO_COUNT>
0

> <PUBCHEM_BOND_UDEF_STEREO_COUNT>
0

> <PUBCHEM_ISOTOPIC_ATOM_COUNT>
0

> <PUBCHEM_COMPONENT_COUNT>
1

> <PUBCHEM_CACTVS_TAUTO_COUNT>
2

> <PUBCHEM_CONFORMER_ID>
00021F4000000001

> <PUBCHEM_MMFF94_ENERGY>
50.373

> <PUBCHEM_FEATURE_SELFOVERLAP>
66.292

> <PUBCHEM_SHAPE_FINGERPRINT>
10299344 5 18187365420565233898
10411042 1 18194402419684965699
10595046 47 18334576833194684632
10730089 173 18410011026755788401
10968037 39 18334012808935385031
11315181 36 18113902675481861021
11524674 6 16415479380434057542
12091667 2 18334016081805661018
12107183 9 17613992993832640778
12166972 35 18409731790122508728
12236239 1 18113898239408300842
13073987 5 18337108969544836786
13288520 33 18411418423562557991
13885169 127 18411418380871347846
14251732 16 18411136948754626376
14251764 18 18113618993709540278
14251764 46 17275387611759403790
14933364 13 18342176670567065616
15042514 8 18267304425383411175
15183329 4 17385441017124925034
15419008 47 17846774105649158728
15716309 27 18202001040963949462
15778101 99 18341334375107704505
17844677 252 18413113874877701008
19489759 90 18335421257381089528
20281389 69 18412543220037579440
21236236 1 18410856546754894177
21267235 1 18335987553499253795
21315763 28 18409448086262681130
22896161 15 18410575115461137966
2297311 6 18342741818620569985
23081809 10 17822015290261603638
23402539 116 18413102892872957815
23536379 177 18408603639836620386
23559900 14 18338510970997138929
335352 9 18410287018124872709
34797466 226 17775293798576623724
4073 2 18041003981847494138
4214541 1 18410575063315154796
4325135 7 18408041818995608142
54446538 1 18334296483320336916
559249 180 18408039593796269366
6327066 14 17972029237519412773
67856867 119 18261397805736977084

> <PUBCHEM_SHAPE_MULTIPOLES>
382.9
21.65
2
0.58
46.01
0.66
0
-3.74
0.1
-3.76
0
0.05
-0.02
0.03

> <PUBCHEM_SHAPE_SELFOVERLAP>
793.794

> <PUBCHEM_SHAPE_VOLUME>
218.7

> <PUBCHEM_COORDINATE_TYPE>
2
5
10

$$$$
