139061835
  -OEChem-03292013293D

 52 55  0     0  0  0  0  0  0999 V2000
    4.4942   -0.0236    1.6829 S   0  0  0  0  0  0  0  0  0  0  0  0
   -0.8366    1.9603    2.8980 S   0  0  0  0  0  0  0  0  0  0  0  0
    2.4429    2.4194   -2.2981 O   0  0  0  0  0  0  0  0  0  0  0  0
   -4.0051    2.3022   -1.0855 O   0  0  0  0  0  0  0  0  0  0  0  0
    0.6807   -1.6173   -1.1526 N   0  0  0  0  0  0  0  0  0  0  0  0
   -2.5427   -1.8387    0.1088 N   0  0  0  0  0  0  0  0  0  0  0  0
    3.3988    1.2606   -0.4748 N   0  0  0  0  0  0  0  0  0  0  0  0
   -2.5147    2.1275    0.7391 N   0  0  0  0  0  0  0  0  0  0  0  0
    2.5033   -0.8811    0.2157 N   0  0  0  0  0  0  0  0  0  0  0  0
   -1.7099   -0.0416    1.4551 N   0  0  0  0  0  0  0  0  0  0  0  0
    0.4091   -2.9305   -0.4580 C   0  0  0  0  0  0  0  0  0  0  0  0
   -1.8757   -2.9280    0.7866 C   0  0  0  0  0  0  0  0  0  0  0  0
   -0.3668   -2.8075    0.8367 C   0  0  0  0  0  0  0  0  0  0  0  0
    1.6476   -0.7116   -0.8141 C   0  0  0  0  0  0  0  0  0  0  0  0
   -2.4521   -0.5131    0.4314 C   0  0  0  0  0  0  0  0  0  0  0  0
   -3.2346    0.1930   -0.4513 C   0  0  0  0  0  0  0  0  0  0  0  0
    1.5639    0.3457   -1.6888 C   0  0  0  0  0  0  0  0  0  0  0  0
   -3.3772   -1.9836   -0.9728 C   0  0  0  0  0  0  0  0  0  0  0  0
   -0.0194   -1.1456   -2.2364 C   0  0  0  0  0  0  0  0  0  0  0  0
   -3.8236   -0.7312   -1.3426 C   0  0  0  0  0  0  0  0  0  0  0  0
    0.5107    0.0782   -2.5914 C   0  0  0  0  0  0  0  0  0  0  0  0
    2.4848    1.4493   -1.5486 C   0  0  0  0  0  0  0  0  0  0  0  0
   -3.3127    1.6298   -0.3283 C   0  0  0  0  0  0  0  0  0  0  0  0
    0.2732   -2.6833    2.0119 C   0  0  0  0  0  0  0  0  0  0  0  0
    3.3441    0.1064    0.3583 C   0  0  0  0  0  0  0  0  0  0  0  0
   -1.7676    1.2557    1.5824 C   0  0  0  0  0  0  0  0  0  0  0  0
    4.4210    2.2780   -0.2198 C   0  0  0  0  0  0  0  0  0  0  0  0
   -2.4599    3.5717    0.9768 C   0  0  0  0  0  0  0  0  0  0  0  0
    5.3201   -1.5449    1.1793 C   0  0  0  0  0  0  0  0  0  0  0  0
    0.8043    1.4038    2.4002 C   0  0  0  0  0  0  0  0  0  0  0  0
    1.3976   -3.3800   -0.3016 H   0  0  0  0  0  0  0  0  0  0  0  0
   -0.1200   -3.5586   -1.1839 H   0  0  0  0  0  0  0  0  0  0  0  0
   -2.1458   -3.8649    0.2847 H   0  0  0  0  0  0  0  0  0  0  0  0
   -2.3111   -2.9748    1.7927 H   0  0  0  0  0  0  0  0  0  0  0  0
   -3.5857   -2.9586   -1.3925 H   0  0  0  0  0  0  0  0  0  0  0  0
   -0.8264   -1.7180   -2.6722 H   0  0  0  0  0  0  0  0  0  0  0  0
   -4.4949   -0.5190   -2.1628 H   0  0  0  0  0  0  0  0  0  0  0  0
    0.1714    0.6974   -3.4099 H   0  0  0  0  0  0  0  0  0  0  0  0
    1.3553   -2.6406    2.0673 H   0  0  0  0  0  0  0  0  0  0  0  0
   -0.2718   -2.6262    2.9482 H   0  0  0  0  0  0  0  0  0  0  0  0
    4.2778    2.6948    0.7817 H   0  0  0  0  0  0  0  0  0  0  0  0
    4.3541    3.0922   -0.9464 H   0  0  0  0  0  0  0  0  0  0  0  0
    5.4147    1.8264   -0.2962 H   0  0  0  0  0  0  0  0  0  0  0  0
   -2.8465    3.7918    1.9764 H   0  0  0  0  0  0  0  0  0  0  0  0
   -3.0648    4.1131    0.2445 H   0  0  0  0  0  0  0  0  0  0  0  0
   -1.4250    3.9171    0.8939 H   0  0  0  0  0  0  0  0  0  0  0  0
    0.8754    0.3153    2.4511 H   0  0  0  0  0  0  0  0  0  0  0  0
    1.0198    1.7414    1.3839 H   0  0  0  0  0  0  0  0  0  0  0  0
    4.6294   -2.3916    1.2168 H   0  0  0  0  0  0  0  0  0  0  0  0
    1.5517    1.8308    3.0740 H   0  0  0  0  0  0  0  0  0  0  0  0
    5.7174   -1.4472    0.1652 H   0  0  0  0  0  0  0  0  0  0  0  0
    6.1512   -1.7474    1.8601 H   0  0  0  0  0  0  0  0  0  0  0  0
  1 25  1  0  0  0  0
  1 29  1  0  0  0  0
  2 26  1  0  0  0  0
  2 30  1  0  0  0  0
  3 22  2  0  0  0  0
  4 23  2  0  0  0  0
  5 11  1  0  0  0  0
  5 14  1  0  0  0  0
  5 19  1  0  0  0  0
  6 12  1  0  0  0  0
  6 15  1  0  0  0  0
  6 18  1  0  0  0  0
  7 22  1  0  0  0  0
  7 25  1  0  0  0  0
  7 27  1  0  0  0  0
  8 23  1  0  0  0  0
  8 26  1  0  0  0  0
  8 28  1  0  0  0  0
  9 14  1  0  0  0  0
  9 25  2  0  0  0  0
 10 15  1  0  0  0  0
 10 26  2  0  0  0  0
 11 13  1  0  0  0  0
 11 31  1  0  0  0  0
 11 32  1  0  0  0  0
 12 13  1  0  0  0  0
 12 33  1  0  0  0  0
 12 34  1  0  0  0  0
 13 24  2  0  0  0  0
 14 17  2  0  0  0  0
 15 16  2  0  0  0  0
 16 20  1  0  0  0  0
 16 23  1  0  0  0  0
 17 21  1  0  0  0  0
 17 22  1  0  0  0  0
 18 20  2  0  0  0  0
 18 35  1  0  0  0  0
 19 21  2  0  0  0  0
 19 36  1  0  0  0  0
 20 37  1  0  0  0  0
 21 38  1  0  0  0  0
 24 39  1  0  0  0  0
 24 40  1  0  0  0  0
 27 41  1  0  0  0  0
 27 42  1  0  0  0  0
 27 43  1  0  0  0  0
 28 44  1  0  0  0  0
 28 45  1  0  0  0  0
 28 46  1  0  0  0  0
 29 49  1  0  0  0  0
 29 51  1  0  0  0  0
 29 52  1  0  0  0  0
 30 47  1  0  0  0  0
 30 48  1  0  0  0  0
 30 50  1  0  0  0  0
M  END
> <PUBCHEM_COMPOUND_CID>
139061835

> <PUBCHEM_CONFORMER_RMSD>
1

> <PUBCHEM_CONFORMER_DIVERSEORDER>
1
149
160
148
46
65
114
51
77
162
132
31
166
3
133
21
4
19
50
192
87
89
85
99
194
101
103
104
164
93
157
146
79
56
61
169
141
195
102
94
49
9
170
186
158
75
138
57
182
140
137
151
74
156
23
134
193
88
187
131
120
71
53
12
139
42
143
2
15
7
20
167
29
64
117
124
155
174
70
14
110
144
122
145
38
165
173
48
116
119
6
181
52
8
184
86
190
45
81
98
113
100
33
27
127
95
129
168
80
78
118
90
179
123
176
62
76
189
136
111
177
125
163
128
35
172
112
191
18
59
44
92
130
25
178
69
200
37
63
115
147
185
24
107
105
161
152
26
36
171
55
180
34
175
183
97
84
32
198
153
66
47
68
16
197
188
17
106
13
126
54
199
67
72
196
73
5
91
150
40
41
159
154
135
58
39
60
108
121
83
82
96
109
11
28
22
43
10
30
142

> <PUBCHEM_MMFF94_PARTIAL_CHARGES>
36
1 -0.37
10 -0.58
11 0.39
12 0.39
13 -0.28
14 -0.03
15 -0.03
16 -0.09
17 -0.09
18 -0.3
19 -0.3
2 -0.37
20 -0.15
21 -0.15
22 0.72
23 0.72
24 -0.3
25 0.65
26 0.65
27 0.3
28 0.3
29 0.23
3 -0.57
30 0.23
35 0.15
36 0.15
37 0.15
38 0.15
39 0.15
4 -0.57
40 0.15
5 0.05
6 0.05
7 -0.42
8 -0.42
9 -0.58

> <PUBCHEM_EFFECTIVE_ROTOR_COUNT>
6

> <PUBCHEM_PHARMACOPHORE_FEATURES>
11
1 24 hydrophobe
1 29 hydrophobe
1 3 acceptor
1 30 hydrophobe
1 4 acceptor
1 5 cation
1 6 cation
5 5 14 17 19 21 rings
5 6 15 16 18 20 rings
6 7 9 14 17 22 25 rings
6 8 10 15 16 23 26 rings

> <PUBCHEM_HEAVY_ATOM_COUNT>
30

> <PUBCHEM_ATOM_DEF_STEREO_COUNT>
0

> <PUBCHEM_ATOM_UDEF_STEREO_COUNT>
0

> <PUBCHEM_BOND_DEF_STEREO_COUNT>
0

> <PUBCHEM_BOND_UDEF_STEREO_COUNT>
0

> <PUBCHEM_ISOTOPIC_ATOM_COUNT>
0

> <PUBCHEM_COMPONENT_COUNT>
1

> <PUBCHEM_CACTVS_TAUTO_COUNT>
-1

> <PUBCHEM_CONFORMER_ID>
0849EA4B00000001

> <PUBCHEM_MMFF94_ENERGY>
56.7254

> <PUBCHEM_FEATURE_SELFOVERLAP>
56.06

> <PUBCHEM_SHAPE_FINGERPRINT>
10675989 125 16550313298660240040
10708813 3 18188483571570469946
11007060 377 17755890819887162604
11370993 70 18334287660940403279
11640471 11 18265055730487539971
12156800 1 13101592119226220609
12596599 1 16588857014042139378
12633257 1 18040995090505191564
128993 33 17478101173453813281
13224815 77 17703242783389259124
13994607 96 18127977609839267660
14955137 171 16902467086675914531
17349148 13 18410855490520338102
17492 54 17488172884589787165
192875 21 18408879672224740271
20715895 44 18192704554218966437
22749437 52 18410298007843694782
23419403 2 17265265735843555355
23559900 14 18200880569922350758
3493558 16 17700406980172989970
35225 105 18269547415638105182
469060 322 16018071029990884064
5283178 26 13623534528027207736
9981440 41 18412259545188865659

> <PUBCHEM_SHAPE_MULTIPOLES>
583.46
7.8
3.78
2.65
5.47
0.28
0
1.98
0.03
-1.99
1.18
0.84
0.71
-1.28

> <PUBCHEM_SHAPE_SELFOVERLAP>
1238.103

> <PUBCHEM_SHAPE_VOLUME>
332.7

> <PUBCHEM_COORDINATE_TYPE>
2
5
10

$$$$
