139044387
  -OEChem-03292013293D

 59 63  0     1  0  0  0  0  0999 V2000
   -2.2344   -2.3217   -0.5924 O   0  0  0  0  0  0  0  0  0  0  0  0
   -0.4505   -3.3314    0.5651 O   0  0  0  0  0  0  0  0  0  0  0  0
    0.3270   -2.6159   -1.9377 O   0  0  0  0  0  0  0  0  0  0  0  0
   -0.7121    1.9851   -2.0007 O   0  0  0  0  0  0  0  0  0  0  0  0
   -0.0587    0.2741    2.7121 O   0  0  0  0  0  0  0  0  0  0  0  0
   -3.0098    2.3333    1.4210 O   0  0  0  0  0  0  0  0  0  0  0  0
    2.4561    0.5361    2.7808 O   0  0  0  0  0  0  0  0  0  0  0  0
    4.8378   -0.4844   -1.2094 O   0  0  0  0  0  0  0  0  0  0  0  0
   -0.6960    4.2443   -2.2166 O   0  0  0  0  0  0  0  0  0  0  0  0
   -0.9444   -2.1085    0.0160 C   0  0  2  0  0  0  0  0  0  0  0  0
   -1.1992   -1.1603    1.1749 C   0  0  2  0  0  0  0  0  0  0  0  0
   -2.3333   -0.2846    0.6611 C   0  0  2  0  0  0  0  0  0  0  0  0
    0.0292   -1.5310   -1.0356 C   0  0  2  0  0  0  0  0  0  0  0  0
   -3.1484   -1.2948   -0.1617 C   0  0  2  0  0  0  0  0  0  0  0  0
   -0.5995   -0.4349   -1.9321 C   0  0  0  0  0  0  0  0  0  0  0  0
   -1.8676    0.9134   -0.1658 C   0  0  0  0  0  0  0  0  0  0  0  0
    1.2984   -1.0068   -0.3743 C   0  0  0  0  0  0  0  0  0  0  0  0
    0.0086   -0.4042    1.6897 C   0  0  0  0  0  0  0  0  0  0  0  0
   -1.1154    0.8247   -1.2837 C   0  0  0  0  0  0  0  0  0  0  0  0
    1.2763   -0.4763    0.9255 C   0  0  0  0  0  0  0  0  0  0  0  0
   -4.2466   -1.9717    0.6522 C   0  0  0  0  0  0  0  0  0  0  0  0
   -2.2432    2.2501    0.2762 C   0  0  0  0  0  0  0  0  0  0  0  0
    2.5162   -0.9836   -1.0782 C   0  0  0  0  0  0  0  0  0  0  0  0
    2.4431    0.0345    1.5107 C   0  0  0  0  0  0  0  0  0  0  0  0
   -4.9457   -3.0529   -0.1503 C   0  0  0  0  0  0  0  0  0  0  0  0
    3.6422    0.0262    0.8019 C   0  0  0  0  0  0  0  0  0  0  0  0
    3.6784   -0.4785   -0.4933 C   0  0  0  0  0  0  0  0  0  0  0  0
   -1.8649    3.3483   -0.3870 C   0  0  0  0  0  0  0  0  0  0  0  0
   -1.0482    3.2434   -1.6028 C   0  0  0  0  0  0  0  0  0  0  0  0
    4.8912    0.5642    1.4247 C   0  0  0  0  0  0  0  0  0  0  0  0
   -4.3868    2.2963    1.1039 C   0  0  0  0  0  0  0  0  0  0  0  0
    4.9195    2.0889    1.4351 C   0  0  0  0  0  0  0  0  0  0  0  0
    4.7808   -1.0212   -2.5294 C   0  0  0  0  0  0  0  0  0  0  0  0
   -1.5681   -1.7311    2.0399 H   0  0  0  0  0  0  0  0  0  0  0  0
   -2.9207    0.0465    1.5223 H   0  0  0  0  0  0  0  0  0  0  0  0
   -3.5963   -0.8380   -1.0522 H   0  0  0  0  0  0  0  0  0  0  0  0
   -1.4098   -0.8621   -2.5393 H   0  0  0  0  0  0  0  0  0  0  0  0
    0.1504   -0.1412   -2.6829 H   0  0  0  0  0  0  0  0  0  0  0  0
   -3.8287   -2.4380    1.5522 H   0  0  0  0  0  0  0  0  0  0  0  0
   -4.9802   -1.2262    0.9794 H   0  0  0  0  0  0  0  0  0  0  0  0
   -0.9462   -3.5391    1.3741 H   0  0  0  0  0  0  0  0  0  0  0  0
    0.6100   -2.2551   -2.7945 H   0  0  0  0  0  0  0  0  0  0  0  0
    2.4970   -1.3690   -2.0912 H   0  0  0  0  0  0  0  0  0  0  0  0
   -5.3664   -2.6473   -1.0761 H   0  0  0  0  0  0  0  0  0  0  0  0
   -5.7677   -3.4805    0.4329 H   0  0  0  0  0  0  0  0  0  0  0  0
   -4.2654   -3.8702   -0.4094 H   0  0  0  0  0  0  0  0  0  0  0  0
   -2.1460    4.3399   -0.0500 H   0  0  0  0  0  0  0  0  0  0  0  0
    4.9828    0.1886    2.4518 H   0  0  0  0  0  0  0  0  0  0  0  0
    5.7870    0.1946    0.9121 H   0  0  0  0  0  0  0  0  0  0  0  0
    1.6486    0.2827    3.2537 H   0  0  0  0  0  0  0  0  0  0  0  0
   -4.9500    2.2487    2.0408 H   0  0  0  0  0  0  0  0  0  0  0  0
   -4.6587    1.4205    0.5049 H   0  0  0  0  0  0  0  0  0  0  0  0
   -4.6890    3.2092    0.5786 H   0  0  0  0  0  0  0  0  0  0  0  0
    4.8608    2.4894    0.4173 H   0  0  0  0  0  0  0  0  0  0  0  0
    5.8522    2.4439    1.8852 H   0  0  0  0  0  0  0  0  0  0  0  0
    4.0889    2.5109    2.0096 H   0  0  0  0  0  0  0  0  0  0  0  0
    4.1297   -0.4274   -3.1801 H   0  0  0  0  0  0  0  0  0  0  0  0
    4.5144   -2.0838   -2.5241 H   0  0  0  0  0  0  0  0  0  0  0  0
    5.7907   -0.9521   -2.9473 H   0  0  0  0  0  0  0  0  0  0  0  0
  1 10  1  0  0  0  0
  1 14  1  0  0  0  0
  2 10  1  0  0  0  0
  2 41  1  0  0  0  0
  3 13  1  0  0  0  0
  3 42  1  0  0  0  0
  4 19  1  0  0  0  0
  4 29  1  0  0  0  0
  5 18  2  0  0  0  0
  6 22  1  0  0  0  0
  6 31  1  0  0  0  0
  7 24  1  0  0  0  0
  7 50  1  0  0  0  0
  8 27  1  0  0  0  0
  8 33  1  0  0  0  0
  9 29  2  0  0  0  0
 10 11  1  0  0  0  0
 10 13  1  0  0  0  0
 11 12  1  0  0  0  0
 11 18  1  0  0  0  0
 11 34  1  0  0  0  0
 12 14  1  0  0  0  0
 12 16  1  0  0  0  0
 12 35  1  0  0  0  0
 13 15  1  0  0  0  0
 13 17  1  0  0  0  0
 14 21  1  0  0  0  0
 14 36  1  0  0  0  0
 15 19  1  0  0  0  0
 15 37  1  0  0  0  0
 15 38  1  0  0  0  0
 16 19  2  0  0  0  0
 16 22  1  0  0  0  0
 17 20  1  0  0  0  0
 17 23  2  0  0  0  0
 18 20  1  0  0  0  0
 20 24  2  0  0  0  0
 21 25  1  0  0  0  0
 21 39  1  0  0  0  0
 21 40  1  0  0  0  0
 22 28  2  0  0  0  0
 23 27  1  0  0  0  0
 23 43  1  0  0  0  0
 24 26  1  0  0  0  0
 25 44  1  0  0  0  0
 25 45  1  0  0  0  0
 25 46  1  0  0  0  0
 26 27  2  0  0  0  0
 26 30  1  0  0  0  0
 28 29  1  0  0  0  0
 28 47  1  0  0  0  0
 30 32  1  0  0  0  0
 30 48  1  0  0  0  0
 30 49  1  0  0  0  0
 31 51  1  0  0  0  0
 31 52  1  0  0  0  0
 31 53  1  0  0  0  0
 32 54  1  0  0  0  0
 32 55  1  0  0  0  0
 32 56  1  0  0  0  0
 33 57  1  0  0  0  0
 33 58  1  0  0  0  0
 33 59  1  0  0  0  0
M  END
> <PUBCHEM_COMPOUND_CID>
139044387

> <PUBCHEM_CONFORMER_RMSD>
0.8

> <PUBCHEM_CONFORMER_DIVERSEORDER>
1
2

> <PUBCHEM_MMFF94_PARTIAL_CHARGES>
35
1 -0.56
10 0.56
11 0.06
12 0.14
13 0.42
14 0.28
15 0.14
16 -0.14
17 -0.14
18 0.42
19 -0.06
2 -0.68
20 0.09
22 0.08
23 -0.15
24 0.08
26 -0.14
27 0.08
28 -0.14
29 0.71
3 -0.68
30 0.14
31 0.28
33 0.28
4 -0.23
41 0.4
42 0.4
43 0.15
47 0.15
5 -0.57
50 0.45
6 -0.36
7 -0.53
8 -0.36
9 -0.57

> <PUBCHEM_EFFECTIVE_ROTOR_COUNT>
4.6

> <PUBCHEM_PHARMACOPHORE_FEATURES>
17
1 1 acceptor
1 2 acceptor
1 2 donor
1 25 hydrophobe
1 3 acceptor
1 3 donor
1 32 hydrophobe
1 5 acceptor
1 6 acceptor
1 7 donor
1 8 acceptor
1 9 acceptor
5 1 10 11 12 14 rings
6 10 11 13 17 18 20 rings
6 17 20 23 24 26 27 rings
6 4 16 19 22 28 29 rings
7 10 11 12 13 15 16 19 rings

> <PUBCHEM_HEAVY_ATOM_COUNT>
33

> <PUBCHEM_ATOM_DEF_STEREO_COUNT>
5

> <PUBCHEM_ATOM_UDEF_STEREO_COUNT>
0

> <PUBCHEM_BOND_DEF_STEREO_COUNT>
0

> <PUBCHEM_BOND_UDEF_STEREO_COUNT>
0

> <PUBCHEM_ISOTOPIC_ATOM_COUNT>
0

> <PUBCHEM_COMPONENT_COUNT>
1

> <PUBCHEM_CACTVS_TAUTO_COUNT>
-1

> <PUBCHEM_CONFORMER_ID>
0849A62300000001

> <PUBCHEM_MMFF94_ENERGY>
126.1684

> <PUBCHEM_FEATURE_SELFOVERLAP>
89.034

> <PUBCHEM_SHAPE_FINGERPRINT>
10165383 225 18053401906382352897
10369192 42 17558825342198103064
10863032 1 18270122284094481595
10930396 42 17833793395508266872
10948715 1 17987235530311346147
11578080 2 17839496334609256007
12156800 1 16554021122657313417
12403814 3 18199175364309457442
12422481 6 18198651941498919211
12788726 201 17821730554597944774
13782708 43 18059868254888892214
14142880 1 18410282610707958353
14713325 29 18339075986940384858
14787075 74 16734703876881116569
14910302 57 18343868827272800174
14955137 171 18193568980901551091
15840311 113 17773901812423898315
15961568 22 18118401985260589380
16945 1 18342174505228718051
17980427 23 18340208617651525097
1813 80 18264202694069072727
18393751 57 17981311602654032522
18981168 100 17686606957918514501
20600515 1 18119239820950928535
21756936 100 17096672941032084060
22182313 1 17632570552764967074
23419403 2 17130454327245579021
23557571 272 18339352093102357362
23559900 14 17346043269260493922
238 59 17405960991447877765
3493558 16 18202291328939830217
35225 105 17977343271172048585
392239 28 16373299885626594888
469060 322 18113329830066513753
5252454 2 18122916321435248400
6287921 2 18056192712060524224
7399639 24 18272081747365327174
7808743 9 18190192182749433724

> <PUBCHEM_SHAPE_MULTIPOLES>
626.3
8.46
3.94
2.37
6.18
2.49
-0.11
-0.96
1.45
-4.54
-1.63
1.82
0.78
1.36

> <PUBCHEM_SHAPE_SELFOVERLAP>
1393.002

> <PUBCHEM_SHAPE_VOLUME>
332.8

> <PUBCHEM_COORDINATE_TYPE>
2
5
10

$$$$
