139060044
  -OEChem-03292013293D

 43 42  0     0  0  0  0  0  0999 V2000
   -4.3031    0.5176    0.7293 O   0  0  0  0  0  0  0  0  0  0  0  0
   -3.5113   -0.7384   -1.0229 O   0  0  0  0  0  0  0  0  0  0  0  0
   -0.1958   -0.0612    0.3265 O   0  0  0  0  0  0  0  0  0  0  0  0
    2.1485    0.0579   -1.5489 O   0  0  0  0  0  0  0  0  0  0  0  0
    5.3313    0.4696    0.0108 O   0  0  0  0  0  0  0  0  0  0  0  0
    5.2769    2.7634    0.1814 O   0  0  0  0  0  0  0  0  0  0  0  0
   -2.6208   -0.9341    1.1124 N   0  0  0  0  0  0  0  0  0  0  0  0
    0.6571   -2.2243    0.1867 N   0  0  0  0  0  0  0  0  0  0  0  0
    2.8347    0.1410    0.6600 N   0  0  0  0  0  0  0  0  0  0  0  0
   -5.2487    1.1366   -0.1501 C   0  0  0  0  0  0  0  0  0  0  0  0
   -6.1531    0.0518   -0.7333 C   0  0  0  0  0  0  0  0  0  0  0  0
   -6.0641    2.1290    0.6762 C   0  0  0  0  0  0  0  0  0  0  0  0
   -4.4828    1.8603   -1.2565 C   0  0  0  0  0  0  0  0  0  0  0  0
   -3.4823   -0.4148    0.1600 C   0  0  0  0  0  0  0  0  0  0  0  0
   -1.6313   -1.9353    0.8406 C   0  0  0  0  0  0  0  0  0  0  0  0
   -0.3265   -1.2778    0.4408 C   0  0  0  0  0  0  0  0  0  0  0  0
    1.9186   -1.9104   -0.2308 C   0  0  0  0  0  0  0  0  0  0  0  0
    2.2987   -0.4811   -0.4543 C   0  0  0  0  0  0  0  0  0  0  0  0
    3.2791    1.5160    0.6420 C   0  0  0  0  0  0  0  0  0  0  0  0
    2.8309   -2.8629   -0.4637 C   0  0  0  0  0  0  0  0  0  0  0  0
    4.7318    1.6670    0.2557 C   0  0  0  0  0  0  0  0  0  0  0  0
    6.7121    0.5301   -0.3619 C   0  0  0  0  0  0  0  0  0  0  0  0
   -5.6985   -0.5389   -1.5324 H   0  0  0  0  0  0  0  0  0  0  0  0
   -5.1426    2.5597   -1.7839 H   0  0  0  0  0  0  0  0  0  0  0  0
   -4.0705    1.2056   -2.0283 H   0  0  0  0  0  0  0  0  0  0  0  0
   -3.6467    2.4356   -0.8422 H   0  0  0  0  0  0  0  0  0  0  0  0
   -6.8137    2.6468    0.0690 H   0  0  0  0  0  0  0  0  0  0  0  0
   -6.5771    1.6192    1.4998 H   0  0  0  0  0  0  0  0  0  0  0  0
   -5.4114    2.8800    1.1359 H   0  0  0  0  0  0  0  0  0  0  0  0
   -7.0514    0.5001   -1.1745 H   0  0  0  0  0  0  0  0  0  0  0  0
   -6.4765   -0.6499    0.0444 H   0  0  0  0  0  0  0  0  0  0  0  0
   -2.6884   -0.5715    2.0586 H   0  0  0  0  0  0  0  0  0  0  0  0
   -1.4825   -2.5228    1.7515 H   0  0  0  0  0  0  0  0  0  0  0  0
   -1.9736   -2.5882    0.0314 H   0  0  0  0  0  0  0  0  0  0  0  0
    0.4358   -3.2088    0.3151 H   0  0  0  0  0  0  0  0  0  0  0  0
    2.6695    2.0840   -0.0671 H   0  0  0  0  0  0  0  0  0  0  0  0
    3.1458    1.9106    1.6532 H   0  0  0  0  0  0  0  0  0  0  0  0
    2.9416   -0.3839    1.5234 H   0  0  0  0  0  0  0  0  0  0  0  0
    2.6024   -3.9146   -0.3226 H   0  0  0  0  0  0  0  0  0  0  0  0
    3.8322   -2.6146   -0.8018 H   0  0  0  0  0  0  0  0  0  0  0  0
    7.0639   -0.4916   -0.5282 H   0  0  0  0  0  0  0  0  0  0  0  0
    7.3023    0.9783    0.4430 H   0  0  0  0  0  0  0  0  0  0  0  0
    6.8291    1.0973   -1.2902 H   0  0  0  0  0  0  0  0  0  0  0  0
  1 10  1  0  0  0  0
  1 14  1  0  0  0  0
  2 14  2  0  0  0  0
  3 16  2  0  0  0  0
  4 18  2  0  0  0  0
  5 21  1  0  0  0  0
  5 22  1  0  0  0  0
  6 21  2  0  0  0  0
  7 14  1  0  0  0  0
  7 15  1  0  0  0  0
  7 32  1  0  0  0  0
  8 16  1  0  0  0  0
  8 17  1  0  0  0  0
  8 35  1  0  0  0  0
  9 18  1  0  0  0  0
  9 19  1  0  0  0  0
  9 38  1  0  0  0  0
 10 11  1  0  0  0  0
 10 12  1  0  0  0  0
 10 13  1  0  0  0  0
 11 23  1  0  0  0  0
 11 30  1  0  0  0  0
 11 31  1  0  0  0  0
 12 27  1  0  0  0  0
 12 28  1  0  0  0  0
 12 29  1  0  0  0  0
 13 24  1  0  0  0  0
 13 25  1  0  0  0  0
 13 26  1  0  0  0  0
 15 16  1  0  0  0  0
 15 33  1  0  0  0  0
 15 34  1  0  0  0  0
 17 18  1  0  0  0  0
 17 20  2  0  0  0  0
 19 21  1  0  0  0  0
 19 36  1  0  0  0  0
 19 37  1  0  0  0  0
 20 39  1  0  0  0  0
 20 40  1  0  0  0  0
 22 41  1  0  0  0  0
 22 42  1  0  0  0  0
 22 43  1  0  0  0  0
M  END
> <PUBCHEM_COMPOUND_CID>
139060044

> <PUBCHEM_CONFORMER_RMSD>
1.2

> <PUBCHEM_CONFORMER_DIVERSEORDER>
1
73
71
80
55
68
64
22
93
17
62
43
78
37
84
27
81
2
26
29
19
20
61
7
15
34
51
30
63
48
67
28
8
92
76
47
44
52
50
94
41
82
54
66
33
72
88
87
91
70
4
10
75
40
89
77
79
85
83
45
32
49
74
11
23
58
16
21
86
46
60
6
90
57
24
69
5
56
59
25
36
9
31
42
14
12
35
3
13
38
53
65
18
39

> <PUBCHEM_MMFF94_PARTIAL_CHARGES>
24
1 -0.43
10 0.28
14 0.78
15 0.36
16 0.57
17 0.12
18 0.62
19 0.36
2 -0.57
20 -0.3
21 0.66
22 0.28
3 -0.57
32 0.37
35 0.37
38 0.37
39 0.15
4 -0.57
40 0.15
5 -0.43
6 -0.57
7 -0.73
8 -0.54
9 -0.73

> <PUBCHEM_EFFECTIVE_ROTOR_COUNT>
12

> <PUBCHEM_PHARMACOPHORE_FEATURES>
8
1 2 acceptor
1 3 acceptor
1 4 acceptor
1 6 acceptor
1 7 donor
1 8 donor
1 9 donor
4 10 11 12 13 hydrophobe

> <PUBCHEM_HEAVY_ATOM_COUNT>
22

> <PUBCHEM_ATOM_DEF_STEREO_COUNT>
0

> <PUBCHEM_ATOM_UDEF_STEREO_COUNT>
0

> <PUBCHEM_BOND_DEF_STEREO_COUNT>
0

> <PUBCHEM_BOND_UDEF_STEREO_COUNT>
0

> <PUBCHEM_ISOTOPIC_ATOM_COUNT>
0

> <PUBCHEM_COMPONENT_COUNT>
1

> <PUBCHEM_CACTVS_TAUTO_COUNT>
-1

> <PUBCHEM_CONFORMER_ID>
0849E34C00000001

> <PUBCHEM_MMFF94_ENERGY>
53.8645

> <PUBCHEM_FEATURE_SELFOVERLAP>
40.599

> <PUBCHEM_SHAPE_FINGERPRINT>
10595046 47 18272082795574704791
10763959 59 18335706061669994484
12403259 415 18336279984795475691
12596602 18 14923951166756648597
12633257 1 16443348714595390447
12769317 202 18342731927427062040
13402501 40 18408037424806753453
13740256 8 9439410133484906266
14123255 352 18408885174077911248
15003188 100 18271803583238702345
15510800 12 11455303130704497501
17780758 139 11602814701586824279
17870717 6 13901903402529237657
18335252 98 18411984694069648251
18608769 82 18339082717882333203
190975 80 8502371097389214396
193927 3 10231752310279338943
20281389 69 18113613499697633256
20567600 254 18040425599432590335
20645477 56 18333452045457810763
20645477 70 17988647345906779751
21033648 144 18334853880039352343
21033648 29 17168425936063206783
21033650 10 14764359193511685347
21279426 13 18342185479476379006
21452121 103 18334856087135622890
21774942 28 17632021823638459272
22393880 68 17560509715720781663
23402655 69 18202280286536115699
23559900 14 18340769217620480786
2838139 119 18341609338855582292
2916195 48 18260828190109778417
314194 84 10881676944925179256
495365 180 18272364244080277554
5104073 3 18186807946315437627
56616090 46 18260269672468135402
59682541 52 17274837804959608724
59755656 215 18409453553492337654
6328613 192 18041849536137831508
633830 44 18338510829859427327
636775 8 8213606436371426536
7062679 13 10087651385436893384
7970288 3 9151184142110377033

> <PUBCHEM_SHAPE_MULTIPOLES>
402.59
16.4
2.76
1.03
2.95
0.28
-0.16
-12.42
-1.42
-1.9
0.13
0.64
-0.05
0.75

> <PUBCHEM_SHAPE_SELFOVERLAP>
797.27

> <PUBCHEM_SHAPE_VOLUME>
237.6

> <PUBCHEM_COORDINATE_TYPE>
2
5
10

$$$$
