139330
  -OEChem-03292013323D

 39 41  0     1  0  0  0  0  0999 V2000
    3.5507    1.9035   -0.2458 S   0  0  0  0  0  0  0  0  0  0  0  0
    2.1714    4.1290   -0.3967 O   0  0  0  0  0  0  0  0  0  0  0  0
    1.2652    0.6550   -0.3141 N   0  0  0  0  0  0  0  0  0  0  0  0
   -4.8069   -0.7277    0.4125 N   0  0  0  0  0  0  0  0  0  0  0  0
   -6.0416   -2.4225   -0.6162 N   0  0  0  0  0  0  0  0  0  0  0  0
   -3.9985   -1.9374   -1.5095 N   0  0  0  0  0  0  0  0  0  0  0  0
    0.8877    2.0695   -0.4600 C   0  0  1  0  0  0  0  0  0  0  0  0
   -0.0950    2.4354    0.6388 C   0  0  0  0  0  0  0  0  0  0  0  0
   -1.3448    1.5956    0.5780 C   0  0  0  0  0  0  0  0  0  0  0  0
    2.1332    2.9084   -0.3755 C   0  0  0  0  0  0  0  0  0  0  0  0
    2.5410    0.4795   -0.2155 C   0  0  0  0  0  0  0  0  0  0  0  0
   -2.4225    2.0313   -0.1785 C   0  0  0  0  0  0  0  0  0  0  0  0
   -1.3980    0.4004    1.2802 C   0  0  0  0  0  0  0  0  0  0  0  0
    3.1434   -0.8684   -0.0637 C   0  0  0  0  0  0  0  0  0  0  0  0
   -3.5797    1.2545   -0.2341 C   0  0  0  0  0  0  0  0  0  0  0  0
   -2.5553   -0.3764    1.2246 C   0  0  0  0  0  0  0  0  0  0  0  0
   -3.6461    0.0506    0.4673 C   0  0  0  0  0  0  0  0  0  0  0  0
    2.4333   -1.8812    0.5810 C   0  0  0  0  0  0  0  0  0  0  0  0
    4.4196   -1.1226   -0.5663 C   0  0  0  0  0  0  0  0  0  0  0  0
    2.9991   -3.1480    0.7234 C   0  0  0  0  0  0  0  0  0  0  0  0
    4.9855   -2.3897   -0.4240 C   0  0  0  0  0  0  0  0  0  0  0  0
    4.2751   -3.4023    0.2210 C   0  0  0  0  0  0  0  0  0  0  0  0
   -4.9171   -1.6364   -0.5271 C   0  0  0  0  0  0  0  0  0  0  0  0
    0.4481    2.2128   -1.4544 H   0  0  0  0  0  0  0  0  0  0  0  0
   -0.3638    3.4981    0.5710 H   0  0  0  0  0  0  0  0  0  0  0  0
    0.3709    2.3223    1.6277 H   0  0  0  0  0  0  0  0  0  0  0  0
   -2.3798    2.9663   -0.7297 H   0  0  0  0  0  0  0  0  0  0  0  0
   -0.5572    0.0598    1.8777 H   0  0  0  0  0  0  0  0  0  0  0  0
   -4.4245    1.5958   -0.8267 H   0  0  0  0  0  0  0  0  0  0  0  0
   -2.5978   -1.3122    1.7759 H   0  0  0  0  0  0  0  0  0  0  0  0
    1.4400   -1.7023    0.9840 H   0  0  0  0  0  0  0  0  0  0  0  0
    4.9950   -0.3668   -1.0925 H   0  0  0  0  0  0  0  0  0  0  0  0
    2.4467   -3.9363    1.2263 H   0  0  0  0  0  0  0  0  0  0  0  0
    5.9771   -2.5897   -0.8193 H   0  0  0  0  0  0  0  0  0  0  0  0
    4.7154   -4.3890    0.3310 H   0  0  0  0  0  0  0  0  0  0  0  0
   -6.8077   -2.3168    0.0400 H   0  0  0  0  0  0  0  0  0  0  0  0
   -6.1396   -3.1279   -1.3381 H   0  0  0  0  0  0  0  0  0  0  0  0
   -4.1825   -2.6645   -2.1923 H   0  0  0  0  0  0  0  0  0  0  0  0
   -3.1124   -1.4507   -1.5869 H   0  0  0  0  0  0  0  0  0  0  0  0
  1 10  1  0  0  0  0
  1 11  1  0  0  0  0
  2 10  2  0  0  0  0
  3  7  1  0  0  0  0
  3 11  2  0  0  0  0
  4 17  1  0  0  0  0
  4 23  2  0  0  0  0
  5 23  1  0  0  0  0
  5 36  1  0  0  0  0
  5 37  1  0  0  0  0
  6 23  1  0  0  0  0
  6 38  1  0  0  0  0
  6 39  1  0  0  0  0
  7  8  1  0  0  0  0
  7 10  1  0  0  0  0
  7 24  1  0  0  0  0
  8  9  1  0  0  0  0
  8 25  1  0  0  0  0
  8 26  1  0  0  0  0
  9 12  2  0  0  0  0
  9 13  1  0  0  0  0
 11 14  1  0  0  0  0
 12 15  1  0  0  0  0
 12 27  1  0  0  0  0
 13 16  2  0  0  0  0
 13 28  1  0  0  0  0
 14 18  2  0  0  0  0
 14 19  1  0  0  0  0
 15 17  2  0  0  0  0
 15 29  1  0  0  0  0
 16 17  1  0  0  0  0
 16 30  1  0  0  0  0
 18 20  1  0  0  0  0
 18 31  1  0  0  0  0
 19 21  2  0  0  0  0
 19 32  1  0  0  0  0
 20 22  2  0  0  0  0
 20 33  1  0  0  0  0
 21 22  1  0  0  0  0
 21 34  1  0  0  0  0
 22 35  1  0  0  0  0
M  END
> <PUBCHEM_COMPOUND_CID>
139330

> <PUBCHEM_CONFORMER_RMSD>
0.8

> <PUBCHEM_CONFORMER_DIVERSEORDER>
1
12
3
9
10
4
11
6
5
2
7
8

> <PUBCHEM_MMFF94_PARTIAL_CHARGES>
36
1 -0.28
10 0.65
11 0.5
12 -0.15
13 -0.15
14 0.09
15 -0.15
16 -0.15
17 0.18
18 -0.15
19 -0.15
2 -0.57
20 -0.15
21 -0.15
22 -0.15
23 0.55
27 0.15
28 0.15
29 0.15
3 -0.7
30 0.15
31 0.15
32 0.15
33 0.15
34 0.15
35 0.15
36 0.4
37 0.4
38 0.4
39 0.4
4 -0.63
5 -0.85
6 -0.85
7 0.31
8 0.14
9 -0.14

> <PUBCHEM_EFFECTIVE_ROTOR_COUNT>
4.4

> <PUBCHEM_PHARMACOPHORE_FEATURES>
7
1 3 acceptor
1 5 donor
1 6 donor
4 4 5 6 23 cation
5 1 3 7 10 11 rings
6 14 18 19 20 21 22 rings
6 9 12 13 15 16 17 rings

> <PUBCHEM_HEAVY_ATOM_COUNT>
23

> <PUBCHEM_ATOM_DEF_STEREO_COUNT>
1

> <PUBCHEM_ATOM_UDEF_STEREO_COUNT>
0

> <PUBCHEM_BOND_DEF_STEREO_COUNT>
0

> <PUBCHEM_BOND_UDEF_STEREO_COUNT>
0

> <PUBCHEM_ISOTOPIC_ATOM_COUNT>
0

> <PUBCHEM_COMPONENT_COUNT>
1

> <PUBCHEM_CACTVS_TAUTO_COUNT>
2

> <PUBCHEM_CONFORMER_ID>
0002204200000001

> <PUBCHEM_MMFF94_ENERGY>
65.7793

> <PUBCHEM_FEATURE_SELFOVERLAP>
35.577

> <PUBCHEM_SHAPE_FINGERPRINT>
10622 236 17916006049451426711
10693767 8 18198045071537898679
11069576 57 18340197621818174175
11315621 246 17834973970966511438
11552529 35 17912082746901692722
11719270 70 18193551392815392368
12107183 9 18197793107054482929
12173636 292 9365332706569696168
12553582 1 17974305235209556464
13533116 47 18339081600794885135
138480 1 18336272258465834064
13911987 19 17757007961374798692
14117953 113 17982734074010014719
14251740 57 18273210906856980754
14429380 30 18335986376562891362
14480069 147 18051967315125268263
1454969 45 18408324394122035436
14767858 380 18189357735698016382
15163728 17 13696140740466888547
15352361 1 18264492780512922322
15537594 2 18338533944676809379
17134984 74 17907567374885612431
17138139 8 17340681195025871983
17492 89 18410854369586562575
19141452 34 17979923709040974912
19319366 153 17909827970069432165
20028762 73 18199187476787054404
20626108 58 18340482270917894130
20645477 70 18187928455521313049
20775438 99 17979052093053219651
20775530 9 18261961730294091898
21133410 171 17320375100900224811
221490 88 18261968387667499880
23379529 103 17621889682460661502
23559900 14 18409162182215333328
23569914 152 17904729256575683591
23622692 118 18412825767896251445
25222932 49 17768812314410941831
314194 84 18336278872472363754
3421961 26 18410294684003575664
4017518 198 15595796361309912386
4280585 95 18117551839201202642
4283 87 18409162177867455970
44062 13 18336826369307566373
46194498 28 16227767499643741959
463206 1 18410860996689731411
556388 4 18410574006705480427
59682541 52 18194940029273111447
6433294 58 18266180719645408419
76465 3 18413670214638635069
7970288 3 18267303123486146166
88748 71 18410295809226822363
9709674 26 18261399970020341721

> <PUBCHEM_SHAPE_MULTIPOLES>
451.39
11.66
4.57
1
7.61
0.85
-0.05
-11.91
2.27
-3.56
0.49
0.6
-0.26
-1.53

> <PUBCHEM_SHAPE_SELFOVERLAP>
964.945

> <PUBCHEM_SHAPE_VOLUME>
251.3

> <PUBCHEM_COORDINATE_TYPE>
2
5
10

$$$$
