13945563
  -OEChem-03292013303D

 31 34  0     1  0  0  0  0  0999 V2000
   -5.1409    1.5315    0.6893 Cl  0  0  0  0  0  0  0  0  0  0  0  0
    0.5706    2.5586   -0.0952 S   0  0  0  0  0  0  0  0  0  0  0  0
    2.5837    2.6296    0.3325 S   0  0  0  0  0  0  0  0  0  0  0  0
   -0.1470   -1.3574   -0.2538 O   0  0  0  0  0  0  0  0  0  0  0  0
    1.9464   -1.9812    1.2198 O   0  0  0  0  0  0  0  0  0  0  0  0
    0.6714   -0.2338   -2.5711 O   0  0  0  0  0  0  0  0  0  0  0  0
    4.0045   -0.1189    1.5639 O   0  0  0  0  0  0  0  0  0  0  0  0
   -4.9451   -1.3015   -0.2867 O   0  0  0  0  0  0  0  0  0  0  0  0
    1.9955   -0.7312    0.5870 N   0  0  0  0  0  0  0  0  0  0  0  0
    2.5648    0.6292   -1.5821 N   0  0  0  0  0  0  0  0  0  0  0  0
    0.8075   -0.2760   -0.1331 C   0  0  2  0  0  0  0  0  0  0  0  0
    0.1234    0.9311    0.5762 C   0  0  2  0  0  0  0  0  0  0  0  0
   -1.3009    0.5522    0.3600 C   0  0  0  0  0  0  0  0  0  0  0  0
    1.3271   -0.0021   -1.5574 C   0  0  0  0  0  0  0  0  0  0  0  0
    3.2396    1.0870   -0.3797 C   0  0  2  0  0  0  0  0  0  0  0  0
   -1.3702   -0.7622   -0.0794 C   0  0  0  0  0  0  0  0  0  0  0  0
    3.1600   -0.0019    0.6788 C   0  0  0  0  0  0  0  0  0  0  0  0
   -2.4619    1.2659    0.6129 C   0  0  0  0  0  0  0  0  0  0  0  0
   -2.5754   -1.4029   -0.2996 C   0  0  0  0  0  0  0  0  0  0  0  0
   -3.6922    0.6423    0.3864 C   0  0  0  0  0  0  0  0  0  0  0  0
   -3.7483   -0.6840   -0.0683 C   0  0  0  0  0  0  0  0  0  0  0  0
    2.3874   -2.9744    0.2995 C   0  0  0  0  0  0  0  0  0  0  0  0
    0.3112    0.9160    1.6574 H   0  0  0  0  0  0  0  0  0  0  0  0
    4.2926    1.2340   -0.6397 H   0  0  0  0  0  0  0  0  0  0  0  0
    2.9525    0.8900   -2.4836 H   0  0  0  0  0  0  0  0  0  0  0  0
   -2.4125    2.2838    0.9876 H   0  0  0  0  0  0  0  0  0  0  0  0
   -2.5986   -2.4319   -0.6427 H   0  0  0  0  0  0  0  0  0  0  0  0
    1.7673   -2.9993   -0.6011 H   0  0  0  0  0  0  0  0  0  0  0  0
    2.3137   -3.9479    0.7922 H   0  0  0  0  0  0  0  0  0  0  0  0
    3.4346   -2.8071    0.0273 H   0  0  0  0  0  0  0  0  0  0  0  0
   -4.7839   -2.2096   -0.5955 H   0  0  0  0  0  0  0  0  0  0  0  0
  1 20  1  0  0  0  0
  2  3  1  0  0  0  0
  2 12  1  0  0  0  0
  3 15  1  0  0  0  0
  4 11  1  0  0  0  0
  4 16  1  0  0  0  0
  5  9  1  0  0  0  0
  5 22  1  0  0  0  0
  6 14  2  0  0  0  0
  7 17  2  0  0  0  0
  8 21  1  0  0  0  0
  8 31  1  0  0  0  0
  9 11  1  0  0  0  0
  9 17  1  0  0  0  0
 10 14  1  0  0  0  0
 10 15  1  0  0  0  0
 10 25  1  0  0  0  0
 11 12  1  0  0  0  0
 11 14  1  0  0  0  0
 12 13  1  0  0  0  0
 12 23  1  0  0  0  0
 13 16  1  0  0  0  0
 13 18  2  0  0  0  0
 15 17  1  0  0  0  0
 15 24  1  0  0  0  0
 16 19  2  0  0  0  0
 18 20  1  0  0  0  0
 18 26  1  0  0  0  0
 19 21  1  0  0  0  0
 19 27  1  0  0  0  0
 20 21  2  0  0  0  0
 22 28  1  0  0  0  0
 22 29  1  0  0  0  0
 22 30  1  0  0  0  0
M  END
> <PUBCHEM_COMPOUND_CID>
13945563

> <PUBCHEM_CONFORMER_RMSD>
0.6

> <PUBCHEM_CONFORMER_DIVERSEORDER>
1

> <PUBCHEM_MMFF94_PARTIAL_CHARGES>
26
1 -0.18
10 -0.73
11 0.64
12 0.37
13 -0.14
14 0.57
15 0.59
16 0.08
17 0.57
18 -0.15
19 -0.15
2 -0.23
20 0.18
21 0.08
22 0.28
25 0.37
26 0.15
27 0.15
3 -0.23
31 0.45
4 -0.36
5 -0.32
6 -0.57
7 -0.57
8 -0.53
9 -0.32

> <PUBCHEM_EFFECTIVE_ROTOR_COUNT>
2

> <PUBCHEM_PHARMACOPHORE_FEATURES>
8
1 10 donor
1 4 acceptor
1 6 acceptor
1 7 acceptor
1 8 donor
5 4 11 12 13 16 rings
6 13 16 18 19 20 21 rings
9 2 3 9 10 11 12 14 15 17 rings

> <PUBCHEM_HEAVY_ATOM_COUNT>
22

> <PUBCHEM_ATOM_DEF_STEREO_COUNT>
3

> <PUBCHEM_ATOM_UDEF_STEREO_COUNT>
0

> <PUBCHEM_BOND_DEF_STEREO_COUNT>
0

> <PUBCHEM_BOND_UDEF_STEREO_COUNT>
0

> <PUBCHEM_ISOTOPIC_ATOM_COUNT>
0

> <PUBCHEM_COMPONENT_COUNT>
1

> <PUBCHEM_CACTVS_TAUTO_COUNT>
6

> <PUBCHEM_CONFORMER_ID>
00D4CADB00000001

> <PUBCHEM_MMFF94_ENERGY>
77.9004

> <PUBCHEM_FEATURE_SELFOVERLAP>
40.732

> <PUBCHEM_SHAPE_FINGERPRINT>
10863032 1 18192712465258211264
10948715 1 18054229001662946288
11578080 2 17750502997318377620
12236239 1 18259988188748034852
13132413 78 18411975853982227313
13134695 92 16515677888094874812
13140716 1 18339922739500438912
13224815 77 17704077313104994681
13583140 156 18336532894202637365
13675066 3 17895481328281963985
14181834 199 17603309254231114278
14223421 5 18408881823881990497
14790565 3 18264213693628575924
14863182 85 18408609158242640594
15196674 1 18341896333081767049
15375358 24 17632859707406849045
15442244 35 18267585706558306545
16945 1 18341614853793829480
17492 89 18411981343489067003
17980427 23 17988065790186894689
1813 80 17386851604354105366
18186145 218 18342183258567057653
19050596 39 18335138691746495033
20559304 39 18408886230745218154
20691752 17 18041276660135109185
20715895 44 18125438601975108313
21267235 1 18411987987349208675
21421861 104 18042401322816577402
21756936 100 17767110275123050752
2255824 54 18190183562486352092
22854114 111 18334015029354284385
23402539 116 18202279203945894501
23419403 2 17461962627986741828
23557571 272 17489588995742645579
23559900 14 17845949424065831887
296302 2 18040436624281498561
34934 24 18342737420684912993
474 4 17970350544697237868
5104073 3 18411139181868953265
5939293 188 18272373113188029536
633830 44 18341615979049134580
7097593 13 18337666395637585139
7364860 26 18410859828521683274
9709674 26 18408888434211816395

> <PUBCHEM_SHAPE_MULTIPOLES>
423.01
7.88
2.58
1.31
8.43
0.02
-0.63
-0.65
1.61
-1.26
0.43
-1.05
0.15
-0.9

> <PUBCHEM_SHAPE_SELFOVERLAP>
906.152

> <PUBCHEM_SHAPE_VOLUME>
236.9

> <PUBCHEM_COORDINATE_TYPE>
2
5
10

$$$$
