139589451
  -OEChem-03292013293D

 62 62  0     1  0  0  0  0  0999 V2000
    1.5188   -0.2050    2.6062 O   0  0  0  0  0  0  0  0  0  0  0  0
    4.4149   -2.3934   -1.2475 O   0  0  0  0  0  0  0  0  0  0  0  0
   -3.7776   -1.0709   -1.7432 O   0  0  0  0  0  0  0  0  0  0  0  0
    8.4433    3.1998   -0.6241 O   0  0  0  0  0  0  0  0  0  0  0  0
   -8.0450    0.9125    0.2751 O   0  0  0  0  0  0  0  0  0  0  0  0
   -9.8626    2.0947   -0.5225 O   0  0  0  0  0  0  0  0  0  0  0  0
    2.3662   -2.0116   -0.2702 N   0  0  0  0  0  0  0  0  0  0  0  0
    3.5053   -0.3610    1.4541 N   0  0  0  0  0  0  0  0  0  0  0  0
   -2.8700   -1.9086    0.2169 N   0  0  0  0  0  0  0  0  0  0  0  0
    8.3540    0.9303   -0.1078 N   0  0  0  0  0  0  0  0  0  0  0  0
    1.4638   -1.0387    0.3277 C   0  0  1  0  0  0  0  0  0  0  0  0
    4.1584   -0.4295    0.1550 C   0  0  1  0  0  0  0  0  0  0  0  0
    0.1018   -1.6513    0.6117 C   0  0  0  0  0  0  0  0  0  0  0  0
    5.6706   -0.3624    0.2935 C   0  0  0  0  0  0  0  0  0  0  0  0
    2.1371   -0.5347    1.5970 C   0  0  0  0  0  0  0  0  0  0  0  0
    3.7038   -1.7273   -0.4990 C   0  0  0  0  0  0  0  0  0  0  0  0
   -0.5788   -2.1214   -0.6759 C   0  0  0  0  0  0  0  0  0  0  0  0
    6.1167    0.9611    0.9196 C   0  0  0  0  0  0  0  0  0  0  0  0
   -1.9221   -2.7952   -0.4162 C   0  0  0  0  0  0  0  0  0  0  0  0
    7.6260    1.0327    1.1265 C   0  0  0  0  0  0  0  0  0  0  0  0
   -3.7306   -1.1093   -0.5193 C   0  0  0  0  0  0  0  0  0  0  0  0
    8.7037    2.0279   -0.8840 C   0  0  0  0  0  0  0  0  0  0  0  0
   -4.5933   -0.2705    0.3639 C   0  0  0  0  0  0  0  0  0  0  0  0
   -5.0937    0.9450    0.0701 C   0  0  0  0  0  0  0  0  0  0  0  0
   -5.9233    1.8211    0.9865 C   0  0  0  0  0  0  0  0  0  0  0  0
    9.4838    1.6411   -2.1118 C   0  0  0  0  0  0  0  0  0  0  0  0
   -4.7803    1.5634   -1.2718 C   0  0  0  0  0  0  0  0  0  0  0  0
   -7.3142    2.1203    0.4343 C   0  0  0  0  0  0  0  0  0  0  0  0
   -9.3152    1.0443   -0.2157 C   0  0  0  0  0  0  0  0  0  0  0  0
   -9.9613   -0.3033   -0.3292 C   0  0  0  0  0  0  0  0  0  0  0  0
    1.3708   -0.1931   -0.3647 H   0  0  0  0  0  0  0  0  0  0  0  0
    3.7883    0.4043   -0.4542 H   0  0  0  0  0  0  0  0  0  0  0  0
   -0.5321   -0.9125    1.1171 H   0  0  0  0  0  0  0  0  0  0  0  0
    0.2067   -2.4997    1.3006 H   0  0  0  0  0  0  0  0  0  0  0  0
    6.0297   -1.1974    0.9094 H   0  0  0  0  0  0  0  0  0  0  0  0
    6.1328   -0.4790   -0.6943 H   0  0  0  0  0  0  0  0  0  0  0  0
    1.9938   -2.8467   -0.7097 H   0  0  0  0  0  0  0  0  0  0  0  0
    4.0064    0.0070    2.2556 H   0  0  0  0  0  0  0  0  0  0  0  0
   -0.7225   -1.2614   -1.3420 H   0  0  0  0  0  0  0  0  0  0  0  0
    0.0448   -2.8406   -1.2154 H   0  0  0  0  0  0  0  0  0  0  0  0
    5.7950    1.7900    0.2766 H   0  0  0  0  0  0  0  0  0  0  0  0
    5.6485    1.1165    1.8963 H   0  0  0  0  0  0  0  0  0  0  0  0
   -1.7953   -3.6596    0.2443 H   0  0  0  0  0  0  0  0  0  0  0  0
   -2.3432   -3.1553   -1.3614 H   0  0  0  0  0  0  0  0  0  0  0  0
    7.9632    0.2171    1.7750 H   0  0  0  0  0  0  0  0  0  0  0  0
    7.8849    1.9788    1.6146 H   0  0  0  0  0  0  0  0  0  0  0  0
   -2.8833   -1.8735    1.2323 H   0  0  0  0  0  0  0  0  0  0  0  0
    8.6258    0.0022   -0.4191 H   0  0  0  0  0  0  0  0  0  0  0  0
   -4.7969   -0.6849    1.3492 H   0  0  0  0  0  0  0  0  0  0  0  0
   -5.3883    2.7599    1.1717 H   0  0  0  0  0  0  0  0  0  0  0  0
   -6.0311    1.3190    1.9563 H   0  0  0  0  0  0  0  0  0  0  0  0
    8.9999    0.8027   -2.6211 H   0  0  0  0  0  0  0  0  0  0  0  0
    9.5297    2.4888   -2.8010 H   0  0  0  0  0  0  0  0  0  0  0  0
   10.4987    1.3553   -1.8228 H   0  0  0  0  0  0  0  0  0  0  0  0
   -5.4939    1.2216   -2.0282 H   0  0  0  0  0  0  0  0  0  0  0  0
   -3.7597    1.3567   -1.6072 H   0  0  0  0  0  0  0  0  0  0  0  0
   -4.8481    2.6563   -1.2181 H   0  0  0  0  0  0  0  0  0  0  0  0
   -7.8437    2.7679    1.1435 H   0  0  0  0  0  0  0  0  0  0  0  0
   -7.2492    2.6432   -0.5271 H   0  0  0  0  0  0  0  0  0  0  0  0
   -9.3878   -0.9321   -1.0149 H   0  0  0  0  0  0  0  0  0  0  0  0
  -10.9739   -0.1880   -0.7263 H   0  0  0  0  0  0  0  0  0  0  0  0
  -10.0246   -0.7678    0.6580 H   0  0  0  0  0  0  0  0  0  0  0  0
  1 15  2  0  0  0  0
  2 16  2  0  0  0  0
  3 21  2  0  0  0  0
  4 22  2  0  0  0  0
  5 28  1  0  0  0  0
  5 29  1  0  0  0  0
  6 29  2  0  0  0  0
  7 11  1  0  0  0  0
  7 16  1  0  0  0  0
  7 37  1  0  0  0  0
  8 12  1  0  0  0  0
  8 15  1  0  0  0  0
  8 38  1  0  0  0  0
  9 19  1  0  0  0  0
  9 21  1  0  0  0  0
  9 47  1  0  0  0  0
 10 20  1  0  0  0  0
 10 22  1  0  0  0  0
 10 48  1  0  0  0  0
 11 13  1  0  0  0  0
 11 15  1  0  0  0  0
 11 31  1  0  0  0  0
 12 14  1  0  0  0  0
 12 16  1  0  0  0  0
 12 32  1  0  0  0  0
 13 17  1  0  0  0  0
 13 33  1  0  0  0  0
 13 34  1  0  0  0  0
 14 18  1  0  0  0  0
 14 35  1  0  0  0  0
 14 36  1  0  0  0  0
 17 19  1  0  0  0  0
 17 39  1  0  0  0  0
 17 40  1  0  0  0  0
 18 20  1  0  0  0  0
 18 41  1  0  0  0  0
 18 42  1  0  0  0  0
 19 43  1  0  0  0  0
 19 44  1  0  0  0  0
 20 45  1  0  0  0  0
 20 46  1  0  0  0  0
 21 23  1  0  0  0  0
 22 26  1  0  0  0  0
 23 24  2  3  0  0  0
 23 49  1  0  0  0  0
 24 25  1  0  0  0  0
 24 27  1  0  0  0  0
 25 28  1  0  0  0  0
 25 50  1  0  0  0  0
 25 51  1  0  0  0  0
 26 52  1  0  0  0  0
 26 53  1  0  0  0  0
 26 54  1  0  0  0  0
 27 55  1  0  0  0  0
 27 56  1  0  0  0  0
 27 57  1  0  0  0  0
 28 58  1  0  0  0  0
 28 59  1  0  0  0  0
 29 30  1  0  0  0  0
 30 60  1  0  0  0  0
 30 61  1  0  0  0  0
 30 62  1  0  0  0  0
M  END
> <PUBCHEM_COMPOUND_CID>
139589451

> <PUBCHEM_CONFORMER_RMSD>
1.6

> <PUBCHEM_CONFORMER_DIVERSEORDER>
1
15
68
34
31
47
61
33
28
36
32
14
38
40
48
22
67
24
43
75
54
37
44
23
11
49
59
13
18
20
62
39
74
3
46
9
50
25
29
41
16
10
21
71
63
12
60
35
52
66
4
51
19
69
42
57
73
72
6
30
58
53
27
45
56
70
2
17
64
55
8
5
7
65
26

> <PUBCHEM_MMFF94_PARTIAL_CHARGES>
31
1 -0.57
10 -0.73
11 0.36
12 0.36
15 0.57
16 0.57
19 0.3
2 -0.57
20 0.3
21 0.62
22 0.57
23 -0.14
24 -0.28
25 0.14
26 0.06
27 0.14
28 0.28
29 0.66
3 -0.57
30 0.06
37 0.37
38 0.37
4 -0.57
47 0.37
48 0.37
49 0.15
5 -0.43
6 -0.57
7 -0.73
8 -0.73
9 -0.73

> <PUBCHEM_EFFECTIVE_ROTOR_COUNT>
15.8

> <PUBCHEM_PHARMACOPHORE_FEATURES>
11
1 1 acceptor
1 10 donor
1 2 acceptor
1 27 hydrophobe
1 3 acceptor
1 4 acceptor
1 6 acceptor
1 7 donor
1 8 donor
1 9 donor
6 7 8 11 12 15 16 rings

> <PUBCHEM_HEAVY_ATOM_COUNT>
30

> <PUBCHEM_ATOM_DEF_STEREO_COUNT>
2

> <PUBCHEM_ATOM_UDEF_STEREO_COUNT>
0

> <PUBCHEM_BOND_DEF_STEREO_COUNT>
0

> <PUBCHEM_BOND_UDEF_STEREO_COUNT>
1

> <PUBCHEM_ISOTOPIC_ATOM_COUNT>
0

> <PUBCHEM_COMPONENT_COUNT>
1

> <PUBCHEM_CACTVS_TAUTO_COUNT>
-1

> <PUBCHEM_CONFORMER_ID>
0851F74B00000001

> <PUBCHEM_MMFF94_ENERGY>
56.7158

> <PUBCHEM_FEATURE_SELFOVERLAP>
55.833

> <PUBCHEM_SHAPE_FINGERPRINT>
10 15 18187080637978207475
10930396 42 16515401877113305301
11135609 201 17967529065037807339
11273773 46 11383822793551465197
13383668 254 16660917881151472567
14664723 55 18202570600418755248
14931854 50 17203613692375648170
15183329 4 15985100787285779419
15706992 2 17167869682148448588
15840311 113 18260551091620651910
16994733 274 18261951951476517856
20105231 36 11167932590426670045
21033648 29 18058712694011522299
21095123 293 18187085061779360812
21424621 283 18040432209799027770
23576562 1 16916490588298485673
3986486 107 16917075433921290392
4339292 15 11312062028528423002
4516262 110 18260540092373229231
5719381 82 9511464415707598645
5776283 40 18273212014900547705
59682541 35 14779544595414411972

> <PUBCHEM_SHAPE_MULTIPOLES>
562.25
35.68
2.95
1.5
12.97
0.05
-0.17
34.65
8.76
-1.28
0.88
-2.24
0.2
-1.72

> <PUBCHEM_SHAPE_SELFOVERLAP>
1114.387

> <PUBCHEM_SHAPE_VOLUME>
329.9

> <PUBCHEM_COORDINATE_TYPE>
2
5
10

$$$$
