139583411
  -OEChem-03292013293D

 70 70  0     1  0  0  0  0  0999 V2000
    7.2839   -0.6002   -1.2871 O   0  0  0  0  0  0  0  0  0  0  0  0
    5.7099   -2.5671   -0.1356 O   0  0  0  0  0  0  0  0  0  0  0  0
    5.1847    0.4928   -3.0965 O   0  0  0  0  0  0  0  0  0  0  0  0
    3.2229    1.7684   -1.7655 O   0  0  0  0  0  0  0  0  0  0  0  0
   -5.8063   -2.0226   -0.0026 O   0  0  0  0  0  0  0  0  0  0  0  0
   -3.5519   -1.7579    1.5844 O   0  0  0  0  0  0  0  0  0  0  0  0
   -5.2060   -0.9637   -1.9884 N   0  0  0  0  0  0  0  0  0  0  0  0
    5.9308   -0.2968   -0.9051 C   0  0  2  0  0  0  0  0  0  0  0  0
    5.1382   -1.6128   -1.0389 C   0  0  2  0  0  0  0  0  0  0  0  0
    5.4745    0.8948   -1.7671 C   0  0  2  0  0  0  0  0  0  0  0  0
   -6.4790    1.0307   -1.1984 C   0  0  2  0  0  0  0  0  0  0  0  0
   -6.4075   -0.1632   -2.1763 C   0  0  0  0  0  0  0  0  0  0  0  0
    3.6595   -1.4841   -0.7744 C   0  0  0  0  0  0  0  0  0  0  0  0
    4.2958    1.6639   -1.1770 C   0  0  0  0  0  0  0  0  0  0  0  0
   -7.5701    2.0114   -1.6233 C   0  0  0  0  0  0  0  0  0  0  0  0
   -5.1416    1.7328   -1.0903 C   0  0  0  0  0  0  0  0  0  0  0  0
    3.0014   -1.9168    0.3141 C   0  0  0  0  0  0  0  0  0  0  0  0
    4.5409    2.3396    0.1312 C   0  0  0  0  0  0  0  0  0  0  0  0
   -4.3730    1.6396    0.0065 C   0  0  0  0  0  0  0  0  0  0  0  0
    1.5652   -1.7888    0.4579 C   0  0  0  0  0  0  0  0  0  0  0  0
   -4.9808   -1.7374   -0.8618 C   0  0  0  0  0  0  0  0  0  0  0  0
    0.8064   -2.1978    1.4951 C   0  0  0  0  0  0  0  0  0  0  0  0
    3.6322    2.5564    1.0917 C   0  0  0  0  0  0  0  0  0  0  0  0
   -3.0150    2.1277    0.0851 C   0  0  0  0  0  0  0  0  0  0  0  0
   -3.5449   -2.1183   -0.7637 C   0  0  0  0  0  0  0  0  0  0  0  0
   -0.6402   -1.9889    1.4930 C   0  0  0  0  0  0  0  0  0  0  0  0
    2.2395    2.1675    1.1055 C   0  0  0  0  0  0  0  0  0  0  0  0
    1.3084   -2.8414    2.7598 C   0  0  0  0  0  0  0  0  0  0  0  0
   -2.8929   -2.0731    0.4102 C   0  0  0  0  0  0  0  0  0  0  0  0
   -2.2287    1.8800    1.1451 C   0  0  0  0  0  0  0  0  0  0  0  0
   -1.4585   -2.3138    0.4769 C   0  0  0  0  0  0  0  0  0  0  0  0
    0.0247    2.0360    2.2198 C   0  0  0  0  0  0  0  0  0  0  0  0
    1.4214    2.4504    2.1326 C   0  0  0  0  0  0  0  0  0  0  0  0
   -0.8335    2.2620    1.2042 C   0  0  0  0  0  0  0  0  0  0  0  0
   -0.3106    1.3908    3.5388 C   0  0  0  0  0  0  0  0  0  0  0  0
    5.9800   -0.0164    0.1540 H   0  0  0  0  0  0  0  0  0  0  0  0
    5.2839   -2.0272   -2.0440 H   0  0  0  0  0  0  0  0  0  0  0  0
    6.3012    1.6125   -1.8524 H   0  0  0  0  0  0  0  0  0  0  0  0
   -6.7566    0.6381   -0.2107 H   0  0  0  0  0  0  0  0  0  0  0  0
   -7.2797   -0.8125   -2.0404 H   0  0  0  0  0  0  0  0  0  0  0  0
   -6.3961    0.1809   -3.2167 H   0  0  0  0  0  0  0  0  0  0  0  0
    3.0911   -1.0172   -1.5771 H   0  0  0  0  0  0  0  0  0  0  0  0
   -7.3630    2.4410   -2.6100 H   0  0  0  0  0  0  0  0  0  0  0  0
   -7.6549    2.8373   -0.9083 H   0  0  0  0  0  0  0  0  0  0  0  0
   -8.5426    1.5099   -1.6719 H   0  0  0  0  0  0  0  0  0  0  0  0
   -4.7720    2.2434   -1.9767 H   0  0  0  0  0  0  0  0  0  0  0  0
    7.8275    0.1805   -1.0850 H   0  0  0  0  0  0  0  0  0  0  0  0
    5.3128   -3.4332   -0.3318 H   0  0  0  0  0  0  0  0  0  0  0  0
    5.0388    1.2980   -3.6221 H   0  0  0  0  0  0  0  0  0  0  0  0
   -4.4507   -0.8174   -2.6523 H   0  0  0  0  0  0  0  0  0  0  0  0
    3.5551   -2.3875    1.1178 H   0  0  0  0  0  0  0  0  0  0  0  0
    5.5681    2.6482    0.3086 H   0  0  0  0  0  0  0  0  0  0  0  0
   -4.7484    1.0952    0.8702 H   0  0  0  0  0  0  0  0  0  0  0  0
    1.0704   -1.3036   -0.3841 H   0  0  0  0  0  0  0  0  0  0  0  0
    3.9871    3.0640    1.9882 H   0  0  0  0  0  0  0  0  0  0  0  0
   -2.6245    2.6602   -0.7785 H   0  0  0  0  0  0  0  0  0  0  0  0
   -3.0245   -2.3315   -1.6933 H   0  0  0  0  0  0  0  0  0  0  0  0
   -1.0488   -1.5510    2.4009 H   0  0  0  0  0  0  0  0  0  0  0  0
    1.8583    1.6011    0.2622 H   0  0  0  0  0  0  0  0  0  0  0  0
    2.3870   -3.0121    2.7667 H   0  0  0  0  0  0  0  0  0  0  0  0
    1.0765   -2.2128    3.6271 H   0  0  0  0  0  0  0  0  0  0  0  0
    0.8296   -3.8165    2.9051 H   0  0  0  0  0  0  0  0  0  0  0  0
   -2.6405    1.3291    1.9846 H   0  0  0  0  0  0  0  0  0  0  0  0
   -1.0220   -2.7514   -0.4206 H   0  0  0  0  0  0  0  0  0  0  0  0
    1.8030    2.9849    3.0006 H   0  0  0  0  0  0  0  0  0  0  0  0
   -0.4633    2.7682    0.3125 H   0  0  0  0  0  0  0  0  0  0  0  0
   -0.1519    2.0980    4.3608 H   0  0  0  0  0  0  0  0  0  0  0  0
    0.3310    0.5187    3.7095 H   0  0  0  0  0  0  0  0  0  0  0  0
   -1.3435    1.0441    3.6098 H   0  0  0  0  0  0  0  0  0  0  0  0
   -4.4942   -1.6076    1.4096 H   0  0  0  0  0  0  0  0  0  0  0  0
  1  8  1  0  0  0  0
  1 47  1  0  0  0  0
  2  9  1  0  0  0  0
  2 48  1  0  0  0  0
  3 10  1  0  0  0  0
  3 49  1  0  0  0  0
  4 14  2  0  0  0  0
  5 21  2  0  0  0  0
  6 29  1  0  0  0  0
  6 70  1  0  0  0  0
  7 12  1  0  0  0  0
  7 21  1  0  0  0  0
  7 50  1  0  0  0  0
  8  9  1  0  0  0  0
  8 10  1  0  0  0  0
  8 36  1  0  0  0  0
  9 13  1  0  0  0  0
  9 37  1  0  0  0  0
 10 14  1  0  0  0  0
 10 38  1  0  0  0  0
 11 12  1  0  0  0  0
 11 15  1  0  0  0  0
 11 16  1  0  0  0  0
 11 39  1  0  0  0  0
 12 40  1  0  0  0  0
 12 41  1  0  0  0  0
 13 17  2  0  0  0  0
 13 42  1  0  0  0  0
 14 18  1  0  0  0  0
 15 43  1  0  0  0  0
 15 44  1  0  0  0  0
 15 45  1  0  0  0  0
 16 19  2  3  0  0  0
 16 46  1  0  0  0  0
 17 20  1  0  0  0  0
 17 51  1  0  0  0  0
 18 23  2  0  0  0  0
 18 52  1  0  0  0  0
 19 24  1  0  0  0  0
 19 53  1  0  0  0  0
 20 22  2  0  0  0  0
 20 54  1  0  0  0  0
 21 25  1  0  0  0  0
 22 26  1  0  0  0  0
 22 28  1  0  0  0  0
 23 27  1  0  0  0  0
 23 55  1  0  0  0  0
 24 30  2  0  0  0  0
 24 56  1  0  0  0  0
 25 29  2  0  0  0  0
 25 57  1  0  0  0  0
 26 31  2  0  0  0  0
 26 58  1  0  0  0  0
 27 33  2  0  0  0  0
 27 59  1  0  0  0  0
 28 60  1  0  0  0  0
 28 61  1  0  0  0  0
 28 62  1  0  0  0  0
 29 31  1  0  0  0  0
 30 34  1  0  0  0  0
 30 63  1  0  0  0  0
 31 64  1  0  0  0  0
 32 33  1  0  0  0  0
 32 34  2  0  0  0  0
 32 35  1  0  0  0  0
 33 65  1  0  0  0  0
 34 66  1  0  0  0  0
 35 67  1  0  0  0  0
 35 68  1  0  0  0  0
 35 69  1  0  0  0  0
M  END
> <PUBCHEM_COMPOUND_CID>
139583411

> <PUBCHEM_CONFORMER_RMSD>
0.8

> <PUBCHEM_CONFORMER_DIVERSEORDER>
1
26
2
32
20
6
34
17
33
8
15
19
13
24
22
27
28
30
36
3
23
37
18
12
14
5
25
9
16
11
29
21
10
31
7
35
4

> <PUBCHEM_MMFF94_PARTIAL_CHARGES>
54
1 -0.68
10 0.34
11 0.14
12 0.3
13 -0.29
14 0.49
16 -0.29
17 -0.15
18 -0.14
19 -0.15
2 -0.68
20 -0.15
21 0.62
22 -0.14
23 -0.15
24 -0.15
25 -0.14
26 -0.15
27 -0.15
28 0.14
29 0.08
3 -0.68
30 -0.15
31 -0.15
32 -0.14
33 -0.15
34 -0.15
35 0.14
4 -0.57
42 0.15
46 0.15
47 0.4
48 0.4
49 0.4
5 -0.57
50 0.37
51 0.15
52 0.15
53 0.15
54 0.15
55 0.15
56 0.15
57 0.15
58 0.15
59 0.15
6 -0.53
63 0.15
64 0.15
65 0.15
66 0.15
7 -0.73
70 0.45
8 0.28
9 0.42

> <PUBCHEM_EFFECTIVE_ROTOR_COUNT>
1.2

> <PUBCHEM_PHARMACOPHORE_FEATURES>
10
1 1 acceptor
1 1 donor
1 2 acceptor
1 2 donor
1 3 acceptor
1 3 donor
1 4 acceptor
1 5 acceptor
1 6 donor
1 7 donor

> <PUBCHEM_HEAVY_ATOM_COUNT>
35

> <PUBCHEM_ATOM_DEF_STEREO_COUNT>
0

> <PUBCHEM_ATOM_UDEF_STEREO_COUNT>
4

> <PUBCHEM_BOND_DEF_STEREO_COUNT>
8

> <PUBCHEM_BOND_UDEF_STEREO_COUNT>
1

> <PUBCHEM_ISOTOPIC_ATOM_COUNT>
0

> <PUBCHEM_COMPONENT_COUNT>
1

> <PUBCHEM_CACTVS_TAUTO_COUNT>
-1

> <PUBCHEM_CONFORMER_ID>
0851DFB300000001

> <PUBCHEM_MMFF94_ENERGY>
72.2491

> <PUBCHEM_FEATURE_SELFOVERLAP>
50.769

> <PUBCHEM_SHAPE_FINGERPRINT>
11170278 133 18192132821088865653
13111901 137 18115027540992844611
13383661 66 17551229997171609699
14295343 760 17418078915297887434
14931854 50 18411149039098160086
15082195 135 18341889641322519530
15160630 1 18340779191283641713
15274700 21 17896050983133470387
15406563 42 18042404801814206204
17852330 162 18263934405402071052
17909252 39 17775288261862495842
20609170 92 18338519767939818192
23536364 44 18272940444255395801
23559900 14 18270950341484718081
42767 28 18410293592517107061
463206 1 18269569247411207992
508706 21 18186811313274014752
513532 50 17058909238675384849

> <PUBCHEM_SHAPE_MULTIPOLES>
680.09
17.8
4.09
2.81
7.95
0.24
0.83
-0.94
-17.09
-0.3
1.85
-0.94
-0.59
0.53

> <PUBCHEM_SHAPE_SELFOVERLAP>
1369.242

> <PUBCHEM_SHAPE_VOLUME>
392.9

> <PUBCHEM_COORDINATE_TYPE>
2
5
10

$$$$
