139588092
  -OEChem-03292013293D

 46 46  0     1  0  0  0  0  0999 V2000
   -2.3736    0.1843   -0.3292 O   0  0  0  0  0  0  0  0  0  0  0  0
    2.1480   -1.5896   -0.7134 O   0  0  0  0  0  0  0  0  0  0  0  0
   -0.1617    2.5880    0.2753 O   0  0  0  0  0  0  0  0  0  0  0  0
   -4.2353   -1.8026   -0.7991 O   0  0  0  0  0  0  0  0  0  0  0  0
    4.9908    0.4189    0.3942 O   0  0  0  0  0  0  0  0  0  0  0  0
   -2.6832    0.9245    1.8352 O   0  0  0  0  0  0  0  0  0  0  0  0
    0.7818   -1.7981    1.1390 O   0  0  0  0  0  0  0  0  0  0  0  0
    1.2175    1.5183   -1.2372 O   0  0  0  0  0  0  0  0  0  0  0  0
   -2.1010   -1.1665    0.1010 C   0  0  1  0  0  0  0  0  0  0  0  0
   -3.4167   -1.8947    0.3609 C   0  0  2  0  0  0  0  0  0  0  0  0
    3.3506   -1.3408    0.0555 C   0  0  2  0  0  0  0  0  0  0  0  0
   -1.2159    2.7827   -0.6938 C   0  0  1  0  0  0  0  0  0  0  0  0
   -2.5446    2.5094    0.0179 C   0  0  0  0  0  0  0  0  0  0  0  0
    3.6099    0.1787    0.1084 C   0  0  1  0  0  0  0  0  0  0  0  0
   -1.3429   -1.8179   -1.0213 C   0  0  0  0  0  0  0  0  0  0  0  0
   -2.5560    1.1291    0.6350 C   0  0  0  0  0  0  0  0  0  0  0  0
   -3.1916   -3.3576    0.7036 C   0  0  0  0  0  0  0  0  0  0  0  0
    4.4623   -2.0998   -0.6691 C   0  0  0  0  0  0  0  0  0  0  0  0
   -1.1409    4.2146   -1.2033 C   0  0  0  0  0  0  0  0  0  0  0  0
    2.8142    0.8457    1.1988 C   0  0  0  0  0  0  0  0  0  0  0  0
   -0.0350   -2.0963   -1.1072 C   0  0  0  0  0  0  0  0  0  0  0  0
    0.9763   -1.8142   -0.0637 C   0  0  0  0  0  0  0  0  0  0  0  0
    1.7079    1.5976    1.1220 C   0  0  0  0  0  0  0  0  0  0  0  0
    0.9389    1.8864   -0.1096 C   0  0  0  0  0  0  0  0  0  0  0  0
   -1.5081   -1.1435    1.0198 H   0  0  0  0  0  0  0  0  0  0  0  0
   -3.9595   -1.4000    1.1739 H   0  0  0  0  0  0  0  0  0  0  0  0
    3.2600   -1.7651    1.0638 H   0  0  0  0  0  0  0  0  0  0  0  0
   -1.1015    2.0902   -1.5365 H   0  0  0  0  0  0  0  0  0  0  0  0
   -3.3969    2.6030   -0.6632 H   0  0  0  0  0  0  0  0  0  0  0  0
   -2.6898    3.2270    0.8349 H   0  0  0  0  0  0  0  0  0  0  0  0
    3.4091    0.6244   -0.8696 H   0  0  0  0  0  0  0  0  0  0  0  0
   -1.9269   -2.0511   -1.9120 H   0  0  0  0  0  0  0  0  0  0  0  0
   -2.8128   -3.9304   -0.1495 H   0  0  0  0  0  0  0  0  0  0  0  0
   -4.1436   -3.8260    0.9786 H   0  0  0  0  0  0  0  0  0  0  0  0
   -2.5026   -3.4709    1.5463 H   0  0  0  0  0  0  0  0  0  0  0  0
    4.6093   -1.7064   -1.6811 H   0  0  0  0  0  0  0  0  0  0  0  0
    4.1919   -3.1560   -0.7788 H   0  0  0  0  0  0  0  0  0  0  0  0
    5.4113   -2.0455   -0.1275 H   0  0  0  0  0  0  0  0  0  0  0  0
   -0.1771    4.3959   -1.6910 H   0  0  0  0  0  0  0  0  0  0  0  0
   -1.9397    4.4224   -1.9215 H   0  0  0  0  0  0  0  0  0  0  0  0
   -1.2144    4.9307   -0.3774 H   0  0  0  0  0  0  0  0  0  0  0  0
    3.2150    0.6985    2.2027 H   0  0  0  0  0  0  0  0  0  0  0  0
    0.3400   -2.5267   -2.0330 H   0  0  0  0  0  0  0  0  0  0  0  0
    1.3023    1.9974    2.0490 H   0  0  0  0  0  0  0  0  0  0  0  0
   -5.0688   -2.2660   -0.6087 H   0  0  0  0  0  0  0  0  0  0  0  0
    5.1371    1.3799    0.3579 H   0  0  0  0  0  0  0  0  0  0  0  0
  1  9  1  0  0  0  0
  1 16  1  0  0  0  0
  2 11  1  0  0  0  0
  2 22  1  0  0  0  0
  3 12  1  0  0  0  0
  3 24  1  0  0  0  0
  4 10  1  0  0  0  0
  4 45  1  0  0  0  0
  5 14  1  0  0  0  0
  5 46  1  0  0  0  0
  6 16  2  0  0  0  0
  7 22  2  0  0  0  0
  8 24  2  0  0  0  0
  9 10  1  0  0  0  0
  9 15  1  0  0  0  0
  9 25  1  0  0  0  0
 10 17  1  0  0  0  0
 10 26  1  0  0  0  0
 11 14  1  0  0  0  0
 11 18  1  0  0  0  0
 11 27  1  0  0  0  0
 12 13  1  0  0  0  0
 12 19  1  0  0  0  0
 12 28  1  0  0  0  0
 13 16  1  0  0  0  0
 13 29  1  0  0  0  0
 13 30  1  0  0  0  0
 14 20  1  0  0  0  0
 14 31  1  0  0  0  0
 15 21  2  3  0  0  0
 15 32  1  0  0  0  0
 17 33  1  0  0  0  0
 17 34  1  0  0  0  0
 17 35  1  0  0  0  0
 18 36  1  0  0  0  0
 18 37  1  0  0  0  0
 18 38  1  0  0  0  0
 19 39  1  0  0  0  0
 19 40  1  0  0  0  0
 19 41  1  0  0  0  0
 20 23  2  0  0  0  0
 20 42  1  0  0  0  0
 21 22  1  0  0  0  0
 21 43  1  0  0  0  0
 23 24  1  0  0  0  0
 23 44  1  0  0  0  0
M  END
> <PUBCHEM_COMPOUND_CID>
139588092

> <PUBCHEM_CONFORMER_RMSD>
0.6

> <PUBCHEM_CONFORMER_DIVERSEORDER>
1
17
9
20
10
23
13
12
3
15
6
8
19
14
7
21
18
2
24
4
16
11
5
22

> <PUBCHEM_MMFF94_PARTIAL_CHARGES>
27
1 -0.43
10 0.28
11 0.28
12 0.28
13 0.06
14 0.42
15 -0.29
16 0.66
2 -0.43
20 -0.29
21 -0.14
22 0.71
23 -0.14
24 0.71
3 -0.43
32 0.15
4 -0.68
42 0.15
43 0.15
44 0.15
45 0.4
46 0.4
5 -0.68
6 -0.57
7 -0.57
8 -0.57
9 0.42

> <PUBCHEM_EFFECTIVE_ROTOR_COUNT>
2.6

> <PUBCHEM_PHARMACOPHORE_FEATURES>
7
1 4 acceptor
1 4 donor
1 5 acceptor
1 5 donor
1 6 acceptor
1 7 acceptor
1 8 acceptor

> <PUBCHEM_HEAVY_ATOM_COUNT>
24

> <PUBCHEM_ATOM_DEF_STEREO_COUNT>
5

> <PUBCHEM_ATOM_UDEF_STEREO_COUNT>
0

> <PUBCHEM_BOND_DEF_STEREO_COUNT>
1

> <PUBCHEM_BOND_UDEF_STEREO_COUNT>
1

> <PUBCHEM_ISOTOPIC_ATOM_COUNT>
0

> <PUBCHEM_COMPONENT_COUNT>
1

> <PUBCHEM_CACTVS_TAUTO_COUNT>
-1

> <PUBCHEM_CONFORMER_ID>
0851F1FC00000001

> <PUBCHEM_MMFF94_ENERGY>
50.4374

> <PUBCHEM_FEATURE_SELFOVERLAP>
35.525

> <PUBCHEM_SHAPE_FINGERPRINT>
104564 63 18411410718090639604
10498660 4 18335975389729709540
10670039 82 18337685195706257972
107951 10 17100043910017204481
11370993 70 17832137221796750052
12011746 2 18195524783820718421
12293681 4 18188491410133919730
12403259 226 18343017804850966602
12422481 6 18199770118965282699
12553582 1 18191601928344079641
12633257 1 18055354639201906674
13140716 1 18341622498830322315
13402501 40 18198623237531158205
138480 1 15815933973562353349
14251745 187 18412255125946397784
14251751 93 18264485101169412848
14251757 5 17691142439294598990
14363568 33 17833000716207453344
15196674 1 18342457019777002514
17357779 13 18339907290528935775
20905425 154 18412543176238522006
238 59 17402865857451609229
2818148 4 18120967072102970151
5282274 181 18199768967613230089
5312544 6 16825021352922604111

> <PUBCHEM_SHAPE_MULTIPOLES>
446.95
7.28
4.59
1.22
4.82
2.23
0.13
-3.88
0.67
-3.42
-1.06
-0.17
0.21
0.84

> <PUBCHEM_SHAPE_SELFOVERLAP>
899.238

> <PUBCHEM_SHAPE_VOLUME>
258.5

> <PUBCHEM_COORDINATE_TYPE>
2
5
10

$$$$
