139583364
  -OEChem-03292013293D

 53 53  0     1  0  0  0  0  0999 V2000
    1.5761   -1.5255    0.3529 O   0  0  0  0  0  0  0  0  0  0  0  0
    3.5270    1.3781   -0.3873 O   0  0  0  0  0  0  0  0  0  0  0  0
   -1.5421    2.2548    0.4510 O   0  0  0  0  0  0  0  0  0  0  0  0
   -3.3157   -0.7449   -0.7415 O   0  0  0  0  0  0  0  0  0  0  0  0
    0.1254   -4.8832    0.0026 O   0  0  0  0  0  0  0  0  0  0  0  0
    1.5063    3.2475    0.7746 O   0  0  0  0  0  0  0  0  0  0  0  0
    3.5353   -1.2492   -0.8334 O   0  0  0  0  0  0  0  0  0  0  0  0
   -3.2413    2.5523   -1.0827 O   0  0  0  0  0  0  0  0  0  0  0  0
   -2.0380   -1.5343    1.0137 O   0  0  0  0  0  0  0  0  0  0  0  0
    2.4056    0.6720    0.1276 C   0  0  1  0  0  0  0  0  0  0  0  0
    1.1404    1.2366   -0.5141 C   0  0  0  0  0  0  0  0  0  0  0  0
    1.6062   -2.9606    0.1741 C   0  0  2  0  0  0  0  0  0  0  0  0
   -0.6477    3.0916   -0.2981 C   0  0  2  0  0  0  0  0  0  0  0  0
    0.7413    2.5882    0.0711 C   0  0  0  0  0  0  0  0  0  0  0  0
    0.1518   -3.4587    0.0901 C   0  0  1  0  0  0  0  0  0  0  0  0
    2.5912   -0.7977   -0.1980 C   0  0  0  0  0  0  0  0  0  0  0  0
   -4.2522    0.0201    0.0602 C   0  0  2  0  0  0  0  0  0  0  0  0
   -3.5688    1.1361    0.8542 C   0  0  0  0  0  0  0  0  0  0  0  0
    2.3601   -3.5609    1.3598 C   0  0  0  0  0  0  0  0  0  0  0  0
   -0.8588    4.5471    0.0901 C   0  0  0  0  0  0  0  0  0  0  0  0
   -0.5216   -2.9372   -1.1514 C   0  0  0  0  0  0  0  0  0  0  0  0
   -2.7927    2.0608   -0.0558 C   0  0  0  0  0  0  0  0  0  0  0  0
    4.6520    1.2691    0.4740 C   0  0  0  0  0  0  0  0  0  0  0  0
   -5.0911   -0.8969    0.9445 C   0  0  0  0  0  0  0  0  0  0  0  0
   -1.5577   -2.0960   -1.2794 C   0  0  0  0  0  0  0  0  0  0  0  0
   -2.3005   -1.4482   -0.1724 C   0  0  0  0  0  0  0  0  0  0  0  0
    5.8091    2.0387   -0.1264 C   0  0  0  0  0  0  0  0  0  0  0  0
    2.3593    0.7783    1.2195 H   0  0  0  0  0  0  0  0  0  0  0  0
    0.2991    0.5523   -0.3641 H   0  0  0  0  0  0  0  0  0  0  0  0
    1.2832    1.3770   -1.5919 H   0  0  0  0  0  0  0  0  0  0  0  0
    2.1375   -3.2291   -0.7487 H   0  0  0  0  0  0  0  0  0  0  0  0
   -0.7809    2.9592   -1.3784 H   0  0  0  0  0  0  0  0  0  0  0  0
   -0.3819   -3.1791    1.0008 H   0  0  0  0  0  0  0  0  0  0  0  0
   -4.9304    0.4801   -0.6689 H   0  0  0  0  0  0  0  0  0  0  0  0
   -2.8892    0.7184    1.6043 H   0  0  0  0  0  0  0  0  0  0  0  0
   -4.3065    1.7416    1.3926 H   0  0  0  0  0  0  0  0  0  0  0  0
    1.8652   -3.3081    2.3039 H   0  0  0  0  0  0  0  0  0  0  0  0
    3.3749   -3.1529    1.4183 H   0  0  0  0  0  0  0  0  0  0  0  0
    2.4322   -4.6496    1.2815 H   0  0  0  0  0  0  0  0  0  0  0  0
   -1.8645    4.8802   -0.1860 H   0  0  0  0  0  0  0  0  0  0  0  0
   -0.1296    5.1983   -0.4019 H   0  0  0  0  0  0  0  0  0  0  0  0
   -0.7682    4.6842    1.1736 H   0  0  0  0  0  0  0  0  0  0  0  0
   -0.0959   -3.3083   -2.0847 H   0  0  0  0  0  0  0  0  0  0  0  0
    4.4083    1.6989    1.4526 H   0  0  0  0  0  0  0  0  0  0  0  0
    4.9475    0.2250    0.6162 H   0  0  0  0  0  0  0  0  0  0  0  0
   -4.4909   -1.3652    1.7305 H   0  0  0  0  0  0  0  0  0  0  0  0
   -5.5272   -1.7070    0.3505 H   0  0  0  0  0  0  0  0  0  0  0  0
   -5.9014   -0.3402    1.4255 H   0  0  0  0  0  0  0  0  0  0  0  0
   -1.8907   -1.8548   -2.2868 H   0  0  0  0  0  0  0  0  0  0  0  0
   -0.8060   -5.1632    0.0198 H   0  0  0  0  0  0  0  0  0  0  0  0
    6.0690    1.6364   -1.1111 H   0  0  0  0  0  0  0  0  0  0  0  0
    5.5391    3.0898   -0.2729 H   0  0  0  0  0  0  0  0  0  0  0  0
    6.6903    1.9876    0.5193 H   0  0  0  0  0  0  0  0  0  0  0  0
  1 12  1  0  0  0  0
  1 16  1  0  0  0  0
  2 10  1  0  0  0  0
  2 23  1  0  0  0  0
  3 13  1  0  0  0  0
  3 22  1  0  0  0  0
  4 17  1  0  0  0  0
  4 26  1  0  0  0  0
  5 15  1  0  0  0  0
  5 50  1  0  0  0  0
  6 14  2  0  0  0  0
  7 16  2  0  0  0  0
  8 22  2  0  0  0  0
  9 26  2  0  0  0  0
 10 11  1  0  0  0  0
 10 16  1  0  0  0  0
 10 28  1  0  0  0  0
 11 14  1  0  0  0  0
 11 29  1  0  0  0  0
 11 30  1  0  0  0  0
 12 15  1  0  0  0  0
 12 19  1  0  0  0  0
 12 31  1  0  0  0  0
 13 14  1  0  0  0  0
 13 20  1  0  0  0  0
 13 32  1  0  0  0  0
 15 21  1  0  0  0  0
 15 33  1  0  0  0  0
 17 18  1  0  0  0  0
 17 24  1  0  0  0  0
 17 34  1  0  0  0  0
 18 22  1  0  0  0  0
 18 35  1  0  0  0  0
 18 36  1  0  0  0  0
 19 37  1  0  0  0  0
 19 38  1  0  0  0  0
 19 39  1  0  0  0  0
 20 40  1  0  0  0  0
 20 41  1  0  0  0  0
 20 42  1  0  0  0  0
 21 25  2  0  0  0  0
 21 43  1  0  0  0  0
 23 27  1  0  0  0  0
 23 44  1  0  0  0  0
 23 45  1  0  0  0  0
 24 46  1  0  0  0  0
 24 47  1  0  0  0  0
 24 48  1  0  0  0  0
 25 26  1  0  0  0  0
 25 49  1  0  0  0  0
 27 51  1  0  0  0  0
 27 52  1  0  0  0  0
 27 53  1  0  0  0  0
M  END
> <PUBCHEM_COMPOUND_CID>
139583364

> <PUBCHEM_CONFORMER_RMSD>
0.8

> <PUBCHEM_CONFORMER_DIVERSEORDER>
1
9
4
5
10
6
8
2
7
3

> <PUBCHEM_MMFF94_PARTIAL_CHARGES>
26
1 -0.43
10 0.34
11 0.06
12 0.28
13 0.34
14 0.45
15 0.42
16 0.66
17 0.28
18 0.06
2 -0.56
21 -0.29
22 0.66
23 0.28
25 -0.14
26 0.71
3 -0.43
4 -0.43
43 0.15
49 0.15
5 -0.68
50 0.4
6 -0.57
7 -0.57
8 -0.57
9 -0.57

> <PUBCHEM_EFFECTIVE_ROTOR_COUNT>
4

> <PUBCHEM_PHARMACOPHORE_FEATURES>
7
1 2 acceptor
1 5 acceptor
1 5 donor
1 6 acceptor
1 7 acceptor
1 8 acceptor
1 9 acceptor

> <PUBCHEM_HEAVY_ATOM_COUNT>
27

> <PUBCHEM_ATOM_DEF_STEREO_COUNT>
5

> <PUBCHEM_ATOM_UDEF_STEREO_COUNT>
0

> <PUBCHEM_BOND_DEF_STEREO_COUNT>
1

> <PUBCHEM_BOND_UDEF_STEREO_COUNT>
0

> <PUBCHEM_ISOTOPIC_ATOM_COUNT>
0

> <PUBCHEM_COMPONENT_COUNT>
1

> <PUBCHEM_CACTVS_TAUTO_COUNT>
-1

> <PUBCHEM_CONFORMER_ID>
0851DF8400000001

> <PUBCHEM_MMFF94_ENERGY>
45.8571

> <PUBCHEM_FEATURE_SELFOVERLAP>
35.535

> <PUBCHEM_SHAPE_FINGERPRINT>
10074138 170 17906982379112675912
10616163 171 18123193402823874125
1100329 8 18122907804514970493
11014199 57 17547573038402954982
12038231 1 18123467443196208701
12553582 1 18339352075922897085
12838862 33 18268130102337924553
13122387 1 18123189000455924469
13140716 1 18267587901144111368
13402501 40 18410859892729869521
138480 1 17906452130159264238
14251757 5 18049463705493650508
14725015 67 17253422410769352193
14765038 42 18129965453690015921
14790565 3 18337397148913164700
14866123 147 18339071709764744938
19591789 44 18411139147034200484
19930381 70 18410012148254247971
20905425 154 18052546473788469807
21796203 349 17829928594704531704
22113638 7 18266457800854445613
23559900 14 17977656512207227376
463206 1 18051696838820758609
5309563 4 18410020935894212891
5486654 2 18338804515370320324
57091435 65 18337675191778099442
6433294 58 18122624955349204664

> <PUBCHEM_SHAPE_MULTIPOLES>
502.82
8.48
6.28
1.01
2.83
1.42
0.01
-3.43
-0.98
0.89
-0.29
-0.31
0.46
-0.28

> <PUBCHEM_SHAPE_SELFOVERLAP>
1005.715

> <PUBCHEM_SHAPE_VOLUME>
293

> <PUBCHEM_COORDINATE_TYPE>
2
5
10

$$$$
