139584066
  -OEChem-03292013293D

 44 44  0     1  0  0  0  0  0999 V2000
   -4.3774   -1.2470   -1.7366 O   0  0  0  0  0  0  0  0  0  0  0  0
   -5.3773    1.0002    1.6544 O   0  0  0  0  0  0  0  0  0  0  0  0
    6.5796    0.3570    0.7003 O   0  0  0  0  0  0  0  0  0  0  0  0
    3.9591    2.0359   -0.6175 O   0  0  0  0  0  0  0  0  0  0  0  0
   -6.3371   -0.2737    0.0192 N   0  0  0  0  0  0  0  0  0  0  0  0
    6.8839   -1.1850   -0.9259 N   0  0  0  0  0  0  0  0  0  0  0  0
   -4.1950    0.8429   -0.4764 C   0  0  0  0  0  0  0  0  0  0  0  0
   -3.4795   -0.4717   -0.9360 C   0  0  1  0  0  0  0  0  0  0  0  0
   -3.1818    1.7729    0.2341 C   0  0  0  0  0  0  0  0  0  0  0  0
   -4.7619    1.6358   -1.6721 C   0  0  0  0  0  0  0  0  0  0  0  0
   -2.8444   -1.3242    0.1667 C   0  0  0  0  0  0  0  0  0  0  0  0
   -5.3421    0.5426    0.5122 C   0  0  0  0  0  0  0  0  0  0  0  0
   -3.8000   -2.2895    0.8358 C   0  0  0  0  0  0  0  0  0  0  0  0
   -1.5798   -1.2636    0.6377 C   0  0  0  0  0  0  0  0  0  0  0  0
   -0.4804   -0.4375    0.1847 C   0  0  0  0  0  0  0  0  0  0  0  0
    0.7380   -0.4766    0.7472 C   0  0  0  0  0  0  0  0  0  0  0  0
    4.2603    1.1190    0.4334 C   0  0  1  0  0  0  0  0  0  0  0  0
    1.8428    0.3381    0.2899 C   0  0  0  0  0  0  0  0  0  0  0  0
    3.0618    0.3005    0.8509 C   0  0  0  0  0  0  0  0  0  0  0  0
    5.4171    0.2460   -0.0011 C   0  0  0  0  0  0  0  0  0  0  0  0
    5.6061   -0.6906   -0.9867 C   0  0  0  0  0  0  0  0  0  0  0  0
    7.4081   -0.5313    0.0859 C   0  0  0  0  0  0  0  0  0  0  0  0
   -2.6830   -0.1749   -1.6301 H   0  0  0  0  0  0  0  0  0  0  0  0
   -5.4881    1.0517   -2.2472 H   0  0  0  0  0  0  0  0  0  0  0  0
   -5.2780    2.5426   -1.3355 H   0  0  0  0  0  0  0  0  0  0  0  0
   -2.7999    1.3370    1.1629 H   0  0  0  0  0  0  0  0  0  0  0  0
   -3.6502    2.7264    0.5083 H   0  0  0  0  0  0  0  0  0  0  0  0
   -2.3318    2.0045   -0.4164 H   0  0  0  0  0  0  0  0  0  0  0  0
   -3.9627    1.9363   -2.3588 H   0  0  0  0  0  0  0  0  0  0  0  0
   -4.5251   -1.7658    1.4615 H   0  0  0  0  0  0  0  0  0  0  0  0
   -4.3341   -2.9005    0.1021 H   0  0  0  0  0  0  0  0  0  0  0  0
   -3.2743   -2.9943    1.4909 H   0  0  0  0  0  0  0  0  0  0  0  0
   -3.8798   -2.0062   -2.0860 H   0  0  0  0  0  0  0  0  0  0  0  0
   -1.3190   -1.9293    1.4611 H   0  0  0  0  0  0  0  0  0  0  0  0
   -6.3099   -0.6628   -0.9174 H   0  0  0  0  0  0  0  0  0  0  0  0
   -7.1348   -0.5261    0.5929 H   0  0  0  0  0  0  0  0  0  0  0  0
   -0.6645    0.2264   -0.6546 H   0  0  0  0  0  0  0  0  0  0  0  0
    0.9303   -1.1434    1.5848 H   0  0  0  0  0  0  0  0  0  0  0  0
    4.5668    1.7179    1.2998 H   0  0  0  0  0  0  0  0  0  0  0  0
    1.6513    0.9996   -0.5505 H   0  0  0  0  0  0  0  0  0  0  0  0
    3.2295   -0.3665    1.6962 H   0  0  0  0  0  0  0  0  0  0  0  0
    4.9006   -1.0325   -1.7294 H   0  0  0  0  0  0  0  0  0  0  0  0
    4.7388    2.6032   -0.7463 H   0  0  0  0  0  0  0  0  0  0  0  0
    8.4078   -0.6128    0.4852 H   0  0  0  0  0  0  0  0  0  0  0  0
  1  8  1  0  0  0  0
  1 33  1  0  0  0  0
  2 12  2  0  0  0  0
  3 20  1  0  0  0  0
  3 22  1  0  0  0  0
  4 17  1  0  0  0  0
  4 43  1  0  0  0  0
  5 12  1  0  0  0  0
  5 35  1  0  0  0  0
  5 36  1  0  0  0  0
  6 21  1  0  0  0  0
  6 22  2  0  0  0  0
  7  8  1  0  0  0  0
  7  9  1  0  0  0  0
  7 10  1  0  0  0  0
  7 12  1  0  0  0  0
  8 11  1  0  0  0  0
  8 23  1  0  0  0  0
  9 26  1  0  0  0  0
  9 27  1  0  0  0  0
  9 28  1  0  0  0  0
 10 24  1  0  0  0  0
 10 25  1  0  0  0  0
 10 29  1  0  0  0  0
 11 13  1  0  0  0  0
 11 14  2  0  0  0  0
 13 30  1  0  0  0  0
 13 31  1  0  0  0  0
 13 32  1  0  0  0  0
 14 15  1  0  0  0  0
 14 34  1  0  0  0  0
 15 16  2  0  0  0  0
 15 37  1  0  0  0  0
 16 18  1  0  0  0  0
 16 38  1  0  0  0  0
 17 19  1  0  0  0  0
 17 20  1  0  0  0  0
 17 39  1  0  0  0  0
 18 19  2  0  0  0  0
 18 40  1  0  0  0  0
 19 41  1  0  0  0  0
 20 21  2  0  0  0  0
 21 42  1  0  0  0  0
 22 44  1  0  0  0  0
M  END
> <PUBCHEM_COMPOUND_CID>
139584066

> <PUBCHEM_CONFORMER_RMSD>
1.2

> <PUBCHEM_CONFORMER_DIVERSEORDER>
1
63
61
90
15
41
30
70
99
66
78
88
50
17
86
69
54
28
65
16
74
95
32
56
8
68
82
76
18
72
79
19
35
67
7
83
52
36
59
33
13
98
22
14
20
92
51
73
89
57
5
21
91
27
37
93
39
58
80
62
25
12
24
53
85
9
87
96
3
29
40
81
31
6
97
55
10
48
94
38
2
23
45
34
84
11
64
75
47
4
26
49
71
44
60
43
46
77
42

> <PUBCHEM_MMFF94_PARTIAL_CHARGES>
31
1 -0.68
11 -0.28
12 0.57
13 0.14
14 -0.15
15 -0.15
16 -0.15
17 0.6
18 -0.15
19 -0.29
2 -0.57
20 -0.04
21 0.08
22 0.33
3 -0.28
33 0.4
34 0.15
35 0.37
36 0.37
37 0.15
38 0.15
4 -0.68
40 0.15
41 0.15
42 0.15
43 0.4
44 0.15
5 -0.8
6 -0.57
7 0.06
8 0.42

> <PUBCHEM_EFFECTIVE_ROTOR_COUNT>
7

> <PUBCHEM_PHARMACOPHORE_FEATURES>
9
1 1 acceptor
1 1 donor
1 13 hydrophobe
1 2 acceptor
1 4 acceptor
1 4 donor
1 5 donor
3 7 9 10 hydrophobe
5 3 6 20 21 22 rings

> <PUBCHEM_HEAVY_ATOM_COUNT>
22

> <PUBCHEM_ATOM_DEF_STEREO_COUNT>
0

> <PUBCHEM_ATOM_UDEF_STEREO_COUNT>
2

> <PUBCHEM_BOND_DEF_STEREO_COUNT>
3

> <PUBCHEM_BOND_UDEF_STEREO_COUNT>
0

> <PUBCHEM_ISOTOPIC_ATOM_COUNT>
0

> <PUBCHEM_COMPONENT_COUNT>
1

> <PUBCHEM_CACTVS_TAUTO_COUNT>
-1

> <PUBCHEM_CONFORMER_ID>
0851E24200000001

> <PUBCHEM_MMFF94_ENERGY>
41.0492

> <PUBCHEM_FEATURE_SELFOVERLAP>
45.675

> <PUBCHEM_SHAPE_FINGERPRINT>
10613725 11 17988926660793969506
10638233 991 16443073828536082798
10670039 82 17968372360317914788
10730089 173 18334574629333461089
10803635 8 16486970708982691327
10835480 77 18201432640929339872
11315181 36 17846214479646612513
11724838 91 8790594893851501658
11796584 16 18273216422191302082
11858739 19 17917716790859548646
12166972 35 17676493877536512836
12596602 18 12251897088508027644
12730499 353 11169908374029849528
13668630 136 16702305663505265310
14251732 16 11314317160994032842
14251752 14 17489590047603431802
14933364 13 18187649119712368712
15183329 4 18260263041149049266
15716309 27 11386363746782926464
17834072 8 18409730656012934210
17844677 252 18187652469828960280
17857418 61 14548737305134996558
20281389 69 17967529077891066752
20645477 56 18186237325465892355
220451 1 17312819386095542914
22061861 79 17704075096996705206
23198884 109 17489586762549464953
23402539 116 16917351441462389096
23536379 177 17775284963116401304
23559900 14 18201711890674862064
29717793 49 18060143146260121980
3004659 81 18411136944633843120
328311 84 18334582338778691178
3545911 37 18334857216616809939
4073 2 18188494683204889298
531348 171 17988922254084151711
59755656 215 18335702707089468058
59755656 520 17095243631059856891
67856867 119 11887658611584114730
8988823 20 16559028303811747736
90127 26 17895479240759170248

> <PUBCHEM_SHAPE_MULTIPOLES>
419.31
20.53
1.79
1.24
25.3
0
0.25
-0.56
2.34
-1.79
0.09
-1.08
-0.06
0.73

> <PUBCHEM_SHAPE_SELFOVERLAP>
849.83

> <PUBCHEM_SHAPE_VOLUME>
244.6

> <PUBCHEM_COORDINATE_TYPE>
2
5
10

$$$$
