139583973
  -OEChem-03292013293D

 46 48  0     1  0  0  0  0  0999 V2000
   -0.1607   -3.1461    0.6328 O   0  0  0  0  0  0  0  0  0  0  0  0
    0.9545    1.4441   -2.7708 O   0  0  0  0  0  0  0  0  0  0  0  0
    2.2687    2.6286   -0.8440 O   0  0  0  0  0  0  0  0  0  0  0  0
    0.8426    2.7525    0.9300 O   0  0  0  0  0  0  0  0  0  0  0  0
   -2.6189   -2.5004    0.9123 O   0  0  0  0  0  0  0  0  0  0  0  0
   -3.8796    1.9644   -0.0898 O   0  0  0  0  0  0  0  0  0  0  0  0
    0.9034    0.7455   -0.4388 C   0  0  2  0  0  0  0  0  0  0  0  0
    1.8850   -0.1938    0.3096 C   0  0  2  0  0  0  0  0  0  0  0  0
    1.5486   -1.6392   -0.0843 C   0  0  2  0  0  0  0  0  0  0  0  0
   -0.5492    0.3923   -0.1172 C   0  0  0  0  0  0  0  0  0  0  0  0
   -0.9087   -0.9189    0.2543 C   0  0  0  0  0  0  0  0  0  0  0  0
    1.6457   -1.8355   -1.5818 C   0  0  0  0  0  0  0  0  0  0  0  0
    0.1222   -1.9929    0.3187 C   0  0  0  0  0  0  0  0  0  0  0  0
    1.1141    0.5386   -1.9525 C   0  0  0  0  0  0  0  0  0  0  0  0
    1.9207   -0.0467    1.8103 C   0  0  0  0  0  0  0  0  0  0  0  0
    1.4671   -0.8226   -2.4456 C   0  0  0  0  0  0  0  0  0  0  0  0
    1.3100    2.1408   -0.0191 C   0  0  0  0  0  0  0  0  0  0  0  0
   -1.5715    1.3487   -0.2441 C   0  0  0  0  0  0  0  0  0  0  0  0
   -2.2416   -1.2432    0.5372 C   0  0  0  0  0  0  0  0  0  0  0  0
    1.9763   -3.2198   -2.0609 C   0  0  0  0  0  0  0  0  0  0  0  0
   -2.8996    1.0221    0.0357 C   0  0  0  0  0  0  0  0  0  0  0  0
   -3.2326   -0.2696    0.4322 C   0  0  0  0  0  0  0  0  0  0  0  0
   -1.3126    2.7382   -0.7443 C   0  0  0  0  0  0  0  0  0  0  0  0
    3.0193    0.2895    2.5014 C   0  0  0  0  0  0  0  0  0  0  0  0
   -4.6579   -0.6120    0.7319 C   0  0  0  0  0  0  0  0  0  0  0  0
    3.0546    0.4356    3.9867 C   0  0  0  0  0  0  0  0  0  0  0  0
    2.9031    0.0131   -0.0603 H   0  0  0  0  0  0  0  0  0  0  0  0
    2.2383   -2.3179    0.4343 H   0  0  0  0  0  0  0  0  0  0  0  0
    0.9993   -0.2202    2.3608 H   0  0  0  0  0  0  0  0  0  0  0  0
    1.5506   -0.9561   -3.5183 H   0  0  0  0  0  0  0  0  0  0  0  0
    2.9370   -3.5446   -1.6483 H   0  0  0  0  0  0  0  0  0  0  0  0
    2.0497   -3.2710   -3.1525 H   0  0  0  0  0  0  0  0  0  0  0  0
    1.2047   -3.9296   -1.7472 H   0  0  0  0  0  0  0  0  0  0  0  0
   -2.1548    3.0742   -1.3642 H   0  0  0  0  0  0  0  0  0  0  0  0
   -0.4716    2.8427   -1.4253 H   0  0  0  0  0  0  0  0  0  0  0  0
   -1.2415    3.4503    0.0829 H   0  0  0  0  0  0  0  0  0  0  0  0
    3.9522    0.4712    1.9746 H   0  0  0  0  0  0  0  0  0  0  0  0
    2.6670    2.0404   -1.5170 H   0  0  0  0  0  0  0  0  0  0  0  0
   -5.0572    0.0513    1.5072 H   0  0  0  0  0  0  0  0  0  0  0  0
   -5.2683   -0.5265   -0.1736 H   0  0  0  0  0  0  0  0  0  0  0  0
   -4.7898   -1.6312    1.1077 H   0  0  0  0  0  0  0  0  0  0  0  0
   -1.8441   -3.0446    1.1180 H   0  0  0  0  0  0  0  0  0  0  0  0
    3.3567    1.4530    4.2534 H   0  0  0  0  0  0  0  0  0  0  0  0
    2.0817    0.2371    4.4473 H   0  0  0  0  0  0  0  0  0  0  0  0
    3.7821   -0.2622    4.4123 H   0  0  0  0  0  0  0  0  0  0  0  0
   -4.7616    1.5876    0.0478 H   0  0  0  0  0  0  0  0  0  0  0  0
  1 13  2  0  0  0  0
  2 14  2  0  0  0  0
  3 17  1  0  0  0  0
  3 38  1  0  0  0  0
  4 17  2  0  0  0  0
  5 19  1  0  0  0  0
  5 42  1  0  0  0  0
  6 21  1  0  0  0  0
  6 46  1  0  0  0  0
  7  8  1  0  0  0  0
  7 10  1  0  0  0  0
  7 14  1  0  0  0  0
  7 17  1  0  0  0  0
  8  9  1  0  0  0  0
  8 15  1  0  0  0  0
  8 27  1  0  0  0  0
  9 12  1  0  0  0  0
  9 13  1  0  0  0  0
  9 28  1  0  0  0  0
 10 11  1  0  0  0  0
 10 18  2  0  0  0  0
 11 13  1  0  0  0  0
 11 19  2  0  0  0  0
 12 16  2  0  0  0  0
 12 20  1  0  0  0  0
 14 16  1  0  0  0  0
 15 24  2  3  0  0  0
 15 29  1  0  0  0  0
 16 30  1  0  0  0  0
 18 21  1  0  0  0  0
 18 23  1  0  0  0  0
 19 22  1  0  0  0  0
 20 31  1  0  0  0  0
 20 32  1  0  0  0  0
 20 33  1  0  0  0  0
 21 22  2  0  0  0  0
 22 25  1  0  0  0  0
 23 34  1  0  0  0  0
 23 35  1  0  0  0  0
 23 36  1  0  0  0  0
 24 26  1  0  0  0  0
 24 37  1  0  0  0  0
 25 39  1  0  0  0  0
 25 40  1  0  0  0  0
 25 41  1  0  0  0  0
 26 43  1  0  0  0  0
 26 44  1  0  0  0  0
 26 45  1  0  0  0  0
M  END
> <PUBCHEM_COMPOUND_CID>
139583973

> <PUBCHEM_CONFORMER_RMSD>
0.6

> <PUBCHEM_CONFORMER_DIVERSEORDER>
1

> <PUBCHEM_MMFF94_PARTIAL_CHARGES>
32
1 -0.57
10 -0.14
11 0.09
12 -0.28
13 0.42
14 0.49
15 -0.29
16 -0.14
17 0.66
18 -0.14
19 0.08
2 -0.57
20 0.14
21 0.08
22 -0.14
23 0.14
24 -0.29
25 0.14
26 0.14
29 0.15
3 -0.65
30 0.15
37 0.15
38 0.5
4 -0.57
42 0.45
46 0.45
5 -0.53
6 -0.53
7 0.27
8 0.14
9 0.2

> <PUBCHEM_EFFECTIVE_ROTOR_COUNT>
2.2

> <PUBCHEM_PHARMACOPHORE_FEATURES>
11
1 1 acceptor
1 2 acceptor
1 26 hydrophobe
1 3 acceptor
1 4 acceptor
1 5 donor
1 6 donor
3 3 4 17 anion
6 10 11 18 19 21 22 rings
6 7 8 9 10 11 13 rings
6 7 8 9 12 14 16 rings

> <PUBCHEM_HEAVY_ATOM_COUNT>
26

> <PUBCHEM_ATOM_DEF_STEREO_COUNT>
3

> <PUBCHEM_ATOM_UDEF_STEREO_COUNT>
0

> <PUBCHEM_BOND_DEF_STEREO_COUNT>
0

> <PUBCHEM_BOND_UDEF_STEREO_COUNT>
1

> <PUBCHEM_ISOTOPIC_ATOM_COUNT>
0

> <PUBCHEM_COMPONENT_COUNT>
1

> <PUBCHEM_CACTVS_TAUTO_COUNT>
-1

> <PUBCHEM_CONFORMER_ID>
0851E1E500000001

> <PUBCHEM_MMFF94_ENERGY>
83.7081

> <PUBCHEM_FEATURE_SELFOVERLAP>
57.261

> <PUBCHEM_SHAPE_FINGERPRINT>
10863032 1 18124056751506350756
10948715 1 17907593771205591084
10967382 1 18263657306442250165
11578080 2 18057334876739433248
12156800 1 10817770756454649951
12293681 4 15617780074020096432
13134695 92 17058650647221103630
13140716 1 18261407658412565819
13583140 156 15191957173910200515
14142880 1 17194263505374325744
14178342 30 18191578654153556553
14817 1 16479924175246727406
16945 1 18263342820056875714
17980427 23 18192684912832251213
17980427 26 14365705689173374390
1813 80 15359377403909879130
20600515 1 18115305566609363866
20905425 154 17974860762926636043
21330990 113 17973426729677358466
22149856 69 18270133405046998763
2334 1 18190478219128644111
23419403 2 17915451693341818206
23559900 14 18268996388318692951
25222932 49 16885837467311873763
2748010 2 18122616150681870719
394222 165 17314247719913175797
474 4 14692290715567303568
484985 159 13050124752997610473
5845 1 16445567383189778674
7364860 26 18341630225291832687
81228 2 16548373777670732398

> <PUBCHEM_SHAPE_MULTIPOLES>
499.85
5.21
3.33
2.7
5.52
0.87
0.95
-0.44
2.88
-0.98
-0.78
-3.37
-0.52
2.09

> <PUBCHEM_SHAPE_SELFOVERLAP>
1106.837

> <PUBCHEM_SHAPE_VOLUME>
264.9

> <PUBCHEM_COORDINATE_TYPE>
2
5
10

$$$$
