139586641
  -OEChem-03292013293D

 65 66  0     1  0  0  0  0  0999 V2000
   -1.2514   -3.8184    0.4804 S   0  0  0  0  0  0  0  0  0  0  0  0
   -1.3483   -3.6512    2.5259 S   0  0  0  0  0  0  0  0  0  0  0  0
    3.9649    2.5157   -0.0356 O   0  0  0  0  0  0  0  0  0  0  0  0
   -0.1162    2.0543    0.7728 O   0  0  0  0  0  0  0  0  0  0  0  0
    1.9647   -1.5901   -2.6179 O   0  0  0  0  0  0  0  0  0  0  0  0
    0.5148    4.2775    0.6659 O   0  0  0  0  0  0  0  0  0  0  0  0
   -2.6108   -2.3030   -2.3388 O   0  0  0  0  0  0  0  0  0  0  0  0
   -2.1549    2.6570   -1.7634 O   0  0  0  0  0  0  0  0  0  0  0  0
    1.7040   -0.3582   -0.6699 N   0  0  0  0  0  0  0  0  0  0  0  0
   -1.0267   -1.0392   -1.2259 N   0  0  0  0  0  0  0  0  0  0  0  0
   -2.9737    0.8174   -0.6079 N   0  0  0  0  0  0  0  0  0  0  0  0
    2.9373    0.4217   -0.7493 C   0  0  2  0  0  0  0  0  0  0  0  0
    4.0944   -0.4011   -0.1778 C   0  0  1  0  0  0  0  0  0  0  0  0
    2.7518    1.7629   -0.0109 C   0  0  2  0  0  0  0  0  0  0  0  0
    3.6981   -1.1556    1.1016 C   0  0  0  0  0  0  0  0  0  0  0  0
    4.5907   -1.3913   -1.2322 C   0  0  0  0  0  0  0  0  0  0  0  0
    1.6654    2.6268   -0.6638 C   0  0  0  0  0  0  0  0  0  0  0  0
    1.3250   -1.3050   -1.6066 C   0  0  0  0  0  0  0  0  0  0  0  0
    4.8305   -1.9770    1.7012 C   0  0  0  0  0  0  0  0  0  0  0  0
    0.0360   -2.0409   -1.2503 C   0  0  1  0  0  0  0  0  0  0  0  0
    0.6465    3.1042    0.3423 C   0  0  0  0  0  0  0  0  0  0  0  0
    0.1933   -2.7841    0.0818 C   0  0  0  0  0  0  0  0  0  0  0  0
   -1.2903    2.3741    1.5460 C   0  0  1  0  0  0  0  0  0  0  0  0
   -3.2018   -0.0391   -1.7636 C   0  0  1  0  0  0  0  0  0  0  0  0
   -2.2862   -1.2639   -1.7617 C   0  0  0  0  0  0  0  0  0  0  0  0
   -2.4151    2.8506    0.6119 C   0  0  0  0  0  0  0  0  0  0  0  0
   -2.4901    2.1099   -0.7134 C   0  0  0  0  0  0  0  0  0  0  0  0
   -1.7379    1.2249    2.4152 C   0  0  0  0  0  0  0  0  0  0  0  0
   -4.6702   -0.4443   -1.8230 C   0  0  0  0  0  0  0  0  0  0  0  0
   -1.1907    0.0044    2.5223 C   0  0  0  0  0  0  0  0  0  0  0  0
   -1.7204   -1.0383    3.4707 C   0  0  0  0  0  0  0  0  0  0  0  0
   -2.4325   -2.2009    2.7738 C   0  0  0  0  0  0  0  0  0  0  0  0
    3.1382    0.6421   -1.8060 H   0  0  0  0  0  0  0  0  0  0  0  0
    4.9400    0.2604    0.0467 H   0  0  0  0  0  0  0  0  0  0  0  0
    2.5185    1.5815    1.0443 H   0  0  0  0  0  0  0  0  0  0  0  0
    2.8678   -1.8458    0.9243 H   0  0  0  0  0  0  0  0  0  0  0  0
    3.3598   -0.4386    1.8586 H   0  0  0  0  0  0  0  0  0  0  0  0
    1.1142   -0.2088    0.1423 H   0  0  0  0  0  0  0  0  0  0  0  0
    4.6773   -0.9274   -2.2204 H   0  0  0  0  0  0  0  0  0  0  0  0
    5.5946   -1.7480   -0.9739 H   0  0  0  0  0  0  0  0  0  0  0  0
    3.9537   -2.2769   -1.3101 H   0  0  0  0  0  0  0  0  0  0  0  0
    1.1114    2.0977   -1.4482 H   0  0  0  0  0  0  0  0  0  0  0  0
    2.0942    3.5167   -1.1410 H   0  0  0  0  0  0  0  0  0  0  0  0
    5.7199   -1.3604    1.8648 H   0  0  0  0  0  0  0  0  0  0  0  0
    5.1033   -2.8209    1.0608 H   0  0  0  0  0  0  0  0  0  0  0  0
    4.5226   -2.3874    2.6687 H   0  0  0  0  0  0  0  0  0  0  0  0
   -0.1657   -2.7562   -2.0574 H   0  0  0  0  0  0  0  0  0  0  0  0
    4.2317    2.6216   -0.9649 H   0  0  0  0  0  0  0  0  0  0  0  0
    1.0682   -3.4424    0.0362 H   0  0  0  0  0  0  0  0  0  0  0  0
    0.3659   -2.0800    0.8977 H   0  0  0  0  0  0  0  0  0  0  0  0
   -0.8328   -0.1409   -0.7929 H   0  0  0  0  0  0  0  0  0  0  0  0
   -1.0465    3.1873    2.2431 H   0  0  0  0  0  0  0  0  0  0  0  0
   -2.9586    0.5232   -2.6730 H   0  0  0  0  0  0  0  0  0  0  0  0
   -2.2404    3.9054    0.3617 H   0  0  0  0  0  0  0  0  0  0  0  0
   -3.3948    2.8131    1.1033 H   0  0  0  0  0  0  0  0  0  0  0  0
   -3.1941    0.4393    0.3080 H   0  0  0  0  0  0  0  0  0  0  0  0
   -2.6049    1.4465    3.0369 H   0  0  0  0  0  0  0  0  0  0  0  0
   -4.9468   -1.0517   -0.9536 H   0  0  0  0  0  0  0  0  0  0  0  0
   -4.8841   -1.0322   -2.7218 H   0  0  0  0  0  0  0  0  0  0  0  0
   -5.3188    0.4384   -1.8336 H   0  0  0  0  0  0  0  0  0  0  0  0
   -0.3149   -0.2489    1.9381 H   0  0  0  0  0  0  0  0  0  0  0  0
   -0.9056   -1.3856    4.1173 H   0  0  0  0  0  0  0  0  0  0  0  0
   -2.4461   -0.5648    4.1458 H   0  0  0  0  0  0  0  0  0  0  0  0
   -3.2368   -2.5524    3.4301 H   0  0  0  0  0  0  0  0  0  0  0  0
   -2.9074   -1.8884    1.8372 H   0  0  0  0  0  0  0  0  0  0  0  0
  1  2  1  0  0  0  0
  1 22  1  0  0  0  0
  2 32  1  0  0  0  0
  3 14  1  0  0  0  0
  3 48  1  0  0  0  0
  4 21  1  0  0  0  0
  4 23  1  0  0  0  0
  5 18  2  0  0  0  0
  6 21  2  0  0  0  0
  7 25  2  0  0  0  0
  8 27  2  0  0  0  0
  9 12  1  0  0  0  0
  9 18  1  0  0  0  0
  9 38  1  0  0  0  0
 10 20  1  0  0  0  0
 10 25  1  0  0  0  0
 10 51  1  0  0  0  0
 11 24  1  0  0  0  0
 11 27  1  0  0  0  0
 11 56  1  0  0  0  0
 12 13  1  0  0  0  0
 12 14  1  0  0  0  0
 12 33  1  0  0  0  0
 13 15  1  0  0  0  0
 13 16  1  0  0  0  0
 13 34  1  0  0  0  0
 14 17  1  0  0  0  0
 14 35  1  0  0  0  0
 15 19  1  0  0  0  0
 15 36  1  0  0  0  0
 15 37  1  0  0  0  0
 16 39  1  0  0  0  0
 16 40  1  0  0  0  0
 16 41  1  0  0  0  0
 17 21  1  0  0  0  0
 17 42  1  0  0  0  0
 17 43  1  0  0  0  0
 18 20  1  0  0  0  0
 19 44  1  0  0  0  0
 19 45  1  0  0  0  0
 19 46  1  0  0  0  0
 20 22  1  0  0  0  0
 20 47  1  0  0  0  0
 22 49  1  0  0  0  0
 22 50  1  0  0  0  0
 23 26  1  0  0  0  0
 23 28  1  0  0  0  0
 23 52  1  0  0  0  0
 24 25  1  0  0  0  0
 24 29  1  0  0  0  0
 24 53  1  0  0  0  0
 26 27  1  0  0  0  0
 26 54  1  0  0  0  0
 26 55  1  0  0  0  0
 28 30  2  0  0  0  0
 28 57  1  0  0  0  0
 29 58  1  0  0  0  0
 29 59  1  0  0  0  0
 29 60  1  0  0  0  0
 30 31  1  0  0  0  0
 30 61  1  0  0  0  0
 31 32  1  0  0  0  0
 31 62  1  0  0  0  0
 31 63  1  0  0  0  0
 32 64  1  0  0  0  0
 32 65  1  0  0  0  0
M  END
> <PUBCHEM_COMPOUND_CID>
139586641

> <PUBCHEM_CONFORMER_RMSD>
0.8

> <PUBCHEM_CONFORMER_DIVERSEORDER>
2
57
3
63
39
36
14
54
7
19
34
35
62
23
56
27
44
24
37
32
38
51
55
47
66
11
10
60
20
9
21
59
58
15
49
50
8
43
12
48
46
41
5
42
18
26
17
22
33
30
31
6
52
61
45
16
29
1
4
28
53
65
40
64
13
25

> <PUBCHEM_MMFF94_PARTIAL_CHARGES>
33
1 -0.23
10 -0.73
11 -0.73
12 0.3
14 0.28
17 0.06
18 0.57
2 -0.23
20 0.36
21 0.66
22 0.23
23 0.42
24 0.36
25 0.57
26 0.06
27 0.57
28 -0.29
3 -0.68
30 -0.29
31 0.14
32 0.23
38 0.37
4 -0.43
48 0.4
5 -0.57
51 0.37
56 0.37
57 0.15
6 -0.57
61 0.15
7 -0.57
8 -0.57
9 -0.73

> <PUBCHEM_EFFECTIVE_ROTOR_COUNT>
4.8

> <PUBCHEM_PHARMACOPHORE_FEATURES>
11
1 10 donor
1 11 donor
1 16 hydrophobe
1 19 hydrophobe
1 3 acceptor
1 3 donor
1 5 acceptor
1 6 acceptor
1 7 acceptor
1 8 acceptor
1 9 donor

> <PUBCHEM_HEAVY_ATOM_COUNT>
32

> <PUBCHEM_ATOM_DEF_STEREO_COUNT>
2

> <PUBCHEM_ATOM_UDEF_STEREO_COUNT>
4

> <PUBCHEM_BOND_DEF_STEREO_COUNT>
1

> <PUBCHEM_BOND_UDEF_STEREO_COUNT>
0

> <PUBCHEM_ISOTOPIC_ATOM_COUNT>
0

> <PUBCHEM_COMPONENT_COUNT>
1

> <PUBCHEM_CACTVS_TAUTO_COUNT>
-1

> <PUBCHEM_CONFORMER_ID>
0851EC5100000002

> <PUBCHEM_MMFF94_ENERGY>
66.1982

> <PUBCHEM_FEATURE_SELFOVERLAP>
55.832

> <PUBCHEM_SHAPE_FINGERPRINT>
11578080 2 17532386454592255069
12156800 1 17407622499498401467
12788726 201 18201716279836194728
13583140 156 18113910355558788472
20764821 26 17758428208401087706
23419403 2 18046081603399826457
27425 322 17604693578284355069
3493558 16 16123001354821036050
35225 105 17968961715503308162
469060 322 18202568358577350907
57527585 103 18266484107329135039

> <PUBCHEM_SHAPE_MULTIPOLES>
616.09
7.16
5.07
3.15
6.54
0.75
1.06
-1.12
-1.67
-1.16
2
-2.69
-1.95
0.46

> <PUBCHEM_SHAPE_SELFOVERLAP>
1211.483

> <PUBCHEM_SHAPE_VOLUME>
367.4

> <PUBCHEM_COORDINATE_TYPE>
2
5
10

$$$$
