139591319
  -OEChem-03292013293D

 43 45  0     0  0  0  0  0  0999 V2000
   -1.3567    0.4872   -2.5144 O   0  0  0  0  0  0  0  0  0  0  0  0
   -1.0769    1.0954    2.2006 O   0  0  0  0  0  0  0  0  0  0  0  0
   -3.9716    0.1567   -2.3439 O   0  0  0  0  0  0  0  0  0  0  0  0
   -3.7792    0.5480    2.3376 O   0  0  0  0  0  0  0  0  0  0  0  0
   -5.1875    0.0910    0.1269 O   0  0  0  0  0  0  0  0  0  0  0  0
    3.2616   -0.9675   -0.0306 N   0  0  0  0  0  0  0  0  0  0  0  0
   -1.8447    0.7879    1.0643 N   0  0  0  0  0  0  0  0  0  0  0  0
   -3.2582    0.3294   -1.1482 N   0  0  0  0  0  0  0  0  0  0  0  0
    3.3079    1.4951   -0.2913 C   0  0  0  0  0  0  0  0  0  0  0  0
    2.6272    0.1756   -0.1415 C   0  0  0  0  0  0  0  0  0  0  0  0
    1.1474    0.0124   -0.1012 C   0  0  0  0  0  0  0  0  0  0  0  0
    0.9480   -1.4193    0.0523 C   0  0  0  0  0  0  0  0  0  0  0  0
    2.9359    2.0883   -1.6609 C   0  0  0  0  0  0  0  0  0  0  0  0
    4.8312    1.2970   -0.2265 C   0  0  0  0  0  0  0  0  0  0  0  0
    2.2486   -1.9517    0.0883 C   0  0  0  0  0  0  0  0  0  0  0  0
    2.8561    2.3101    0.9052 C   0  0  0  0  0  0  0  0  0  0  0  0
    0.2377    0.9833   -0.1888 C   0  0  0  0  0  0  0  0  0  0  0  0
   -0.1723   -2.2225    0.1537 C   0  0  0  0  0  0  0  0  0  0  0  0
   -1.1793    0.7557   -0.1426 C   0  0  0  0  0  0  0  0  0  0  0  0
    2.4461   -3.3158    0.2284 C   0  0  0  0  0  0  0  0  0  0  0  0
    0.0250   -3.5979    0.2948 C   0  0  0  0  0  0  0  0  0  0  0  0
    1.3218   -4.1398    0.3317 C   0  0  0  0  0  0  0  0  0  0  0  0
    2.7082    3.6390    0.9779 C   0  0  0  0  0  0  0  0  0  0  0  0
   -1.9066    0.5228   -1.2522 C   0  0  0  0  0  0  0  0  0  0  0  0
   -3.1832    0.5496    1.2690 C   0  0  0  0  0  0  0  0  0  0  0  0
   -3.9863    0.2899    0.0114 C   0  0  0  0  0  0  0  0  0  0  0  0
    5.1882    0.6587   -1.0437 H   0  0  0  0  0  0  0  0  0  0  0  0
    3.0612    1.3439   -2.4568 H   0  0  0  0  0  0  0  0  0  0  0  0
    5.1440    0.8308    0.7161 H   0  0  0  0  0  0  0  0  0  0  0  0
    5.3577    2.2557   -0.3054 H   0  0  0  0  0  0  0  0  0  0  0  0
    1.9119    2.4610   -1.7282 H   0  0  0  0  0  0  0  0  0  0  0  0
    3.5877    2.9357   -1.9070 H   0  0  0  0  0  0  0  0  0  0  0  0
    2.7015    1.7651    1.8373 H   0  0  0  0  0  0  0  0  0  0  0  0
    0.4989    2.0314   -0.2550 H   0  0  0  0  0  0  0  0  0  0  0  0
   -1.1855   -1.8476    0.1351 H   0  0  0  0  0  0  0  0  0  0  0  0
    3.4441   -3.7396    0.2576 H   0  0  0  0  0  0  0  0  0  0  0  0
   -0.8333   -4.2595    0.3784 H   0  0  0  0  0  0  0  0  0  0  0  0
    1.4500   -5.2134    0.4425 H   0  0  0  0  0  0  0  0  0  0  0  0
    2.4115    4.1075    1.9101 H   0  0  0  0  0  0  0  0  0  0  0  0
    2.8804    4.2805    0.1216 H   0  0  0  0  0  0  0  0  0  0  0  0
   -0.4019    0.6550   -2.4645 H   0  0  0  0  0  0  0  0  0  0  0  0
   -0.9706    0.2097    2.5885 H   0  0  0  0  0  0  0  0  0  0  0  0
   -4.3662    1.0398   -2.4463 H   0  0  0  0  0  0  0  0  0  0  0  0
  1 24  1  0  0  0  0
  1 41  1  0  0  0  0
  2  7  1  0  0  0  0
  2 42  1  0  0  0  0
  3  8  1  0  0  0  0
  3 43  1  0  0  0  0
  4 25  2  0  0  0  0
  5 26  2  0  0  0  0
  6 10  2  0  0  0  0
  6 15  1  0  0  0  0
  7 19  1  0  0  0  0
  7 25  1  0  0  0  0
  8 24  1  0  0  0  0
  8 26  1  0  0  0  0
  9 10  1  0  0  0  0
  9 13  1  0  0  0  0
  9 14  1  0  0  0  0
  9 16  1  0  0  0  0
 10 11  1  0  0  0  0
 11 12  1  0  0  0  0
 11 17  2  3  0  0  0
 12 15  1  0  0  0  0
 12 18  2  0  0  0  0
 13 28  1  0  0  0  0
 13 31  1  0  0  0  0
 13 32  1  0  0  0  0
 14 27  1  0  0  0  0
 14 29  1  0  0  0  0
 14 30  1  0  0  0  0
 15 20  2  0  0  0  0
 16 23  2  0  0  0  0
 16 33  1  0  0  0  0
 17 19  1  0  0  0  0
 17 34  1  0  0  0  0
 18 21  1  0  0  0  0
 18 35  1  0  0  0  0
 19 24  2  0  0  0  0
 20 22  1  0  0  0  0
 20 36  1  0  0  0  0
 21 22  2  0  0  0  0
 21 37  1  0  0  0  0
 22 38  1  0  0  0  0
 23 39  1  0  0  0  0
 23 40  1  0  0  0  0
 25 26  1  0  0  0  0
M  END
> <PUBCHEM_COMPOUND_CID>
139591319

> <PUBCHEM_CONFORMER_RMSD>
0.6

> <PUBCHEM_CONFORMER_DIVERSEORDER>
1
9
6
7
3
8
2
5
4

> <PUBCHEM_MMFF94_PARTIAL_CHARGES>
35
1 -0.53
10 0.37
11 -0.01
12 0.03
15 0.18
16 -0.29
17 -0.15
18 -0.15
19 0.11
2 -0.44
20 -0.15
21 -0.15
22 -0.15
23 -0.3
24 0.19
25 0.63
26 0.63
3 -0.44
33 0.15
34 0.15
35 0.15
36 0.15
37 0.15
38 0.15
39 0.15
4 -0.57
40 0.15
41 0.45
42 0.4
43 0.4
5 -0.57
6 -0.63
7 -0.13
8 -0.13
9 0.2

> <PUBCHEM_EFFECTIVE_ROTOR_COUNT>
3

> <PUBCHEM_PHARMACOPHORE_FEATURES>
9
1 1 donor
1 23 hydrophobe
1 4 acceptor
1 5 acceptor
1 6 acceptor
3 9 13 14 hydrophobe
5 6 10 11 12 15 rings
6 12 15 18 20 21 22 rings
6 7 8 19 24 25 26 rings

> <PUBCHEM_HEAVY_ATOM_COUNT>
26

> <PUBCHEM_ATOM_DEF_STEREO_COUNT>
0

> <PUBCHEM_ATOM_UDEF_STEREO_COUNT>
0

> <PUBCHEM_BOND_DEF_STEREO_COUNT>
0

> <PUBCHEM_BOND_UDEF_STEREO_COUNT>
1

> <PUBCHEM_ISOTOPIC_ATOM_COUNT>
0

> <PUBCHEM_COMPONENT_COUNT>
1

> <PUBCHEM_CACTVS_TAUTO_COUNT>
-1

> <PUBCHEM_CONFORMER_ID>
0851FE9700000001

> <PUBCHEM_MMFF94_ENERGY>
91.8804

> <PUBCHEM_FEATURE_SELFOVERLAP>
45.779

> <PUBCHEM_SHAPE_FINGERPRINT>
10165383 225 18190480396624764188
10871710 139 16597620306552355348
1100329 8 18411698794912554578
11370993 70 18338236084478739249
11582403 64 16522099031548117133
11725454 13 17242424253216578493
121448 382 18126267877763367326
12160290 23 17759529154859267230
12236239 1 17846500322568191685
12422481 6 17754484531192024195
12553582 1 17834964074697417234
12788726 201 17346883330477070523
13009979 54 17485927437048946898
13140716 1 18337387253381893762
13533116 47 18339647746525572409
13583140 156 18268728133948217097
13681431 1 18046338631333108242
13911987 19 18189060943876683980
14787075 74 17842836904680459639
14955137 171 18337952273742037306
17138139 8 17769627000956004383
1813 80 17698169448114074526
18915476 22 18261663779928250871
19591789 44 18265059205058339490
19930381 70 18408885122691433977
204376 136 18335425715794617076
20510252 161 17619908796192727418
20600515 1 16174816407689331864
20645477 70 18188204304233166975
20691752 17 18201991166412513656
21033648 29 18263063557068418236
21120745 212 7939806990344129787
2255824 54 18340489959025736006
23557571 272 16950851297761286941
23559900 14 16081366294045204574
23598288 3 17629763362150980537
23598291 2 17844815788949444304
238 59 18188478082417584390
283562 15 17401198371449349378
350125 39 18120382201211314026
392239 28 18128272270581933203
4340502 62 18339930419486954587
4409770 3 17186693552548121386
458136 41 18335999617846038934
469060 322 17753612635614350511
474 4 18200591522528114992
48014 12 16320040985102080960
495365 180 18189878877675062245
57527293 21 17169573975777543081
59755656 520 18340775956787378980
633830 44 18059307559423762476
7097593 13 17909562657302205761
77492 1 17846213311383605925
81228 2 17468194896152717442
8272917 22 18339368444369861613
9981440 41 16193648700931966824

> <PUBCHEM_SHAPE_MULTIPOLES>
490.78
7.8
4.08
1.67
4.94
4.33
-0.28
-4.59
-0.27
-4.64
0.99
1.77
-1.02
-0.1

> <PUBCHEM_SHAPE_SELFOVERLAP>
1076.503

> <PUBCHEM_SHAPE_VOLUME>
265.7

> <PUBCHEM_COORDINATE_TYPE>
2
5
10

$$$$
