139586305
  -OEChem-03292013293D

 50 53  0     1  0  0  0  0  0999 V2000
   -1.0029   -3.2187    1.3612 S   0  0  0  0  0  0  0  0  0  0  0  0
    2.5851    0.0874   -0.8748 O   0  0  0  0  0  0  0  0  0  0  0  0
    1.7918    0.7511    1.2165 O   0  0  0  0  0  0  0  0  0  0  0  0
    6.0106    0.5142    0.1436 O   0  0  0  0  0  0  0  0  0  0  0  0
    4.1481   -2.3552   -1.1052 O   0  0  0  0  0  0  0  0  0  0  0  0
    4.3418    0.2699    2.3352 O   0  0  0  0  0  0  0  0  0  0  0  0
   -6.5421    0.0109   -0.2776 O   0  0  0  0  0  0  0  0  0  0  0  0
   -5.1668    1.4105   -1.4249 O   0  0  0  0  0  0  0  0  0  0  0  0
   -0.7331   -0.2636    0.7452 N   0  0  0  0  0  0  0  0  0  0  0  0
   -2.7182    1.3956   -0.1992 N   0  0  0  0  0  0  0  0  0  0  0  0
    5.1534   -0.6237    0.2326 C   0  0  2  0  0  0  0  0  0  0  0  0
    4.7247   -1.0520   -1.1732 C   0  0  2  0  0  0  0  0  0  0  0  0
    3.9298   -0.3129    1.1027 C   0  0  2  0  0  0  0  0  0  0  0  0
    3.6962   -0.0718   -1.7636 C   0  0  1  0  0  0  0  0  0  0  0  0
    2.9526    0.6270    0.3945 C   0  0  1  0  0  0  0  0  0  0  0  0
    3.1418   -0.5514   -3.1010 C   0  0  0  0  0  0  0  0  0  0  0  0
    0.7916    1.5575    0.7461 C   0  0  0  0  0  0  0  0  0  0  0  0
   -0.4784    1.0338    0.5127 C   0  0  0  0  0  0  0  0  0  0  0  0
    1.0754    2.9014    0.5106 C   0  0  0  0  0  0  0  0  0  0  0  0
   -1.4865    1.8763    0.0330 C   0  0  0  0  0  0  0  0  0  0  0  0
   -1.9647   -0.7445    0.5128 C   0  0  0  0  0  0  0  0  0  0  0  0
    0.0760    3.7367    0.0348 C   0  0  0  0  0  0  0  0  0  0  0  0
   -1.1965    3.2191   -0.2002 C   0  0  0  0  0  0  0  0  0  0  0  0
   -2.9729    0.0982    0.0332 C   0  0  0  0  0  0  0  0  0  0  0  0
   -2.2545   -2.0873    0.7457 C   0  0  0  0  0  0  0  0  0  0  0  0
   -4.2429   -0.4254   -0.1998 C   0  0  0  0  0  0  0  0  0  0  0  0
   -3.5268   -2.6049    0.5106 C   0  0  0  0  0  0  0  0  0  0  0  0
   -4.5266   -1.7693    0.0355 C   0  0  0  0  0  0  0  0  0  0  0  0
   -5.3177    0.4243   -0.7003 C   0  0  0  0  0  0  0  0  0  0  0  0
   -0.2881   -3.8332   -0.1866 C   0  0  0  0  0  0  0  0  0  0  0  0
    5.7347   -1.4153    0.7206 H   0  0  0  0  0  0  0  0  0  0  0  0
    5.5916   -1.1050   -1.8424 H   0  0  0  0  0  0  0  0  0  0  0  0
    3.4085   -1.2487    1.3417 H   0  0  0  0  0  0  0  0  0  0  0  0
    4.1614    0.9107   -1.9143 H   0  0  0  0  0  0  0  0  0  0  0  0
    3.4200    1.6114    0.2654 H   0  0  0  0  0  0  0  0  0  0  0  0
    3.9432   -0.7174   -3.8271 H   0  0  0  0  0  0  0  0  0  0  0  0
    2.4509    0.1939   -3.5107 H   0  0  0  0  0  0  0  0  0  0  0  0
    2.5654   -1.4761   -2.9892 H   0  0  0  0  0  0  0  0  0  0  0  0
    6.7801    0.2601   -0.3938 H   0  0  0  0  0  0  0  0  0  0  0  0
    4.8281   -2.9588   -0.7607 H   0  0  0  0  0  0  0  0  0  0  0  0
    4.9601   -0.3492    2.7593 H   0  0  0  0  0  0  0  0  0  0  0  0
    2.0580    3.3171    0.7117 H   0  0  0  0  0  0  0  0  0  0  0  0
    0.2803    4.7870   -0.1488 H   0  0  0  0  0  0  0  0  0  0  0  0
   -1.9730    3.8844   -0.5725 H   0  0  0  0  0  0  0  0  0  0  0  0
   -5.5080   -2.1946   -0.1555 H   0  0  0  0  0  0  0  0  0  0  0  0
   -3.7543   -3.6529    0.6884 H   0  0  0  0  0  0  0  0  0  0  0  0
    0.5045   -4.5506    0.0411 H   0  0  0  0  0  0  0  0  0  0  0  0
    0.1411   -3.0078   -0.7612 H   0  0  0  0  0  0  0  0  0  0  0  0
   -1.0526   -4.3333   -0.7873 H   0  0  0  0  0  0  0  0  0  0  0  0
   -7.2598    0.5865   -0.6182 H   0  0  0  0  0  0  0  0  0  0  0  0
  1 25  1  0  0  0  0
  1 30  1  0  0  0  0
  2 14  1  0  0  0  0
  2 15  1  0  0  0  0
  3 15  1  0  0  0  0
  3 17  1  0  0  0  0
  4 11  1  0  0  0  0
  4 39  1  0  0  0  0
  5 12  1  0  0  0  0
  5 40  1  0  0  0  0
  6 13  1  0  0  0  0
  6 41  1  0  0  0  0
  7 29  1  0  0  0  0
  7 50  1  0  0  0  0
  8 29  2  0  0  0  0
  9 18  2  0  0  0  0
  9 21  1  0  0  0  0
 10 20  2  0  0  0  0
 10 24  1  0  0  0  0
 11 12  1  0  0  0  0
 11 13  1  0  0  0  0
 11 31  1  0  0  0  0
 12 14  1  0  0  0  0
 12 32  1  0  0  0  0
 13 15  1  0  0  0  0
 13 33  1  0  0  0  0
 14 16  1  0  0  0  0
 14 34  1  0  0  0  0
 15 35  1  0  0  0  0
 16 36  1  0  0  0  0
 16 37  1  0  0  0  0
 16 38  1  0  0  0  0
 17 18  1  0  0  0  0
 17 19  2  0  0  0  0
 18 20  1  0  0  0  0
 19 22  1  0  0  0  0
 19 42  1  0  0  0  0
 20 23  1  0  0  0  0
 21 24  1  0  0  0  0
 21 25  2  0  0  0  0
 22 23  2  0  0  0  0
 22 43  1  0  0  0  0
 23 44  1  0  0  0  0
 24 26  2  0  0  0  0
 25 27  1  0  0  0  0
 26 28  1  0  0  0  0
 26 29  1  0  0  0  0
 27 28  2  0  0  0  0
 27 46  1  0  0  0  0
 28 45  1  0  0  0  0
 30 47  1  0  0  0  0
 30 48  1  0  0  0  0
 30 49  1  0  0  0  0
M  END
> <PUBCHEM_COMPOUND_CID>
139586305

> <PUBCHEM_CONFORMER_RMSD>
0.8

> <PUBCHEM_CONFORMER_DIVERSEORDER>
1
56
9
7
55
44
51
38
8
42
53
37
39
30
54
50
46
43
16
52
40
17
23
45
22
27
31
36
48
28
5
25
18
58
10
12
57
41
6
14
15
29
49
13
2
21
35
59
34
47
3
24
11
32
19
4
33
26
20

> <PUBCHEM_MMFF94_PARTIAL_CHARGES>
38
1 -0.33
10 -0.62
11 0.28
12 0.28
13 0.28
14 0.28
15 0.56
17 0.08
18 0.31
19 -0.15
2 -0.56
20 0.31
21 0.31
22 -0.15
23 -0.15
24 0.31
25 0.1
26 0.09
27 -0.15
28 -0.15
29 0.63
3 -0.36
30 0.23
39 0.4
4 -0.68
40 0.4
41 0.4
42 0.15
43 0.15
44 0.15
45 0.15
46 0.15
5 -0.68
50 0.5
6 -0.68
7 -0.65
8 -0.57
9 -0.62

> <PUBCHEM_EFFECTIVE_ROTOR_COUNT>
5.2

> <PUBCHEM_PHARMACOPHORE_FEATURES>
18
1 10 acceptor
1 2 acceptor
1 3 acceptor
1 30 hydrophobe
1 4 acceptor
1 4 donor
1 5 acceptor
1 5 donor
1 6 acceptor
1 6 donor
1 7 acceptor
1 8 acceptor
1 9 acceptor
3 7 8 29 anion
6 17 18 19 20 22 23 rings
6 2 11 12 13 14 15 rings
6 21 24 25 26 27 28 rings
6 9 10 18 20 21 24 rings

> <PUBCHEM_HEAVY_ATOM_COUNT>
30

> <PUBCHEM_ATOM_DEF_STEREO_COUNT>
5

> <PUBCHEM_ATOM_UDEF_STEREO_COUNT>
0

> <PUBCHEM_BOND_DEF_STEREO_COUNT>
0

> <PUBCHEM_BOND_UDEF_STEREO_COUNT>
0

> <PUBCHEM_ISOTOPIC_ATOM_COUNT>
0

> <PUBCHEM_COMPONENT_COUNT>
1

> <PUBCHEM_CACTVS_TAUTO_COUNT>
-1

> <PUBCHEM_CONFORMER_ID>
0851EB0100000001

> <PUBCHEM_MMFF94_ENERGY>
106.8556

> <PUBCHEM_FEATURE_SELFOVERLAP>
91.557

> <PUBCHEM_SHAPE_FINGERPRINT>
10693767 8 18201421559803193455
11578080 2 17315326341173686668
11828532 37 18262523718407642331
12128747 34 16772964588199867489
12236239 1 17385438817552874304
12363563 72 18340779220709205760
12553582 1 18265072338856879738
12788726 201 18334575690127125712
13140716 1 18264203781254831761
13402501 40 18343303669273652382
13544653 18 17704076196076121488
13617811 41 18187645778555211405
13726171 33 17901702497625517860
14251757 5 18188218692167932266
14790565 3 17476364898781653233
14866123 147 18126575509624226113
15420108 30 17409952240775243481
15475509 8 18270691861810266057
15927050 60 17765150575813516049
16752209 62 18261958436070103968
17492 89 17978225294847692371
19319366 153 17530674412077710490
20403669 9 18272654532350432876
20511986 3 17603860148512042124
20642791 13 18130793300046417496
21133410 230 11512009153999741214
21285901 2 18202004287463457348
21307412 95 18343026571153473055
21781051 124 17895205450043649563
23557571 272 18271524208933808584
23559900 14 18340200903183906312
3004659 81 18113336418836092924
3027735 51 18197502826866651291
3178227 256 18261686926298404009
3298306 158 18408318870109031183
335352 9 18336258020944374205
340366 18 18041561450741923285
404807 14 15620914889340422527
4280585 95 18334853948505906800
460360 51 18117009968726068273
59755656 215 18337386037531790775
6138700 20 18410570661137388747
66674814 147 17415811782561726335
9709674 26 18049158075483697155

> <PUBCHEM_SHAPE_MULTIPOLES>
570.19
11.96
3.9
1.63
0.33
0.07
0.8
2.84
2.94
-1.84
-0.55
2.26
0.38
1.67

> <PUBCHEM_SHAPE_SELFOVERLAP>
1241.058

> <PUBCHEM_SHAPE_VOLUME>
313

> <PUBCHEM_COORDINATE_TYPE>
2
5
10

$$$$
