139585687
  -OEChem-03292013293D

 58 61  0     1  0  0  0  0  0999 V2000
   -4.4732    1.1893   -1.5011 O   0  0  0  0  0  0  0  0  0  0  0  0
   -4.5926   -1.1807   -1.3409 O   0  0  0  0  0  0  0  0  0  0  0  0
   -2.5637    0.3246    0.6453 O   0  0  0  0  0  0  0  0  0  0  0  0
   -6.3174   -1.8648    1.0248 O   0  0  0  0  0  0  0  0  0  0  0  0
   -2.1934    2.6304   -2.0721 O   0  0  0  0  0  0  0  0  0  0  0  0
    4.5316    0.8242    0.8712 O   0  0  0  0  0  0  0  0  0  0  0  0
    7.9222   -1.0003   -0.6694 O   0  0  0  0  0  0  0  0  0  0  0  0
    5.8393    1.8433    2.4233 O   0  0  0  0  0  0  0  0  0  0  0  0
   -5.0595    0.1665    0.5931 C   0  0  2  0  0  0  0  0  0  0  0  0
   -3.8067    1.0394    0.7566 C   0  0  2  0  0  0  0  0  0  0  0  0
   -4.9917   -1.3151    0.9991 C   0  0  2  0  0  0  0  0  0  0  0  0
   -5.1684    0.0718   -0.9312 C   0  0  1  0  0  0  0  0  0  0  0  0
   -3.8613    1.9540   -0.4511 C   0  0  1  0  0  0  0  0  0  0  0  0
   -4.2456   -1.9563   -0.1784 C   0  0  1  0  0  0  0  0  0  0  0  0
   -2.4049    2.2275   -0.7349 C   0  0  1  0  0  0  0  0  0  0  0  0
   -6.2665    0.9211    1.1837 C   0  0  0  0  0  0  0  0  0  0  0  0
   -1.7699    0.8864   -0.4142 C   0  0  1  0  0  0  0  0  0  0  0  0
   -4.3519   -1.6039    2.3531 C   0  0  0  0  0  0  0  0  0  0  0  0
   -4.5698   -3.4175   -0.4565 C   0  0  0  0  0  0  0  0  0  0  0  0
   -0.3549    1.0043    0.0376 C   0  0  0  0  0  0  0  0  0  0  0  0
    0.6676    0.3608   -0.5445 C   0  0  0  0  0  0  0  0  0  0  0  0
    2.0371    0.4825   -0.0965 C   0  0  0  0  0  0  0  0  0  0  0  0
    3.0561   -0.1628   -0.6814 C   0  0  0  0  0  0  0  0  0  0  0  0
    4.4183   -0.0482   -0.2427 C   0  0  0  0  0  0  0  0  0  0  0  0
    5.4946   -0.6608   -0.7740 C   0  0  0  0  0  0  0  0  0  0  0  0
    6.7853   -0.3948   -0.1616 C   0  0  0  0  0  0  0  0  0  0  0  0
    5.4412   -1.5964   -1.9547 C   0  0  0  0  0  0  0  0  0  0  0  0
    5.7330    1.0902    1.4617 C   0  0  0  0  0  0  0  0  0  0  0  0
    6.9129    0.4250    0.8877 C   0  0  0  0  0  0  0  0  0  0  0  0
    8.1522   -2.2397   -0.0320 C   0  0  0  0  0  0  0  0  0  0  0  0
   -3.7782    1.5875    1.7043 H   0  0  0  0  0  0  0  0  0  0  0  0
   -6.2013    0.0892   -1.2950 H   0  0  0  0  0  0  0  0  0  0  0  0
   -4.4523    2.8632   -0.3074 H   0  0  0  0  0  0  0  0  0  0  0  0
   -3.1613   -1.8744   -0.0543 H   0  0  0  0  0  0  0  0  0  0  0  0
   -2.0361    3.0124   -0.0625 H   0  0  0  0  0  0  0  0  0  0  0  0
   -7.2180    0.4477    0.9196 H   0  0  0  0  0  0  0  0  0  0  0  0
   -6.3224    1.9541    0.8240 H   0  0  0  0  0  0  0  0  0  0  0  0
   -6.2007    0.9545    2.2766 H   0  0  0  0  0  0  0  0  0  0  0  0
   -1.8432    0.2098   -1.2752 H   0  0  0  0  0  0  0  0  0  0  0  0
   -4.8947   -1.0873    3.1523 H   0  0  0  0  0  0  0  0  0  0  0  0
   -3.3025   -1.3037    2.4017 H   0  0  0  0  0  0  0  0  0  0  0  0
   -4.4070   -2.6734    2.5858 H   0  0  0  0  0  0  0  0  0  0  0  0
   -5.6100   -3.5515   -0.7713 H   0  0  0  0  0  0  0  0  0  0  0  0
   -4.3759   -4.0441    0.4187 H   0  0  0  0  0  0  0  0  0  0  0  0
   -3.9548   -3.7840   -1.2861 H   0  0  0  0  0  0  0  0  0  0  0  0
   -6.7293   -1.7267    0.1552 H   0  0  0  0  0  0  0  0  0  0  0  0
   -0.1666    1.6442    0.8976 H   0  0  0  0  0  0  0  0  0  0  0  0
   -2.7201    3.4338   -2.2221 H   0  0  0  0  0  0  0  0  0  0  0  0
    0.4775   -0.2846   -1.3984 H   0  0  0  0  0  0  0  0  0  0  0  0
    2.1943    1.1414    0.7538 H   0  0  0  0  0  0  0  0  0  0  0  0
    2.8394   -0.8129   -1.5230 H   0  0  0  0  0  0  0  0  0  0  0  0
    5.5178   -2.6366   -1.6236 H   0  0  0  0  0  0  0  0  0  0  0  0
    4.5278   -1.5014   -2.5463 H   0  0  0  0  0  0  0  0  0  0  0  0
    6.2648   -1.3925   -2.6486 H   0  0  0  0  0  0  0  0  0  0  0  0
    7.8763    0.6254    1.3436 H   0  0  0  0  0  0  0  0  0  0  0  0
    9.0151   -2.7125   -0.5109 H   0  0  0  0  0  0  0  0  0  0  0  0
    7.3020   -2.9226   -0.1286 H   0  0  0  0  0  0  0  0  0  0  0  0
    8.3956   -2.0992    1.0272 H   0  0  0  0  0  0  0  0  0  0  0  0
  1 12  1  0  0  0  0
  1 13  1  0  0  0  0
  2 12  1  0  0  0  0
  2 14  1  0  0  0  0
  3 10  1  0  0  0  0
  3 17  1  0  0  0  0
  4 11  1  0  0  0  0
  4 46  1  0  0  0  0
  5 15  1  0  0  0  0
  5 48  1  0  0  0  0
  6 24  1  0  0  0  0
  6 28  1  0  0  0  0
  7 26  1  0  0  0  0
  7 30  1  0  0  0  0
  8 28  2  0  0  0  0
  9 10  1  0  0  0  0
  9 11  1  0  0  0  0
  9 12  1  0  0  0  0
  9 16  1  0  0  0  0
 10 13  1  0  0  0  0
 10 31  1  0  0  0  0
 11 14  1  0  0  0  0
 11 18  1  0  0  0  0
 12 32  1  0  0  0  0
 13 15  1  0  0  0  0
 13 33  1  0  0  0  0
 14 19  1  0  0  0  0
 14 34  1  0  0  0  0
 15 17  1  0  0  0  0
 15 35  1  0  0  0  0
 16 36  1  0  0  0  0
 16 37  1  0  0  0  0
 16 38  1  0  0  0  0
 17 20  1  0  0  0  0
 17 39  1  0  0  0  0
 18 40  1  0  0  0  0
 18 41  1  0  0  0  0
 18 42  1  0  0  0  0
 19 43  1  0  0  0  0
 19 44  1  0  0  0  0
 19 45  1  0  0  0  0
 20 21  2  0  0  0  0
 20 47  1  0  0  0  0
 21 22  1  0  0  0  0
 21 49  1  0  0  0  0
 22 23  2  0  0  0  0
 22 50  1  0  0  0  0
 23 24  1  0  0  0  0
 23 51  1  0  0  0  0
 24 25  2  0  0  0  0
 25 26  1  0  0  0  0
 25 27  1  0  0  0  0
 26 29  2  0  0  0  0
 27 52  1  0  0  0  0
 27 53  1  0  0  0  0
 27 54  1  0  0  0  0
 28 29  1  0  0  0  0
 29 55  1  0  0  0  0
 30 56  1  0  0  0  0
 30 57  1  0  0  0  0
 30 58  1  0  0  0  0
M  END
> <PUBCHEM_COMPOUND_CID>
139585687

> <PUBCHEM_CONFORMER_RMSD>
0.8

> <PUBCHEM_CONFORMER_DIVERSEORDER>
1
13
20
8
17
3
22
5
18
6
14
12
10
2
16
4
19
21
9
11
15
7

> <PUBCHEM_MMFF94_PARTIAL_CHARGES>
33
1 -0.56
10 0.28
11 0.28
12 0.56
13 0.28
14 0.28
15 0.28
17 0.42
2 -0.56
20 -0.29
21 -0.15
22 -0.15
23 -0.15
24 0.08
25 -0.14
26 0.08
27 0.14
28 0.71
29 -0.14
3 -0.56
30 0.28
4 -0.68
46 0.4
47 0.15
48 0.4
49 0.15
5 -0.68
50 0.15
51 0.15
55 0.15
6 -0.23
7 -0.36
8 -0.57

> <PUBCHEM_EFFECTIVE_ROTOR_COUNT>
5.4

> <PUBCHEM_PHARMACOPHORE_FEATURES>
13
1 1 acceptor
1 2 acceptor
1 3 acceptor
1 4 acceptor
1 4 donor
1 5 acceptor
1 5 donor
1 7 acceptor
1 8 acceptor
5 1 9 10 12 13 rings
5 2 9 11 12 14 rings
5 3 10 13 15 17 rings
6 6 24 25 26 28 29 rings

> <PUBCHEM_HEAVY_ATOM_COUNT>
30

> <PUBCHEM_ATOM_DEF_STEREO_COUNT>
8

> <PUBCHEM_ATOM_UDEF_STEREO_COUNT>
0

> <PUBCHEM_BOND_DEF_STEREO_COUNT>
2

> <PUBCHEM_BOND_UDEF_STEREO_COUNT>
0

> <PUBCHEM_ISOTOPIC_ATOM_COUNT>
0

> <PUBCHEM_COMPONENT_COUNT>
1

> <PUBCHEM_CACTVS_TAUTO_COUNT>
-1

> <PUBCHEM_CONFORMER_ID>
0851E89700000001

> <PUBCHEM_MMFF94_ENERGY>
110.0766

> <PUBCHEM_FEATURE_SELFOVERLAP>
67.107

> <PUBCHEM_SHAPE_FINGERPRINT>
10677351 14 18273210911447360748
11135926 11 18040713632914519939
11315181 36 17275100639984216021
11524674 6 17561365076065158215
12082328 90 14201116795513590649
12166972 35 15864361275875941077
13782708 43 18411697686757835242
14556957 393 15791740671802561895
14856354 85 14045734954590316525
15021287 119 15697995249698483920
15183329 4 15719390650911435346
15348495 7 18060136570063870416
15352257 5 18272090487676632462
15419008 47 18411133624319175008
15716309 27 18341897385406374012
1577012 14 15792011139179128700
15799311 1 16200432498606619020
16114785 44 18125443008791109609
17093844 174 17561081376442729785
17686467 74 17822293531091829564
17780758 139 18202570575234000521
17844677 252 17703794695604173584
17857418 61 16443059496077631008
18608769 82 18411983564176368126
18927931 339 18113618997767163213
20281389 69 12031792444138842898
21623969 137 17704076175160305214
2303208 19 18343024372261748084
23081809 10 15574710271062372620
23559900 14 18339071683615678633
23569914 152 11750813351483216960
249057 3 18040150704779002621
312425 54 18202008706915953595
3178227 256 17846778482790154814
3383291 50 18189057650154090003
397830 11 18272083954978380920
4073 2 18272653458904137738
49967989 163 16878524409248072194
504579 68 15647060348352140086
5364581 5 18200307861423840905
58083652 198 17132105845050120568
58260988 114 17169294679398921241
9953998 17 18342740702250982385

> <PUBCHEM_SHAPE_MULTIPOLES>
570.43
24.01
2.59
1.71
35.89
1.12
-0.37
9.1
-4.14
-2.71
0.35
-0.1
-0.25
3.11

> <PUBCHEM_SHAPE_SELFOVERLAP>
1227.228

> <PUBCHEM_SHAPE_VOLUME>
314.9

> <PUBCHEM_COORDINATE_TYPE>
2
5
10

$$$$
