139584736
  -OEChem-03292013293D

 40 43  0     1  0  0  0  0  0999 V2000
   -0.6016   -2.4354   -1.1054 O   0  0  0  0  0  0  0  0  0  0  0  0
   -2.7855   -1.6636   -1.4269 O   0  0  0  0  0  0  0  0  0  0  0  0
   -1.5764    1.5728    0.3747 O   0  0  0  0  0  0  0  0  0  0  0  0
    0.5048    2.4793   -1.5457 O   0  0  0  0  0  0  0  0  0  0  0  0
    4.6768    0.6065    1.6852 O   0  0  0  0  0  0  0  0  0  0  0  0
   -3.2490    3.1527    0.2938 O   0  0  0  0  0  0  0  0  0  0  0  0
   -2.1310   -2.7116    1.3935 N   0  0  0  0  0  0  0  0  0  0  0  0
    0.5511   -2.2168   -0.3270 N   0  0  2  0  0  0  0  0  0  0  0  0
   -1.8725    2.9773    2.1272 N   0  0  0  0  0  0  0  0  0  0  0  0
   -1.8059   -1.4347    0.7570 C   0  0  1  0  0  0  0  0  0  0  0  0
   -0.8147   -2.1388    1.6578 C   0  0  2  0  0  0  0  0  0  0  0  0
   -1.5528   -1.4072   -0.7425 C   0  0  1  0  0  0  0  0  0  0  0  0
    0.3887   -2.7706    1.0193 C   0  0  0  0  0  0  0  0  0  0  0  0
   -0.9933   -0.0495   -1.2793 C   0  0  2  0  0  0  0  0  0  0  0  0
    0.4681    0.1465   -0.8887 C   0  0  0  0  0  0  0  0  0  0  0  0
    1.1967   -0.9646   -0.4112 C   0  0  0  0  0  0  0  0  0  0  0  0
   -1.9378    1.1082   -0.9083 C   0  0  0  0  0  0  0  0  0  0  0  0
    1.1169    1.3830   -1.0167 C   0  0  0  0  0  0  0  0  0  0  0  0
    2.5354   -0.8050   -0.0257 C   0  0  0  0  0  0  0  0  0  0  0  0
    3.1588    0.4366   -0.1378 C   0  0  0  0  0  0  0  0  0  0  0  0
    2.4524    1.5265   -0.6384 C   0  0  0  0  0  0  0  0  0  0  0  0
    4.5858    0.5938    0.2660 C   0  0  0  0  0  0  0  0  0  0  0  0
   -2.3151    2.6147    0.8791 C   0  0  0  0  0  0  0  0  0  0  0  0
   -2.3958   -0.6174    1.1414 H   0  0  0  0  0  0  0  0  0  0  0  0
   -0.6486   -1.7620    2.6564 H   0  0  0  0  0  0  0  0  0  0  0  0
   -2.0657   -3.4702    0.7157 H   0  0  0  0  0  0  0  0  0  0  0  0
    1.2766   -2.6078    1.6407 H   0  0  0  0  0  0  0  0  0  0  0  0
    0.2573   -3.8573    0.9488 H   0  0  0  0  0  0  0  0  0  0  0  0
   -0.9916   -0.1213   -2.3775 H   0  0  0  0  0  0  0  0  0  0  0  0
   -1.8403    1.9236   -1.6342 H   0  0  0  0  0  0  0  0  0  0  0  0
   -2.9883    0.7952   -0.9211 H   0  0  0  0  0  0  0  0  0  0  0  0
   -2.7165   -1.3266   -2.3353 H   0  0  0  0  0  0  0  0  0  0  0  0
    3.0979   -1.6587    0.3463 H   0  0  0  0  0  0  0  0  0  0  0  0
    2.9475    2.4899   -0.7388 H   0  0  0  0  0  0  0  0  0  0  0  0
    1.1227    3.2300   -1.5516 H   0  0  0  0  0  0  0  0  0  0  0  0
    5.1879   -0.2350   -0.1227 H   0  0  0  0  0  0  0  0  0  0  0  0
    5.0141    1.5257   -0.1185 H   0  0  0  0  0  0  0  0  0  0  0  0
    5.6184    0.6989    1.9095 H   0  0  0  0  0  0  0  0  0  0  0  0
   -2.3095    3.7327    2.6442 H   0  0  0  0  0  0  0  0  0  0  0  0
   -1.0945    2.5005    2.5704 H   0  0  0  0  0  0  0  0  0  0  0  0
  1  8  1  0  0  0  0
  1 12  1  0  0  0  0
  2 12  1  0  0  0  0
  2 32  1  0  0  0  0
  3 17  1  0  0  0  0
  3 23  1  0  0  0  0
  4 18  1  0  0  0  0
  4 35  1  0  0  0  0
  5 22  1  0  0  0  0
  5 38  1  0  0  0  0
  6 23  2  0  0  0  0
  7 10  1  0  0  0  0
  7 11  1  0  0  0  0
  7 26  1  0  0  0  0
  8 13  1  0  0  0  0
  8 16  1  0  0  0  0
  9 23  1  0  0  0  0
  9 39  1  0  0  0  0
  9 40  1  0  0  0  0
 10 11  1  0  0  0  0
 10 12  1  0  0  0  0
 10 24  1  0  0  0  0
 11 13  1  0  0  0  0
 11 25  1  0  0  0  0
 12 14  1  0  0  0  0
 13 27  1  0  0  0  0
 13 28  1  0  0  0  0
 14 15  1  0  0  0  0
 14 17  1  0  0  0  0
 14 29  1  0  0  0  0
 15 16  2  0  0  0  0
 15 18  1  0  0  0  0
 16 19  1  0  0  0  0
 17 30  1  0  0  0  0
 17 31  1  0  0  0  0
 18 21  2  0  0  0  0
 19 20  2  0  0  0  0
 19 33  1  0  0  0  0
 20 21  1  0  0  0  0
 20 22  1  0  0  0  0
 21 34  1  0  0  0  0
 22 36  1  0  0  0  0
 22 37  1  0  0  0  0
M  END
> <PUBCHEM_COMPOUND_CID>
139584736

> <PUBCHEM_CONFORMER_RMSD>
0.8

> <PUBCHEM_CONFORMER_DIVERSEORDER>
1
5
6
2
7
8
4
3

> <PUBCHEM_MMFF94_PARTIAL_CHARGES>
33
1 -0.26
10 -0.04
11 -0.04
12 0.65
13 0.46
14 0.14
15 -0.14
16 0.1
17 0.28
18 0.08
19 -0.15
2 -0.68
20 -0.14
21 -0.15
22 0.42
23 0.78
24 0.1
25 0.1
26 0.36
3 -0.43
32 0.4
33 0.15
34 0.15
35 0.45
38 0.4
39 0.37
4 -0.53
40 0.37
5 -0.68
6 -0.57
7 -0.68
8 -0.49
9 -0.8

> <PUBCHEM_EFFECTIVE_ROTOR_COUNT>
4.8

> <PUBCHEM_PHARMACOPHORE_FEATURES>
12
1 2 acceptor
1 2 donor
1 4 donor
1 5 acceptor
1 5 donor
1 6 acceptor
1 7 cation
1 7 donor
1 9 donor
6 1 8 12 14 15 16 rings
6 15 16 18 19 20 21 rings
7 1 7 8 10 11 12 13 rings

> <PUBCHEM_HEAVY_ATOM_COUNT>
23

> <PUBCHEM_ATOM_DEF_STEREO_COUNT>
4

> <PUBCHEM_ATOM_UDEF_STEREO_COUNT>
0

> <PUBCHEM_BOND_DEF_STEREO_COUNT>
0

> <PUBCHEM_BOND_UDEF_STEREO_COUNT>
0

> <PUBCHEM_ISOTOPIC_ATOM_COUNT>
0

> <PUBCHEM_COMPONENT_COUNT>
1

> <PUBCHEM_CACTVS_TAUTO_COUNT>
-1

> <PUBCHEM_CONFORMER_ID>
0851E4E000000001

> <PUBCHEM_MMFF94_ENERGY>
80.4371

> <PUBCHEM_FEATURE_SELFOVERLAP>
61.498

> <PUBCHEM_SHAPE_FINGERPRINT>
10382601 240 17903365805473222640
104564 63 18194703646276994788
10948715 1 18197781003060506523
12507560 14 17904777921900963443
12716301 132 17973201432524505126
12788726 201 18195541495401479205
13027679 85 17473277938096734989
13140716 1 17831584541278749858
13583140 156 15285360617985515164
14142880 1 18337099112183364340
14178342 30 18408605829573810340
14787075 74 18343863299671093073
14790565 3 17615426770413178716
15420108 30 17621590623534140141
16945 1 18192721257003739846
20510252 161 18265894838063354764
21041028 32 18046920543255911354
21524375 3 18196660583664133765
21731228 192 18266469710667018593
2334 1 18334574638060572094
23419403 2 17477155838193391397
23558518 356 18410297977858220575
23559900 14 17605818426255842996
2748010 2 18409172082526232166
35225 105 17842314503007242153
404807 14 14397048384841676518
427121 178 18055091877303044961
4340502 62 18192724354165991489
568465 68 16022569183631345936
58807428 26 18189326867082088328
5939293 188 16898213037132176273
81228 2 18335417993533141852
9981440 41 17987497287293895066

> <PUBCHEM_SHAPE_MULTIPOLES>
423.17
5.45
3.81
1.64
6.32
0.74
0.44
2.29
1.76
-3.53
1.32
-0.54
0.2
-0.75

> <PUBCHEM_SHAPE_SELFOVERLAP>
925.483

> <PUBCHEM_SHAPE_VOLUME>
226.6

> <PUBCHEM_COORDINATE_TYPE>
2
5
10

$$$$
