139587822
  -OEChem-03292013293D

 70 74  0     1  0  0  0  0  0999 V2000
   -1.5020   -3.0908   -1.1720 O   0  0  0  0  0  0  0  0  0  0  0  0
   -1.9570   -2.8249    1.1638 O   0  0  0  0  0  0  0  0  0  0  0  0
   -3.3174   -1.7275   -1.8160 O   0  0  0  0  0  0  0  0  0  0  0  0
    0.1290   -3.7043    1.8303 O   0  0  0  0  0  0  0  0  0  0  0  0
   -0.9017    1.6502   -1.7866 O   0  0  0  0  0  0  0  0  0  0  0  0
    1.7817    0.0088    1.7216 O   0  0  0  0  0  0  0  0  0  0  0  0
    2.8380   -0.7143   -2.2368 O   0  0  0  0  0  0  0  0  0  0  0  0
   -0.4844    2.7731    0.8921 O   0  0  0  0  0  0  0  0  0  0  0  0
   -2.4357   -1.6197    0.5134 C   0  0  2  0  0  0  0  0  0  0  0  0
   -0.2225   -2.9080   -0.5151 C   0  0  2  0  0  0  0  0  0  0  0  0
   -2.1408   -1.7992   -1.0233 C   0  0  1  0  0  0  0  0  0  0  0  0
   -0.5168   -2.7277    1.0276 C   0  0  1  0  0  0  0  0  0  0  0  0
   -1.0339   -0.8468   -1.5889 C   0  0  2  0  0  0  0  0  0  0  0  0
   -0.2535   -1.3012    1.5924 C   0  0  2  0  0  0  0  0  0  0  0  0
   -1.5604   -0.5327    1.1886 C   0  0  1  0  0  0  0  0  0  0  0  0
    0.2845   -1.6305   -1.2178 C   0  0  1  0  0  0  0  0  0  0  0  0
   -1.3851    0.6860    0.3272 C   0  0  0  0  0  0  0  0  0  0  0  0
   -1.1355    0.5486   -0.9870 C   0  0  0  0  0  0  0  0  0  0  0  0
    1.3307   -0.9260   -0.4099 C   0  0  0  0  0  0  0  0  0  0  0  0
    1.0381   -0.6881    1.0319 C   0  0  0  0  0  0  0  0  0  0  0  0
   -3.9131   -1.4495    0.8648 C   0  0  0  0  0  0  0  0  0  0  0  0
    0.6506   -4.1179   -0.8519 C   0  0  0  0  0  0  0  0  0  0  0  0
   -1.1423   -0.8108   -3.1405 C   0  0  0  0  0  0  0  0  0  0  0  0
   -0.1538   -1.3207    3.1359 C   0  0  0  0  0  0  0  0  0  0  0  0
   -1.4522    2.0109    0.9501 C   0  0  0  0  0  0  0  0  0  0  0  0
    2.5073   -0.5232   -0.9092 C   0  0  0  0  0  0  0  0  0  0  0  0
   -2.7658    2.3915    1.6199 C   0  0  0  0  0  0  0  0  0  0  0  0
    3.5115    0.1384   -0.0971 C   0  0  0  0  0  0  0  0  0  0  0  0
   -3.0911    3.8832    1.5303 C   0  0  0  0  0  0  0  0  0  0  0  0
    4.7077    0.5666   -0.5324 C   0  0  0  0  0  0  0  0  0  0  0  0
   -3.1482    4.3696    0.1094 C   0  0  0  0  0  0  0  0  0  0  0  0
    5.6686    1.2220    0.3282 C   0  0  0  0  0  0  0  0  0  0  0  0
   -2.3056    5.2779   -0.4033 C   0  0  0  0  0  0  0  0  0  0  0  0
    6.8645    1.6517   -0.1006 C   0  0  0  0  0  0  0  0  0  0  0  0
   -2.3581    5.7557   -1.8164 C   0  0  0  0  0  0  0  0  0  0  0  0
    7.8647    2.3295    0.7774 C   0  0  0  0  0  0  0  0  0  0  0  0
   -2.0695   -0.2279    2.1130 H   0  0  0  0  0  0  0  0  0  0  0  0
    0.7174   -1.9836   -2.1606 H   0  0  0  0  0  0  0  0  0  0  0  0
   -4.4982   -2.3007    0.4989 H   0  0  0  0  0  0  0  0  0  0  0  0
   -4.3265   -0.5299    0.4400 H   0  0  0  0  0  0  0  0  0  0  0  0
   -4.0600   -1.4286    1.9506 H   0  0  0  0  0  0  0  0  0  0  0  0
    1.6597   -4.0148   -0.4413 H   0  0  0  0  0  0  0  0  0  0  0  0
    0.7282   -4.2617   -1.9357 H   0  0  0  0  0  0  0  0  0  0  0  0
    0.2029   -5.0381   -0.4600 H   0  0  0  0  0  0  0  0  0  0  0  0
   -1.9980   -0.2152   -3.4783 H   0  0  0  0  0  0  0  0  0  0  0  0
   -1.2538   -1.8183   -3.5588 H   0  0  0  0  0  0  0  0  0  0  0  0
   -0.2421   -0.3818   -3.5960 H   0  0  0  0  0  0  0  0  0  0  0  0
   -1.0021   -1.8462    3.5887 H   0  0  0  0  0  0  0  0  0  0  0  0
   -0.1437   -0.3006    3.5388 H   0  0  0  0  0  0  0  0  0  0  0  0
    0.7671   -1.8052    3.4793 H   0  0  0  0  0  0  0  0  0  0  0  0
   -3.5290   -0.7893   -1.9574 H   0  0  0  0  0  0  0  0  0  0  0  0
    1.0506   -3.4238    1.9612 H   0  0  0  0  0  0  0  0  0  0  0  0
   -0.3901    1.3736   -2.5625 H   0  0  0  0  0  0  0  0  0  0  0  0
   -2.7024    2.0946    2.6728 H   0  0  0  0  0  0  0  0  0  0  0  0
   -3.5805    1.8196    1.1595 H   0  0  0  0  0  0  0  0  0  0  0  0
    3.4755    0.2528    0.9673 H   0  0  0  0  0  0  0  0  0  0  0  0
    2.0371   -0.8255   -2.7704 H   0  0  0  0  0  0  0  0  0  0  0  0
   -4.0606    4.0714    2.0058 H   0  0  0  0  0  0  0  0  0  0  0  0
   -2.3456    4.4519    2.1000 H   0  0  0  0  0  0  0  0  0  0  0  0
    4.9788    0.4719   -1.5810 H   0  0  0  0  0  0  0  0  0  0  0  0
   -3.9266    3.9458   -0.5205 H   0  0  0  0  0  0  0  0  0  0  0  0
    5.3969    1.3665    1.3710 H   0  0  0  0  0  0  0  0  0  0  0  0
   -1.5268    5.7026    0.2245 H   0  0  0  0  0  0  0  0  0  0  0  0
    7.1523    1.5143   -1.1402 H   0  0  0  0  0  0  0  0  0  0  0  0
   -1.4114    5.5353   -2.3190 H   0  0  0  0  0  0  0  0  0  0  0  0
   -3.1643    5.2819   -2.3853 H   0  0  0  0  0  0  0  0  0  0  0  0
   -2.5156    6.8383   -1.8382 H   0  0  0  0  0  0  0  0  0  0  0  0
    8.0844    3.3286    0.3890 H   0  0  0  0  0  0  0  0  0  0  0  0
    8.7956    1.7544    0.7941 H   0  0  0  0  0  0  0  0  0  0  0  0
    7.5101    2.4344    1.8076 H   0  0  0  0  0  0  0  0  0  0  0  0
  1 10  1  0  0  0  0
  1 11  1  0  0  0  0
  2  9  1  0  0  0  0
  2 12  1  0  0  0  0
  3 11  1  0  0  0  0
  3 51  1  0  0  0  0
  4 12  1  0  0  0  0
  4 52  1  0  0  0  0
  5 18  1  0  0  0  0
  5 53  1  0  0  0  0
  6 20  2  0  0  0  0
  7 26  1  0  0  0  0
  7 57  1  0  0  0  0
  8 25  2  0  0  0  0
  9 11  1  0  0  0  0
  9 15  1  0  0  0  0
  9 21  1  0  0  0  0
 10 12  1  0  0  0  0
 10 16  1  0  0  0  0
 10 22  1  0  0  0  0
 11 13  1  0  0  0  0
 12 14  1  0  0  0  0
 13 16  1  0  0  0  0
 13 18  1  0  0  0  0
 13 23  1  0  0  0  0
 14 15  1  0  0  0  0
 14 20  1  0  0  0  0
 14 24  1  0  0  0  0
 15 17  1  0  0  0  0
 15 37  1  0  0  0  0
 16 19  1  0  0  0  0
 16 38  1  0  0  0  0
 17 18  2  0  0  0  0
 17 25  1  0  0  0  0
 19 20  1  0  0  0  0
 19 26  2  3  0  0  0
 21 39  1  0  0  0  0
 21 40  1  0  0  0  0
 21 41  1  0  0  0  0
 22 42  1  0  0  0  0
 22 43  1  0  0  0  0
 22 44  1  0  0  0  0
 23 45  1  0  0  0  0
 23 46  1  0  0  0  0
 23 47  1  0  0  0  0
 24 48  1  0  0  0  0
 24 49  1  0  0  0  0
 24 50  1  0  0  0  0
 25 27  1  0  0  0  0
 26 28  1  0  0  0  0
 27 29  1  0  0  0  0
 27 54  1  0  0  0  0
 27 55  1  0  0  0  0
 28 30  2  0  0  0  0
 28 56  1  0  0  0  0
 29 31  1  0  0  0  0
 29 58  1  0  0  0  0
 29 59  1  0  0  0  0
 30 32  1  0  0  0  0
 30 60  1  0  0  0  0
 31 33  2  0  0  0  0
 31 61  1  0  0  0  0
 32 34  2  0  0  0  0
 32 62  1  0  0  0  0
 33 35  1  0  0  0  0
 33 63  1  0  0  0  0
 34 36  1  0  0  0  0
 34 64  1  0  0  0  0
 35 65  1  0  0  0  0
 35 66  1  0  0  0  0
 35 67  1  0  0  0  0
 36 68  1  0  0  0  0
 36 69  1  0  0  0  0
 36 70  1  0  0  0  0
M  END
> <PUBCHEM_COMPOUND_CID>
139587822

> <PUBCHEM_CONFORMER_RMSD>
1

> <PUBCHEM_CONFORMER_DIVERSEORDER>
2
14
7
11
8
9
12
3
6
13
10
4
5
1

> <PUBCHEM_MMFF94_PARTIAL_CHARGES>
42
1 -0.56
10 0.28
11 0.56
12 0.56
13 0.14
14 0.06
15 0.14
16 0.14
17 -0.12
18 -0.06
19 -0.12
2 -0.56
20 0.49
25 0.49
26 0.08
27 0.06
28 -0.15
29 0.14
3 -0.68
30 -0.15
31 -0.29
32 -0.15
33 -0.29
34 -0.29
35 0.14
36 0.14
4 -0.68
5 -0.53
51 0.4
52 0.4
53 0.45
56 0.15
57 0.45
6 -0.57
60 0.15
61 0.15
62 0.15
63 0.15
64 0.15
7 -0.53
8 -0.57
9 0.28

> <PUBCHEM_EFFECTIVE_ROTOR_COUNT>
6.4

> <PUBCHEM_PHARMACOPHORE_FEATURES>
15
1 1 acceptor
1 2 acceptor
1 3 acceptor
1 3 donor
1 35 hydrophobe
1 36 hydrophobe
1 4 acceptor
1 4 donor
1 5 donor
1 6 acceptor
1 7 donor
1 8 acceptor
10 1 2 9 10 11 12 13 14 15 16 rings
6 10 12 14 16 19 20 rings
6 9 11 13 15 17 18 rings

> <PUBCHEM_HEAVY_ATOM_COUNT>
36

> <PUBCHEM_ATOM_DEF_STEREO_COUNT>
6

> <PUBCHEM_ATOM_UDEF_STEREO_COUNT>
2

> <PUBCHEM_BOND_DEF_STEREO_COUNT>
3

> <PUBCHEM_BOND_UDEF_STEREO_COUNT>
1

> <PUBCHEM_ISOTOPIC_ATOM_COUNT>
0

> <PUBCHEM_COMPONENT_COUNT>
1

> <PUBCHEM_CACTVS_TAUTO_COUNT>
-1

> <PUBCHEM_CONFORMER_ID>
0851F0EE00000002

> <PUBCHEM_MMFF94_ENERGY>
167.216

> <PUBCHEM_FEATURE_SELFOVERLAP>
78.8

> <PUBCHEM_SHAPE_FINGERPRINT>
10863032 1 18124896559484341311
10930396 42 18126266778821562848
10948715 1 18125173640535175131
11578080 2 17845110510111671976
12058002 1 17534098300103593243
12156800 1 17556821833641172899
12788726 201 18340195379813395306
14142880 1 18334016085773814548
14955137 171 17977672236061490339
16114785 44 18343026600769487072
16945 1 17823412884919970879
17909252 39 10588893452199362473
19315092 285 13990076606677834145
21304303 282 18336530643481875628
21927370 108 18123480641668223954
23419403 2 17398665087716240575
238 59 17407686112512450657
376196 1 18050295760459358264
57527306 92 18339920528261778399
6086070 43 16819401147919041929

> <PUBCHEM_SHAPE_MULTIPOLES>
693.91
8.92
6.46
2.39
25.95
7.69
-0.23
11.68
1.11
-6.94
-0.85
-1.14
-0.64
0.54

> <PUBCHEM_SHAPE_SELFOVERLAP>
1524.428

> <PUBCHEM_SHAPE_VOLUME>
369.1

> <PUBCHEM_COORDINATE_TYPE>
2
5
10

$$$$
