139585084
  -OEChem-03292013293D

 42 43  0     0  0  0  0  0  0999 V2000
   -4.6662   -1.8369    1.3730 Cl  0  0  0  0  0  0  0  0  0  0  0  0
   -5.0403    0.5700   -0.3544 O   0  0  0  0  0  0  0  0  0  0  0  0
   -1.7724   -2.5085    1.3440 O   0  0  0  0  0  0  0  0  0  0  0  0
    0.5614   -2.3460   -0.4037 O   0  0  0  0  0  0  0  0  0  0  0  0
    4.9809    0.2357    0.1417 O   0  0  0  0  0  0  0  0  0  0  0  0
   -0.3541    2.4262   -1.2064 O   0  0  0  0  0  0  0  0  0  0  0  0
    3.9498   -2.3723   -0.5128 O   0  0  0  0  0  0  0  0  0  0  0  0
    0.3003    0.6327   -2.4926 O   0  0  0  0  0  0  0  0  0  0  0  0
    2.5585   -1.5235   -2.0972 O   0  0  0  0  0  0  0  0  0  0  0  0
    1.3780   -0.3503    0.5025 C   0  0  0  0  0  0  0  0  0  0  0  0
   -1.1048   -0.7325   -0.1028 C   0  0  0  0  0  0  0  0  0  0  0  0
    0.3108   -1.1969   -0.0156 C   0  0  0  0  0  0  0  0  0  0  0  0
    2.6917   -0.4800    0.0518 C   0  0  0  0  0  0  0  0  0  0  0  0
   -1.4326    0.3824   -0.8744 C   0  0  0  0  0  0  0  0  0  0  0  0
    1.0635    0.6047    1.4695 C   0  0  0  0  0  0  0  0  0  0  0  0
    2.0625    1.4300    1.9854 C   0  0  0  0  0  0  0  0  0  0  0  0
   -2.1020   -1.4181    0.5910 C   0  0  0  0  0  0  0  0  0  0  0  0
    3.6907    0.3454    0.5678 C   0  0  0  0  0  0  0  0  0  0  0  0
   -2.7576    0.8117   -0.9522 C   0  0  0  0  0  0  0  0  0  0  0  0
    3.3762    1.3004    1.5345 C   0  0  0  0  0  0  0  0  0  0  0  0
   -3.7547    0.1262   -0.2582 C   0  0  0  0  0  0  0  0  0  0  0  0
   -3.4268   -0.9887    0.5134 C   0  0  0  0  0  0  0  0  0  0  0  0
    1.7268    2.4508    3.0193 C   0  0  0  0  0  0  0  0  0  0  0  0
   -0.4160    1.1220   -1.6116 C   0  0  0  0  0  0  0  0  0  0  0  0
    3.0316   -1.4753   -0.9602 C   0  0  0  0  0  0  0  0  0  0  0  0
   -5.4657    1.5324    0.6079 C   0  0  0  0  0  0  0  0  0  0  0  0
    0.6105    3.2584   -1.8596 C   0  0  0  0  0  0  0  0  0  0  0  0
    0.0499    0.7109    1.8481 H   0  0  0  0  0  0  0  0  0  0  0  0
   -3.0219    1.6773   -1.5555 H   0  0  0  0  0  0  0  0  0  0  0  0
    4.1542    1.9434    1.9391 H   0  0  0  0  0  0  0  0  0  0  0  0
    1.7616    2.0011    4.0165 H   0  0  0  0  0  0  0  0  0  0  0  0
    2.4277    3.2920    2.9907 H   0  0  0  0  0  0  0  0  0  0  0  0
    0.7257    2.8632    2.8529 H   0  0  0  0  0  0  0  0  0  0  0  0
   -2.5840   -2.8559    1.7527 H   0  0  0  0  0  0  0  0  0  0  0  0
    5.5280    0.8888    0.6108 H   0  0  0  0  0  0  0  0  0  0  0  0
   -6.5316    1.7218    0.4541 H   0  0  0  0  0  0  0  0  0  0  0  0
   -4.9209    2.4717    0.4700 H   0  0  0  0  0  0  0  0  0  0  0  0
   -5.3201    1.1636    1.6279 H   0  0  0  0  0  0  0  0  0  0  0  0
    4.1737   -3.0383   -1.1975 H   0  0  0  0  0  0  0  0  0  0  0  0
    1.6192    2.8704   -1.6888 H   0  0  0  0  0  0  0  0  0  0  0  0
    0.3946    3.3170   -2.9304 H   0  0  0  0  0  0  0  0  0  0  0  0
    0.5415    4.2611   -1.4300 H   0  0  0  0  0  0  0  0  0  0  0  0
  1 22  1  0  0  0  0
  2 21  1  0  0  0  0
  2 26  1  0  0  0  0
  3 17  1  0  0  0  0
  3 34  1  0  0  0  0
  4 12  2  0  0  0  0
  5 18  1  0  0  0  0
  5 35  1  0  0  0  0
  6 24  1  0  0  0  0
  6 27  1  0  0  0  0
  7 25  1  0  0  0  0
  7 39  1  0  0  0  0
  8 24  2  0  0  0  0
  9 25  2  0  0  0  0
 10 12  1  0  0  0  0
 10 13  2  0  0  0  0
 10 15  1  0  0  0  0
 11 12  1  0  0  0  0
 11 14  1  0  0  0  0
 11 17  2  0  0  0  0
 13 18  1  0  0  0  0
 13 25  1  0  0  0  0
 14 19  2  0  0  0  0
 14 24  1  0  0  0  0
 15 16  2  0  0  0  0
 15 28  1  0  0  0  0
 16 20  1  0  0  0  0
 16 23  1  0  0  0  0
 17 22  1  0  0  0  0
 18 20  2  0  0  0  0
 19 21  1  0  0  0  0
 19 29  1  0  0  0  0
 20 30  1  0  0  0  0
 21 22  2  0  0  0  0
 23 31  1  0  0  0  0
 23 32  1  0  0  0  0
 23 33  1  0  0  0  0
 26 36  1  0  0  0  0
 26 37  1  0  0  0  0
 26 38  1  0  0  0  0
 27 40  1  0  0  0  0
 27 41  1  0  0  0  0
 27 42  1  0  0  0  0
M  END
> <PUBCHEM_COMPOUND_CID>
139585084

> <PUBCHEM_CONFORMER_RMSD>
0.8

> <PUBCHEM_CONFORMER_DIVERSEORDER>
2
40
16
26
51
46
17
32
45
28
37
47
25
30
38
44
53
6
23
33
9
42
41
18
19
7
48
14
36
3
21
52
49
50
5
24
29
39
15
43
11
8
35
34
12
27
10
31
22
20
4
13
1

> <PUBCHEM_MMFF94_PARTIAL_CHARGES>
33
1 -0.18
10 0.09
11 0.09
12 0.4
13 0.09
14 0.09
15 -0.15
16 -0.14
17 0.08
18 0.08
19 -0.15
2 -0.36
20 -0.15
21 0.08
22 0.18
23 0.14
24 0.63
25 0.63
26 0.28
27 0.28
28 0.15
29 0.15
3 -0.53
30 0.15
34 0.45
35 0.45
39 0.5
4 -0.57
5 -0.53
6 -0.43
7 -0.65
8 -0.57
9 -0.57

> <PUBCHEM_EFFECTIVE_ROTOR_COUNT>
6

> <PUBCHEM_PHARMACOPHORE_FEATURES>
10
1 2 acceptor
1 3 donor
1 4 acceptor
1 5 donor
1 7 acceptor
1 8 acceptor
1 9 acceptor
3 7 9 25 anion
6 10 13 15 16 18 20 rings
6 11 14 17 19 21 22 rings

> <PUBCHEM_HEAVY_ATOM_COUNT>
27

> <PUBCHEM_ATOM_DEF_STEREO_COUNT>
0

> <PUBCHEM_ATOM_UDEF_STEREO_COUNT>
0

> <PUBCHEM_BOND_DEF_STEREO_COUNT>
0

> <PUBCHEM_BOND_UDEF_STEREO_COUNT>
0

> <PUBCHEM_ISOTOPIC_ATOM_COUNT>
0

> <PUBCHEM_COMPONENT_COUNT>
1

> <PUBCHEM_CACTVS_TAUTO_COUNT>
-1

> <PUBCHEM_CONFORMER_ID>
0851E63C00000002

> <PUBCHEM_MMFF94_ENERGY>
105.0656

> <PUBCHEM_FEATURE_SELFOVERLAP>
50.81

> <PUBCHEM_SHAPE_FINGERPRINT>
10165383 225 18413103983414868456
10366900 7 18342727533559395313
10863032 1 17202465857690685207
11421498 54 15647331901142357993
11640471 11 15481814848296847072
12236239 1 15864067663384928642
12422481 6 17901079109510005744
12553582 1 17385441008228866183
12633257 1 18268689710637387586
12788726 201 16588585284647377917
13134695 92 17703786990284768240
13140716 1 17822582711202295873
133893 2 14547925869537513749
13583140 156 17632012065572579751
13782708 43 18411417323672051090
14022347 108 17821731589584641169
14955137 171 17823156565761242169
1601671 61 18259706700543790997
16945 1 18116722819965391750
17349148 13 18042395993501017511
19078846 21 17313097579563920209
20600515 1 17749386005020244716
20645476 183 15984524719842535109
21033648 29 18343012329030921907
22892500 29 17988917877264108745
23175994 123 17916308247027693398
23352939 185 18266480753729401180
23557571 272 18113900468354006510
23559900 14 18334017159716339030
23598288 3 15721049710704506445
238 59 17554279801739917844
350125 39 17608643916807936866
3524813 1 18341322327966512528
392239 28 16227432179137607480
474 4 17202185512316793144
6287921 2 18267865179864174077
8272917 22 17346882230047564263

> <PUBCHEM_SHAPE_MULTIPOLES>
510.56
8.71
2.81
2.21
6.23
0.56
-0.2
-0.66
-2.37
-0.58
0.13
-1.15
1.43
2.26

> <PUBCHEM_SHAPE_SELFOVERLAP>
1103.119

> <PUBCHEM_SHAPE_VOLUME>
280

> <PUBCHEM_COORDINATE_TYPE>
2
5
10

$$$$
