139584805
  -OEChem-03292013293D

 34 36  0     1  0  0  0  0  0999 V2000
   -4.0823   -0.6095   -0.6073 O   0  0  0  0  0  0  0  0  0  0  0  0
   -0.2566    0.9618   -0.1091 O   0  0  0  0  0  0  0  0  0  0  0  0
   -4.0644    0.4443    1.5273 O   0  0  0  0  0  0  0  0  0  0  0  0
   -0.6588   -3.0967   -0.0475 O   0  0  0  0  0  0  0  0  0  0  0  0
    4.4812    0.6456    0.1451 O   0  0  0  0  0  0  0  0  0  0  0  0
    4.3232   -2.1094    0.1867 O   0  0  0  0  0  0  0  0  0  0  0  0
    2.8948    2.7117   -1.0668 O   0  0  0  0  0  0  0  0  0  0  0  0
    1.6743    3.0078    0.8278 O   0  0  0  0  0  0  0  0  0  0  0  0
   -3.9871    0.6265    0.1113 C   0  0  1  0  0  0  0  0  0  0  0  0
   -2.6529    1.3120   -0.2330 C   0  0  0  0  0  0  0  0  0  0  0  0
   -1.4964    0.3537   -0.1674 C   0  0  0  0  0  0  0  0  0  0  0  0
   -1.7079   -0.9720   -0.1577 C   0  0  0  0  0  0  0  0  0  0  0  0
   -3.0820   -1.5659   -0.2368 C   0  0  0  0  0  0  0  0  0  0  0  0
   -0.5392   -1.8792   -0.0718 C   0  0  0  0  0  0  0  0  0  0  0  0
   -5.1561    1.5086   -0.3276 C   0  0  0  0  0  0  0  0  0  0  0  0
    0.7821   -1.2314   -0.0147 C   0  0  0  0  0  0  0  0  0  0  0  0
    0.8540    0.1607   -0.0366 C   0  0  0  0  0  0  0  0  0  0  0  0
    2.0949    0.7965    0.0170 C   0  0  0  0  0  0  0  0  0  0  0  0
    1.9489   -1.9963    0.0605 C   0  0  0  0  0  0  0  0  0  0  0  0
    3.2617    0.0356    0.0921 C   0  0  0  0  0  0  0  0  0  0  0  0
    3.1887   -1.3578    0.1136 C   0  0  0  0  0  0  0  0  0  0  0  0
    2.1802    2.2534   -0.0051 C   0  0  0  0  0  0  0  0  0  0  0  0
   -2.4756    2.1460    0.4572 H   0  0  0  0  0  0  0  0  0  0  0  0
   -2.6820    1.7145   -1.2535 H   0  0  0  0  0  0  0  0  0  0  0  0
   -3.1109   -2.3568   -0.9936 H   0  0  0  0  0  0  0  0  0  0  0  0
   -3.3608   -2.0145    0.7234 H   0  0  0  0  0  0  0  0  0  0  0  0
   -6.1112    1.0213   -0.0990 H   0  0  0  0  0  0  0  0  0  0  0  0
   -5.1396    1.6856   -1.4083 H   0  0  0  0  0  0  0  0  0  0  0  0
   -5.1478    2.4703    0.1960 H   0  0  0  0  0  0  0  0  0  0  0  0
    1.8981   -3.0819    0.0777 H   0  0  0  0  0  0  0  0  0  0  0  0
   -5.0016    0.3803    1.7761 H   0  0  0  0  0  0  0  0  0  0  0  0
    4.3855    1.6113    0.1404 H   0  0  0  0  0  0  0  0  0  0  0  0
    4.0806   -3.0513    0.1912 H   0  0  0  0  0  0  0  0  0  0  0  0
    2.9492    3.6911   -1.0753 H   0  0  0  0  0  0  0  0  0  0  0  0
  1  9  1  0  0  0  0
  1 13  1  0  0  0  0
  2 11  1  0  0  0  0
  2 17  1  0  0  0  0
  3  9  1  0  0  0  0
  3 31  1  0  0  0  0
  4 14  2  0  0  0  0
  5 20  1  0  0  0  0
  5 32  1  0  0  0  0
  6 21  1  0  0  0  0
  6 33  1  0  0  0  0
  7 22  1  0  0  0  0
  7 34  1  0  0  0  0
  8 22  2  0  0  0  0
  9 10  1  0  0  0  0
  9 15  1  0  0  0  0
 10 11  1  0  0  0  0
 10 23  1  0  0  0  0
 10 24  1  0  0  0  0
 11 12  2  0  0  0  0
 12 13  1  0  0  0  0
 12 14  1  0  0  0  0
 13 25  1  0  0  0  0
 13 26  1  0  0  0  0
 14 16  1  0  0  0  0
 15 27  1  0  0  0  0
 15 28  1  0  0  0  0
 15 29  1  0  0  0  0
 16 17  1  0  0  0  0
 16 19  2  0  0  0  0
 17 18  2  0  0  0  0
 18 20  1  0  0  0  0
 18 22  1  0  0  0  0
 19 21  1  0  0  0  0
 19 30  1  0  0  0  0
 20 21  2  0  0  0  0
M  END
> <PUBCHEM_COMPOUND_CID>
139584805

> <PUBCHEM_CONFORMER_RMSD>
0.6

> <PUBCHEM_CONFORMER_DIVERSEORDER>
1
2

> <PUBCHEM_MMFF94_PARTIAL_CHARGES>
26
1 -0.56
10 0.14
11 -0.06
12 -0.12
13 0.42
14 0.47
16 0.09
17 0.08
18 0.09
19 -0.15
2 -0.16
20 0.08
21 0.08
22 0.63
3 -0.68
30 0.15
31 0.4
32 0.45
33 0.45
34 0.5
4 -0.57
5 -0.53
6 -0.53
7 -0.65
8 -0.57
9 0.56

> <PUBCHEM_EFFECTIVE_ROTOR_COUNT>
1.8

> <PUBCHEM_PHARMACOPHORE_FEATURES>
13
1 1 acceptor
1 2 acceptor
1 3 acceptor
1 3 donor
1 4 acceptor
1 5 donor
1 6 donor
1 7 acceptor
1 8 acceptor
3 7 8 22 anion
6 1 9 10 11 12 13 rings
6 16 17 18 19 20 21 rings
6 2 11 12 14 16 17 rings

> <PUBCHEM_HEAVY_ATOM_COUNT>
22

> <PUBCHEM_ATOM_DEF_STEREO_COUNT>
1

> <PUBCHEM_ATOM_UDEF_STEREO_COUNT>
0

> <PUBCHEM_BOND_DEF_STEREO_COUNT>
0

> <PUBCHEM_BOND_UDEF_STEREO_COUNT>
0

> <PUBCHEM_ISOTOPIC_ATOM_COUNT>
0

> <PUBCHEM_COMPONENT_COUNT>
1

> <PUBCHEM_CACTVS_TAUTO_COUNT>
-1

> <PUBCHEM_CONFORMER_ID>
0851E52500000001

> <PUBCHEM_MMFF94_ENERGY>
59.8519

> <PUBCHEM_FEATURE_SELFOVERLAP>
66.124

> <PUBCHEM_SHAPE_FINGERPRINT>
10411042 1 17473823923178250727
10608611 8 18338231682158339975
10616163 171 18267305528561960134
10967382 1 18339078190269124678
1100329 8 18410290294309674362
11471102 20 18410852131560259966
12236239 1 17846211125688376941
12403259 226 18336257977293074781
12403260 363 18411410705390380055
12507560 14 18270114609172286654
12633257 1 18408315584025857618
13140716 1 18410578396573637219
13583140 156 17313097532472280747
14022347 108 18263651654445338466
14178342 30 17905876329874612160
14790565 3 18338245868699790380
14866123 147 17117484264614612946
15196674 1 18410853256931609087
15442244 35 18411697673398244546
15475509 8 17699315186474155726
15536298 74 18342454837738515278
1601671 61 18410011044484400684
16945 1 18338514256937056086
17492 89 18339640152243788503
18186145 218 18343589529400968015
19591789 44 18410012177992049207
200 152 18131340904808923845
20671657 1 18341048618106193096
20739085 24 18121801447025933456
21033648 29 17822276964975480181
21033650 10 15769235872263473273
21267235 1 18339648823671423998
21478907 32 17761772867376511434
21501502 16 18339922739500146239
21524375 3 18340768229861807423
22094290 62 18411416228465102058
221490 88 18335989752185139594
23184049 59 18408888403893259271
2334 1 18266457809270060007
23366157 5 18041275569328979710
23402539 116 18200581493642166310
23558518 356 17900534881017580442
23559900 14 18343015584611051610
238 59 17830693691893778309
2748010 2 17833271200652776390
335352 9 18338795606969396966
345986 75 17245523613798634778
34934 24 18412256260187132618
350125 39 18338801216692433843
474 4 18410575072263480339
5104073 3 18410853265532107043
543358 83 18411141333562911724
5939293 188 18412820279260239532
633830 44 17675922110204668617
7364860 26 18340766035412821052
7832392 63 18341045307034632478
84936 182 18128816541527664848
9709674 26 18339363066612481782
9971528 1 18272645706588343258
9981440 41 17762606696368805608
9999458 23 18114183012271210839

> <PUBCHEM_SHAPE_MULTIPOLES>
405.8
8.66
2.99
0.76
4.55
0.34
-0.1
1.77
-0.22
-1.87
0.09
0.29
0.21
-0.31

> <PUBCHEM_SHAPE_SELFOVERLAP>
901.695

> <PUBCHEM_SHAPE_VOLUME>
216.3

> <PUBCHEM_COORDINATE_TYPE>
2
5
10

$$$$
