139585293
  -OEChem-03292013293D

 54 60  0     1  0  0  0  0  0999 V2000
   -2.5782   -1.4991   -2.6685 O   0  0  0  0  0  0  0  0  0  0  0  0
   -2.7905    2.5306   -1.1105 O   0  0  0  0  0  0  0  0  0  0  0  0
    2.5122    2.2388   -1.4358 O   0  0  0  0  0  0  0  0  0  0  0  0
   -1.0033   -3.3859    0.2028 O   0  0  0  0  0  0  0  0  0  0  0  0
   -0.1391    2.7649   -0.1109 O   0  0  0  0  0  0  0  0  0  0  0  0
    3.9540    2.4730    1.0483 O   0  0  0  0  0  0  0  0  0  0  0  0
   -5.0828    1.1222    2.1365 O   0  0  0  0  0  0  0  0  0  0  0  0
   -4.1272    3.0241    0.6283 O   0  0  0  0  0  0  0  0  0  0  0  0
    5.6943   -1.3400    1.0319 O   0  0  0  0  0  0  0  0  0  0  0  0
    5.8624    1.2786    1.0422 O   0  0  0  0  0  0  0  0  0  0  0  0
   -1.6173    0.3786   -1.3169 C   0  0  2  0  0  0  0  0  0  0  0  0
   -1.3984   -0.8170   -2.2788 C   0  0  1  0  0  0  0  0  0  0  0  0
   -0.4723   -1.7028   -1.4365 C   0  0  1  0  0  0  0  0  0  0  0  0
   -0.1780    0.5391   -0.8704 C   0  0  0  0  0  0  0  0  0  0  0  0
    0.4639   -0.6431   -0.9198 C   0  0  0  0  0  0  0  0  0  0  0  0
   -2.4628   -0.0856   -0.1493 C   0  0  0  0  0  0  0  0  0  0  0  0
   -2.3041    1.5316   -2.0294 C   0  0  0  0  0  0  0  0  0  0  0  0
   -1.2541   -2.2738   -0.2479 C   0  0  0  0  0  0  0  0  0  0  0  0
   -2.3001   -1.3925    0.3621 C   0  0  0  0  0  0  0  0  0  0  0  0
    1.8351   -0.8362   -0.4639 C   0  0  0  0  0  0  0  0  0  0  0  0
    2.0162    1.6873   -0.2170 C   0  0  1  0  0  0  0  0  0  0  0  0
    0.4989    1.7441   -0.3562 C   0  0  0  0  0  0  0  0  0  0  0  0
    2.5752    0.2956   -0.0737 C   0  0  0  0  0  0  0  0  0  0  0  0
   -3.3802    0.7793    0.4465 C   0  0  0  0  0  0  0  0  0  0  0  0
   -3.0748   -1.8379    1.4314 C   0  0  0  0  0  0  0  0  0  0  0  0
    2.5106    2.5062    0.9659 C   0  0  0  0  0  0  0  0  0  0  0  0
    2.4186   -2.1047   -0.3656 C   0  0  0  0  0  0  0  0  0  0  0  0
    3.8692    0.1388    0.4412 C   0  0  0  0  0  0  0  0  0  0  0  0
   -3.4898    2.1872    0.0023 C   0  0  0  0  0  0  0  0  0  0  0  0
   -4.1578    0.3313    1.5206 C   0  0  0  0  0  0  0  0  0  0  0  0
   -4.0089   -0.9734    2.0019 C   0  0  0  0  0  0  0  0  0  0  0  0
    3.7161   -2.2492    0.1279 C   0  0  0  0  0  0  0  0  0  0  0  0
    4.4419   -1.1321    0.5359 C   0  0  0  0  0  0  0  0  0  0  0  0
    4.6511    1.3199    0.8720 C   0  0  0  0  0  0  0  0  0  0  0  0
   -2.9715   -3.2080    2.0168 C   0  0  0  0  0  0  0  0  0  0  0  0
    1.7716   -3.3900   -0.7634 C   0  0  0  0  0  0  0  0  0  0  0  0
   -0.8927   -0.4873   -3.1991 H   0  0  0  0  0  0  0  0  0  0  0  0
   -0.1202   -2.4748   -2.1096 H   0  0  0  0  0  0  0  0  0  0  0  0
   -1.6187    2.0320   -2.7226 H   0  0  0  0  0  0  0  0  0  0  0  0
   -3.1665    1.1936   -2.6172 H   0  0  0  0  0  0  0  0  0  0  0  0
   -2.3082   -2.2797   -3.1815 H   0  0  0  0  0  0  0  0  0  0  0  0
    2.2365    3.5613    0.8561 H   0  0  0  0  0  0  0  0  0  0  0  0
    2.1034    2.1554    1.9221 H   0  0  0  0  0  0  0  0  0  0  0  0
   -4.6265   -1.2997    2.8363 H   0  0  0  0  0  0  0  0  0  0  0  0
    2.2966    3.1871   -1.4485 H   0  0  0  0  0  0  0  0  0  0  0  0
    4.1798   -3.2298    0.2136 H   0  0  0  0  0  0  0  0  0  0  0  0
   -1.9891   -3.3626    2.4744 H   0  0  0  0  0  0  0  0  0  0  0  0
   -3.7124   -3.3694    2.8086 H   0  0  0  0  0  0  0  0  0  0  0  0
   -3.1648   -3.9729    1.2577 H   0  0  0  0  0  0  0  0  0  0  0  0
    1.0575   -3.7247   -0.0248 H   0  0  0  0  0  0  0  0  0  0  0  0
    1.4401   -3.4081   -1.7981 H   0  0  0  0  0  0  0  0  0  0  0  0
    2.5173   -4.1995   -0.7621 H   0  0  0  0  0  0  0  0  0  0  0  0
   -5.2018    1.9486    1.6431 H   0  0  0  0  0  0  0  0  0  0  0  0
    6.0638   -0.5134    1.3789 H   0  0  0  0  0  0  0  0  0  0  0  0
  1 12  1  0  0  0  0
  1 41  1  0  0  0  0
  2 17  1  0  0  0  0
  2 29  1  0  0  0  0
  3 21  1  0  0  0  0
  3 45  1  0  0  0  0
  4 18  2  0  0  0  0
  5 22  2  0  0  0  0
  6 26  1  0  0  0  0
  6 34  1  0  0  0  0
  7 30  1  0  0  0  0
  7 53  1  0  0  0  0
  8 29  2  0  0  0  0
  9 33  1  0  0  0  0
  9 54  1  0  0  0  0
 10 34  2  0  0  0  0
 11 12  1  0  0  0  0
 11 14  1  0  0  0  0
 11 16  1  0  0  0  0
 11 17  1  0  0  0  0
 12 13  1  0  0  0  0
 12 37  1  0  0  0  0
 13 15  1  0  0  0  0
 13 18  1  0  0  0  0
 13 38  1  0  0  0  0
 14 15  2  0  0  0  0
 14 22  1  0  0  0  0
 15 20  1  0  0  0  0
 16 19  2  0  0  0  0
 16 24  1  0  0  0  0
 17 39  1  0  0  0  0
 17 40  1  0  0  0  0
 18 19  1  0  0  0  0
 19 25  1  0  0  0  0
 20 23  2  0  0  0  0
 20 27  1  0  0  0  0
 21 22  1  0  0  0  0
 21 23  1  0  0  0  0
 21 26  1  0  0  0  0
 23 28  1  0  0  0  0
 24 29  1  0  0  0  0
 24 30  2  0  0  0  0
 25 31  2  0  0  0  0
 25 35  1  0  0  0  0
 26 42  1  0  0  0  0
 26 43  1  0  0  0  0
 27 32  2  0  0  0  0
 27 36  1  0  0  0  0
 28 33  2  0  0  0  0
 28 34  1  0  0  0  0
 30 31  1  0  0  0  0
 31 44  1  0  0  0  0
 32 33  1  0  0  0  0
 32 46  1  0  0  0  0
 35 47  1  0  0  0  0
 35 48  1  0  0  0  0
 35 49  1  0  0  0  0
 36 50  1  0  0  0  0
 36 51  1  0  0  0  0
 36 52  1  0  0  0  0
M  END
> <PUBCHEM_COMPOUND_CID>
139585293

> <PUBCHEM_CONFORMER_RMSD>
0.8

> <PUBCHEM_CONFORMER_DIVERSEORDER>
1

> <PUBCHEM_MMFF94_PARTIAL_CHARGES>
42
1 -0.68
10 -0.57
11 0.28
12 0.28
13 0.2
14 -0.12
15 -0.17
16 -0.14
17 0.28
18 0.42
19 0.09
2 -0.43
20 0.03
21 0.48
22 0.49
23 -0.14
24 0.09
25 -0.14
26 0.28
27 -0.14
28 0.09
29 0.63
3 -0.68
30 0.08
31 -0.15
32 -0.15
33 0.08
34 0.63
35 0.14
36 0.14
4 -0.57
41 0.4
44 0.15
45 0.4
46 0.15
5 -0.57
53 0.45
54 0.45
6 -0.43
7 -0.53
8 -0.57
9 -0.53

> <PUBCHEM_EFFECTIVE_ROTOR_COUNT>
1

> <PUBCHEM_PHARMACOPHORE_FEATURES>
16
1 1 acceptor
1 1 donor
1 10 acceptor
1 3 acceptor
1 3 donor
1 4 acceptor
1 5 acceptor
1 7 donor
1 8 acceptor
1 9 donor
6 14 15 20 21 22 23 rings
6 16 19 24 25 30 31 rings
6 2 11 16 17 24 29 rings
6 20 23 27 28 32 33 rings
6 6 21 23 26 28 34 rings
8 11 12 13 14 15 16 18 19 rings

> <PUBCHEM_HEAVY_ATOM_COUNT>
36

> <PUBCHEM_ATOM_DEF_STEREO_COUNT>
2

> <PUBCHEM_ATOM_UDEF_STEREO_COUNT>
2

> <PUBCHEM_BOND_DEF_STEREO_COUNT>
0

> <PUBCHEM_BOND_UDEF_STEREO_COUNT>
0

> <PUBCHEM_ISOTOPIC_ATOM_COUNT>
0

> <PUBCHEM_COMPONENT_COUNT>
1

> <PUBCHEM_CACTVS_TAUTO_COUNT>
-1

> <PUBCHEM_CONFORMER_ID>
0851E70D00000001

> <PUBCHEM_MMFF94_ENERGY>
151.8002

> <PUBCHEM_FEATURE_SELFOVERLAP>
81.332

> <PUBCHEM_SHAPE_FINGERPRINT>
10675989 125 16676941824470876276
11370993 144 18409731724985056960
11640471 11 16128096637784908695
12156800 1 13701827689372863878
12422481 6 18339908352298552634
12633257 1 18335999600856119635
12788726 201 16843864555713440639
131258 38 14569907478262993025
13140716 1 18411975880194792006
13224815 77 18342449387667454070
13383661 66 10211043902045060858
13583140 156 18342739666989745457
14020679 6 18189906305087885641
14068700 675 16985434408255986087
14223421 5 18335427906059347343
14790565 3 18194686097758723412
14856354 85 18117568538097398326
14955137 171 18270695186104124478
15064986 96 17845674576424872286
17974551 9 18336842977640093467
1813 80 16154000152477408767
20739085 24 18408891728852314468
21033648 29 18267847437507827112
21033650 10 13901908899285666315
23559900 14 18117860809915191631
3380486 145 17901661897732445287
3459 110 18409168852299206315
3493558 16 15833687899675139563
392239 28 18337114471012828035
4280585 95 8283439687820399952
469060 322 17765701808662935851
484985 159 17604972862473796699
5081480 168 17058395608195349182
5104073 3 18335689547573080224
56638632 10 17988075707218707729
6086070 43 17131252654608662768

> <PUBCHEM_SHAPE_MULTIPOLES>
682.17
9.74
3.86
1.92
6.48
0.62
0.36
-2.12
-6.11
-0.35
-0.37
-2.03
0.35
1.13

> <PUBCHEM_SHAPE_SELFOVERLAP>
1602.178

> <PUBCHEM_SHAPE_VOLUME>
337.4

> <PUBCHEM_COORDINATE_TYPE>
2
5
10

$$$$
