139583429
  -OEChem-03292013293D

 55 57  0     1  0  0  0  0  0999 V2000
    5.6570    2.1415    0.9298 O   0  0  0  0  0  0  0  0  0  0  0  0
    1.8738    0.4293   -0.3192 O   0  0  0  0  0  0  0  0  0  0  0  0
    0.2316    0.2323   -1.9386 O   0  0  0  0  0  0  0  0  0  0  0  0
   -1.6667   -0.8157   -0.1145 O   0  0  0  0  0  0  0  0  0  0  0  0
   -3.5332    1.9620    1.6761 O   0  0  0  0  0  0  0  0  0  0  0  0
   -5.3929   -1.8731    0.4246 O   0  0  0  0  0  0  0  0  0  0  0  0
   -2.3575    2.6970   -0.1968 N   0  0  0  0  0  0  0  0  0  0  0  0
   -5.9822   -0.7617   -0.1941 N   0  0  0  0  0  0  0  0  0  0  0  0
    4.2903    1.7145    0.7998 C   0  0  2  0  0  0  0  0  0  0  0  0
    5.4218    0.7397    1.1111 C   0  0  1  0  0  0  0  0  0  0  0  0
    3.7339    1.9875   -0.5719 C   0  0  0  0  0  0  0  0  0  0  0  0
    2.2157    1.7768   -0.7084 C   0  0  2  0  0  0  0  0  0  0  0  0
    5.8771   -0.2581    0.1323 C   0  0  0  0  0  0  0  0  0  0  0  0
    1.3905    2.7537    0.1228 C   0  0  0  0  0  0  0  0  0  0  0  0
    5.1973   -1.3160   -0.3386 C   0  0  0  0  0  0  0  0  0  0  0  0
   -0.0045    2.8777   -0.4106 C   0  0  0  0  0  0  0  0  0  0  0  0
    0.8872   -0.2001   -1.0049 C   0  0  0  0  0  0  0  0  0  0  0  0
    3.8573   -1.6460    0.0790 C   0  0  0  0  0  0  0  0  0  0  0  0
    0.6272   -1.5200   -0.3917 C   0  0  0  0  0  0  0  0  0  0  0  0
    1.6082   -2.5219   -0.2505 C   0  0  0  0  0  0  0  0  0  0  0  0
   -1.0965    2.5708    0.2994 C   0  0  0  0  0  0  0  0  0  0  0  0
    3.0019   -2.3514   -0.6727 C   0  0  0  0  0  0  0  0  0  0  0  0
   -0.6934   -1.7641    0.0072 C   0  0  0  0  0  0  0  0  0  0  0  0
    1.2406   -3.7542    0.3103 C   0  0  0  0  0  0  0  0  0  0  0  0
   -1.0391   -2.9936    0.5656 C   0  0  0  0  0  0  0  0  0  0  0  0
   -0.0742   -3.9864    0.7181 C   0  0  0  0  0  0  0  0  0  0  0  0
   -3.5022    2.3839    0.5242 C   0  0  0  0  0  0  0  0  0  0  0  0
   -4.7399    2.6210   -0.2713 C   0  0  0  0  0  0  0  0  0  0  0  0
   -5.5721    1.6043   -0.5212 C   0  0  0  0  0  0  0  0  0  0  0  0
   -5.2292    0.2689    0.0068 C   0  0  0  0  0  0  0  0  0  0  0  0
   -6.2276   -2.9988    0.1979 C   0  0  0  0  0  0  0  0  0  0  0  0
    3.6284    2.0042    1.6047 H   0  0  0  0  0  0  0  0  0  0  0  0
    5.4799    0.3810    2.1344 H   0  0  0  0  0  0  0  0  0  0  0  0
    3.9719    3.0222   -0.8488 H   0  0  0  0  0  0  0  0  0  0  0  0
    4.2346    1.3489   -1.3079 H   0  0  0  0  0  0  0  0  0  0  0  0
    1.9919    1.9168   -1.7753 H   0  0  0  0  0  0  0  0  0  0  0  0
    6.8768   -0.0968   -0.2657 H   0  0  0  0  0  0  0  0  0  0  0  0
    1.8415    3.7526    0.0885 H   0  0  0  0  0  0  0  0  0  0  0  0
    1.3679    2.4392    1.1731 H   0  0  0  0  0  0  0  0  0  0  0  0
    5.6538   -1.9346   -1.1067 H   0  0  0  0  0  0  0  0  0  0  0  0
   -0.1109    3.2548   -1.4255 H   0  0  0  0  0  0  0  0  0  0  0  0
    3.5182   -1.2284    1.0248 H   0  0  0  0  0  0  0  0  0  0  0  0
   -1.0128    2.2000    1.3155 H   0  0  0  0  0  0  0  0  0  0  0  0
    3.2806   -2.7723   -1.6333 H   0  0  0  0  0  0  0  0  0  0  0  0
    1.9748   -4.5478    0.4335 H   0  0  0  0  0  0  0  0  0  0  0  0
   -2.4523    3.0403   -1.1499 H   0  0  0  0  0  0  0  0  0  0  0  0
   -2.0605   -3.1846    0.8841 H   0  0  0  0  0  0  0  0  0  0  0  0
   -0.3455   -4.9445    1.1519 H   0  0  0  0  0  0  0  0  0  0  0  0
   -1.3375   -0.0401   -0.5937 H   0  0  0  0  0  0  0  0  0  0  0  0
   -4.9118    3.6117   -0.6753 H   0  0  0  0  0  0  0  0  0  0  0  0
   -6.4722    1.7277   -1.1099 H   0  0  0  0  0  0  0  0  0  0  0  0
   -4.2889    0.1330    0.5568 H   0  0  0  0  0  0  0  0  0  0  0  0
   -5.7723   -3.8694    0.6773 H   0  0  0  0  0  0  0  0  0  0  0  0
   -6.3179   -3.1957   -0.8749 H   0  0  0  0  0  0  0  0  0  0  0  0
   -7.2169   -2.8336    0.6358 H   0  0  0  0  0  0  0  0  0  0  0  0
  1  9  1  0  0  0  0
  1 10  1  0  0  0  0
  2 12  1  0  0  0  0
  2 17  1  0  0  0  0
  3 17  2  0  0  0  0
  4 23  1  0  0  0  0
  4 49  1  0  0  0  0
  5 27  2  0  0  0  0
  6  8  1  0  0  0  0
  6 31  1  0  0  0  0
  7 21  1  0  0  0  0
  7 27  1  0  0  0  0
  7 46  1  0  0  0  0
  8 30  2  0  0  0  0
  9 10  1  0  0  0  0
  9 11  1  0  0  0  0
  9 32  1  0  0  0  0
 10 13  1  0  0  0  0
 10 33  1  0  0  0  0
 11 12  1  0  0  0  0
 11 34  1  0  0  0  0
 11 35  1  0  0  0  0
 12 14  1  0  0  0  0
 12 36  1  0  0  0  0
 13 15  2  3  0  0  0
 13 37  1  0  0  0  0
 14 16  1  0  0  0  0
 14 38  1  0  0  0  0
 14 39  1  0  0  0  0
 15 18  1  0  0  0  0
 15 40  1  0  0  0  0
 16 21  2  0  0  0  0
 16 41  1  0  0  0  0
 17 19  1  0  0  0  0
 18 22  2  0  0  0  0
 18 42  1  0  0  0  0
 19 20  2  0  0  0  0
 19 23  1  0  0  0  0
 20 22  1  0  0  0  0
 20 24  1  0  0  0  0
 21 43  1  0  0  0  0
 22 44  1  0  0  0  0
 23 25  2  0  0  0  0
 24 26  2  0  0  0  0
 24 45  1  0  0  0  0
 25 26  1  0  0  0  0
 25 47  1  0  0  0  0
 26 48  1  0  0  0  0
 27 28  1  0  0  0  0
 28 29  2  0  0  0  0
 28 50  1  0  0  0  0
 29 30  1  0  0  0  0
 29 51  1  0  0  0  0
 30 52  1  0  0  0  0
 31 53  1  0  0  0  0
 31 54  1  0  0  0  0
 31 55  1  0  0  0  0
M  END
> <PUBCHEM_COMPOUND_CID>
139583429

> <PUBCHEM_CONFORMER_RMSD>
1

> <PUBCHEM_CONFORMER_DIVERSEORDER>
1
136
52
76
169
65
166
60
171
117
51
153
113
64
120
124
57
168
13
129
141
125
145
127
17
158
144
67
28
82
39
182
56
187
22
114
53
41
59
101
4
122
54
8
112
15
189
150
87
156
18
176
154
109
116
152
84
149
177
5
32
88
115
103
66
178
140
157
44
142
38
48
99
105
186
42
175
110
162
20
62
9
170
100
79
184
164
77
147
21
63
23
78
11
35
19
137
68
86
36
180
107
94
126
71
183
108
191
85
25
93
16
47
81
190
185
97
188
159
83
34
26
146
161
95
143
118
14
172
61
128
133
49
46
167
30
27
139
138
104
155
45
73
163
69
72
40
132
37
130
102
181
123
131
75
43
151
89
119
135
98
92
24
148
55
74
10
58
165
160
91
2
111
29
174
121
179
134
50
106
12
70
96
90
6
7
173
33
31
3
80

> <PUBCHEM_MMFF94_PARTIAL_CHARGES>
47
1 -0.3
10 0.09
11 0.09
12 0.28
13 -0.19
14 0.14
15 -0.15
16 -0.29
17 0.63
18 -0.15
19 0.09
2 -0.43
20 0.03
21 -0.04
22 -0.18
23 0.08
24 -0.15
25 -0.15
26 -0.15
27 0.62
28 -0.14
29 -0.14
3 -0.57
30 0.38
31 0.28
32 0.1
33 0.1
37 0.15
4 -0.53
40 0.15
41 0.15
42 0.15
43 0.15
44 0.15
45 0.15
46 0.37
47 0.15
48 0.15
49 0.45
5 -0.57
50 0.15
51 0.15
52 0.06
6 -0.22
7 -0.54
8 -0.51
9 -0.05

> <PUBCHEM_EFFECTIVE_ROTOR_COUNT>
7.8

> <PUBCHEM_PHARMACOPHORE_FEATURES>
7
1 1 acceptor
1 3 acceptor
1 4 donor
1 5 acceptor
1 7 donor
1 8 acceptor
6 19 20 23 24 25 26 rings

> <PUBCHEM_HEAVY_ATOM_COUNT>
31

> <PUBCHEM_ATOM_DEF_STEREO_COUNT>
3

> <PUBCHEM_ATOM_UDEF_STEREO_COUNT>
0

> <PUBCHEM_BOND_DEF_STEREO_COUNT>
4

> <PUBCHEM_BOND_UDEF_STEREO_COUNT>
1

> <PUBCHEM_ISOTOPIC_ATOM_COUNT>
0

> <PUBCHEM_COMPONENT_COUNT>
1

> <PUBCHEM_CACTVS_TAUTO_COUNT>
-1

> <PUBCHEM_CONFORMER_ID>
0851DFC500000001

> <PUBCHEM_MMFF94_ENERGY>
82.4882

> <PUBCHEM_FEATURE_SELFOVERLAP>
35.523

> <PUBCHEM_SHAPE_FINGERPRINT>
10316853 100 18409732816466094424
10838868 158 17463148064656590843
10864689 126 17978515230334385359
1100329 8 18338517443934392254
13140716 1 18338795607554608148
1361 2 18337390448632158568
14466204 15 18338233868391834217
14787075 74 18128529380098474456
14790565 3 18409731742444864660
15968369 153 18201438137737963422
20028762 73 18343018857054404222
21197605 99 18342457071005516846
338550 245 18407761451856897804
373842 8 18264210381981073595
392239 28 18196376922538442312
463206 1 18192442861919272921
484989 97 18339931428957594150

> <PUBCHEM_SHAPE_MULTIPOLES>
592.79
13.86
5.21
1.01
9.3
2.32
-0.02
-1.71
2
2.09
0.75
-0.26
-0.23
0.75

> <PUBCHEM_SHAPE_SELFOVERLAP>
1240.469

> <PUBCHEM_SHAPE_VOLUME>
331.2

> <PUBCHEM_COORDINATE_TYPE>
2
5
10

$$$$
