139586969
  -OEChem-03292013293D

 57 61  0     1  0  0  0  0  0999 V2000
    2.5870    1.5003    1.1956 O   0  0  0  0  0  0  0  0  0  0  0  0
    0.3706   -3.4769   -0.1209 O   0  0  0  0  0  0  0  0  0  0  0  0
   -3.6297    1.1612    0.6399 O   0  0  0  0  0  0  0  0  0  0  0  0
    3.5628   -1.7535   -2.6004 O   0  0  0  0  0  0  0  0  0  0  0  0
    1.5562   -0.5200    1.6295 N   0  0  0  0  0  0  0  0  0  0  0  0
    3.7292   -0.1799   -0.8921 N   0  0  0  0  0  0  0  0  0  0  0  0
   -0.8780   -1.6137    0.5449 N   0  0  0  0  0  0  0  0  0  0  0  0
   -1.6935    1.2945   -0.5178 N   0  0  0  0  0  0  0  0  0  0  0  0
    1.4063   -1.9617    1.3906 C   0  0  1  0  0  0  0  0  0  0  0  0
    1.1795   -2.5664    2.7877 C   0  0  0  0  0  0  0  0  0  0  0  0
    1.7062   -1.5100    3.7457 C   0  0  0  0  0  0  0  0  0  0  0  0
    1.3497   -0.2166    3.0404 C   0  0  0  0  0  0  0  0  0  0  0  0
    2.1645    0.4109    0.7920 C   0  0  0  0  0  0  0  0  0  0  0  0
    2.3201    0.0397   -0.6849 C   0  0  1  0  0  0  0  0  0  0  0  0
    0.2581   -2.4119    0.4880 C   0  0  0  0  0  0  0  0  0  0  0  0
    1.8006    1.1757   -1.5957 C   0  0  0  0  0  0  0  0  0  0  0  0
    0.4107    1.5771   -1.2178 C   0  0  0  0  0  0  0  0  0  0  0  0
   -0.0136    2.7879   -0.5971 C   0  0  0  0  0  0  0  0  0  0  0  0
   -0.7107    0.7891   -1.3427 C   0  0  0  0  0  0  0  0  0  0  0  0
   -1.3474    2.6096   -0.2042 C   0  0  0  0  0  0  0  0  0  0  0  0
   -2.1297   -1.8986   -0.0742 C   0  0  0  0  0  0  0  0  0  0  0  0
   -3.0597   -0.8673   -0.3264 C   0  0  0  0  0  0  0  0  0  0  0  0
   -2.8075    0.5674   -0.0506 C   0  0  0  0  0  0  0  0  0  0  0  0
    0.6329    4.0063   -0.2937 C   0  0  0  0  0  0  0  0  0  0  0  0
   -2.0571    3.6360    0.4464 C   0  0  0  0  0  0  0  0  0  0  0  0
    4.2315   -1.0620   -1.8368 C   0  0  0  0  0  0  0  0  0  0  0  0
   -2.4971   -3.2088   -0.4203 C   0  0  0  0  0  0  0  0  0  0  0  0
   -0.0730    5.0259    0.3486 C   0  0  0  0  0  0  0  0  0  0  0  0
   -1.4023    4.8433    0.7067 C   0  0  0  0  0  0  0  0  0  0  0  0
   -4.3119   -1.1527   -0.8941 C   0  0  0  0  0  0  0  0  0  0  0  0
    5.7365   -1.0801   -1.8609 C   0  0  0  0  0  0  0  0  0  0  0  0
   -3.7421   -3.4853   -0.9947 C   0  0  0  0  0  0  0  0  0  0  0  0
   -4.6488   -2.4594   -1.2304 C   0  0  0  0  0  0  0  0  0  0  0  0
    2.3482   -2.3204    0.9585 H   0  0  0  0  0  0  0  0  0  0  0  0
    0.1147   -2.7436    2.9851 H   0  0  0  0  0  0  0  0  0  0  0  0
    1.6963   -3.5243    2.9058 H   0  0  0  0  0  0  0  0  0  0  0  0
    1.2677   -1.5831    4.7445 H   0  0  0  0  0  0  0  0  0  0  0  0
    2.7949   -1.6035    3.8376 H   0  0  0  0  0  0  0  0  0  0  0  0
    0.2898    0.0280    3.1719 H   0  0  0  0  0  0  0  0  0  0  0  0
    1.9544    0.6273    3.3831 H   0  0  0  0  0  0  0  0  0  0  0  0
    1.7826   -0.8776   -0.9310 H   0  0  0  0  0  0  0  0  0  0  0  0
    1.8203    0.8490   -2.6431 H   0  0  0  0  0  0  0  0  0  0  0  0
    2.4706    2.0425   -1.5357 H   0  0  0  0  0  0  0  0  0  0  0  0
    4.3857    0.3663   -0.3407 H   0  0  0  0  0  0  0  0  0  0  0  0
   -0.7823   -0.6993    0.9773 H   0  0  0  0  0  0  0  0  0  0  0  0
   -0.8164   -0.1777   -1.8152 H   0  0  0  0  0  0  0  0  0  0  0  0
    1.6730    4.1642   -0.5656 H   0  0  0  0  0  0  0  0  0  0  0  0
   -3.0907    3.5154    0.7516 H   0  0  0  0  0  0  0  0  0  0  0  0
   -1.8547   -4.0595   -0.2183 H   0  0  0  0  0  0  0  0  0  0  0  0
    0.4232    5.9668    0.5700 H   0  0  0  0  0  0  0  0  0  0  0  0
   -1.9394    5.6449    1.2071 H   0  0  0  0  0  0  0  0  0  0  0  0
   -5.0284   -0.3590   -1.0935 H   0  0  0  0  0  0  0  0  0  0  0  0
    6.1318   -1.1679   -0.8448 H   0  0  0  0  0  0  0  0  0  0  0  0
    6.0850   -1.9352   -2.4465 H   0  0  0  0  0  0  0  0  0  0  0  0
    6.1043   -0.1568   -2.3167 H   0  0  0  0  0  0  0  0  0  0  0  0
   -4.0051   -4.5091   -1.2458 H   0  0  0  0  0  0  0  0  0  0  0  0
   -5.6158   -2.6768   -1.6736 H   0  0  0  0  0  0  0  0  0  0  0  0
  1 13  2  0  0  0  0
  2 15  2  0  0  0  0
  3 23  2  0  0  0  0
  4 26  2  0  0  0  0
  5  9  1  0  0  0  0
  5 12  1  0  0  0  0
  5 13  1  0  0  0  0
  6 14  1  0  0  0  0
  6 26  1  0  0  0  0
  6 44  1  0  0  0  0
  7 15  1  0  0  0  0
  7 21  1  0  0  0  0
  7 45  1  0  0  0  0
  8 19  1  0  0  0  0
  8 20  1  0  0  0  0
  8 23  1  0  0  0  0
  9 10  1  0  0  0  0
  9 15  1  0  0  0  0
  9 34  1  0  0  0  0
 10 11  1  0  0  0  0
 10 35  1  0  0  0  0
 10 36  1  0  0  0  0
 11 12  1  0  0  0  0
 11 37  1  0  0  0  0
 11 38  1  0  0  0  0
 12 39  1  0  0  0  0
 12 40  1  0  0  0  0
 13 14  1  0  0  0  0
 14 16  1  0  0  0  0
 14 41  1  0  0  0  0
 16 17  1  0  0  0  0
 16 42  1  0  0  0  0
 16 43  1  0  0  0  0
 17 18  1  0  0  0  0
 17 19  2  0  0  0  0
 18 20  1  0  0  0  0
 18 24  2  0  0  0  0
 19 46  1  0  0  0  0
 20 25  2  0  0  0  0
 21 22  1  0  0  0  0
 21 27  2  0  0  0  0
 22 23  1  0  0  0  0
 22 30  2  0  0  0  0
 24 28  1  0  0  0  0
 24 47  1  0  0  0  0
 25 29  1  0  0  0  0
 25 48  1  0  0  0  0
 26 31  1  0  0  0  0
 27 32  1  0  0  0  0
 27 49  1  0  0  0  0
 28 29  2  0  0  0  0
 28 50  1  0  0  0  0
 29 51  1  0  0  0  0
 30 33  1  0  0  0  0
 30 52  1  0  0  0  0
 31 53  1  0  0  0  0
 31 54  1  0  0  0  0
 31 55  1  0  0  0  0
 32 33  2  0  0  0  0
 32 56  1  0  0  0  0
 33 57  1  0  0  0  0
M  END
> <PUBCHEM_COMPOUND_CID>
139586969

> <PUBCHEM_CONFORMER_RMSD>
0.8

> <PUBCHEM_CONFORMER_DIVERSEORDER>
1
6
9
3
5
8
7
2
4

> <PUBCHEM_MMFF94_PARTIAL_CHARGES>
41
1 -0.57
12 0.3
13 0.57
14 0.36
15 0.57
16 0.18
17 -0.18
19 -0.3
2 -0.57
20 -0.15
21 0.12
22 0.09
23 0.49
24 -0.15
25 -0.15
26 0.57
27 -0.15
28 -0.15
29 -0.15
3 -0.57
30 -0.15
31 0.06
32 -0.15
33 -0.15
4 -0.57
44 0.37
45 0.37
46 0.15
47 0.15
48 0.15
49 0.15
5 -0.66
50 0.15
51 0.15
52 0.15
56 0.15
57 0.15
6 -0.73
7 -0.55
8 0.29
9 0.36

> <PUBCHEM_EFFECTIVE_ROTOR_COUNT>
3.2

> <PUBCHEM_PHARMACOPHORE_FEATURES>
10
1 1 acceptor
1 2 acceptor
1 3 acceptor
1 4 acceptor
1 6 donor
1 7 donor
5 5 9 10 11 12 rings
5 8 17 18 19 20 rings
6 18 20 24 25 28 29 rings
6 21 22 27 30 32 33 rings

> <PUBCHEM_HEAVY_ATOM_COUNT>
33

> <PUBCHEM_ATOM_DEF_STEREO_COUNT>
2

> <PUBCHEM_ATOM_UDEF_STEREO_COUNT>
0

> <PUBCHEM_BOND_DEF_STEREO_COUNT>
0

> <PUBCHEM_BOND_UDEF_STEREO_COUNT>
0

> <PUBCHEM_ISOTOPIC_ATOM_COUNT>
0

> <PUBCHEM_COMPONENT_COUNT>
1

> <PUBCHEM_CACTVS_TAUTO_COUNT>
-1

> <PUBCHEM_CONFORMER_ID>
0851ED9900000001

> <PUBCHEM_MMFF94_ENERGY>
108.5556

> <PUBCHEM_FEATURE_SELFOVERLAP>
50.837

> <PUBCHEM_SHAPE_FINGERPRINT>
10064457 181 17332496009450973722
10675989 125 17832408076078856357
1100329 8 18339935878507004101
11093857 51 16897358712413093551
12156800 1 18197485234844358194
12553582 1 18409161100442171977
12788726 201 18263925445487711885
13009979 54 17970884718390843178
13140716 1 17829039159276090659
133893 2 16444749333780236690
14725015 67 15164872147678105523
14787075 74 18117273881634525788
14790565 3 17403471671241805044
14856354 85 17186099421480707994
14955137 171 18265075659362647123
15664445 248 18196079161177678603
17909252 39 17545901767559282958
20775438 99 17261580193994577287
23419403 2 17203318993141807586
23559900 14 18127690646258089757
244849 19 17417231145026062266
2818148 4 18263359205136200299
35225 105 17912927175979612305
376196 1 17112117002940529725
392239 28 18190997158447455816
59444896 2 13058991476783289450
70251023 43 18123757714751803439

> <PUBCHEM_SHAPE_MULTIPOLES>
635.72
7.14
6.07
2.57
0.05
7.53
-2.07
-6.73
5.25
2.38
-0.93
-3.21
-2.22
-0.7

> <PUBCHEM_SHAPE_SELFOVERLAP>
1400.115

> <PUBCHEM_SHAPE_VOLUME>
339.2

> <PUBCHEM_COORDINATE_TYPE>
2
5
10

$$$$
