139589605
  -OEChem-03292013293D

 60 64  0     1  0  0  0  0  0999 V2000
    1.6618    3.5307    0.2236 O   0  0  0  0  0  0  0  0  0  0  0  0
    1.5564   -4.3575   -0.4966 O   0  0  0  0  0  0  0  0  0  0  0  0
    3.3620    3.0101    2.2501 O   0  0  0  0  0  0  0  0  0  0  0  0
    0.8396   -2.4475    0.5203 O   0  0  0  0  0  0  0  0  0  0  0  0
   -3.4706   -2.3107   -0.5933 O   0  0  0  0  0  0  0  0  0  0  0  0
   -3.3422   -1.8886    1.6318 O   0  0  0  0  0  0  0  0  0  0  0  0
    2.1685   -0.9816   -1.4271 N   0  0  3  0  0  0  0  0  0  0  0  0
   -0.6022    1.6894   -1.3534 N   0  0  0  0  0  0  0  0  0  0  0  0
   -5.6951   -0.2176    0.8107 N   0  3  0  0  0  0  0  0  0  0  0  0
    4.6546    0.2336    2.1818 N   0  0  0  0  0  0  0  0  0  0  0  0
   -2.7289    2.3254   -1.2912 N   0  0  0  0  0  0  0  0  0  0  0  0
    0.8463    1.5969   -1.8121 C   0  0  2  0  0  0  0  0  0  0  0  0
    2.4273    0.1101   -0.5828 C   0  0  0  0  0  0  0  0  0  0  0  0
    1.0177    0.5762   -2.9636 C   0  0  0  0  0  0  0  0  0  0  0  0
    1.8247    1.3145   -0.6928 C   0  0  0  0  0  0  0  0  0  0  0  0
    1.1512   -0.8731   -2.4815 C   0  0  0  0  0  0  0  0  0  0  0  0
    2.6363   -2.3568   -1.0987 C   0  0  1  0  0  0  0  0  0  0  0  0
    3.3798   -0.1021    0.4389 C   0  0  0  0  0  0  0  0  0  0  0  0
    3.9955   -2.4036   -0.3442 C   0  0  0  0  0  0  0  0  0  0  0  0
    4.1319   -1.2679    0.6068 C   0  0  0  0  0  0  0  0  0  0  0  0
    3.7107    0.8276    1.3805 C   0  0  0  0  0  0  0  0  0  0  0  0
    2.1537    2.4127    0.2907 C   0  0  0  0  0  0  0  0  0  0  0  0
   -4.3503   -0.2269    0.1655 C   0  0  1  0  0  0  0  0  0  0  0  0
    4.9241   -1.0424    1.7129 C   0  0  0  0  0  0  0  0  0  0  0  0
    3.1375    2.1369    1.4272 C   0  0  0  0  0  0  0  0  0  0  0  0
   -3.5453    1.0116    0.6349 C   0  0  0  0  0  0  0  0  0  0  0  0
    1.5795   -3.0223   -0.2642 C   0  0  0  0  0  0  0  0  0  0  0  0
   -1.1642    1.0137   -0.3073 C   0  0  0  0  0  0  0  0  0  0  0  0
   -2.4770    1.4226   -0.2886 C   0  0  0  0  0  0  0  0  0  0  0  0
   -1.5794    2.4643   -1.9135 C   0  0  0  0  0  0  0  0  0  0  0  0
   -5.5773    0.1521    2.2930 C   0  0  0  0  0  0  0  0  0  0  0  0
   -6.6114    0.8040    0.1292 C   0  0  0  0  0  0  0  0  0  0  0  0
   -6.3505   -1.5988    0.7078 C   0  0  0  0  0  0  0  0  0  0  0  0
   -3.6647   -1.5353    0.5053 C   0  0  0  0  0  0  0  0  0  0  0  0
    1.0467    2.5973   -2.2198 H   0  0  0  0  0  0  0  0  0  0  0  0
    1.9304    0.8368   -3.5175 H   0  0  0  0  0  0  0  0  0  0  0  0
    0.1877    0.6498   -3.6762 H   0  0  0  0  0  0  0  0  0  0  0  0
    0.1871   -1.2241   -2.0954 H   0  0  0  0  0  0  0  0  0  0  0  0
    1.4175   -1.5100   -3.3328 H   0  0  0  0  0  0  0  0  0  0  0  0
    2.7381   -2.9229   -2.0336 H   0  0  0  0  0  0  0  0  0  0  0  0
    4.8060   -2.3240   -1.0800 H   0  0  0  0  0  0  0  0  0  0  0  0
    4.1225   -3.3580    0.1798 H   0  0  0  0  0  0  0  0  0  0  0  0
   -4.5114   -0.1892   -0.9205 H   0  0  0  0  0  0  0  0  0  0  0  0
    5.6633   -1.6560    2.2083 H   0  0  0  0  0  0  0  0  0  0  0  0
    5.1042    0.6645    2.9779 H   0  0  0  0  0  0  0  0  0  0  0  0
   -3.0887    0.8217    1.6156 H   0  0  0  0  0  0  0  0  0  0  0  0
   -4.1795    1.8957    0.7557 H   0  0  0  0  0  0  0  0  0  0  0  0
   -0.6145    0.3187    0.3120 H   0  0  0  0  0  0  0  0  0  0  0  0
   -1.3967    3.1030   -2.7666 H   0  0  0  0  0  0  0  0  0  0  0  0
   -4.8455   -0.4852    2.7906 H   0  0  0  0  0  0  0  0  0  0  0  0
   -7.5872    0.7728    0.6240 H   0  0  0  0  0  0  0  0  0  0  0  0
   -6.7148    0.5232   -0.9233 H   0  0  0  0  0  0  0  0  0  0  0  0
   -6.1870    1.8056    0.2192 H   0  0  0  0  0  0  0  0  0  0  0  0
   -7.3950   -1.5016    1.0225 H   0  0  0  0  0  0  0  0  0  0  0  0
   -5.8531   -2.3056    1.3769 H   0  0  0  0  0  0  0  0  0  0  0  0
   -6.3124   -1.9267   -0.3355 H   0  0  0  0  0  0  0  0  0  0  0  0
   -6.5591   -0.0150    2.7502 H   0  0  0  0  0  0  0  0  0  0  0  0
   -5.3325    1.2111    2.4061 H   0  0  0  0  0  0  0  0  0  0  0  0
    0.8726   -4.8109    0.0409 H   0  0  0  0  0  0  0  0  0  0  0  0
   -3.0405   -3.1628   -0.3674 H   0  0  0  0  0  0  0  0  0  0  0  0
  1 22  2  0  0  0  0
  2 27  1  0  0  0  0
  2 59  1  0  0  0  0
  3 25  2  0  0  0  0
  4 27  2  0  0  0  0
  5 34  1  0  0  0  0
  5 60  1  0  0  0  0
  6 34  2  0  0  0  0
  7 13  1  0  0  0  0
  7 16  1  0  0  0  0
  7 17  1  0  0  0  0
  8 12  1  0  0  0  0
  8 28  1  0  0  0  0
  8 30  1  0  0  0  0
  9 23  1  0  0  0  0
  9 31  1  0  0  0  0
  9 32  1  0  0  0  0
  9 33  1  0  0  0  0
 10 21  1  0  0  0  0
 10 24  1  0  0  0  0
 10 45  1  0  0  0  0
 11 29  1  0  0  0  0
 11 30  2  0  0  0  0
 12 14  1  0  0  0  0
 12 15  1  0  0  0  0
 12 35  1  0  0  0  0
 13 15  2  0  0  0  0
 13 18  1  0  0  0  0
 14 16  1  0  0  0  0
 14 36  1  0  0  0  0
 14 37  1  0  0  0  0
 15 22  1  0  0  0  0
 16 38  1  0  0  0  0
 16 39  1  0  0  0  0
 17 19  1  0  0  0  0
 17 27  1  0  0  0  0
 17 40  1  0  0  0  0
 18 20  1  0  0  0  0
 18 21  2  0  0  0  0
 19 20  1  0  0  0  0
 19 41  1  0  0  0  0
 19 42  1  0  0  0  0
 20 24  2  0  0  0  0
 21 25  1  0  0  0  0
 22 25  1  0  0  0  0
 23 26  1  0  0  0  0
 23 34  1  0  0  0  0
 23 43  1  0  0  0  0
 24 44  1  0  0  0  0
 26 29  1  0  0  0  0
 26 46  1  0  0  0  0
 26 47  1  0  0  0  0
 28 29  2  0  0  0  0
 28 48  1  0  0  0  0
 30 49  1  0  0  0  0
 31 50  1  0  0  0  0
 31 57  1  0  0  0  0
 31 58  1  0  0  0  0
 32 51  1  0  0  0  0
 32 52  1  0  0  0  0
 32 53  1  0  0  0  0
 33 54  1  0  0  0  0
 33 55  1  0  0  0  0
 33 56  1  0  0  0  0
M  CHG  1   9   1
M  END
> <PUBCHEM_COMPOUND_CID>
139589605

> <PUBCHEM_CONFORMER_RMSD>
1

> <PUBCHEM_CONFORMER_DIVERSEORDER>
1
25
19
23
4
30
31
27
5
16
14
11
9
7
3
29
26
8
17
28
21
18
20
15
10
22
6
2
12
24
13
32

> <PUBCHEM_MMFF94_PARTIAL_CHARGES>
39
1 -0.57
10 0.03
11 -0.57
12 0.39
13 0.15
15 -0.12
16 0.37
17 0.43
18 -0.05
19 0.18
2 -0.65
20 -0.18
21 -0.24
22 0.56
23 0.56
24 -0.3
25 0.65
26 0.18
27 0.66
28 -0.3
29 0.05
3 -0.57
30 0.04
31 0.5
32 0.5
33 0.5
34 0.66
4 -0.57
44 0.15
45 0.27
48 0.15
49 0.15
5 -0.65
59 0.5
6 -0.57
60 0.5
7 -0.84
8 0.05
9 -1.01

> <PUBCHEM_EFFECTIVE_ROTOR_COUNT>
7

> <PUBCHEM_PHARMACOPHORE_FEATURES>
18
1 1 acceptor
1 10 cation
1 10 donor
1 2 acceptor
1 3 acceptor
1 4 acceptor
1 5 acceptor
1 6 acceptor
1 7 cation
1 9 cation
3 2 4 27 anion
3 5 6 34 anion
3 8 11 30 cation
5 10 18 20 21 24 rings
5 8 11 28 29 30 rings
6 13 15 18 21 22 25 rings
6 7 12 13 14 15 16 rings
6 7 13 17 18 19 20 rings

> <PUBCHEM_HEAVY_ATOM_COUNT>
34

> <PUBCHEM_ATOM_DEF_STEREO_COUNT>
3

> <PUBCHEM_ATOM_UDEF_STEREO_COUNT>
0

> <PUBCHEM_BOND_DEF_STEREO_COUNT>
0

> <PUBCHEM_BOND_UDEF_STEREO_COUNT>
0

> <PUBCHEM_ISOTOPIC_ATOM_COUNT>
0

> <PUBCHEM_COMPONENT_COUNT>
1

> <PUBCHEM_CACTVS_TAUTO_COUNT>
-1

> <PUBCHEM_CONFORMER_ID>
0851F7E500000001

> <PUBCHEM_MMFF94_ENERGY>
82.304

> <PUBCHEM_FEATURE_SELFOVERLAP>
91.733

> <PUBCHEM_SHAPE_FINGERPRINT>
10076449 9 18270972233376202678
11828532 37 17531253924026216907
11991303 11 15151694388997600229
12035758 1 18270378539940927314
12166972 35 14996285799180574099
12373685 5 17632286896941687861
12422481 6 18408039615751088923
12633257 1 18343580767593993497
13402501 40 18334858281605441915
13533116 47 18343029874304836033
13583140 156 18199170828650160300
14955137 171 18202281399539436820
15324884 4 17900785372601904084
17349148 13 16805325479047855611
1813 80 17022620892588132381
19301679 30 18114473331661880433
19377110 9 16702011007490395885
1979834 28 18337684074266359331
20511986 3 17846204584600982567
20626108 58 17168148884291121652
20775530 9 18046074752489892679
21792934 111 18335991892286401403
21859007 373 18042957693656314629
23559900 14 18261406550189742733
23572383 38 18261108625863016299
24941158 1 16843355408298747934
3004659 81 17458921383171755687
3459 110 18272075136898715367
3633792 109 18270390596077793201
392239 28 18272071812678456578
508706 21 17969221140565975919
563151 40 17831297565056055896
57527452 28 15451180895458358998
57816373 69 17628644046867236647
8988823 20 18202283598330570973

> <PUBCHEM_SHAPE_MULTIPOLES>
639.58
12.43
3.87
2.28
19.11
1.13
-0.43
3.56
7.98
-2.37
-0.26
-1.23
-0.81
2.06

> <PUBCHEM_SHAPE_SELFOVERLAP>
1407.26

> <PUBCHEM_SHAPE_VOLUME>
345.3

> <PUBCHEM_COORDINATE_TYPE>
2
5
10

$$$$
