139587994
  -OEChem-03292013293D

 38 41  0     1  0  0  0  0  0999 V2000
    0.3348    2.3416   -1.2351 O   0  0  0  0  0  0  0  0  0  0  0  0
    2.6243    1.7946   -1.4731 O   0  0  0  0  0  0  0  0  0  0  0  0
    1.7197   -1.4653    0.3786 O   0  0  0  0  0  0  0  0  0  0  0  0
   -0.3902   -2.6003   -1.4620 O   0  0  0  0  0  0  0  0  0  0  0  0
   -5.1582   -0.1181    1.0840 O   0  0  0  0  0  0  0  0  0  0  0  0
    3.5073   -2.9131    0.2867 O   0  0  0  0  0  0  0  0  0  0  0  0
    2.1866    2.3774    1.6295 N   0  0  0  0  0  0  0  0  0  0  0  0
   -0.7386    2.1055   -0.3284 N   0  0  2  0  0  0  0  0  0  0  0  0
    2.2003   -2.7626    2.1723 N   0  0  0  0  0  0  0  0  0  0  0  0
    1.5586    1.5314    0.6814 C   0  0  1  0  0  0  0  0  0  0  0  0
    0.9997    2.9459    1.0767 C   0  0  1  0  0  0  0  0  0  0  0  0
    1.4091    1.4414   -0.8184 C   0  0  1  0  0  0  0  0  0  0  0  0
   -0.4720    2.7213    1.0064 C   0  0  0  0  0  0  0  0  0  0  0  0
    0.9403    0.0310   -1.3130 C   0  0  2  0  0  0  0  0  0  0  0  0
   -0.4947   -0.2615   -0.8445 C   0  0  0  0  0  0  0  0  0  0  0  0
   -1.2833    0.8028   -0.3312 C   0  0  0  0  0  0  0  0  0  0  0  0
    1.9883   -1.0321   -0.9378 C   0  0  0  0  0  0  0  0  0  0  0  0
   -1.0502   -1.5456   -0.9084 C   0  0  0  0  0  0  0  0  0  0  0  0
   -2.5692    0.5493    0.1603 C   0  0  0  0  0  0  0  0  0  0  0  0
   -2.3412   -1.7817   -0.4312 C   0  0  0  0  0  0  0  0  0  0  0  0
   -3.0942   -0.7407    0.1094 C   0  0  0  0  0  0  0  0  0  0  0  0
   -4.4366   -0.9979    0.6064 C   0  0  0  0  0  0  0  0  0  0  0  0
    2.5595   -2.4232    0.8914 C   0  0  0  0  0  0  0  0  0  0  0  0
    1.1320    0.6718    1.1857 H   0  0  0  0  0  0  0  0  0  0  0  0
    1.2465    3.8325    0.4962 H   0  0  0  0  0  0  0  0  0  0  0  0
    3.0226    2.8066    1.2357 H   0  0  0  0  0  0  0  0  0  0  0  0
   -0.8275    2.1001    1.8377 H   0  0  0  0  0  0  0  0  0  0  0  0
   -0.9995    3.6798    1.0559 H   0  0  0  0  0  0  0  0  0  0  0  0
    0.8964    0.0746   -2.4113 H   0  0  0  0  0  0  0  0  0  0  0  0
    1.9229   -1.8847   -1.6233 H   0  0  0  0  0  0  0  0  0  0  0  0
    3.0091   -0.6397   -1.0100 H   0  0  0  0  0  0  0  0  0  0  0  0
    2.6327    1.3875   -2.3552 H   0  0  0  0  0  0  0  0  0  0  0  0
   -3.1564    1.3720    0.5622 H   0  0  0  0  0  0  0  0  0  0  0  0
   -2.7650   -2.7825   -0.4842 H   0  0  0  0  0  0  0  0  0  0  0  0
   -0.9454   -3.3971   -1.4129 H   0  0  0  0  0  0  0  0  0  0  0  0
   -4.7992   -2.0377    0.5394 H   0  0  0  0  0  0  0  0  0  0  0  0
    2.7173   -3.4579    2.6997 H   0  0  0  0  0  0  0  0  0  0  0  0
    1.4064   -2.3279    2.6305 H   0  0  0  0  0  0  0  0  0  0  0  0
  1  8  1  0  0  0  0
  1 12  1  0  0  0  0
  2 12  1  0  0  0  0
  2 32  1  0  0  0  0
  3 17  1  0  0  0  0
  3 23  1  0  0  0  0
  4 18  1  0  0  0  0
  4 35  1  0  0  0  0
  5 22  2  0  0  0  0
  6 23  2  0  0  0  0
  7 10  1  0  0  0  0
  7 11  1  0  0  0  0
  7 26  1  0  0  0  0
  8 13  1  0  0  0  0
  8 16  1  0  0  0  0
  9 23  1  0  0  0  0
  9 37  1  0  0  0  0
  9 38  1  0  0  0  0
 10 11  1  0  0  0  0
 10 12  1  0  0  0  0
 10 24  1  0  0  0  0
 11 13  1  0  0  0  0
 11 25  1  0  0  0  0
 12 14  1  0  0  0  0
 13 27  1  0  0  0  0
 13 28  1  0  0  0  0
 14 15  1  0  0  0  0
 14 17  1  0  0  0  0
 14 29  1  0  0  0  0
 15 16  2  0  0  0  0
 15 18  1  0  0  0  0
 16 19  1  0  0  0  0
 17 30  1  0  0  0  0
 17 31  1  0  0  0  0
 18 20  2  0  0  0  0
 19 21  2  0  0  0  0
 19 33  1  0  0  0  0
 20 21  1  0  0  0  0
 20 34  1  0  0  0  0
 21 22  1  0  0  0  0
 22 36  1  0  0  0  0
M  END
> <PUBCHEM_COMPOUND_CID>
139587994

> <PUBCHEM_CONFORMER_RMSD>
0.8

> <PUBCHEM_CONFORMER_DIVERSEORDER>
1
4
5
3
6
2

> <PUBCHEM_MMFF94_PARTIAL_CHARGES>
33
1 -0.26
10 -0.04
11 -0.04
12 0.65
13 0.46
14 0.14
15 -0.14
16 0.1
17 0.28
18 0.08
19 -0.15
2 -0.68
20 -0.15
21 0.09
22 0.42
23 0.78
24 0.1
25 0.1
26 0.36
3 -0.43
32 0.4
33 0.15
34 0.15
35 0.45
36 0.06
37 0.37
38 0.37
4 -0.53
5 -0.57
6 -0.57
7 -0.68
8 -0.49
9 -0.8

> <PUBCHEM_EFFECTIVE_ROTOR_COUNT>
4.8

> <PUBCHEM_PHARMACOPHORE_FEATURES>
11
1 2 acceptor
1 2 donor
1 4 donor
1 5 acceptor
1 6 acceptor
1 7 cation
1 7 donor
1 9 donor
6 1 8 12 14 15 16 rings
6 15 16 18 19 20 21 rings
7 1 7 8 10 11 12 13 rings

> <PUBCHEM_HEAVY_ATOM_COUNT>
23

> <PUBCHEM_ATOM_DEF_STEREO_COUNT>
3

> <PUBCHEM_ATOM_UDEF_STEREO_COUNT>
1

> <PUBCHEM_BOND_DEF_STEREO_COUNT>
0

> <PUBCHEM_BOND_UDEF_STEREO_COUNT>
0

> <PUBCHEM_ISOTOPIC_ATOM_COUNT>
0

> <PUBCHEM_COMPONENT_COUNT>
1

> <PUBCHEM_CACTVS_TAUTO_COUNT>
-1

> <PUBCHEM_CONFORMER_ID>
0851F19A00000001

> <PUBCHEM_MMFF94_ENERGY>
118.0705

> <PUBCHEM_FEATURE_SELFOVERLAP>
56.342

> <PUBCHEM_SHAPE_FINGERPRINT>
10382601 240 18269556198725127313
11578080 2 17823401726525962292
12553582 1 18339918221237255710
12824470 246 17605836902266491714
13140716 1 17836925972987645473
13533116 47 18335424634207300523
14178342 30 17908416201766293099
14713325 29 15955861847650712972
14787075 74 18333732425334132874
14955137 171 18343030964631047438
15163728 17 13325996897742259162
15209289 33 18051682541391289784
15375462 189 18408325479678240070
15420108 30 17774149248819085750
16945 1 16836009824700788909
20600515 1 17904481796821890004
20691752 17 17903910398604786108
20905425 154 18413113861391191828
21421861 104 18335423460652151945
22344851 341 17912363431024093713
2334 1 18341899601715188965
23419403 2 18047157839972396365
23559900 14 17894634781548492215
2748010 2 18411978049058792645
35225 105 16308223374043323994
484985 159 16089510170219222371
5104073 3 18270135603864253275
5845 1 17763130927165477586
58807428 26 17909815871193908576
7097593 13 18339073899734199459
7364860 26 18201444730412665990
81228 2 17619352000484446615
9981440 41 16189734516630269192
9999458 23 18119543277760099709

> <PUBCHEM_SHAPE_MULTIPOLES>
423.17
5.64
3.87
1.54
6.8
0.24
0.24
2.42
2.11
-3.46
1.23
-0.88
0.18
-0.83

> <PUBCHEM_SHAPE_SELFOVERLAP>
931.136

> <PUBCHEM_SHAPE_VOLUME>
225.2

> <PUBCHEM_COORDINATE_TYPE>
2
5
10

$$$$
