139589040
  -OEChem-03292013293D

 62 66  0     1  0  0  0  0  0999 V2000
    3.2512   -1.8118    0.3152 O   0  0  0  0  0  0  0  0  0  0  0  0
    2.4736    0.3427   -0.1708 O   0  0  0  0  0  0  0  0  0  0  0  0
    4.9307   -3.1577   -1.5932 O   0  0  0  0  0  0  0  0  0  0  0  0
    0.0322   -1.3711    1.1339 O   0  0  0  0  0  0  0  0  0  0  0  0
   -2.0153    3.4411   -0.6551 O   0  0  0  0  0  0  0  0  0  0  0  0
   -2.2696   -2.3587    0.8113 O   0  0  0  0  0  0  0  0  0  0  0  0
   -4.2331    2.2953   -0.9312 O   0  0  0  0  0  0  0  0  0  0  0  0
   -4.5330   -3.5231    0.5157 O   0  0  0  0  0  0  0  0  0  0  0  0
    6.8447   -1.0438   -1.7196 N   0  0  0  0  0  0  0  0  0  0  0  0
    5.8811   -1.1393   -0.6256 C   0  0  1  0  0  0  0  0  0  0  0  0
    4.6602   -0.2640   -0.9154 C   0  0  0  0  0  0  0  0  0  0  0  0
    3.6119   -0.4367    0.1839 C   0  0  2  0  0  0  0  0  0  0  0  0
    5.4510   -2.5946   -0.3876 C   0  0  1  0  0  0  0  0  0  0  0  0
    4.3573   -2.6436    0.6910 C   0  0  2  0  0  0  0  0  0  0  0  0
    1.7881    0.8164    0.9886 C   0  0  1  0  0  0  0  0  0  0  0  0
    2.4069    2.1484    1.4424 C   0  0  0  0  0  0  0  0  0  0  0  0
    0.3273    0.9317    0.6352 C   0  0  0  0  0  0  0  0  0  0  0  0
   -0.1890    2.1547    0.1742 C   0  0  0  0  0  0  0  0  0  0  0  0
    1.8867    3.3465    0.6819 C   0  0  0  0  0  0  0  0  0  0  0  0
    3.8150   -4.0520    0.9061 C   0  0  0  0  0  0  0  0  0  0  0  0
    0.6815    3.3324    0.0875 C   0  0  0  0  0  0  0  0  0  0  0  0
   -0.5085   -0.1919    0.7047 C   0  0  0  0  0  0  0  0  0  0  0  0
   -1.8532   -0.0976    0.3274 C   0  0  0  0  0  0  0  0  0  0  0  0
   -1.5331    2.2414   -0.2107 C   0  0  0  0  0  0  0  0  0  0  0  0
   -2.3647    1.1170   -0.1299 C   0  0  0  0  0  0  0  0  0  0  0  0
    2.7694    4.5582    0.6580 C   0  0  0  0  0  0  0  0  0  0  0  0
   -2.7190   -1.2919    0.4111 C   0  0  0  0  0  0  0  0  0  0  0  0
   -3.7818    1.2284   -0.5337 C   0  0  0  0  0  0  0  0  0  0  0  0
   -4.1349   -1.1814    0.0056 C   0  0  0  0  0  0  0  0  0  0  0  0
   -4.6477    0.0347   -0.4501 C   0  0  0  0  0  0  0  0  0  0  0  0
    3.6931    4.5545   -0.5443 C   0  0  0  0  0  0  0  0  0  0  0  0
   -4.9658   -2.3057    0.0801 C   0  0  0  0  0  0  0  0  0  0  0  0
   -5.9918    0.1268   -0.8312 C   0  0  0  0  0  0  0  0  0  0  0  0
   -6.3046   -2.2095   -0.3005 C   0  0  0  0  0  0  0  0  0  0  0  0
   -6.8166   -0.9958   -0.7549 C   0  0  0  0  0  0  0  0  0  0  0  0
    6.3664   -0.7675    0.2862 H   0  0  0  0  0  0  0  0  0  0  0  0
    4.9457    0.7932   -0.9896 H   0  0  0  0  0  0  0  0  0  0  0  0
    4.2181   -0.5244   -1.8864 H   0  0  0  0  0  0  0  0  0  0  0  0
    4.0407   -0.0906    1.1341 H   0  0  0  0  0  0  0  0  0  0  0  0
    6.3103   -3.2039   -0.0852 H   0  0  0  0  0  0  0  0  0  0  0  0
    4.7586   -2.2792    1.6455 H   0  0  0  0  0  0  0  0  0  0  0  0
    1.8971    0.1015    1.8160 H   0  0  0  0  0  0  0  0  0  0  0  0
    3.4979    2.1057    1.3475 H   0  0  0  0  0  0  0  0  0  0  0  0
    2.1793    2.3130    2.5038 H   0  0  0  0  0  0  0  0  0  0  0  0
    3.0720   -4.0500    1.7113 H   0  0  0  0  0  0  0  0  0  0  0  0
    4.6147   -4.7490    1.1739 H   0  0  0  0  0  0  0  0  0  0  0  0
    3.3009   -4.4267    0.0145 H   0  0  0  0  0  0  0  0  0  0  0  0
    0.3264    4.2090   -0.4442 H   0  0  0  0  0  0  0  0  0  0  0  0
    7.6740   -1.5918   -1.4949 H   0  0  0  0  0  0  0  0  0  0  0  0
    7.1549   -0.0783   -1.8211 H   0  0  0  0  0  0  0  0  0  0  0  0
    2.1574    5.4686    0.6316 H   0  0  0  0  0  0  0  0  0  0  0  0
    3.3544    4.6178    1.5834 H   0  0  0  0  0  0  0  0  0  0  0  0
    4.0728   -2.7411   -1.7804 H   0  0  0  0  0  0  0  0  0  0  0  0
    4.3507    3.6786   -0.5401 H   0  0  0  0  0  0  0  0  0  0  0  0
    4.3252    5.4484   -0.5376 H   0  0  0  0  0  0  0  0  0  0  0  0
    3.1282    4.5505   -1.4827 H   0  0  0  0  0  0  0  0  0  0  0  0
   -0.5675   -2.1117    0.9619 H   0  0  0  0  0  0  0  0  0  0  0  0
   -2.8557    3.3242   -1.1223 H   0  0  0  0  0  0  0  0  0  0  0  0
   -6.4149    1.0615   -1.1891 H   0  0  0  0  0  0  0  0  0  0  0  0
   -6.9562   -3.0777   -0.2452 H   0  0  0  0  0  0  0  0  0  0  0  0
   -7.8593   -0.9235   -1.0505 H   0  0  0  0  0  0  0  0  0  0  0  0
   -3.5947   -3.4895    0.7541 H   0  0  0  0  0  0  0  0  0  0  0  0
  1 12  1  0  0  0  0
  1 14  1  0  0  0  0
  2 12  1  0  0  0  0
  2 15  1  0  0  0  0
  3 13  1  0  0  0  0
  3 53  1  0  0  0  0
  4 22  1  0  0  0  0
  4 57  1  0  0  0  0
  5 24  1  0  0  0  0
  5 58  1  0  0  0  0
  6 27  2  0  0  0  0
  7 28  2  0  0  0  0
  8 32  1  0  0  0  0
  8 62  1  0  0  0  0
  9 10  1  0  0  0  0
  9 49  1  0  0  0  0
  9 50  1  0  0  0  0
 10 11  1  0  0  0  0
 10 13  1  0  0  0  0
 10 36  1  0  0  0  0
 11 12  1  0  0  0  0
 11 37  1  0  0  0  0
 11 38  1  0  0  0  0
 12 39  1  0  0  0  0
 13 14  1  0  0  0  0
 13 40  1  0  0  0  0
 14 20  1  0  0  0  0
 14 41  1  0  0  0  0
 15 16  1  0  0  0  0
 15 17  1  0  0  0  0
 15 42  1  0  0  0  0
 16 19  1  0  0  0  0
 16 43  1  0  0  0  0
 16 44  1  0  0  0  0
 17 18  2  0  0  0  0
 17 22  1  0  0  0  0
 18 21  1  0  0  0  0
 18 24  1  0  0  0  0
 19 21  2  0  0  0  0
 19 26  1  0  0  0  0
 20 45  1  0  0  0  0
 20 46  1  0  0  0  0
 20 47  1  0  0  0  0
 21 48  1  0  0  0  0
 22 23  2  0  0  0  0
 23 25  1  0  0  0  0
 23 27  1  0  0  0  0
 24 25  2  0  0  0  0
 25 28  1  0  0  0  0
 26 31  1  0  0  0  0
 26 51  1  0  0  0  0
 26 52  1  0  0  0  0
 27 29  1  0  0  0  0
 28 30  1  0  0  0  0
 29 30  2  0  0  0  0
 29 32  1  0  0  0  0
 30 33  1  0  0  0  0
 31 54  1  0  0  0  0
 31 55  1  0  0  0  0
 31 56  1  0  0  0  0
 32 34  2  0  0  0  0
 33 35  2  0  0  0  0
 33 59  1  0  0  0  0
 34 35  1  0  0  0  0
 34 60  1  0  0  0  0
 35 61  1  0  0  0  0
M  END
> <PUBCHEM_COMPOUND_CID>
139589040

> <PUBCHEM_CONFORMER_RMSD>
0.8

> <PUBCHEM_CONFORMER_DIVERSEORDER>
1
9
10
12
8
5
6
7
14
3
4
11
2
13

> <PUBCHEM_MMFF94_PARTIAL_CHARGES>
42
1 -0.56
10 0.27
12 0.56
13 0.28
14 0.28
15 0.42
16 0.14
17 -0.14
18 0.03
19 -0.28
2 -0.56
21 -0.18
22 0.08
23 0.09
24 0.08
25 0.09
26 0.14
27 0.4
28 0.4
29 0.09
3 -0.68
30 0.09
32 0.08
33 -0.15
34 -0.15
35 -0.15
4 -0.53
48 0.15
49 0.36
5 -0.53
50 0.36
53 0.4
57 0.45
58 0.45
59 0.15
6 -0.57
60 0.15
61 0.15
62 0.45
7 -0.57
8 -0.53
9 -0.99

> <PUBCHEM_EFFECTIVE_ROTOR_COUNT>
4.6

> <PUBCHEM_PHARMACOPHORE_FEATURES>
17
1 1 acceptor
1 2 acceptor
1 3 acceptor
1 3 donor
1 31 hydrophobe
1 4 donor
1 5 donor
1 6 acceptor
1 7 acceptor
1 8 donor
1 9 cation
1 9 donor
6 1 10 11 12 13 14 rings
6 15 16 17 18 19 21 rings
6 17 18 22 23 24 25 rings
6 23 25 27 28 29 30 rings
6 29 30 32 33 34 35 rings

> <PUBCHEM_HEAVY_ATOM_COUNT>
35

> <PUBCHEM_ATOM_DEF_STEREO_COUNT>
5

> <PUBCHEM_ATOM_UDEF_STEREO_COUNT>
0

> <PUBCHEM_BOND_DEF_STEREO_COUNT>
0

> <PUBCHEM_BOND_UDEF_STEREO_COUNT>
0

> <PUBCHEM_ISOTOPIC_ATOM_COUNT>
0

> <PUBCHEM_COMPONENT_COUNT>
1

> <PUBCHEM_CACTVS_TAUTO_COUNT>
-1

> <PUBCHEM_CONFORMER_ID>
0851F5B000000001

> <PUBCHEM_MMFF94_ENERGY>
99.3618

> <PUBCHEM_FEATURE_SELFOVERLAP>
86.386

> <PUBCHEM_SHAPE_FINGERPRINT>
10050765 1 18411698807676552697
11204353 107 18195253445637440654
11513181 2 18196647625916717703
117089 54 18120381110443745115
11719270 70 18195801002343469528
12107183 9 18200042737930659401
12788726 201 17975414612398291170
131258 43 17774458143964876804
13533116 47 18129097991114191353
13631057 29 18340494353499810314
13690498 29 18334012766254497541
13782708 43 17846205675290839807
14347332 77 18336540513137289355
14866123 147 18125441913252066049
14931854 50 18188216403541616694
15183329 4 18260830362736125779
15250474 111 17974006150973018338
15320467 1 18410290315468636195
15351339 4 18115581535354359386
15927050 60 17909829082856332254
17909252 39 18339646740807334688
19246450 95 11238613444886506462
20028762 73 17258493877940219123
20775438 99 18050268551799710335
21130935 74 18198907105976187067
21133410 32 16590596411963730850
21267235 1 18335703875906044131
21279426 13 18334845148539527477
21703447 108 18339071692010174864
221357 26 18409727352661071475
22393880 68 18115010962371595893
23559900 14 18411691110793724593
23569914 152 17763426597568174487
24771750 20 18191876841117392156
255183 451 18343868826924588812
3004659 81 18114462267372756842
32027 91 18411127018537108439
335352 9 18409443658378213773
4046055 25 18190184477979064092
4144715 1 18116997887557908763
437815 12 18272653441550104227
4461854 278 17039242471499914610
44880168 125 17203042972621167550
46194498 28 18336823195047399996
5776283 40 18191596448556231500
59755656 215 18192993948551141077
6058803 2 17685788926474831762
6669772 16 18124314063266397524
6695519 79 17263576894324969441
6697151 62 18058425687122228205
6823239 73 18411407427924229864
70251023 43 18410012147737329249
9831232 110 18410285926438541679

> <PUBCHEM_SHAPE_MULTIPOLES>
668.35
15.52
5.67
1.11
5.65
2.92
0.1
-13.58
5.95
-6.56
-0.42
-1.03
-0.2
1.54

> <PUBCHEM_SHAPE_SELFOVERLAP>
1483.148

> <PUBCHEM_SHAPE_VOLUME>
352.5

> <PUBCHEM_COORDINATE_TYPE>
2
5
10

$$$$
