139587466
  -OEChem-03292013293D

 67 69  0     1  0  0  0  0  0999 V2000
    2.8731    0.2589   -1.2490 O   0  0  0  0  0  0  0  0  0  0  0  0
   -5.3708    2.9354    0.2736 O   0  0  0  0  0  0  0  0  0  0  0  0
   -5.4919    1.6233   -1.5957 O   0  0  0  0  0  0  0  0  0  0  0  0
    3.7535    2.3476    0.4421 O   0  0  0  0  0  0  0  0  0  0  0  0
    8.1869   -1.3935   -0.3830 O   0  0  0  0  0  0  0  0  0  0  0  0
    8.0033    0.7162   -1.2006 O   0  0  0  0  0  0  0  0  0  0  0  0
   -1.4664   -1.0302   -1.0531 C   0  0  1  0  0  0  0  0  0  0  0  0
   -3.6577   -1.3234    0.3654 C   0  0  1  0  0  0  0  0  0  0  0  0
   -2.9805   -1.3823   -1.0108 C   0  0  0  0  0  0  0  0  0  0  0  0
   -0.9432   -0.0778    0.0725 C   0  0  1  0  0  0  0  0  0  0  0  0
   -3.9244    0.0941    0.9680 C   0  0  2  0  0  0  0  0  0  0  0  0
   -5.0106   -2.0608    0.4513 C   0  0  1  0  0  0  0  0  0  0  0  0
   -0.5928   -2.2951   -0.8274 C   0  0  0  0  0  0  0  0  0  0  0  0
   -5.2505   -0.0426    1.7570 C   0  0  0  0  0  0  0  0  0  0  0  0
   -5.5784   -1.5315    1.7674 C   0  0  0  0  0  0  0  0  0  0  0  0
    0.5172   -0.4745    0.1510 C   0  0  0  0  0  0  0  0  0  0  0  0
   -1.2159    1.4188   -0.1211 C   0  0  0  0  0  0  0  0  0  0  0  0
   -1.1576   -0.4903   -2.4788 C   0  0  0  0  0  0  0  0  0  0  0  0
   -3.7935    1.2782    0.0311 C   0  0  0  0  0  0  0  0  0  0  0  0
    0.6928   -1.7150   -0.3252 C   0  0  0  0  0  0  0  0  0  0  0  0
    1.5569    0.3797    0.7829 C   0  0  2  0  0  0  0  0  0  0  0  0
   -5.9602   -1.8258   -0.7217 C   0  0  0  0  0  0  0  0  0  0  0  0
   -2.6395    1.8441   -0.3756 C   0  0  0  0  0  0  0  0  0  0  0  0
    2.9528    0.0856    0.1722 C   0  0  2  0  0  0  0  0  0  0  0  0
   -4.9748    1.9415   -0.5450 C   0  0  0  0  0  0  0  0  0  0  0  0
    1.5280    0.2071    2.3091 C   0  0  0  0  0  0  0  0  0  0  0  0
    4.1002    0.9786    0.6922 C   0  0  1  0  0  0  0  0  0  0  0  0
    5.4164    0.7123    0.0096 C   0  0  0  0  0  0  0  0  0  0  0  0
    6.4078   -0.0993    0.4237 C   0  0  0  0  0  0  0  0  0  0  0  0
    6.4220   -0.9017    1.6910 C   0  0  0  0  0  0  0  0  0  0  0  0
    7.5978   -0.1774   -0.4733 C   0  0  0  0  0  0  0  0  0  0  0  0
   -3.0005   -1.8525    1.0725 H   0  0  0  0  0  0  0  0  0  0  0  0
   -3.0988   -2.3968   -1.4165 H   0  0  0  0  0  0  0  0  0  0  0  0
   -3.5341   -0.7385   -1.7056 H   0  0  0  0  0  0  0  0  0  0  0  0
   -1.3378   -0.3729    1.0496 H   0  0  0  0  0  0  0  0  0  0  0  0
   -3.1733    0.2572    1.7537 H   0  0  0  0  0  0  0  0  0  0  0  0
   -4.8411   -3.1417    0.5304 H   0  0  0  0  0  0  0  0  0  0  0  0
   -0.4394   -2.8611   -1.7518 H   0  0  0  0  0  0  0  0  0  0  0  0
   -1.0145   -2.9671   -0.0715 H   0  0  0  0  0  0  0  0  0  0  0  0
   -6.0740    0.4975    1.2794 H   0  0  0  0  0  0  0  0  0  0  0  0
   -5.1580    0.3504    2.7754 H   0  0  0  0  0  0  0  0  0  0  0  0
   -5.0689   -2.0120    2.6120 H   0  0  0  0  0  0  0  0  0  0  0  0
   -6.6514   -1.7158    1.8790 H   0  0  0  0  0  0  0  0  0  0  0  0
   -0.6112    1.7828   -0.9627 H   0  0  0  0  0  0  0  0  0  0  0  0
   -0.8660    1.9779    0.7561 H   0  0  0  0  0  0  0  0  0  0  0  0
   -1.4041   -1.2420   -3.2380 H   0  0  0  0  0  0  0  0  0  0  0  0
   -0.1018   -0.2291   -2.6078 H   0  0  0  0  0  0  0  0  0  0  0  0
   -1.7467    0.4035   -2.7085 H   0  0  0  0  0  0  0  0  0  0  0  0
    1.6139   -2.2778   -0.3273 H   0  0  0  0  0  0  0  0  0  0  0  0
    1.3284    1.4254    0.5487 H   0  0  0  0  0  0  0  0  0  0  0  0
   -6.1799   -0.7674   -0.8737 H   0  0  0  0  0  0  0  0  0  0  0  0
   -6.9130   -2.3366   -0.5446 H   0  0  0  0  0  0  0  0  0  0  0  0
   -5.5463   -2.2253   -1.6525 H   0  0  0  0  0  0  0  0  0  0  0  0
   -2.7004    2.7216   -1.0218 H   0  0  0  0  0  0  0  0  0  0  0  0
    3.2333   -0.9579    0.3655 H   0  0  0  0  0  0  0  0  0  0  0  0
    1.8596   -0.7950    2.6027 H   0  0  0  0  0  0  0  0  0  0  0  0
    0.5180    0.3587    2.7063 H   0  0  0  0  0  0  0  0  0  0  0  0
    2.1779    0.9375    2.8006 H   0  0  0  0  0  0  0  0  0  0  0  0
    4.1983    0.8743    1.7758 H   0  0  0  0  0  0  0  0  0  0  0  0
    3.6333   -0.1972   -1.6476 H   0  0  0  0  0  0  0  0  0  0  0  0
   -6.1590    3.4062   -0.0717 H   0  0  0  0  0  0  0  0  0  0  0  0
    5.5336    1.2263   -0.9449 H   0  0  0  0  0  0  0  0  0  0  0  0
    4.4527    2.9032    0.8277 H   0  0  0  0  0  0  0  0  0  0  0  0
    6.3979   -1.9729    1.4656 H   0  0  0  0  0  0  0  0  0  0  0  0
    5.5708   -0.6888    2.3422 H   0  0  0  0  0  0  0  0  0  0  0  0
    7.3305   -0.6879    2.2639 H   0  0  0  0  0  0  0  0  0  0  0  0
    8.9718   -1.4655   -0.9671 H   0  0  0  0  0  0  0  0  0  0  0  0
  1 24  1  0  0  0  0
  1 60  1  0  0  0  0
  2 25  1  0  0  0  0
  2 61  1  0  0  0  0
  3 25  2  0  0  0  0
  4 27  1  0  0  0  0
  4 63  1  0  0  0  0
  5 31  1  0  0  0  0
  5 67  1  0  0  0  0
  6 31  2  0  0  0  0
  7  9  1  0  0  0  0
  7 10  1  0  0  0  0
  7 13  1  0  0  0  0
  7 18  1  0  0  0  0
  8  9  1  0  0  0  0
  8 11  1  0  0  0  0
  8 12  1  0  0  0  0
  8 32  1  0  0  0  0
  9 33  1  0  0  0  0
  9 34  1  0  0  0  0
 10 16  1  0  0  0  0
 10 17  1  0  0  0  0
 10 35  1  0  0  0  0
 11 14  1  0  0  0  0
 11 19  1  0  0  0  0
 11 36  1  0  0  0  0
 12 15  1  0  0  0  0
 12 22  1  0  0  0  0
 12 37  1  0  0  0  0
 13 20  1  0  0  0  0
 13 38  1  0  0  0  0
 13 39  1  0  0  0  0
 14 15  1  0  0  0  0
 14 40  1  0  0  0  0
 14 41  1  0  0  0  0
 15 42  1  0  0  0  0
 15 43  1  0  0  0  0
 16 20  2  0  0  0  0
 16 21  1  0  0  0  0
 17 23  1  0  0  0  0
 17 44  1  0  0  0  0
 17 45  1  0  0  0  0
 18 46  1  0  0  0  0
 18 47  1  0  0  0  0
 18 48  1  0  0  0  0
 19 23  2  0  0  0  0
 19 25  1  0  0  0  0
 20 49  1  0  0  0  0
 21 24  1  0  0  0  0
 21 26  1  0  0  0  0
 21 50  1  0  0  0  0
 22 51  1  0  0  0  0
 22 52  1  0  0  0  0
 22 53  1  0  0  0  0
 23 54  1  0  0  0  0
 24 27  1  0  0  0  0
 24 55  1  0  0  0  0
 26 56  1  0  0  0  0
 26 57  1  0  0  0  0
 26 58  1  0  0  0  0
 27 28  1  0  0  0  0
 27 59  1  0  0  0  0
 28 29  2  0  0  0  0
 28 62  1  0  0  0  0
 29 30  1  0  0  0  0
 29 31  1  0  0  0  0
 30 64  1  0  0  0  0
 30 65  1  0  0  0  0
 30 66  1  0  0  0  0
M  END
> <PUBCHEM_COMPOUND_CID>
139587466

> <PUBCHEM_CONFORMER_RMSD>
1

> <PUBCHEM_CONFORMER_DIVERSEORDER>
1
25
32
40
41
55
53
54
37
56
14
47
23
33
12
45
38
35
34
39
27
48
30
3
52
36
31
5
20
49
28
46
44
26
13
15
7
42
22
50
19
10
9
17
21
43
51
11
16
24
18
4
2
8
6
29

> <PUBCHEM_MMFF94_PARTIAL_CHARGES>
29
1 -0.68
10 0.14
11 0.14
13 0.14
16 -0.28
17 0.14
19 -0.12
2 -0.65
20 -0.29
21 0.14
23 -0.29
24 0.28
25 0.71
27 0.42
28 -0.29
29 -0.12
3 -0.57
30 0.14
31 0.71
4 -0.68
49 0.15
5 -0.65
54 0.15
6 -0.57
60 0.4
61 0.5
62 0.15
63 0.4
67 0.5

> <PUBCHEM_EFFECTIVE_ROTOR_COUNT>
7.2

> <PUBCHEM_PHARMACOPHORE_FEATURES>
14
1 1 acceptor
1 1 donor
1 2 acceptor
1 26 hydrophobe
1 3 acceptor
1 30 hydrophobe
1 4 acceptor
1 4 donor
1 5 acceptor
1 6 acceptor
3 2 3 25 anion
3 5 6 31 anion
5 7 10 13 16 20 rings
5 8 11 12 14 15 rings

> <PUBCHEM_HEAVY_ATOM_COUNT>
31

> <PUBCHEM_ATOM_DEF_STEREO_COUNT>
7

> <PUBCHEM_ATOM_UDEF_STEREO_COUNT>
1

> <PUBCHEM_BOND_DEF_STEREO_COUNT>
2

> <PUBCHEM_BOND_UDEF_STEREO_COUNT>
0

> <PUBCHEM_ISOTOPIC_ATOM_COUNT>
0

> <PUBCHEM_COMPONENT_COUNT>
1

> <PUBCHEM_CACTVS_TAUTO_COUNT>
-1

> <PUBCHEM_CONFORMER_ID>
0851EF8A00000001

> <PUBCHEM_MMFF94_ENERGY>
102.3576

> <PUBCHEM_FEATURE_SELFOVERLAP>
71.166

> <PUBCHEM_SHAPE_FINGERPRINT>
10165383 225 17846506920154793515
10319926 262 18411408523473108712
11135926 11 16343707599816842566
11315181 36 17168145667566279783
11578080 2 17024852789686677455
12166972 35 18041284352606373628
12236239 1 17894910724617712696
12596602 18 17676205784262845704
13782708 43 18131067198953837034
14849402 71 17386582383024904476
14856354 85 18261679284739843579
14955137 171 18336549407851555256
15021287 119 18343021129086964984
15183329 4 18272929415237996892
15461852 350 18342452660538107111
1577012 14 17530963567009580024
17349148 13 12468353540221295403
17980427 23 17749116599587477541
21033648 144 18266175033577999549
21033648 29 17917136269852223569
21792961 116 17988929934223771678
23559900 14 18194401083364756151
23569943 247 17024856080101411250
2838139 119 16271928215957987768
4015057 19 14691993826000726282
4098825 35 18340772645731752816
444769 64 17561082488749666742
4938544 92 16950557749800442309
5104073 3 18336835173985476211
5265222 85 18271248352317166022
59755656 215 18059574647124526086
59755656 520 17458344130824258034
6086070 43 17774703321533983769
6523845 18 16200429187477210639
7226269 152 17560803234270756098
9996256 80 18341331175615310782

> <PUBCHEM_SHAPE_MULTIPOLES>
602.75
19.76
2.32
1.67
34.47
0.57
0.14
-0.65
1.05
-3.44
-0.29
-0.67
-0.25
0.56

> <PUBCHEM_SHAPE_SELFOVERLAP>
1259.556

> <PUBCHEM_SHAPE_VOLUME>
340.4

> <PUBCHEM_COORDINATE_TYPE>
2
5
10

$$$$
