139589086
  -OEChem-03292013293D

 38 39  0     1  0  0  0  0  0999 V2000
   -1.6082   -1.0077   -1.7660 S   0  0  0  0  0  0  0  0  0  0  0  0
    2.4412   -0.9233    2.0936 O   0  0  0  0  0  0  0  0  0  0  0  0
    1.0820   -3.7116    0.6242 O   0  0  0  0  0  0  0  0  0  0  0  0
    5.0608    2.9981   -0.7371 O   0  0  0  0  0  0  0  0  0  0  0  0
   -1.0454   -2.8829    0.7576 O   0  0  0  0  0  0  0  0  0  0  0  0
   -6.4234    0.9078   -0.3411 O   0  0  0  0  0  0  0  0  0  0  0  0
    1.9628   -1.2998   -0.2027 N   0  0  0  0  0  0  0  0  0  0  0  0
   -4.2092    1.0784    0.3731 N   0  0  0  0  0  0  0  0  0  0  0  0
    2.2912   -0.1997   -1.1288 C   0  0  1  0  0  0  0  0  0  0  0  0
    0.9456    0.1923   -1.7523 C   0  0  0  0  0  0  0  0  0  0  0  0
    2.8247    0.4980    0.1034 C   0  0  0  0  0  0  0  0  0  0  0  0
    2.4441   -0.6680    0.9067 C   0  0  0  0  0  0  0  0  0  0  0  0
    0.6624   -1.6864   -0.3835 C   0  0  0  0  0  0  0  0  0  0  0  0
    0.0278   -0.9014   -1.2635 C   0  0  0  0  0  0  0  0  0  0  0  0
    3.3940    1.6645    0.3859 C   0  0  0  0  0  0  0  0  0  0  0  0
    0.1148   -2.7980    0.3865 C   0  0  0  0  0  0  0  0  0  0  0  0
    3.6667    2.7326   -0.6647 C   0  0  0  0  0  0  0  0  0  0  0  0
    3.8160    2.0635    1.7926 C   0  0  0  0  0  0  0  0  0  0  0  0
   -2.3205    0.0217   -0.5831 C   0  0  0  0  0  0  0  0  0  0  0  0
   -3.6347    0.2663   -0.5567 C   0  0  0  0  0  0  0  0  0  0  0  0
   -5.5689    1.3496    0.4239 C   0  0  0  0  0  0  0  0  0  0  0  0
   -5.9236    2.3060    1.5322 C   0  0  0  0  0  0  0  0  0  0  0  0
    3.0404   -0.5059   -1.8699 H   0  0  0  0  0  0  0  0  0  0  0  0
    1.0136    0.1879   -2.8455 H   0  0  0  0  0  0  0  0  0  0  0  0
    0.6099    1.1798   -1.4174 H   0  0  0  0  0  0  0  0  0  0  0  0
    3.3263    2.4162   -1.6559 H   0  0  0  0  0  0  0  0  0  0  0  0
    3.1436    3.6575   -0.3997 H   0  0  0  0  0  0  0  0  0  0  0  0
    4.8981    2.2237    1.8330 H   0  0  0  0  0  0  0  0  0  0  0  0
    3.5665    1.3061    2.5397 H   0  0  0  0  0  0  0  0  0  0  0  0
    3.3148    2.9926    2.0833 H   0  0  0  0  0  0  0  0  0  0  0  0
   -1.6789    0.4849    0.1621 H   0  0  0  0  0  0  0  0  0  0  0  0
    0.7479   -4.4749    1.1420 H   0  0  0  0  0  0  0  0  0  0  0  0
    5.1845    3.6936   -1.4053 H   0  0  0  0  0  0  0  0  0  0  0  0
   -4.3088   -0.1774   -1.2828 H   0  0  0  0  0  0  0  0  0  0  0  0
   -3.5976    1.5097    1.0620 H   0  0  0  0  0  0  0  0  0  0  0  0
   -7.0034    2.2856    1.7040 H   0  0  0  0  0  0  0  0  0  0  0  0
   -5.4180    2.0208    2.4593 H   0  0  0  0  0  0  0  0  0  0  0  0
   -5.6216    3.3179    1.2490 H   0  0  0  0  0  0  0  0  0  0  0  0
  1 14  1  0  0  0  0
  1 19  1  0  0  0  0
  2 12  2  0  0  0  0
  3 16  1  0  0  0  0
  3 32  1  0  0  0  0
  4 17  1  0  0  0  0
  4 33  1  0  0  0  0
  5 16  2  0  0  0  0
  6 21  2  0  0  0  0
  7  9  1  0  0  0  0
  7 12  1  0  0  0  0
  7 13  1  0  0  0  0
  8 20  1  0  0  0  0
  8 21  1  0  0  0  0
  8 35  1  0  0  0  0
  9 10  1  0  0  0  0
  9 11  1  0  0  0  0
  9 23  1  0  0  0  0
 10 14  1  0  0  0  0
 10 24  1  0  0  0  0
 10 25  1  0  0  0  0
 11 12  1  0  0  0  0
 11 15  2  0  0  0  0
 13 14  2  0  0  0  0
 13 16  1  0  0  0  0
 15 17  1  0  0  0  0
 15 18  1  0  0  0  0
 17 26  1  0  0  0  0
 17 27  1  0  0  0  0
 18 28  1  0  0  0  0
 18 29  1  0  0  0  0
 18 30  1  0  0  0  0
 19 20  2  0  0  0  0
 19 31  1  0  0  0  0
 20 34  1  0  0  0  0
 21 22  1  0  0  0  0
 22 36  1  0  0  0  0
 22 37  1  0  0  0  0
 22 38  1  0  0  0  0
M  END
> <PUBCHEM_COMPOUND_CID>
139589086

> <PUBCHEM_CONFORMER_RMSD>
0.8

> <PUBCHEM_CONFORMER_DIVERSEORDER>
1
27
16
30
32
28
7
15
20
10
3
18
34
19
22
29
35
11
2
31
6
36
33
21
37
5
14
12
25
8
13
23
4
24
9
26
17

> <PUBCHEM_MMFF94_PARTIAL_CHARGES>
27
1 -0.2
10 0.14
11 -0.24
12 0.7
13 0.12
14 -0.04
15 -0.25
16 0.71
17 0.42
18 0.14
19 -0.05
2 -0.57
20 -0.04
21 0.57
22 0.06
3 -0.65
31 0.15
32 0.5
33 0.4
34 0.15
35 0.37
4 -0.68
5 -0.57
6 -0.57
7 -0.39
8 -0.54
9 0.36

> <PUBCHEM_EFFECTIVE_ROTOR_COUNT>
6.2

> <PUBCHEM_PHARMACOPHORE_FEATURES>
10
1 18 hydrophobe
1 2 acceptor
1 3 acceptor
1 4 acceptor
1 4 donor
1 5 acceptor
1 6 acceptor
1 8 donor
3 3 5 16 anion
7 7 9 10 11 12 13 14 rings

> <PUBCHEM_HEAVY_ATOM_COUNT>
22

> <PUBCHEM_ATOM_DEF_STEREO_COUNT>
1

> <PUBCHEM_ATOM_UDEF_STEREO_COUNT>
0

> <PUBCHEM_BOND_DEF_STEREO_COUNT>
2

> <PUBCHEM_BOND_UDEF_STEREO_COUNT>
0

> <PUBCHEM_ISOTOPIC_ATOM_COUNT>
0

> <PUBCHEM_COMPONENT_COUNT>
1

> <PUBCHEM_CACTVS_TAUTO_COUNT>
-1

> <PUBCHEM_CONFORMER_ID>
0851F5DE00000001

> <PUBCHEM_MMFF94_ENERGY>
62.5032

> <PUBCHEM_FEATURE_SELFOVERLAP>
50.801

> <PUBCHEM_SHAPE_FINGERPRINT>
10042902 136 11891879537981057944
10498660 4 17131833213384548489
11796584 16 11386904697882319485
12035758 1 18116414965753827906
12390115 104 17753332260370573884
12633257 1 18261095366512632915
12788726 201 17178016189127337598
12824470 246 11170176649458703780
13878862 14 18120638142766303909
13955234 65 18190465961202902067
13965767 371 18113891650258549407
14251751 18 10737280281872911077
14251764 75 18339653320971960953
14848178 5 11747204784312117521
14849402 71 18337678490497508146
15142526 21 18341045324130105961
15238133 3 18271235123565050640
15342168 16 18336263530638374477
15342816 4 10953741058317325810
15475509 8 18199755748347705102
16120349 67 18125743389717803628
21503847 285 18272374126762537285
21756936 100 18196369436721701132
23559900 14 17751096725598077239
23845131 108 18260546757998974923
2838139 119 17632005433626408753
38570 142 18341065076510750628
427121 178 18260268551096230690
4463277 69 10953457431804475955
474 4 18411417310934069189
633830 44 18342454841943818959
76465 3 9078850579554496252
7808743 9 18131067181821310789
960060 61 10447918486812672825
9999458 23 18337677416818975102

> <PUBCHEM_SHAPE_MULTIPOLES>
417.29
11.34
3.59
1.67
18.99
0.89
0.14
-14.14
2.6
-2.08
1.14
-0.62
-0.03
-1.56

> <PUBCHEM_SHAPE_SELFOVERLAP>
864.878

> <PUBCHEM_SHAPE_VOLUME>
240.7

> <PUBCHEM_COORDINATE_TYPE>
2
5
10

$$$$
