139589755
  -OEChem-03292013293D

 49 51  0     1  0  0  0  0  0999 V2000
    1.2088   -0.7217    0.2861 O   0  0  0  0  0  0  0  0  0  0  0  0
   -3.3054    0.5089    0.9650 O   0  0  0  0  0  0  0  0  0  0  0  0
    1.3279   -3.3972    0.5796 O   0  0  0  0  0  0  0  0  0  0  0  0
    0.3737   -3.6425   -1.9101 O   0  0  0  0  0  0  0  0  0  0  0  0
    1.3042    0.6489    2.1332 O   0  0  0  0  0  0  0  0  0  0  0  0
    1.6309    1.4980   -1.4961 O   0  0  0  0  0  0  0  0  0  0  0  0
    6.2906    2.4814   -1.4147 O   0  0  0  0  0  0  0  0  0  0  0  0
   -7.4225    3.2540    0.5948 O   0  0  0  0  0  0  0  0  0  0  0  0
   -1.1897   -0.5531    0.3431 C   0  0  1  0  0  0  0  0  0  0  0  0
    0.0329   -1.3654    0.8090 C   0  0  1  0  0  0  0  0  0  0  0  0
    0.0401   -2.8323    0.3525 C   0  0  1  0  0  0  0  0  0  0  0  0
   -1.8350   -1.0716   -0.9260 C   0  0  0  0  0  0  0  0  0  0  0  0
   -2.3000   -0.4322    1.3898 C   0  0  0  0  0  0  0  0  0  0  0  0
   -0.2457   -2.9072   -1.1447 C   0  0  0  0  0  0  0  0  0  0  0  0
   -1.3776   -2.0953   -1.6598 C   0  0  0  0  0  0  0  0  0  0  0  0
   -0.9710   -3.7018    1.1024 C   0  0  0  0  0  0  0  0  0  0  0  0
   -3.0588   -0.3718   -1.2691 C   0  0  0  0  0  0  0  0  0  0  0  0
   -3.7063    0.3736   -0.3544 C   0  0  0  0  0  0  0  0  0  0  0  0
    1.7353    0.2671    1.0562 C   0  0  0  0  0  0  0  0  0  0  0  0
   -4.9057    1.1022   -0.6654 C   0  0  0  0  0  0  0  0  0  0  0  0
    2.9386    0.8478    0.4087 C   0  0  0  0  0  0  0  0  0  0  0  0
    4.1747    0.8027    1.0534 C   0  0  0  0  0  0  0  0  0  0  0  0
    2.8290    1.4420   -0.8485 C   0  0  0  0  0  0  0  0  0  0  0  0
   -5.5578    1.8456    0.2337 C   0  0  0  0  0  0  0  0  0  0  0  0
    5.3012    1.3518    0.4410 C   0  0  0  0  0  0  0  0  0  0  0  0
    3.9555    1.9913   -1.4609 C   0  0  0  0  0  0  0  0  0  0  0  0
    4.3221    0.1732    2.4002 C   0  0  0  0  0  0  0  0  0  0  0  0
    5.1916    1.9461   -0.8161 C   0  0  0  0  0  0  0  0  0  0  0  0
   -6.7818    2.5571   -0.1828 C   0  0  0  0  0  0  0  0  0  0  0  0
   -0.8595    0.4725    0.1208 H   0  0  0  0  0  0  0  0  0  0  0  0
    0.1002   -1.3630    1.9052 H   0  0  0  0  0  0  0  0  0  0  0  0
   -2.7897   -1.3882    1.6070 H   0  0  0  0  0  0  0  0  0  0  0  0
   -1.8928   -0.0515    2.3328 H   0  0  0  0  0  0  0  0  0  0  0  0
   -1.8464   -2.4185   -2.5825 H   0  0  0  0  0  0  0  0  0  0  0  0
   -0.7845   -3.6703    2.1816 H   0  0  0  0  0  0  0  0  0  0  0  0
   -0.8785   -4.7527    0.8019 H   0  0  0  0  0  0  0  0  0  0  0  0
   -2.0072   -3.4063    0.9189 H   0  0  0  0  0  0  0  0  0  0  0  0
   -3.4482   -0.4878   -2.2769 H   0  0  0  0  0  0  0  0  0  0  0  0
    1.3010   -4.3347    0.3225 H   0  0  0  0  0  0  0  0  0  0  0  0
   -5.2778    1.0291   -1.6848 H   0  0  0  0  0  0  0  0  0  0  0  0
   -5.2489    1.9673    1.2653 H   0  0  0  0  0  0  0  0  0  0  0  0
    6.2664    1.3199    0.9408 H   0  0  0  0  0  0  0  0  0  0  0  0
    3.8708    2.4546   -2.4408 H   0  0  0  0  0  0  0  0  0  0  0  0
    5.3753    0.0569    2.6792 H   0  0  0  0  0  0  0  0  0  0  0  0
    3.8806   -0.8289    2.4142 H   0  0  0  0  0  0  0  0  0  0  0  0
    3.8446    0.7930    3.1658 H   0  0  0  0  0  0  0  0  0  0  0  0
    0.9405    1.0624   -0.9733 H   0  0  0  0  0  0  0  0  0  0  0  0
   -7.0897    2.4279   -1.2338 H   0  0  0  0  0  0  0  0  0  0  0  0
    7.0583    2.3623   -0.8295 H   0  0  0  0  0  0  0  0  0  0  0  0
  1 10  1  0  0  0  0
  1 19  1  0  0  0  0
  2 13  1  0  0  0  0
  2 18  1  0  0  0  0
  3 11  1  0  0  0  0
  3 39  1  0  0  0  0
  4 14  2  0  0  0  0
  5 19  2  0  0  0  0
  6 23  1  0  0  0  0
  6 47  1  0  0  0  0
  7 28  1  0  0  0  0
  7 49  1  0  0  0  0
  8 29  2  0  0  0  0
  9 10  1  0  0  0  0
  9 12  1  0  0  0  0
  9 13  1  0  0  0  0
  9 30  1  0  0  0  0
 10 11  1  0  0  0  0
 10 31  1  0  0  0  0
 11 14  1  0  0  0  0
 11 16  1  0  0  0  0
 12 15  2  0  0  0  0
 12 17  1  0  0  0  0
 13 32  1  0  0  0  0
 13 33  1  0  0  0  0
 14 15  1  0  0  0  0
 15 34  1  0  0  0  0
 16 35  1  0  0  0  0
 16 36  1  0  0  0  0
 16 37  1  0  0  0  0
 17 18  2  0  0  0  0
 17 38  1  0  0  0  0
 18 20  1  0  0  0  0
 19 21  1  0  0  0  0
 20 24  2  0  0  0  0
 20 40  1  0  0  0  0
 21 22  1  0  0  0  0
 21 23  2  0  0  0  0
 22 25  2  0  0  0  0
 22 27  1  0  0  0  0
 23 26  1  0  0  0  0
 24 29  1  0  0  0  0
 24 41  1  0  0  0  0
 25 28  1  0  0  0  0
 25 42  1  0  0  0  0
 26 28  2  0  0  0  0
 26 43  1  0  0  0  0
 27 44  1  0  0  0  0
 27 45  1  0  0  0  0
 27 46  1  0  0  0  0
 29 48  1  0  0  0  0
M  END
> <PUBCHEM_COMPOUND_CID>
139589755

> <PUBCHEM_CONFORMER_RMSD>
0.8

> <PUBCHEM_CONFORMER_DIVERSEORDER>
1
10
11
24
41
33
31
32
21
37
40
43
28
18
23
14
12
19
29
20
25
9
42
5
27
34
36
30
7
16
17
22
35
26
15
39
8
4
6
3
2
38
13

> <PUBCHEM_MMFF94_PARTIAL_CHARGES>
38
1 -0.43
10 0.28
11 0.34
12 -0.14
13 0.28
14 0.49
15 -0.14
17 -0.15
18 0.08
19 0.63
2 -0.36
20 -0.15
21 0.09
22 -0.14
23 0.08
24 -0.14
25 -0.15
26 -0.15
27 0.14
28 0.08
29 0.5
3 -0.68
34 0.15
38 0.15
39 0.4
4 -0.57
40 0.15
41 0.15
42 0.15
43 0.15
47 0.45
48 0.06
49 0.45
5 -0.57
6 -0.53
7 -0.53
8 -0.57
9 0.14

> <PUBCHEM_EFFECTIVE_ROTOR_COUNT>
5.8

> <PUBCHEM_PHARMACOPHORE_FEATURES>
11
1 2 acceptor
1 3 acceptor
1 3 donor
1 4 acceptor
1 5 acceptor
1 6 donor
1 7 donor
1 8 acceptor
6 2 9 12 13 17 18 rings
6 21 22 23 25 26 28 rings
6 9 10 11 12 14 15 rings

> <PUBCHEM_HEAVY_ATOM_COUNT>
29

> <PUBCHEM_ATOM_DEF_STEREO_COUNT>
3

> <PUBCHEM_ATOM_UDEF_STEREO_COUNT>
0

> <PUBCHEM_BOND_DEF_STEREO_COUNT>
1

> <PUBCHEM_BOND_UDEF_STEREO_COUNT>
0

> <PUBCHEM_ISOTOPIC_ATOM_COUNT>
0

> <PUBCHEM_COMPONENT_COUNT>
1

> <PUBCHEM_CACTVS_TAUTO_COUNT>
-1

> <PUBCHEM_CONFORMER_ID>
0851F87B00000001

> <PUBCHEM_MMFF94_ENERGY>
77.1008

> <PUBCHEM_FEATURE_SELFOVERLAP>
55.862

> <PUBCHEM_SHAPE_FINGERPRINT>
105312 117 18339647844513423662
11370993 144 15864613012614962720
11578080 2 18264225651317999867
11823591 26 18410566288992355421
12422481 6 17896303728039956189
12633257 1 16877940542687445265
12714826 92 17768824404807085634
12788726 201 17975407237507680195
133893 2 18124893256416880635
13540713 5 18127383736696958183
13944108 23 18197780986367142593
14294032 229 18269844258657011227
15163728 17 18411144614944286893
15439362 3 18337676313102063374
16752209 62 18054500585419807690
17980427 23 17313109687493699743
21033648 29 18340198699871159936
21756936 100 18262519324233241208
22907989 373 17758671535610540110
23559900 14 17972045751952995291
3411729 13 18337672997666593341
397830 11 18041293067653881553
4015057 19 16056607624644991000
4058900 60 18338805511738682795
439807 62 12247384732086678981
45377200 153 14907310085585975557
469060 322 12757982606653327610
474 4 18334852780284955571
5104073 3 17168976967356502464
513532 50 15122639459573503859
57724786 102 18040431092722304532
59682541 52 16702025227504737812

> <PUBCHEM_SHAPE_MULTIPOLES>
549.85
13.49
4.14
1.83
8.96
3.15
0.13
-20.61
0.04
2.45
-0.89
-1.48
0.33
-1.88

> <PUBCHEM_SHAPE_SELFOVERLAP>
1190.741

> <PUBCHEM_SHAPE_VOLUME>
297.7

> <PUBCHEM_COORDINATE_TYPE>
2
5
10

$$$$
