139589504
  -OEChem-03292013293D

 60 60  0     1  0  0  0  0  0999 V2000
    3.5018    0.4679    0.6467 O   0  0  0  0  0  0  0  0  0  0  0  0
    7.1487   -0.7439   -0.9400 O   0  0  0  0  0  0  0  0  0  0  0  0
    1.2542   -2.9085   -0.4533 O   0  0  0  0  0  0  0  0  0  0  0  0
    4.3281    0.2304    2.7330 O   0  0  0  0  0  0  0  0  0  0  0  0
   -3.9935    2.9276    1.6846 O   0  0  0  0  0  0  0  0  0  0  0  0
   -8.6600   -2.2132   -0.3757 O   0  0  0  0  0  0  0  0  0  0  0  0
    3.5604    0.0878   -0.7466 C   0  0  1  0  0  0  0  0  0  0  0  0
    4.9681    0.3119   -1.3063 C   0  0  2  0  0  0  0  0  0  0  0  0
    3.0595   -1.3491   -0.8942 C   0  0  0  0  0  0  0  0  0  0  0  0
    5.9729   -0.2967   -0.3687 C   0  0  0  0  0  0  0  0  0  0  0  0
    1.6690   -1.5553   -0.2827 C   0  0  1  0  0  0  0  0  0  0  0  0
    5.2678    1.8025   -1.4913 C   0  0  0  0  0  0  0  0  0  0  0  0
    5.7421   -0.4271    0.9480 C   0  0  0  0  0  0  0  0  0  0  0  0
    4.4779    0.1068    1.5215 C   0  0  0  0  0  0  0  0  0  0  0  0
    0.6525   -0.6833   -0.9678 C   0  0  0  0  0  0  0  0  0  0  0  0
    6.7082   -1.0379    1.9191 C   0  0  0  0  0  0  0  0  0  0  0  0
   -0.1039    0.2177   -0.3194 C   0  0  0  0  0  0  0  0  0  0  0  0
   -1.1109    1.1029   -0.9071 C   0  0  0  0  0  0  0  0  0  0  0  0
   -1.7779    1.9496   -0.0952 C   0  0  0  0  0  0  0  0  0  0  0  0
   -2.8636    2.9316   -0.4595 C   0  0  0  0  0  0  0  0  0  0  0  0
   -4.1855    2.6984    0.2908 C   0  0  1  0  0  0  0  0  0  0  0  0
   -1.3284    1.0247   -2.3955 C   0  0  0  0  0  0  0  0  0  0  0  0
   -4.7835    1.3388    0.0261 C   0  0  0  0  0  0  0  0  0  0  0  0
   -5.0461    0.3976    0.9481 C   0  0  0  0  0  0  0  0  0  0  0  0
   -5.6021   -0.9210    0.6625 C   0  0  0  0  0  0  0  0  0  0  0  0
   -5.0089   -2.0115    1.5118 C   0  0  0  0  0  0  0  0  0  0  0  0
   -6.5779   -1.0893   -0.2519 C   0  0  0  0  0  0  0  0  0  0  0  0
   -7.2691   -2.3595   -0.6368 C   0  0  0  0  0  0  0  0  0  0  0  0
    2.8756    0.7598   -1.2769 H   0  0  0  0  0  0  0  0  0  0  0  0
    5.0294   -0.1709   -2.2900 H   0  0  0  0  0  0  0  0  0  0  0  0
    3.0521   -1.6387   -1.9535 H   0  0  0  0  0  0  0  0  0  0  0  0
    3.7399   -2.0573   -0.4049 H   0  0  0  0  0  0  0  0  0  0  0  0
    1.7025   -1.3662    0.7962 H   0  0  0  0  0  0  0  0  0  0  0  0
    5.2053    2.3545   -0.5468 H   0  0  0  0  0  0  0  0  0  0  0  0
    4.5558    2.2541   -2.1905 H   0  0  0  0  0  0  0  0  0  0  0  0
    6.2732    1.9522   -1.9007 H   0  0  0  0  0  0  0  0  0  0  0  0
    0.5474   -0.8252   -2.0403 H   0  0  0  0  0  0  0  0  0  0  0  0
    7.0264   -0.2965    2.6594 H   0  0  0  0  0  0  0  0  0  0  0  0
    7.6087   -1.4239    1.4316 H   0  0  0  0  0  0  0  0  0  0  0  0
    6.2372   -1.8746    2.4457 H   0  0  0  0  0  0  0  0  0  0  0  0
    7.1227   -0.5331   -1.8888 H   0  0  0  0  0  0  0  0  0  0  0  0
    0.3921   -3.0120   -0.0147 H   0  0  0  0  0  0  0  0  0  0  0  0
    0.0400    0.3115    0.7564 H   0  0  0  0  0  0  0  0  0  0  0  0
   -1.5313    1.9489    0.9671 H   0  0  0  0  0  0  0  0  0  0  0  0
   -3.0691    2.9484   -1.5322 H   0  0  0  0  0  0  0  0  0  0  0  0
   -2.4848    3.9299   -0.2045 H   0  0  0  0  0  0  0  0  0  0  0  0
   -4.9126    3.4460   -0.0493 H   0  0  0  0  0  0  0  0  0  0  0  0
   -1.6637    0.0209   -2.6796 H   0  0  0  0  0  0  0  0  0  0  0  0
   -0.3983    1.2476   -2.9305 H   0  0  0  0  0  0  0  0  0  0  0  0
   -2.0774    1.7210   -2.7750 H   0  0  0  0  0  0  0  0  0  0  0  0
   -4.9972    1.1348   -1.0217 H   0  0  0  0  0  0  0  0  0  0  0  0
   -4.8139    0.5861    1.9934 H   0  0  0  0  0  0  0  0  0  0  0  0
   -3.6663    3.8371    1.7915 H   0  0  0  0  0  0  0  0  0  0  0  0
   -3.9182   -2.0278    1.4023 H   0  0  0  0  0  0  0  0  0  0  0  0
   -5.3650   -3.0105    1.2536 H   0  0  0  0  0  0  0  0  0  0  0  0
   -5.2449   -1.8445    2.5687 H   0  0  0  0  0  0  0  0  0  0  0  0
   -6.9480   -0.2173   -0.7908 H   0  0  0  0  0  0  0  0  0  0  0  0
   -6.9138   -3.2387   -0.0979 H   0  0  0  0  0  0  0  0  0  0  0  0
   -7.1354   -2.5359   -1.7089 H   0  0  0  0  0  0  0  0  0  0  0  0
   -9.0932   -3.0326   -0.6700 H   0  0  0  0  0  0  0  0  0  0  0  0
  1  7  1  0  0  0  0
  1 14  1  0  0  0  0
  2 10  1  0  0  0  0
  2 41  1  0  0  0  0
  3 11  1  0  0  0  0
  3 42  1  0  0  0  0
  4 14  2  0  0  0  0
  5 21  1  0  0  0  0
  5 53  1  0  0  0  0
  6 28  1  0  0  0  0
  6 60  1  0  0  0  0
  7  8  1  0  0  0  0
  7  9  1  0  0  0  0
  7 29  1  0  0  0  0
  8 10  1  0  0  0  0
  8 12  1  0  0  0  0
  8 30  1  0  0  0  0
  9 11  1  0  0  0  0
  9 31  1  0  0  0  0
  9 32  1  0  0  0  0
 10 13  2  0  0  0  0
 11 15  1  0  0  0  0
 11 33  1  0  0  0  0
 12 34  1  0  0  0  0
 12 35  1  0  0  0  0
 12 36  1  0  0  0  0
 13 14  1  0  0  0  0
 13 16  1  0  0  0  0
 15 17  2  0  0  0  0
 15 37  1  0  0  0  0
 16 38  1  0  0  0  0
 16 39  1  0  0  0  0
 16 40  1  0  0  0  0
 17 18  1  0  0  0  0
 17 43  1  0  0  0  0
 18 19  2  0  0  0  0
 18 22  1  0  0  0  0
 19 20  1  0  0  0  0
 19 44  1  0  0  0  0
 20 21  1  0  0  0  0
 20 45  1  0  0  0  0
 20 46  1  0  0  0  0
 21 23  1  0  0  0  0
 21 47  1  0  0  0  0
 22 48  1  0  0  0  0
 22 49  1  0  0  0  0
 22 50  1  0  0  0  0
 23 24  2  0  0  0  0
 23 51  1  0  0  0  0
 24 25  1  0  0  0  0
 24 52  1  0  0  0  0
 25 26  1  0  0  0  0
 25 27  2  0  0  0  0
 26 54  1  0  0  0  0
 26 55  1  0  0  0  0
 26 56  1  0  0  0  0
 27 28  1  0  0  0  0
 27 57  1  0  0  0  0
 28 58  1  0  0  0  0
 28 59  1  0  0  0  0
M  END
> <PUBCHEM_COMPOUND_CID>
139589504

> <PUBCHEM_CONFORMER_RMSD>
1.2

> <PUBCHEM_CONFORMER_DIVERSEORDER>
3
71
77
16
120
55
64
114
7
158
83
76
119
147
184
90
44
95
60
104
39
117
11
197
151
169
79
125
82
99
128
69
98
93
108
24
146
139
88
157
177
52
129
182
126
150
110
28
198
97
86
180
1
61
161
6
15
143
160
194
26
49
186
122
57
59
118
113
65
103
87
196
166
46
132
141
91
96
195
155
175
171
176
53
167
164
123
94
137
156
45
190
54
187
56
19
191
188
74
40
48
29
67
170
173
152
159
68
66
62
148
185
89
41
84
145
165
101
116
115
34
142
181
105
192
133
81
149
189
63
12
135
106
2
73
50
107
51
183
30
75
138
18
43
5
10
102
112
14
131
140
121
144
33
42
153
163
31
127
124
130
23
162
72
8
85
80
32
37
136
168
179
109
17
21
193
134
92
178
25
22
35
100
58
36
111
20
174
4
38
13
9
172
47
27
70
154
78

> <PUBCHEM_MMFF94_PARTIAL_CHARGES>
36
1 -0.43
10 -0.06
11 0.42
13 -0.12
14 0.71
15 -0.29
16 0.14
17 -0.15
18 -0.14
19 -0.29
2 -0.53
20 0.14
21 0.42
22 0.14
23 -0.29
24 -0.15
25 -0.14
26 0.14
27 -0.29
28 0.42
3 -0.68
37 0.15
4 -0.57
41 0.45
42 0.4
43 0.15
44 0.15
5 -0.68
51 0.15
52 0.15
53 0.4
57 0.15
6 -0.68
60 0.4
7 0.28
8 0.14

> <PUBCHEM_EFFECTIVE_ROTOR_COUNT>
9.6

> <PUBCHEM_PHARMACOPHORE_FEATURES>
11
1 2 donor
1 22 hydrophobe
1 26 hydrophobe
1 3 acceptor
1 3 donor
1 4 acceptor
1 5 acceptor
1 5 donor
1 6 acceptor
1 6 donor
6 1 7 8 10 13 14 rings

> <PUBCHEM_HEAVY_ATOM_COUNT>
28

> <PUBCHEM_ATOM_DEF_STEREO_COUNT>
4

> <PUBCHEM_ATOM_UDEF_STEREO_COUNT>
0

> <PUBCHEM_BOND_DEF_STEREO_COUNT>
4

> <PUBCHEM_BOND_UDEF_STEREO_COUNT>
0

> <PUBCHEM_ISOTOPIC_ATOM_COUNT>
0

> <PUBCHEM_COMPONENT_COUNT>
1

> <PUBCHEM_CACTVS_TAUTO_COUNT>
-1

> <PUBCHEM_CONFORMER_ID>
0851F78000000003

> <PUBCHEM_MMFF94_ENERGY>
50.5349

> <PUBCHEM_FEATURE_SELFOVERLAP>
55.823

> <PUBCHEM_SHAPE_FINGERPRINT>
10613725 11 11743833647195856580
10904742 90 8646501700567042591
11646440 116 17418089902299101528
11724838 91 18187366545656638340
11796584 16 11746945299436119652
12730499 353 17489871506038694078
128238 76 18333735740357444638
13533116 47 16515681126932686944
13631057 29 18412829080022768929
14068700 675 18337672018762553845
1454969 45 18335990847596602605
15183329 4 9799687078403884673
15188451 53 18187077356317199001
17913733 40 17775286023683796846
18608769 82 18202562895463054108
19377110 9 18408600336025841278
249057 3 7925911479047236959
3009799 131 14129058136323715293
3633792 109 15357690881626132435
4325135 7 18261397723815671381
444735 79 18273213119134390623
5104073 3 18127973005592082763
57307002 182 17531522205022116764

> <PUBCHEM_SHAPE_MULTIPOLES>
541.01
22.24
2.93
1.84
10.12
0.77
-0.58
-10.93
-2.98
5.57
-0.01
-1.89
0.18
-1.77

> <PUBCHEM_SHAPE_SELFOVERLAP>
1083.176

> <PUBCHEM_SHAPE_VOLUME>
317

> <PUBCHEM_COORDINATE_TYPE>
2
5
10

$$$$
