139584552
  -OEChem-03292013293D

 48 54  0     1  0  0  0  0  0999 V2000
   -0.1167   -0.8915   -1.9649 O   0  0  0  0  0  0  0  0  0  0  0  0
    2.7818    3.2201    0.4775 O   0  0  0  0  0  0  0  0  0  0  0  0
   -4.5883    0.7425   -0.7659 O   0  0  0  0  0  0  0  0  0  0  0  0
    2.2923   -2.5599    0.1984 O   0  0  0  0  0  0  0  0  0  0  0  0
    4.4696    0.6324   -1.2795 O   0  0  0  0  0  0  0  0  0  0  0  0
    0.5717    1.4714    2.1023 O   0  0  0  0  0  0  0  0  0  0  0  0
   -1.5962    2.8460   -0.3262 O   0  0  0  0  0  0  0  0  0  0  0  0
   -3.6828   -1.5961    1.3982 O   0  0  0  0  0  0  0  0  0  0  0  0
    0.8861    0.0329    0.0698 C   0  0  2  0  0  0  0  0  0  0  0  0
    0.3091   -1.1821    0.8855 C   0  0  1  0  0  0  0  0  0  0  0  0
   -0.9692   -1.7325    0.1697 C   0  0  1  0  0  0  0  0  0  0  0  0
   -0.1162    0.2931   -1.1194 C   0  0  2  0  0  0  0  0  0  0  0  0
   -1.5216    0.4903   -0.5632 C   0  0  0  0  0  0  0  0  0  0  0  0
   -1.9472   -0.5673    0.1512 C   0  0  0  0  0  0  0  0  0  0  0  0
    2.3083   -0.2427   -0.4806 C   0  0  0  0  0  0  0  0  0  0  0  0
    0.9791    1.3320    0.9600 C   0  0  0  0  0  0  0  0  0  0  0  0
   -0.7754   -2.0135   -1.3391 C   0  0  2  0  0  0  0  0  0  0  0  0
    1.6495    2.4338    0.2324 C   0  0  2  0  0  0  0  0  0  0  0  0
    3.1486    1.8969    0.2270 C   0  0  1  0  0  0  0  0  0  0  0  0
    1.3432   -2.2722    1.2274 C   0  0  2  0  0  0  0  0  0  0  0  0
    3.1312    0.9841   -0.9462 C   0  0  1  0  0  0  0  0  0  0  0  0
   -2.3193    1.7286   -0.8398 C   0  0  1  0  0  0  0  0  0  0  0  0
   -3.6939    1.7335   -0.2392 C   0  0  2  0  0  0  0  0  0  0  0  0
   -4.1486    0.5634    0.5906 C   0  0  2  0  0  0  0  0  0  0  0  0
   -3.2859   -0.6234    0.7708 C   0  0  0  0  0  0  0  0  0  0  0  0
    2.8437   -1.4698   -0.4084 C   0  0  0  0  0  0  0  0  0  0  0  0
   -0.0625   -3.3043   -1.7047 C   0  0  0  0  0  0  0  0  0  0  0  0
    2.1096   -1.9455    2.5162 C   0  0  0  0  0  0  0  0  0  0  0  0
   -0.0630   -0.8221    1.8560 H   0  0  0  0  0  0  0  0  0  0  0  0
   -1.3876   -2.5996    0.6906 H   0  0  0  0  0  0  0  0  0  0  0  0
    0.1793    1.1313   -1.7557 H   0  0  0  0  0  0  0  0  0  0  0  0
   -1.7671   -2.0882   -1.8104 H   0  0  0  0  0  0  0  0  0  0  0  0
    1.1472    2.7304   -0.6801 H   0  0  0  0  0  0  0  0  0  0  0  0
    3.5708    1.3988    1.0964 H   0  0  0  0  0  0  0  0  0  0  0  0
    0.8113   -3.2126    1.4171 H   0  0  0  0  0  0  0  0  0  0  0  0
    2.6782    1.4223   -1.8428 H   0  0  0  0  0  0  0  0  0  0  0  0
   -2.4028    1.8609   -1.9248 H   0  0  0  0  0  0  0  0  0  0  0  0
   -4.1077    2.7161   -0.0612 H   0  0  0  0  0  0  0  0  0  0  0  0
   -4.8654    0.7637    1.3784 H   0  0  0  0  0  0  0  0  0  0  0  0
    3.8125   -1.7357   -0.8086 H   0  0  0  0  0  0  0  0  0  0  0  0
    1.0220   -3.2106   -1.6874 H   0  0  0  0  0  0  0  0  0  0  0  0
   -0.3047   -3.5713   -2.7405 H   0  0  0  0  0  0  0  0  0  0  0  0
   -0.3757   -4.1344   -1.0653 H   0  0  0  0  0  0  0  0  0  0  0  0
    2.6680   -1.0076    2.4300 H   0  0  0  0  0  0  0  0  0  0  0  0
    2.8420   -2.7308    2.7329 H   0  0  0  0  0  0  0  0  0  0  0  0
    1.4291   -1.8624    3.3695 H   0  0  0  0  0  0  0  0  0  0  0  0
    4.9264    1.4476   -1.5492 H   0  0  0  0  0  0  0  0  0  0  0  0
   -2.0369    3.6527   -0.6437 H   0  0  0  0  0  0  0  0  0  0  0  0
  1 12  1  0  0  0  0
  1 17  1  0  0  0  0
  2 18  1  0  0  0  0
  2 19  1  0  0  0  0
  3 23  1  0  0  0  0
  3 24  1  0  0  0  0
  4 20  1  0  0  0  0
  4 26  1  0  0  0  0
  5 21  1  0  0  0  0
  5 47  1  0  0  0  0
  6 16  2  0  0  0  0
  7 22  1  0  0  0  0
  7 48  1  0  0  0  0
  8 25  2  0  0  0  0
  9 10  1  0  0  0  0
  9 12  1  0  0  0  0
  9 15  1  0  0  0  0
  9 16  1  0  0  0  0
 10 11  1  0  0  0  0
 10 20  1  0  0  0  0
 10 29  1  0  0  0  0
 11 14  1  0  0  0  0
 11 17  1  0  0  0  0
 11 30  1  0  0  0  0
 12 13  1  0  0  0  0
 12 31  1  0  0  0  0
 13 14  2  0  0  0  0
 13 22  1  0  0  0  0
 14 25  1  0  0  0  0
 15 21  1  0  0  0  0
 15 26  2  0  0  0  0
 16 18  1  0  0  0  0
 17 27  1  0  0  0  0
 17 32  1  0  0  0  0
 18 19  1  0  0  0  0
 18 33  1  0  0  0  0
 19 21  1  0  0  0  0
 19 34  1  0  0  0  0
 20 28  1  0  0  0  0
 20 35  1  0  0  0  0
 21 36  1  0  0  0  0
 22 23  1  0  0  0  0
 22 37  1  0  0  0  0
 23 24  1  0  0  0  0
 23 38  1  0  0  0  0
 24 25  1  0  0  0  0
 24 39  1  0  0  0  0
 26 40  1  0  0  0  0
 27 41  1  0  0  0  0
 27 42  1  0  0  0  0
 27 43  1  0  0  0  0
 28 44  1  0  0  0  0
 28 45  1  0  0  0  0
 28 46  1  0  0  0  0
M  END
> <PUBCHEM_COMPOUND_CID>
139584552

> <PUBCHEM_CONFORMER_RMSD>
0.6

> <PUBCHEM_CONFORMER_DIVERSEORDER>
1

> <PUBCHEM_MMFF94_PARTIAL_CHARGES>
32
1 -0.56
11 0.14
12 0.42
13 -0.28
14 -0.12
15 -0.28
16 0.51
17 0.28
18 0.05
19 -0.05
2 -0.3
20 0.28
21 0.51
22 0.51
23 -0.05
24 0.05
25 0.56
26 -0.07
3 -0.3
33 0.1
34 0.1
38 0.1
39 0.1
4 -0.36
40 0.15
47 0.4
48 0.4
5 -0.68
6 -0.57
7 -0.68
8 -0.57
9 0.2

> <PUBCHEM_EFFECTIVE_ROTOR_COUNT>
1.6

> <PUBCHEM_PHARMACOPHORE_FEATURES>
14
1 1 acceptor
1 2 acceptor
1 3 acceptor
1 4 acceptor
1 5 acceptor
1 5 donor
1 6 acceptor
1 7 acceptor
1 7 donor
1 8 acceptor
6 4 9 10 15 20 26 rings
7 2 9 15 16 18 19 21 rings
7 3 13 14 22 23 24 25 rings
8 1 9 10 11 12 13 14 17 rings

> <PUBCHEM_HEAVY_ATOM_COUNT>
28

> <PUBCHEM_ATOM_DEF_STEREO_COUNT>
11

> <PUBCHEM_ATOM_UDEF_STEREO_COUNT>
1

> <PUBCHEM_BOND_DEF_STEREO_COUNT>
0

> <PUBCHEM_BOND_UDEF_STEREO_COUNT>
0

> <PUBCHEM_ISOTOPIC_ATOM_COUNT>
0

> <PUBCHEM_COMPONENT_COUNT>
1

> <PUBCHEM_CACTVS_TAUTO_COUNT>
-1

> <PUBCHEM_CONFORMER_ID>
0851E42800000001

> <PUBCHEM_MMFF94_ENERGY>
135.2453

> <PUBCHEM_FEATURE_SELFOVERLAP>
71.099

> <PUBCHEM_SHAPE_FINGERPRINT>
10165383 225 18186810187861097756
10366900 7 18187650244988538705
10863032 1 18114469972000201579
10930396 42 15322739928510338784
10948715 1 18339929341022992718
1100329 8 17471856896390284744
11578080 2 16516515587037850967
12633257 1 18118120260868982681
13140716 1 18266168625196688640
13224815 77 18410568501047939461
133893 2 17463365634804224218
13583140 156 18334013917289901671
14223421 5 18333733515938860121
14713325 29 16963806078799652824
14787075 74 17680442331287045795
14955137 171 18264758884123902130
16945 1 18411978100439812990
18981168 100 17532348942352965285
19591789 44 18339929340906889823
20600515 1 17035551969395146558
20691752 17 17972031715239748950
20905425 154 18335427820091150413
23227448 37 18198344167931286404
23419403 2 17044644196233685950
23558518 356 17761763366634136892
23559900 14 18040716935385213397
238 59 18123158278818906381
3380486 77 17033304580449408865
394222 165 18334016060436306914
495365 180 18200011985679748809
5104073 3 18115029602724892065
5265222 85 18119824745027804844
6442390 28 18043258026947711266
70251023 43 17555445485528390406
7097593 13 17825373090634427803
7364860 26 18337387145622361834
81228 2 17259327298762556089

> <PUBCHEM_SHAPE_MULTIPOLES>
529.27
6.38
3.41
1.68
3.48
0.03
0.38
-2.49
-0.01
-1.45
-0.03
-0.53
0.92
0.03

> <PUBCHEM_SHAPE_SELFOVERLAP>
1198.011

> <PUBCHEM_SHAPE_VOLUME>
270.8

> <PUBCHEM_COORDINATE_TYPE>
2
5
10

$$$$
