139583965
  -OEChem-03292013293D

 50 53  0     1  0  0  0  0  0999 V2000
   -2.8461    1.6435    0.2431 O   0  0  0  0  0  0  0  0  0  0  0  0
   -2.6890   -0.7147    0.4567 O   0  0  0  0  0  0  0  0  0  0  0  0
   -6.5756    0.4027   -1.0808 O   0  0  0  0  0  0  0  0  0  0  0  0
   -6.3399    1.7726    1.4119 O   0  0  0  0  0  0  0  0  0  0  0  0
   -4.1786    1.1810   -2.2611 O   0  0  0  0  0  0  0  0  0  0  0  0
   -2.9191   -3.4299   -0.1120 O   0  0  0  0  0  0  0  0  0  0  0  0
    4.3280   -1.0135    1.3841 O   0  0  0  0  0  0  0  0  0  0  0  0
    1.8525    0.5222   -1.4730 O   0  0  0  0  0  0  0  0  0  0  0  0
    7.8415    1.9213    0.1248 O   0  0  0  0  0  0  0  0  0  0  0  0
   -5.3800    0.4084   -0.3041 C   0  0  2  0  0  0  0  0  0  0  0  0
   -5.2811    1.7302    0.4583 C   0  0  2  0  0  0  0  0  0  0  0  0
   -4.1668    0.2092   -1.2142 C   0  0  2  0  0  0  0  0  0  0  0  0
   -3.9232    1.8301    1.1670 C   0  0  2  0  0  0  0  0  0  0  0  0
   -2.8652    0.3819   -0.4336 C   0  0  1  0  0  0  0  0  0  0  0  0
   -3.7183    3.1938    1.8208 C   0  0  0  0  0  0  0  0  0  0  0  0
   -1.5732   -1.4864    0.2696 C   0  0  0  0  0  0  0  0  0  0  0  0
   -0.3104   -0.9016    0.3659 C   0  0  0  0  0  0  0  0  0  0  0  0
   -1.6918   -2.8468   -0.0154 C   0  0  0  0  0  0  0  0  0  0  0  0
    0.8336   -1.6770    0.1771 C   0  0  0  0  0  0  0  0  0  0  0  0
    2.1658   -1.0593    0.2792 C   0  0  0  0  0  0  0  0  0  0  0  0
   -0.5477   -3.6221   -0.2040 C   0  0  0  0  0  0  0  0  0  0  0  0
    0.7150   -3.0372   -0.1078 C   0  0  0  0  0  0  0  0  0  0  0  0
    2.5950    0.0420   -0.6263 C   0  0  0  0  0  0  0  0  0  0  0  0
    3.9697    0.5431   -0.4434 C   0  0  0  0  0  0  0  0  0  0  0  0
    3.0530   -1.4868    1.1903 C   0  0  0  0  0  0  0  0  0  0  0  0
    4.7672   -0.0117    0.5569 C   0  0  0  0  0  0  0  0  0  0  0  0
    4.4703    1.5633   -1.2567 C   0  0  0  0  0  0  0  0  0  0  0  0
    6.0694    0.4502    0.7500 C   0  0  0  0  0  0  0  0  0  0  0  0
    5.7734    2.0233   -1.0621 C   0  0  0  0  0  0  0  0  0  0  0  0
    6.5714    1.4681   -0.0611 C   0  0  0  0  0  0  0  0  0  0  0  0
   -5.4590   -0.4236    0.4067 H   0  0  0  0  0  0  0  0  0  0  0  0
   -5.4270    2.5699   -0.2313 H   0  0  0  0  0  0  0  0  0  0  0  0
   -4.2232   -0.7797   -1.6838 H   0  0  0  0  0  0  0  0  0  0  0  0
   -3.8495    1.0732    1.9586 H   0  0  0  0  0  0  0  0  0  0  0  0
   -2.0430    0.4333   -1.1596 H   0  0  0  0  0  0  0  0  0  0  0  0
   -3.7429    3.9934    1.0721 H   0  0  0  0  0  0  0  0  0  0  0  0
   -2.7344    3.2425    2.3002 H   0  0  0  0  0  0  0  0  0  0  0  0
   -4.4830    3.3966    2.5764 H   0  0  0  0  0  0  0  0  0  0  0  0
   -6.6090   -0.4431   -1.5596 H   0  0  0  0  0  0  0  0  0  0  0  0
   -6.2027    1.0491    2.0470 H   0  0  0  0  0  0  0  0  0  0  0  0
   -3.4328    0.9845   -2.8533 H   0  0  0  0  0  0  0  0  0  0  0  0
   -0.2211    0.1564    0.6032 H   0  0  0  0  0  0  0  0  0  0  0  0
   -0.6258   -4.6827   -0.4277 H   0  0  0  0  0  0  0  0  0  0  0  0
    1.5944   -3.6576   -0.2636 H   0  0  0  0  0  0  0  0  0  0  0  0
    2.8553   -2.2797    1.9014 H   0  0  0  0  0  0  0  0  0  0  0  0
   -2.8060   -4.3744   -0.3148 H   0  0  0  0  0  0  0  0  0  0  0  0
    3.8652    2.0090   -2.0412 H   0  0  0  0  0  0  0  0  0  0  0  0
    6.6927    0.0195    1.5295 H   0  0  0  0  0  0  0  0  0  0  0  0
    6.1559    2.8169   -1.6986 H   0  0  0  0  0  0  0  0  0  0  0  0
    8.0230    2.6248   -0.5218 H   0  0  0  0  0  0  0  0  0  0  0  0
  1 13  1  0  0  0  0
  1 14  1  0  0  0  0
  2 14  1  0  0  0  0
  2 16  1  0  0  0  0
  3 10  1  0  0  0  0
  3 39  1  0  0  0  0
  4 11  1  0  0  0  0
  4 40  1  0  0  0  0
  5 12  1  0  0  0  0
  5 41  1  0  0  0  0
  6 18  1  0  0  0  0
  6 46  1  0  0  0  0
  7 25  1  0  0  0  0
  7 26  1  0  0  0  0
  8 23  2  0  0  0  0
  9 30  1  0  0  0  0
  9 50  1  0  0  0  0
 10 11  1  0  0  0  0
 10 12  1  0  0  0  0
 10 31  1  0  0  0  0
 11 13  1  0  0  0  0
 11 32  1  0  0  0  0
 12 14  1  0  0  0  0
 12 33  1  0  0  0  0
 13 15  1  0  0  0  0
 13 34  1  0  0  0  0
 14 35  1  0  0  0  0
 15 36  1  0  0  0  0
 15 37  1  0  0  0  0
 15 38  1  0  0  0  0
 16 17  1  0  0  0  0
 16 18  2  0  0  0  0
 17 19  2  0  0  0  0
 17 42  1  0  0  0  0
 18 21  1  0  0  0  0
 19 20  1  0  0  0  0
 19 22  1  0  0  0  0
 20 23  1  0  0  0  0
 20 25  2  0  0  0  0
 21 22  2  0  0  0  0
 21 43  1  0  0  0  0
 22 44  1  0  0  0  0
 23 24  1  0  0  0  0
 24 26  2  0  0  0  0
 24 27  1  0  0  0  0
 25 45  1  0  0  0  0
 26 28  1  0  0  0  0
 27 29  2  0  0  0  0
 27 47  1  0  0  0  0
 28 30  2  0  0  0  0
 28 48  1  0  0  0  0
 29 30  1  0  0  0  0
 29 49  1  0  0  0  0
M  END
> <PUBCHEM_COMPOUND_CID>
139583965

> <PUBCHEM_CONFORMER_RMSD>
1

> <PUBCHEM_CONFORMER_DIVERSEORDER>
1
96
137
91
155
177
69
130
141
57
110
8
67
133
143
86
121
119
5
13
125
114
134
142
103
166
111
160
109
82
128
176
126
147
100
6
129
101
26
173
170
61
174
34
113
145
138
2
16
3
159
39
164
180
40
161
132
49
99
28
124
105
148
152
24
158
116
167
163
122
88
47
94
7
106
154
175
136
118
51
76
150
54
139
115
117
102
20
70
104
168
95
179
22
37
83
127
68
146
79
23
153
171
157
55
162
123
66
52
80
21
44
112
120
35
38
4
172
9
89
43
74
77
84
48
73
62
46
33
72
97
27
36
149
30
156
71
169
53
165
60
78
58
87
17
85
50
144
12
90
15
25
107
98
151
45
56
140
92
63
59
14
178
81
10
11
135
131
18
42
93
108
31
64
19
65
29
75
32
41

> <PUBCHEM_MMFF94_PARTIAL_CHARGES>
41
1 -0.56
10 0.28
11 0.28
12 0.28
13 0.28
14 0.56
16 0.08
17 -0.15
18 0.08
19 0.03
2 -0.36
20 -0.01
21 -0.15
22 -0.15
23 0.47
24 0.09
25 -0.07
26 0.08
27 -0.15
28 -0.15
29 -0.15
3 -0.68
30 0.08
39 0.4
4 -0.68
40 0.4
41 0.4
42 0.15
43 0.15
44 0.15
45 0.15
46 0.45
47 0.15
48 0.15
49 0.15
5 -0.68
50 0.45
6 -0.53
7 -0.16
8 -0.57
9 -0.53

> <PUBCHEM_EFFECTIVE_ROTOR_COUNT>
4.2

> <PUBCHEM_PHARMACOPHORE_FEATURES>
16
1 1 acceptor
1 2 acceptor
1 3 acceptor
1 3 donor
1 4 acceptor
1 4 donor
1 5 acceptor
1 5 donor
1 6 donor
1 7 acceptor
1 8 acceptor
1 9 donor
6 1 10 11 12 13 14 rings
6 16 17 18 19 21 22 rings
6 24 26 27 28 29 30 rings
6 7 20 23 24 25 26 rings

> <PUBCHEM_HEAVY_ATOM_COUNT>
30

> <PUBCHEM_ATOM_DEF_STEREO_COUNT>
0

> <PUBCHEM_ATOM_UDEF_STEREO_COUNT>
5

> <PUBCHEM_BOND_DEF_STEREO_COUNT>
0

> <PUBCHEM_BOND_UDEF_STEREO_COUNT>
0

> <PUBCHEM_ISOTOPIC_ATOM_COUNT>
0

> <PUBCHEM_COMPONENT_COUNT>
1

> <PUBCHEM_CACTVS_TAUTO_COUNT>
-1

> <PUBCHEM_CONFORMER_ID>
0851E1DD00000001

> <PUBCHEM_MMFF94_ENERGY>
98.9596

> <PUBCHEM_FEATURE_SELFOVERLAP>
81.284

> <PUBCHEM_SHAPE_FINGERPRINT>
10 15 16877663482979546820
10411042 1 17691124164267003655
10454371 7 18270962452690671255
11135609 187 18337103485304233461
11135609 201 18272382961847823923
12107183 9 18335412410635365730
12128747 34 15431425136528334081
12390115 104 18411147956102230546
12422481 6 17168139027594274806
12760667 363 9943808893635189023
12788726 201 17703235000893111056
13103583 49 11891336413401099551
13583140 156 16950844700602115747
13782708 43 12324232889290073656
13911987 19 18338504288802986421
14294032 229 18130231570460034251
14394314 77 18340210704737885769
14767858 380 18270665542382324711
14790565 3 18341056207155533249
14840074 17 17968105213220215460
14849402 71 18050293565678829410
14950920 106 13551194402671907412
15163728 17 18271535225250564382
15188451 53 13768221518727848105
15513586 35 17317628799873387844
16126227 98 18340493347601763641
18393751 57 18187089412907818171
18608769 82 18341054133419454723
20511986 3 18114728435064386392
21033648 144 18187079538213619151
21033650 10 17131561556597276707
21756936 100 18272370892704995255
23569917 315 18410572851566337803
2838139 119 18187355532748509764
4098825 35 16199885959485682781
4258327 124 17749961071287353047
445580 204 18202566167970099600
474 4 18265052436416604483
5104073 3 17895467142168535626
5372103 7 17459728369299269765
54039377 194 10447930602805132028
563151 74 16370996386932073105
6058803 2 17898563440175274682
6299153 45 18261385621225708874
6327066 14 18408036308288648071
6371009 1 18410008832012526933
6608658 132 18130497579132541549
6700243 42 17409407239057434326
7808743 9 18411702101462021826
7970288 3 8934992651187604264
9849439 229 18197789795186278673

> <PUBCHEM_SHAPE_MULTIPOLES>
564.56
17.35
3.62
1.38
9.37
2.29
0.16
-15.99
0.14
-2.19
-0.65
-0.84
-0.8
-2.26

> <PUBCHEM_SHAPE_SELFOVERLAP>
1240.297

> <PUBCHEM_SHAPE_VOLUME>
302.4

> <PUBCHEM_COORDINATE_TYPE>
2
5
10

$$$$
