139585570
  -OEChem-03292013293D

 34 36  0     0  0  0  0  0  0999 V2000
    4.7805   -0.9455    0.3998 S   0  0  0  0  0  0  0  0  0  0  0  0
    4.0673    0.0536   -0.6940 O   0  0  0  0  0  0  0  0  0  0  0  0
   -0.2874   -2.4750   -0.4303 O   0  0  0  0  0  0  0  0  0  0  0  0
   -1.6432    2.6602    0.1610 O   0  0  0  0  0  0  0  0  0  0  0  0
   -4.1249    2.0687    0.3876 O   0  0  0  0  0  0  0  0  0  0  0  0
    0.7956    3.4172   -0.0427 O   0  0  0  0  0  0  0  0  0  0  0  0
    6.3669   -0.5778    0.2882 O   0  0  0  0  0  0  0  0  0  0  0  0
    4.3316   -0.5846    1.7320 O   0  0  0  0  0  0  0  0  0  0  0  0
    4.6170   -2.3072   -0.0754 O   0  0  0  0  0  0  0  0  0  0  0  0
   -2.0115   -0.9137   -0.1027 C   0  0  0  0  0  0  0  0  0  0  0  0
   -2.3658    0.4282    0.0517 C   0  0  0  0  0  0  0  0  0  0  0  0
    0.0810    1.0990   -0.1630 C   0  0  0  0  0  0  0  0  0  0  0  0
    0.4353   -0.2429   -0.3174 C   0  0  0  0  0  0  0  0  0  0  0  0
   -0.5979   -1.2982   -0.2931 C   0  0  0  0  0  0  0  0  0  0  0  0
   -1.3326    1.4837    0.0265 C   0  0  0  0  0  0  0  0  0  0  0  0
   -3.0004   -1.9043   -0.0772 C   0  0  0  0  0  0  0  0  0  0  0  0
   -3.7091    0.7795    0.2315 C   0  0  0  0  0  0  0  0  0  0  0  0
    1.0701    2.0895   -0.1875 C   0  0  0  0  0  0  0  0  0  0  0  0
    1.7786   -0.5944   -0.4966 C   0  0  0  0  0  0  0  0  0  0  0  0
   -4.3377   -1.5499    0.1022 C   0  0  0  0  0  0  0  0  0  0  0  0
   -4.6914   -0.2109    0.2562 C   0  0  0  0  0  0  0  0  0  0  0  0
    2.7610    0.3959   -0.5205 C   0  0  0  0  0  0  0  0  0  0  0  0
    2.4076    1.7350   -0.3662 C   0  0  0  0  0  0  0  0  0  0  0  0
   -5.3906   -2.6062    0.1303 C   0  0  0  0  0  0  0  0  0  0  0  0
   -2.7378   -2.9530   -0.1940 H   0  0  0  0  0  0  0  0  0  0  0  0
    2.0591   -1.6353   -0.6316 H   0  0  0  0  0  0  0  0  0  0  0  0
   -5.7333    0.0669    0.3981 H   0  0  0  0  0  0  0  0  0  0  0  0
    3.1774    2.5028   -0.3849 H   0  0  0  0  0  0  0  0  0  0  0  0
   -5.5129   -2.9875    1.1489 H   0  0  0  0  0  0  0  0  0  0  0  0
   -6.3540   -2.2158   -0.2153 H   0  0  0  0  0  0  0  0  0  0  0  0
   -5.1290   -3.4408   -0.5291 H   0  0  0  0  0  0  0  0  0  0  0  0
   -3.3735    2.6792    0.3572 H   0  0  0  0  0  0  0  0  0  0  0  0
   -0.1548    3.5613    0.0772 H   0  0  0  0  0  0  0  0  0  0  0  0
    6.9608   -1.0886    0.8870 H   0  0  0  0  0  0  0  0  0  0  0  0
  1  2  1  0  0  0  0
  1  7  1  0  0  0  0
  1  8  2  0  0  0  0
  1  9  2  0  0  0  0
  2 22  1  0  0  0  0
  3 14  2  0  0  0  0
  4 15  2  0  0  0  0
  5 17  1  0  0  0  0
  5 32  1  0  0  0  0
  6 18  1  0  0  0  0
  6 33  1  0  0  0  0
  7 34  1  0  0  0  0
 10 11  2  0  0  0  0
 10 14  1  0  0  0  0
 10 16  1  0  0  0  0
 11 15  1  0  0  0  0
 11 17  1  0  0  0  0
 12 13  2  0  0  0  0
 12 15  1  0  0  0  0
 12 18  1  0  0  0  0
 13 14  1  0  0  0  0
 13 19  1  0  0  0  0
 16 20  2  0  0  0  0
 16 25  1  0  0  0  0
 17 21  2  0  0  0  0
 18 23  2  0  0  0  0
 19 22  2  0  0  0  0
 19 26  1  0  0  0  0
 20 21  1  0  0  0  0
 20 24  1  0  0  0  0
 21 27  1  0  0  0  0
 22 23  1  0  0  0  0
 23 28  1  0  0  0  0
 24 29  1  0  0  0  0
 24 30  1  0  0  0  0
 24 31  1  0  0  0  0
M  END
> <PUBCHEM_COMPOUND_CID>
139585570

> <PUBCHEM_CONFORMER_RMSD>
0.6

> <PUBCHEM_CONFORMER_DIVERSEORDER>
1
4
5
3
2

> <PUBCHEM_MMFF94_PARTIAL_CHARGES>
31
1 1.67
10 0.09
11 0.09
12 0.09
13 0.09
14 0.4
15 0.4
16 -0.15
17 0.08
18 0.08
19 -0.15
2 -0.27
20 -0.14
21 -0.15
22 0.08
23 -0.15
24 0.14
25 0.15
26 0.15
27 0.15
28 0.15
3 -0.57
32 0.45
33 0.45
34 0.5
4 -0.57
5 -0.53
6 -0.53
7 -0.68
8 -0.65
9 -0.65

> <PUBCHEM_EFFECTIVE_ROTOR_COUNT>
2

> <PUBCHEM_PHARMACOPHORE_FEATURES>
11
1 3 acceptor
1 4 acceptor
1 5 donor
1 6 donor
1 7 acceptor
1 8 acceptor
1 9 acceptor
4 1 7 8 9 anion
6 10 11 12 13 14 15 rings
6 10 11 16 17 20 21 rings
6 12 13 18 19 22 23 rings

> <PUBCHEM_HEAVY_ATOM_COUNT>
24

> <PUBCHEM_ATOM_DEF_STEREO_COUNT>
0

> <PUBCHEM_ATOM_UDEF_STEREO_COUNT>
0

> <PUBCHEM_BOND_DEF_STEREO_COUNT>
0

> <PUBCHEM_BOND_UDEF_STEREO_COUNT>
0

> <PUBCHEM_ISOTOPIC_ATOM_COUNT>
0

> <PUBCHEM_COMPONENT_COUNT>
1

> <PUBCHEM_CACTVS_TAUTO_COUNT>
-1

> <PUBCHEM_CONFORMER_ID>
0851E82200000001

> <PUBCHEM_MMFF94_ENERGY>
72.5752

> <PUBCHEM_FEATURE_SELFOVERLAP>
55.923

> <PUBCHEM_SHAPE_FINGERPRINT>
10062212 137 18410572903215513407
10319926 262 18125703605983854050
10411042 1 18410576218576688671
10967382 1 17908428301037533509
1100329 8 18411987927499559809
11607047 403 15833075995943447355
12236239 1 17967817128879146734
12403259 226 18338232773544802613
12403260 363 18340770450707714799
12553582 1 18340198687439568134
12633257 1 18411710859122150577
12839892 36 18341044129723411674
13140716 1 18413111680028080585
13583140 156 14692561126718757030
13675066 3 17989204841340996406
13862211 1 18340486776629289967
14178342 30 18129112125445406449
14420673 8 18051413964270635658
14466204 15 18411136900803176097
15042514 8 18338799992283908636
15196674 1 18411141372091205293
15442244 35 18339364166218574357
15927050 60 17620477243867843980
16945 1 18339933602137082541
17349148 13 18202004360519930135
17492 89 18121500421342715155
17804303 29 18413952788884575256
1813 80 17530967947860248662
19591789 44 18339082691584800543
20028762 73 18130224986090709871
21033648 29 17489009501353817066
21267235 1 18337963371267317871
21792934 111 18342173419503630867
221490 88 18192159402219155049
2297311 6 18342466907187246710
2334 1 18196378228651702565
23366157 5 18043532935067612964
23402539 116 18342171150589689054
23559900 14 18411975888262864000
25147074 1 18337125547707350605
2748010 2 17690292512584440605
3004659 81 18186242831851154542
3286 77 18335421326327471925
335352 9 18410576167770551333
345986 75 17969482845882011920
350125 39 18339648935973342597
4409770 3 17825938235163416453
465052 167 18337679735969712031
5104073 3 18341901839393144153
559249 180 18335136462695534275
59755656 215 18195530285758324678
9709674 26 18192717967237820451
9981440 41 17255680223141964040

> <PUBCHEM_SHAPE_MULTIPOLES>
450.8
11.24
3.03
0.77
5.34
1.09
0.15
-6.91
2.06
-1.13
0
0.55
-0.1
-0.55

> <PUBCHEM_SHAPE_SELFOVERLAP>
997.122

> <PUBCHEM_SHAPE_VOLUME>
242.2

> <PUBCHEM_COORDINATE_TYPE>
2
5
10

$$$$
