139589197
  -OEChem-03292013293D

 52 52  0     1  0  0  0  0  0999 V2000
    2.5039   -0.4173    0.1509 O   0  0  0  0  0  0  0  0  0  0  0  0
   -2.2349    0.8315   -0.8849 O   0  0  0  0  0  0  0  0  0  0  0  0
    2.2207    2.7906   -1.3930 O   0  0  0  0  0  0  0  0  0  0  0  0
   -2.6127   -3.2503    0.5913 O   0  0  0  0  0  0  0  0  0  0  0  0
    5.0490   -2.1573   -0.2717 O   0  0  0  0  0  0  0  0  0  0  0  0
   -5.7852   -0.5904    0.7865 O   0  0  0  0  0  0  0  0  0  0  0  0
    1.8527   -1.5410    2.0645 O   0  0  0  0  0  0  0  0  0  0  0  0
   -1.9545    1.6864    1.2467 O   0  0  0  0  0  0  0  0  0  0  0  0
    3.7153    0.0629    0.7753 C   0  0  2  0  0  0  0  0  0  0  0  0
   -3.3996    0.0699   -0.5083 C   0  0  2  0  0  0  0  0  0  0  0  0
    3.4406    1.3450    1.5833 C   0  0  0  0  0  0  0  0  0  0  0  0
   -3.4598   -1.1845   -1.3952 C   0  0  0  0  0  0  0  0  0  0  0  0
    4.7603    0.2421   -0.3188 C   0  0  0  0  0  0  0  0  0  0  0  0
   -4.6387    0.9365   -0.6955 C   0  0  0  0  0  0  0  0  0  0  0  0
    3.2016    2.6305    0.7849 C   0  0  0  0  0  0  0  0  0  0  0  0
   -2.1609   -1.9995   -1.3976 C   0  0  0  0  0  0  0  0  0  0  0  0
    2.0448    2.5846   -0.1935 C   0  0  0  0  0  0  0  0  0  0  0  0
   -1.8192   -2.5269   -0.0158 C   0  0  0  0  0  0  0  0  0  0  0  0
    5.3646   -1.0747   -0.7631 C   0  0  0  0  0  0  0  0  0  0  0  0
   -5.8274    0.4242    0.0925 C   0  0  0  0  0  0  0  0  0  0  0  0
    1.6764   -1.1909    0.9082 C   0  0  0  0  0  0  0  0  0  0  0  0
   -1.5886    1.5165    0.0954 C   0  0  0  0  0  0  0  0  0  0  0  0
    0.6931    2.3004    0.3626 C   0  0  0  0  0  0  0  0  0  0  0  0
   -0.5369   -2.1673    0.6575 C   0  0  0  0  0  0  0  0  0  0  0  0
    6.3939   -0.9903   -1.8602 C   0  0  0  0  0  0  0  0  0  0  0  0
   -7.0913    1.2369   -0.0190 C   0  0  0  0  0  0  0  0  0  0  0  0
   -0.2960    1.9571   -0.4696 C   0  0  0  0  0  0  0  0  0  0  0  0
    0.4887   -1.5247    0.0868 C   0  0  0  0  0  0  0  0  0  0  0  0
    4.0700   -0.6955    1.4859 H   0  0  0  0  0  0  0  0  0  0  0  0
   -3.3003   -0.2457    0.5379 H   0  0  0  0  0  0  0  0  0  0  0  0
    4.3032    1.5252    2.2377 H   0  0  0  0  0  0  0  0  0  0  0  0
    2.5822    1.1744    2.2436 H   0  0  0  0  0  0  0  0  0  0  0  0
   -3.6526   -0.8865   -2.4339 H   0  0  0  0  0  0  0  0  0  0  0  0
   -4.2960   -1.8219   -1.0854 H   0  0  0  0  0  0  0  0  0  0  0  0
    5.5886    0.8582    0.0488 H   0  0  0  0  0  0  0  0  0  0  0  0
    4.3207    0.7153   -1.2036 H   0  0  0  0  0  0  0  0  0  0  0  0
   -4.9138    1.0063   -1.7538 H   0  0  0  0  0  0  0  0  0  0  0  0
   -4.4353    1.9567   -0.3488 H   0  0  0  0  0  0  0  0  0  0  0  0
    4.1068    2.8952    0.2257 H   0  0  0  0  0  0  0  0  0  0  0  0
    3.0186    3.4632    1.4750 H   0  0  0  0  0  0  0  0  0  0  0  0
   -1.3559   -1.4036   -1.8286 H   0  0  0  0  0  0  0  0  0  0  0  0
   -2.2754   -2.8711   -2.0534 H   0  0  0  0  0  0  0  0  0  0  0  0
    0.5776    2.3062    1.4402 H   0  0  0  0  0  0  0  0  0  0  0  0
   -0.4881   -2.4675    1.7016 H   0  0  0  0  0  0  0  0  0  0  0  0
    7.2335   -0.3744   -1.5287 H   0  0  0  0  0  0  0  0  0  0  0  0
    6.7630   -1.9920   -2.0976 H   0  0  0  0  0  0  0  0  0  0  0  0
    5.9401   -0.5599   -2.7563 H   0  0  0  0  0  0  0  0  0  0  0  0
   -7.4161    1.2678   -1.0619 H   0  0  0  0  0  0  0  0  0  0  0  0
   -7.8799    0.7771    0.5830 H   0  0  0  0  0  0  0  0  0  0  0  0
   -6.9100    2.2492    0.3505 H   0  0  0  0  0  0  0  0  0  0  0  0
   -0.1632    1.9065   -1.5449 H   0  0  0  0  0  0  0  0  0  0  0  0
    0.4974   -1.2115   -0.9487 H   0  0  0  0  0  0  0  0  0  0  0  0
  1  9  1  0  0  0  0
  1 21  1  0  0  0  0
  2 10  1  0  0  0  0
  2 22  1  0  0  0  0
  3 17  2  0  0  0  0
  4 18  2  0  0  0  0
  5 19  2  0  0  0  0
  6 20  2  0  0  0  0
  7 21  2  0  0  0  0
  8 22  2  0  0  0  0
  9 11  1  0  0  0  0
  9 13  1  0  0  0  0
  9 29  1  0  0  0  0
 10 12  1  0  0  0  0
 10 14  1  0  0  0  0
 10 30  1  0  0  0  0
 11 15  1  0  0  0  0
 11 31  1  0  0  0  0
 11 32  1  0  0  0  0
 12 16  1  0  0  0  0
 12 33  1  0  0  0  0
 12 34  1  0  0  0  0
 13 19  1  0  0  0  0
 13 35  1  0  0  0  0
 13 36  1  0  0  0  0
 14 20  1  0  0  0  0
 14 37  1  0  0  0  0
 14 38  1  0  0  0  0
 15 17  1  0  0  0  0
 15 39  1  0  0  0  0
 15 40  1  0  0  0  0
 16 18  1  0  0  0  0
 16 41  1  0  0  0  0
 16 42  1  0  0  0  0
 17 23  1  0  0  0  0
 18 24  1  0  0  0  0
 19 25  1  0  0  0  0
 20 26  1  0  0  0  0
 21 28  1  0  0  0  0
 22 27  1  0  0  0  0
 23 27  2  0  0  0  0
 23 43  1  0  0  0  0
 24 28  2  3  0  0  0
 24 44  1  0  0  0  0
 25 45  1  0  0  0  0
 25 46  1  0  0  0  0
 25 47  1  0  0  0  0
 26 48  1  0  0  0  0
 26 49  1  0  0  0  0
 26 50  1  0  0  0  0
 27 51  1  0  0  0  0
 28 52  1  0  0  0  0
M  END
> <PUBCHEM_COMPOUND_CID>
139589197

> <PUBCHEM_CONFORMER_RMSD>
1

> <PUBCHEM_CONFORMER_DIVERSEORDER>
1
158
11
119
66
43
137
174
190
2
107
84
173
81
26
67
51
8
189
120
32
71
162
131
166
133
68
153
16
90
165
12
91
75
147
113
117
179
58
115
35
34
37
145
110
28
143
155
104
82
27
86
129
78
127
21
187
88
171
59
60
167
44
33
4
7
185
178
87
136
25
175
73
69
148
160
114
100
116
30
79
184
62
199
125
126
48
188
163
49
92
152
191
124
112
46
154
142
63
29
181
23
198
98
111
83
14
95
196
85
138
13
139
182
157
18
54
17
42
132
24
161
130
6
76
146
109
55
80
97
164
170
45
40
52
106
121
99
39
169
65
177
168
64
101
10
31
197
128
72
93
15
156
5
141
118
150
70
38
183
172
89
20
102
41
22
74
159
96
186
19
151
122
135
47
140
56
9
103
36
108
61
3
53
195
193
57
77
192
50
134
123
105
149
176
144
194
180
94

> <PUBCHEM_MMFF94_PARTIAL_CHARGES>
30
1 -0.43
10 0.28
13 0.06
14 0.06
15 0.06
16 0.06
17 0.49
18 0.49
19 0.45
2 -0.43
20 0.45
21 0.71
22 0.71
23 -0.14
24 -0.14
25 0.06
26 0.06
27 -0.14
28 -0.14
3 -0.57
4 -0.57
43 0.15
44 0.15
5 -0.57
51 0.15
52 0.15
6 -0.57
7 -0.57
8 -0.57
9 0.28

> <PUBCHEM_EFFECTIVE_ROTOR_COUNT>
5.6

> <PUBCHEM_PHARMACOPHORE_FEATURES>
6
1 3 acceptor
1 4 acceptor
1 5 acceptor
1 6 acceptor
1 7 acceptor
1 8 acceptor

> <PUBCHEM_HEAVY_ATOM_COUNT>
28

> <PUBCHEM_ATOM_DEF_STEREO_COUNT>
0

> <PUBCHEM_ATOM_UDEF_STEREO_COUNT>
2

> <PUBCHEM_BOND_DEF_STEREO_COUNT>
1

> <PUBCHEM_BOND_UDEF_STEREO_COUNT>
1

> <PUBCHEM_ISOTOPIC_ATOM_COUNT>
0

> <PUBCHEM_COMPONENT_COUNT>
1

> <PUBCHEM_CACTVS_TAUTO_COUNT>
-1

> <PUBCHEM_CONFORMER_ID>
0851F64D00000001

> <PUBCHEM_MMFF94_ENERGY>
50.8366

> <PUBCHEM_FEATURE_SELFOVERLAP>
30.452

> <PUBCHEM_SHAPE_FINGERPRINT>
10674148 151 18059860502635614626
10730089 88 18272097067629755678
1100329 8 18409727391584679193
11135609 201 13190916384686695486
11578080 2 16915358113186895866
12011746 2 18408888403787731705
12553582 1 18336248077240418157
12596602 18 13334730202753299423
12788726 201 17846510248586318761
13140716 1 18263914608868389073
13402501 40 18341896264472846030
13533116 47 18059853991133501664
13583140 156 16299761258131323697
14114211 68 17749964262564734626
14790565 3 18412261719133179745
14840074 17 18113623352568726045
14955137 171 18411986875311167297
15001296 14 18336536226812916201
15183329 4 17703511008450260638
15475509 8 18271534091352363342
17492 54 18041569044397050544
19319366 153 17676486095298619154
20465049 17 18333736805688883522
20691752 17 17532351227228158565
21279426 13 18411697712105574581
23227448 37 18336821004930525071
23559900 14 18342734156968612992
335352 9 18411699885285160573
338550 245 18334574685289647733
350125 39 18336827494610642533
3680242 22 18261940895286251097
404807 14 15979793280716674886
4058900 60 17897444983076795819
59755656 215 18341335491999440878
9709674 26 18268702986423698340

> <PUBCHEM_SHAPE_MULTIPOLES>
529.27
13.8
3.43
1.4
5.99
0
0
0.58
-3.08
-0.8
0.13
-1.08
0.25
0.6

> <PUBCHEM_SHAPE_SELFOVERLAP>
1065.452

> <PUBCHEM_SHAPE_VOLUME>
305.4

> <PUBCHEM_COORDINATE_TYPE>
2
5
10

$$$$
