139588013
  -OEChem-03292013293D

 54 55  0     1  0  0  0  0  0999 V2000
    0.0960    2.3166   -0.1244 O   0  0  0  0  0  0  0  0  0  0  0  0
   -4.3997   -0.2868   -2.1455 O   0  0  0  0  0  0  0  0  0  0  0  0
   -3.6276   -3.3737    1.0448 O   0  0  0  0  0  0  0  0  0  0  0  0
   -5.0262   -1.2953    0.2926 O   0  0  0  0  0  0  0  0  0  0  0  0
    2.0944   -2.6276   -0.5986 O   0  0  0  0  0  0  0  0  0  0  0  0
    0.4435    2.0516    2.1583 O   0  0  0  0  0  0  0  0  0  0  0  0
    4.6700   -1.7014   -0.7975 O   0  0  0  0  0  0  0  0  0  0  0  0
    3.3415    2.5846    0.7309 O   0  0  0  0  0  0  0  0  0  0  0  0
   -2.2657    1.8079   -1.6840 C   0  0  0  0  0  0  0  0  0  0  0  0
   -3.0183    0.9732   -0.6433 C   0  0  0  0  0  0  0  0  0  0  0  0
   -1.8775    3.2089   -1.1950 C   0  0  0  0  0  0  0  0  0  0  0  0
   -3.3572   -0.4132   -1.1888 C   0  0  1  0  0  0  0  0  0  0  0  0
   -1.0032    3.2299    0.0675 C   0  0  2  0  0  0  0  0  0  0  0  0
   -3.8506   -1.3273   -0.0776 C   0  0  0  0  0  0  0  0  0  0  0  0
   -2.8415   -2.2917    0.5404 C   0  0  1  0  0  0  0  0  0  0  0  0
   -0.4586    4.6323    0.3217 C   0  0  0  0  0  0  0  0  0  0  0  0
   -2.0658   -1.6784    1.7105 C   0  0  0  0  0  0  0  0  0  0  0  0
    1.6817    0.8363    0.5425 C   0  0  0  0  0  0  0  0  0  0  0  0
    1.3461   -0.4898    0.2169 C   0  0  0  0  0  0  0  0  0  0  0  0
   -0.6940   -1.1058    1.4631 C   0  0  0  0  0  0  0  0  0  0  0  0
    0.6720    1.8014    0.9887 C   0  0  0  0  0  0  0  0  0  0  0  0
   -0.0120   -1.0476    0.3094 C   0  0  0  0  0  0  0  0  0  0  0  0
    2.3663   -1.3344   -0.2449 C   0  0  0  0  0  0  0  0  0  0  0  0
    2.9982    1.2984    0.4431 C   0  0  0  0  0  0  0  0  0  0  0  0
    3.6818   -0.8746   -0.3520 C   0  0  0  0  0  0  0  0  0  0  0  0
    3.9974    0.4377   -0.0045 C   0  0  0  0  0  0  0  0  0  0  0  0
    2.1967   -3.6089    0.4282 C   0  0  0  0  0  0  0  0  0  0  0  0
    4.9122   -1.7222   -2.2027 C   0  0  0  0  0  0  0  0  0  0  0  0
   -1.3632    1.2706   -2.0006 H   0  0  0  0  0  0  0  0  0  0  0  0
   -2.8874    1.9198   -2.5809 H   0  0  0  0  0  0  0  0  0  0  0  0
   -2.4139    0.8756    0.2616 H   0  0  0  0  0  0  0  0  0  0  0  0
   -3.9345    1.5048   -0.3564 H   0  0  0  0  0  0  0  0  0  0  0  0
   -1.3344    3.6945   -2.0164 H   0  0  0  0  0  0  0  0  0  0  0  0
   -2.7830    3.8027   -1.0207 H   0  0  0  0  0  0  0  0  0  0  0  0
   -2.5052   -0.8798   -1.6906 H   0  0  0  0  0  0  0  0  0  0  0  0
   -1.6049    2.9129    0.9280 H   0  0  0  0  0  0  0  0  0  0  0  0
   -2.2056   -2.7200   -0.2374 H   0  0  0  0  0  0  0  0  0  0  0  0
    0.1958    4.9524   -0.4966 H   0  0  0  0  0  0  0  0  0  0  0  0
    0.1474    4.6555    1.2332 H   0  0  0  0  0  0  0  0  0  0  0  0
   -1.2699    5.3587    0.4292 H   0  0  0  0  0  0  0  0  0  0  0  0
   -1.9379   -2.4445    2.4877 H   0  0  0  0  0  0  0  0  0  0  0  0
   -2.6721   -0.8902    2.1760 H   0  0  0  0  0  0  0  0  0  0  0  0
   -0.2189   -0.7171    2.3634 H   0  0  0  0  0  0  0  0  0  0  0  0
   -5.1464    0.1717   -1.7238 H   0  0  0  0  0  0  0  0  0  0  0  0
   -0.4190   -1.4445   -0.6135 H   0  0  0  0  0  0  0  0  0  0  0  0
   -4.1613   -3.0383    1.7858 H   0  0  0  0  0  0  0  0  0  0  0  0
    5.0244    0.7833   -0.0955 H   0  0  0  0  0  0  0  0  0  0  0  0
    4.2963    2.7036    0.5899 H   0  0  0  0  0  0  0  0  0  0  0  0
    1.8736   -4.5690    0.0166 H   0  0  0  0  0  0  0  0  0  0  0  0
    1.5555   -3.3630    1.2800 H   0  0  0  0  0  0  0  0  0  0  0  0
    3.2349   -3.7060    0.7611 H   0  0  0  0  0  0  0  0  0  0  0  0
    5.7176   -2.4347   -2.4009 H   0  0  0  0  0  0  0  0  0  0  0  0
    5.2256   -0.7334   -2.5522 H   0  0  0  0  0  0  0  0  0  0  0  0
    4.0176   -2.0461   -2.7439 H   0  0  0  0  0  0  0  0  0  0  0  0
  1 13  1  0  0  0  0
  1 21  1  0  0  0  0
  2 12  1  0  0  0  0
  2 44  1  0  0  0  0
  3 15  1  0  0  0  0
  3 46  1  0  0  0  0
  4 14  2  0  0  0  0
  5 23  1  0  0  0  0
  5 27  1  0  0  0  0
  6 21  2  0  0  0  0
  7 25  1  0  0  0  0
  7 28  1  0  0  0  0
  8 24  1  0  0  0  0
  8 48  1  0  0  0  0
  9 10  1  0  0  0  0
  9 11  1  0  0  0  0
  9 29  1  0  0  0  0
  9 30  1  0  0  0  0
 10 12  1  0  0  0  0
 10 31  1  0  0  0  0
 10 32  1  0  0  0  0
 11 13  1  0  0  0  0
 11 33  1  0  0  0  0
 11 34  1  0  0  0  0
 12 14  1  0  0  0  0
 12 35  1  0  0  0  0
 13 16  1  0  0  0  0
 13 36  1  0  0  0  0
 14 15  1  0  0  0  0
 15 17  1  0  0  0  0
 15 37  1  0  0  0  0
 16 38  1  0  0  0  0
 16 39  1  0  0  0  0
 16 40  1  0  0  0  0
 17 20  1  0  0  0  0
 17 41  1  0  0  0  0
 17 42  1  0  0  0  0
 18 19  2  0  0  0  0
 18 21  1  0  0  0  0
 18 24  1  0  0  0  0
 19 22  1  0  0  0  0
 19 23  1  0  0  0  0
 20 22  2  3  0  0  0
 20 43  1  0  0  0  0
 22 45  1  0  0  0  0
 23 25  2  0  0  0  0
 24 26  2  0  0  0  0
 25 26  1  0  0  0  0
 26 47  1  0  0  0  0
 27 49  1  0  0  0  0
 27 50  1  0  0  0  0
 27 51  1  0  0  0  0
 28 52  1  0  0  0  0
 28 53  1  0  0  0  0
 28 54  1  0  0  0  0
M  END
> <PUBCHEM_COMPOUND_CID>
139588013

> <PUBCHEM_CONFORMER_RMSD>
0.8

> <PUBCHEM_CONFORMER_DIVERSEORDER>
3
12
11
9
5
10
6
4
8
1
2
7
15
14
13

> <PUBCHEM_MMFF94_PARTIAL_CHARGES>
30
1 -0.43
12 0.34
13 0.28
14 0.45
15 0.34
17 0.14
18 0.09
19 0.03
2 -0.68
20 -0.29
21 0.63
22 -0.18
23 0.08
24 0.08
25 0.08
26 -0.15
27 0.28
28 0.28
3 -0.68
4 -0.57
43 0.15
44 0.4
45 0.15
46 0.4
47 0.15
48 0.45
5 -0.36
6 -0.57
7 -0.36
8 -0.53

> <PUBCHEM_EFFECTIVE_ROTOR_COUNT>
3.6

> <PUBCHEM_PHARMACOPHORE_FEATURES>
10
1 2 acceptor
1 2 donor
1 3 acceptor
1 3 donor
1 4 acceptor
1 5 acceptor
1 6 acceptor
1 7 acceptor
1 8 donor
6 18 19 23 24 25 26 rings

> <PUBCHEM_HEAVY_ATOM_COUNT>
28

> <PUBCHEM_ATOM_DEF_STEREO_COUNT>
3

> <PUBCHEM_ATOM_UDEF_STEREO_COUNT>
0

> <PUBCHEM_BOND_DEF_STEREO_COUNT>
0

> <PUBCHEM_BOND_UDEF_STEREO_COUNT>
1

> <PUBCHEM_ISOTOPIC_ATOM_COUNT>
0

> <PUBCHEM_COMPONENT_COUNT>
1

> <PUBCHEM_CACTVS_TAUTO_COUNT>
-1

> <PUBCHEM_CONFORMER_ID>
0851F1AD00000003

> <PUBCHEM_MMFF94_ENERGY>
87.9922

> <PUBCHEM_FEATURE_SELFOVERLAP>
50.772

> <PUBCHEM_SHAPE_FINGERPRINT>
10498660 4 17822837741732906581
108634 29 18261380174357565196
1100329 8 17400354551598137146
12788726 201 18195241114184297427
13402501 40 18262790904016771537
1361 2 17111844324453084339
14114211 68 17605838002453092983
14251757 17 18335132064269098227
14251757 5 18265623082524158911
14363568 33 17758983775152797825
14931854 50 18119237368745714183
15081414 286 18267591388642225297
15420108 30 16826426528466475376
17357779 13 18411699897959065388
20465049 17 17473538054565469541
221357 26 18411133615517542351
221490 88 18342453704220713556
22182313 1 18273214167464645434
22907989 373 18117869675249793492
23536364 44 18197230143925898838
23558518 356 18195241118616765552
23559900 14 18334286578845995484
3493558 16 16374402876261439436
3737641 26 18342460360997918805
46194498 28 17974006460041501043
469060 322 16444213953511993129
6287921 2 17689720079374916995
70251023 43 18130796616172457662
9709674 26 18411412891412884052

> <PUBCHEM_SHAPE_MULTIPOLES>
529.27
8.54
4.91
1.64
1.75
2.84
-0.34
-5.67
-3.97
-1.6
0.91
-0.3
-0.07
2.28

> <PUBCHEM_SHAPE_SELFOVERLAP>
1100.444

> <PUBCHEM_SHAPE_VOLUME>
300.4

> <PUBCHEM_COORDINATE_TYPE>
2
5
10

$$$$
