139588564
  -OEChem-03292013293D

 75 76  0     1  0  0  0  0  0999 V2000
   -1.0846   -2.5496    0.1788 O   0  0  0  0  0  0  0  0  0  0  0  0
    3.6952   -0.4394    1.3662 O   0  0  0  0  0  0  0  0  0  0  0  0
    0.3980    0.4007   -2.1673 O   0  0  0  0  0  0  0  0  0  0  0  0
   -0.8331    1.3494    1.7704 O   0  0  0  0  0  0  0  0  0  0  0  0
    0.6340   -1.0391   -0.3353 N   0  0  0  0  0  0  0  0  0  0  0  0
    1.9188   -1.7951    1.9002 N   0  0  0  0  0  0  0  0  0  0  0  0
   -1.5028    1.5577   -0.4428 N   0  0  0  0  0  0  0  0  0  0  0  0
    6.0292   -2.0934   -3.1982 N   0  0  0  0  0  0  0  0  0  0  0  0
   -2.2285    3.9336    1.8696 N   0  0  0  0  0  0  0  0  0  0  0  0
    4.9523    4.5692   -0.0751 N   0  0  0  0  0  0  0  0  0  0  0  0
    2.1049   -0.9470   -0.3691 C   0  0  2  0  0  0  0  0  0  0  0  0
    0.9646   -2.7659    1.4064 C   0  0  1  0  0  0  0  0  0  0  0  0
    0.1773   -3.3789    2.5581 C   0  0  0  0  0  0  0  0  0  0  0  0
    2.7455   -1.9877   -1.2804 C   0  0  0  0  0  0  0  0  0  0  0  0
    0.0355   -2.0879    0.4025 C   0  0  0  0  0  0  0  0  0  0  0  0
    2.6461   -0.9953    1.0465 C   0  0  0  0  0  0  0  0  0  0  0  0
   -0.0730   -0.1354   -1.1607 C   0  0  0  0  0  0  0  0  0  0  0  0
   -1.5034    0.1507   -0.7737 C   0  0  2  0  0  0  0  0  0  0  0  0
    4.0985   -1.5105   -1.8053 C   0  0  0  0  0  0  0  0  0  0  0  0
    1.1143   -4.0847    3.5376 C   0  0  0  0  0  0  0  0  0  0  0  0
   -0.6440   -2.3111    3.2795 C   0  0  0  0  0  0  0  0  0  0  0  0
   -2.4514   -0.1881   -1.9228 C   0  0  0  0  0  0  0  0  0  0  0  0
    4.7495   -2.5727   -2.6895 C   0  0  0  0  0  0  0  0  0  0  0  0
   -1.2242    3.5687    0.8723 C   0  0  2  0  0  0  0  0  0  0  0  0
   -1.1649    2.0448    0.8125 C   0  0  0  0  0  0  0  0  0  0  0  0
   -3.8812   -0.3467   -1.4670 C   0  0  0  0  0  0  0  0  0  0  0  0
    0.1668    4.1199    1.2196 C   0  0  0  0  0  0  0  0  0  0  0  0
    1.2371    3.7701    0.1807 C   0  0  0  0  0  0  0  0  0  0  0  0
    2.5920    4.3769    0.5555 C   0  0  0  0  0  0  0  0  0  0  0  0
   -4.3513   -1.5974   -1.0668 C   0  0  0  0  0  0  0  0  0  0  0  0
   -4.7328    0.7578   -1.4460 C   0  0  0  0  0  0  0  0  0  0  0  0
    3.6676    3.9979   -0.4611 C   0  0  0  0  0  0  0  0  0  0  0  0
   -5.6730   -1.7439   -0.6457 C   0  0  0  0  0  0  0  0  0  0  0  0
   -6.0545    0.6115   -1.0249 C   0  0  0  0  0  0  0  0  0  0  0  0
   -6.5246   -0.6394   -0.6248 C   0  0  0  0  0  0  0  0  0  0  0  0
    2.3491    0.0572   -0.7418 H   0  0  0  0  0  0  0  0  0  0  0  0
    1.5196   -3.5475    0.8761 H   0  0  0  0  0  0  0  0  0  0  0  0
   -0.5167   -4.1299    2.1589 H   0  0  0  0  0  0  0  0  0  0  0  0
    2.8804   -2.9422   -0.7604 H   0  0  0  0  0  0  0  0  0  0  0  0
    2.0898   -2.1860   -2.1379 H   0  0  0  0  0  0  0  0  0  0  0  0
    2.2736   -1.8762    2.8471 H   0  0  0  0  0  0  0  0  0  0  0  0
   -1.7945   -0.3718    0.1388 H   0  0  0  0  0  0  0  0  0  0  0  0
    3.9646   -0.5841   -2.3784 H   0  0  0  0  0  0  0  0  0  0  0  0
    4.7650   -1.2778   -0.9661 H   0  0  0  0  0  0  0  0  0  0  0  0
    0.5297   -4.6697    4.2570 H   0  0  0  0  0  0  0  0  0  0  0  0
   -1.3792   -1.8323    2.6265 H   0  0  0  0  0  0  0  0  0  0  0  0
    1.7797   -4.7803    3.0154 H   0  0  0  0  0  0  0  0  0  0  0  0
    1.7272   -3.3902    4.1199 H   0  0  0  0  0  0  0  0  0  0  0  0
   -1.2047   -2.7650    4.1049 H   0  0  0  0  0  0  0  0  0  0  0  0
   -0.0146   -1.5262    3.7124 H   0  0  0  0  0  0  0  0  0  0  0  0
   -2.1388   -1.1261   -2.4019 H   0  0  0  0  0  0  0  0  0  0  0  0
   -2.4011    0.5701   -2.7160 H   0  0  0  0  0  0  0  0  0  0  0  0
   -1.6986    2.2153   -1.1918 H   0  0  0  0  0  0  0  0  0  0  0  0
    4.9082   -3.4952   -2.1203 H   0  0  0  0  0  0  0  0  0  0  0  0
    4.0966   -2.8107   -3.5360 H   0  0  0  0  0  0  0  0  0  0  0  0
   -1.5362    3.9830   -0.0932 H   0  0  0  0  0  0  0  0  0  0  0  0
    0.4856    3.7400    2.1996 H   0  0  0  0  0  0  0  0  0  0  0  0
    0.1047    5.2121    1.3130 H   0  0  0  0  0  0  0  0  0  0  0  0
    0.9276    4.1394   -0.8045 H   0  0  0  0  0  0  0  0  0  0  0  0
    1.3445    2.6822    0.1004 H   0  0  0  0  0  0  0  0  0  0  0  0
    6.4740   -2.8311   -3.7428 H   0  0  0  0  0  0  0  0  0  0  0  0
    6.6562   -1.8957   -2.4194 H   0  0  0  0  0  0  0  0  0  0  0  0
    2.5000    5.4689    0.6125 H   0  0  0  0  0  0  0  0  0  0  0  0
    2.8858    4.0249    1.5526 H   0  0  0  0  0  0  0  0  0  0  0  0
   -3.6985   -2.4659   -1.0786 H   0  0  0  0  0  0  0  0  0  0  0  0
   -4.3786    1.7377   -1.7548 H   0  0  0  0  0  0  0  0  0  0  0  0
   -2.2748    4.9484    1.9517 H   0  0  0  0  0  0  0  0  0  0  0  0
   -3.1494    3.6312    1.5536 H   0  0  0  0  0  0  0  0  0  0  0  0
    3.7649    2.9082   -0.5182 H   0  0  0  0  0  0  0  0  0  0  0  0
    3.3923    4.3611   -1.4573 H   0  0  0  0  0  0  0  0  0  0  0  0
   -6.0390   -2.7178   -0.3340 H   0  0  0  0  0  0  0  0  0  0  0  0
   -6.7176    1.4715   -1.0082 H   0  0  0  0  0  0  0  0  0  0  0  0
   -7.5537   -0.7532   -0.2968 H   0  0  0  0  0  0  0  0  0  0  0  0
    4.8815    5.5856   -0.0463 H   0  0  0  0  0  0  0  0  0  0  0  0
    5.6469    4.3514   -0.7883 H   0  0  0  0  0  0  0  0  0  0  0  0
  1 15  2  0  0  0  0
  2 16  2  0  0  0  0
  3 17  2  0  0  0  0
  4 25  2  0  0  0  0
  5 11  1  0  0  0  0
  5 15  1  0  0  0  0
  5 17  1  0  0  0  0
  6 12  1  0  0  0  0
  6 16  1  0  0  0  0
  6 41  1  0  0  0  0
  7 18  1  0  0  0  0
  7 25  1  0  0  0  0
  7 53  1  0  0  0  0
  8 23  1  0  0  0  0
  8 61  1  0  0  0  0
  8 62  1  0  0  0  0
  9 24  1  0  0  0  0
  9 67  1  0  0  0  0
  9 68  1  0  0  0  0
 10 32  1  0  0  0  0
 10 74  1  0  0  0  0
 10 75  1  0  0  0  0
 11 14  1  0  0  0  0
 11 16  1  0  0  0  0
 11 36  1  0  0  0  0
 12 13  1  0  0  0  0
 12 15  1  0  0  0  0
 12 37  1  0  0  0  0
 13 20  1  0  0  0  0
 13 21  1  0  0  0  0
 13 38  1  0  0  0  0
 14 19  1  0  0  0  0
 14 39  1  0  0  0  0
 14 40  1  0  0  0  0
 17 18  1  0  0  0  0
 18 22  1  0  0  0  0
 18 42  1  0  0  0  0
 19 23  1  0  0  0  0
 19 43  1  0  0  0  0
 19 44  1  0  0  0  0
 20 45  1  0  0  0  0
 20 47  1  0  0  0  0
 20 48  1  0  0  0  0
 21 46  1  0  0  0  0
 21 49  1  0  0  0  0
 21 50  1  0  0  0  0
 22 26  1  0  0  0  0
 22 51  1  0  0  0  0
 22 52  1  0  0  0  0
 23 54  1  0  0  0  0
 23 55  1  0  0  0  0
 24 25  1  0  0  0  0
 24 27  1  0  0  0  0
 24 56  1  0  0  0  0
 26 30  2  0  0  0  0
 26 31  1  0  0  0  0
 27 28  1  0  0  0  0
 27 57  1  0  0  0  0
 27 58  1  0  0  0  0
 28 29  1  0  0  0  0
 28 59  1  0  0  0  0
 28 60  1  0  0  0  0
 29 32  1  0  0  0  0
 29 63  1  0  0  0  0
 29 64  1  0  0  0  0
 30 33  1  0  0  0  0
 30 65  1  0  0  0  0
 31 34  2  0  0  0  0
 31 66  1  0  0  0  0
 32 69  1  0  0  0  0
 32 70  1  0  0  0  0
 33 35  2  0  0  0  0
 33 71  1  0  0  0  0
 34 35  1  0  0  0  0
 34 72  1  0  0  0  0
 35 73  1  0  0  0  0
M  END
> <PUBCHEM_COMPOUND_CID>
139588564

> <PUBCHEM_CONFORMER_RMSD>
1.2

> <PUBCHEM_CONFORMER_DIVERSEORDER>
1
110
34
18
61
35
114
104
71
98
2
102
30
101
60
74
80
20
38
78
81
57
79
62
47
68
32
31
70
17
10
64
65
106
103
45
91
72
117
44
107
87
37
96
8
48
51
29
63
75
55
40
105
89
92
119
76
14
42
108
15
52
46
41
82
113
13
54
25
6
5
109
50
67
100
3
36
7
112
95
85
97
11
111
118
115
58
73
83
49
22
21
27
59
26
28
69
39
12
43
33
94
116
24
19
99
86
23
56
88
4
77
53
16
93
84
90
66
9

> <PUBCHEM_MMFF94_PARTIAL_CHARGES>
40
1 -0.57
10 -0.99
11 0.36
12 0.36
15 0.57
16 0.57
17 0.57
18 0.36
2 -0.57
22 0.14
23 0.27
24 0.33
25 0.57
26 -0.14
3 -0.57
30 -0.15
31 -0.15
32 0.27
33 -0.15
34 -0.15
35 -0.15
4 -0.57
41 0.37
5 -0.42
53 0.37
6 -0.73
61 0.36
62 0.36
65 0.15
66 0.15
67 0.36
68 0.36
7 -0.73
71 0.15
72 0.15
73 0.15
74 0.36
75 0.36
8 -0.99
9 -0.99

> <PUBCHEM_EFFECTIVE_ROTOR_COUNT>
15.8

> <PUBCHEM_PHARMACOPHORE_FEATURES>
15
1 1 acceptor
1 10 cation
1 10 donor
1 2 acceptor
1 3 acceptor
1 4 acceptor
1 6 donor
1 7 donor
1 8 cation
1 8 donor
1 9 cation
1 9 donor
3 13 20 21 hydrophobe
6 26 30 31 33 34 35 rings
6 5 6 11 12 15 16 rings

> <PUBCHEM_HEAVY_ATOM_COUNT>
35

> <PUBCHEM_ATOM_DEF_STEREO_COUNT>
2

> <PUBCHEM_ATOM_UDEF_STEREO_COUNT>
2

> <PUBCHEM_BOND_DEF_STEREO_COUNT>
0

> <PUBCHEM_BOND_UDEF_STEREO_COUNT>
0

> <PUBCHEM_ISOTOPIC_ATOM_COUNT>
0

> <PUBCHEM_COMPONENT_COUNT>
1

> <PUBCHEM_CACTVS_TAUTO_COUNT>
-1

> <PUBCHEM_CONFORMER_ID>
0851F3D400000001

> <PUBCHEM_MMFF94_ENERGY>
77.0052

> <PUBCHEM_FEATURE_SELFOVERLAP>
76.123

> <PUBCHEM_SHAPE_FINGERPRINT>
107951 10 17757255342958401356
10940486 97 16752120909954522398
11445158 3 16377139410189636888
11763715 3 17757256094952121274
12160290 23 17123077549211420077
12597179 24 17825374443728168625
12788726 201 18122904236162031999
13009979 54 17612852826029298459
13911987 19 16807040695438719502
14784336 7 18189331261166597530
14787075 74 18265038310015720127
14955137 171 18201720665641441359
15160629 131 17703241697084599372
15351339 4 18341040917678880729
15664445 248 18341044133996832039
15775530 1 17757566517533782791
19311894 1 17766291873082546236
23559900 14 18343862212490207063
3298306 158 17979343489256138661
392239 28 18265873853027402523
4058900 60 18188762976505299601
437795 51 18193843858428219117
5265222 85 17471294427626896452
70251023 43 18272658913159163031

> <PUBCHEM_SHAPE_MULTIPOLES>
666.92
10.69
6.54
3.12
9.17
7.24
-0.94
-1.37
9.7
-7.47
-4.68
-2.76
-3.77
1.04

> <PUBCHEM_SHAPE_SELFOVERLAP>
1355.696

> <PUBCHEM_SHAPE_VOLUME>
383.1

> <PUBCHEM_COORDINATE_TYPE>
2
5
10

$$$$
