139584646
  -OEChem-03292013293D

 56 56  0     1  0  0  0  0  0999 V2000
   -5.4999    1.5189   -2.1147 O   0  0  0  0  0  0  0  0  0  0  0  0
   -5.7251    2.5845    1.1069 O   0  0  0  0  0  0  0  0  0  0  0  0
   -7.8035    2.0334    0.4156 O   0  0  0  0  0  0  0  0  0  0  0  0
    2.8734   -2.3718   -1.7746 O   0  0  0  0  0  0  0  0  0  0  0  0
   -4.1449   -1.6812   -0.6168 O   0  0  0  0  0  0  0  0  0  0  0  0
   -4.6099    0.3812    0.3473 N   0  0  0  0  0  0  0  0  0  0  0  0
    6.4985    2.4931    0.1663 N   0  0  0  0  0  0  0  0  0  0  0  0
   -6.0153    0.4317    0.0120 C   0  0  1  0  0  0  0  0  0  0  0  0
   -6.1657    0.4128   -1.5180 C   0  0  0  0  0  0  0  0  0  0  0  0
    2.2450   -2.5027    0.5555 C   0  0  1  0  0  0  0  0  0  0  0  0
   -6.7227   -0.7543    0.6743 C   0  0  0  0  0  0  0  0  0  0  0  0
   -6.6200    1.7363    0.5419 C   0  0  0  0  0  0  0  0  0  0  0  0
    3.0000   -1.9194   -0.6375 C   0  0  0  0  0  0  0  0  0  0  0  0
    0.7656   -2.3733    0.2752 C   0  0  0  0  0  0  0  0  0  0  0  0
    3.9160   -0.7652   -0.4274 C   0  0  0  0  0  0  0  0  0  0  0  0
    2.6442   -3.9653    0.7449 C   0  0  0  0  0  0  0  0  0  0  0  0
   -0.0452   -1.3453    0.6064 C   0  0  0  0  0  0  0  0  0  0  0  0
   -3.7923   -0.6810   -0.0004 C   0  0  0  0  0  0  0  0  0  0  0  0
    5.6312    1.3990   -0.0323 C   0  0  0  0  0  0  0  0  0  0  0  0
    4.1190    0.1598   -1.4515 C   0  0  0  0  0  0  0  0  0  0  0  0
    4.5708   -0.6082    0.7941 C   0  0  0  0  0  0  0  0  0  0  0  0
   -1.4560   -1.4074    0.2159 C   0  0  0  0  0  0  0  0  0  0  0  0
   -2.3902   -0.4766    0.4649 C   0  0  0  0  0  0  0  0  0  0  0  0
    4.9765    1.2420   -1.2540 C   0  0  0  0  0  0  0  0  0  0  0  0
    5.4284    0.4738    0.9918 C   0  0  0  0  0  0  0  0  0  0  0  0
    0.4164   -0.1357    1.3777 C   0  0  0  0  0  0  0  0  0  0  0  0
    7.1846    2.6659    1.4314 C   0  0  0  0  0  0  0  0  0  0  0  0
    6.7213    3.4553   -0.8947 C   0  0  0  0  0  0  0  0  0  0  0  0
   -7.2228    0.4875   -1.7977 H   0  0  0  0  0  0  0  0  0  0  0  0
   -5.7840   -0.5023   -1.9796 H   0  0  0  0  0  0  0  0  0  0  0  0
    2.4785   -1.9843    1.4859 H   0  0  0  0  0  0  0  0  0  0  0  0
   -6.5343   -0.7727    1.7545 H   0  0  0  0  0  0  0  0  0  0  0  0
   -7.8087   -0.6861    0.5387 H   0  0  0  0  0  0  0  0  0  0  0  0
   -6.4136   -1.7204    0.2652 H   0  0  0  0  0  0  0  0  0  0  0  0
   -4.2145    1.1646    0.8598 H   0  0  0  0  0  0  0  0  0  0  0  0
    0.3400   -3.2028   -0.2912 H   0  0  0  0  0  0  0  0  0  0  0  0
    2.4324   -4.5663   -0.1471 H   0  0  0  0  0  0  0  0  0  0  0  0
    3.7182   -4.0476    0.9452 H   0  0  0  0  0  0  0  0  0  0  0  0
    2.1072   -4.4125    1.5886 H   0  0  0  0  0  0  0  0  0  0  0  0
    3.6131    0.0562   -2.4080 H   0  0  0  0  0  0  0  0  0  0  0  0
    4.4672   -1.3259    1.6018 H   0  0  0  0  0  0  0  0  0  0  0  0
   -1.7469   -2.3044   -0.3292 H   0  0  0  0  0  0  0  0  0  0  0  0
   -2.1649    0.4380    1.0022 H   0  0  0  0  0  0  0  0  0  0  0  0
    5.0998    1.9344   -2.0808 H   0  0  0  0  0  0  0  0  0  0  0  0
    5.9206    0.5478    1.9564 H   0  0  0  0  0  0  0  0  0  0  0  0
   -0.1144   -0.0639    2.3334 H   0  0  0  0  0  0  0  0  0  0  0  0
    1.4837   -0.1415    1.6070 H   0  0  0  0  0  0  0  0  0  0  0  0
    0.2315    0.7789    0.8030 H   0  0  0  0  0  0  0  0  0  0  0  0
   -4.5639    1.4681   -1.8563 H   0  0  0  0  0  0  0  0  0  0  0  0
   -6.1477    3.4189    1.4026 H   0  0  0  0  0  0  0  0  0  0  0  0
    7.8158    3.5615    1.4307 H   0  0  0  0  0  0  0  0  0  0  0  0
    7.8466    1.8184    1.6415 H   0  0  0  0  0  0  0  0  0  0  0  0
    6.4721    2.7885    2.2547 H   0  0  0  0  0  0  0  0  0  0  0  0
    7.4200    4.2417   -0.5879 H   0  0  0  0  0  0  0  0  0  0  0  0
    5.7894    3.9592   -1.1743 H   0  0  0  0  0  0  0  0  0  0  0  0
    7.1599    2.9768   -1.7775 H   0  0  0  0  0  0  0  0  0  0  0  0
  1  9  1  0  0  0  0
  1 49  1  0  0  0  0
  2 12  1  0  0  0  0
  2 50  1  0  0  0  0
  3 12  2  0  0  0  0
  4 13  2  0  0  0  0
  5 18  2  0  0  0  0
  6  8  1  0  0  0  0
  6 18  1  0  0  0  0
  6 35  1  0  0  0  0
  7 19  1  0  0  0  0
  7 27  1  0  0  0  0
  7 28  1  0  0  0  0
  8  9  1  0  0  0  0
  8 11  1  0  0  0  0
  8 12  1  0  0  0  0
  9 29  1  0  0  0  0
  9 30  1  0  0  0  0
 10 13  1  0  0  0  0
 10 14  1  0  0  0  0
 10 16  1  0  0  0  0
 10 31  1  0  0  0  0
 11 32  1  0  0  0  0
 11 33  1  0  0  0  0
 11 34  1  0  0  0  0
 13 15  1  0  0  0  0
 14 17  2  0  0  0  0
 14 36  1  0  0  0  0
 15 20  2  0  0  0  0
 15 21  1  0  0  0  0
 16 37  1  0  0  0  0
 16 38  1  0  0  0  0
 16 39  1  0  0  0  0
 17 22  1  0  0  0  0
 17 26  1  0  0  0  0
 18 23  1  0  0  0  0
 19 24  2  0  0  0  0
 19 25  1  0  0  0  0
 20 24  1  0  0  0  0
 20 40  1  0  0  0  0
 21 25  2  0  0  0  0
 21 41  1  0  0  0  0
 22 23  2  0  0  0  0
 22 42  1  0  0  0  0
 23 43  1  0  0  0  0
 24 44  1  0  0  0  0
 25 45  1  0  0  0  0
 26 46  1  0  0  0  0
 26 47  1  0  0  0  0
 26 48  1  0  0  0  0
 27 51  1  0  0  0  0
 27 52  1  0  0  0  0
 27 53  1  0  0  0  0
 28 54  1  0  0  0  0
 28 55  1  0  0  0  0
 28 56  1  0  0  0  0
M  END
> <PUBCHEM_COMPOUND_CID>
139584646

> <PUBCHEM_CONFORMER_RMSD>
1

> <PUBCHEM_CONFORMER_DIVERSEORDER>
1
241
89
175
272
159
154
108
265
223
104
218
69
178
194
253
180
87
248
269
245
51
222
172
31
63
145
3
182
55
225
250
94
193
242
198
151
161
86
210
266
211
71
92
199
212
120
138
109
240
261
146
56
134
91
41
262
14
48
32
285
126
19
80
9
135
195
68
271
227
133
156
123
203
274
244
83
167
150
278
185
73
152
189
221
183
170
26
257
270
28
228
70
101
254
165
15
237
232
139
205
25
206
174
98
243
37
282
116
113
6
107
197
284
281
10
7
204
231
36
239
45
21
259
60
49
79
81
279
201
143
11
273
100
47
249
276
166
188
127
115
88
106
38
114
186
187
155
122
181
142
40
260
213
124
176
230
267
277
35
169
78
229
119
219
233
148
192
8
96
4
162
280
173
18
147
33
39
256
128
235
58
215
50
2
202
99
117
84
196
171
164
75
136
12
168
102
44
224
283
263
255
207
111
112
13
74
61
67
57
46
65
42
214
20
258
27
157
247
191
30
208
246
179
252
16
226
105
131
129
149
264
200
160
268
5
158
144
163
82
90
130
59
209
76
238
220
22
216
77
97
62
275
17
110
140
54
190
153
236
217
53
72
141
52
43
64
125
23
93
66
118
103
34
85
234
132
251
137
121
184
24
177
29
95

> <PUBCHEM_MMFF94_PARTIAL_CHARGES>
36
1 -0.68
10 0.2
12 0.66
13 0.42
14 -0.29
15 0.09
17 -0.14
18 0.62
19 0.1
2 -0.65
20 -0.15
21 -0.15
22 -0.15
23 -0.14
24 -0.15
25 -0.15
26 0.14
27 0.37
28 0.37
3 -0.57
35 0.37
36 0.15
4 -0.57
40 0.15
41 0.15
42 0.15
43 0.15
44 0.15
45 0.15
49 0.4
5 -0.57
50 0.5
6 -0.73
7 -0.84
8 0.36
9 0.28

> <PUBCHEM_EFFECTIVE_ROTOR_COUNT>
10

> <PUBCHEM_PHARMACOPHORE_FEATURES>
12
1 1 acceptor
1 1 donor
1 16 hydrophobe
1 2 acceptor
1 26 hydrophobe
1 3 acceptor
1 4 acceptor
1 5 acceptor
1 6 donor
1 7 cation
3 2 3 12 anion
6 15 19 20 21 24 25 rings

> <PUBCHEM_HEAVY_ATOM_COUNT>
28

> <PUBCHEM_ATOM_DEF_STEREO_COUNT>
1

> <PUBCHEM_ATOM_UDEF_STEREO_COUNT>
1

> <PUBCHEM_BOND_DEF_STEREO_COUNT>
2

> <PUBCHEM_BOND_UDEF_STEREO_COUNT>
0

> <PUBCHEM_ISOTOPIC_ATOM_COUNT>
0

> <PUBCHEM_COMPONENT_COUNT>
1

> <PUBCHEM_CACTVS_TAUTO_COUNT>
-1

> <PUBCHEM_CONFORMER_ID>
0851E48600000001

> <PUBCHEM_MMFF94_ENERGY>
83.6812

> <PUBCHEM_FEATURE_SELFOVERLAP>
60.96

> <PUBCHEM_SHAPE_FINGERPRINT>
10554248 39 18056185892042705839
10673678 19 18341337729471725442
10675989 125 18336266717652145490
10692045 39 14779539072165747120
11059845 2 11892426003781887135
11135609 127 18340480076005242547
11954058 11 9727632808897679546
13150687 139 17918003797933595726
13383661 66 12109157368664060136
1361 87 13254508829257619917
13673619 4 10952057753592377970
13690498 29 17416114208837890511
13782708 43 10591755477024664563
13955234 65 17678173789586054739
14123256 34 9367076575108454704
14211702 104 9582930481813174333
14251764 30 9943540600250713392
14461889 52 17967824881021557315
14565420 104 18259983773601432578
14904525 67 18192148197262390345
14931854 50 17774735237784496896
15183329 4 18060419110398458713
15198563 99 17192912390732659326
15840311 113 18336552612418624909
16994733 274 18408601495672299449
20058555 10 18410856530076873657
20554085 129 17988070193477413626
20715895 44 18408605894446582888
21033648 29 17895198848467834070
21298829 104 18409732893443644748
21424621 283 18408324405841341091
21585481 151 11530748294092031872
21585482 111 18334295318757225532
21682296 61 9583520923630126661
23081809 10 18059003974894279003
23522609 53 17774174392407015265
23569914 2 16953616590896156637
23569943 247 9799429809868779517
25122255 55 12031495606438596421
25269216 80 17059766828423928535
270888 7 18337392764077816972
2748736 6 18410288120728960372
3004659 81 18057606464643743526
328310 630 18342461409539592889
34797466 226 17703800214388871927
3504750 166 11169910598632822819
393628 179 18059004129487235328
393628 194 18191589863939734204
406291 66 9151180843717807896
4073 2 18334580161668590019
4169191 19 18408321107681302557
44317340 157 18339931415672116487
465052 167 8718829795180565322
474113 269 10953744448038163369
5109719 28 18336278932433257097
531348 171 9439400217212476675
5372103 7 16199285747213602282
54039377 194 9006796297822979752
543368 44 18412825785846058973
57091435 61 18410015437982594122
5718773 13 9367351418159918232
59682541 52 16917083144278734366
6898599 12 18201154455512774519
9962374 69 8502359002202009744

> <PUBCHEM_SHAPE_MULTIPOLES>
536.92
23.48
3.8
1.44
20.06
0.44
-0.44
-24.21
0.43
-5.18
0.31
-0.34
-0.38
0.03

> <PUBCHEM_SHAPE_SELFOVERLAP>
1099.046

> <PUBCHEM_SHAPE_VOLUME>
309.1

> <PUBCHEM_COORDINATE_TYPE>
2
5
10

$$$$
