139584023
  -OEChem-03292013293D

 59 62  0     1  0  0  0  0  0999 V2000
    3.7553    0.7136    1.0550 O   0  0  0  0  0  0  0  0  0  0  0  0
    3.8033    2.5114   -1.1105 O   0  0  0  0  0  0  0  0  0  0  0  0
   -3.6128   -0.9592   -1.2308 O   0  0  0  0  0  0  0  0  0  0  0  0
   -2.6019    1.5105   -1.7492 O   0  0  0  0  0  0  0  0  0  0  0  0
   -2.1116   -2.6688    0.2514 O   0  0  0  0  0  0  0  0  0  0  0  0
   -3.6110   -0.0782    0.9013 O   0  0  0  0  0  0  0  0  0  0  0  0
   -6.2759   -1.2789    2.1197 O   0  0  0  0  0  0  0  0  0  0  0  0
    1.0404    2.7290   -0.0270 N   0  0  3  0  0  0  0  0  0  0  0  0
    1.6354    1.8828    1.0185 C   0  0  2  0  0  0  0  0  0  0  0  0
    3.1487    2.0177    1.1869 C   0  0  2  0  0  0  0  0  0  0  0  0
    3.7895    3.0151    0.2223 C   0  0  2  0  0  0  0  0  0  0  0  0
    1.5107    0.4426    0.6294 C   0  0  0  0  0  0  0  0  0  0  0  0
    2.9729    4.3015    0.2586 C   0  0  0  0  0  0  0  0  0  0  0  0
    1.5282    4.0974   -0.2081 C   0  0  0  0  0  0  0  0  0  0  0  0
    0.2117    0.0151    0.1220 C   0  0  0  0  0  0  0  0  0  0  0  0
    2.7140   -0.1305    0.6732 C   0  0  0  0  0  0  0  0  0  0  0  0
   -0.1252    2.2862   -0.6562 C   0  0  0  0  0  0  0  0  0  0  0  0
   -0.5845    1.0219   -0.5896 C   0  0  0  0  0  0  0  0  0  0  0  0
   -2.2048   -0.8206   -1.3003 C   0  0  1  0  0  0  0  0  0  0  0  0
   -1.8674    0.6591   -1.2526 C   0  0  0  0  0  0  0  0  0  0  0  0
   -0.2684   -1.2175    0.3536 C   0  0  0  0  0  0  0  0  0  0  0  0
   -1.5858   -1.6454   -0.1834 C   0  0  0  0  0  0  0  0  0  0  0  0
    3.1141   -1.4480    0.2857 C   0  0  0  0  0  0  0  0  0  0  0  0
   -1.7514   -1.3885   -2.6446 C   0  0  0  0  0  0  0  0  0  0  0  0
    4.3756   -1.8995    0.3848 C   0  0  0  0  0  0  0  0  0  0  0  0
   -4.2027   -0.5463   -0.0616 C   0  0  0  0  0  0  0  0  0  0  0  0
    4.7717   -3.2330   -0.0100 C   0  0  0  0  0  0  0  0  0  0  0  0
   -5.6996   -0.7583   -0.1523 C   0  0  0  0  0  0  0  0  0  0  0  0
   -6.4324   -0.2887    1.1051 C   0  0  1  0  0  0  0  0  0  0  0  0
    6.0309   -3.6840    0.0889 C   0  0  0  0  0  0  0  0  0  0  0  0
   -7.9195   -0.1000    0.8359 C   0  0  0  0  0  0  0  0  0  0  0  0
    6.4524   -5.0585   -0.3162 C   0  0  0  0  0  0  0  0  0  0  0  0
    1.1260    2.0701    1.9729 H   0  0  0  0  0  0  0  0  0  0  0  0
    3.3539    2.3514    2.2134 H   0  0  0  0  0  0  0  0  0  0  0  0
    4.8303    3.1954    0.5122 H   0  0  0  0  0  0  0  0  0  0  0  0
    3.4386    5.0689   -0.3714 H   0  0  0  0  0  0  0  0  0  0  0  0
    2.9683    4.6979    1.2820 H   0  0  0  0  0  0  0  0  0  0  0  0
    0.8700    4.8006    0.3158 H   0  0  0  0  0  0  0  0  0  0  0  0
    1.4752    4.3493   -1.2753 H   0  0  0  0  0  0  0  0  0  0  0  0
   -0.6340    3.0699   -1.2065 H   0  0  0  0  0  0  0  0  0  0  0  0
    0.2647   -1.9510    0.9490 H   0  0  0  0  0  0  0  0  0  0  0  0
    4.2047    3.1924   -1.6768 H   0  0  0  0  0  0  0  0  0  0  0  0
    2.3524   -2.1064   -0.1210 H   0  0  0  0  0  0  0  0  0  0  0  0
   -2.2335   -0.8612   -3.4762 H   0  0  0  0  0  0  0  0  0  0  0  0
   -2.0295   -2.4448   -2.7380 H   0  0  0  0  0  0  0  0  0  0  0  0
   -0.6667   -1.3104   -2.7772 H   0  0  0  0  0  0  0  0  0  0  0  0
    5.1654   -1.2662    0.7821 H   0  0  0  0  0  0  0  0  0  0  0  0
    3.9980   -3.8870   -0.4043 H   0  0  0  0  0  0  0  0  0  0  0  0
   -5.8771   -1.8266   -0.3213 H   0  0  0  0  0  0  0  0  0  0  0  0
   -6.0472   -0.1862   -1.0203 H   0  0  0  0  0  0  0  0  0  0  0  0
   -6.0193    0.6527    1.4844 H   0  0  0  0  0  0  0  0  0  0  0  0
    6.8123   -3.0379    0.4816 H   0  0  0  0  0  0  0  0  0  0  0  0
   -8.3781   -1.0359    0.4979 H   0  0  0  0  0  0  0  0  0  0  0  0
   -8.0936    0.6711    0.0793 H   0  0  0  0  0  0  0  0  0  0  0  0
   -8.4390    0.1897    1.7557 H   0  0  0  0  0  0  0  0  0  0  0  0
    5.6177   -5.6525   -0.7015 H   0  0  0  0  0  0  0  0  0  0  0  0
    7.2171   -4.9985   -1.0965 H   0  0  0  0  0  0  0  0  0  0  0  0
    6.8781   -5.5856    0.5430 H   0  0  0  0  0  0  0  0  0  0  0  0
   -5.3253   -1.3610    2.3067 H   0  0  0  0  0  0  0  0  0  0  0  0
  1 10  1  0  0  0  0
  1 16  1  0  0  0  0
  2 11  1  0  0  0  0
  2 42  1  0  0  0  0
  3 19  1  0  0  0  0
  3 26  1  0  0  0  0
  4 20  2  0  0  0  0
  5 22  2  0  0  0  0
  6 26  2  0  0  0  0
  7 29  1  0  0  0  0
  7 59  1  0  0  0  0
  8  9  1  0  0  0  0
  8 14  1  0  0  0  0
  8 17  1  0  0  0  0
  9 10  1  0  0  0  0
  9 12  1  0  0  0  0
  9 33  1  0  0  0  0
 10 11  1  0  0  0  0
 10 34  1  0  0  0  0
 11 13  1  0  0  0  0
 11 35  1  0  0  0  0
 12 15  1  0  0  0  0
 12 16  2  0  0  0  0
 13 14  1  0  0  0  0
 13 36  1  0  0  0  0
 13 37  1  0  0  0  0
 14 38  1  0  0  0  0
 14 39  1  0  0  0  0
 15 18  1  0  0  0  0
 15 21  2  0  0  0  0
 16 23  1  0  0  0  0
 17 18  2  0  0  0  0
 17 40  1  0  0  0  0
 18 20  1  0  0  0  0
 19 20  1  0  0  0  0
 19 22  1  0  0  0  0
 19 24  1  0  0  0  0
 21 22  1  0  0  0  0
 21 41  1  0  0  0  0
 23 25  2  0  0  0  0
 23 43  1  0  0  0  0
 24 44  1  0  0  0  0
 24 45  1  0  0  0  0
 24 46  1  0  0  0  0
 25 27  1  0  0  0  0
 25 47  1  0  0  0  0
 26 28  1  0  0  0  0
 27 30  2  0  0  0  0
 27 48  1  0  0  0  0
 28 29  1  0  0  0  0
 28 49  1  0  0  0  0
 28 50  1  0  0  0  0
 29 31  1  0  0  0  0
 29 51  1  0  0  0  0
 30 32  1  0  0  0  0
 30 52  1  0  0  0  0
 31 53  1  0  0  0  0
 31 54  1  0  0  0  0
 31 55  1  0  0  0  0
 32 56  1  0  0  0  0
 32 57  1  0  0  0  0
 32 58  1  0  0  0  0
M  END
> <PUBCHEM_COMPOUND_CID>
139584023

> <PUBCHEM_CONFORMER_RMSD>
1

> <PUBCHEM_CONFORMER_DIVERSEORDER>
1
14
38
49
33
62
71
66
51
64
54
29
39
30
56
34
40
72
59
69
15
67
2
45
42
22
44
20
46
53
36
50
10
70
16
55
9
63
12
18
31
32
21
65
7
57
11
17
47
48
8
37
60
58
25
3
13
35
68
23
26
52
43
27
5
41
19
4
61
24
6
28

> <PUBCHEM_MMFF94_PARTIAL_CHARGES>
36
1 -0.36
10 0.28
11 0.28
12 -0.14
14 0.37
16 0.08
17 -0.05
18 0.01
19 0.4
2 -0.68
20 0.49
21 -0.14
22 0.49
23 -0.15
25 -0.15
26 0.66
27 -0.15
28 0.06
29 0.28
3 -0.43
30 -0.29
32 0.14
4 -0.57
40 0.15
41 0.15
42 0.4
43 0.15
47 0.15
48 0.15
5 -0.57
52 0.15
59 0.4
6 -0.57
7 -0.68
8 -0.84
9 0.51

> <PUBCHEM_EFFECTIVE_ROTOR_COUNT>
7

> <PUBCHEM_PHARMACOPHORE_FEATURES>
14
1 1 acceptor
1 2 acceptor
1 2 donor
1 32 hydrophobe
1 4 acceptor
1 5 acceptor
1 6 acceptor
1 7 acceptor
1 7 donor
1 8 cation
5 1 9 10 12 16 rings
6 15 18 19 20 21 22 rings
6 8 9 10 11 13 14 rings
6 8 9 12 15 17 18 rings

> <PUBCHEM_HEAVY_ATOM_COUNT>
32

> <PUBCHEM_ATOM_DEF_STEREO_COUNT>
2

> <PUBCHEM_ATOM_UDEF_STEREO_COUNT>
3

> <PUBCHEM_BOND_DEF_STEREO_COUNT>
2

> <PUBCHEM_BOND_UDEF_STEREO_COUNT>
0

> <PUBCHEM_ISOTOPIC_ATOM_COUNT>
0

> <PUBCHEM_COMPONENT_COUNT>
1

> <PUBCHEM_CACTVS_TAUTO_COUNT>
-1

> <PUBCHEM_CONFORMER_ID>
0851E21700000001

> <PUBCHEM_MMFF94_ENERGY>
85.2871

> <PUBCHEM_FEATURE_SELFOVERLAP>
71.336

> <PUBCHEM_SHAPE_FINGERPRINT>
10411042 1 18266741282103259482
11135609 12 18335128792094979712
11135926 11 18266445681053043356
12107183 9 18273216366092723475
12236239 1 18058731458992318997
12553582 1 18194102054856784978
12788726 201 17489042538458724353
13009979 54 18059574620980631072
13533116 47 18411701019430865673
13540713 4 18189034456808139941
13540713 5 17845358015981451991
13673619 4 18041283162330479927
13782708 43 17603294943311004675
13785724 45 18341336582873478990
14114211 68 17970087714901326204
14114211 80 17614289192031913484
14739800 52 17345465071413647529
14790565 3 17614846644116095637
14866123 147 17766553556602283512
14955137 171 18338235955561102705
15021287 119 18272083856020254543
15081414 286 18337102453689155992
15238133 3 17560525130812360873
1813 80 18200601293926515790
20101258 96 18194683662273987114
20775530 9 18266444426959451078
21049683 271 18335427846762988900
21133410 32 16445355268315554898
21365058 113 18041569052644029484
21716022 299 18263100855217759124
22033318 11 18057066648016662825
22182313 1 17677870462089314373
2260408 40 18131340934678601162
23559900 14 18338779144976702142
23569943 247 18269266864386617523
24180151 248 17967819349130054092
24771750 20 18044103582351216596
249057 25 17632576068225550875
255183 451 18340208492923764294
4144715 1 18114470033047713585
4516262 110 18194393627301745013
46194498 28 17749107807789344660
54039377 194 18267308630299059422
6058803 2 17701241762706129991
633830 44 17910392019877612892
70251023 43 18335985255865869690

> <PUBCHEM_SHAPE_MULTIPOLES>
612.48
14.78
5.33
1.46
15.34
0.9
0.49
-15.14
-5.23
-13.42
0.32
1.76
-0.18
0.76

> <PUBCHEM_SHAPE_SELFOVERLAP>
1323.843

> <PUBCHEM_SHAPE_VOLUME>
329.7

> <PUBCHEM_COORDINATE_TYPE>
2
5
10

$$$$
