139589109
  -OEChem-03292013293D

 35 37  0     1  0  0  0  0  0999 V2000
    2.0968    1.6577   -1.1395 O   0  0  0  0  0  0  0  0  0  0  0  0
    2.6915   -1.8481   -0.0797 O   0  0  0  0  0  0  0  0  0  0  0  0
    2.2470   -0.4914    2.4432 O   0  0  0  0  0  0  0  0  0  0  0  0
   -1.4958    2.4377    0.1949 O   0  0  0  0  0  0  0  0  0  0  0  0
    0.1137   -2.7628    0.0965 O   0  0  0  0  0  0  0  0  0  0  0  0
   -4.0191    1.5306   -0.4483 O   0  0  0  0  0  0  0  0  0  0  0  0
   -2.4771   -2.3237   -0.3400 N   0  0  0  0  0  0  0  0  0  0  0  0
   -4.3911   -0.5184    0.5493 N   0  0  0  0  0  0  0  0  0  0  0  0
    2.1898   -0.5290   -0.0068 C   0  0  1  0  0  0  0  0  0  0  0  0
    2.6988    0.1847    1.2718 C   0  0  1  0  0  0  0  0  0  0  0  0
    1.2736    1.8474    0.0382 C   0  0  2  0  0  0  0  0  0  0  0  0
    2.6734    0.3298   -1.2087 C   0  0  1  0  0  0  0  0  0  0  0  0
    2.1707    1.6357    1.2778 C   0  0  0  0  0  0  0  0  0  0  0  0
    0.6765   -0.4591    0.0023 C   0  0  0  0  0  0  0  0  0  0  0  0
    0.1810    0.7899    0.0211 C   0  0  0  0  0  0  0  0  0  0  0  0
    2.3491   -0.2609   -2.5792 C   0  0  0  0  0  0  0  0  0  0  0  0
   -0.2457   -1.5996    0.0028 C   0  0  0  0  0  0  0  0  0  0  0  0
   -1.2337    1.0906    0.0590 C   0  0  0  0  0  0  0  0  0  0  0  0
   -2.1733    0.1242   -0.0208 C   0  0  0  0  0  0  0  0  0  0  0  0
   -1.7193   -1.2996   -0.1305 C   0  0  0  0  0  0  0  0  0  0  0  0
   -3.6066    0.4643   -0.0033 C   0  0  0  0  0  0  0  0  0  0  0  0
    3.7947    0.1694    1.3070 H   0  0  0  0  0  0  0  0  0  0  0  0
    0.8938    2.8720    0.0095 H   0  0  0  0  0  0  0  0  0  0  0  0
    3.7635    0.4478   -1.1583 H   0  0  0  0  0  0  0  0  0  0  0  0
    3.0270    2.3183    1.2149 H   0  0  0  0  0  0  0  0  0  0  0  0
    1.6218    1.8649    2.1985 H   0  0  0  0  0  0  0  0  0  0  0  0
    1.2691   -0.3253   -2.7474 H   0  0  0  0  0  0  0  0  0  0  0  0
    2.7853   -1.2566   -2.7007 H   0  0  0  0  0  0  0  0  0  0  0  0
    2.7438    0.3876   -3.3693 H   0  0  0  0  0  0  0  0  0  0  0  0
    2.4392   -2.3102    0.7380 H   0  0  0  0  0  0  0  0  0  0  0  0
    2.5964   -0.0085    3.2116 H   0  0  0  0  0  0  0  0  0  0  0  0
   -2.4565    2.5717    0.2409 H   0  0  0  0  0  0  0  0  0  0  0  0
   -1.9287   -3.1893   -0.3774 H   0  0  0  0  0  0  0  0  0  0  0  0
   -4.0214   -1.3826    0.9317 H   0  0  0  0  0  0  0  0  0  0  0  0
   -5.3969   -0.3987    0.6129 H   0  0  0  0  0  0  0  0  0  0  0  0
  1 11  1  0  0  0  0
  1 12  1  0  0  0  0
  2  9  1  0  0  0  0
  2 30  1  0  0  0  0
  3 10  1  0  0  0  0
  3 31  1  0  0  0  0
  4 18  1  0  0  0  0
  4 32  1  0  0  0  0
  5 17  2  0  0  0  0
  6 21  2  0  0  0  0
  7 20  2  0  0  0  0
  7 33  1  0  0  0  0
  8 21  1  0  0  0  0
  8 34  1  0  0  0  0
  8 35  1  0  0  0  0
  9 10  1  0  0  0  0
  9 12  1  0  0  0  0
  9 14  1  0  0  0  0
 10 13  1  0  0  0  0
 10 22  1  0  0  0  0
 11 13  1  0  0  0  0
 11 15  1  0  0  0  0
 11 23  1  0  0  0  0
 12 16  1  0  0  0  0
 12 24  1  0  0  0  0
 13 25  1  0  0  0  0
 13 26  1  0  0  0  0
 14 15  2  0  0  0  0
 14 17  1  0  0  0  0
 15 18  1  0  0  0  0
 16 27  1  0  0  0  0
 16 28  1  0  0  0  0
 16 29  1  0  0  0  0
 17 20  1  0  0  0  0
 18 19  2  0  0  0  0
 19 20  1  0  0  0  0
 19 21  1  0  0  0  0
M  END
> <PUBCHEM_COMPOUND_CID>
139589109

> <PUBCHEM_CONFORMER_RMSD>
0.6

> <PUBCHEM_CONFORMER_DIVERSEORDER>
1
2

> <PUBCHEM_MMFF94_PARTIAL_CHARGES>
25
1 -0.56
10 0.28
11 0.42
12 0.28
14 -0.12
15 -0.14
17 0.56
18 0.08
19 0.03
2 -0.68
20 0.44
21 0.62
3 -0.68
30 0.4
31 0.4
32 0.45
33 0.4
34 0.37
35 0.37
4 -0.53
5 -0.57
6 -0.57
7 -0.85
8 -0.8
9 0.42

> <PUBCHEM_EFFECTIVE_ROTOR_COUNT>
1.8

> <PUBCHEM_PHARMACOPHORE_FEATURES>
13
1 1 acceptor
1 2 acceptor
1 2 donor
1 3 acceptor
1 3 donor
1 4 donor
1 5 acceptor
1 6 acceptor
1 7 acceptor
1 7 donor
1 8 donor
6 14 15 17 18 19 20 rings
8 1 9 10 11 12 13 14 15 rings

> <PUBCHEM_HEAVY_ATOM_COUNT>
21

> <PUBCHEM_ATOM_DEF_STEREO_COUNT>
4

> <PUBCHEM_ATOM_UDEF_STEREO_COUNT>
0

> <PUBCHEM_BOND_DEF_STEREO_COUNT>
0

> <PUBCHEM_BOND_UDEF_STEREO_COUNT>
0

> <PUBCHEM_ISOTOPIC_ATOM_COUNT>
0

> <PUBCHEM_COMPONENT_COUNT>
1

> <PUBCHEM_CACTVS_TAUTO_COUNT>
-1

> <PUBCHEM_CONFORMER_ID>
0851F5F500000001

> <PUBCHEM_MMFF94_ENERGY>
72.5173

> <PUBCHEM_FEATURE_SELFOVERLAP>
66.006

> <PUBCHEM_SHAPE_FINGERPRINT>
10967382 1 18411418423277708371
12236239 1 17749391443176685554
12382932 28 18270389620064987561
12423570 1 16387364533742347252
12553582 1 17762619886329740239
13134695 92 16343713110122797456
13140716 1 18411415150581415395
13172582 1 18334846217057819737
13224815 77 18337390551853154915
13538477 17 18113619031546678850
13583140 156 16950832679157270521
14142880 1 13024773850372444483
14289901 80 16153717543845635457
16752209 62 18338797793603706821
16945 1 18412824659878961617
17980427 23 17912616263138818192
1813 80 17024298627516295306
18186145 218 18060707173791476761
18522853 295 18412832377840221023
19765921 60 17315652947619017052
19786989 88 15068907532835399676
20233049 118 18334297543744722924
20559304 39 18334575715817534890
20645476 183 17749965460659721511
20905425 154 17766283072056480462
22802520 49 17987535829813262574
2334 1 18195526115471400951
23419403 2 15307538531599734138
23493267 7 17749970911078520379
23526113 38 17631190618622354380
23557571 272 17773873280122635423
23559900 14 18272378581609078364
2748010 2 18269560601303845879
335352 9 18194964046049592247
3797600 57 16881064383743986779
474 4 16372431378730042660
495365 180 16988839488545655065
5337951 7 17775007890349443072
633830 44 18131356289319007213
7097593 13 17604692375276364843
7364860 26 18272084946736147866
74978 22 18412830208976727597
77492 1 17676763270584985822
81228 2 17908141332607877123
9981440 41 17106246668022682356

> <PUBCHEM_SHAPE_MULTIPOLES>
386.99
5.8
2.35
1.48
5.41
0.45
-0.19
-0.57
-0.11
0.47
0.06
-1.92
0.02
0.24

> <PUBCHEM_SHAPE_SELFOVERLAP>
858.901

> <PUBCHEM_SHAPE_VOLUME>
205.3

> <PUBCHEM_COORDINATE_TYPE>
2
5
10

$$$$
