139589448
  -OEChem-03292013293D

 61 61  0     1  0  0  0  0  0999 V2000
    2.0727   -1.5633    2.3716 O   0  0  0  0  0  0  0  0  0  0  0  0
    6.0110   -0.7306    0.7896 O   0  0  0  0  0  0  0  0  0  0  0  0
    6.3469    1.0939   -0.5030 O   0  0  0  0  0  0  0  0  0  0  0  0
   -0.1569    0.1738   -0.4406 O   0  0  0  0  0  0  0  0  0  0  0  0
   -2.1975   -3.5274   -3.1357 O   0  0  0  0  0  0  0  0  0  0  0  0
   -4.1692   -1.4109    1.5779 O   0  0  0  0  0  0  0  0  0  0  0  0
    3.4571    0.0018    1.3312 N   0  0  0  0  0  0  0  0  0  0  0  0
    0.6778   -1.9242    0.0910 N   0  0  0  0  0  0  0  0  0  0  0  0
   -2.7019   -0.5509    0.0007 N   0  0  0  0  0  0  0  0  0  0  0  0
    4.0790    0.5904    0.1737 C   0  0  1  0  0  0  0  0  0  0  0  0
    3.6844    2.0631   -0.0136 C   0  0  0  0  0  0  0  0  0  0  0  0
    3.6788    2.6276   -1.4524 C   0  0  0  0  0  0  0  0  0  0  0  0
    2.0750   -1.5825   -0.0247 C   0  0  1  0  0  0  0  0  0  0  0  0
    2.5367   -1.0687    1.3383 C   0  0  0  0  0  0  0  0  0  0  0  0
    2.6848    1.8289   -2.3040 C   0  0  0  0  0  0  0  0  0  0  0  0
    3.3353    4.1133   -1.5312 C   0  0  0  0  0  0  0  0  0  0  0  0
    5.5825    0.3691    0.1249 C   0  0  0  0  0  0  0  0  0  0  0  0
    3.8795    0.5500    2.6254 C   0  0  0  0  0  0  0  0  0  0  0  0
   -1.7209   -1.6020    0.0903 C   0  0  2  0  0  0  0  0  0  0  0  0
   -0.3358   -1.0023   -0.1303 C   0  0  0  0  0  0  0  0  0  0  0  0
    2.8881   -2.7964   -0.4503 C   0  0  0  0  0  0  0  0  0  0  0  0
   -2.0202   -2.7522   -0.8754 C   0  0  0  0  0  0  0  0  0  0  0  0
   -1.9192   -2.3741   -2.3509 C   0  0  0  0  0  0  0  0  0  0  0  0
   -3.8616   -0.5438    0.7641 C   0  0  0  0  0  0  0  0  0  0  0  0
   -4.7848    0.5973    0.5356 C   0  0  0  0  0  0  0  0  0  0  0  0
   -6.1502    0.4500    0.7792 C   0  0  0  0  0  0  0  0  0  0  0  0
   -4.2856    1.8169    0.0786 C   0  0  0  0  0  0  0  0  0  0  0  0
   -7.0166    1.5222    0.5659 C   0  0  0  0  0  0  0  0  0  0  0  0
   -5.1518    2.8892   -0.1347 C   0  0  0  0  0  0  0  0  0  0  0  0
   -6.5173    2.7418    0.1089 C   0  0  0  0  0  0  0  0  0  0  0  0
    3.7713    0.0387   -0.7080 H   0  0  0  0  0  0  0  0  0  0  0  0
    2.6756    2.2151    0.3968 H   0  0  0  0  0  0  0  0  0  0  0  0
    4.3488    2.6917    0.5950 H   0  0  0  0  0  0  0  0  0  0  0  0
    4.6762    2.5008   -1.8887 H   0  0  0  0  0  0  0  0  0  0  0  0
    2.1142   -0.8145   -0.7947 H   0  0  0  0  0  0  0  0  0  0  0  0
    2.3305    4.3083   -1.1413 H   0  0  0  0  0  0  0  0  0  0  0  0
    4.0458    4.7034   -0.9431 H   0  0  0  0  0  0  0  0  0  0  0  0
    1.6967    1.7881   -1.8346 H   0  0  0  0  0  0  0  0  0  0  0  0
    2.5639    2.2935   -3.2894 H   0  0  0  0  0  0  0  0  0  0  0  0
    3.0271    0.8075   -2.4887 H   0  0  0  0  0  0  0  0  0  0  0  0
    3.3758    4.4729   -2.5648 H   0  0  0  0  0  0  0  0  0  0  0  0
   -1.7436   -1.9966    1.1144 H   0  0  0  0  0  0  0  0  0  0  0  0
    3.5767    1.5993    2.6846 H   0  0  0  0  0  0  0  0  0  0  0  0
    3.4160    0.0184    3.4606 H   0  0  0  0  0  0  0  0  0  0  0  0
    4.9635    0.4788    2.7385 H   0  0  0  0  0  0  0  0  0  0  0  0
    0.4401   -2.8477    0.4415 H   0  0  0  0  0  0  0  0  0  0  0  0
    2.8217   -3.6009    0.2911 H   0  0  0  0  0  0  0  0  0  0  0  0
    2.5258   -3.1937   -1.4046 H   0  0  0  0  0  0  0  0  0  0  0  0
    3.9460   -2.5396   -0.5648 H   0  0  0  0  0  0  0  0  0  0  0  0
   -3.0275   -3.1449   -0.6825 H   0  0  0  0  0  0  0  0  0  0  0  0
   -1.3452   -3.5962   -0.6854 H   0  0  0  0  0  0  0  0  0  0  0  0
   -2.5515    0.1583   -0.7091 H   0  0  0  0  0  0  0  0  0  0  0  0
   -0.9147   -2.0245   -2.6069 H   0  0  0  0  0  0  0  0  0  0  0  0
   -2.6450   -1.5974   -2.6103 H   0  0  0  0  0  0  0  0  0  0  0  0
    6.9816   -0.8502    0.7135 H   0  0  0  0  0  0  0  0  0  0  0  0
   -2.1291   -3.2606   -4.0683 H   0  0  0  0  0  0  0  0  0  0  0  0
   -6.5591   -0.4934    1.1315 H   0  0  0  0  0  0  0  0  0  0  0  0
   -3.2264    1.9842   -0.0930 H   0  0  0  0  0  0  0  0  0  0  0  0
   -8.0799    1.4074    0.7550 H   0  0  0  0  0  0  0  0  0  0  0  0
   -4.7626    3.8413   -0.4835 H   0  0  0  0  0  0  0  0  0  0  0  0
   -7.1915    3.5772   -0.0558 H   0  0  0  0  0  0  0  0  0  0  0  0
  1 14  2  0  0  0  0
  2 17  1  0  0  0  0
  2 55  1  0  0  0  0
  3 17  2  0  0  0  0
  4 20  2  0  0  0  0
  5 23  1  0  0  0  0
  5 56  1  0  0  0  0
  6 24  2  0  0  0  0
  7 10  1  0  0  0  0
  7 14  1  0  0  0  0
  7 18  1  0  0  0  0
  8 13  1  0  0  0  0
  8 20  1  0  0  0  0
  8 46  1  0  0  0  0
  9 19  1  0  0  0  0
  9 24  1  0  0  0  0
  9 52  1  0  0  0  0
 10 11  1  0  0  0  0
 10 17  1  0  0  0  0
 10 31  1  0  0  0  0
 11 12  1  0  0  0  0
 11 32  1  0  0  0  0
 11 33  1  0  0  0  0
 12 15  1  0  0  0  0
 12 16  1  0  0  0  0
 12 34  1  0  0  0  0
 13 14  1  0  0  0  0
 13 21  1  0  0  0  0
 13 35  1  0  0  0  0
 15 38  1  0  0  0  0
 15 39  1  0  0  0  0
 15 40  1  0  0  0  0
 16 36  1  0  0  0  0
 16 37  1  0  0  0  0
 16 41  1  0  0  0  0
 18 43  1  0  0  0  0
 18 44  1  0  0  0  0
 18 45  1  0  0  0  0
 19 20  1  0  0  0  0
 19 22  1  0  0  0  0
 19 42  1  0  0  0  0
 21 47  1  0  0  0  0
 21 48  1  0  0  0  0
 21 49  1  0  0  0  0
 22 23  1  0  0  0  0
 22 50  1  0  0  0  0
 22 51  1  0  0  0  0
 23 53  1  0  0  0  0
 23 54  1  0  0  0  0
 24 25  1  0  0  0  0
 25 26  2  0  0  0  0
 25 27  1  0  0  0  0
 26 28  1  0  0  0  0
 26 57  1  0  0  0  0
 27 29  2  0  0  0  0
 27 58  1  0  0  0  0
 28 30  2  0  0  0  0
 28 59  1  0  0  0  0
 29 30  1  0  0  0  0
 29 60  1  0  0  0  0
 30 61  1  0  0  0  0
M  END
> <PUBCHEM_COMPOUND_CID>
139589448

> <PUBCHEM_CONFORMER_RMSD>
1.2

> <PUBCHEM_CONFORMER_DIVERSEORDER>
1
43
16
10
33
40
24
37
45
55
48
44
41
36
38
8
34
11
17
22
21
49
27
31
52
15
39
19
35
2
23
9
13
32
12
29
18
42
6
50
51
26
28
30
54
25
7
20
47
46
3
53
4
14
5

> <PUBCHEM_MMFF94_PARTIAL_CHARGES>
33
1 -0.57
10 0.36
13 0.36
14 0.57
17 0.66
18 0.3
19 0.36
2 -0.65
20 0.57
23 0.28
24 0.54
25 0.09
26 -0.15
27 -0.15
28 -0.15
29 -0.15
3 -0.57
30 -0.15
4 -0.57
46 0.37
5 -0.68
52 0.37
55 0.5
56 0.4
57 0.15
58 0.15
59 0.15
6 -0.57
60 0.15
61 0.15
7 -0.66
8 -0.73
9 -0.73

> <PUBCHEM_EFFECTIVE_ROTOR_COUNT>
14

> <PUBCHEM_PHARMACOPHORE_FEATURES>
12
1 1 acceptor
1 2 acceptor
1 3 acceptor
1 4 acceptor
1 5 acceptor
1 5 donor
1 6 acceptor
1 8 donor
1 9 donor
3 12 15 16 hydrophobe
3 2 3 17 anion
6 25 26 27 28 29 30 rings

> <PUBCHEM_HEAVY_ATOM_COUNT>
30

> <PUBCHEM_ATOM_DEF_STEREO_COUNT>
3

> <PUBCHEM_ATOM_UDEF_STEREO_COUNT>
0

> <PUBCHEM_BOND_DEF_STEREO_COUNT>
0

> <PUBCHEM_BOND_UDEF_STEREO_COUNT>
0

> <PUBCHEM_ISOTOPIC_ATOM_COUNT>
0

> <PUBCHEM_COMPONENT_COUNT>
1

> <PUBCHEM_CACTVS_TAUTO_COUNT>
-1

> <PUBCHEM_CONFORMER_ID>
0851F74800000001

> <PUBCHEM_MMFF94_ENERGY>
76.1536

> <PUBCHEM_FEATURE_SELFOVERLAP>
60.96

> <PUBCHEM_SHAPE_FINGERPRINT>
10763959 59 18337680697851936510
11135609 99 8862649193322531144
12422481 6 18040715857306666013
12596602 18 17749108855787784345
13583140 156 17241308180427095471
13911987 19 17703789181445797291
14950920 106 17386002914157101489
21033648 29 18271514343003039939
22122407 14 18114475521309464913
23559900 14 18265342703006890059
249057 3 18059295358107620134
2838139 119 18409729565292162373
6086070 43 16845562136999759922
633830 44 18188488111709597706
6609424 69 17969781865267708397

> <PUBCHEM_SHAPE_MULTIPOLES>
567.23
16.51
4.18
2.1
12.42
1.15
0.63
12.64
-4.2
0.36
3
-1.3
-1.03
-2.95

> <PUBCHEM_SHAPE_SELFOVERLAP>
1143.733

> <PUBCHEM_SHAPE_VOLUME>
329.3

> <PUBCHEM_COORDINATE_TYPE>
2
5
10

$$$$
