139585597
  -OEChem-03292013293D

 59 61  0     1  0  0  0  0  0999 V2000
    2.3646   -2.2412   -1.4726 O   0  0  0  0  0  0  0  0  0  0  0  0
    0.8346   -2.9274    1.7998 O   0  0  0  0  0  0  0  0  0  0  0  0
    4.3027   -4.0724    0.9510 O   0  0  0  0  0  0  0  0  0  0  0  0
    2.1419    0.6538    0.0755 O   0  0  0  0  0  0  0  0  0  0  0  0
    2.6999    1.4197   -2.0470 O   0  0  0  0  0  0  0  0  0  0  0  0
    3.5009    3.7609    0.0762 O   0  0  0  0  0  0  0  0  0  0  0  0
   -4.9752    1.2830    1.6449 O   0  0  0  0  0  0  0  0  0  0  0  0
  -10.6646   -0.5155   -0.6772 O   0  0  0  0  0  0  0  0  0  0  0  0
   -3.8320    0.7605   -0.3174 N   0  0  0  0  0  0  0  0  0  0  0  0
   -9.7365   -0.0245    0.2517 N   0  0  0  0  0  0  0  0  0  0  0  0
    1.5733   -2.8602   -0.4511 C   0  0  1  0  0  0  0  0  0  0  0  0
    2.9253   -3.4183   -0.8797 C   0  0  2  0  0  0  0  0  0  0  0  0
    1.3485   -2.0537    0.7888 C   0  0  1  0  0  0  0  0  0  0  0  0
    4.2512   -3.2189   -0.1953 C   0  0  1  0  0  0  0  0  0  0  0  0
    0.3524   -0.8986    0.6000 C   0  0  0  0  0  0  0  0  0  0  0  0
    0.8296    0.2188   -0.3417 C   0  0  1  0  0  0  0  0  0  0  0  0
    4.6307   -1.8321    0.2471 C   0  0  0  0  0  0  0  0  0  0  0  0
   -0.1267    1.4072   -0.2918 C   0  0  0  0  0  0  0  0  0  0  0  0
    5.0154   -0.8637   -0.5975 C   0  0  0  0  0  0  0  0  0  0  0  0
    5.2333    0.5071   -0.1295 C   0  0  0  0  0  0  0  0  0  0  0  0
   -1.5087    1.0094   -0.7117 C   0  0  0  0  0  0  0  0  0  0  0  0
    2.9436    1.1963   -0.8745 C   0  0  0  0  0  0  0  0  0  0  0  0
    4.2384    1.4930   -0.2492 C   0  0  0  0  0  0  0  0  0  0  0  0
    6.4521    0.8524    0.4672 C   0  0  0  0  0  0  0  0  0  0  0  0
    4.4571    2.7985    0.1977 C   0  0  0  0  0  0  0  0  0  0  0  0
   -2.5809    1.1176    0.0819 C   0  0  0  0  0  0  0  0  0  0  0  0
    6.6710    2.1554    0.9222 C   0  0  0  0  0  0  0  0  0  0  0  0
    5.6771    3.1252    0.7865 C   0  0  0  0  0  0  0  0  0  0  0  0
   -4.9561    0.8654    0.4911 C   0  0  0  0  0  0  0  0  0  0  0  0
   -6.1873    0.4024   -0.2095 C   0  0  0  0  0  0  0  0  0  0  0  0
   -7.3636    0.4355    0.4260 C   0  0  0  0  0  0  0  0  0  0  0  0
   -8.5657   -0.0278   -0.2950 C   0  0  0  0  0  0  0  0  0  0  0  0
  -11.9463   -0.5077   -0.0670 C   0  0  0  0  0  0  0  0  0  0  0  0
    0.6838   -3.3887   -0.7731 H   0  0  0  0  0  0  0  0  0  0  0  0
    2.9084   -4.3334   -1.4613 H   0  0  0  0  0  0  0  0  0  0  0  0
    2.2780   -1.6534    1.1901 H   0  0  0  0  0  0  0  0  0  0  0  0
    5.0281   -3.5834   -0.8794 H   0  0  0  0  0  0  0  0  0  0  0  0
   -0.6036   -1.3134    0.2570 H   0  0  0  0  0  0  0  0  0  0  0  0
    0.1547   -0.4691    1.5920 H   0  0  0  0  0  0  0  0  0  0  0  0
    0.8799   -0.1745   -1.3647 H   0  0  0  0  0  0  0  0  0  0  0  0
    4.5444   -1.6069    1.3087 H   0  0  0  0  0  0  0  0  0  0  0  0
    0.7399   -2.4089    2.6171 H   0  0  0  0  0  0  0  0  0  0  0  0
    0.2289    2.2006   -0.9603 H   0  0  0  0  0  0  0  0  0  0  0  0
   -0.1213    1.8505    0.7124 H   0  0  0  0  0  0  0  0  0  0  0  0
    5.2056   -4.0340    1.3110 H   0  0  0  0  0  0  0  0  0  0  0  0
    5.0935   -1.0380   -1.6656 H   0  0  0  0  0  0  0  0  0  0  0  0
   -1.6229    0.6284   -1.7242 H   0  0  0  0  0  0  0  0  0  0  0  0
    7.2431    0.1147    0.5818 H   0  0  0  0  0  0  0  0  0  0  0  0
   -2.4873    1.5011    1.0924 H   0  0  0  0  0  0  0  0  0  0  0  0
    7.6204    2.4144    1.3825 H   0  0  0  0  0  0  0  0  0  0  0  0
    5.8693    4.1330    1.1452 H   0  0  0  0  0  0  0  0  0  0  0  0
   -3.9298    0.3990   -1.2633 H   0  0  0  0  0  0  0  0  0  0  0  0
    3.8400    4.5949    0.4442 H   0  0  0  0  0  0  0  0  0  0  0  0
   -6.0988    0.0461   -1.2306 H   0  0  0  0  0  0  0  0  0  0  0  0
   -7.4848    0.7855    1.4443 H   0  0  0  0  0  0  0  0  0  0  0  0
   -8.4139   -0.3790   -1.3319 H   0  0  0  0  0  0  0  0  0  0  0  0
  -12.6750   -0.8901   -0.7867 H   0  0  0  0  0  0  0  0  0  0  0  0
  -12.2293    0.5122    0.2113 H   0  0  0  0  0  0  0  0  0  0  0  0
  -11.9517   -1.1547    0.8158 H   0  0  0  0  0  0  0  0  0  0  0  0
  1 11  1  0  0  0  0
  1 12  1  0  0  0  0
  2 13  1  0  0  0  0
  2 42  1  0  0  0  0
  3 14  1  0  0  0  0
  3 45  1  0  0  0  0
  4 16  1  0  0  0  0
  4 22  1  0  0  0  0
  5 22  2  0  0  0  0
  6 25  1  0  0  0  0
  6 53  1  0  0  0  0
  7 29  2  0  0  0  0
  8 10  1  0  0  0  0
  8 33  1  0  0  0  0
  9 26  1  0  0  0  0
  9 29  1  0  0  0  0
  9 52  1  0  0  0  0
 10 32  2  3  0  0  0
 11 12  1  0  0  0  0
 11 13  1  0  0  0  0
 11 34  1  0  0  0  0
 12 14  1  0  0  0  0
 12 35  1  0  0  0  0
 13 15  1  0  0  0  0
 13 36  1  0  0  0  0
 14 17  1  0  0  0  0
 14 37  1  0  0  0  0
 15 16  1  0  0  0  0
 15 38  1  0  0  0  0
 15 39  1  0  0  0  0
 16 18  1  0  0  0  0
 16 40  1  0  0  0  0
 17 19  2  0  0  0  0
 17 41  1  0  0  0  0
 18 21  1  0  0  0  0
 18 43  1  0  0  0  0
 18 44  1  0  0  0  0
 19 20  1  0  0  0  0
 19 46  1  0  0  0  0
 20 23  2  0  0  0  0
 20 24  1  0  0  0  0
 21 26  2  0  0  0  0
 21 47  1  0  0  0  0
 22 23  1  0  0  0  0
 23 25  1  0  0  0  0
 24 27  2  0  0  0  0
 24 48  1  0  0  0  0
 25 28  2  0  0  0  0
 26 49  1  0  0  0  0
 27 28  1  0  0  0  0
 27 50  1  0  0  0  0
 28 51  1  0  0  0  0
 29 30  1  0  0  0  0
 30 31  2  0  0  0  0
 30 54  1  0  0  0  0
 31 32  1  0  0  0  0
 31 55  1  0  0  0  0
 32 56  1  0  0  0  0
 33 57  1  0  0  0  0
 33 58  1  0  0  0  0
 33 59  1  0  0  0  0
M  END
> <PUBCHEM_COMPOUND_CID>
139585597

> <PUBCHEM_CONFORMER_RMSD>
1

> <PUBCHEM_CONFORMER_DIVERSEORDER>
1
65
212
220
67
24
68
48
184
204
245
193
190
42
75
192
133
196
107
156
237
69
161
47
222
122
70
256
214
126
145
90
232
33
111
138
37
80
30
200
54
180
155
169
238
94
159
53
129
160
168
60
101
176
118
229
230
264
115
143
86
255
162
164
195
26
181
19
120
194
262
121
174
170
49
226
109
177
248
211
96
202
10
135
100
253
191
150
117
82
73
36
244
165
112
40
203
163
224
219
227
149
146
251
225
7
206
78
144
72
76
8
254
151
35
153
124
87
104
20
197
55
27
186
217
167
215
134
74
208
252
218
233
18
198
57
28
2
173
140
39
56
213
148
105
201
88
171
221
130
228
139
247
239
17
125
31
128
231
114
93
66
236
207
241
136
52
234
250
21
9
102
246
14
50
91
257
23
89
63
71
158
175
3
205
123
209
141
223
62
260
34
4
259
110
261
59
182
22
99
58
92
185
43
242
25
95
85
15
103
131
235
61
263
6
210
29
79
108
32
81
172
266
258
265
187
46
199
166
157
179
178
13
152
97
51
106
64
183
240
188
243
137
127
84
41
142
98
132
216
11
83
189
44
119
147
16
12
116
77
38
113
45
249
154
5

> <PUBCHEM_MMFF94_PARTIAL_CHARGES>
48
1 -0.3
10 -0.51
11 -0.05
12 -0.05
13 0.38
14 0.51
16 0.28
17 -0.29
18 0.14
19 -0.18
2 -0.68
20 0.03
21 -0.29
22 0.63
23 0.09
24 -0.15
25 0.08
26 -0.04
27 -0.15
28 -0.15
29 0.62
3 -0.68
30 -0.14
31 -0.14
32 0.38
33 0.28
34 0.1
35 0.1
4 -0.43
41 0.15
42 0.4
45 0.4
46 0.15
47 0.15
48 0.15
49 0.15
5 -0.57
50 0.15
51 0.15
52 0.37
53 0.45
54 0.15
55 0.15
56 0.06
6 -0.53
7 -0.57
8 -0.22
9 -0.54

> <PUBCHEM_EFFECTIVE_ROTOR_COUNT>
8.2

> <PUBCHEM_PHARMACOPHORE_FEATURES>
11
1 1 acceptor
1 10 acceptor
1 2 acceptor
1 2 donor
1 3 acceptor
1 3 donor
1 5 acceptor
1 6 donor
1 7 acceptor
1 9 donor
6 20 23 24 25 27 28 rings

> <PUBCHEM_HEAVY_ATOM_COUNT>
33

> <PUBCHEM_ATOM_DEF_STEREO_COUNT>
2

> <PUBCHEM_ATOM_UDEF_STEREO_COUNT>
3

> <PUBCHEM_BOND_DEF_STEREO_COUNT>
3

> <PUBCHEM_BOND_UDEF_STEREO_COUNT>
1

> <PUBCHEM_ISOTOPIC_ATOM_COUNT>
0

> <PUBCHEM_COMPONENT_COUNT>
1

> <PUBCHEM_CACTVS_TAUTO_COUNT>
-1

> <PUBCHEM_CONFORMER_ID>
0851E83D00000001

> <PUBCHEM_MMFF94_ENERGY>
79.0904

> <PUBCHEM_FEATURE_SELFOVERLAP>
55.826

> <PUBCHEM_SHAPE_FINGERPRINT>
10050765 1 18266740169664960337
10165383 225 18409450319931181156
10391435 84 18187367666996835979
10411042 1 17979637828425155766
12144603 126 17989208162611466293
12522641 24 18202843270712418289
12522641 33 18334861653386526820
13533116 47 18411143494037158032
13692114 37 18336828688062950538
13947934 56 18338797807406798793
15510794 2 18113622301425312683
15840311 113 18343304768684631662
20157964 124 18413109468030141720
20771845 140 17060332985679215711
21197605 99 18337958999280994730
21362267 313 17916875608999042433
22224240 67 18334856151649855129
23378982 100 16372146597593826947
4340502 62 18410856573131515572
45266715 3 17894631427094866315
59520757 100 16515697688527625947
59521120 56 16343409709665388471
9937071 3 18114188549887055315

> <PUBCHEM_SHAPE_MULTIPOLES>
622.21
28.02
4.13
1.12
116.91
2.63
-0.01
-4.69
1.34
-10.81
0.55
-0.54
0.21
0.2

> <PUBCHEM_SHAPE_SELFOVERLAP>
1296.938

> <PUBCHEM_SHAPE_VOLUME>
349.3

> <PUBCHEM_COORDINATE_TYPE>
2
5
10

$$$$
