139585303
  -OEChem-03292013293D

 36 37  0     1  0  0  0  0  0999 V2000
   -1.9124    1.4108   -0.4815 O   0  0  0  0  0  0  0  0  0  0  0  0
   -3.1403   -2.5764    0.8673 O   0  0  0  0  0  0  0  0  0  0  0  0
   -0.6266   -0.8241   -1.9321 O   0  0  0  0  0  0  0  0  0  0  0  0
    1.8374   -2.7347   -0.0314 O   0  0  0  0  0  0  0  0  0  0  0  0
   -0.7700    2.2678    1.3347 O   0  0  0  0  0  0  0  0  0  0  0  0
    4.8931    0.8365    0.6541 O   0  0  0  0  0  0  0  0  0  0  0  0
   -2.5159   -1.4331    0.2667 C   0  0  1  0  0  0  0  0  0  0  0  0
   -2.9328   -0.1910    1.0831 C   0  0  0  0  0  0  0  0  0  0  0  0
   -3.0826    1.1268    0.3015 C   0  0  2  0  0  0  0  0  0  0  0  0
   -1.0079   -1.7212    0.2846 C   0  0  0  0  0  0  0  0  0  0  0  0
   -0.2276   -0.9823   -0.7836 C   0  0  0  0  0  0  0  0  0  0  0  0
    1.1031   -0.4636   -0.4039 C   0  0  0  0  0  0  0  0  0  0  0  0
    1.3804    0.9158   -0.4214 C   0  0  0  0  0  0  0  0  0  0  0  0
   -4.2689    1.0954   -0.6570 C   0  0  0  0  0  0  0  0  0  0  0  0
    0.3479    1.9522   -0.7848 C   0  0  0  0  0  0  0  0  0  0  0  0
   -0.8268    1.9268    0.1608 C   0  0  0  0  0  0  0  0  0  0  0  0
    2.0791   -1.3936   -0.0291 C   0  0  0  0  0  0  0  0  0  0  0  0
    2.6707    1.3342   -0.0621 C   0  0  0  0  0  0  0  0  0  0  0  0
    3.3519   -0.9537    0.3262 C   0  0  0  0  0  0  0  0  0  0  0  0
    3.6481    0.4073    0.3080 C   0  0  0  0  0  0  0  0  0  0  0  0
   -2.8958   -1.3828   -0.7569 H   0  0  0  0  0  0  0  0  0  0  0  0
   -3.8853   -0.3916    1.5920 H   0  0  0  0  0  0  0  0  0  0  0  0
   -2.2042   -0.0402    1.8897 H   0  0  0  0  0  0  0  0  0  0  0  0
   -3.2536    1.9463    1.0114 H   0  0  0  0  0  0  0  0  0  0  0  0
   -0.8404   -2.7916    0.1074 H   0  0  0  0  0  0  0  0  0  0  0  0
   -0.5942   -1.5088    1.2775 H   0  0  0  0  0  0  0  0  0  0  0  0
   -4.1184    0.3741   -1.4663 H   0  0  0  0  0  0  0  0  0  0  0  0
   -4.3879    2.0729   -1.1377 H   0  0  0  0  0  0  0  0  0  0  0  0
   -5.1989    0.8532   -0.1339 H   0  0  0  0  0  0  0  0  0  0  0  0
    0.7641    2.9665   -0.7549 H   0  0  0  0  0  0  0  0  0  0  0  0
    0.0185    1.8020   -1.8196 H   0  0  0  0  0  0  0  0  0  0  0  0
   -2.8271   -2.6374    1.7862 H   0  0  0  0  0  0  0  0  0  0  0  0
    2.9127    2.3951   -0.0657 H   0  0  0  0  0  0  0  0  0  0  0  0
    4.1227   -1.6648    0.6131 H   0  0  0  0  0  0  0  0  0  0  0  0
    2.6385   -3.2069    0.2531 H   0  0  0  0  0  0  0  0  0  0  0  0
    4.9233    1.8063    0.5863 H   0  0  0  0  0  0  0  0  0  0  0  0
  1  9  1  0  0  0  0
  1 16  1  0  0  0  0
  2  7  1  0  0  0  0
  2 32  1  0  0  0  0
  3 11  2  0  0  0  0
  4 17  1  0  0  0  0
  4 35  1  0  0  0  0
  5 16  2  0  0  0  0
  6 20  1  0  0  0  0
  6 36  1  0  0  0  0
  7  8  1  0  0  0  0
  7 10  1  0  0  0  0
  7 21  1  0  0  0  0
  8  9  1  0  0  0  0
  8 22  1  0  0  0  0
  8 23  1  0  0  0  0
  9 14  1  0  0  0  0
  9 24  1  0  0  0  0
 10 11  1  0  0  0  0
 10 25  1  0  0  0  0
 10 26  1  0  0  0  0
 11 12  1  0  0  0  0
 12 13  2  0  0  0  0
 12 17  1  0  0  0  0
 13 15  1  0  0  0  0
 13 18  1  0  0  0  0
 14 27  1  0  0  0  0
 14 28  1  0  0  0  0
 14 29  1  0  0  0  0
 15 16  1  0  0  0  0
 15 30  1  0  0  0  0
 15 31  1  0  0  0  0
 17 19  2  0  0  0  0
 18 20  2  0  0  0  0
 18 33  1  0  0  0  0
 19 20  1  0  0  0  0
 19 34  1  0  0  0  0
M  END
> <PUBCHEM_COMPOUND_CID>
139585303

> <PUBCHEM_CONFORMER_RMSD>
0.6

> <PUBCHEM_CONFORMER_DIVERSEORDER>
1
7
6
8
10
11
9
12
2
5
3
4

> <PUBCHEM_MMFF94_PARTIAL_CHARGES>
23
1 -0.43
10 0.06
11 0.42
12 0.09
13 -0.14
15 0.2
16 0.66
17 0.08
18 -0.15
19 -0.15
2 -0.68
20 0.08
3 -0.57
32 0.4
33 0.15
34 0.15
35 0.45
36 0.45
4 -0.53
5 -0.57
6 -0.53
7 0.28
9 0.28

> <PUBCHEM_EFFECTIVE_ROTOR_COUNT>
1.2

> <PUBCHEM_PHARMACOPHORE_FEATURES>
7
1 2 acceptor
1 2 donor
1 3 acceptor
1 4 donor
1 5 acceptor
1 6 donor
6 12 13 17 18 19 20 rings

> <PUBCHEM_HEAVY_ATOM_COUNT>
20

> <PUBCHEM_ATOM_DEF_STEREO_COUNT>
1

> <PUBCHEM_ATOM_UDEF_STEREO_COUNT>
1

> <PUBCHEM_BOND_DEF_STEREO_COUNT>
0

> <PUBCHEM_BOND_UDEF_STEREO_COUNT>
0

> <PUBCHEM_ISOTOPIC_ATOM_COUNT>
0

> <PUBCHEM_COMPONENT_COUNT>
1

> <PUBCHEM_CACTVS_TAUTO_COUNT>
-1

> <PUBCHEM_CONFORMER_ID>
0851E71700000001

> <PUBCHEM_MMFF94_ENERGY>
56.785

> <PUBCHEM_FEATURE_SELFOVERLAP>
35.522

> <PUBCHEM_SHAPE_FINGERPRINT>
10366900 7 18059848450583225696
10759866 29 18114474439161932548
10863032 1 18409731750770697881
10967382 1 18337392625831865478
11132069 177 18408323285076350968
11370993 70 18188202096693628473
11680986 33 18339367357484815854
12011746 2 18338238137510036500
12077114 3 18260548913866198805
12382932 28 18412267241658807859
12633257 1 18195249910150726146
13132413 78 18340207517475623044
13140716 1 18339358686093863088
13214271 11 18410851096641959710
13544592 271 18342178856304505551
14081887 123 18342167869487986664
14223421 5 18338520733626432178
14787075 74 18271793614941374789
14790565 3 18119256297136800036
15196674 1 18410011026608101754
15375358 24 18336260154767725117
15375462 478 18340771536722725359
16945 1 18338246972126083660
19591789 44 16316981039924425812
19784866 170 18408605859870514548
2334 1 18338805627244110223
23419403 2 13245420184760032165
23559900 14 18338233761339463554
2748010 2 18339093613401843287
34934 24 18409161095566891081
5104073 3 18410571786597844370
57005193 9 18408598141482149665
7471813 234 17124780018054485455
9709674 26 18340488859192108095

> <PUBCHEM_SHAPE_MULTIPOLES>
376.37
6.8
2.67
1.06
1.62
0.65
0.16
-0.57
-1.37
-0.75
-0.29
-0.39
-0.04
0.43

> <PUBCHEM_SHAPE_SELFOVERLAP>
797.833

> <PUBCHEM_SHAPE_VOLUME>
209

> <PUBCHEM_COORDINATE_TYPE>
2
5
10

$$$$
