139584484
  -OEChem-03292013293D

 54 57  0     1  0  0  0  0  0999 V2000
   -1.2385   -1.0860    1.7817 O   0  0  0  0  0  0  0  0  0  0  0  0
   -1.4599   -0.2740   -1.7363 O   0  0  0  0  0  0  0  0  0  0  0  0
   -2.0182   -2.6618    0.1866 O   0  0  0  0  0  0  0  0  0  0  0  0
    0.9775    2.8612   -0.9503 O   0  0  0  0  0  0  0  0  0  0  0  0
    0.6144   -2.8596   -0.2192 O   0  0  0  0  0  0  0  0  0  0  0  0
    2.7894   -0.8985   -1.6989 O   0  0  0  0  0  0  0  0  0  0  0  0
   -1.0144    0.8281    0.3767 C   0  0  2  0  0  0  0  0  0  0  0  0
   -1.8433   -0.2701   -0.3538 C   0  0  1  0  0  0  0  0  0  0  0  0
   -3.4295   -0.1063   -0.3169 C   0  0  0  0  0  0  0  0  0  0  0  0
   -1.2736   -1.4839    0.3962 C   0  0  1  0  0  0  0  0  0  0  0  0
   -1.5774    2.2397    0.1471 C   0  0  0  0  0  0  0  0  0  0  0  0
    0.5143    0.6936    0.0359 C   0  0  0  0  0  0  0  0  0  0  0  0
   -1.1167    0.3546    1.8379 C   0  0  0  0  0  0  0  0  0  0  0  0
   -3.7983    1.3688   -0.6201 C   0  0  0  0  0  0  0  0  0  0  0  0
   -3.0886    2.3570    0.2946 C   0  0  0  0  0  0  0  0  0  0  0  0
    1.0721   -0.5310   -0.1171 C   0  0  0  0  0  0  0  0  0  0  0  0
    0.1804   -1.7293   -0.0058 C   0  0  0  0  0  0  0  0  0  0  0  0
    1.4057    1.9321    0.0447 C   0  0  1  0  0  0  0  0  0  0  0  0
   -4.1094   -0.9587   -1.4273 C   0  0  0  0  0  0  0  0  0  0  0  0
   -4.1242   -0.5204    1.0036 C   0  0  0  0  0  0  0  0  0  0  0  0
    2.5481   -0.7848   -0.2934 C   0  0  2  0  0  0  0  0  0  0  0  0
    3.4159    0.3446    0.3228 C   0  0  1  0  0  0  0  0  0  0  0  0
    2.9042    1.6870   -0.2205 C   0  0  0  0  0  0  0  0  0  0  0  0
    3.3387    0.3104    1.8645 C   0  0  0  0  0  0  0  0  0  0  0  0
    4.8705    0.1837   -0.0573 C   0  0  0  0  0  0  0  0  0  0  0  0
    5.4608   -0.9962   -0.2755 C   0  0  0  0  0  0  0  0  0  0  0  0
   -1.3450    2.5659   -0.8732 H   0  0  0  0  0  0  0  0  0  0  0  0
   -1.1071    2.9556    0.8320 H   0  0  0  0  0  0  0  0  0  0  0  0
   -0.2358    0.6017    2.4418 H   0  0  0  0  0  0  0  0  0  0  0  0
   -1.9750    0.7554    2.3784 H   0  0  0  0  0  0  0  0  0  0  0  0
   -4.8821    1.5155   -0.5242 H   0  0  0  0  0  0  0  0  0  0  0  0
   -3.5557    1.6149   -1.6622 H   0  0  0  0  0  0  0  0  0  0  0  0
   -3.3907    2.2182    1.3369 H   0  0  0  0  0  0  0  0  0  0  0  0
   -3.3939    3.3752    0.0243 H   0  0  0  0  0  0  0  0  0  0  0  0
    1.2961    2.4160    1.0232 H   0  0  0  0  0  0  0  0  0  0  0  0
   -3.9523   -1.5712    1.2516 H   0  0  0  0  0  0  0  0  0  0  0  0
   -3.9053   -2.0258   -1.3031 H   0  0  0  0  0  0  0  0  0  0  0  0
   -5.2119   -0.3999    0.9192 H   0  0  0  0  0  0  0  0  0  0  0  0
   -3.8272    0.0805    1.8616 H   0  0  0  0  0  0  0  0  0  0  0  0
   -3.7777   -0.6689   -2.4301 H   0  0  0  0  0  0  0  0  0  0  0  0
   -5.1988   -0.8322   -1.4093 H   0  0  0  0  0  0  0  0  0  0  0  0
    2.8100   -1.7414    0.1748 H   0  0  0  0  0  0  0  0  0  0  0  0
    3.0941    1.7477   -1.3028 H   0  0  0  0  0  0  0  0  0  0  0  0
    3.4731    2.5248    0.2074 H   0  0  0  0  0  0  0  0  0  0  0  0
   -1.6348    0.6072   -2.1057 H   0  0  0  0  0  0  0  0  0  0  0  0
   -1.5033   -3.4090    0.5354 H   0  0  0  0  0  0  0  0  0  0  0  0
    2.3197    0.4377    2.2414 H   0  0  0  0  0  0  0  0  0  0  0  0
    3.9478    1.1081    2.3068 H   0  0  0  0  0  0  0  0  0  0  0  0
    3.7096   -0.6432    2.2595 H   0  0  0  0  0  0  0  0  0  0  0  0
    5.4854    1.0794   -0.1126 H   0  0  0  0  0  0  0  0  0  0  0  0
    1.4969    3.6754   -0.8354 H   0  0  0  0  0  0  0  0  0  0  0  0
    2.2893   -1.6667   -2.0243 H   0  0  0  0  0  0  0  0  0  0  0  0
    6.5171   -1.0278   -0.5240 H   0  0  0  0  0  0  0  0  0  0  0  0
    4.9509   -1.9481   -0.2037 H   0  0  0  0  0  0  0  0  0  0  0  0
  1 10  1  0  0  0  0
  1 13  1  0  0  0  0
  2  8  1  0  0  0  0
  2 45  1  0  0  0  0
  3 10  1  0  0  0  0
  3 46  1  0  0  0  0
  4 18  1  0  0  0  0
  4 51  1  0  0  0  0
  5 17  2  0  0  0  0
  6 21  1  0  0  0  0
  6 52  1  0  0  0  0
  7  8  1  0  0  0  0
  7 11  1  0  0  0  0
  7 12  1  0  0  0  0
  7 13  1  0  0  0  0
  8  9  1  0  0  0  0
  8 10  1  0  0  0  0
  9 14  1  0  0  0  0
  9 19  1  0  0  0  0
  9 20  1  0  0  0  0
 10 17  1  0  0  0  0
 11 15  1  0  0  0  0
 11 27  1  0  0  0  0
 11 28  1  0  0  0  0
 12 16  2  0  0  0  0
 12 18  1  0  0  0  0
 13 29  1  0  0  0  0
 13 30  1  0  0  0  0
 14 15  1  0  0  0  0
 14 31  1  0  0  0  0
 14 32  1  0  0  0  0
 15 33  1  0  0  0  0
 15 34  1  0  0  0  0
 16 17  1  0  0  0  0
 16 21  1  0  0  0  0
 18 23  1  0  0  0  0
 18 35  1  0  0  0  0
 19 37  1  0  0  0  0
 19 40  1  0  0  0  0
 19 41  1  0  0  0  0
 20 36  1  0  0  0  0
 20 38  1  0  0  0  0
 20 39  1  0  0  0  0
 21 22  1  0  0  0  0
 21 42  1  0  0  0  0
 22 23  1  0  0  0  0
 22 24  1  0  0  0  0
 22 25  1  0  0  0  0
 23 43  1  0  0  0  0
 23 44  1  0  0  0  0
 24 47  1  0  0  0  0
 24 48  1  0  0  0  0
 24 49  1  0  0  0  0
 25 26  2  0  0  0  0
 25 50  1  0  0  0  0
 26 53  1  0  0  0  0
 26 54  1  0  0  0  0
M  END
> <PUBCHEM_COMPOUND_CID>
139584484

> <PUBCHEM_CONFORMER_RMSD>
0.6

> <PUBCHEM_CONFORMER_DIVERSEORDER>
2
1

> <PUBCHEM_MMFF94_PARTIAL_CHARGES>
25
1 -0.56
10 0.62
12 -0.28
13 0.28
16 -0.12
17 0.49
18 0.42
2 -0.68
21 0.42
22 0.14
25 -0.29
26 -0.3
3 -0.68
4 -0.68
45 0.4
46 0.4
5 -0.57
50 0.15
51 0.4
52 0.4
53 0.15
54 0.15
6 -0.68
7 0.14
8 0.28

> <PUBCHEM_EFFECTIVE_ROTOR_COUNT>
3

> <PUBCHEM_PHARMACOPHORE_FEATURES>
15
1 1 acceptor
1 2 acceptor
1 2 donor
1 26 hydrophobe
1 3 acceptor
1 3 donor
1 4 acceptor
1 4 donor
1 5 acceptor
1 6 acceptor
1 6 donor
3 9 19 20 hydrophobe
6 12 16 18 21 22 23 rings
6 7 8 9 11 14 15 rings
8 1 7 8 10 12 13 16 17 rings

> <PUBCHEM_HEAVY_ATOM_COUNT>
26

> <PUBCHEM_ATOM_DEF_STEREO_COUNT>
6

> <PUBCHEM_ATOM_UDEF_STEREO_COUNT>
0

> <PUBCHEM_BOND_DEF_STEREO_COUNT>
0

> <PUBCHEM_BOND_UDEF_STEREO_COUNT>
0

> <PUBCHEM_ISOTOPIC_ATOM_COUNT>
0

> <PUBCHEM_COMPONENT_COUNT>
1

> <PUBCHEM_CACTVS_TAUTO_COUNT>
-1

> <PUBCHEM_CONFORMER_ID>
0851E3E400000002

> <PUBCHEM_MMFF94_ENERGY>
95.1204

> <PUBCHEM_FEATURE_SELFOVERLAP>
76.198

> <PUBCHEM_SHAPE_FINGERPRINT>
10062212 137 18410283692965779497
10646746 165 18411979122631577232
10863032 1 17987792999844423013
10948715 1 18195528091261956097
10967382 1 18410575071804576781
11315181 36 18113056052409311576
11578080 2 16735786724562928813
12011746 2 18408884010468743756
12236239 1 17703791435686552743
12403259 226 18270394022406693209
12403259 415 18202559579738148704
12403260 363 18410567405340811468
12403814 3 18060700611287098861
12592029 89 18407759227047994923
13140716 1 18265904746611130667
13224815 77 17917995009433325796
13583140 156 17023178362083896177
14223421 5 17903082475165416768
14790565 3 18336838489415911276
15196674 1 18411418406198429788
15209289 33 18411982446751537508
16752209 62 18410569596000894896
16945 1 18409450289058878955
17349148 13 18342736325594606248
17492 89 18192430994619133690
18186145 218 18272092660549821195
192875 21 18411130376748178228
19862831 5 17988926664988735780
200 152 16917347039242223106
20600515 1 18335991904501903356
20691752 17 18042691593670226521
20775438 99 16474262790060855343
20905425 154 17979072678561352700
21033648 29 18131057239035259816
21267235 1 18410863165304804559
22182313 1 18268446649848464119
2334 1 17977668941620684947
23402539 116 18412819175047462852
23493267 7 18040159500444113514
23557571 272 17918273151747594821
23559900 14 18272647970315826256
2748010 2 18122071059234283651
335352 9 18410012113335262725
34934 24 18193552268930438517
350125 39 18337401538063409353
474 4 18335703797668308865
5104073 3 18411980260856083224
59755656 215 18337386046559146805
9709674 26 18342741840300965980

> <PUBCHEM_SHAPE_MULTIPOLES>
499.85
8.26
2.53
1.35
5.2
0.25
0.26
-0.32
-0.84
-0.78
-0.25
-0.23
-0.13
0.14

> <PUBCHEM_SHAPE_SELFOVERLAP>
1092.943

> <PUBCHEM_SHAPE_VOLUME>
268.4

> <PUBCHEM_COORDINATE_TYPE>
2
5
10

$$$$
