139587666
  -OEChem-03292013293D

 61 65  0     1  0  0  0  0  0999 V2000
    5.1474   -0.8729    0.8390 O   0  0  0  0  0  0  0  0  0  0  0  0
    6.8312    1.8597   -0.6002 O   0  0  0  0  0  0  0  0  0  0  0  0
    8.6469   -0.1927   -0.0947 O   0  0  0  0  0  0  0  0  0  0  0  0
   -6.0271   -0.9678   -1.7684 O   0  0  0  0  0  0  0  0  0  0  0  0
   -4.9491    2.8847    0.2557 O   0  0  0  0  0  0  0  0  0  0  0  0
    2.4714    2.1239    0.0349 O   0  0  0  0  0  0  0  0  0  0  0  0
   -3.2342   -2.7029    0.9707 O   0  0  0  0  0  0  0  0  0  0  0  0
   -1.4021   -2.3112   -0.7901 O   0  0  0  0  0  0  0  0  0  0  0  0
    0.0056    2.7206   -0.3059 O   0  0  0  0  0  0  0  0  0  0  0  0
    4.4923    0.1598    0.0924 C   0  0  1  0  0  0  0  0  0  0  0  0
    5.1360    0.3162   -1.2954 C   0  0  0  0  0  0  0  0  0  0  0  0
    6.6372    0.5645   -1.1692 C   0  0  2  0  0  0  0  0  0  0  0  0
    7.2724   -0.5070   -0.2786 C   0  0  2  0  0  0  0  0  0  0  0  0
    6.5370   -0.6075    1.0650 C   0  0  2  0  0  0  0  0  0  0  0  0
   -6.2812   -1.0939   -0.3652 C   0  0  2  0  0  0  0  0  0  0  0  0
   -5.9325    0.2190    0.3431 C   0  0  0  0  0  0  0  0  0  0  0  0
   -4.4618    0.5254    0.2105 C   0  0  0  0  0  0  0  0  0  0  0  0
    3.0214   -0.1784   -0.0198 C   0  0  0  0  0  0  0  0  0  0  0  0
   -5.4310   -2.2409    0.1768 C   0  0  0  0  0  0  0  0  0  0  0  0
   -3.5006   -0.5006    0.1549 C   0  0  0  0  0  0  0  0  0  0  0  0
   -2.1409   -0.1815   -0.0557 C   0  0  0  0  0  0  0  0  0  0  0  0
   -3.9817   -1.8811    0.4451 C   0  0  0  0  0  0  0  0  0  0  0  0
   -1.7495    1.1660   -0.0758 C   0  0  0  0  0  0  0  0  0  0  0  0
    0.7007    0.4888   -0.1483 C   0  0  0  0  0  0  0  0  0  0  0  0
    2.0547    0.8273   -0.0493 C   0  0  0  0  0  0  0  0  0  0  0  0
    0.3195   -0.8492   -0.2211 C   0  0  0  0  0  0  0  0  0  0  0  0
    7.0741   -1.7404    1.9339 C   0  0  0  0  0  0  0  0  0  0  0  0
   -7.7698   -1.4143   -0.2018 C   0  0  0  0  0  0  0  0  0  0  0  0
   -4.0500    1.8624    0.1618 C   0  0  0  0  0  0  0  0  0  0  0  0
   -1.1048   -1.2040   -0.3601 C   0  0  0  0  0  0  0  0  0  0  0  0
    2.6404   -1.5173   -0.0942 C   0  0  0  0  0  0  0  0  0  0  0  0
   -0.3238    1.5464   -0.1932 C   0  0  0  0  0  0  0  0  0  0  0  0
   -2.7018    2.1830    0.0381 C   0  0  0  0  0  0  0  0  0  0  0  0
    1.2910   -1.8561   -0.1986 C   0  0  0  0  0  0  0  0  0  0  0  0
   -5.2376    3.3722    1.5636 C   0  0  0  0  0  0  0  0  0  0  0  0
    4.6024    1.0854    0.6715 H   0  0  0  0  0  0  0  0  0  0  0  0
    4.9846   -0.6003   -1.8804 H   0  0  0  0  0  0  0  0  0  0  0  0
    4.6554    1.1389   -1.8384 H   0  0  0  0  0  0  0  0  0  0  0  0
    7.1165    0.5722   -2.1543 H   0  0  0  0  0  0  0  0  0  0  0  0
    7.2109   -1.4734   -0.7954 H   0  0  0  0  0  0  0  0  0  0  0  0
    6.6401    0.3246    1.6353 H   0  0  0  0  0  0  0  0  0  0  0  0
   -6.1896    0.1707    1.4083 H   0  0  0  0  0  0  0  0  0  0  0  0
   -6.5227    1.0216   -0.1160 H   0  0  0  0  0  0  0  0  0  0  0  0
   -5.4311   -3.0875   -0.5200 H   0  0  0  0  0  0  0  0  0  0  0  0
   -5.8389   -2.5798    1.1378 H   0  0  0  0  0  0  0  0  0  0  0  0
    6.5047   -1.8069    2.8674 H   0  0  0  0  0  0  0  0  0  0  0  0
    8.1295   -1.5919    2.1809 H   0  0  0  0  0  0  0  0  0  0  0  0
    6.9634   -2.7066    1.4294 H   0  0  0  0  0  0  0  0  0  0  0  0
   -8.0279   -2.3490   -0.7128 H   0  0  0  0  0  0  0  0  0  0  0  0
   -8.3874   -0.6312   -0.6564 H   0  0  0  0  0  0  0  0  0  0  0  0
   -8.0507   -1.5082    0.8523 H   0  0  0  0  0  0  0  0  0  0  0  0
    3.3746   -2.3185   -0.0895 H   0  0  0  0  0  0  0  0  0  0  0  0
   -2.4074    3.2297    0.0229 H   0  0  0  0  0  0  0  0  0  0  0  0
    1.0168   -2.9058   -0.2604 H   0  0  0  0  0  0  0  0  0  0  0  0
    6.4270    2.5081   -1.2017 H   0  0  0  0  0  0  0  0  0  0  0  0
    9.0610   -0.1569   -0.9737 H   0  0  0  0  0  0  0  0  0  0  0  0
   -6.2743   -1.8043   -2.1981 H   0  0  0  0  0  0  0  0  0  0  0  0
    1.7167    2.7183    0.1630 H   0  0  0  0  0  0  0  0  0  0  0  0
   -6.0058    4.1457    1.4787 H   0  0  0  0  0  0  0  0  0  0  0  0
   -4.3430    3.8165    2.0113 H   0  0  0  0  0  0  0  0  0  0  0  0
   -5.6185    2.5714    2.2049 H   0  0  0  0  0  0  0  0  0  0  0  0
  1 10  1  0  0  0  0
  1 14  1  0  0  0  0
  2 12  1  0  0  0  0
  2 55  1  0  0  0  0
  3 13  1  0  0  0  0
  3 56  1  0  0  0  0
  4 15  1  0  0  0  0
  4 57  1  0  0  0  0
  5 29  1  0  0  0  0
  5 35  1  0  0  0  0
  6 25  1  0  0  0  0
  6 58  1  0  0  0  0
  7 22  2  0  0  0  0
  8 30  2  0  0  0  0
  9 32  2  0  0  0  0
 10 11  1  0  0  0  0
 10 18  1  0  0  0  0
 10 36  1  0  0  0  0
 11 12  1  0  0  0  0
 11 37  1  0  0  0  0
 11 38  1  0  0  0  0
 12 13  1  0  0  0  0
 12 39  1  0  0  0  0
 13 14  1  0  0  0  0
 13 40  1  0  0  0  0
 14 27  1  0  0  0  0
 14 41  1  0  0  0  0
 15 16  1  0  0  0  0
 15 19  1  0  0  0  0
 15 28  1  0  0  0  0
 16 17  1  0  0  0  0
 16 42  1  0  0  0  0
 16 43  1  0  0  0  0
 17 20  1  0  0  0  0
 17 29  2  0  0  0  0
 18 25  2  0  0  0  0
 18 31  1  0  0  0  0
 19 22  1  0  0  0  0
 19 44  1  0  0  0  0
 19 45  1  0  0  0  0
 20 21  2  0  0  0  0
 20 22  1  0  0  0  0
 21 23  1  0  0  0  0
 21 30  1  0  0  0  0
 23 32  1  0  0  0  0
 23 33  2  0  0  0  0
 24 25  1  0  0  0  0
 24 26  2  0  0  0  0
 24 32  1  0  0  0  0
 26 30  1  0  0  0  0
 26 34  1  0  0  0  0
 27 46  1  0  0  0  0
 27 47  1  0  0  0  0
 27 48  1  0  0  0  0
 28 49  1  0  0  0  0
 28 50  1  0  0  0  0
 28 51  1  0  0  0  0
 29 33  1  0  0  0  0
 31 34  2  0  0  0  0
 31 52  1  0  0  0  0
 33 53  1  0  0  0  0
 34 54  1  0  0  0  0
 35 59  1  0  0  0  0
 35 60  1  0  0  0  0
 35 61  1  0  0  0  0
M  END
> <PUBCHEM_COMPOUND_CID>
139587666

> <PUBCHEM_CONFORMER_RMSD>
0.8

> <PUBCHEM_CONFORMER_DIVERSEORDER>
1
68
44
33
34
46
49
40
10
54
28
25
39
66
72
58
27
56
67
52
26
65
24
42
38
21
45
2
9
62
69
22
14
55
20
18
6
36
71
48
15
30
37
7
23
53
11
64
50
70
63
61
3
4
41
16
8
32
17
5
43
51
60
13
35
47
57
31
29
19
59
12

> <PUBCHEM_MMFF94_PARTIAL_CHARGES>
39
1 -0.56
10 0.42
12 0.28
13 0.28
14 0.28
15 0.28
16 0.14
17 -0.14
18 -0.14
19 0.06
2 -0.68
20 0.09
21 0.09
22 0.42
23 0.09
24 0.09
25 0.08
26 0.09
29 0.08
3 -0.68
30 0.4
31 -0.15
32 0.4
33 -0.15
34 -0.15
35 0.28
4 -0.68
5 -0.36
52 0.15
53 0.15
54 0.15
55 0.4
56 0.4
57 0.4
58 0.45
6 -0.53
7 -0.57
8 -0.57
9 -0.57

> <PUBCHEM_EFFECTIVE_ROTOR_COUNT>
3.8

> <PUBCHEM_PHARMACOPHORE_FEATURES>
17
1 1 acceptor
1 2 acceptor
1 2 donor
1 3 acceptor
1 3 donor
1 4 acceptor
1 4 donor
1 5 acceptor
1 6 donor
1 7 acceptor
1 8 acceptor
1 9 acceptor
6 1 10 11 12 13 14 rings
6 15 16 17 19 20 22 rings
6 17 20 21 23 29 33 rings
6 18 24 25 26 31 34 rings
6 21 23 24 26 30 32 rings

> <PUBCHEM_HEAVY_ATOM_COUNT>
35

> <PUBCHEM_ATOM_DEF_STEREO_COUNT>
1

> <PUBCHEM_ATOM_UDEF_STEREO_COUNT>
4

> <PUBCHEM_BOND_DEF_STEREO_COUNT>
0

> <PUBCHEM_BOND_UDEF_STEREO_COUNT>
0

> <PUBCHEM_ISOTOPIC_ATOM_COUNT>
0

> <PUBCHEM_COMPONENT_COUNT>
1

> <PUBCHEM_CACTVS_TAUTO_COUNT>
-1

> <PUBCHEM_CONFORMER_ID>
0851F05200000001

> <PUBCHEM_MMFF94_ENERGY>
125.2701

> <PUBCHEM_FEATURE_SELFOVERLAP>
86.365

> <PUBCHEM_SHAPE_FINGERPRINT>
10 15 18188218602137448545
10050765 1 18267587892496661246
10190206 1 18266164056422865125
10299344 5 18187366519844597242
10319926 262 18342447149747049648
10411042 1 18123753321469926827
10906281 52 18262535718593038402
11007060 377 18336552706375422064
11135926 11 18261107431218685686
11315181 36 18113621205190449267
11524674 6 17203328935395356703
11578080 2 13756976693067407569
11719270 70 18412260632374857798
11963148 33 18410005563933285518
12107698 1 18411699923797421489
12236239 1 18113338605269813292
13533116 47 17530960255980152834
13782708 43 17846493776732064519
13811026 1 18271524195753248054
13914758 101 16226038972901939254
14068700 675 18272088348772375881
14251764 18 18260829298169227074
14394314 77 18339366262089580464
1454969 45 18410291427996216358
14790565 3 18337964496986683996
14856354 85 18334300885229441623
15021287 119 17095530577925200621
15131766 46 16372712884066722726
15183329 4 18259704497710676250
15419008 47 17418088819307992944
15510794 2 18059860537739418102
1577012 14 18261396611872867676
16087824 20 18409730618181876077
17980427 23 18187096035341226493
18608769 82 18343302591009650446
18681886 176 18341889722915907216
19611394 137 18043826479081559611
21033648 29 17632281359468002283
21130935 74 18271241604502096466
21236236 1 18412827967520835173
21267235 1 18411141363659311815
21792934 111 18337658789951968024
22311459 1 18412544340095940703
23081809 10 18259988154467671108
23522609 53 18044122131830210332
23559900 14 18264203798102547105
23569917 315 18336268959805123386
23569943 247 16516792664506121338
24771293 8 18336272310248470484
249057 25 18040726878087083892
3004659 81 18040994089582736469
335352 9 18409166645366342295
3383291 50 18412542145795245235
34797466 226 17560808766647984724
350125 39 18410856589757490173
3633792 109 16950271884961193491
397830 11 16629385025827908442
4073 2 18334585619870201618
4340502 62 14979963583684350004
44802255 64 16443332197006478515
4516262 110 17241620584455134564
504579 68 17749117699247103566
5104073 3 18269272370059008963
5265222 85 18200879603860255070
6081469 158 17749381573183902743
9831232 110 18127699232399686758

> <PUBCHEM_SHAPE_MULTIPOLES>
667.46
21.99
2.93
1.07
22.6
1.3
0.16
-3.64
1.27
-4.43
0.65
0.78
-0.11
-2.31

> <PUBCHEM_SHAPE_SELFOVERLAP>
1486.034

> <PUBCHEM_SHAPE_VOLUME>
351.7

> <PUBCHEM_COORDINATE_TYPE>
2
5
10

$$$$
