139586318
  -OEChem-03292013293D

 70 71  0     1  0  0  0  0  0999 V2000
   -5.5279    1.8604    2.4911 O   0  0  0  0  0  0  0  0  0  0  0  0
   -5.4501   -2.3235   -0.1527 O   0  0  0  0  0  0  0  0  0  0  0  0
   -2.8599   -3.1843   -1.2223 O   0  0  0  0  0  0  0  0  0  0  0  0
    7.6892   -0.3143    0.5018 O   0  0  0  0  0  0  0  0  0  0  0  0
    6.0183    1.3848    2.2933 O   0  0  0  0  0  0  0  0  0  0  0  0
    3.7736    2.2282    1.1413 O   0  0  0  0  0  0  0  0  0  0  0  0
   -4.7068   -0.2269    0.4473 N   0  0  0  0  0  0  0  0  0  0  0  0
   -5.5995    1.9340    0.0413 C   0  0  1  0  0  0  0  0  0  0  0  0
   -4.7382    1.9815    1.3113 C   0  0  2  0  0  0  0  0  0  0  0  0
   -3.8590    0.7245    1.1872 C   0  0  2  0  0  0  0  0  0  0  0  0
   -5.8797    0.4409   -0.1106 C   0  0  0  0  0  0  0  0  0  0  0  0
   -6.8689    2.7681    0.0842 C   0  0  0  0  0  0  0  0  0  0  0  0
   -2.5583    1.0436    0.4894 C   0  0  0  0  0  0  0  0  0  0  0  0
   -4.5952   -1.6079    0.3802 C   0  0  0  0  0  0  0  0  0  0  0  0
   -3.3380   -2.2494    0.9427 C   0  0  0  0  0  0  0  0  0  0  0  0
   -2.1431    0.6418   -0.7224 C   0  0  0  0  0  0  0  0  0  0  0  0
   -2.4262   -2.7996   -0.1383 C   0  0  0  0  0  0  0  0  0  0  0  0
   -0.8391    0.9633   -1.2567 C   0  0  0  0  0  0  0  0  0  0  0  0
   -0.3715    2.1881   -1.5664 C   0  0  0  0  0  0  0  0  0  0  0  0
   -0.9722   -2.8602    0.1861 C   0  0  0  0  0  0  0  0  0  0  0  0
   -1.1640    3.4649   -1.4987 C   0  0  0  0  0  0  0  0  0  0  0  0
   -0.0893   -3.1770   -0.7720 C   0  0  0  0  0  0  0  0  0  0  0  0
    0.9924    2.3612   -2.0459 C   0  0  0  0  0  0  0  0  0  0  0  0
    6.2770   -0.0879    0.3900 C   0  0  2  0  0  0  0  0  0  0  0  0
    1.3564   -3.2666   -0.5898 C   0  0  0  0  0  0  0  0  0  0  0  0
    6.0003    1.3446    0.8737 C   0  0  1  0  0  0  0  0  0  0  0  0
    5.5716   -1.2178    1.1584 C   0  0  0  0  0  0  0  0  0  0  0  0
    2.0766    2.0307   -1.3256 C   0  0  0  0  0  0  0  0  0  0  0  0
    2.0448   -2.3019    0.0542 C   0  0  0  0  0  0  0  0  0  0  0  0
    4.6774    1.9125    0.3711 C   0  0  0  0  0  0  0  0  0  0  0  0
    4.0868   -1.2703    0.9450 C   0  0  0  0  0  0  0  0  0  0  0  0
    1.9503   -4.4910   -1.2369 C   0  0  0  0  0  0  0  0  0  0  0  0
    3.4277    2.2179   -1.8044 C   0  0  0  0  0  0  0  0  0  0  0  0
    3.4777   -2.2474    0.2554 C   0  0  0  0  0  0  0  0  0  0  0  0
    4.5667    2.1351   -1.1021 C   0  0  0  0  0  0  0  0  0  0  0  0
   -4.9872    2.2642   -0.8087 H   0  0  0  0  0  0  0  0  0  0  0  0
   -4.1705    2.9156    1.3834 H   0  0  0  0  0  0  0  0  0  0  0  0
   -3.6385    0.2965    2.1713 H   0  0  0  0  0  0  0  0  0  0  0  0
   -6.0220    0.1417   -1.1542 H   0  0  0  0  0  0  0  0  0  0  0  0
   -6.7543    0.1175    0.4659 H   0  0  0  0  0  0  0  0  0  0  0  0
   -7.5418    2.4472    0.8861 H   0  0  0  0  0  0  0  0  0  0  0  0
   -7.4145    2.6843   -0.8615 H   0  0  0  0  0  0  0  0  0  0  0  0
   -6.6292    3.8240    0.2452 H   0  0  0  0  0  0  0  0  0  0  0  0
   -1.8865    1.6678    1.0793 H   0  0  0  0  0  0  0  0  0  0  0  0
   -4.9211    1.8778    3.2509 H   0  0  0  0  0  0  0  0  0  0  0  0
   -3.6510   -3.0892    1.5744 H   0  0  0  0  0  0  0  0  0  0  0  0
   -2.7776   -1.5669    1.5814 H   0  0  0  0  0  0  0  0  0  0  0  0
   -2.7505   -0.0120   -1.3391 H   0  0  0  0  0  0  0  0  0  0  0  0
   -0.2082    0.0906   -1.4180 H   0  0  0  0  0  0  0  0  0  0  0  0
   -0.6699   -2.6240    1.2002 H   0  0  0  0  0  0  0  0  0  0  0  0
   -1.1252    3.9945   -2.4574 H   0  0  0  0  0  0  0  0  0  0  0  0
   -2.2217    3.3005   -1.2735 H   0  0  0  0  0  0  0  0  0  0  0  0
   -0.7570    4.1246   -0.7245 H   0  0  0  0  0  0  0  0  0  0  0  0
   -0.4341   -3.4177   -1.7756 H   0  0  0  0  0  0  0  0  0  0  0  0
    1.0975    2.8316   -3.0208 H   0  0  0  0  0  0  0  0  0  0  0  0
    6.0436   -0.1726   -0.6779 H   0  0  0  0  0  0  0  0  0  0  0  0
    6.8009    2.0136    0.5340 H   0  0  0  0  0  0  0  0  0  0  0  0
    5.7775   -1.1384    2.2329 H   0  0  0  0  0  0  0  0  0  0  0  0
    6.0227   -2.1761    0.8663 H   0  0  0  0  0  0  0  0  0  0  0  0
    1.9437    1.5945   -0.3402 H   0  0  0  0  0  0  0  0  0  0  0  0
    1.4966   -1.4525    0.4619 H   0  0  0  0  0  0  0  0  0  0  0  0
    3.4948   -0.4828    1.4031 H   0  0  0  0  0  0  0  0  0  0  0  0
    1.8480   -4.4346   -2.3264 H   0  0  0  0  0  0  0  0  0  0  0  0
    1.4332   -5.3934   -0.8902 H   0  0  0  0  0  0  0  0  0  0  0  0
    3.0094   -4.6356   -1.0137 H   0  0  0  0  0  0  0  0  0  0  0  0
    3.5234    2.4298   -2.8687 H   0  0  0  0  0  0  0  0  0  0  0  0
    4.0896   -3.0293   -0.1811 H   0  0  0  0  0  0  0  0  0  0  0  0
    5.5114    2.2486   -1.6278 H   0  0  0  0  0  0  0  0  0  0  0  0
    7.8817   -1.1787    0.1000 H   0  0  0  0  0  0  0  0  0  0  0  0
    5.9694    2.3186    2.5609 H   0  0  0  0  0  0  0  0  0  0  0  0
  1  9  1  0  0  0  0
  1 45  1  0  0  0  0
  2 14  2  0  0  0  0
  3 17  2  0  0  0  0
  4 24  1  0  0  0  0
  4 69  1  0  0  0  0
  5 26  1  0  0  0  0
  5 70  1  0  0  0  0
  6 30  2  0  0  0  0
  7 10  1  0  0  0  0
  7 11  1  0  0  0  0
  7 14  1  0  0  0  0
  8  9  1  0  0  0  0
  8 11  1  0  0  0  0
  8 12  1  0  0  0  0
  8 36  1  0  0  0  0
  9 10  1  0  0  0  0
  9 37  1  0  0  0  0
 10 13  1  0  0  0  0
 10 38  1  0  0  0  0
 11 39  1  0  0  0  0
 11 40  1  0  0  0  0
 12 41  1  0  0  0  0
 12 42  1  0  0  0  0
 12 43  1  0  0  0  0
 13 16  2  0  0  0  0
 13 44  1  0  0  0  0
 14 15  1  0  0  0  0
 15 17  1  0  0  0  0
 15 46  1  0  0  0  0
 15 47  1  0  0  0  0
 16 18  1  0  0  0  0
 16 48  1  0  0  0  0
 17 20  1  0  0  0  0
 18 19  2  0  0  0  0
 18 49  1  0  0  0  0
 19 21  1  0  0  0  0
 19 23  1  0  0  0  0
 20 22  2  0  0  0  0
 20 50  1  0  0  0  0
 21 51  1  0  0  0  0
 21 52  1  0  0  0  0
 21 53  1  0  0  0  0
 22 25  1  0  0  0  0
 22 54  1  0  0  0  0
 23 28  2  0  0  0  0
 23 55  1  0  0  0  0
 24 26  1  0  0  0  0
 24 27  1  0  0  0  0
 24 56  1  0  0  0  0
 25 29  2  0  0  0  0
 25 32  1  0  0  0  0
 26 30  1  0  0  0  0
 26 57  1  0  0  0  0
 27 31  1  0  0  0  0
 27 58  1  0  0  0  0
 27 59  1  0  0  0  0
 28 33  1  0  0  0  0
 28 60  1  0  0  0  0
 29 34  1  0  0  0  0
 29 61  1  0  0  0  0
 30 35  1  0  0  0  0
 31 34  2  0  0  0  0
 31 62  1  0  0  0  0
 32 63  1  0  0  0  0
 32 64  1  0  0  0  0
 32 65  1  0  0  0  0
 33 35  2  0  0  0  0
 33 66  1  0  0  0  0
 34 67  1  0  0  0  0
 35 68  1  0  0  0  0
M  END
> <PUBCHEM_COMPOUND_CID>
139586318

> <PUBCHEM_CONFORMER_RMSD>
0.8

> <PUBCHEM_CONFORMER_DIVERSEORDER>
1
3
2
5
6
7
4
8
9

> <PUBCHEM_MMFF94_PARTIAL_CHARGES>
48
1 -0.68
10 0.44
11 0.3
13 -0.29
14 0.57
15 0.12
16 -0.15
17 0.49
18 -0.15
19 -0.14
2 -0.57
20 -0.14
21 0.14
22 -0.15
23 -0.15
24 0.28
25 -0.14
26 0.34
27 0.14
28 -0.15
29 -0.15
3 -0.57
30 0.49
31 -0.29
32 0.14
33 -0.15
34 -0.15
35 -0.14
4 -0.68
44 0.15
45 0.4
48 0.15
49 0.15
5 -0.68
50 0.15
54 0.15
55 0.15
6 -0.57
60 0.15
61 0.15
62 0.15
66 0.15
67 0.15
68 0.15
69 0.4
7 -0.66
70 0.4
9 0.28

> <PUBCHEM_EFFECTIVE_ROTOR_COUNT>
1.4

> <PUBCHEM_PHARMACOPHORE_FEATURES>
11
1 1 acceptor
1 1 donor
1 15 anion
1 2 acceptor
1 3 acceptor
1 4 acceptor
1 4 donor
1 5 acceptor
1 5 donor
1 6 acceptor
5 7 8 9 10 11 rings

> <PUBCHEM_HEAVY_ATOM_COUNT>
35

> <PUBCHEM_ATOM_DEF_STEREO_COUNT>
5

> <PUBCHEM_ATOM_UDEF_STEREO_COUNT>
0

> <PUBCHEM_BOND_DEF_STEREO_COUNT>
7

> <PUBCHEM_BOND_UDEF_STEREO_COUNT>
0

> <PUBCHEM_ISOTOPIC_ATOM_COUNT>
0

> <PUBCHEM_COMPONENT_COUNT>
1

> <PUBCHEM_CACTVS_TAUTO_COUNT>
-1

> <PUBCHEM_CONFORMER_ID>
0851EB0E00000001

> <PUBCHEM_MMFF94_ENERGY>
82.7264

> <PUBCHEM_FEATURE_SELFOVERLAP>
55.836

> <PUBCHEM_SHAPE_FINGERPRINT>
10305334 12 17749384905767444467
10439779 11 18265338485074387197
10462385 53 18190159231976825189
10864689 126 17613435545510669044
11513181 2 18202293502341118279
12107698 1 17749102271534522544
12422481 6 18186803586443219716
12788726 201 17328606409821803212
13111901 51 18270410395302190737
13165053 371 17689442586329424697
13165054 235 18337656603333983199
14117953 113 18334856095519582956
14394314 77 18335703879257428740
14395042 24 18120087536470048787
14725015 67 17752769017757761915
14784336 7 17260460891246775559
14840074 17 18259704506110823844
15001296 14 18188494708694799732
15297060 5 18130793365056139034
15406563 185 18055090997610183500
16112460 7 18410009897037120770
19301679 30 17967828119632794865
1979834 28 18336273344812777276
21033648 29 16558485123044949257
229767 44 18337105786942454438
23559900 14 17700157433982904839
338550 245 18261956370580925828
3388396 114 16831766830998956990
354706 109 18265593520174376003
373842 8 18116438226547388986
392239 28 18187079529613167062
394071 54 18265620883648297705
5085150 59 18342177808543404415
7064713 232 18339924913170147404

> <PUBCHEM_SHAPE_MULTIPOLES>
680.09
17.3
5.34
1.74
3.93
3.54
-0.17
-7.68
-8.94
-0.44
2.21
0.63
-1.08
-0.84

> <PUBCHEM_SHAPE_SELFOVERLAP>
1389.63

> <PUBCHEM_SHAPE_VOLUME>
389.3

> <PUBCHEM_COORDINATE_TYPE>
2
5
10

$$$$
