139587204
  -OEChem-03292013293D

 38 40  0     0  0  0  0  0  0999 V2000
    0.7187   -2.1394   -0.0639 O   0  0  0  0  0  0  0  0  0  0  0  0
    1.8972    2.5440    0.5134 O   0  0  0  0  0  0  0  0  0  0  0  0
   -0.5691    1.7197    0.3720 O   0  0  0  0  0  0  0  0  0  0  0  0
   -4.7356   -1.2404   -0.0533 O   0  0  0  0  0  0  0  0  0  0  0  0
    5.9494   -0.4543   -1.0776 O   0  0  0  0  0  0  0  0  0  0  0  0
   -3.2984    1.5872   -0.9743 O   0  0  0  0  0  0  0  0  0  0  0  0
   -3.4202    1.4956    1.3226 O   0  0  0  0  0  0  0  0  0  0  0  0
    1.2392    0.2290    0.2260 C   0  0  0  0  0  0  0  0  0  0  0  0
   -1.1339   -0.5557    0.0913 C   0  0  0  0  0  0  0  0  0  0  0  0
    1.6126   -1.1060    0.0741 C   0  0  0  0  0  0  0  0  0  0  0  0
   -0.6225   -1.8451   -0.0525 C   0  0  0  0  0  0  0  0  0  0  0  0
   -0.1927    0.5648    0.2409 C   0  0  0  0  0  0  0  0  0  0  0  0
    2.2085    1.2264    0.3613 C   0  0  0  0  0  0  0  0  0  0  0  0
   -2.5137   -0.3352    0.0931 C   0  0  0  0  0  0  0  0  0  0  0  0
    3.9382   -0.4548    0.1917 C   0  0  0  0  0  0  0  0  0  0  0  0
    2.9666   -1.4472    0.0571 C   0  0  0  0  0  0  0  0  0  0  0  0
    3.5596    0.8793    0.3436 C   0  0  0  0  0  0  0  0  0  0  0  0
   -1.4980   -2.9236   -0.1958 C   0  0  0  0  0  0  0  0  0  0  0  0
   -3.3832   -1.4166   -0.0504 C   0  0  0  0  0  0  0  0  0  0  0  0
   -2.8766   -2.7084   -0.1946 C   0  0  0  0  0  0  0  0  0  0  0  0
    5.3837   -0.8217    0.1744 C   0  0  0  0  0  0  0  0  0  0  0  0
   -3.1163    0.9878    0.2394 C   0  0  0  0  0  0  0  0  0  0  0  0
    1.7702    3.3210   -0.6759 C   0  0  0  0  0  0  0  0  0  0  0  0
   -3.8837    2.8937   -0.9625 C   0  0  0  0  0  0  0  0  0  0  0  0
    3.2579   -2.4881   -0.0628 H   0  0  0  0  0  0  0  0  0  0  0  0
    4.3177    1.6521    0.4494 H   0  0  0  0  0  0  0  0  0  0  0  0
   -1.1139   -3.9339   -0.3088 H   0  0  0  0  0  0  0  0  0  0  0  0
   -3.5510   -3.5533   -0.3066 H   0  0  0  0  0  0  0  0  0  0  0  0
    5.9210   -0.3014    0.9751 H   0  0  0  0  0  0  0  0  0  0  0  0
    5.5286   -1.8976    0.3200 H   0  0  0  0  0  0  0  0  0  0  0  0
    1.3107    4.2777   -0.4130 H   0  0  0  0  0  0  0  0  0  0  0  0
    1.1397    2.8209   -1.4182 H   0  0  0  0  0  0  0  0  0  0  0  0
    2.7600    3.5135   -1.1015 H   0  0  0  0  0  0  0  0  0  0  0  0
   -4.9666   -0.3036    0.0479 H   0  0  0  0  0  0  0  0  0  0  0  0
    6.8903   -0.6980   -1.0476 H   0  0  0  0  0  0  0  0  0  0  0  0
   -3.2443    3.5879   -0.4093 H   0  0  0  0  0  0  0  0  0  0  0  0
   -4.8844    2.8546   -0.5221 H   0  0  0  0  0  0  0  0  0  0  0  0
   -3.9668    3.2388   -1.9964 H   0  0  0  0  0  0  0  0  0  0  0  0
  1 10  1  0  0  0  0
  1 11  1  0  0  0  0
  2 13  1  0  0  0  0
  2 23  1  0  0  0  0
  3 12  2  0  0  0  0
  4 19  1  0  0  0  0
  4 34  1  0  0  0  0
  5 21  1  0  0  0  0
  5 35  1  0  0  0  0
  6 22  1  0  0  0  0
  6 24  1  0  0  0  0
  7 22  2  0  0  0  0
  8 10  2  0  0  0  0
  8 12  1  0  0  0  0
  8 13  1  0  0  0  0
  9 11  2  0  0  0  0
  9 12  1  0  0  0  0
  9 14  1  0  0  0  0
 10 16  1  0  0  0  0
 11 18  1  0  0  0  0
 13 17  2  0  0  0  0
 14 19  2  0  0  0  0
 14 22  1  0  0  0  0
 15 16  2  0  0  0  0
 15 17  1  0  0  0  0
 15 21  1  0  0  0  0
 16 25  1  0  0  0  0
 17 26  1  0  0  0  0
 18 20  2  0  0  0  0
 18 27  1  0  0  0  0
 19 20  1  0  0  0  0
 20 28  1  0  0  0  0
 21 29  1  0  0  0  0
 21 30  1  0  0  0  0
 23 31  1  0  0  0  0
 23 32  1  0  0  0  0
 23 33  1  0  0  0  0
 24 36  1  0  0  0  0
 24 37  1  0  0  0  0
 24 38  1  0  0  0  0
M  END
> <PUBCHEM_COMPOUND_CID>
139587204

> <PUBCHEM_CONFORMER_RMSD>
0.8

> <PUBCHEM_CONFORMER_DIVERSEORDER>
1
2

> <PUBCHEM_MMFF94_PARTIAL_CHARGES>
30
1 -0.17
10 0.08
11 0.08
12 0.4
13 0.08
14 0.09
15 -0.14
16 -0.15
17 -0.15
18 -0.15
19 0.08
2 -0.36
20 -0.15
21 0.42
22 0.63
23 0.28
24 0.28
25 0.15
26 0.15
27 0.15
28 0.15
3 -0.57
34 0.45
35 0.4
4 -0.53
5 -0.68
6 -0.43
7 -0.57
8 0.09
9 0.09

> <PUBCHEM_EFFECTIVE_ROTOR_COUNT>
4

> <PUBCHEM_PHARMACOPHORE_FEATURES>
10
1 1 acceptor
1 2 acceptor
1 3 acceptor
1 4 donor
1 5 acceptor
1 5 donor
1 7 acceptor
6 1 8 9 10 11 12 rings
6 8 10 13 15 16 17 rings
6 9 11 14 18 19 20 rings

> <PUBCHEM_HEAVY_ATOM_COUNT>
24

> <PUBCHEM_ATOM_DEF_STEREO_COUNT>
0

> <PUBCHEM_ATOM_UDEF_STEREO_COUNT>
0

> <PUBCHEM_BOND_DEF_STEREO_COUNT>
0

> <PUBCHEM_BOND_UDEF_STEREO_COUNT>
0

> <PUBCHEM_ISOTOPIC_ATOM_COUNT>
0

> <PUBCHEM_COMPONENT_COUNT>
1

> <PUBCHEM_CACTVS_TAUTO_COUNT>
-1

> <PUBCHEM_CONFORMER_ID>
0851EE8400000001

> <PUBCHEM_MMFF94_ENERGY>
91.3395

> <PUBCHEM_FEATURE_SELFOVERLAP>
50.817

> <PUBCHEM_SHAPE_FINGERPRINT>
10366900 7 17676769850443469194
10411042 1 18050286170067048107
10608611 8 18339355370088453443
10616163 171 18124598840508475719
10967382 1 18195525891811354787
1100329 8 18341900683662176641
12403259 226 18197493141699509457
12403259 415 18342733026859581472
12403260 363 18340198691370440703
13140716 1 18341335577597898657
14223421 5 18265890452833173809
14341114 176 18340210798735457834
14466204 15 18336817629065138378
14790565 3 17979925908344052000
15099037 51 18411417267963219276
15196674 1 18412544332027667336
15442244 35 18339642338576275098
15536298 74 18199466743870986922
1601671 61 18338798919000806092
16945 1 18052821351763926899
17492 89 18122342642986383282
17804303 29 18413392055345047938
18186145 218 18343586213501729145
19591789 44 18411136982349824634
20600515 1 18201451233521198728
20775438 99 16547718915802741295
21267235 1 18340495555025478186
21279426 13 18269276755848482302
221357 26 18412539946507621903
221490 88 18193280912833211506
22182313 1 18059307473793494478
2334 1 18340203085227291291
23366157 5 17970341749342394992
23402539 116 18341607084588478702
23558518 356 18189896598419643851
23559900 14 18269829981589302184
238 59 17105893299334793877
2748010 2 18340491067243271399
312423 11 18192161592378136979
335352 9 18412263913090750190
34934 24 18263075522825374418
350125 39 18410578392405172841
4214541 1 18412544318610164866
4409770 3 17754718452275053996
5104073 3 18413386562250773338
559249 180 18336539418242765746
59755656 215 18412826863440219623
7364860 26 18125721429681212064
9709674 26 18194119857179527266
9981440 41 17255679124057435424

> <PUBCHEM_SHAPE_MULTIPOLES>
452.82
9.38
3.48
0.82
6.26
1.25
-0.02
-0.37
-1.17
-2.22
-0.63
-0.11
0.31
0.28

> <PUBCHEM_SHAPE_SELFOVERLAP>
1005.247

> <PUBCHEM_SHAPE_VOLUME>
243.5

> <PUBCHEM_COORDINATE_TYPE>
2
5
10

$$$$
