139584361
  -OEChem-03292013293D

 46 47  0     1  0  0  0  0  0999 V2000
   -3.2125    3.0346   -0.3921 Cl  0  0  0  0  0  0  0  0  0  0  0  0
    1.7322    1.4284   -0.3059 O   0  0  0  0  0  0  0  0  0  0  0  0
    4.4212    1.1028   -1.2990 O   0  0  0  0  0  0  0  0  0  0  0  0
    0.2902    1.6679    1.4793 O   0  0  0  0  0  0  0  0  0  0  0  0
   -0.0405   -1.7478   -1.5808 O   0  0  0  0  0  0  0  0  0  0  0  0
   -2.7467   -2.8226    0.0399 O   0  0  0  0  0  0  0  0  0  0  0  0
   -5.3587    1.1256    0.1513 O   0  0  0  0  0  0  0  0  0  0  0  0
    3.8292    0.2205   -0.3262 C   0  0  1  0  0  0  0  0  0  0  0  0
    2.8615    1.0839    0.5318 C   0  0  1  0  0  0  0  0  0  0  0  0
    3.1152   -0.8903   -1.1462 C   0  0  0  0  0  0  0  0  0  0  0  0
    2.6375   -2.1584   -0.4278 C   0  0  0  0  0  0  0  0  0  0  0  0
    4.9725   -0.3496    0.5205 C   0  0  0  0  0  0  0  0  0  0  0  0
    3.4752    2.3846    1.0529 C   0  0  0  0  0  0  0  0  0  0  0  0
    1.7167   -1.9994    0.7451 C   0  0  0  0  0  0  0  0  0  0  0  0
    0.4026   -1.7063    0.7935 C   0  0  0  0  0  0  0  0  0  0  0  0
   -0.5488    1.5628   -0.7921 C   0  0  0  0  0  0  0  0  0  0  0  0
    0.5109    1.5716    0.2802 C   0  0  0  0  0  0  0  0  0  0  0  0
   -1.7390    0.7024   -0.4445 C   0  0  0  0  0  0  0  0  0  0  0  0
   -1.6619   -0.6969   -0.3044 C   0  0  0  0  0  0  0  0  0  0  0  0
   -0.3833   -1.4170   -0.4530 C   0  0  0  0  0  0  0  0  0  0  0  0
   -0.3031   -1.6580    2.1235 C   0  0  0  0  0  0  0  0  0  0  0  0
   -2.9933    1.3113   -0.2843 C   0  0  0  0  0  0  0  0  0  0  0  0
   -2.8058   -1.4640   -0.0521 C   0  0  0  0  0  0  0  0  0  0  0  0
   -4.1321    0.5498   -0.0101 C   0  0  0  0  0  0  0  0  0  0  0  0
   -4.0391   -0.8357    0.1003 C   0  0  0  0  0  0  0  0  0  0  0  0
    2.5137    0.4965    1.3886 H   0  0  0  0  0  0  0  0  0  0  0  0
    3.8089   -1.2243   -1.9323 H   0  0  0  0  0  0  0  0  0  0  0  0
    2.2846   -0.4542   -1.7143 H   0  0  0  0  0  0  0  0  0  0  0  0
    3.5196   -2.7126   -0.0802 H   0  0  0  0  0  0  0  0  0  0  0  0
    2.1754   -2.8298   -1.1620 H   0  0  0  0  0  0  0  0  0  0  0  0
    5.6192    0.4457    0.9061 H   0  0  0  0  0  0  0  0  0  0  0  0
    5.6200   -0.9935   -0.0862 H   0  0  0  0  0  0  0  0  0  0  0  0
    4.6018   -0.9352    1.3671 H   0  0  0  0  0  0  0  0  0  0  0  0
    3.7672    3.0478    0.2319 H   0  0  0  0  0  0  0  0  0  0  0  0
    4.3462    2.1981    1.6866 H   0  0  0  0  0  0  0  0  0  0  0  0
    2.7421    2.9414    1.6466 H   0  0  0  0  0  0  0  0  0  0  0  0
    5.0925    0.6017   -1.7930 H   0  0  0  0  0  0  0  0  0  0  0  0
    2.2163   -2.1809    1.6975 H   0  0  0  0  0  0  0  0  0  0  0  0
   -0.1234    1.1577   -1.7204 H   0  0  0  0  0  0  0  0  0  0  0  0
   -0.7788    2.6054   -1.0210 H   0  0  0  0  0  0  0  0  0  0  0  0
    0.3844   -1.8264    2.9600 H   0  0  0  0  0  0  0  0  0  0  0  0
   -1.0692   -2.4372    2.1804 H   0  0  0  0  0  0  0  0  0  0  0  0
   -0.7730   -0.6855    2.2956 H   0  0  0  0  0  0  0  0  0  0  0  0
   -4.9287   -1.4274    0.3027 H   0  0  0  0  0  0  0  0  0  0  0  0
   -3.6371   -3.1707    0.2184 H   0  0  0  0  0  0  0  0  0  0  0  0
   -6.0181    0.4345    0.3337 H   0  0  0  0  0  0  0  0  0  0  0  0
  1 22  1  0  0  0  0
  2  9  1  0  0  0  0
  2 17  1  0  0  0  0
  3  8  1  0  0  0  0
  3 37  1  0  0  0  0
  4 17  2  0  0  0  0
  5 20  2  0  0  0  0
  6 23  1  0  0  0  0
  6 45  1  0  0  0  0
  7 24  1  0  0  0  0
  7 46  1  0  0  0  0
  8  9  1  0  0  0  0
  8 10  1  0  0  0  0
  8 12  1  0  0  0  0
  9 13  1  0  0  0  0
  9 26  1  0  0  0  0
 10 11  1  0  0  0  0
 10 27  1  0  0  0  0
 10 28  1  0  0  0  0
 11 14  1  0  0  0  0
 11 29  1  0  0  0  0
 11 30  1  0  0  0  0
 12 31  1  0  0  0  0
 12 32  1  0  0  0  0
 12 33  1  0  0  0  0
 13 34  1  0  0  0  0
 13 35  1  0  0  0  0
 13 36  1  0  0  0  0
 14 15  2  0  0  0  0
 14 38  1  0  0  0  0
 15 20  1  0  0  0  0
 15 21  1  0  0  0  0
 16 17  1  0  0  0  0
 16 18  1  0  0  0  0
 16 39  1  0  0  0  0
 16 40  1  0  0  0  0
 18 19  2  0  0  0  0
 18 22  1  0  0  0  0
 19 20  1  0  0  0  0
 19 23  1  0  0  0  0
 21 41  1  0  0  0  0
 21 42  1  0  0  0  0
 21 43  1  0  0  0  0
 22 24  2  0  0  0  0
 23 25  2  0  0  0  0
 24 25  1  0  0  0  0
 25 44  1  0  0  0  0
M  END
> <PUBCHEM_COMPOUND_CID>
139584361

> <PUBCHEM_CONFORMER_RMSD>
0.6

> <PUBCHEM_CONFORMER_DIVERSEORDER>
2
36
4
14
37
10
28
11
12
13
42
8
19
40
26
17
27
31
18
41
43
25
15
38
39
30
35
3
32
33
22
23
16
29
5
9
20
34
6
24
1
21
7

> <PUBCHEM_MMFF94_PARTIAL_CHARGES>
27
1 -0.18
11 0.14
14 -0.29
15 -0.12
16 0.2
17 0.66
18 -0.14
19 0.09
2 -0.43
20 0.47
21 0.14
22 0.18
23 0.08
24 0.08
25 -0.15
3 -0.68
37 0.4
38 0.15
4 -0.57
44 0.15
45 0.45
46 0.45
5 -0.57
6 -0.53
7 -0.53
8 0.28
9 0.28

> <PUBCHEM_EFFECTIVE_ROTOR_COUNT>
1.2

> <PUBCHEM_PHARMACOPHORE_FEATURES>
7
1 3 acceptor
1 3 donor
1 4 acceptor
1 5 acceptor
1 6 donor
1 7 donor
6 18 19 22 23 24 25 rings

> <PUBCHEM_HEAVY_ATOM_COUNT>
25

> <PUBCHEM_ATOM_DEF_STEREO_COUNT>
0

> <PUBCHEM_ATOM_UDEF_STEREO_COUNT>
2

> <PUBCHEM_BOND_DEF_STEREO_COUNT>
1

> <PUBCHEM_BOND_UDEF_STEREO_COUNT>
0

> <PUBCHEM_ISOTOPIC_ATOM_COUNT>
0

> <PUBCHEM_COMPONENT_COUNT>
1

> <PUBCHEM_CACTVS_TAUTO_COUNT>
-1

> <PUBCHEM_CONFORMER_ID>
0851E36900000002

> <PUBCHEM_MMFF94_ENERGY>
80.6501

> <PUBCHEM_FEATURE_SELFOVERLAP>
35.522

> <PUBCHEM_SHAPE_FINGERPRINT>
10616163 171 18410013272928803751
10863032 1 18342739619576247751
10948715 1 18411978070179784968
11112241 14 16484977384701602232
11578080 2 16986856063847678690
12011746 2 18409724054753754069
12403814 3 17531245015836503637
12422481 6 18193531434122772498
12592029 89 18261395516028512001
13140716 1 18339634654911762400
13224815 77 18408877447305034595
14223421 5 18411696599466354199
14251745 187 18336545022625869810
14251751 93 18335977601717319365
14251757 17 18271811172524860240
14363568 33 16457734973767260409
14787075 74 18113902701520969539
14790565 3 18123758552323316585
15196674 1 18410854408230445950
15209289 33 18187644751419360075
15536298 74 18341892987069719047
1601671 61 18342457019434000840
16945 1 18337382833612457151
17804303 29 18340488966941038173
19591789 44 18264488378092199101
20600515 1 17040902175748452262
20691752 17 17676195901115628087
20905425 154 18411699876690015943
21421861 104 17823972343069736298
23227448 37 18411134732135069423
23558518 356 18046344407858366933
23559900 14 18197213646956585974
23566358 2 18268429036145242549
3323516 105 18411983563474611656
335352 9 18411135809934237108
34934 24 18410852153219914271
350125 39 18338799988733168529
3680242 22 18190459368369645458
392239 28 17968109615893704699
4340502 62 16950857903631997715
474 4 17822297885196403414
495365 180 17632002126844222608
5104073 3 18411134783394888258
5265222 85 17837211842365220592
59755656 215 18410572847539395789
9709674 26 18342177769345256254

> <PUBCHEM_SHAPE_MULTIPOLES>
481.14
8.71
3.08
1.24
0.11
0.25
-0.26
2.61
0.52
0.67
-0.29
-0.68
-0.24
0.51

> <PUBCHEM_SHAPE_SELFOVERLAP>
1007.318

> <PUBCHEM_SHAPE_VOLUME>
270.4

> <PUBCHEM_COORDINATE_TYPE>
2
5
10

$$$$
