139588481
  -OEChem-03292013293D

 48 49  0     1  0  0  0  0  0999 V2000
   -1.6773   -0.6506    0.6764 O   0  0  0  0  0  0  0  0  0  0  0  0
    0.3924    0.4237    0.4090 O   0  0  0  0  0  0  0  0  0  0  0  0
   -3.6976    2.5735   -0.9544 O   0  0  0  0  0  0  0  0  0  0  0  0
   -4.9848   -0.0072   -0.7877 O   0  0  0  0  0  0  0  0  0  0  0  0
   -1.7056    2.1630    0.9540 O   0  0  0  0  0  0  0  0  0  0  0  0
   -2.8510   -3.0810    1.1967 O   0  0  0  0  0  0  0  0  0  0  0  0
    1.6886   -3.9891   -0.8630 O   0  0  0  0  0  0  0  0  0  0  0  0
   -2.9868    1.3390   -0.9252 C   0  0  2  0  0  0  0  0  0  0  0  0
   -3.7798    0.3215   -0.1010 C   0  0  2  0  0  0  0  0  0  0  0  0
   -1.5929    1.5497   -0.3342 C   0  0  2  0  0  0  0  0  0  0  0  0
   -2.9558   -0.9562    0.1100 C   0  0  2  0  0  0  0  0  0  0  0  0
   -0.8936    0.2017   -0.1620 C   0  0  2  0  0  0  0  0  0  0  0  0
   -3.6573   -1.9255    1.0563 C   0  0  0  0  0  0  0  0  0  0  0  0
    3.0997    1.3421    0.3355 C   0  0  0  0  0  0  0  0  0  0  0  0
    1.3773   -0.4654    0.0704 C   0  0  0  0  0  0  0  0  0  0  0  0
    2.7127   -0.0650    0.0211 C   0  0  0  0  0  0  0  0  0  0  0  0
    4.6268    1.6652    0.1839 C   0  0  0  0  0  0  0  0  0  0  0  0
    2.7745    1.6608    1.8323 C   0  0  0  0  0  0  0  0  0  0  0  0
    1.0331   -1.7842   -0.2266 C   0  0  0  0  0  0  0  0  0  0  0  0
    3.7039   -0.9836   -0.3254 C   0  0  0  0  0  0  0  0  0  0  0  0
    2.4144    2.3352   -0.6312 C   0  0  0  0  0  0  0  0  0  0  0  0
    2.0242   -2.7027   -0.5727 C   0  0  0  0  0  0  0  0  0  0  0  0
    3.3596   -2.3023   -0.6220 C   0  0  0  0  0  0  0  0  0  0  0  0
    1.5751    3.3374   -0.3403 C   0  0  0  0  0  0  0  0  0  0  0  0
   -2.9069    0.9919   -1.9628 H   0  0  0  0  0  0  0  0  0  0  0  0
   -4.0689    0.7643    0.8592 H   0  0  0  0  0  0  0  0  0  0  0  0
   -1.0088    2.2333   -0.9565 H   0  0  0  0  0  0  0  0  0  0  0  0
   -2.7912   -1.4760   -0.8438 H   0  0  0  0  0  0  0  0  0  0  0  0
   -0.7988   -0.2444   -1.1633 H   0  0  0  0  0  0  0  0  0  0  0  0
   -4.6367   -2.2250    0.6713 H   0  0  0  0  0  0  0  0  0  0  0  0
   -3.7787   -1.4807    2.0496 H   0  0  0  0  0  0  0  0  0  0  0  0
   -3.1680    3.2033   -1.4727 H   0  0  0  0  0  0  0  0  0  0  0  0
   -4.7452   -0.4068   -1.6412 H   0  0  0  0  0  0  0  0  0  0  0  0
   -2.0500    1.5026    1.5785 H   0  0  0  0  0  0  0  0  0  0  0  0
    4.9846    1.4839   -0.8372 H   0  0  0  0  0  0  0  0  0  0  0  0
    5.2359    1.0697    0.8745 H   0  0  0  0  0  0  0  0  0  0  0  0
    4.8310    2.7199    0.4101 H   0  0  0  0  0  0  0  0  0  0  0  0
    1.7070    1.6084    2.0663 H   0  0  0  0  0  0  0  0  0  0  0  0
    3.2829    0.9496    2.4954 H   0  0  0  0  0  0  0  0  0  0  0  0
    3.1155    2.6656    2.1104 H   0  0  0  0  0  0  0  0  0  0  0  0
    0.0122   -2.1460   -0.1776 H   0  0  0  0  0  0  0  0  0  0  0  0
    4.7570   -0.7320   -0.3785 H   0  0  0  0  0  0  0  0  0  0  0  0
    2.6506    2.1902   -1.6859 H   0  0  0  0  0  0  0  0  0  0  0  0
   -3.3136   -3.6815    1.8058 H   0  0  0  0  0  0  0  0  0  0  0  0
    4.1355   -3.0141   -0.8908 H   0  0  0  0  0  0  0  0  0  0  0  0
    1.1697    3.9545   -1.1353 H   0  0  0  0  0  0  0  0  0  0  0  0
    1.2710    3.5677    0.6732 H   0  0  0  0  0  0  0  0  0  0  0  0
    0.7249   -4.0922   -0.7824 H   0  0  0  0  0  0  0  0  0  0  0  0
  1 11  1  0  0  0  0
  1 12  1  0  0  0  0
  2 12  1  0  0  0  0
  2 15  1  0  0  0  0
  3  8  1  0  0  0  0
  3 32  1  0  0  0  0
  4  9  1  0  0  0  0
  4 33  1  0  0  0  0
  5 10  1  0  0  0  0
  5 34  1  0  0  0  0
  6 13  1  0  0  0  0
  6 44  1  0  0  0  0
  7 22  1  0  0  0  0
  7 48  1  0  0  0  0
  8  9  1  0  0  0  0
  8 10  1  0  0  0  0
  8 25  1  0  0  0  0
  9 11  1  0  0  0  0
  9 26  1  0  0  0  0
 10 12  1  0  0  0  0
 10 27  1  0  0  0  0
 11 13  1  0  0  0  0
 11 28  1  0  0  0  0
 12 29  1  0  0  0  0
 13 30  1  0  0  0  0
 13 31  1  0  0  0  0
 14 16  1  0  0  0  0
 14 17  1  0  0  0  0
 14 18  1  0  0  0  0
 14 21  1  0  0  0  0
 15 16  2  0  0  0  0
 15 19  1  0  0  0  0
 16 20  1  0  0  0  0
 17 35  1  0  0  0  0
 17 36  1  0  0  0  0
 17 37  1  0  0  0  0
 18 38  1  0  0  0  0
 18 39  1  0  0  0  0
 18 40  1  0  0  0  0
 19 22  2  0  0  0  0
 19 41  1  0  0  0  0
 20 23  2  0  0  0  0
 20 42  1  0  0  0  0
 21 24  2  0  0  0  0
 21 43  1  0  0  0  0
 22 23  1  0  0  0  0
 23 45  1  0  0  0  0
 24 46  1  0  0  0  0
 24 47  1  0  0  0  0
M  END
> <PUBCHEM_COMPOUND_CID>
139588481

> <PUBCHEM_CONFORMER_RMSD>
1

> <PUBCHEM_CONFORMER_DIVERSEORDER>
1
121
89
98
151
128
32
149
54
61
88
99
26
70
30
131
8
91
147
57
65
59
157
155
111
73
130
125
68
144
112
71
24
15
84
28
27
118
150
105
20
117
66
10
93
55
167
123
145
76
67
120
139
119
100
18
148
113
143
16
39
62
161
104
108
129
9
156
137
23
134
17
49
92
81
69
164
136
31
7
33
35
58
138
106
3
97
14
41
52
82
80
85
74
77
95
107
96
72
94
153
114
19
103
53
44
102
135
75
29
4
86
79
152
110
47
12
25
64
122
127
109
124
11
115
46
90
133
2
142
5
101
141
37
42
48
163
43
36
154
78
22
13
63
140
83
50
6
21
40
165
158
87
126
160
60
116
132
56
51
34
166
38
159
146
162
45

> <PUBCHEM_MMFF94_PARTIAL_CHARGES>
33
1 -0.56
10 0.28
11 0.28
12 0.56
13 0.28
14 0.28
15 0.08
16 -0.14
19 -0.15
2 -0.36
20 -0.15
21 -0.29
22 0.08
23 -0.15
24 -0.3
3 -0.68
32 0.4
33 0.4
34 0.4
4 -0.68
41 0.15
42 0.15
43 0.15
44 0.4
45 0.15
46 0.15
47 0.15
48 0.45
5 -0.68
6 -0.68
7 -0.53
8 0.28
9 0.28

> <PUBCHEM_EFFECTIVE_ROTOR_COUNT>
6.2

> <PUBCHEM_PHARMACOPHORE_FEATURES>
15
1 1 acceptor
1 2 acceptor
1 24 hydrophobe
1 3 acceptor
1 3 donor
1 4 acceptor
1 4 donor
1 5 acceptor
1 5 donor
1 6 acceptor
1 6 donor
1 7 donor
3 14 17 18 hydrophobe
6 1 8 9 10 11 12 rings
6 15 16 19 20 22 23 rings

> <PUBCHEM_HEAVY_ATOM_COUNT>
24

> <PUBCHEM_ATOM_DEF_STEREO_COUNT>
0

> <PUBCHEM_ATOM_UDEF_STEREO_COUNT>
5

> <PUBCHEM_BOND_DEF_STEREO_COUNT>
0

> <PUBCHEM_BOND_UDEF_STEREO_COUNT>
0

> <PUBCHEM_ISOTOPIC_ATOM_COUNT>
0

> <PUBCHEM_COMPONENT_COUNT>
1

> <PUBCHEM_CACTVS_TAUTO_COUNT>
-1

> <PUBCHEM_CONFORMER_ID>
0851F38100000001

> <PUBCHEM_MMFF94_ENERGY>
83.6271

> <PUBCHEM_FEATURE_SELFOVERLAP>
76.193

> <PUBCHEM_SHAPE_FINGERPRINT>
10074138 170 17405110390845164386
10366900 7 18343021090273639979
10608611 8 18408601435690326317
10616163 171 18264490757361792675
10871710 139 16317538492683939212
10967382 1 18411982455678978372
1100329 8 15815652494111379206
11680986 33 18411418384311928764
116883 192 17907013972464719676
12553582 1 17764601923405134014
12633257 1 18263926540197996562
12788726 201 17040361211923387226
13034934 17 18054216902196319947
13140716 1 18339079281612648960
13224815 77 18337112362162519889
13533116 47 18202562844176809961
14223421 5 18410298007828078247
14251757 5 16901896431472264342
14790565 3 17545900672643309057
14866123 147 16971676910725882993
18681886 176 18192428791538495448
19591789 44 17763469812669184542
20600515 1 17329120509239128058
20645477 70 17989204811276323198
20681677 76 18408323297850671471
20775438 99 17544425879642248461
21033648 29 18057868333632676088
221490 88 18410582768755717078
22182313 1 18341058497063691510
23419403 2 16763056751888913816
23557571 272 18041281088246099091
23558518 356 18187373133487506865
23559900 14 18409727356908384064
25222932 49 16810954106604352355
2748010 2 18411980261087827140
2838139 119 16590313816106018966
3060560 45 18341894113047398748
3380486 145 18193290791643140523
350125 39 18339652255982757058
4280585 95 18049443635264956766
469060 322 17766260352064853183
49207404 50 18266742565686213546
495365 180 18129080291036622880
5104073 3 18410855434442884881
58051976 378 18410572932900314055
59755656 215 18411421726318562302
7364860 26 18342454807842328414
7808743 9 17691118658340093320
9709674 26 18408885127123505743

> <PUBCHEM_SHAPE_MULTIPOLES>
452.82
8.5
4.06
1.08
4.46
1.63
0.3
-0.74
-0.16
-1.54
-0.57
0.12
-0.09
1.99

> <PUBCHEM_SHAPE_SELFOVERLAP>
946.653

> <PUBCHEM_SHAPE_VOLUME>
255.3

> <PUBCHEM_COORDINATE_TYPE>
2
5
10

$$$$
