139584693
  -OEChem-03292013293D

 76 77  0     1  0  0  0  0  0999 V2000
   -4.1680    2.1352    1.2821 O   0  0  0  0  0  0  0  0  0  0  0  0
   -5.3377   -1.6914   -0.8040 O   0  0  0  0  0  0  0  0  0  0  0  0
   -2.7902   -3.2681   -1.0467 O   0  0  0  0  0  0  0  0  0  0  0  0
   -0.5698   -2.2224   -2.0812 O   0  0  0  0  0  0  0  0  0  0  0  0
   -2.1909    2.1901   -1.3915 O   0  0  0  0  0  0  0  0  0  0  0  0
   -0.4848    4.4410   -1.2270 O   0  0  0  0  0  0  0  0  0  0  0  0
   -3.2237    0.0640    0.3433 C   0  0  2  0  0  0  0  0  0  0  0  0
   -3.2955   -1.4705    0.4768 C   0  0  1  0  0  0  0  0  0  0  0  0
   -1.7339    0.5527    0.2905 C   0  0  2  0  0  0  0  0  0  0  0  0
   -4.0871    0.7237    1.4547 C   0  0  2  0  0  0  0  0  0  0  0  0
   -4.7530   -1.9827    0.4672 C   0  0  1  0  0  0  0  0  0  0  0  0
   -5.5700   -1.3256    1.5914 C   0  0  1  0  0  0  0  0  0  0  0  0
   -5.5250    0.1988    1.4608 C   0  0  0  0  0  0  0  0  0  0  0  0
   -0.8886   -0.2691   -0.6958 C   0  0  0  0  0  0  0  0  0  0  0  0
   -2.4915   -2.1510   -0.6212 C   0  0  0  0  0  0  0  0  0  0  0  0
   -1.0617    0.5594    1.6749 C   0  0  0  0  0  0  0  0  0  0  0  0
   -1.2658   -1.4864   -1.1424 C   0  0  0  0  0  0  0  0  0  0  0  0
    0.4244    0.3446   -1.1487 C   0  0  1  0  0  0  0  0  0  0  0  0
   -1.7378    1.9579   -0.2718 C   0  0  0  0  0  0  0  0  0  0  0  0
   -7.0205   -1.8107    1.6162 C   0  0  0  0  0  0  0  0  0  0  0  0
    1.6241   -0.5260   -0.7547 C   0  0  0  0  0  0  0  0  0  0  0  0
   -1.1550    3.0379    0.6255 C   0  0  0  0  0  0  0  0  0  0  0  0
    0.3710    0.5536   -2.6561 C   0  0  0  0  0  0  0  0  0  0  0  0
    2.9487    0.2475   -0.7229 C   0  0  0  0  0  0  0  0  0  0  0  0
   -1.2064    4.4236   -0.0016 C   0  0  0  0  0  0  0  0  0  0  0  0
    4.1497   -0.6196   -0.3307 C   0  0  0  0  0  0  0  0  0  0  0  0
    5.4619    0.1631   -0.2300 C   0  0  0  0  0  0  0  0  0  0  0  0
    6.6074   -0.7391    0.2374 C   0  0  0  0  0  0  0  0  0  0  0  0
    7.9546   -0.0161    0.3282 C   0  0  0  0  0  0  0  0  0  0  0  0
    9.0844   -0.8976    0.8649 C   0  0  0  0  0  0  0  0  0  0  0  0
   10.4056   -0.1294    0.9222 C   0  0  0  0  0  0  0  0  0  0  0  0
   11.5250   -0.9874    1.4901 C   0  0  0  0  0  0  0  0  0  0  0  0
   -3.6867    0.3380   -0.6177 H   0  0  0  0  0  0  0  0  0  0  0  0
   -2.8385   -1.7785    1.4268 H   0  0  0  0  0  0  0  0  0  0  0  0
   -3.6470    0.5303    2.4391 H   0  0  0  0  0  0  0  0  0  0  0  0
   -4.7768   -3.0718    0.5969 H   0  0  0  0  0  0  0  0  0  0  0  0
   -5.1143   -1.6034    2.5515 H   0  0  0  0  0  0  0  0  0  0  0  0
   -6.0426    0.5284    0.5498 H   0  0  0  0  0  0  0  0  0  0  0  0
   -6.0754    0.6619    2.2903 H   0  0  0  0  0  0  0  0  0  0  0  0
   -1.5599    1.1919    2.4142 H   0  0  0  0  0  0  0  0  0  0  0  0
   -0.0061    0.8517    1.6404 H   0  0  0  0  0  0  0  0  0  0  0  0
   -1.0629   -0.4538    2.0961 H   0  0  0  0  0  0  0  0  0  0  0  0
    0.5764    1.3226   -0.6875 H   0  0  0  0  0  0  0  0  0  0  0  0
   -7.5590   -1.3763    2.4653 H   0  0  0  0  0  0  0  0  0  0  0  0
   -7.0617   -2.9004    1.7161 H   0  0  0  0  0  0  0  0  0  0  0  0
   -7.5553   -1.5331    0.7019 H   0  0  0  0  0  0  0  0  0  0  0  0
   -4.6627    2.4982    2.0363 H   0  0  0  0  0  0  0  0  0  0  0  0
    1.7361   -1.3804   -1.4328 H   0  0  0  0  0  0  0  0  0  0  0  0
    1.4615   -0.9443    0.2477 H   0  0  0  0  0  0  0  0  0  0  0  0
   -4.8890   -2.2374   -1.4712 H   0  0  0  0  0  0  0  0  0  0  0  0
   -0.1043    2.8139    0.8282 H   0  0  0  0  0  0  0  0  0  0  0  0
   -1.7157    3.0914    1.5617 H   0  0  0  0  0  0  0  0  0  0  0  0
    1.1673    1.2410   -2.9649 H   0  0  0  0  0  0  0  0  0  0  0  0
    0.5234   -0.3663   -3.2289 H   0  0  0  0  0  0  0  0  0  0  0  0
   -0.5722    1.0008   -2.9856 H   0  0  0  0  0  0  0  0  0  0  0  0
    3.1412    0.6906   -1.7070 H   0  0  0  0  0  0  0  0  0  0  0  0
    2.8612    1.0784   -0.0119 H   0  0  0  0  0  0  0  0  0  0  0  0
   -1.0457   -3.0589   -2.2210 H   0  0  0  0  0  0  0  0  0  0  0  0
   -0.7720    5.1718    0.6689 H   0  0  0  0  0  0  0  0  0  0  0  0
   -2.2388    4.7159   -0.2180 H   0  0  0  0  0  0  0  0  0  0  0  0
    4.2639   -1.4282   -1.0632 H   0  0  0  0  0  0  0  0  0  0  0  0
    3.9412   -1.0955    0.6358 H   0  0  0  0  0  0  0  0  0  0  0  0
    5.3422    0.9955    0.4736 H   0  0  0  0  0  0  0  0  0  0  0  0
    5.7063    0.5965   -1.2071 H   0  0  0  0  0  0  0  0  0  0  0  0
    0.4307    4.1776   -1.0317 H   0  0  0  0  0  0  0  0  0  0  0  0
    6.3579   -1.1550    1.2216 H   0  0  0  0  0  0  0  0  0  0  0  0
    6.7051   -1.5889   -0.4495 H   0  0  0  0  0  0  0  0  0  0  0  0
    7.8453    0.8617    0.9773 H   0  0  0  0  0  0  0  0  0  0  0  0
    8.2260    0.3583   -0.6666 H   0  0  0  0  0  0  0  0  0  0  0  0
    9.1979   -1.7801    0.2237 H   0  0  0  0  0  0  0  0  0  0  0  0
    8.8218   -1.2573    1.8671 H   0  0  0  0  0  0  0  0  0  0  0  0
   10.6839    0.2080   -0.0830 H   0  0  0  0  0  0  0  0  0  0  0  0
   10.2897    0.7655    1.5446 H   0  0  0  0  0  0  0  0  0  0  0  0
   11.2916   -1.3128    2.5089 H   0  0  0  0  0  0  0  0  0  0  0  0
   11.6881   -1.8773    0.8737 H   0  0  0  0  0  0  0  0  0  0  0  0
   12.4599   -0.4192    1.5206 H   0  0  0  0  0  0  0  0  0  0  0  0
  1 10  1  0  0  0  0
  1 47  1  0  0  0  0
  2 11  1  0  0  0  0
  2 50  1  0  0  0  0
  3 15  2  0  0  0  0
  4 17  1  0  0  0  0
  4 58  1  0  0  0  0
  5 19  2  0  0  0  0
  6 25  1  0  0  0  0
  6 65  1  0  0  0  0
  7  8  1  0  0  0  0
  7  9  1  0  0  0  0
  7 10  1  0  0  0  0
  7 33  1  0  0  0  0
  8 11  1  0  0  0  0
  8 15  1  0  0  0  0
  8 34  1  0  0  0  0
  9 14  1  0  0  0  0
  9 16  1  0  0  0  0
  9 19  1  0  0  0  0
 10 13  1  0  0  0  0
 10 35  1  0  0  0  0
 11 12  1  0  0  0  0
 11 36  1  0  0  0  0
 12 13  1  0  0  0  0
 12 20  1  0  0  0  0
 12 37  1  0  0  0  0
 13 38  1  0  0  0  0
 13 39  1  0  0  0  0
 14 17  2  0  0  0  0
 14 18  1  0  0  0  0
 15 17  1  0  0  0  0
 16 40  1  0  0  0  0
 16 41  1  0  0  0  0
 16 42  1  0  0  0  0
 18 21  1  0  0  0  0
 18 23  1  0  0  0  0
 18 43  1  0  0  0  0
 19 22  1  0  0  0  0
 20 44  1  0  0  0  0
 20 45  1  0  0  0  0
 20 46  1  0  0  0  0
 21 24  1  0  0  0  0
 21 48  1  0  0  0  0
 21 49  1  0  0  0  0
 22 25  1  0  0  0  0
 22 51  1  0  0  0  0
 22 52  1  0  0  0  0
 23 53  1  0  0  0  0
 23 54  1  0  0  0  0
 23 55  1  0  0  0  0
 24 26  1  0  0  0  0
 24 56  1  0  0  0  0
 24 57  1  0  0  0  0
 25 59  1  0  0  0  0
 25 60  1  0  0  0  0
 26 27  1  0  0  0  0
 26 61  1  0  0  0  0
 26 62  1  0  0  0  0
 27 28  1  0  0  0  0
 27 63  1  0  0  0  0
 27 64  1  0  0  0  0
 28 29  1  0  0  0  0
 28 66  1  0  0  0  0
 28 67  1  0  0  0  0
 29 30  1  0  0  0  0
 29 68  1  0  0  0  0
 29 69  1  0  0  0  0
 30 31  1  0  0  0  0
 30 70  1  0  0  0  0
 30 71  1  0  0  0  0
 31 32  1  0  0  0  0
 31 72  1  0  0  0  0
 31 73  1  0  0  0  0
 32 74  1  0  0  0  0
 32 75  1  0  0  0  0
 32 76  1  0  0  0  0
M  END
> <PUBCHEM_COMPOUND_CID>
139584693

> <PUBCHEM_CONFORMER_RMSD>
1.2

> <PUBCHEM_CONFORMER_DIVERSEORDER>
1
17
26
18
23
36
45
43
27
3
25
35
31
44
24
30
33
21
46
40
2
42
34
9
22
6
32
15
38
37
20
19
10
12
8
5
39
7
29
11
28
13
16
41
4
14

> <PUBCHEM_MMFF94_PARTIAL_CHARGES>
21
1 -0.68
10 0.28
11 0.28
14 -0.28
15 0.49
17 0.09
18 0.14
19 0.45
2 -0.68
22 0.06
25 0.28
3 -0.57
4 -0.53
47 0.4
5 -0.57
50 0.4
58 0.45
6 -0.68
65 0.4
8 0.06
9 0.2

> <PUBCHEM_EFFECTIVE_ROTOR_COUNT>
13

> <PUBCHEM_PHARMACOPHORE_FEATURES>
13
1 1 acceptor
1 1 donor
1 2 acceptor
1 2 donor
1 23 hydrophobe
1 3 acceptor
1 32 hydrophobe
1 4 donor
1 5 acceptor
1 6 acceptor
1 6 donor
6 7 8 10 11 12 13 rings
6 7 8 9 14 15 17 rings

> <PUBCHEM_HEAVY_ATOM_COUNT>
32

> <PUBCHEM_ATOM_DEF_STEREO_COUNT>
7

> <PUBCHEM_ATOM_UDEF_STEREO_COUNT>
0

> <PUBCHEM_BOND_DEF_STEREO_COUNT>
0

> <PUBCHEM_BOND_UDEF_STEREO_COUNT>
0

> <PUBCHEM_ISOTOPIC_ATOM_COUNT>
0

> <PUBCHEM_COMPONENT_COUNT>
1

> <PUBCHEM_CACTVS_TAUTO_COUNT>
-1

> <PUBCHEM_CONFORMER_ID>
0851E4B500000001

> <PUBCHEM_MMFF94_ENERGY>
64.9108

> <PUBCHEM_FEATURE_SELFOVERLAP>
65.991

> <PUBCHEM_SHAPE_FINGERPRINT>
10 15 17632579349480506962
10290309 65 18058734577049269558
10369192 42 16630529518605607228
10674148 151 14056996131291213959
10930396 42 18272649047766899266
11200772 48 9367340432055912404
12035758 1 17845672429357526971
12104220 1 18186801379363065658
13140716 1 17839480104788135507
13540713 5 17697890520680483823
14068700 675 17894919550348530604
150020 25 11746944192505474206
17980427 23 17488752306312514149
20600515 1 18058469727874455125
20721686 146 13182199335957825291
21057603 285 17751389246830695913
21360443 120 10231766573560442908
21756936 100 17346594158518077630
21927370 108 17748828510429858580
22899556 105 7996822183072657273
23198884 109 9655579599973595314
23559900 14 17342978938431640621
23576562 1 10879406432440424810
25019877 29 17131841971070461143
395649 100 8718819904540568144
4409770 3 18261106323797612285
4938544 92 18337102351448782836
57527295 17 14129321997539545253
57527452 28 16588029043359065715
59755656 520 14333408956541169750
9896288 288 18264212404916237128
9953998 17 18202282515935495874

> <PUBCHEM_SHAPE_MULTIPOLES>
623.33
24.39
3.55
1.82
99.01
4.4
-0.42
-14.53
18.07
-5.51
-0.79
-0.95
-0.2
-0.66

> <PUBCHEM_SHAPE_SELFOVERLAP>
1259.224

> <PUBCHEM_SHAPE_VOLUME>
360.1

> <PUBCHEM_COORDINATE_TYPE>
2
5
10

$$$$
