139586943
  -OEChem-03292013293D

 54 56  0     1  0  0  0  0  0999 V2000
    2.2503    1.4394    2.3730 O   0  0  0  0  0  0  0  0  0  0  0  0
   -1.5432   -0.1651   -0.9947 O   0  0  0  0  0  0  0  0  0  0  0  0
    0.8373   -1.6664   -1.5369 O   0  0  0  0  0  0  0  0  0  0  0  0
   -2.4733    1.9922   -0.9539 O   0  0  0  0  0  0  0  0  0  0  0  0
   -2.1970   -3.1865    0.9594 O   0  0  0  0  0  0  0  0  0  0  0  0
   -4.6968   -1.6606    1.1539 O   0  0  0  0  0  0  0  0  0  0  0  0
   -4.1633    1.1830    1.1601 O   0  0  0  0  0  0  0  0  0  0  0  0
    1.9184   -3.0390   -0.0272 O   0  0  0  0  0  0  0  0  0  0  0  0
    2.6238    0.6699    0.1073 C   0  0  1  0  0  0  0  0  0  0  0  0
    3.6746   -0.3533   -0.3533 C   0  0  1  0  0  0  0  0  0  0  0  0
    3.2489    1.3012    1.3697 C   0  0  2  0  0  0  0  0  0  0  0  0
    4.1952   -0.9052    0.9736 C   0  0  0  0  0  0  0  0  0  0  0  0
    4.3461    0.3402    1.8395 C   0  0  0  0  0  0  0  0  0  0  0  0
    2.2747    1.7031   -0.9769 C   0  0  0  0  0  0  0  0  0  0  0  0
    3.1736   -1.4263   -1.3212 C   0  0  0  0  0  0  0  0  0  0  0  0
   -1.2340   -1.3720   -0.2929 C   0  0  1  0  0  0  0  0  0  0  0  0
   -2.5290   -2.0526    0.1622 C   0  0  2  0  0  0  0  0  0  0  0  0
   -3.3975   -1.0934    0.9773 C   0  0  1  0  0  0  0  0  0  0  0  0
   -3.5628    0.2477    0.2641 C   0  0  2  0  0  0  0  0  0  0  0  0
    1.0300    2.4607   -0.6100 C   0  0  0  0  0  0  0  0  0  0  0  0
   -2.2127    0.8056   -0.1854 C   0  0  1  0  0  0  0  0  0  0  0  0
    1.9245   -2.1534   -0.8719 C   0  0  0  0  0  0  0  0  0  0  0  0
   -0.4456   -2.2668   -1.2559 C   0  0  0  0  0  0  0  0  0  0  0  0
   -1.4368    2.9913   -0.9609 C   0  0  2  0  0  0  0  0  0  0  0  0
   -0.0993    2.4017   -1.3319 C   0  0  0  0  0  0  0  0  0  0  0  0
   -1.5060    3.8049    0.3329 C   0  0  0  0  0  0  0  0  0  0  0  0
    1.7041    0.1452    0.4006 H   0  0  0  0  0  0  0  0  0  0  0  0
    4.5011    0.1778   -0.8474 H   0  0  0  0  0  0  0  0  0  0  0  0
    3.6706    2.2935    1.1755 H   0  0  0  0  0  0  0  0  0  0  0  0
    5.1433   -1.4394    0.8587 H   0  0  0  0  0  0  0  0  0  0  0  0
    3.4754   -1.5863    1.4400 H   0  0  0  0  0  0  0  0  0  0  0  0
    4.2897    0.0988    2.9054 H   0  0  0  0  0  0  0  0  0  0  0  0
    5.3273    0.7899    1.6451 H   0  0  0  0  0  0  0  0  0  0  0  0
    2.1322    1.1971   -1.9388 H   0  0  0  0  0  0  0  0  0  0  0  0
    3.0997    2.4113   -1.1171 H   0  0  0  0  0  0  0  0  0  0  0  0
    3.9505   -2.1827   -1.4872 H   0  0  0  0  0  0  0  0  0  0  0  0
    2.9846   -0.9831   -2.3066 H   0  0  0  0  0  0  0  0  0  0  0  0
   -0.5924   -1.1275    0.5638 H   0  0  0  0  0  0  0  0  0  0  0  0
   -3.0959   -2.4155   -0.7037 H   0  0  0  0  0  0  0  0  0  0  0  0
   -2.9861   -0.9542    1.9840 H   0  0  0  0  0  0  0  0  0  0  0  0
   -4.2417    0.1487   -0.5914 H   0  0  0  0  0  0  0  0  0  0  0  0
    1.0574    3.0243    0.3173 H   0  0  0  0  0  0  0  0  0  0  0  0
   -1.5965    1.0517    0.6882 H   0  0  0  0  0  0  0  0  0  0  0  0
    2.6796    1.8112    3.1623 H   0  0  0  0  0  0  0  0  0  0  0  0
   -0.3206   -3.2822   -0.8649 H   0  0  0  0  0  0  0  0  0  0  0  0
   -0.9640   -2.3428   -2.2182 H   0  0  0  0  0  0  0  0  0  0  0  0
   -1.7088    3.6765   -1.7732 H   0  0  0  0  0  0  0  0  0  0  0  0
   -0.0900    1.8301   -2.2586 H   0  0  0  0  0  0  0  0  0  0  0  0
   -1.6867   -2.8757    1.7267 H   0  0  0  0  0  0  0  0  0  0  0  0
   -5.0826   -1.8125    0.2743 H   0  0  0  0  0  0  0  0  0  0  0  0
   -3.5669    1.2983    1.9195 H   0  0  0  0  0  0  0  0  0  0  0  0
   -1.2504    3.2045    1.2120 H   0  0  0  0  0  0  0  0  0  0  0  0
   -2.5260    4.1714    0.4936 H   0  0  0  0  0  0  0  0  0  0  0  0
   -0.8327    4.6675    0.2970 H   0  0  0  0  0  0  0  0  0  0  0  0
  1 11  1  0  0  0  0
  1 44  1  0  0  0  0
  2 16  1  0  0  0  0
  2 21  1  0  0  0  0
  3 22  1  0  0  0  0
  3 23  1  0  0  0  0
  4 21  1  0  0  0  0
  4 24  1  0  0  0  0
  5 17  1  0  0  0  0
  5 49  1  0  0  0  0
  6 18  1  0  0  0  0
  6 50  1  0  0  0  0
  7 19  1  0  0  0  0
  7 51  1  0  0  0  0
  8 22  2  0  0  0  0
  9 10  1  0  0  0  0
  9 11  1  0  0  0  0
  9 14  1  0  0  0  0
  9 27  1  0  0  0  0
 10 12  1  0  0  0  0
 10 15  1  0  0  0  0
 10 28  1  0  0  0  0
 11 13  1  0  0  0  0
 11 29  1  0  0  0  0
 12 13  1  0  0  0  0
 12 30  1  0  0  0  0
 12 31  1  0  0  0  0
 13 32  1  0  0  0  0
 13 33  1  0  0  0  0
 14 20  1  0  0  0  0
 14 34  1  0  0  0  0
 14 35  1  0  0  0  0
 15 22  1  0  0  0  0
 15 36  1  0  0  0  0
 15 37  1  0  0  0  0
 16 17  1  0  0  0  0
 16 23  1  0  0  0  0
 16 38  1  0  0  0  0
 17 18  1  0  0  0  0
 17 39  1  0  0  0  0
 18 19  1  0  0  0  0
 18 40  1  0  0  0  0
 19 21  1  0  0  0  0
 19 41  1  0  0  0  0
 20 25  2  3  0  0  0
 20 42  1  0  0  0  0
 21 43  1  0  0  0  0
 23 45  1  0  0  0  0
 23 46  1  0  0  0  0
 24 25  1  0  0  0  0
 24 26  1  0  0  0  0
 24 47  1  0  0  0  0
 25 48  1  0  0  0  0
 26 52  1  0  0  0  0
 26 53  1  0  0  0  0
 26 54  1  0  0  0  0
M  END
> <PUBCHEM_COMPOUND_CID>
139586943

> <PUBCHEM_CONFORMER_RMSD>
0.6

> <PUBCHEM_CONFORMER_DIVERSEORDER>
1
4
6
13
3
15
12
10
9
14
8
2
5
11
7

> <PUBCHEM_MMFF94_PARTIAL_CHARGES>
27
1 -0.68
11 0.28
14 0.14
15 0.06
16 0.28
17 0.28
18 0.28
19 0.28
2 -0.56
20 -0.29
21 0.56
22 0.66
23 0.28
24 0.42
25 -0.29
3 -0.43
4 -0.56
42 0.15
44 0.4
48 0.15
49 0.4
5 -0.68
50 0.4
51 0.4
6 -0.68
7 -0.68
8 -0.57

> <PUBCHEM_EFFECTIVE_ROTOR_COUNT>
2.6

> <PUBCHEM_PHARMACOPHORE_FEATURES>
13
1 1 acceptor
1 1 donor
1 2 acceptor
1 4 acceptor
1 5 acceptor
1 5 donor
1 6 acceptor
1 6 donor
1 7 acceptor
1 7 donor
1 8 acceptor
5 9 10 11 12 13 rings
6 2 16 17 18 19 21 rings

> <PUBCHEM_HEAVY_ATOM_COUNT>
26

> <PUBCHEM_ATOM_DEF_STEREO_COUNT>
9

> <PUBCHEM_ATOM_UDEF_STEREO_COUNT>
0

> <PUBCHEM_BOND_DEF_STEREO_COUNT>
0

> <PUBCHEM_BOND_UDEF_STEREO_COUNT>
1

> <PUBCHEM_ISOTOPIC_ATOM_COUNT>
0

> <PUBCHEM_COMPONENT_COUNT>
1

> <PUBCHEM_CACTVS_TAUTO_COUNT>
-1

> <PUBCHEM_CONFORMER_ID>
0851ED7F00000001

> <PUBCHEM_MMFF94_ENERGY>
67.1531

> <PUBCHEM_FEATURE_SELFOVERLAP>
66.028

> <PUBCHEM_SHAPE_FINGERPRINT>
10366900 7 18130210602176169444
11640471 11 14117511060871873436
12553582 1 18265335182091705396
12633257 1 18186803612155306651
12788726 201 18187094974041347969
13140716 1 18338234989304438900
13402501 40 18196372524370501364
13726171 33 18117018636176313428
13965767 371 18130217289677379474
14081887 123 18337108977723171743
14223421 5 18339644442899292542
17093844 170 18337668599145698836
1979834 28 18200328709379289123
20905425 154 18267589013635775206
23536364 44 17411083655340771470
23559900 14 18264217919512099927
238 59 17554850379354868172
3052486 1 18042127570623672006
3187 122 18333445448076788221
35225 105 17533473678365920436
3524813 1 18272930497126793098
484985 159 16086668066310952410
508706 21 18265050232591745877
5283268 108 18335995232425875823
57091435 65 18046909561283420772
6287921 2 17983015845149557744
7064713 232 18201447994941160849
7097593 13 17975701906813120189

> <PUBCHEM_SHAPE_MULTIPOLES>
488.11
7.89
4.14
1.66
0.01
1.06
0.44
-1.69
3.99
-1.93
-0.67
0.97
0.16
1.41

> <PUBCHEM_SHAPE_SELFOVERLAP>
1006.79

> <PUBCHEM_SHAPE_VOLUME>
276.7

> <PUBCHEM_COORDINATE_TYPE>
2
5
10

$$$$
