139588115
  -OEChem-03292013293D

 57 59  0     1  0  0  0  0  0999 V2000
    0.2126   -2.4292    0.4449 O   0  0  0  0  0  0  0  0  0  0  0  0
    0.9585    0.8164    1.5929 O   0  0  0  0  0  0  0  0  0  0  0  0
    3.7078   -3.1538    0.1076 O   0  0  0  0  0  0  0  0  0  0  0  0
   -0.3051   -0.9237    2.4367 O   0  0  0  0  0  0  0  0  0  0  0  0
    1.1730   -4.5139    0.6144 O   0  0  0  0  0  0  0  0  0  0  0  0
   -4.6058   -2.2208   -1.0124 O   0  0  0  0  0  0  0  0  0  0  0  0
   -5.5694    0.0863    0.1709 O   0  0  0  0  0  0  0  0  0  0  0  0
    5.7629    2.8692   -1.2241 O   0  0  0  0  0  0  0  0  0  0  0  0
   -4.7287    2.9173   -1.2711 O   0  0  0  0  0  0  0  0  0  0  0  0
    0.7047   -1.0883    0.2537 C   0  0  2  0  0  0  0  0  0  0  0  0
   -0.0416   -0.4595   -0.9141 C   0  0  0  0  0  0  0  0  0  0  0  0
    2.1714   -1.2687    0.0466 C   0  0  0  0  0  0  0  0  0  0  0  0
   -1.5123   -0.3129   -0.6248 C   0  0  0  0  0  0  0  0  0  0  0  0
    2.4856   -2.5613    0.1871 C   0  0  0  0  0  0  0  0  0  0  0  0
    0.3787   -0.4172    1.5576 C   0  0  0  0  0  0  0  0  0  0  0  0
    3.1115   -0.1834   -0.2861 C   0  0  0  0  0  0  0  0  0  0  0  0
    1.2533   -3.3104    0.4432 C   0  0  0  0  0  0  0  0  0  0  0  0
   -1.9930    0.8524   -0.0279 C   0  0  0  0  0  0  0  0  0  0  0  0
   -2.3939   -1.3427   -0.9538 C   0  0  0  0  0  0  0  0  0  0  0  0
   -3.3553    0.9881    0.2400 C   0  0  0  0  0  0  0  0  0  0  0  0
   -3.7560   -1.2072   -0.6858 C   0  0  0  0  0  0  0  0  0  0  0  0
    3.7672    0.5082    0.7324 C   0  0  0  0  0  0  0  0  0  0  0  0
    3.3464    0.1513   -1.6198 C   0  0  0  0  0  0  0  0  0  0  0  0
   -4.2367   -0.0418   -0.0888 C   0  0  0  0  0  0  0  0  0  0  0  0
   -3.8507    2.2432    0.8796 C   0  0  0  0  0  0  0  0  0  0  0  0
    4.6581    1.5341    0.4173 C   0  0  0  0  0  0  0  0  0  0  0  0
    4.2372    1.1772   -1.9349 C   0  0  0  0  0  0  0  0  0  0  0  0
    4.8931    1.8687   -0.9162 C   0  0  0  0  0  0  0  0  0  0  0  0
   -4.5492    3.1906   -0.0850 C   0  0  0  0  0  0  0  0  0  0  0  0
    0.7278    1.5703    2.7873 C   0  0  0  0  0  0  0  0  0  0  0  0
   -5.0193    4.5039    0.4855 C   0  0  0  0  0  0  0  0  0  0  0  0
   -4.0320   -3.3769   -1.6193 C   0  0  0  0  0  0  0  0  0  0  0  0
    6.3990    3.5345   -0.1337 C   0  0  0  0  0  0  0  0  0  0  0  0
    0.0807   -1.0668   -1.8214 H   0  0  0  0  0  0  0  0  0  0  0  0
    0.3651    0.5307   -1.1583 H   0  0  0  0  0  0  0  0  0  0  0  0
   -1.3090    1.6619    0.2141 H   0  0  0  0  0  0  0  0  0  0  0  0
   -1.9634   -2.2240   -1.4172 H   0  0  0  0  0  0  0  0  0  0  0  0
    3.6075    0.2507    1.7767 H   0  0  0  0  0  0  0  0  0  0  0  0
    2.8439   -0.3791   -2.4250 H   0  0  0  0  0  0  0  0  0  0  0  0
   -4.5240    2.0140    1.7136 H   0  0  0  0  0  0  0  0  0  0  0  0
   -3.0087    2.7953    1.3169 H   0  0  0  0  0  0  0  0  0  0  0  0
    3.5774   -4.1069    0.2528 H   0  0  0  0  0  0  0  0  0  0  0  0
    5.1355    2.0275    1.2570 H   0  0  0  0  0  0  0  0  0  0  0  0
    4.4164    1.4332   -2.9755 H   0  0  0  0  0  0  0  0  0  0  0  0
    1.2330    2.5341    2.6830 H   0  0  0  0  0  0  0  0  0  0  0  0
    1.1462    1.0457    3.6515 H   0  0  0  0  0  0  0  0  0  0  0  0
   -0.3433    1.7479    2.9231 H   0  0  0  0  0  0  0  0  0  0  0  0
   -5.7912    0.9808    0.4699 H   0  0  0  0  0  0  0  0  0  0  0  0
   -4.1620    5.0669    0.8623 H   0  0  0  0  0  0  0  0  0  0  0  0
   -5.5130    5.0900   -0.2945 H   0  0  0  0  0  0  0  0  0  0  0  0
   -5.7328    4.3172    1.2919 H   0  0  0  0  0  0  0  0  0  0  0  0
   -3.3312   -3.8815   -0.9453 H   0  0  0  0  0  0  0  0  0  0  0  0
   -3.5829   -3.1427   -2.5905 H   0  0  0  0  0  0  0  0  0  0  0  0
   -4.8499   -4.0798   -1.8097 H   0  0  0  0  0  0  0  0  0  0  0  0
    7.0548    4.3004   -0.5606 H   0  0  0  0  0  0  0  0  0  0  0  0
    7.0358    2.8512    0.4383 H   0  0  0  0  0  0  0  0  0  0  0  0
    5.6721    4.0534    0.5004 H   0  0  0  0  0  0  0  0  0  0  0  0
  1 10  1  0  0  0  0
  1 17  1  0  0  0  0
  2 15  1  0  0  0  0
  2 30  1  0  0  0  0
  3 14  1  0  0  0  0
  3 42  1  0  0  0  0
  4 15  2  0  0  0  0
  5 17  2  0  0  0  0
  6 21  1  0  0  0  0
  6 32  1  0  0  0  0
  7 24  1  0  0  0  0
  7 48  1  0  0  0  0
  8 28  1  0  0  0  0
  8 33  1  0  0  0  0
  9 29  2  0  0  0  0
 10 11  1  0  0  0  0
 10 12  1  0  0  0  0
 10 15  1  0  0  0  0
 11 13  1  0  0  0  0
 11 34  1  0  0  0  0
 11 35  1  0  0  0  0
 12 14  2  0  0  0  0
 12 16  1  0  0  0  0
 13 18  2  0  0  0  0
 13 19  1  0  0  0  0
 14 17  1  0  0  0  0
 16 22  2  0  0  0  0
 16 23  1  0  0  0  0
 18 20  1  0  0  0  0
 18 36  1  0  0  0  0
 19 21  2  0  0  0  0
 19 37  1  0  0  0  0
 20 24  2  0  0  0  0
 20 25  1  0  0  0  0
 21 24  1  0  0  0  0
 22 26  1  0  0  0  0
 22 38  1  0  0  0  0
 23 27  2  0  0  0  0
 23 39  1  0  0  0  0
 25 29  1  0  0  0  0
 25 40  1  0  0  0  0
 25 41  1  0  0  0  0
 26 28  2  0  0  0  0
 26 43  1  0  0  0  0
 27 28  1  0  0  0  0
 27 44  1  0  0  0  0
 29 31  1  0  0  0  0
 30 45  1  0  0  0  0
 30 46  1  0  0  0  0
 30 47  1  0  0  0  0
 31 49  1  0  0  0  0
 31 50  1  0  0  0  0
 31 51  1  0  0  0  0
 32 52  1  0  0  0  0
 32 53  1  0  0  0  0
 32 54  1  0  0  0  0
 33 55  1  0  0  0  0
 33 56  1  0  0  0  0
 33 57  1  0  0  0  0
M  END
> <PUBCHEM_COMPOUND_CID>
139588115

> <PUBCHEM_CONFORMER_RMSD>
1

> <PUBCHEM_CONFORMER_DIVERSEORDER>
2
50
43
19
56
55
5
28
39
58
57
59
18
38
51
48
23
26
34
20
6
49
47
33
3
46
35
15
32
29
21
25
30
11
37
36
60
54
44
13
27
45
9
16
14
42
4
17
22
52
31
12
7
41
10
40
8
24
53
1

> <PUBCHEM_MMFF94_PARTIAL_CHARGES>
41
1 -0.43
10 0.48
11 0.14
12 -0.17
13 -0.14
14 0.09
15 0.66
16 0.03
17 0.71
18 -0.15
19 -0.15
2 -0.43
20 -0.14
21 0.08
22 -0.15
23 -0.15
24 0.08
25 0.2
26 -0.15
27 -0.15
28 0.08
29 0.45
3 -0.53
30 0.28
31 0.06
32 0.28
33 0.28
36 0.15
37 0.15
38 0.15
39 0.15
4 -0.57
42 0.45
43 0.15
44 0.15
48 0.45
5 -0.57
6 -0.36
7 -0.53
8 -0.36
9 -0.57

> <PUBCHEM_EFFECTIVE_ROTOR_COUNT>
9.4

> <PUBCHEM_PHARMACOPHORE_FEATURES>
10
1 3 donor
1 4 acceptor
1 5 acceptor
1 6 acceptor
1 7 donor
1 8 acceptor
1 9 acceptor
5 1 10 12 14 17 rings
6 13 18 19 20 21 24 rings
6 16 22 23 26 27 28 rings

> <PUBCHEM_HEAVY_ATOM_COUNT>
33

> <PUBCHEM_ATOM_DEF_STEREO_COUNT>
1

> <PUBCHEM_ATOM_UDEF_STEREO_COUNT>
0

> <PUBCHEM_BOND_DEF_STEREO_COUNT>
0

> <PUBCHEM_BOND_UDEF_STEREO_COUNT>
0

> <PUBCHEM_ISOTOPIC_ATOM_COUNT>
0

> <PUBCHEM_COMPONENT_COUNT>
1

> <PUBCHEM_CACTVS_TAUTO_COUNT>
-1

> <PUBCHEM_CONFORMER_ID>
0851F21300000002

> <PUBCHEM_MMFF94_ENERGY>
105.738

> <PUBCHEM_FEATURE_SELFOVERLAP>
50.749

> <PUBCHEM_SHAPE_FINGERPRINT>
10928967 22 12607413156447540780
12293681 160 17988371437877364296
12422481 6 17531798061743598548
12788726 201 18122339344377458462
13617811 41 18265040505234495573
13690498 29 17774156945943962151
13726171 33 17775021080210165313
14790565 3 18409171047386489284
15082195 135 18265874952782071445
15238133 3 17700124409799705433
19319366 153 18411416202769969795
21033650 10 18197241280728312820
22393880 68 18272656727205341286
23559900 14 17557991640983560463
23569914 2 17316445515125457557
249057 3 18050849914135232063
27425 322 17969508092053471513
2838139 119 18188212108648095564
469060 322 17974312085456040811
474 4 18041003933679336638
5104073 3 18114749213915743793
57724786 102 18049444743171418045
6058803 2 18339348661867320359
633830 44 17749395806283411251
6371009 1 18117271669594422100
6898599 12 18412543202715565253
7808743 9 18412543185240348261
9981440 41 18261117421639164026

> <PUBCHEM_SHAPE_MULTIPOLES>
626.3
12.88
5.11
1.71
1.6
0.08
0.62
12.88
-4.65
-1.81
-0.08
0.65
0.28
-2.36

> <PUBCHEM_SHAPE_SELFOVERLAP>
1357.545

> <PUBCHEM_SHAPE_VOLUME>
342.7

> <PUBCHEM_COORDINATE_TYPE>
2
5
10

$$$$
