139588955
  -OEChem-03292013293D

 39 38  0     1  0  0  0  0  0999 V2000
   -0.6305   -1.5782    0.4914 O   0  0  0  0  0  0  0  0  0  0  0  0
   -3.7260    0.0840   -1.3207 O   0  0  0  0  0  0  0  0  0  0  0  0
   -3.2554   -2.1337   -1.2898 O   0  0  0  0  0  0  0  0  0  0  0  0
    1.2437    0.3515   -1.9925 O   0  0  0  0  0  0  0  0  0  0  0  0
    4.8724   -0.2006    0.5193 O   0  0  0  0  0  0  0  0  0  0  0  0
    2.9103   -1.4438    0.0958 O   0  5  0  0  0  0  0  0  0  0  0  0
    0.5893    0.8383    0.2072 N   0  0  0  0  0  0  0  0  0  0  0  0
    3.5151   -0.3218    0.0538 N   0  3  0  0  0  0  0  0  0  0  0  0
   -0.8537    0.7738    0.0353 C   0  0  1  0  0  0  0  0  0  0  0  0
   -1.3871   -0.4138    0.8773 C   0  0  1  0  0  0  0  0  0  0  0  0
   -1.4927    2.1558    0.3125 C   0  0  0  0  0  0  0  0  0  0  0  0
   -2.8732   -0.8143    0.7288 C   0  0  2  0  0  0  0  0  0  0  0  0
   -0.8730    3.2888   -0.5116 C   0  0  0  0  0  0  0  0  0  0  0  0
   -1.4253    2.5137    1.8040 C   0  0  0  0  0  0  0  0  0  0  0  0
   -3.2733   -1.9993    1.6095 C   0  0  0  0  0  0  0  0  0  0  0  0
   -3.2880   -1.0520   -0.7177 C   0  0  0  0  0  0  0  0  0  0  0  0
    1.4642    0.6203   -0.8231 C   0  0  0  0  0  0  0  0  0  0  0  0
    2.8794    0.7319   -0.3816 C   0  0  0  0  0  0  0  0  0  0  0  0
    5.6038   -1.4007    0.3021 C   0  0  0  0  0  0  0  0  0  0  0  0
   -1.0299    0.5380   -1.0219 H   0  0  0  0  0  0  0  0  0  0  0  0
   -1.1570   -0.2426    1.9359 H   0  0  0  0  0  0  0  0  0  0  0  0
   -2.5537    2.1004    0.0405 H   0  0  0  0  0  0  0  0  0  0  0  0
   -3.4772    0.0321    1.0843 H   0  0  0  0  0  0  0  0  0  0  0  0
    0.9529    1.0382    1.1346 H   0  0  0  0  0  0  0  0  0  0  0  0
    0.1655    3.4828   -0.2241 H   0  0  0  0  0  0  0  0  0  0  0  0
   -1.9874    1.8019    2.4155 H   0  0  0  0  0  0  0  0  0  0  0  0
   -1.8702    3.4999    1.9786 H   0  0  0  0  0  0  0  0  0  0  0  0
   -0.3949    2.5487    2.1714 H   0  0  0  0  0  0  0  0  0  0  0  0
   -0.8938    3.0456   -1.5790 H   0  0  0  0  0  0  0  0  0  0  0  0
   -1.4350    4.2186   -0.3712 H   0  0  0  0  0  0  0  0  0  0  0  0
   -2.7928   -2.9295    1.2888 H   0  0  0  0  0  0  0  0  0  0  0  0
   -4.3554   -2.1644    1.5592 H   0  0  0  0  0  0  0  0  0  0  0  0
   -3.0078   -1.8160    2.6556 H   0  0  0  0  0  0  0  0  0  0  0  0
   -0.6854   -2.2209    1.2186 H   0  0  0  0  0  0  0  0  0  0  0  0
    3.3660    1.7151   -0.4164 H   0  0  0  0  0  0  0  0  0  0  0  0
   -3.9967   -0.0764   -2.2497 H   0  0  0  0  0  0  0  0  0  0  0  0
    6.6539   -1.2079    0.5379 H   0  0  0  0  0  0  0  0  0  0  0  0
    5.5349   -1.7112   -0.7451 H   0  0  0  0  0  0  0  0  0  0  0  0
    5.2419   -2.1937    0.9631 H   0  0  0  0  0  0  0  0  0  0  0  0
  1 10  1  0  0  0  0
  1 34  1  0  0  0  0
  2 16  1  0  0  0  0
  2 36  1  0  0  0  0
  3 16  2  0  0  0  0
  4 17  2  0  0  0  0
  5  8  1  0  0  0  0
  5 19  1  0  0  0  0
  6  8  1  0  0  0  0
  7  9  1  0  0  0  0
  7 17  1  0  0  0  0
  7 24  1  0  0  0  0
  8 18  2  0  0  0  0
  9 10  1  0  0  0  0
  9 11  1  0  0  0  0
  9 20  1  0  0  0  0
 10 12  1  0  0  0  0
 10 21  1  0  0  0  0
 11 13  1  0  0  0  0
 11 14  1  0  0  0  0
 11 22  1  0  0  0  0
 12 15  1  0  0  0  0
 12 16  1  0  0  0  0
 12 23  1  0  0  0  0
 13 25  1  0  0  0  0
 13 29  1  0  0  0  0
 13 30  1  0  0  0  0
 14 26  1  0  0  0  0
 14 27  1  0  0  0  0
 14 28  1  0  0  0  0
 15 31  1  0  0  0  0
 15 32  1  0  0  0  0
 15 33  1  0  0  0  0
 17 18  1  0  0  0  0
 18 35  1  0  0  0  0
 19 37  1  0  0  0  0
 19 38  1  0  0  0  0
 19 39  1  0  0  0  0
M  CHG  2   6  -1   8   1
M  END
> <PUBCHEM_COMPOUND_CID>
139588955

> <PUBCHEM_CONFORMER_RMSD>
0.8

> <PUBCHEM_CONFORMER_DIVERSEORDER>
1
16
45
11
20
50
36
60
27
31
53
8
43
44
61
48
39
54
25
52
26
17
65
58
35
22
24
56
6
18
59
3
49
62
32
14
47
21
30
63
19
33
38
29
15
9
2
34
12
5
4
64
46
28
40
55
42
37
51
13
10
57
23
41
7

> <PUBCHEM_MMFF94_PARTIAL_CHARGES>
19
1 -0.68
10 0.28
12 0.06
16 0.66
17 0.63
18 -0.06
19 0.28
2 -0.65
24 0.37
3 -0.57
34 0.4
35 0.06
36 0.5
4 -0.57
5 -0.42
6 -0.63
7 -0.73
8 0.77
9 0.3

> <PUBCHEM_EFFECTIVE_ROTOR_COUNT>
8

> <PUBCHEM_PHARMACOPHORE_FEATURES>
10
1 1 acceptor
1 1 donor
1 15 hydrophobe
1 2 acceptor
1 3 acceptor
1 4 acceptor
1 6 anion
1 7 donor
3 11 13 14 hydrophobe
3 2 3 16 anion

> <PUBCHEM_HEAVY_ATOM_COUNT>
19

> <PUBCHEM_ATOM_DEF_STEREO_COUNT>
3

> <PUBCHEM_ATOM_UDEF_STEREO_COUNT>
0

> <PUBCHEM_BOND_DEF_STEREO_COUNT>
1

> <PUBCHEM_BOND_UDEF_STEREO_COUNT>
0

> <PUBCHEM_ISOTOPIC_ATOM_COUNT>
0

> <PUBCHEM_COMPONENT_COUNT>
1

> <PUBCHEM_CACTVS_TAUTO_COUNT>
-1

> <PUBCHEM_CONFORMER_ID>
0851F55B00000001

> <PUBCHEM_MMFF94_ENERGY>
35.7616

> <PUBCHEM_FEATURE_SELFOVERLAP>
50.811

> <PUBCHEM_SHAPE_FINGERPRINT>
10366900 7 18272933860471269098
11315181 36 18113620071883364832
12346177 29 18264208015601922868
12553582 1 18198360608876204278
12633257 1 17203339934917072434
12788726 201 18191854652804371553
13214271 11 13830134979131575747
13296909 8 18337955589039739620
14251764 30 16517113902342851107
16945 1 17631755823412655949
17834072 14 18260540173544655796
18186145 218 16226320525330453189
18927931 339 18342745096034220246
200 152 18410005559267896806
20671657 53 17822579407612933356
21339142 126 18342460318237954937
23175994 123 18261394498511360211
23198884 109 11963390722258739138
23402539 116 18342733014085234861
23419403 2 16386966802253174473
23526113 38 17971459948029822225
23557571 272 17846779564008810848
23559900 14 18334568079840923384
24859131 72 18131350795749614390
3086196 2 18342739598386325976
312423 11 18263945327086627508
5104073 3 18339640032933153490
57100710 210 18272083886126840614
5845 1 17702971195759832929
5924683 9 18341324488503854610
6049 1 12902701379484372940
7615 1 17969244307651654652
76465 3 18272081759691027431
81228 2 18269859552581975649
9709674 26 18339083670916569182

> <PUBCHEM_SHAPE_MULTIPOLES>
345.83
8.36
2.86
1.44
12.14
1.79
-0.08
-6.07
0.43
-2.19
0.49
-1.13
0.04
-0.54

> <PUBCHEM_SHAPE_SELFOVERLAP>
668.4

> <PUBCHEM_SHAPE_VOLUME>
209.6

> <PUBCHEM_COORDINATE_TYPE>
2
5
10

$$$$
