139583441
  -OEChem-03292013293D

 77 80  0     1  0  0  0  0  0999 V2000
   -3.9989    0.9958   -0.9763 O   0  0  0  0  0  0  0  0  0  0  0  0
    1.2733   -0.0743    0.8845 O   0  0  0  0  0  0  0  0  0  0  0  0
    3.1496   -0.1803   -0.5001 O   0  0  0  0  0  0  0  0  0  0  0  0
    2.1184    2.4798    1.7961 O   0  0  0  0  0  0  0  0  0  0  0  0
    4.9791    2.8680    1.6184 O   0  0  0  0  0  0  0  0  0  0  0  0
    5.7038    0.3618    0.6578 O   0  0  0  0  0  0  0  0  0  0  0  0
    4.2392   -0.8566   -3.1615 O   0  0  0  0  0  0  0  0  0  0  0  0
   -0.9876   -1.0220    0.4447 C   0  0  2  0  0  0  0  0  0  0  0  0
   -1.5309   -2.3800   -0.1391 C   0  0  1  0  0  0  0  0  0  0  0  0
   -1.8351    0.1465   -0.2079 C   0  0  1  0  0  0  0  0  0  0  0  0
   -3.3813    0.0261   -0.0948 C   0  0  2  0  0  0  0  0  0  0  0  0
   -0.7372   -3.6619    0.3220 C   0  0  0  0  0  0  0  0  0  0  0  0
    0.5127   -0.8724   -0.0253 C   0  0  2  0  0  0  0  0  0  0  0  0
   -3.0621   -2.5216   -0.0129 C   0  0  0  0  0  0  0  0  0  0  0  0
   -3.8035   -1.3479   -0.6530 C   0  0  0  0  0  0  0  0  0  0  0  0
    0.7564   -3.3352    0.5834 C   0  0  0  0  0  0  0  0  0  0  0  0
   -1.3984    1.5788    0.1417 C   0  0  0  0  0  0  0  0  0  0  0  0
    1.2617   -2.1892   -0.2814 C   0  0  0  0  0  0  0  0  0  0  0  0
   -1.0716   -0.9654    1.9868 C   0  0  0  0  0  0  0  0  0  0  0  0
   -2.0844    2.5518   -0.8148 C   0  0  0  0  0  0  0  0  0  0  0  0
   -3.6114    2.3757   -0.8696 C   0  0  1  0  0  0  0  0  0  0  0  0
   -3.9921    0.1906    1.3092 C   0  0  0  0  0  0  0  0  0  0  0  0
   -0.8072   -4.7171   -0.8135 C   0  0  0  0  0  0  0  0  0  0  0  0
   -1.3152   -4.3365    1.5833 C   0  0  0  0  0  0  0  0  0  0  0  0
   -4.1408    3.0488   -2.1460 C   0  0  0  0  0  0  0  0  0  0  0  0
    2.2633    0.6922    0.1993 C   0  0  2  0  0  0  0  0  0  0  0  0
   -4.3041    3.0448    0.2853 C   0  0  0  0  0  0  0  0  0  0  0  0
    3.0187    1.5215    1.2403 C   0  0  1  0  0  0  0  0  0  0  0  0
    4.1977    2.2522    0.5983 C   0  0  2  0  0  0  0  0  0  0  0  0
    4.1826    0.5171   -1.2076 C   0  0  1  0  0  0  0  0  0  0  0  0
   -5.6288    3.0386    0.4687 C   0  0  0  0  0  0  0  0  0  0  0  0
    5.0614    1.2903   -0.2181 C   0  0  2  0  0  0  0  0  0  0  0  0
    4.9727   -0.5195   -1.9977 C   0  0  0  0  0  0  0  0  0  0  0  0
   -1.3539   -2.3021   -1.2249 H   0  0  0  0  0  0  0  0  0  0  0  0
   -1.6327    0.0612   -1.2898 H   0  0  0  0  0  0  0  0  0  0  0  0
    0.4934   -0.3625   -0.9994 H   0  0  0  0  0  0  0  0  0  0  0  0
   -3.3617   -2.6238    1.0340 H   0  0  0  0  0  0  0  0  0  0  0  0
   -3.3945   -3.4377   -0.5144 H   0  0  0  0  0  0  0  0  0  0  0  0
   -3.6330   -1.3672   -1.7386 H   0  0  0  0  0  0  0  0  0  0  0  0
   -4.8863   -1.4866   -0.5356 H   0  0  0  0  0  0  0  0  0  0  0  0
    1.3754   -4.2235    0.4009 H   0  0  0  0  0  0  0  0  0  0  0  0
    0.9250   -3.0843    1.6367 H   0  0  0  0  0  0  0  0  0  0  0  0
   -0.3238    1.7132    0.0294 H   0  0  0  0  0  0  0  0  0  0  0  0
   -1.6383    1.8376    1.1768 H   0  0  0  0  0  0  0  0  0  0  0  0
    2.3325   -2.1328   -0.0832 H   0  0  0  0  0  0  0  0  0  0  0  0
    1.1507   -2.4677   -1.3367 H   0  0  0  0  0  0  0  0  0  0  0  0
   -0.9784    0.0571    2.3643 H   0  0  0  0  0  0  0  0  0  0  0  0
   -2.0003   -1.3788    2.3774 H   0  0  0  0  0  0  0  0  0  0  0  0
   -0.2679   -1.5322    2.4637 H   0  0  0  0  0  0  0  0  0  0  0  0
   -1.6641    2.3708   -1.8140 H   0  0  0  0  0  0  0  0  0  0  0  0
   -1.8127    3.5829   -0.5557 H   0  0  0  0  0  0  0  0  0  0  0  0
   -3.5720    1.0367    1.8573 H   0  0  0  0  0  0  0  0  0  0  0  0
   -3.8674   -0.6886    1.9413 H   0  0  0  0  0  0  0  0  0  0  0  0
   -5.0735    0.3549    1.2381 H   0  0  0  0  0  0  0  0  0  0  0  0
   -1.8392   -5.0135   -1.0275 H   0  0  0  0  0  0  0  0  0  0  0  0
   -0.2588   -5.6272   -0.5432 H   0  0  0  0  0  0  0  0  0  0  0  0
   -0.3705   -4.3359   -1.7431 H   0  0  0  0  0  0  0  0  0  0  0  0
   -2.3263   -4.7213    1.4138 H   0  0  0  0  0  0  0  0  0  0  0  0
   -1.3543   -3.6535    2.4352 H   0  0  0  0  0  0  0  0  0  0  0  0
   -0.6968   -5.1911    1.8840 H   0  0  0  0  0  0  0  0  0  0  0  0
   -3.6609    2.6162   -3.0329 H   0  0  0  0  0  0  0  0  0  0  0  0
   -3.9493    4.1280   -2.1528 H   0  0  0  0  0  0  0  0  0  0  0  0
   -5.2149    2.8827   -2.2911 H   0  0  0  0  0  0  0  0  0  0  0  0
    1.7672    1.3567   -0.5197 H   0  0  0  0  0  0  0  0  0  0  0  0
   -3.6965    3.5889    1.0045 H   0  0  0  0  0  0  0  0  0  0  0  0
    3.3599    0.8910    2.0697 H   0  0  0  0  0  0  0  0  0  0  0  0
    3.8242    3.0574   -0.0468 H   0  0  0  0  0  0  0  0  0  0  0  0
    3.7039    1.2155   -1.9071 H   0  0  0  0  0  0  0  0  0  0  0  0
    5.8507    1.8482   -0.7347 H   0  0  0  0  0  0  0  0  0  0  0  0
   -6.0645    3.5529    1.3186 H   0  0  0  0  0  0  0  0  0  0  0  0
   -6.3019    2.5199   -0.2045 H   0  0  0  0  0  0  0  0  0  0  0  0
    1.7964    3.0461    1.0741 H   0  0  0  0  0  0  0  0  0  0  0  0
    5.9367   -0.1155   -2.3223 H   0  0  0  0  0  0  0  0  0  0  0  0
    5.1335   -1.4352   -1.4194 H   0  0  0  0  0  0  0  0  0  0  0  0
    5.7251    3.3162    1.1846 H   0  0  0  0  0  0  0  0  0  0  0  0
    6.3763   -0.1157    0.1436 H   0  0  0  0  0  0  0  0  0  0  0  0
    4.7618   -1.5154   -3.6498 H   0  0  0  0  0  0  0  0  0  0  0  0
  1 11  1  0  0  0  0
  1 21  1  0  0  0  0
  2 13  1  0  0  0  0
  2 26  1  0  0  0  0
  3 26  1  0  0  0  0
  3 30  1  0  0  0  0
  4 28  1  0  0  0  0
  4 72  1  0  0  0  0
  5 29  1  0  0  0  0
  5 75  1  0  0  0  0
  6 32  1  0  0  0  0
  6 76  1  0  0  0  0
  7 33  1  0  0  0  0
  7 77  1  0  0  0  0
  8  9  1  0  0  0  0
  8 10  1  0  0  0  0
  8 13  1  0  0  0  0
  8 19  1  0  0  0  0
  9 12  1  0  0  0  0
  9 14  1  0  0  0  0
  9 34  1  0  0  0  0
 10 11  1  0  0  0  0
 10 17  1  0  0  0  0
 10 35  1  0  0  0  0
 11 15  1  0  0  0  0
 11 22  1  0  0  0  0
 12 16  1  0  0  0  0
 12 23  1  0  0  0  0
 12 24  1  0  0  0  0
 13 18  1  0  0  0  0
 13 36  1  0  0  0  0
 14 15  1  0  0  0  0
 14 37  1  0  0  0  0
 14 38  1  0  0  0  0
 15 39  1  0  0  0  0
 15 40  1  0  0  0  0
 16 18  1  0  0  0  0
 16 41  1  0  0  0  0
 16 42  1  0  0  0  0
 17 20  1  0  0  0  0
 17 43  1  0  0  0  0
 17 44  1  0  0  0  0
 18 45  1  0  0  0  0
 18 46  1  0  0  0  0
 19 47  1  0  0  0  0
 19 48  1  0  0  0  0
 19 49  1  0  0  0  0
 20 21  1  0  0  0  0
 20 50  1  0  0  0  0
 20 51  1  0  0  0  0
 21 25  1  0  0  0  0
 21 27  1  0  0  0  0
 22 52  1  0  0  0  0
 22 53  1  0  0  0  0
 22 54  1  0  0  0  0
 23 55  1  0  0  0  0
 23 56  1  0  0  0  0
 23 57  1  0  0  0  0
 24 58  1  0  0  0  0
 24 59  1  0  0  0  0
 24 60  1  0  0  0  0
 25 61  1  0  0  0  0
 25 62  1  0  0  0  0
 25 63  1  0  0  0  0
 26 28  1  0  0  0  0
 26 64  1  0  0  0  0
 27 31  2  0  0  0  0
 27 65  1  0  0  0  0
 28 29  1  0  0  0  0
 28 66  1  0  0  0  0
 29 32  1  0  0  0  0
 29 67  1  0  0  0  0
 30 32  1  0  0  0  0
 30 33  1  0  0  0  0
 30 68  1  0  0  0  0
 31 70  1  0  0  0  0
 31 71  1  0  0  0  0
 32 69  1  0  0  0  0
 33 73  1  0  0  0  0
 33 74  1  0  0  0  0
M  END
> <PUBCHEM_COMPOUND_CID>
139583441

> <PUBCHEM_CONFORMER_RMSD>
1

> <PUBCHEM_CONFORMER_DIVERSEORDER>
1
3
2
5
4

> <PUBCHEM_MMFF94_PARTIAL_CHARGES>
25
1 -0.56
11 0.28
13 0.28
2 -0.56
21 0.42
26 0.56
27 -0.29
28 0.28
29 0.28
3 -0.56
30 0.28
31 -0.3
32 0.28
33 0.28
4 -0.68
5 -0.68
6 -0.68
65 0.15
7 -0.68
70 0.15
71 0.15
72 0.4
75 0.4
76 0.4
77 0.4

> <PUBCHEM_EFFECTIVE_ROTOR_COUNT>
7.2

> <PUBCHEM_PHARMACOPHORE_FEATURES>
17
1 1 acceptor
1 2 acceptor
1 3 acceptor
1 31 hydrophobe
1 4 acceptor
1 4 donor
1 5 acceptor
1 5 donor
1 6 acceptor
1 6 donor
1 7 acceptor
1 7 donor
3 12 23 24 hydrophobe
6 1 10 11 17 20 21 rings
6 3 26 28 29 30 32 rings
6 8 9 10 11 14 15 rings
6 8 9 12 13 16 18 rings

> <PUBCHEM_HEAVY_ATOM_COUNT>
33

> <PUBCHEM_ATOM_DEF_STEREO_COUNT>
11

> <PUBCHEM_ATOM_UDEF_STEREO_COUNT>
0

> <PUBCHEM_BOND_DEF_STEREO_COUNT>
0

> <PUBCHEM_BOND_UDEF_STEREO_COUNT>
0

> <PUBCHEM_ISOTOPIC_ATOM_COUNT>
0

> <PUBCHEM_COMPONENT_COUNT>
1

> <PUBCHEM_CACTVS_TAUTO_COUNT>
-1

> <PUBCHEM_CONFORMER_ID>
0851DFD100000001

> <PUBCHEM_MMFF94_ENERGY>
142.9841

> <PUBCHEM_FEATURE_SELFOVERLAP>
86.372

> <PUBCHEM_SHAPE_FINGERPRINT>
10165383 225 18264500494095247221
10190108 129 18265071244600620563
10411042 1 17472133354856288915
105312 117 18335141985791264694
10670039 82 18187372038402728620
1100329 8 18122339086726919762
12107183 9 18190158149929305330
12422481 6 17386838418540503036
12788726 201 17610065933646400522
13140716 1 17759242190998612307
13402501 40 18200311172948399600
13617811 41 18115870870643064679
13642711 20 18271242699238073004
140371 6 16753525617705232403
14114211 68 18047498641606653821
14251757 17 18202570587828628408
14347329 18 18114761373168729300
14713325 29 18261959647646806363
14790565 3 18339646612227341017
14955137 171 17757839205814839411
15082195 135 18122602982850634199
15230672 131 18334575704035744786
15297060 5 18190765058166638948
15463212 79 18261661670957305971
15961568 22 17327732306984764004
16988056 13 17038356823510611821
17980427 23 17834076820385227259
1813 80 17545619197540270698
21033648 144 18058171807452253864
21033648 29 18410857668011046672
21033650 10 17970081126537044140
22393880 68 18342177747923297238
23557571 272 18196093459260749100
23559900 14 17905594520059439235
283562 15 18338223982084234315
3298306 158 18339927009067170078
3729539 64 17981345403630433902
376196 1 18340201903805946918
4015057 19 17561365101940112216
469060 322 17829063343720568139
508706 21 18338521949197064278
5252454 2 18263647264698235005
5283173 99 18341330097736612904
5895379 119 18116720818959226628
633830 44 18201992188503907941
6700243 42 17549023221378360542
7399639 24 17194309856809382552
9709674 26 18057612160334211446
9981440 41 18259981557276631283

> <PUBCHEM_SHAPE_MULTIPOLES>
638.04
11.14
5.47
1.78
7.8
4.6
0.61
-11.79
2.16
-4.08
-0.54
1.4
-0.35
2.36

> <PUBCHEM_SHAPE_SELFOVERLAP>
1331.629

> <PUBCHEM_SHAPE_VOLUME>
355.1

> <PUBCHEM_COORDINATE_TYPE>
2
5
10

$$$$
