139589132
  -OEChem-03292013293D

 44 49  0     1  0  0  0  0  0999 V2000
   -0.8759   -2.7894    1.1391 S   0  0  0  0  0  0  0  0  0  0  0  0
    0.8748   -3.0289    0.0638 S   0  0  0  0  0  0  0  0  0  0  0  0
   -0.0115   -0.8347   -2.5704 O   0  0  0  0  0  0  0  0  0  0  0  0
    0.0054    0.3161    2.5705 O   0  0  0  0  0  0  0  0  0  0  0  0
   -1.7625    2.0196   -0.4429 O   0  0  0  0  0  0  0  0  0  0  0  0
    1.9739    2.4920    1.5677 O   0  0  0  0  0  0  0  0  0  0  0  0
   -5.5369   -0.0569    1.0750 O   0  0  0  0  0  0  0  0  0  0  0  0
    5.6010   -0.6537   -0.8832 O   0  0  0  0  0  0  0  0  0  0  0  0
   -1.1624   -0.6739   -0.5496 N   0  0  0  0  0  0  0  0  0  0  0  0
    1.1549   -0.3852    0.6669 N   0  0  0  0  0  0  0  0  0  0  0  0
   -1.1551   -0.9951    0.8826 C   0  0  1  0  0  0  0  0  0  0  0  0
    1.1489   -1.2979   -0.4827 C   0  0  1  0  0  0  0  0  0  0  0  0
   -2.4737   -0.2472   -1.0245 C   0  0  1  0  0  0  0  0  0  0  0  0
    2.4663    0.2272    0.8966 C   0  0  1  0  0  0  0  0  0  0  0  0
   -3.4094   -0.6295    0.1295 C   0  0  1  0  0  0  0  0  0  0  0  0
    3.3973   -0.6517    0.0525 C   0  0  1  0  0  0  0  0  0  0  0  0
   -2.5248   -0.5250    1.3784 C   0  0  0  0  0  0  0  0  0  0  0  0
    2.5189   -1.0904   -1.1272 C   0  0  0  0  0  0  0  0  0  0  0  0
   -0.0374   -0.8794   -1.3452 C   0  0  0  0  0  0  0  0  0  0  0  0
    0.0309   -0.2427    1.4790 C   0  0  0  0  0  0  0  0  0  0  0  0
   -2.4919    1.2436   -1.3924 C   0  0  1  0  0  0  0  0  0  0  0  0
    2.4447    1.7040    0.4732 C   0  0  2  0  0  0  0  0  0  0  0  0
   -4.6805    0.1892    0.2260 C   0  0  0  0  0  0  0  0  0  0  0  0
    4.6817    0.0066   -0.3996 C   0  0  0  0  0  0  0  0  0  0  0  0
   -3.8875    1.7795   -1.4517 C   0  0  0  0  0  0  0  0  0  0  0  0
    3.7907    2.2296    0.0886 C   0  0  0  0  0  0  0  0  0  0  0  0
   -4.9033    1.3006   -0.7270 C   0  0  0  0  0  0  0  0  0  0  0  0
    4.8234    1.4736   -0.2930 C   0  0  0  0  0  0  0  0  0  0  0  0
    2.6998    0.1446    1.9656 H   0  0  0  0  0  0  0  0  0  0  0  0
   -2.7310   -0.8305   -1.9184 H   0  0  0  0  0  0  0  0  0  0  0  0
    3.6762   -1.5311    0.6495 H   0  0  0  0  0  0  0  0  0  0  0  0
   -3.7149   -1.6762   -0.0082 H   0  0  0  0  0  0  0  0  0  0  0  0
   -2.4905    0.5159    1.7249 H   0  0  0  0  0  0  0  0  0  0  0  0
   -2.9174   -1.1158    2.2136 H   0  0  0  0  0  0  0  0  0  0  0  0
    2.4868   -0.2947   -1.8833 H   0  0  0  0  0  0  0  0  0  0  0  0
    2.9122   -1.9814   -1.6291 H   0  0  0  0  0  0  0  0  0  0  0  0
   -2.0007    1.3734   -2.3637 H   0  0  0  0  0  0  0  0  0  0  0  0
    1.7511    1.8649   -0.3614 H   0  0  0  0  0  0  0  0  0  0  0  0
   -4.0673    2.6298   -2.1041 H   0  0  0  0  0  0  0  0  0  0  0  0
    3.9279    3.3086    0.0966 H   0  0  0  0  0  0  0  0  0  0  0  0
   -5.8907    1.7444   -0.7748 H   0  0  0  0  0  0  0  0  0  0  0  0
    5.7708    1.9167   -0.5773 H   0  0  0  0  0  0  0  0  0  0  0  0
    1.8581    3.4041    1.2503 H   0  0  0  0  0  0  0  0  0  0  0  0
   -1.7596    2.9418   -0.7521 H   0  0  0  0  0  0  0  0  0  0  0  0
  1  2  1  0  0  0  0
  1 11  1  0  0  0  0
  2 12  1  0  0  0  0
  3 19  2  0  0  0  0
  4 20  2  0  0  0  0
  5 21  1  0  0  0  0
  5 44  1  0  0  0  0
  6 22  1  0  0  0  0
  6 43  1  0  0  0  0
  7 23  2  0  0  0  0
  8 24  2  0  0  0  0
  9 11  1  0  0  0  0
  9 13  1  0  0  0  0
  9 19  1  0  0  0  0
 10 12  1  0  0  0  0
 10 14  1  0  0  0  0
 10 20  1  0  0  0  0
 11 17  1  0  0  0  0
 11 20  1  0  0  0  0
 12 18  1  0  0  0  0
 12 19  1  0  0  0  0
 13 15  1  0  0  0  0
 13 21  1  0  0  0  0
 13 30  1  0  0  0  0
 14 16  1  0  0  0  0
 14 22  1  0  0  0  0
 14 29  1  0  0  0  0
 15 17  1  0  0  0  0
 15 23  1  0  0  0  0
 15 32  1  0  0  0  0
 16 18  1  0  0  0  0
 16 24  1  0  0  0  0
 16 31  1  0  0  0  0
 17 33  1  0  0  0  0
 17 34  1  0  0  0  0
 18 35  1  0  0  0  0
 18 36  1  0  0  0  0
 21 25  1  0  0  0  0
 21 37  1  0  0  0  0
 22 26  1  0  0  0  0
 22 38  1  0  0  0  0
 23 27  1  0  0  0  0
 24 28  1  0  0  0  0
 25 27  2  0  0  0  0
 25 39  1  0  0  0  0
 26 28  2  0  0  0  0
 26 40  1  0  0  0  0
 27 41  1  0  0  0  0
 28 42  1  0  0  0  0
M  END
> <PUBCHEM_COMPOUND_CID>
139589132

> <PUBCHEM_CONFORMER_RMSD>
0.6

> <PUBCHEM_CONFORMER_DIVERSEORDER>
1
3
2

> <PUBCHEM_MMFF94_PARTIAL_CHARGES>
32
1 -0.23
10 -0.66
11 0.59
12 0.59
13 0.3
14 0.3
15 0.06
16 0.06
19 0.57
2 -0.23
20 0.57
21 0.42
22 0.42
23 0.49
24 0.49
25 -0.29
26 -0.29
27 -0.14
28 -0.14
3 -0.57
39 0.15
4 -0.57
40 0.15
41 0.15
42 0.15
43 0.4
44 0.4
5 -0.68
6 -0.68
7 -0.57
8 -0.57
9 -0.66

> <PUBCHEM_EFFECTIVE_ROTOR_COUNT>
1.2

> <PUBCHEM_PHARMACOPHORE_FEATURES>
13
1 3 acceptor
1 4 acceptor
1 5 acceptor
1 5 donor
1 6 acceptor
1 6 donor
1 7 acceptor
1 8 acceptor
5 10 12 14 16 18 rings
5 9 11 13 15 17 rings
6 13 15 21 23 25 27 rings
6 14 16 22 24 26 28 rings
8 1 2 9 10 11 12 19 20 rings

> <PUBCHEM_HEAVY_ATOM_COUNT>
28

> <PUBCHEM_ATOM_DEF_STEREO_COUNT>
8

> <PUBCHEM_ATOM_UDEF_STEREO_COUNT>
0

> <PUBCHEM_BOND_DEF_STEREO_COUNT>
0

> <PUBCHEM_BOND_UDEF_STEREO_COUNT>
0

> <PUBCHEM_ISOTOPIC_ATOM_COUNT>
0

> <PUBCHEM_COMPONENT_COUNT>
1

> <PUBCHEM_CACTVS_TAUTO_COUNT>
-1

> <PUBCHEM_CONFORMER_ID>
0851F60C00000001

> <PUBCHEM_MMFF94_ENERGY>
89.7276

> <PUBCHEM_FEATURE_SELFOVERLAP>
66.355

> <PUBCHEM_SHAPE_FINGERPRINT>
10165383 225 18334303062587754951
10366900 7 18333725815104774255
10498660 4 18040987402556404013
10646746 165 18113335288763925964
10863032 1 18261105219151999699
10948715 1 18333445443502421355
11370993 70 18333449833017156538
11595378 159 16153978076113613165
11796584 16 12391513070539336245
12236239 1 16272210773266495454
12403259 415 18334296469797033989
12596602 18 15285362842193284421
12730499 353 18408889516564349067
12788726 201 18271243807762024592
13149001 5 16270501140075511778
13224815 77 16660641817743344061
13402501 40 18407759239679831749
13544653 18 10665224834980624887
13583140 156 18410580608007489051
13782708 43 18334584541844382035
13965767 371 16374091357973032485
14341114 328 14345796045528057736
14787075 74 18336260236878220175
14955137 171 14057294043192142350
15163728 17 18262252052845578908
15238133 3 18188195512904669240
16945 1 18200866288501924539
17349148 13 16415484848364871718
17980427 23 17095249116244686319
1813 80 16770718208645693382
18186145 218 18272925046544366826
192875 21 17561370582392137584
19862831 5 15769773571998607277
21033648 144 18201154481029071272
21033648 29 18261667146898189865
221357 26 18343298137197630084
23227448 37 18265051508138867412
23557571 272 17823151145343924395
23559900 14 17895481297584528247
3004659 81 12967129428214697368
3729539 64 18191877717185569398
427121 178 17096084675750297953
463206 1 14261639417301648652
474 4 18272937132550695715
5104073 3 17677898920822023473
5265222 85 17896341258498235110
6442390 28 18113054939090051291
7399639 24 17118597516085089560
7808743 9 18042405914400795644

> <PUBCHEM_SHAPE_MULTIPOLES>
538.75
9.64
2.56
1.73
0.14
0.52
0.08
-4.87
-1.01
-0.46
0.19
0.25
-0.03
1.54

> <PUBCHEM_SHAPE_SELFOVERLAP>
1188.027

> <PUBCHEM_SHAPE_VOLUME>
291.5

> <PUBCHEM_COORDINATE_TYPE>
2
5
10

$$$$
