139588905
  -OEChem-03292013293D

 62 65  0     1  0  0  0  0  0999 V2000
    3.2363    1.3550   -0.6739 O   0  0  0  0  0  0  0  0  0  0  0  0
    3.3002    0.4702    1.5290 O   0  0  0  0  0  0  0  0  0  0  0  0
   -5.5064    0.2134    0.8862 O   0  0  0  0  0  0  0  0  0  0  0  0
    5.9901    2.9100    1.1977 O   0  0  0  0  0  0  0  0  0  0  0  0
   -1.6291    1.8836    0.9695 O   0  0  0  0  0  0  0  0  0  0  0  0
    0.8434    1.5295    0.7071 O   0  0  0  0  0  0  0  0  0  0  0  0
    0.1359   -3.4263   -1.1424 O   0  0  0  0  0  0  0  0  0  0  0  0
    4.2562    2.8878   -2.7339 O   0  0  0  0  0  0  0  0  0  0  0  0
    2.7814   -3.4775    1.2416 O   0  0  0  0  0  0  0  0  0  0  0  0
    3.1811    0.1791    0.1351 C   0  0  1  0  0  0  0  0  0  0  0  0
   -4.2831    0.9463    0.6782 C   0  0  1  0  0  0  0  0  0  0  0  0
    1.8580   -0.4655   -0.0928 C   0  0  0  0  0  0  0  0  0  0  0  0
   -3.0722    0.1040    0.3471 C   0  0  0  0  0  0  0  0  0  0  0  0
    4.4851    2.0365   -0.5135 C   0  0  2  0  0  0  0  0  0  0  0  0
   -0.6654   -0.1666    0.1350 C   0  0  0  0  0  0  0  0  0  0  0  0
    4.6997    2.3654    0.9694 C   0  0  1  0  0  0  0  0  0  0  0  0
   -0.8502   -1.4552   -0.3523 C   0  0  0  0  0  0  0  0  0  0  0  0
    1.6786   -1.7085   -0.5779 C   0  0  0  0  0  0  0  0  0  0  0  0
   -3.2533   -1.1946   -0.1363 C   0  0  0  0  0  0  0  0  0  0  0  0
   -1.7747    0.6151    0.4834 C   0  0  0  0  0  0  0  0  0  0  0  0
    0.6896    0.3880    0.2848 C   0  0  0  0  0  0  0  0  0  0  0  0
    4.5467    1.1009    1.8088 C   0  0  0  0  0  0  0  0  0  0  0  0
   -4.5457    1.9983   -0.3996 C   0  0  0  0  0  0  0  0  0  0  0  0
    0.3067   -2.2853   -0.7252 C   0  0  0  0  0  0  0  0  0  0  0  0
   -2.1456   -1.9724   -0.4904 C   0  0  0  0  0  0  0  0  0  0  0  0
    4.4459    3.2843   -1.3875 C   0  0  0  0  0  0  0  0  0  0  0  0
    2.7839   -2.6262   -1.0297 C   0  0  0  0  0  0  0  0  0  0  0  0
   -4.6134   -1.7060   -0.2545 C   0  0  0  0  0  0  0  0  0  0  0  0
   -5.7896    2.8166   -0.0766 C   0  0  0  0  0  0  0  0  0  0  0  0
   -5.6385   -1.0085    0.2601 C   0  0  0  0  0  0  0  0  0  0  0  0
   -6.0367    3.8795   -1.1353 C   0  0  0  0  0  0  0  0  0  0  0  0
    3.2592   -3.5031    0.1081 C   0  0  0  0  0  0  0  0  0  0  0  0
   -7.0472   -1.5103    0.2194 C   0  0  0  0  0  0  0  0  0  0  0  0
    4.3733   -4.4574   -0.2387 C   0  0  0  0  0  0  0  0  0  0  0  0
    4.0102   -0.4781   -0.1447 H   0  0  0  0  0  0  0  0  0  0  0  0
   -4.0963    1.4505    1.6348 H   0  0  0  0  0  0  0  0  0  0  0  0
    5.2858    1.3830   -0.8857 H   0  0  0  0  0  0  0  0  0  0  0  0
    3.9433    3.0942    1.2868 H   0  0  0  0  0  0  0  0  0  0  0  0
    5.3685    0.3963    1.6295 H   0  0  0  0  0  0  0  0  0  0  0  0
    4.5765    1.3460    2.8760 H   0  0  0  0  0  0  0  0  0  0  0  0
   -3.6822    2.6640   -0.5141 H   0  0  0  0  0  0  0  0  0  0  0  0
   -4.6949    1.5067   -1.3703 H   0  0  0  0  0  0  0  0  0  0  0  0
   -2.3000   -2.9809   -0.8680 H   0  0  0  0  0  0  0  0  0  0  0  0
    5.3791    3.8511   -1.3150 H   0  0  0  0  0  0  0  0  0  0  0  0
    3.6068    3.9301   -1.1081 H   0  0  0  0  0  0  0  0  0  0  0  0
    3.6378   -2.0662   -1.4226 H   0  0  0  0  0  0  0  0  0  0  0  0
    2.4517   -3.2710   -1.8512 H   0  0  0  0  0  0  0  0  0  0  0  0
   -4.7646   -2.6692   -0.7300 H   0  0  0  0  0  0  0  0  0  0  0  0
   -6.6779    2.1776   -0.0216 H   0  0  0  0  0  0  0  0  0  0  0  0
   -5.6757    3.3025    0.8994 H   0  0  0  0  0  0  0  0  0  0  0  0
    6.0637    3.1056    2.1473 H   0  0  0  0  0  0  0  0  0  0  0  0
   -6.1881    3.4257   -2.1200 H   0  0  0  0  0  0  0  0  0  0  0  0
   -6.9312    4.4599   -0.8880 H   0  0  0  0  0  0  0  0  0  0  0  0
   -5.1914    4.5720   -1.2018 H   0  0  0  0  0  0  0  0  0  0  0  0
   -0.7097    2.0572    1.2190 H   0  0  0  0  0  0  0  0  0  0  0  0
   -7.4409   -1.6142    1.2357 H   0  0  0  0  0  0  0  0  0  0  0  0
   -7.1258   -2.4850   -0.2731 H   0  0  0  0  0  0  0  0  0  0  0  0
   -7.6825   -0.8055   -0.3266 H   0  0  0  0  0  0  0  0  0  0  0  0
    4.2315    3.6980   -3.2709 H   0  0  0  0  0  0  0  0  0  0  0  0
    5.2434   -3.8948   -0.5862 H   0  0  0  0  0  0  0  0  0  0  0  0
    4.0358   -5.1493   -1.0142 H   0  0  0  0  0  0  0  0  0  0  0  0
    4.6569   -5.0309    0.6482 H   0  0  0  0  0  0  0  0  0  0  0  0
  1 10  1  0  0  0  0
  1 14  1  0  0  0  0
  2 10  1  0  0  0  0
  2 22  1  0  0  0  0
  3 11  1  0  0  0  0
  3 30  1  0  0  0  0
  4 16  1  0  0  0  0
  4 51  1  0  0  0  0
  5 20  1  0  0  0  0
  5 55  1  0  0  0  0
  6 21  2  0  0  0  0
  7 24  2  0  0  0  0
  8 26  1  0  0  0  0
  8 59  1  0  0  0  0
  9 32  2  0  0  0  0
 10 12  1  0  0  0  0
 10 35  1  0  0  0  0
 11 13  1  0  0  0  0
 11 23  1  0  0  0  0
 11 36  1  0  0  0  0
 12 18  2  0  0  0  0
 12 21  1  0  0  0  0
 13 19  1  0  0  0  0
 13 20  2  0  0  0  0
 14 16  1  0  0  0  0
 14 26  1  0  0  0  0
 14 37  1  0  0  0  0
 15 17  2  0  0  0  0
 15 20  1  0  0  0  0
 15 21  1  0  0  0  0
 16 22  1  0  0  0  0
 16 38  1  0  0  0  0
 17 24  1  0  0  0  0
 17 25  1  0  0  0  0
 18 24  1  0  0  0  0
 18 27  1  0  0  0  0
 19 25  2  0  0  0  0
 19 28  1  0  0  0  0
 22 39  1  0  0  0  0
 22 40  1  0  0  0  0
 23 29  1  0  0  0  0
 23 41  1  0  0  0  0
 23 42  1  0  0  0  0
 25 43  1  0  0  0  0
 26 44  1  0  0  0  0
 26 45  1  0  0  0  0
 27 32  1  0  0  0  0
 27 46  1  0  0  0  0
 27 47  1  0  0  0  0
 28 30  2  0  0  0  0
 28 48  1  0  0  0  0
 29 31  1  0  0  0  0
 29 49  1  0  0  0  0
 29 50  1  0  0  0  0
 30 33  1  0  0  0  0
 31 52  1  0  0  0  0
 31 53  1  0  0  0  0
 31 54  1  0  0  0  0
 32 34  1  0  0  0  0
 33 56  1  0  0  0  0
 33 57  1  0  0  0  0
 33 58  1  0  0  0  0
 34 60  1  0  0  0  0
 34 61  1  0  0  0  0
 34 62  1  0  0  0  0
M  END
> <PUBCHEM_COMPOUND_CID>
139588905

> <PUBCHEM_CONFORMER_RMSD>
1

> <PUBCHEM_CONFORMER_DIVERSEORDER>
1
12
11
13
14
7
9
15
19
3
16
17
18
6
10
20
2
4
5
8

> <PUBCHEM_MMFF94_PARTIAL_CHARGES>
36
1 -0.56
10 0.7
11 0.42
12 -0.12
13 -0.14
14 0.28
15 0.09
16 0.28
17 0.09
18 -0.12
19 0.03
2 -0.56
20 0.08
21 0.47
22 0.28
24 0.47
25 -0.15
26 0.28
27 0.2
28 -0.18
3 -0.36
30 -0.06
32 0.45
33 0.14
34 0.06
4 -0.68
43 0.15
48 0.15
5 -0.53
51 0.4
55 0.45
59 0.4
6 -0.57
7 -0.57
8 -0.68
9 -0.57

> <PUBCHEM_EFFECTIVE_ROTOR_COUNT>
7.6

> <PUBCHEM_PHARMACOPHORE_FEATURES>
16
1 1 acceptor
1 2 acceptor
1 3 acceptor
1 31 hydrophobe
1 4 acceptor
1 4 donor
1 5 donor
1 6 acceptor
1 7 acceptor
1 8 acceptor
1 8 donor
1 9 acceptor
6 1 2 10 14 16 22 rings
6 12 15 17 18 21 24 rings
6 13 15 17 19 20 25 rings
6 3 11 13 19 28 30 rings

> <PUBCHEM_HEAVY_ATOM_COUNT>
34

> <PUBCHEM_ATOM_DEF_STEREO_COUNT>
4

> <PUBCHEM_ATOM_UDEF_STEREO_COUNT>
0

> <PUBCHEM_BOND_DEF_STEREO_COUNT>
0

> <PUBCHEM_BOND_UDEF_STEREO_COUNT>
0

> <PUBCHEM_ISOTOPIC_ATOM_COUNT>
0

> <PUBCHEM_COMPONENT_COUNT>
1

> <PUBCHEM_CACTVS_TAUTO_COUNT>
-1

> <PUBCHEM_CONFORMER_ID>
0851F52900000001

> <PUBCHEM_MMFF94_ENERGY>
82.7581

> <PUBCHEM_FEATURE_SELFOVERLAP>
81.296

> <PUBCHEM_SHAPE_FINGERPRINT>
10050765 1 18411134698181473635
10554248 39 18339068312366467111
10675989 125 17979634533900136913
10906281 52 18263939893609814499
11578080 2 18115015303881685533
11963148 33 18268142253217883503
12422481 6 17967526852871596485
12788726 201 17180812282522289874
131258 43 16914836730465555438
13140716 1 17766550635665943107
13383665 225 18262254274261803005
14114211 68 18266479761338540038
14118638 360 18343866628454831049
14790565 3 18267024053659082836
14849402 71 18408327666492203722
15196674 1 18342177722617905203
15347591 1 18410575046805198651
15927050 60 18200028581455246438
18608769 82 18127975424228888995
20505436 4 17462282749738655752
20715895 44 18194393391057230017
20771845 171 18188215406597202310
21859007 373 17681823012949147205
22149856 69 18270137789696372395
22311459 1 18267864076722002867
23366157 5 18335143064329702782
23559900 14 18198902509326919571
23569914 152 16624632635793471677
32027 91 18123466077602915027
335352 9 18124876751253168295
3411729 13 18413387657288513674
350125 39 18342177713843295766
4073 2 18262806293296888227
4144715 1 18260554411614313707
5104073 3 18342463591393782659
5265222 85 18052819440693982200
550186 72 18339924922346320045
67856867 119 18340768152415362914
9981440 41 18266178516670057938

> <PUBCHEM_SHAPE_MULTIPOLES>
646.88
15.25
5.23
1.33
13.87
0.96
-0.26
-8.94
0.71
-5.07
-1.54
-1.77
-0.94
0.49

> <PUBCHEM_SHAPE_SELFOVERLAP>
1399.649

> <PUBCHEM_SHAPE_VOLUME>
350.6

> <PUBCHEM_COORDINATE_TYPE>
2
5
10

$$$$
