139587263
  -OEChem-03292013293D

 44 46  0     1  0  0  0  0  0999 V2000
    3.1920    0.9797   -0.5070 O   0  0  0  0  0  0  0  0  0  0  0  0
    0.9388    2.0673    0.8832 O   0  0  0  0  0  0  0  0  0  0  0  0
   -1.0376    2.4333   -0.3896 O   0  0  0  0  0  0  0  0  0  0  0  0
    3.0318    0.6095    1.8202 O   0  0  0  0  0  0  0  0  0  0  0  0
    1.1504    1.1851   -1.8753 O   0  0  0  0  0  0  0  0  0  0  0  0
   -5.5110    0.5466    0.8915 O   0  0  0  0  0  0  0  0  0  0  0  0
   -3.1290   -3.2303   -0.2466 O   0  0  0  0  0  0  0  0  0  0  0  0
   -4.2841   -1.3239    0.3384 N   0  0  0  0  0  0  0  0  0  0  0  0
    1.0198    0.6912    0.4983 C   0  0  2  0  0  0  0  0  0  0  0  0
    2.4879    0.2858    0.5398 C   0  0  1  0  0  0  0  0  0  0  0  0
    0.3751    0.5058   -0.8831 C   0  0  1  0  0  0  0  0  0  0  0  0
   -1.0367    1.1073   -0.9334 C   0  0  1  0  0  0  0  0  0  0  0  0
   -2.0854    0.2379   -0.2436 C   0  0  0  0  0  0  0  0  0  0  0  0
    2.7023   -1.2030    0.2217 C   0  0  1  0  0  0  0  0  0  0  0  0
    4.1143   -1.1597   -0.2891 C   0  0  0  0  0  0  0  0  0  0  0  0
   -3.4586    0.9004   -0.2913 C   0  0  0  0  0  0  0  0  0  0  0  0
   -2.1759   -1.1338   -0.9048 C   0  0  0  0  0  0  0  0  0  0  0  0
    4.3755    0.2184   -0.8038 C   0  0  0  0  0  0  0  0  0  0  0  0
   -0.4128    2.5171    0.8884 C   0  0  0  0  0  0  0  0  0  0  0  0
    2.4299   -2.1488    1.3861 C   0  0  0  0  0  0  0  0  0  0  0  0
   -3.2131   -2.0025   -0.2331 C   0  0  0  0  0  0  0  0  0  0  0  0
   -4.5063    0.0480    0.3849 C   0  0  0  0  0  0  0  0  0  0  0  0
    5.0327   -2.1314   -0.2515 C   0  0  0  0  0  0  0  0  0  0  0  0
    0.4729    0.1148    1.2549 H   0  0  0  0  0  0  0  0  0  0  0  0
    0.3742   -0.5404   -1.1828 H   0  0  0  0  0  0  0  0  0  0  0  0
   -1.3297    1.2316   -1.9842 H   0  0  0  0  0  0  0  0  0  0  0  0
   -1.8273    0.0935    0.8133 H   0  0  0  0  0  0  0  0  0  0  0  0
    2.0955   -1.5199   -0.6327 H   0  0  0  0  0  0  0  0  0  0  0  0
   -1.2348   -1.6841   -0.8228 H   0  0  0  0  0  0  0  0  0  0  0  0
   -2.4373   -1.0522   -1.9661 H   0  0  0  0  0  0  0  0  0  0  0  0
   -3.7818    1.0733   -1.3246 H   0  0  0  0  0  0  0  0  0  0  0  0
   -3.4402    1.8668    0.2249 H   0  0  0  0  0  0  0  0  0  0  0  0
    5.2247    0.6896   -0.2994 H   0  0  0  0  0  0  0  0  0  0  0  0
    4.5270    0.2344   -1.8866 H   0  0  0  0  0  0  0  0  0  0  0  0
   -0.4026    3.5730    1.1746 H   0  0  0  0  0  0  0  0  0  0  0  0
   -0.9937    1.9860    1.6507 H   0  0  0  0  0  0  0  0  0  0  0  0
    3.1103   -1.9730    2.2262 H   0  0  0  0  0  0  0  0  0  0  0  0
    2.5512   -3.1925    1.0759 H   0  0  0  0  0  0  0  0  0  0  0  0
    1.4038   -2.0349    1.7497 H   0  0  0  0  0  0  0  0  0  0  0  0
    2.6101    1.4295    2.1275 H   0  0  0  0  0  0  0  0  0  0  0  0
    0.7626    0.9813   -2.7435 H   0  0  0  0  0  0  0  0  0  0  0  0
   -4.9940   -1.9039    0.7772 H   0  0  0  0  0  0  0  0  0  0  0  0
    4.8080   -3.1122    0.1512 H   0  0  0  0  0  0  0  0  0  0  0  0
    6.0348   -1.9637   -0.6321 H   0  0  0  0  0  0  0  0  0  0  0  0
  1 10  1  0  0  0  0
  1 18  1  0  0  0  0
  2  9  1  0  0  0  0
  2 19  1  0  0  0  0
  3 12  1  0  0  0  0
  3 19  1  0  0  0  0
  4 10  1  0  0  0  0
  4 40  1  0  0  0  0
  5 11  1  0  0  0  0
  5 41  1  0  0  0  0
  6 22  2  0  0  0  0
  7 21  2  0  0  0  0
  8 21  1  0  0  0  0
  8 22  1  0  0  0  0
  8 42  1  0  0  0  0
  9 10  1  0  0  0  0
  9 11  1  0  0  0  0
  9 24  1  0  0  0  0
 10 14  1  0  0  0  0
 11 12  1  0  0  0  0
 11 25  1  0  0  0  0
 12 13  1  0  0  0  0
 12 26  1  0  0  0  0
 13 16  1  0  0  0  0
 13 17  1  0  0  0  0
 13 27  1  0  0  0  0
 14 15  1  0  0  0  0
 14 20  1  0  0  0  0
 14 28  1  0  0  0  0
 15 18  1  0  0  0  0
 15 23  2  0  0  0  0
 16 22  1  0  0  0  0
 16 31  1  0  0  0  0
 16 32  1  0  0  0  0
 17 21  1  0  0  0  0
 17 29  1  0  0  0  0
 17 30  1  0  0  0  0
 18 33  1  0  0  0  0
 18 34  1  0  0  0  0
 19 35  1  0  0  0  0
 19 36  1  0  0  0  0
 20 37  1  0  0  0  0
 20 38  1  0  0  0  0
 20 39  1  0  0  0  0
 23 43  1  0  0  0  0
 23 44  1  0  0  0  0
M  END
> <PUBCHEM_COMPOUND_CID>
139587263

> <PUBCHEM_CONFORMER_RMSD>
0.8

> <PUBCHEM_CONFORMER_DIVERSEORDER>
1
24
50
31
43
49
30
19
40
54
5
39
56
21
51
33
6
57
34
17
47
45
25
29
16
52
32
14
20
23
37
48
36
8
53
26
7
9
11
35
55
22
42
2
44
27
4
41
18
12
46
15
10
28
13
38
3

> <PUBCHEM_MMFF94_PARTIAL_CHARGES>
26
1 -0.56
10 0.56
11 0.28
12 0.28
14 0.14
15 -0.28
16 0.06
17 0.06
18 0.42
19 0.56
2 -0.56
21 0.57
22 0.57
23 -0.3
3 -0.56
4 -0.68
40 0.4
41 0.4
42 0.37
43 0.15
44 0.15
5 -0.68
6 -0.57
7 -0.57
8 -0.49
9 0.28

> <PUBCHEM_EFFECTIVE_ROTOR_COUNT>
4.8

> <PUBCHEM_PHARMACOPHORE_FEATURES>
13
1 1 acceptor
1 2 acceptor
1 3 acceptor
1 4 acceptor
1 4 donor
1 5 acceptor
1 5 donor
1 6 acceptor
1 7 acceptor
1 8 donor
5 1 10 14 15 18 rings
6 2 3 9 11 12 19 rings
6 8 13 16 17 21 22 rings

> <PUBCHEM_HEAVY_ATOM_COUNT>
23

> <PUBCHEM_ATOM_DEF_STEREO_COUNT>
4

> <PUBCHEM_ATOM_UDEF_STEREO_COUNT>
1

> <PUBCHEM_BOND_DEF_STEREO_COUNT>
0

> <PUBCHEM_BOND_UDEF_STEREO_COUNT>
0

> <PUBCHEM_ISOTOPIC_ATOM_COUNT>
0

> <PUBCHEM_COMPONENT_COUNT>
1

> <PUBCHEM_CACTVS_TAUTO_COUNT>
-1

> <PUBCHEM_CONFORMER_ID>
0851EEBF00000001

> <PUBCHEM_MMFF94_ENERGY>
64.9986

> <PUBCHEM_FEATURE_SELFOVERLAP>
66.085

> <PUBCHEM_SHAPE_FINGERPRINT>
10616163 171 18409448042353568590
11552529 35 17631165471462813679
11578080 2 18042664217565396917
12403260 363 9367354716678762805
12506688 2 18411976974910331570
12507557 5 12103554286602427575
12553582 1 18337096900290933675
12596599 1 18059593393871374098
12633257 1 17489868224061206611
12670546 177 13118293585093476313
12714826 92 18187353303787382349
12760667 363 18200308810468687998
12788726 201 18127975213115673768
128620 24 12612751319996974939
12892183 10 17702375346256353505
13103583 49 18059871557881525771
13911987 19 14708363278211734734
14251764 30 17822021916832295763
14251764 38 10015579523428340235
14420673 8 18340495456468259135
14617045 38 18334864874649461395
14787075 74 18193554691381521256
14790565 3 17693092285616690808
15375462 189 18408318886855695195
15537594 2 18186523189588242315
16752209 62 18124576605684401901
17349148 13 17346595318401827797
17492 89 18052536861910819015
17804303 29 18341052995120810589
1813 80 17676202485337501029
19141452 34 18413389847895634999
192875 21 10159692495495886483
19784866 135 18270116807905405168
20281475 54 18410289250484532077
20291156 8 18407757040666748863
20600515 1 18130520664312868453
20775530 9 17900807263570332714
21403212 168 18128825149564772473
22950370 63 18410580599453867087
23379529 103 18271535217177906534
235170 7 14273731828893536291
23559900 14 18412819175601597404
238078 22 18411705382943486830
2871803 45 18114176424013061094
314173 41 18411702097061539664
3472631 163 8790068236103258251
351380 180 10663816369122773739
3737641 26 18337963268251887234
465052 167 18273501177900034775
5104073 3 18272930556892559987
5385378 56 17981338794514236433
7097593 13 18198056091985467361
83771 10 18334857207873978877

> <PUBCHEM_SHAPE_MULTIPOLES>
427.26
9.92
2.73
1.23
1.93
0.81
0.07
5.05
0.7
0.72
0.26
-0.58
-0.25
-0.33

> <PUBCHEM_SHAPE_SELFOVERLAP>
905.489

> <PUBCHEM_SHAPE_VOLUME>
235.1

> <PUBCHEM_COORDINATE_TYPE>
2
5
10

$$$$
