139583915
  -OEChem-03292013293D

 55 57  0     1  0  0  0  0  0999 V2000
    3.5832   -1.0402    1.5484 O   0  0  0  0  0  0  0  0  0  0  0  0
   -0.7304    1.1607   -0.5047 O   0  0  0  0  0  0  0  0  0  0  0  0
    1.9406    3.6581   -0.7874 O   0  0  0  0  0  0  0  0  0  0  0  0
    1.6866    2.6713    2.1703 O   0  0  0  0  0  0  0  0  0  0  0  0
   -1.7139    0.8966   -2.5692 O   0  0  0  0  0  0  0  0  0  0  0  0
   -3.2322    1.9312    0.6901 O   0  0  0  0  0  0  0  0  0  0  0  0
   -5.7061   -2.0691    1.4403 O   0  0  0  0  0  0  0  0  0  0  0  0
    0.9320    2.9081   -0.1117 C   0  0  1  0  0  0  0  0  0  0  0  0
    0.3441    1.8901   -1.0965 C   0  0  1  0  0  0  0  0  0  0  0  0
    1.3940    0.8881   -1.5836 C   0  0  0  0  0  0  0  0  0  0  0  0
    2.2638    0.3554   -0.4756 C   0  0  0  0  0  0  0  0  0  0  0  0
    2.3645    0.9168    0.7419 C   0  0  0  0  0  0  0  0  0  0  0  0
    3.0467   -0.8954   -0.7960 C   0  0  0  0  0  0  0  0  0  0  0  0
    1.6457    2.1941    1.0362 C   0  0  0  0  0  0  0  0  0  0  0  0
    4.1451   -1.1581    0.2394 C   0  0  2  0  0  0  0  0  0  0  0  0
    3.1911    0.3066    1.8401 C   0  0  0  0  0  0  0  0  0  0  0  0
   -0.1270    3.8791    0.4141 C   0  0  0  0  0  0  0  0  0  0  0  0
    4.7100   -2.5315    0.0903 C   0  0  0  0  0  0  0  0  0  0  0  0
   -1.6914    0.7228   -1.3606 C   0  0  0  0  0  0  0  0  0  0  0  0
    6.0069   -2.7845   -0.1365 C   0  0  0  0  0  0  0  0  0  0  0  0
   -2.7470   -0.0175   -0.6244 C   0  0  0  0  0  0  0  0  0  0  0  0
   -3.0135   -1.3520   -0.9305 C   0  0  0  0  0  0  0  0  0  0  0  0
    6.5722   -4.1582   -0.2851 C   0  0  0  0  0  0  0  0  0  0  0  0
   -3.4752    0.6275    0.3753 C   0  0  0  0  0  0  0  0  0  0  0  0
   -4.0079   -2.0416   -0.2370 C   0  0  0  0  0  0  0  0  0  0  0  0
   -4.4697   -0.0621    1.0688 C   0  0  0  0  0  0  0  0  0  0  0  0
   -2.2501   -2.0683   -1.9965 C   0  0  0  0  0  0  0  0  0  0  0  0
   -4.7361   -1.3966    0.7627 C   0  0  0  0  0  0  0  0  0  0  0  0
   -5.9260   -3.4314    1.0774 C   0  0  0  0  0  0  0  0  0  0  0  0
   -0.0180    2.4474   -1.9720 H   0  0  0  0  0  0  0  0  0  0  0  0
    2.0456    1.3667   -2.3253 H   0  0  0  0  0  0  0  0  0  0  0  0
    0.9004    0.0447   -2.0814 H   0  0  0  0  0  0  0  0  0  0  0  0
    2.3356   -1.7318   -0.8266 H   0  0  0  0  0  0  0  0  0  0  0  0
    3.5003   -0.8116   -1.7914 H   0  0  0  0  0  0  0  0  0  0  0  0
    4.9444   -0.4107    0.1346 H   0  0  0  0  0  0  0  0  0  0  0  0
    4.0907    0.9062    2.0205 H   0  0  0  0  0  0  0  0  0  0  0  0
    2.6189    0.2687    2.7727 H   0  0  0  0  0  0  0  0  0  0  0  0
   -0.6644    4.3548   -0.4136 H   0  0  0  0  0  0  0  0  0  0  0  0
    0.3321    4.6897    0.9922 H   0  0  0  0  0  0  0  0  0  0  0  0
   -0.8506    3.3785    1.0641 H   0  0  0  0  0  0  0  0  0  0  0  0
    2.2630    4.3482   -0.1826 H   0  0  0  0  0  0  0  0  0  0  0  0
    4.0173   -3.3650    0.1835 H   0  0  0  0  0  0  0  0  0  0  0  0
    6.7084   -1.9592   -0.2254 H   0  0  0  0  0  0  0  0  0  0  0  0
    7.3349   -4.3318    0.4800 H   0  0  0  0  0  0  0  0  0  0  0  0
    5.8074   -4.9351   -0.1869 H   0  0  0  0  0  0  0  0  0  0  0  0
    7.0409   -4.2636   -1.2683 H   0  0  0  0  0  0  0  0  0  0  0  0
   -4.1781   -3.0767   -0.5138 H   0  0  0  0  0  0  0  0  0  0  0  0
   -5.0377    0.4399    1.8481 H   0  0  0  0  0  0  0  0  0  0  0  0
   -1.1711   -1.9425   -1.8563 H   0  0  0  0  0  0  0  0  0  0  0  0
   -2.4439   -3.1466   -1.9818 H   0  0  0  0  0  0  0  0  0  0  0  0
   -2.5347   -1.6954   -2.9856 H   0  0  0  0  0  0  0  0  0  0  0  0
   -2.6084    2.3192    0.0560 H   0  0  0  0  0  0  0  0  0  0  0  0
   -6.7303   -3.8099    1.7168 H   0  0  0  0  0  0  0  0  0  0  0  0
   -5.0434   -4.0489    1.2763 H   0  0  0  0  0  0  0  0  0  0  0  0
   -6.2726   -3.5216    0.0423 H   0  0  0  0  0  0  0  0  0  0  0  0
  1 15  1  0  0  0  0
  1 16  1  0  0  0  0
  2  9  1  0  0  0  0
  2 19  1  0  0  0  0
  3  8  1  0  0  0  0
  3 41  1  0  0  0  0
  4 14  2  0  0  0  0
  5 19  2  0  0  0  0
  6 24  1  0  0  0  0
  6 52  1  0  0  0  0
  7 28  1  0  0  0  0
  7 29  1  0  0  0  0
  8  9  1  0  0  0  0
  8 14  1  0  0  0  0
  8 17  1  0  0  0  0
  9 10  1  0  0  0  0
  9 30  1  0  0  0  0
 10 11  1  0  0  0  0
 10 31  1  0  0  0  0
 10 32  1  0  0  0  0
 11 12  2  0  0  0  0
 11 13  1  0  0  0  0
 12 14  1  0  0  0  0
 12 16  1  0  0  0  0
 13 15  1  0  0  0  0
 13 33  1  0  0  0  0
 13 34  1  0  0  0  0
 15 18  1  0  0  0  0
 15 35  1  0  0  0  0
 16 36  1  0  0  0  0
 16 37  1  0  0  0  0
 17 38  1  0  0  0  0
 17 39  1  0  0  0  0
 17 40  1  0  0  0  0
 18 20  2  3  0  0  0
 18 42  1  0  0  0  0
 19 21  1  0  0  0  0
 20 23  1  0  0  0  0
 20 43  1  0  0  0  0
 21 22  1  0  0  0  0
 21 24  2  0  0  0  0
 22 25  2  0  0  0  0
 22 27  1  0  0  0  0
 23 44  1  0  0  0  0
 23 45  1  0  0  0  0
 23 46  1  0  0  0  0
 24 26  1  0  0  0  0
 25 28  1  0  0  0  0
 25 47  1  0  0  0  0
 26 28  2  0  0  0  0
 26 48  1  0  0  0  0
 27 49  1  0  0  0  0
 27 50  1  0  0  0  0
 27 51  1  0  0  0  0
 29 53  1  0  0  0  0
 29 54  1  0  0  0  0
 29 55  1  0  0  0  0
M  END
> <PUBCHEM_COMPOUND_CID>
139583915

> <PUBCHEM_CONFORMER_RMSD>
0.8

> <PUBCHEM_CONFORMER_DIVERSEORDER>
1
107
81
110
71
59
93
25
64
65
63
94
36
35
101
109
54
95
96
97
104
21
24
55
90
62
116
60
87
46
108
102
86
56
27
66
76
51
72
32
75
44
70
67
85
33
31
50
117
105
91
20
98
16
40
112
77
78
80
79
14
114
61
28
41
39
88
18
57
29
99
49
37
89
43
113
13
106
23
115
58
83
82
26
84
53
30
10
73
5
111
103
22
34
42
92
15
6
74
17
19
12
52
9
38
45
48
47
69
3
4
68
100
8
7
2
11

> <PUBCHEM_MMFF94_PARTIAL_CHARGES>
34
1 -0.56
10 0.14
11 -0.28
12 -0.12
13 0.14
14 0.49
15 0.42
16 0.42
18 -0.29
19 0.63
2 -0.43
20 -0.29
21 0.09
22 -0.14
23 0.14
24 0.08
25 -0.15
26 -0.15
27 0.14
28 0.08
29 0.28
3 -0.68
4 -0.57
41 0.4
42 0.15
43 0.15
47 0.15
48 0.15
5 -0.57
52 0.45
6 -0.53
7 -0.36
8 0.34
9 0.28

> <PUBCHEM_EFFECTIVE_ROTOR_COUNT>
6.4

> <PUBCHEM_PHARMACOPHORE_FEATURES>
11
1 1 acceptor
1 23 hydrophobe
1 3 acceptor
1 3 donor
1 4 acceptor
1 5 acceptor
1 6 donor
1 7 acceptor
6 1 11 12 13 15 16 rings
6 21 22 24 25 26 28 rings
6 8 9 10 11 12 14 rings

> <PUBCHEM_HEAVY_ATOM_COUNT>
29

> <PUBCHEM_ATOM_DEF_STEREO_COUNT>
3

> <PUBCHEM_ATOM_UDEF_STEREO_COUNT>
0

> <PUBCHEM_BOND_DEF_STEREO_COUNT>
0

> <PUBCHEM_BOND_UDEF_STEREO_COUNT>
1

> <PUBCHEM_ISOTOPIC_ATOM_COUNT>
0

> <PUBCHEM_COMPONENT_COUNT>
1

> <PUBCHEM_CACTVS_TAUTO_COUNT>
-1

> <PUBCHEM_CONFORMER_ID>
0851E1AB00000001

> <PUBCHEM_MMFF94_ENERGY>
74.0121

> <PUBCHEM_FEATURE_SELFOVERLAP>
55.841

> <PUBCHEM_SHAPE_FINGERPRINT>
10498660 4 8790888497061540511
10928967 22 18260535719495531770
11135609 127 9726811409503629235
11421498 54 18119541069957745733
117089 54 18335715922135015946
11796584 16 17895460432691036364
12107183 9 18340219483898036433
12633257 1 16988561337847374631
13103583 49 18059020488104054936
13383661 66 18261969448625604330
13533116 47 18192153918084248331
13583140 156 17915730071837538777
14251740 57 18043534021973777427
14251764 30 18336551529886977650
14420673 8 18338521816053383235
14950920 106 17346309414517957987
14955137 171 18411704274520612787
15163728 17 10447925113604507560
16110190 28 18201716233045319798
16120349 189 10591746685121543498
17492 89 18337956800410258955
17780758 139 18200308797694412730
1813 80 18186236221501230324
19319366 153 17764036057105830061
20775530 9 18334847299511547282
21033648 29 15625669297366241361
21365058 27 17833550476997251684
21421861 104 18197503037383709377
22907989 373 13551460442000385863
22950370 63 18409735023968313558
23466295 7 18195246611953361520
23559900 14 18408882971292743501
2838139 119 9727337018884641622
3737641 26 18411974763666955368
4409770 3 17976537204548059933
44802255 64 17179407681960705260
474113 269 18271801368228321799
484985 159 18046907069721905747
5104073 3 18129679611680442643
5486654 36 18340207388547158089
56633871 153 18343863333772765127
6327066 14 9799396811724506538
7097593 13 18129094709574606165
7970288 3 18335424530263110210
86090 222 17313945367654575371

> <PUBCHEM_SHAPE_MULTIPOLES>
555.72
12.88
4.84
1.79
2.08
0.16
-0.21
-20.18
4.17
3.2
0.56
-0.62
0.27
1.36

> <PUBCHEM_SHAPE_SELFOVERLAP>
1186.322

> <PUBCHEM_SHAPE_VOLUME>
307.6

> <PUBCHEM_COORDINATE_TYPE>
2
5
10

$$$$
