139589739
  -OEChem-03292013293D

 38 39  0     1  0  0  0  0  0999 V2000
   -3.9118   -0.7214    0.6519 O   0  0  0  0  0  0  0  0  0  0  0  0
   -1.0575   -1.3789    1.0038 O   0  0  0  0  0  0  0  0  0  0  0  0
    3.1884    0.4221   -1.2034 O   0  0  0  0  0  0  0  0  0  0  0  0
    1.3301   -1.4333    2.0019 O   0  0  0  0  0  0  0  0  0  0  0  0
    1.7776    2.1857   -1.0920 O   0  0  0  0  0  0  0  0  0  0  0  0
   -1.7010    3.0013   -0.6250 N   0  0  0  0  0  0  0  0  0  0  0  0
   -2.8986   -0.4782   -0.3076 C   0  0  1  0  0  0  0  0  0  0  0  0
   -0.9854    0.9180    0.3894 C   0  0  0  0  0  0  0  0  0  0  0  0
   -3.0265    0.9432   -0.8627 C   0  0  0  0  0  0  0  0  0  0  0  0
    0.2913    1.2470    1.0658 C   0  0  2  0  0  0  0  0  0  0  0  0
   -1.8232    1.6792   -0.3280 C   0  0  0  0  0  0  0  0  0  0  0  0
   -1.5763   -0.4353    0.4239 C   0  0  0  0  0  0  0  0  0  0  0  0
    1.4400    0.4602    0.5050 C   0  0  0  0  0  0  0  0  0  0  0  0
    0.1849    1.0177    2.5761 C   0  0  0  0  0  0  0  0  0  0  0  0
   -2.8745   -1.5460   -1.3478 C   0  0  0  0  0  0  0  0  0  0  0  0
    1.8702   -0.7310    0.9497 C   0  0  0  0  0  0  0  0  0  0  0  0
    2.1335    1.0974   -0.6499 C   0  0  0  0  0  0  0  0  0  0  0  0
    2.9831   -1.4037    0.3376 C   0  0  0  0  0  0  0  0  0  0  0  0
   -3.7159   -2.5852   -1.3731 C   0  0  0  0  0  0  0  0  0  0  0  0
    3.6040   -0.8305   -0.6989 C   0  0  0  0  0  0  0  0  0  0  0  0
    4.7675   -1.4283   -1.4166 C   0  0  0  0  0  0  0  0  0  0  0  0
   -3.9519    1.4304   -0.5332 H   0  0  0  0  0  0  0  0  0  0  0  0
   -3.0041    0.9622   -1.9594 H   0  0  0  0  0  0  0  0  0  0  0  0
    0.5081    2.3173    0.9585 H   0  0  0  0  0  0  0  0  0  0  0  0
   -0.2757    0.0716    2.8727 H   0  0  0  0  0  0  0  0  0  0  0  0
   -0.4553    1.7970    3.0111 H   0  0  0  0  0  0  0  0  0  0  0  0
    1.1575    1.1097    3.0741 H   0  0  0  0  0  0  0  0  0  0  0  0
   -2.1239   -1.4737   -2.1317 H   0  0  0  0  0  0  0  0  0  0  0  0
   -0.9042    3.5280   -0.2913 H   0  0  0  0  0  0  0  0  0  0  0  0
   -2.4084    3.4574   -1.1874 H   0  0  0  0  0  0  0  0  0  0  0  0
   -3.9384    0.0279    1.2714 H   0  0  0  0  0  0  0  0  0  0  0  0
    3.3122   -2.3658    0.7153 H   0  0  0  0  0  0  0  0  0  0  0  0
   -3.6365   -3.3251   -2.1631 H   0  0  0  0  0  0  0  0  0  0  0  0
   -4.4920   -2.7351   -0.6321 H   0  0  0  0  0  0  0  0  0  0  0  0
    1.8127   -2.2669    2.1302 H   0  0  0  0  0  0  0  0  0  0  0  0
    4.5228   -1.5800   -2.4727 H   0  0  0  0  0  0  0  0  0  0  0  0
    5.6331   -0.7612   -1.3548 H   0  0  0  0  0  0  0  0  0  0  0  0
    5.0570   -2.3964   -0.9951 H   0  0  0  0  0  0  0  0  0  0  0  0
  1  7  1  0  0  0  0
  1 31  1  0  0  0  0
  2 12  2  0  0  0  0
  3 17  1  0  0  0  0
  3 20  1  0  0  0  0
  4 16  1  0  0  0  0
  4 35  1  0  0  0  0
  5 17  2  0  0  0  0
  6 11  1  0  0  0  0
  6 29  1  0  0  0  0
  6 30  1  0  0  0  0
  7  9  1  0  0  0  0
  7 12  1  0  0  0  0
  7 15  1  0  0  0  0
  8 10  1  0  0  0  0
  8 11  2  0  0  0  0
  8 12  1  0  0  0  0
  9 11  1  0  0  0  0
  9 22  1  0  0  0  0
  9 23  1  0  0  0  0
 10 13  1  0  0  0  0
 10 14  1  0  0  0  0
 10 24  1  0  0  0  0
 13 16  2  0  0  0  0
 13 17  1  0  0  0  0
 14 25  1  0  0  0  0
 14 26  1  0  0  0  0
 14 27  1  0  0  0  0
 15 19  2  0  0  0  0
 15 28  1  0  0  0  0
 16 18  1  0  0  0  0
 18 20  2  0  0  0  0
 18 32  1  0  0  0  0
 19 33  1  0  0  0  0
 19 34  1  0  0  0  0
 20 21  1  0  0  0  0
 21 36  1  0  0  0  0
 21 37  1  0  0  0  0
 21 38  1  0  0  0  0
M  END
> <PUBCHEM_COMPOUND_CID>
139589739

> <PUBCHEM_CONFORMER_RMSD>
0.6

> <PUBCHEM_CONFORMER_DIVERSEORDER>
1
15
28
7
29
22
24
20
3
19
25
8
5
4
27
23
2
9
14
21
26
18
16
17
11
13
10
12
6

> <PUBCHEM_MMFF94_PARTIAL_CHARGES>
28
1 -0.68
10 0.28
11 -0.04
12 0.49
13 -0.12
15 -0.29
16 0.08
17 0.71
18 -0.15
19 -0.3
2 -0.57
20 -0.06
21 0.14
28 0.15
29 0.4
3 -0.23
30 0.4
31 0.4
32 0.15
33 0.15
34 0.15
35 0.45
4 -0.53
5 -0.57
6 -0.9
7 0.48
8 -0.12
9 0.14

> <PUBCHEM_EFFECTIVE_ROTOR_COUNT>
3.4

> <PUBCHEM_PHARMACOPHORE_FEATURES>
11
1 1 acceptor
1 1 donor
1 14 hydrophobe
1 19 hydrophobe
1 2 acceptor
1 4 donor
1 5 acceptor
1 6 cation
1 6 donor
5 7 8 9 11 12 rings
6 3 13 16 17 18 20 rings

> <PUBCHEM_HEAVY_ATOM_COUNT>
21

> <PUBCHEM_ATOM_DEF_STEREO_COUNT>
2

> <PUBCHEM_ATOM_UDEF_STEREO_COUNT>
0

> <PUBCHEM_BOND_DEF_STEREO_COUNT>
0

> <PUBCHEM_BOND_UDEF_STEREO_COUNT>
0

> <PUBCHEM_ISOTOPIC_ATOM_COUNT>
0

> <PUBCHEM_COMPONENT_COUNT>
1

> <PUBCHEM_CACTVS_TAUTO_COUNT>
-1

> <PUBCHEM_CONFORMER_ID>
0851F86B00000001

> <PUBCHEM_MMFF94_ENERGY>
46.9331

> <PUBCHEM_FEATURE_SELFOVERLAP>
55.822

> <PUBCHEM_SHAPE_FINGERPRINT>
10165383 225 13770200454293658480
10498660 4 14418124128158993031
11221954 11 11819537196090407391
11578080 2 18130495401257452121
12202030 40 17346023567480135447
12363563 72 16773791485236198684
12400797 292 18262518207731843332
12553582 1 18409158939931509243
12633257 1 13542458752951575414
12714826 92 18271806783284392785
13764800 53 11674883243000517573
14115302 16 18201719505430584545
14863182 85 16474002252985869063
15664445 248 17904464544360625237
16752209 62 18268977701480568133
16945 1 17967813859749820736
17349148 13 17676477338075826664
18186145 218 16732979855659999925
18981168 100 12180960875865469117
19862831 5 18259989253725890006
20361792 2 16702018673289555240
21634736 98 18334297573925460596
21731516 1 18341603871694296453
22112679 90 17534601747363435088
23379529 103 18200604703835851678
23402539 116 17896329022020006814
23419403 2 15760226787718880432
23557571 272 18198318810565683649
23559900 14 17916012461900239874
23598291 2 17753325366193416689
25 1 16660935365836350152
27216 239 11603119291397131030
2748010 2 16817705176965655929
298252 57 17683243564528737233
3082319 5 18041278768568022740
3286 77 17417807409098415719
392239 28 10731307760280020302
5262128 65 18335989739310540692
568465 68 15482676779487310230
5845 1 14261355708804871456
7832392 63 17969780774393759828
90316 7 12031788054503503467
90525 40 18192151503605460213
9709674 26 18336269045508023598

> <PUBCHEM_SHAPE_MULTIPOLES>
397.84
7.11
2.52
1.75
2.21
0.03
-0.74
4.97
3.18
-1.49
0.81
0.61
-0.26
-0.1

> <PUBCHEM_SHAPE_SELFOVERLAP>
855.3

> <PUBCHEM_SHAPE_VOLUME>
219.5

> <PUBCHEM_COORDINATE_TYPE>
2
5
10

$$$$
