139584642
  -OEChem-03292013293D

 47 50  0     1  0  0  0  0  0999 V2000
   -1.6687   -1.4804    0.8387 O   0  0  0  0  0  0  0  0  0  0  0  0
   -1.7651    1.4318   -0.4125 O   0  0  0  0  0  0  0  0  0  0  0  0
   -2.6300    0.1690   -2.1844 O   0  0  0  0  0  0  0  0  0  0  0  0
   -1.1747   -1.9291   -1.4433 O   0  0  0  0  0  0  0  0  0  0  0  0
    0.0995    3.5356   -0.1814 O   0  0  0  0  0  0  0  0  0  0  0  0
    2.7450    2.9159    0.0735 O   0  0  0  0  0  0  0  0  0  0  0  0
    0.9059   -2.8152    0.0455 O   0  0  0  0  0  0  0  0  0  0  0  0
    4.5131    1.1111    0.2512 O   0  0  0  0  0  0  0  0  0  0  0  0
   -3.5399   -0.2133    0.0992 C   0  0  0  0  0  0  0  0  0  0  0  0
   -2.3320    0.1526   -0.7961 C   0  0  2  0  0  0  0  0  0  0  0  0
   -1.2955   -0.9386   -0.4388 C   0  0  1  0  0  0  0  0  0  0  0  0
   -2.7973   -0.7389    1.3443 C   0  0  1  0  0  0  0  0  0  0  0  0
   -0.0511   -0.1284   -0.2947 C   0  0  0  0  0  0  0  0  0  0  0  0
   -4.4270   -1.2999   -0.5461 C   0  0  0  0  0  0  0  0  0  0  0  0
   -4.4275    0.9914    0.4387 C   0  0  0  0  0  0  0  0  0  0  0  0
   -0.4157    1.2143   -0.3054 C   0  0  0  0  0  0  0  0  0  0  0  0
   -3.5847   -1.6243    2.2962 C   0  0  0  0  0  0  0  0  0  0  0  0
    1.2861   -0.4855   -0.1164 C   0  0  0  0  0  0  0  0  0  0  0  0
    0.5014    2.2381   -0.1733 C   0  0  0  0  0  0  0  0  0  0  0  0
    2.2347    0.5429   -0.0089 C   0  0  0  0  0  0  0  0  0  0  0  0
    1.8435    1.8957   -0.0379 C   0  0  0  0  0  0  0  0  0  0  0  0
    1.7176   -1.8986   -0.0002 C   0  0  0  0  0  0  0  0  0  0  0  0
    3.6681    0.2307    0.1419 C   0  0  0  0  0  0  0  0  0  0  0  0
    3.1764   -2.1846    0.0820 C   0  0  0  0  0  0  0  0  0  0  0  0
    4.0655   -1.1887    0.1477 C   0  0  0  0  0  0  0  0  0  0  0  0
    3.5874   -3.6259    0.1035 C   0  0  0  0  0  0  0  0  0  0  0  0
   -0.2349    4.1222    1.0771 C   0  0  0  0  0  0  0  0  0  0  0  0
   -2.3886    0.1002    1.9232 H   0  0  0  0  0  0  0  0  0  0  0  0
   -3.8737   -2.2228   -0.7440 H   0  0  0  0  0  0  0  0  0  0  0  0
   -5.2642    0.6975    1.0820 H   0  0  0  0  0  0  0  0  0  0  0  0
   -3.8724    1.7722    0.9697 H   0  0  0  0  0  0  0  0  0  0  0  0
   -4.8454    1.4386   -0.4697 H   0  0  0  0  0  0  0  0  0  0  0  0
   -5.2702   -1.5596    0.1041 H   0  0  0  0  0  0  0  0  0  0  0  0
   -4.8560   -0.9561   -1.4935 H   0  0  0  0  0  0  0  0  0  0  0  0
   -3.8672   -2.5723    1.8272 H   0  0  0  0  0  0  0  0  0  0  0  0
   -4.4839   -1.1213    2.6626 H   0  0  0  0  0  0  0  0  0  0  0  0
   -2.9627   -1.8894    3.1586 H   0  0  0  0  0  0  0  0  0  0  0  0
   -3.4724    0.6391   -2.3006 H   0  0  0  0  0  0  0  0  0  0  0  0
   -2.0253   -2.0030   -1.9059 H   0  0  0  0  0  0  0  0  0  0  0  0
    5.1296   -1.3915    0.2189 H   0  0  0  0  0  0  0  0  0  0  0  0
    3.6538    2.5856    0.0242 H   0  0  0  0  0  0  0  0  0  0  0  0
    3.1569   -4.1343    0.9724 H   0  0  0  0  0  0  0  0  0  0  0  0
    4.6751   -3.7421    0.1568 H   0  0  0  0  0  0  0  0  0  0  0  0
    3.2445   -4.1343   -0.8037 H   0  0  0  0  0  0  0  0  0  0  0  0
   -0.5280    5.1611    0.9030 H   0  0  0  0  0  0  0  0  0  0  0  0
    0.6287    4.1092    1.7493 H   0  0  0  0  0  0  0  0  0  0  0  0
   -1.0762    3.5926    1.5353 H   0  0  0  0  0  0  0  0  0  0  0  0
  1 11  1  0  0  0  0
  1 12  1  0  0  0  0
  2 10  1  0  0  0  0
  2 16  1  0  0  0  0
  3 10  1  0  0  0  0
  3 38  1  0  0  0  0
  4 11  1  0  0  0  0
  4 39  1  0  0  0  0
  5 19  1  0  0  0  0
  5 27  1  0  0  0  0
  6 21  1  0  0  0  0
  6 41  1  0  0  0  0
  7 22  2  0  0  0  0
  8 23  2  0  0  0  0
  9 10  1  0  0  0  0
  9 12  1  0  0  0  0
  9 14  1  0  0  0  0
  9 15  1  0  0  0  0
 10 11  1  0  0  0  0
 11 13  1  0  0  0  0
 12 17  1  0  0  0  0
 12 28  1  0  0  0  0
 13 16  2  0  0  0  0
 13 18  1  0  0  0  0
 14 29  1  0  0  0  0
 14 33  1  0  0  0  0
 14 34  1  0  0  0  0
 15 30  1  0  0  0  0
 15 31  1  0  0  0  0
 15 32  1  0  0  0  0
 16 19  1  0  0  0  0
 17 35  1  0  0  0  0
 17 36  1  0  0  0  0
 17 37  1  0  0  0  0
 18 20  2  0  0  0  0
 18 22  1  0  0  0  0
 19 21  2  0  0  0  0
 20 21  1  0  0  0  0
 20 23  1  0  0  0  0
 22 24  1  0  0  0  0
 23 25  1  0  0  0  0
 24 25  2  0  0  0  0
 24 26  1  0  0  0  0
 25 40  1  0  0  0  0
 26 42  1  0  0  0  0
 26 43  1  0  0  0  0
 26 44  1  0  0  0  0
 27 45  1  0  0  0  0
 27 46  1  0  0  0  0
 27 47  1  0  0  0  0
M  END
> <PUBCHEM_COMPOUND_CID>
139584642

> <PUBCHEM_CONFORMER_RMSD>
0.6

> <PUBCHEM_CONFORMER_DIVERSEORDER>
1
2

> <PUBCHEM_MMFF94_PARTIAL_CHARGES>
27
1 -0.56
10 0.56
11 0.7
12 0.28
13 -0.14
16 0.08
18 0.09
19 0.08
2 -0.36
20 0.09
21 0.08
22 0.47
23 0.47
24 -0.12
25 -0.14
26 0.14
27 0.28
3 -0.68
38 0.4
39 0.4
4 -0.68
40 0.15
41 0.45
5 -0.36
6 -0.53
7 -0.57
8 -0.57

> <PUBCHEM_EFFECTIVE_ROTOR_COUNT>
1.8

> <PUBCHEM_PHARMACOPHORE_FEATURES>
15
1 1 acceptor
1 2 acceptor
1 3 acceptor
1 3 donor
1 4 acceptor
1 4 donor
1 5 acceptor
1 6 donor
1 7 acceptor
1 8 acceptor
3 9 14 15 hydrophobe
5 1 9 10 11 12 rings
5 2 10 11 13 16 rings
6 13 16 18 19 20 21 rings
6 18 20 22 23 24 25 rings

> <PUBCHEM_HEAVY_ATOM_COUNT>
27

> <PUBCHEM_ATOM_DEF_STEREO_COUNT>
3

> <PUBCHEM_ATOM_UDEF_STEREO_COUNT>
0

> <PUBCHEM_BOND_DEF_STEREO_COUNT>
0

> <PUBCHEM_BOND_UDEF_STEREO_COUNT>
0

> <PUBCHEM_ISOTOPIC_ATOM_COUNT>
0

> <PUBCHEM_COMPONENT_COUNT>
1

> <PUBCHEM_CACTVS_TAUTO_COUNT>
-1

> <PUBCHEM_CONFORMER_ID>
0851E48200000001

> <PUBCHEM_MMFF94_ENERGY>
101.3448

> <PUBCHEM_FEATURE_SELFOVERLAP>
76.997

> <PUBCHEM_SHAPE_FINGERPRINT>
10165383 225 17398132911113739701
10366900 7 18113616837045302315
10411042 1 18266737987288713686
104564 63 18198347243275576076
10967382 1 18410851105532490188
1100329 8 18123466339991279672
11578080 2 17096913678033061046
11582403 64 16169114142613903949
11640471 11 17417268609788220235
12236239 1 17632296808803163823
12422481 6 17625562102678194721
12553582 1 18412819184180677366
12633257 1 18187086165442894811
12788726 201 17975692788196475201
13140716 1 18267859678659797648
13224815 77 18409443687467486662
13544653 18 18334017159563221678
13583140 156 18264495155814797595
138480 1 18410853265779993532
13911987 19 18191031290789621756
13965767 371 17486245264744558145
14178342 30 17840288245016457872
14223421 5 18260832604676769095
14787075 74 18114466746701639706
14790565 3 18120947350072816940
14866123 147 17256527418309937178
14955137 171 18194984026268952040
15042514 8 17546165204047480738
15196674 1 18410571756084614598
16945 1 18339352058663497564
19591789 44 17615698761690545252
19930381 70 18410006632915132379
200 152 18272363218173580167
21041028 32 18267587901043903968
21267235 1 18339084791887332686
21279426 13 18116989984575335045
221490 88 18335707075145152106
23184049 59 18343024384545373551
2334 1 18122055674919983252
23558518 356 18047756996953666768
23559900 14 17968099673002579390
2748010 2 18263634216513749580
335352 9 18050002186358925349
34934 24 18412820309224770950
350125 39 18268148657113016904
352729 6 17694498144513373324
3886686 26 16902675401443820504
5104073 3 18408885105237089963
6438718 38 17626377918340485421
70251023 43 18126828418320010711
81228 2 17976525127358096320
9709674 26 18333732399010441011

> <PUBCHEM_SHAPE_MULTIPOLES>
508.69
7.74
4.01
1.21
0.28
2.48
-0.14
-3.59
-1.09
-2.65
-0.81
1.54
-0.36
0.34

> <PUBCHEM_SHAPE_SELFOVERLAP>
1139.361

> <PUBCHEM_SHAPE_VOLUME>
268

> <PUBCHEM_COORDINATE_TYPE>
2
5
10

$$$$
