139586871
  -OEChem-03292013293D

 78 79  0     1  0  0  0  0  0999 V2000
   -0.5197    1.2810   -0.1845 O   0  0  0  0  0  0  0  0  0  0  0  0
   -3.4016   -1.0532   -2.2886 O   0  0  0  0  0  0  0  0  0  0  0  0
   -4.9965    2.0490    1.3084 O   0  0  0  0  0  0  0  0  0  0  0  0
    1.0550   -4.7901    0.9115 O   0  0  0  0  0  0  0  0  0  0  0  0
    1.6308    1.7139    0.5293 O   0  0  0  0  0  0  0  0  0  0  0  0
    3.9528   -2.4590   -1.0179 O   0  0  0  0  0  0  0  0  0  0  0  0
    5.0978    1.0968    1.3045 O   0  0  0  0  0  0  0  0  0  0  0  0
    4.8364    0.4477   -0.8936 O   0  0  0  0  0  0  0  0  0  0  0  0
   -1.9560   -0.2635    1.0562 C   0  0  1  0  0  0  0  0  0  0  0  0
   -1.5395   -1.4063    0.0767 C   0  0  2  0  0  0  0  0  0  0  0  0
   -2.7397   -2.3014   -0.3224 C   0  0  2  0  0  0  0  0  0  0  0  0
   -0.8719    0.8459    1.1270 C   0  0  2  0  0  0  0  0  0  0  0  0
   -3.3301    0.3305    0.7480 C   0  0  0  0  0  0  0  0  0  0  0  0
   -3.7220    1.5008    1.6336 C   0  0  1  0  0  0  0  0  0  0  0  0
   -2.6718    2.6226    1.6075 C   0  0  1  0  0  0  0  0  0  0  0  0
   -1.2921    2.0527    1.9756 C   0  0  0  0  0  0  0  0  0  0  0  0
   -3.8270   -1.4284   -0.9786 C   0  0  1  0  0  0  0  0  0  0  0  0
   -0.3728   -2.2310    0.6344 C   0  0  0  0  0  0  0  0  0  0  0  0
   -4.1345   -0.1839   -0.2002 C   0  0  0  0  0  0  0  0  0  0  0  0
   -3.3141   -3.1119    0.8472 C   0  0  0  0  0  0  0  0  0  0  0  0
    0.3688   -2.9572   -0.4873 C   0  0  0  0  0  0  0  0  0  0  0  0
   -2.6600    3.4004    0.2852 C   0  0  0  0  0  0  0  0  0  0  0  0
    1.5557   -3.7684    0.0456 C   0  0  1  0  0  0  0  0  0  0  0  0
    0.7749    1.6923   -0.3458 C   0  0  0  0  0  0  0  0  0  0  0  0
    2.5549   -2.9231    0.8467 C   0  0  0  0  0  0  0  0  0  0  0  0
   -4.5078   -0.7420   -3.1215 C   0  0  0  0  0  0  0  0  0  0  0  0
    0.9936    2.1525   -1.7771 C   0  0  1  0  0  0  0  0  0  0  0  0
    3.2912   -1.8188    0.0786 C   0  0  1  0  0  0  0  0  0  0  0  0
    2.0355    3.2779   -1.8529 C   0  0  0  0  0  0  0  0  0  0  0  0
    1.4313    0.9492   -2.6073 C   0  0  0  0  0  0  0  0  0  0  0  0
    4.3353   -1.0889    0.9291 C   0  0  0  0  0  0  0  0  0  0  0  0
    1.6307    4.5047   -1.0456 C   0  0  0  0  0  0  0  0  0  0  0  0
    4.7794    0.2192    0.3066 C   0  0  0  0  0  0  0  0  0  0  0  0
    5.5332    2.3899    0.8719 C   0  0  0  0  0  0  0  0  0  0  0  0
   -2.0386   -0.6956    2.0646 H   0  0  0  0  0  0  0  0  0  0  0  0
   -1.1906   -0.9333   -0.8518 H   0  0  0  0  0  0  0  0  0  0  0  0
   -2.4049   -3.0199   -1.0810 H   0  0  0  0  0  0  0  0  0  0  0  0
    0.0078    0.4144    1.6183 H   0  0  0  0  0  0  0  0  0  0  0  0
   -3.8055    1.1157    2.6585 H   0  0  0  0  0  0  0  0  0  0  0  0
   -2.9409    3.3558    2.3807 H   0  0  0  0  0  0  0  0  0  0  0  0
   -0.5427    2.8503    1.9063 H   0  0  0  0  0  0  0  0  0  0  0  0
   -1.3219    1.7395    3.0277 H   0  0  0  0  0  0  0  0  0  0  0  0
   -4.7399   -2.0343   -1.0558 H   0  0  0  0  0  0  0  0  0  0  0  0
   -0.6980   -2.9236    1.4152 H   0  0  0  0  0  0  0  0  0  0  0  0
    0.3316   -1.5525    1.1170 H   0  0  0  0  0  0  0  0  0  0  0  0
   -5.1037    0.2689   -0.3901 H   0  0  0  0  0  0  0  0  0  0  0  0
   -3.5994   -2.4830    1.6954 H   0  0  0  0  0  0  0  0  0  0  0  0
   -2.6030   -3.8628    1.2029 H   0  0  0  0  0  0  0  0  0  0  0  0
   -4.2081   -3.6601    0.5289 H   0  0  0  0  0  0  0  0  0  0  0  0
   -0.3152   -3.6472   -0.9933 H   0  0  0  0  0  0  0  0  0  0  0  0
    0.7180   -2.2401   -1.2388 H   0  0  0  0  0  0  0  0  0  0  0  0
   -2.5453    2.7480   -0.5849 H   0  0  0  0  0  0  0  0  0  0  0  0
   -1.8442    4.1310    0.2727 H   0  0  0  0  0  0  0  0  0  0  0  0
   -3.5958    3.9548    0.1556 H   0  0  0  0  0  0  0  0  0  0  0  0
    2.0649   -4.2679   -0.7859 H   0  0  0  0  0  0  0  0  0  0  0  0
   -5.1905    2.7480    1.9560 H   0  0  0  0  0  0  0  0  0  0  0  0
    3.3106   -3.6248    1.2309 H   0  0  0  0  0  0  0  0  0  0  0  0
    2.0912   -2.5172    1.7531 H   0  0  0  0  0  0  0  0  0  0  0  0
   -4.1228   -0.5013   -4.1167 H   0  0  0  0  0  0  0  0  0  0  0  0
   -5.1789   -1.6014   -3.2176 H   0  0  0  0  0  0  0  0  0  0  0  0
   -5.0566    0.1299   -2.7546 H   0  0  0  0  0  0  0  0  0  0  0  0
    0.0426    2.5384   -2.1659 H   0  0  0  0  0  0  0  0  0  0  0  0
    2.5684   -1.1063   -0.3319 H   0  0  0  0  0  0  0  0  0  0  0  0
    0.4457   -5.3421    0.3922 H   0  0  0  0  0  0  0  0  0  0  0  0
    3.0091    2.9233   -1.4941 H   0  0  0  0  0  0  0  0  0  0  0  0
    2.1717    3.5749   -2.8998 H   0  0  0  0  0  0  0  0  0  0  0  0
    2.3805    0.5390   -2.2480 H   0  0  0  0  0  0  0  0  0  0  0  0
    0.6868    0.1472   -2.5564 H   0  0  0  0  0  0  0  0  0  0  0  0
    1.5567    1.2267   -3.6589 H   0  0  0  0  0  0  0  0  0  0  0  0
    5.2292   -1.7048    1.0760 H   0  0  0  0  0  0  0  0  0  0  0  0
    3.8946   -0.8625    1.9074 H   0  0  0  0  0  0  0  0  0  0  0  0
    4.3823   -1.7648   -1.5461 H   0  0  0  0  0  0  0  0  0  0  0  0
    1.5861    4.2957    0.0270 H   0  0  0  0  0  0  0  0  0  0  0  0
    0.6520    4.8774   -1.3647 H   0  0  0  0  0  0  0  0  0  0  0  0
    2.3612    5.3064   -1.1945 H   0  0  0  0  0  0  0  0  0  0  0  0
    5.8204    2.9648    1.7563 H   0  0  0  0  0  0  0  0  0  0  0  0
    4.7158    2.9108    0.3652 H   0  0  0  0  0  0  0  0  0  0  0  0
    6.4032    2.3010    0.2143 H   0  0  0  0  0  0  0  0  0  0  0  0
  1 12  1  0  0  0  0
  1 24  1  0  0  0  0
  2 17  1  0  0  0  0
  2 26  1  0  0  0  0
  3 14  1  0  0  0  0
  3 56  1  0  0  0  0
  4 23  1  0  0  0  0
  4 64  1  0  0  0  0
  5 24  2  0  0  0  0
  6 28  1  0  0  0  0
  6 72  1  0  0  0  0
  7 33  1  0  0  0  0
  7 34  1  0  0  0  0
  8 33  2  0  0  0  0
  9 10  1  0  0  0  0
  9 12  1  0  0  0  0
  9 13  1  0  0  0  0
  9 35  1  0  0  0  0
 10 11  1  0  0  0  0
 10 18  1  0  0  0  0
 10 36  1  0  0  0  0
 11 17  1  0  0  0  0
 11 20  1  0  0  0  0
 11 37  1  0  0  0  0
 12 16  1  0  0  0  0
 12 38  1  0  0  0  0
 13 14  1  0  0  0  0
 13 19  2  0  0  0  0
 14 15  1  0  0  0  0
 14 39  1  0  0  0  0
 15 16  1  0  0  0  0
 15 22  1  0  0  0  0
 15 40  1  0  0  0  0
 16 41  1  0  0  0  0
 16 42  1  0  0  0  0
 17 19  1  0  0  0  0
 17 43  1  0  0  0  0
 18 21  1  0  0  0  0
 18 44  1  0  0  0  0
 18 45  1  0  0  0  0
 19 46  1  0  0  0  0
 20 47  1  0  0  0  0
 20 48  1  0  0  0  0
 20 49  1  0  0  0  0
 21 23  1  0  0  0  0
 21 50  1  0  0  0  0
 21 51  1  0  0  0  0
 22 52  1  0  0  0  0
 22 53  1  0  0  0  0
 22 54  1  0  0  0  0
 23 25  1  0  0  0  0
 23 55  1  0  0  0  0
 24 27  1  0  0  0  0
 25 28  1  0  0  0  0
 25 57  1  0  0  0  0
 25 58  1  0  0  0  0
 26 59  1  0  0  0  0
 26 60  1  0  0  0  0
 26 61  1  0  0  0  0
 27 29  1  0  0  0  0
 27 30  1  0  0  0  0
 27 62  1  0  0  0  0
 28 31  1  0  0  0  0
 28 63  1  0  0  0  0
 29 32  1  0  0  0  0
 29 65  1  0  0  0  0
 29 66  1  0  0  0  0
 30 67  1  0  0  0  0
 30 68  1  0  0  0  0
 30 69  1  0  0  0  0
 31 33  1  0  0  0  0
 31 70  1  0  0  0  0
 31 71  1  0  0  0  0
 32 73  1  0  0  0  0
 32 74  1  0  0  0  0
 32 75  1  0  0  0  0
 34 76  1  0  0  0  0
 34 77  1  0  0  0  0
 34 78  1  0  0  0  0
M  END
> <PUBCHEM_COMPOUND_CID>
139586871

> <PUBCHEM_CONFORMER_RMSD>
1.2

> <PUBCHEM_CONFORMER_DIVERSEORDER>
1
24
10
44
60
18
27
47
53
41
59
28
61
55
57
51
42
49
15
48
52
37
8
14
17
56
33
25
43
19
30
12
31
39
54
34
20
58
9
21
32
35
4
38
36
11
22
26
40
16
45
29
13
46
3
5
6
23
2
50
7

> <PUBCHEM_MMFF94_PARTIAL_CHARGES>
26
1 -0.43
12 0.28
13 -0.28
14 0.42
17 0.42
19 -0.29
2 -0.56
23 0.28
24 0.66
26 0.28
27 0.06
28 0.28
3 -0.68
31 0.06
33 0.66
34 0.28
4 -0.68
46 0.15
5 -0.57
56 0.4
6 -0.68
64 0.4
7 -0.43
72 0.4
8 -0.57
9 0.14

> <PUBCHEM_EFFECTIVE_ROTOR_COUNT>
14.4

> <PUBCHEM_PHARMACOPHORE_FEATURES>
13
1 2 acceptor
1 3 acceptor
1 3 donor
1 30 hydrophobe
1 32 hydrophobe
1 4 acceptor
1 4 donor
1 5 acceptor
1 6 acceptor
1 6 donor
1 8 acceptor
6 9 10 11 13 17 19 rings
6 9 12 13 14 15 16 rings

> <PUBCHEM_HEAVY_ATOM_COUNT>
34

> <PUBCHEM_ATOM_DEF_STEREO_COUNT>
9

> <PUBCHEM_ATOM_UDEF_STEREO_COUNT>
1

> <PUBCHEM_BOND_DEF_STEREO_COUNT>
0

> <PUBCHEM_BOND_UDEF_STEREO_COUNT>
0

> <PUBCHEM_ISOTOPIC_ATOM_COUNT>
0

> <PUBCHEM_COMPONENT_COUNT>
1

> <PUBCHEM_CACTVS_TAUTO_COUNT>
-1

> <PUBCHEM_CONFORMER_ID>
0851ED3700000001

> <PUBCHEM_MMFF94_ENERGY>
67.1224

> <PUBCHEM_FEATURE_SELFOVERLAP>
65.993

> <PUBCHEM_SHAPE_FINGERPRINT>
10369192 42 13409353151367623604
10708813 3 18410863127051032144
11115154 58 17844215555450303887
11135609 187 18337656603323055593
11513181 2 17846781771886246014
12355185 1 17270883080593998728
13111901 51 18335979860749214037
13140716 1 18339937025057017939
14068700 675 18128513016109150348
144659 178 18267586990917824912
14790565 3 17767975234001356633
14840074 17 17822302318452005172
20511986 3 18272923895604018045
20764821 26 17691972978389117370
21795232 40 17902203926868194916
23559900 14 18197487635277850920
25265897 201 17343244929661164063
42626532 9 12350421538335594256

> <PUBCHEM_SHAPE_MULTIPOLES>
652.75
9.94
5.65
2.16
5.86
1.1
1.44
-1.22
-0.6
2.08
-0.23
-1.57
-1.03
-2.22

> <PUBCHEM_SHAPE_SELFOVERLAP>
1311.473

> <PUBCHEM_SHAPE_VOLUME>
379.7

> <PUBCHEM_COORDINATE_TYPE>
2
5
10

$$$$
