139588010
  -OEChem-03292013293D

 53 57  0     1  0  0  0  0  0999 V2000
   -0.2481   -0.9543    1.3394 O   0  0  0  0  0  0  0  0  0  0  0  0
   -0.5865   -0.7340   -2.2098 O   0  0  0  0  0  0  0  0  0  0  0  0
   -2.4595    2.3762   -0.0381 O   0  0  0  0  0  0  0  0  0  0  0  0
   -2.9041    0.5665    1.8383 O   0  0  0  0  0  0  0  0  0  0  0  0
    0.7994    2.6671   -1.2991 O   0  0  0  0  0  0  0  0  0  0  0  0
    1.5132   -1.0267   -3.0973 O   0  0  0  0  0  0  0  0  0  0  0  0
    3.5036   -0.9901   -1.1785 O   0  0  0  0  0  0  0  0  0  0  0  0
   -1.1107   -0.9406   -0.9062 C   0  0  1  0  0  0  0  0  0  0  0  0
   -0.0653   -0.3564    0.0543 C   0  0  1  0  0  0  0  0  0  0  0  0
   -2.2921   -0.0498   -0.4972 C   0  0  2  0  0  0  0  0  0  0  0  0
   -0.3536    1.1665    0.2015 C   0  0  2  0  0  0  0  0  0  0  0  0
   -1.6539    1.3515   -0.5868 C   0  0  2  0  0  0  0  0  0  0  0  0
   -1.5938   -1.4688    1.5208 C   0  0  1  0  0  0  0  0  0  0  0  0
   -2.6864   -0.5141    0.9441 C   0  0  1  0  0  0  0  0  0  0  0  0
   -1.4022   -2.4475   -0.7306 C   0  0  0  0  0  0  0  0  0  0  0  0
   -1.6636   -2.7861    0.7390 C   0  0  1  0  0  0  0  0  0  0  0  0
    1.1777   -0.6831   -0.7036 C   0  0  0  0  0  0  0  0  0  0  0  0
    0.8100    2.0576   -0.2277 C   0  0  0  0  0  0  0  0  0  0  0  0
    0.7782   -0.8674   -2.1392 C   0  0  0  0  0  0  0  0  0  0  0  0
   -0.6648   -3.8208    1.2585 C   0  0  0  0  0  0  0  0  0  0  0  0
    2.4646   -0.6567   -0.3219 C   0  0  0  0  0  0  0  0  0  0  0  0
    1.9850    2.2322    0.7467 C   0  0  2  0  0  0  0  0  0  0  0  0
    2.9889   -0.1691    1.0171 C   0  0  1  0  0  0  0  0  0  0  0  0
    2.2694    1.0343    1.6777 C   0  0  0  0  0  0  0  0  0  0  0  0
   -3.4090    2.8640   -0.9802 C   0  0  0  0  0  0  0  0  0  0  0  0
    1.6984    3.4860    1.5765 C   0  0  0  0  0  0  0  0  0  0  0  0
    3.1051   -1.3362    2.0024 C   0  0  0  0  0  0  0  0  0  0  0  0
   -3.1439   -0.1307   -1.1799 H   0  0  0  0  0  0  0  0  0  0  0  0
   -0.5514    1.4373    1.2472 H   0  0  0  0  0  0  0  0  0  0  0  0
   -1.4243    1.5948   -1.6331 H   0  0  0  0  0  0  0  0  0  0  0  0
   -1.7394   -1.6352    2.5933 H   0  0  0  0  0  0  0  0  0  0  0  0
   -3.6383   -1.0562    0.8834 H   0  0  0  0  0  0  0  0  0  0  0  0
   -0.5871   -3.0569   -1.1410 H   0  0  0  0  0  0  0  0  0  0  0  0
   -2.2806   -2.7107   -1.3347 H   0  0  0  0  0  0  0  0  0  0  0  0
   -2.6672   -3.2190    0.8375 H   0  0  0  0  0  0  0  0  0  0  0  0
    0.3712   -3.4857    1.1439 H   0  0  0  0  0  0  0  0  0  0  0  0
   -0.7724   -4.7641    0.7124 H   0  0  0  0  0  0  0  0  0  0  0  0
   -0.8393   -4.0263    2.3197 H   0  0  0  0  0  0  0  0  0  0  0  0
    2.8799    2.4182    0.1389 H   0  0  0  0  0  0  0  0  0  0  0  0
   -3.1556    0.1914    2.6993 H   0  0  0  0  0  0  0  0  0  0  0  0
    4.0148    0.1858    0.8346 H   0  0  0  0  0  0  0  0  0  0  0  0
    1.3622    0.7110    2.1954 H   0  0  0  0  0  0  0  0  0  0  0  0
    2.9309    1.3837    2.4841 H   0  0  0  0  0  0  0  0  0  0  0  0
   -4.0096    3.6346   -0.4894 H   0  0  0  0  0  0  0  0  0  0  0  0
   -4.0772    2.0642   -1.3119 H   0  0  0  0  0  0  0  0  0  0  0  0
   -2.9020    3.3163   -1.8381 H   0  0  0  0  0  0  0  0  0  0  0  0
    0.8231    3.3457    2.2204 H   0  0  0  0  0  0  0  0  0  0  0  0
    1.4971    4.3476    0.9303 H   0  0  0  0  0  0  0  0  0  0  0  0
    2.5533    3.7379    2.2127 H   0  0  0  0  0  0  0  0  0  0  0  0
    3.6990   -2.1535    1.5781 H   0  0  0  0  0  0  0  0  0  0  0  0
    3.5984   -1.0145    2.9260 H   0  0  0  0  0  0  0  0  0  0  0  0
    2.1237   -1.7394    2.2710 H   0  0  0  0  0  0  0  0  0  0  0  0
    3.1353   -1.3338   -2.0085 H   0  0  0  0  0  0  0  0  0  0  0  0
  1  9  1  0  0  0  0
  1 13  1  0  0  0  0
  2  8  1  0  0  0  0
  2 19  1  0  0  0  0
  3 12  1  0  0  0  0
  3 25  1  0  0  0  0
  4 14  1  0  0  0  0
  4 40  1  0  0  0  0
  5 18  2  0  0  0  0
  6 19  2  0  0  0  0
  7 21  1  0  0  0  0
  7 53  1  0  0  0  0
  8  9  1  0  0  0  0
  8 10  1  0  0  0  0
  8 15  1  0  0  0  0
  9 11  1  0  0  0  0
  9 17  1  0  0  0  0
 10 12  1  0  0  0  0
 10 14  1  0  0  0  0
 10 28  1  0  0  0  0
 11 12  1  0  0  0  0
 11 18  1  0  0  0  0
 11 29  1  0  0  0  0
 12 30  1  0  0  0  0
 13 14  1  0  0  0  0
 13 16  1  0  0  0  0
 13 31  1  0  0  0  0
 14 32  1  0  0  0  0
 15 16  1  0  0  0  0
 15 33  1  0  0  0  0
 15 34  1  0  0  0  0
 16 20  1  0  0  0  0
 16 35  1  0  0  0  0
 17 19  1  0  0  0  0
 17 21  2  3  0  0  0
 18 22  1  0  0  0  0
 20 36  1  0  0  0  0
 20 37  1  0  0  0  0
 20 38  1  0  0  0  0
 21 23  1  0  0  0  0
 22 24  1  0  0  0  0
 22 26  1  0  0  0  0
 22 39  1  0  0  0  0
 23 24  1  0  0  0  0
 23 27  1  0  0  0  0
 23 41  1  0  0  0  0
 24 42  1  0  0  0  0
 24 43  1  0  0  0  0
 25 44  1  0  0  0  0
 25 45  1  0  0  0  0
 25 46  1  0  0  0  0
 26 47  1  0  0  0  0
 26 48  1  0  0  0  0
 26 49  1  0  0  0  0
 27 50  1  0  0  0  0
 27 51  1  0  0  0  0
 27 52  1  0  0  0  0
M  END
> <PUBCHEM_COMPOUND_CID>
139588010

> <PUBCHEM_CONFORMER_RMSD>
0.6

> <PUBCHEM_CONFORMER_DIVERSEORDER>
1

> <PUBCHEM_MMFF94_PARTIAL_CHARGES>
22
1 -0.56
11 0.06
12 0.28
13 0.28
14 0.28
17 -0.12
18 0.45
19 0.71
2 -0.43
21 -0.06
22 0.06
23 0.14
25 0.28
3 -0.56
4 -0.68
40 0.4
5 -0.57
53 0.45
6 -0.57
7 -0.53
8 0.28
9 0.42

> <PUBCHEM_EFFECTIVE_ROTOR_COUNT>
2.8

> <PUBCHEM_PHARMACOPHORE_FEATURES>
9
1 1 acceptor
1 3 acceptor
1 4 acceptor
1 4 donor
1 5 acceptor
1 6 acceptor
1 7 donor
10 1 8 9 10 11 12 13 14 15 16 rings
5 2 8 9 17 19 rings

> <PUBCHEM_HEAVY_ATOM_COUNT>
27

> <PUBCHEM_ATOM_DEF_STEREO_COUNT>
8

> <PUBCHEM_ATOM_UDEF_STEREO_COUNT>
2

> <PUBCHEM_BOND_DEF_STEREO_COUNT>
0

> <PUBCHEM_BOND_UDEF_STEREO_COUNT>
1

> <PUBCHEM_ISOTOPIC_ATOM_COUNT>
0

> <PUBCHEM_COMPONENT_COUNT>
1

> <PUBCHEM_CACTVS_TAUTO_COUNT>
-1

> <PUBCHEM_CONFORMER_ID>
0851F1AA00000001

> <PUBCHEM_MMFF94_ENERGY>
113.5238

> <PUBCHEM_FEATURE_SELFOVERLAP>
45.923

> <PUBCHEM_SHAPE_FINGERPRINT>
10863032 1 18122610666093257115
10948715 1 18124854795053062761
11578080 2 17314498421427781325
11582403 64 17481660288097269768
12423570 1 17917703621872653847
12633257 1 18412548738194816714
12716301 132 18190195515527646649
128993 33 16483620647323894354
13140716 1 18193275415058827531
14223421 5 18050279559931979520
14817 1 18334017219761303327
15881359 60 18059281123920621939
16945 1 18272639134797731030
18981168 100 16269986564338570034
20511035 2 18341602772003814436
20600515 1 18195275263648401916
20691752 17 17397839981475035865
20905425 154 18194693797822169316
21421861 104 16747646495014985995
23419403 2 17772775787239953159
2748010 2 18126578820642590839
5845 1 17316749182065140819
70251023 43 18055917834101027726

> <PUBCHEM_SHAPE_MULTIPOLES>
514.56
4.49
3.81
2.2
1.24
1.16
-0.95
0.64
1.43
-1.2
0.79
0.61
-0.76
1.01

> <PUBCHEM_SHAPE_SELFOVERLAP>
1142.755

> <PUBCHEM_SHAPE_VOLUME>
276.9

> <PUBCHEM_COORDINATE_TYPE>
2
5
10

$$$$
