139583809
  -OEChem-03292013293D

 68 73  0     1  0  0  0  0  0999 V2000
    3.5166    1.6907   -1.3438 O   0  0  0  0  0  0  0  0  0  0  0  0
    1.1611    2.5429    0.3557 O   0  0  0  0  0  0  0  0  0  0  0  0
    1.1720    0.2492    1.1887 O   0  0  0  0  0  0  0  0  0  0  0  0
    3.6478    0.7665    2.2368 O   0  0  0  0  0  0  0  0  0  0  0  0
   -4.8039    0.7788    0.2489 O   0  0  0  0  0  0  0  0  0  0  0  0
   -3.9404    3.4923   -0.6100 O   0  0  0  0  0  0  0  0  0  0  0  0
   -3.0022   -2.4754    1.3108 O   0  0  0  0  0  0  0  0  0  0  0  0
   -5.5760   -1.1653   -0.6880 O   0  0  0  0  0  0  0  0  0  0  0  0
    3.1292    1.0786   -0.0958 C   0  0  1  0  0  0  0  0  0  0  0  0
    1.6430    1.1952    0.1992 C   0  0  2  0  0  0  0  0  0  0  0  0
    3.6924    0.2689   -1.2678 C   0  0  2  0  0  0  0  0  0  0  0  0
    0.6651    1.8078   -0.7719 C   0  0  1  0  0  0  0  0  0  0  0  0
   -0.7810    1.4214   -0.7174 C   0  0  1  0  0  0  0  0  0  0  0  0
    4.0694    1.4332    1.0440 C   0  0  2  0  0  0  0  0  0  0  0  0
   -1.1256    0.4921    0.4195 C   0  0  0  0  0  0  0  0  0  0  0  0
    5.1397   -0.1535   -1.2690 C   0  0  0  0  0  0  0  0  0  0  0  0
   -2.5834    0.1578    0.6229 C   0  0  1  0  0  0  0  0  0  0  0  0
   -1.6741    2.6697   -0.6890 C   0  0  0  0  0  0  0  0  0  0  0  0
   -3.5143    1.3727    0.5171 C   0  0  1  0  0  0  0  0  0  0  0  0
    2.7876   -0.4951   -2.1854 C   0  0  0  0  0  0  0  0  0  0  0  0
   -3.1590    2.3000   -0.6699 C   0  0  1  0  0  0  0  0  0  0  0  0
   -0.1773    0.0102    1.2384 C   0  0  0  0  0  0  0  0  0  0  0  0
    5.5191    1.0923    0.8641 C   0  0  0  0  0  0  0  0  0  0  0  0
   -3.1820   -0.7994   -0.4091 C   0  0  2  0  0  0  0  0  0  0  0  0
    5.9975    0.3851   -0.1664 C   0  0  0  0  0  0  0  0  0  0  0  0
   -3.6136    2.1223    1.8498 C   0  0  0  0  0  0  0  0  0  0  0  0
   -4.6508   -0.4634   -0.3097 C   0  0  0  0  0  0  0  0  0  0  0  0
   -2.9020   -2.2609   -0.0992 C   0  0  1  0  0  0  0  0  0  0  0  0
   -1.5286   -2.7045   -0.5692 C   0  0  0  0  0  0  0  0  0  0  0  0
   -1.2804   -2.6426   -2.0581 C   0  0  0  0  0  0  0  0  0  0  0  0
   -0.5466   -3.1470    0.2424 C   0  0  0  0  0  0  0  0  0  0  0  0
    0.8349   -3.6149   -0.1232 C   0  0  0  0  0  0  0  0  0  0  0  0
    1.8395   -3.4368    1.0194 C   0  0  0  0  0  0  0  0  0  0  0  0
    3.2261   -3.9688    0.6852 C   0  0  0  0  0  0  0  0  0  0  0  0
    0.9823    2.1412   -1.7502 H   0  0  0  0  0  0  0  0  0  0  0  0
   -0.9891    0.8794   -1.6497 H   0  0  0  0  0  0  0  0  0  0  0  0
    3.9852    2.5116    1.2257 H   0  0  0  0  0  0  0  0  0  0  0  0
    5.5856    0.1428   -2.2265 H   0  0  0  0  0  0  0  0  0  0  0  0
    5.1907   -1.2483   -1.2231 H   0  0  0  0  0  0  0  0  0  0  0  0
   -2.7142   -0.2507    1.6338 H   0  0  0  0  0  0  0  0  0  0  0  0
   -1.4365    3.3045    0.1751 H   0  0  0  0  0  0  0  0  0  0  0  0
   -1.4669    3.2984   -1.5652 H   0  0  0  0  0  0  0  0  0  0  0  0
    1.7537   -0.1464   -2.1774 H   0  0  0  0  0  0  0  0  0  0  0  0
    2.7818   -1.5527   -1.9064 H   0  0  0  0  0  0  0  0  0  0  0  0
    3.1498   -0.4224   -3.2164 H   0  0  0  0  0  0  0  0  0  0  0  0
   -3.4233    1.8139   -1.6170 H   0  0  0  0  0  0  0  0  0  0  0  0
   -0.3916   -0.6465    2.0718 H   0  0  0  0  0  0  0  0  0  0  0  0
    6.2138    1.4431    1.6231 H   0  0  0  0  0  0  0  0  0  0  0  0
   -2.8914   -0.5410   -1.4341 H   0  0  0  0  0  0  0  0  0  0  0  0
    7.0627    0.1778   -0.2152 H   0  0  0  0  0  0  0  0  0  0  0  0
   -4.3828    2.9013    1.8119 H   0  0  0  0  0  0  0  0  0  0  0  0
   -2.6625    2.5824    2.1335 H   0  0  0  0  0  0  0  0  0  0  0  0
   -3.9209    1.4451    2.6555 H   0  0  0  0  0  0  0  0  0  0  0  0
    4.1564    1.1344    2.9799 H   0  0  0  0  0  0  0  0  0  0  0  0
   -3.6529   -2.9036   -0.5748 H   0  0  0  0  0  0  0  0  0  0  0  0
   -3.6987    4.0409   -1.3756 H   0  0  0  0  0  0  0  0  0  0  0  0
   -3.0797   -3.4339    1.4578 H   0  0  0  0  0  0  0  0  0  0  0  0
   -0.9833   -1.6325   -2.3560 H   0  0  0  0  0  0  0  0  0  0  0  0
   -0.5113   -3.3432   -2.3958 H   0  0  0  0  0  0  0  0  0  0  0  0
   -2.1928   -2.9081   -2.6035 H   0  0  0  0  0  0  0  0  0  0  0  0
   -0.7559   -3.2149    1.3083 H   0  0  0  0  0  0  0  0  0  0  0  0
    1.2067   -3.0784   -1.0013 H   0  0  0  0  0  0  0  0  0  0  0  0
    0.7795   -4.6795   -0.3807 H   0  0  0  0  0  0  0  0  0  0  0  0
    1.9241   -2.3753    1.2764 H   0  0  0  0  0  0  0  0  0  0  0  0
    1.4768   -3.9521    1.9175 H   0  0  0  0  0  0  0  0  0  0  0  0
    3.6436   -3.4503   -0.1836 H   0  0  0  0  0  0  0  0  0  0  0  0
    3.9048   -3.8177    1.5304 H   0  0  0  0  0  0  0  0  0  0  0  0
    3.1904   -5.0398    0.4627 H   0  0  0  0  0  0  0  0  0  0  0  0
  1  9  1  0  0  0  0
  1 11  1  0  0  0  0
  2 10  1  0  0  0  0
  2 12  1  0  0  0  0
  3 10  1  0  0  0  0
  3 22  1  0  0  0  0
  4 14  1  0  0  0  0
  4 54  1  0  0  0  0
  5 19  1  0  0  0  0
  5 27  1  0  0  0  0
  6 21  1  0  0  0  0
  6 56  1  0  0  0  0
  7 28  1  0  0  0  0
  7 57  1  0  0  0  0
  8 27  2  0  0  0  0
  9 10  1  0  0  0  0
  9 11  1  0  0  0  0
  9 14  1  0  0  0  0
 10 12  1  0  0  0  0
 11 16  1  0  0  0  0
 11 20  1  0  0  0  0
 12 13  1  0  0  0  0
 12 35  1  0  0  0  0
 13 15  1  0  0  0  0
 13 18  1  0  0  0  0
 13 36  1  0  0  0  0
 14 23  1  0  0  0  0
 14 37  1  0  0  0  0
 15 17  1  0  0  0  0
 15 22  2  0  0  0  0
 16 25  1  0  0  0  0
 16 38  1  0  0  0  0
 16 39  1  0  0  0  0
 17 19  1  0  0  0  0
 17 24  1  0  0  0  0
 17 40  1  0  0  0  0
 18 21  1  0  0  0  0
 18 41  1  0  0  0  0
 18 42  1  0  0  0  0
 19 21  1  0  0  0  0
 19 26  1  0  0  0  0
 20 43  1  0  0  0  0
 20 44  1  0  0  0  0
 20 45  1  0  0  0  0
 21 46  1  0  0  0  0
 22 47  1  0  0  0  0
 23 25  2  0  0  0  0
 23 48  1  0  0  0  0
 24 27  1  0  0  0  0
 24 28  1  0  0  0  0
 24 49  1  0  0  0  0
 25 50  1  0  0  0  0
 26 51  1  0  0  0  0
 26 52  1  0  0  0  0
 26 53  1  0  0  0  0
 28 29  1  0  0  0  0
 28 55  1  0  0  0  0
 29 30  1  0  0  0  0
 29 31  2  0  0  0  0
 30 58  1  0  0  0  0
 30 59  1  0  0  0  0
 30 60  1  0  0  0  0
 31 32  1  0  0  0  0
 31 61  1  0  0  0  0
 32 33  1  0  0  0  0
 32 62  1  0  0  0  0
 32 63  1  0  0  0  0
 33 34  1  0  0  0  0
 33 64  1  0  0  0  0
 33 65  1  0  0  0  0
 34 66  1  0  0  0  0
 34 67  1  0  0  0  0
 34 68  1  0  0  0  0
M  END
> <PUBCHEM_COMPOUND_CID>
139583809

> <PUBCHEM_CONFORMER_RMSD>
1

> <PUBCHEM_CONFORMER_DIVERSEORDER>
2
95
88
43
13
45
84
72
25
68
23
36
66
91
77
21
63
44
89
86
41
79
32
50
42
75
85
83
71
47
15
57
87
40
33
31
39
67
48
78
38
74
64
35
6
34
37
46
92
20
73
52
90
70
11
1
80
30
29
59
28
76
61
12
26
4
19
82
8
56
5
55
54
22
24
69
14
51
94
81
60
58
27
17
93
9
53
65
10
62
16
7
18
3
49

> <PUBCHEM_MMFF94_PARTIAL_CHARGES>
38
1 -0.3
10 0.3
11 -0.04
12 -0.05
13 0.23
14 0.51
15 -0.28
16 0.23
17 0.14
19 0.28
2 -0.3
20 0.09
21 0.28
22 -0.07
23 -0.29
24 0.06
25 -0.29
27 0.66
28 0.42
29 -0.28
3 -0.22
30 0.14
31 -0.29
32 0.14
35 0.1
4 -0.68
47 0.15
48 0.15
5 -0.43
50 0.15
54 0.4
56 0.4
57 0.4
6 -0.68
61 0.15
7 -0.68
8 -0.57
9 0.05

> <PUBCHEM_EFFECTIVE_ROTOR_COUNT>
6.8

> <PUBCHEM_PHARMACOPHORE_FEATURES>
16
1 1 acceptor
1 2 acceptor
1 3 acceptor
1 30 hydrophobe
1 34 hydrophobe
1 4 acceptor
1 4 donor
1 6 acceptor
1 6 donor
1 7 acceptor
1 7 donor
1 8 acceptor
5 5 17 19 24 27 rings
6 13 15 17 18 19 21 rings
7 1 9 11 14 16 23 25 rings
7 2 3 10 12 13 15 22 rings

> <PUBCHEM_HEAVY_ATOM_COUNT>
34

> <PUBCHEM_ATOM_DEF_STEREO_COUNT>
10

> <PUBCHEM_ATOM_UDEF_STEREO_COUNT>
1

> <PUBCHEM_BOND_DEF_STEREO_COUNT>
1

> <PUBCHEM_BOND_UDEF_STEREO_COUNT>
0

> <PUBCHEM_ISOTOPIC_ATOM_COUNT>
0

> <PUBCHEM_COMPONENT_COUNT>
1

> <PUBCHEM_CACTVS_TAUTO_COUNT>
-1

> <PUBCHEM_CONFORMER_ID>
0851E14100000002

> <PUBCHEM_MMFF94_ENERGY>
68.6382

> <PUBCHEM_FEATURE_SELFOVERLAP>
81.424

> <PUBCHEM_SHAPE_FINGERPRINT>
10190108 129 18191609616747484139
11513181 2 18201434749067900710
11578080 2 16661753363970224183
12156800 1 12565342457034374762
12422481 6 18043514041991378642
12788726 201 17906179794973049830
13140716 1 18050848016218025553
13402501 40 18202571700119806390
13583140 156 16558469798269022784
13617811 41 18334852857757988605
14251757 17 17846510218188626998
144659 39 17917131833219655862
14840074 17 17822293513283569684
15001296 14 18260545650102913410
15439362 3 17687172102553290861
17093844 170 18340207487938223214
17349148 13 17530964700480246760
18336668 15 17826518769277352182
20764821 26 18120361077871348342
20775438 99 15752011292597653175
21033648 29 17489579061114499672
21792961 116 12396565306107395488
22121540 332 15726702120090513461
22393880 68 18269562649887214974
23559900 14 18058448888414203144
3027735 51 18410568522238355067
3052486 1 18335703914006868366
3298306 158 18411136905066624703
3383291 50 18267867362251548715
338550 245 18334012766407698870
4015057 19 17060044986842438960
460360 51 18042675109928453997
463206 1 18335707113852670506
469060 322 18118423949374798835
508706 21 18411430517599951607
5265222 85 18264221356482416588
57091435 65 18264488390946069562
59755656 215 18409444787205591047
602551 16 18411418449343281580
70251023 43 17043161140227749791

> <PUBCHEM_SHAPE_MULTIPOLES>
652.75
10.87
4.47
1.6
4.96
3.82
0.07
-3.44
0.05
-1.07
-0.23
0.84
0.05
-0.37

> <PUBCHEM_SHAPE_SELFOVERLAP>
1407.057

> <PUBCHEM_SHAPE_VOLUME>
355.5

> <PUBCHEM_COORDINATE_TYPE>
2
5
10

$$$$
