139583494
  -OEChem-03292013293D

 69 71  0     1  0  0  0  0  0999 V2000
    1.2832   -1.2364    1.9523 O   0  0  0  0  0  0  0  0  0  0  0  0
    3.7683   -2.4222    1.9563 O   0  0  0  0  0  0  0  0  0  0  0  0
    2.6691   -0.1769   -2.0374 O   0  0  0  0  0  0  0  0  0  0  0  0
    4.1738   -4.1527   -1.0299 O   0  0  0  0  0  0  0  0  0  0  0  0
   -8.0652   -2.4243    0.2987 O   0  0  0  0  0  0  0  0  0  0  0  0
    4.5381   -1.3941   -1.2801 N   0  0  0  0  0  0  0  0  0  0  0  0
    1.2017    1.3538   -0.4692 C   0  0  2  0  0  0  0  0  0  0  0  0
    0.5630   -0.0258   -0.0750 C   0  0  1  0  0  0  0  0  0  0  0  0
    1.5971    2.1539    0.8020 C   0  0  1  0  0  0  0  0  0  0  0  0
    0.3222    2.1944   -1.4232 C   0  0  0  0  0  0  0  0  0  0  0  0
   -0.6866    0.1591    0.8708 C   0  0  1  0  0  0  0  0  0  0  0  0
    2.1078    3.5674    0.4691 C   0  0  0  0  0  0  0  0  0  0  0  0
    1.1736    4.3554   -0.4518 C   0  0  2  0  0  0  0  0  0  0  0  0
    0.9239    3.5615   -1.7340 C   0  0  0  0  0  0  0  0  0  0  0  0
    0.5041    2.1657    1.8411 C   0  0  0  0  0  0  0  0  0  0  0  0
   -0.5107    1.2832    1.8909 C   0  0  0  0  0  0  0  0  0  0  0  0
    0.2264   -0.8674   -1.3268 C   0  0  0  0  0  0  0  0  0  0  0  0
    1.6130   -0.8431    0.6699 C   0  0  0  0  0  0  0  0  0  0  0  0
    1.7647    5.7270   -0.7746 C   0  0  0  0  0  0  0  0  0  0  0  0
   -1.9982    0.3131    0.1442 C   0  0  0  0  0  0  0  0  0  0  0  0
   -1.5104    1.3356    3.0175 C   0  0  0  0  0  0  0  0  0  0  0  0
    2.7977   -1.1795    0.1478 C   0  0  0  0  0  0  0  0  0  0  0  0
   -3.0110   -0.5601    0.2448 C   0  0  0  0  0  0  0  0  0  0  0  0
    3.8471   -1.9683    0.8271 C   0  0  0  0  0  0  0  0  0  0  0  0
    3.2698   -0.8254   -1.2011 C   0  0  0  0  0  0  0  0  0  0  0  0
    5.0262   -2.1198   -0.1088 C   0  0  1  0  0  0  0  0  0  0  0  0
   -4.2644   -0.4012   -0.4570 C   0  0  0  0  0  0  0  0  0  0  0  0
    5.3181   -3.5720   -0.4228 C   0  0  0  0  0  0  0  0  0  0  0  0
   -5.2771   -1.2751   -0.3559 C   0  0  0  0  0  0  0  0  0  0  0  0
   -6.5851   -1.1255   -1.0843 C   0  0  0  0  0  0  0  0  0  0  0  0
   -7.7709   -1.0914   -0.1154 C   0  0  1  0  0  0  0  0  0  0  0  0
   -9.0091   -0.5086   -0.7851 C   0  0  0  0  0  0  0  0  0  0  0  0
    2.1603    1.3284   -0.9615 H   0  0  0  0  0  0  0  0  0  0  0  0
    2.4467    1.6502    1.2852 H   0  0  0  0  0  0  0  0  0  0  0  0
   -0.6588    2.3854   -0.9912 H   0  0  0  0  0  0  0  0  0  0  0  0
    0.1755    1.6816   -2.3775 H   0  0  0  0  0  0  0  0  0  0  0  0
   -0.8112   -0.7632    1.4559 H   0  0  0  0  0  0  0  0  0  0  0  0
    2.2803    4.1331    1.3940 H   0  0  0  0  0  0  0  0  0  0  0  0
    3.0906    3.4731   -0.0137 H   0  0  0  0  0  0  0  0  0  0  0  0
    0.2161    4.5151    0.0607 H   0  0  0  0  0  0  0  0  0  0  0  0
    1.8601    3.4326   -2.2920 H   0  0  0  0  0  0  0  0  0  0  0  0
    0.2394    4.1151   -2.3883 H   0  0  0  0  0  0  0  0  0  0  0  0
    0.5926    2.9108    2.6287 H   0  0  0  0  0  0  0  0  0  0  0  0
   -0.2635   -0.2940   -2.1167 H   0  0  0  0  0  0  0  0  0  0  0  0
   -0.5099   -1.6330   -1.0385 H   0  0  0  0  0  0  0  0  0  0  0  0
    0.9950   -1.4837   -1.7895 H   0  0  0  0  0  0  0  0  0  0  0  0
    2.7255    5.6363   -1.2925 H   0  0  0  0  0  0  0  0  0  0  0  0
    1.9268    6.3047    0.1414 H   0  0  0  0  0  0  0  0  0  0  0  0
    1.0871    6.3000   -1.4163 H   0  0  0  0  0  0  0  0  0  0  0  0
   -2.1506    1.1877   -0.4775 H   0  0  0  0  0  0  0  0  0  0  0  0
   -1.5519    0.3707    3.5333 H   0  0  0  0  0  0  0  0  0  0  0  0
   -2.5095    1.5746    2.6404 H   0  0  0  0  0  0  0  0  0  0  0  0
   -1.2518    2.0944    3.7639 H   0  0  0  0  0  0  0  0  0  0  0  0
    2.0129   -1.7434    2.3419 H   0  0  0  0  0  0  0  0  0  0  0  0
   -2.9025   -1.4422    0.8709 H   0  0  0  0  0  0  0  0  0  0  0  0
    5.8943   -1.5881    0.2905 H   0  0  0  0  0  0  0  0  0  0  0  0
    5.1153   -1.2797   -2.1075 H   0  0  0  0  0  0  0  0  0  0  0  0
   -4.3748    0.4759   -1.0895 H   0  0  0  0  0  0  0  0  0  0  0  0
    5.5563   -4.1340    0.4858 H   0  0  0  0  0  0  0  0  0  0  0  0
    6.1542   -3.6540   -1.1247 H   0  0  0  0  0  0  0  0  0  0  0  0
   -5.1684   -2.1588    0.2693 H   0  0  0  0  0  0  0  0  0  0  0  0
    4.3918   -5.0806   -1.2217 H   0  0  0  0  0  0  0  0  0  0  0  0
   -6.5673   -0.2065   -1.6832 H   0  0  0  0  0  0  0  0  0  0  0  0
   -6.6870   -1.9687   -1.7784 H   0  0  0  0  0  0  0  0  0  0  0  0
   -7.5299   -0.5014    0.7767 H   0  0  0  0  0  0  0  0  0  0  0  0
   -9.3030   -1.1080   -1.6539 H   0  0  0  0  0  0  0  0  0  0  0  0
   -9.8592   -0.5185   -0.0943 H   0  0  0  0  0  0  0  0  0  0  0  0
   -8.8389    0.5224   -1.1098 H   0  0  0  0  0  0  0  0  0  0  0  0
   -8.8092   -2.3798    0.9233 H   0  0  0  0  0  0  0  0  0  0  0  0
  1 18  1  0  0  0  0
  1 54  1  0  0  0  0
  2 24  2  0  0  0  0
  3 25  2  0  0  0  0
  4 28  1  0  0  0  0
  4 62  1  0  0  0  0
  5 31  1  0  0  0  0
  5 69  1  0  0  0  0
  6 25  1  0  0  0  0
  6 26  1  0  0  0  0
  6 57  1  0  0  0  0
  7  8  1  0  0  0  0
  7  9  1  0  0  0  0
  7 10  1  0  0  0  0
  7 33  1  0  0  0  0
  8 11  1  0  0  0  0
  8 17  1  0  0  0  0
  8 18  1  0  0  0  0
  9 12  1  0  0  0  0
  9 15  1  0  0  0  0
  9 34  1  0  0  0  0
 10 14  1  0  0  0  0
 10 35  1  0  0  0  0
 10 36  1  0  0  0  0
 11 16  1  0  0  0  0
 11 20  1  0  0  0  0
 11 37  1  0  0  0  0
 12 13  1  0  0  0  0
 12 38  1  0  0  0  0
 12 39  1  0  0  0  0
 13 14  1  0  0  0  0
 13 19  1  0  0  0  0
 13 40  1  0  0  0  0
 14 41  1  0  0  0  0
 14 42  1  0  0  0  0
 15 16  2  0  0  0  0
 15 43  1  0  0  0  0
 16 21  1  0  0  0  0
 17 44  1  0  0  0  0
 17 45  1  0  0  0  0
 17 46  1  0  0  0  0
 18 22  2  3  0  0  0
 19 47  1  0  0  0  0
 19 48  1  0  0  0  0
 19 49  1  0  0  0  0
 20 23  2  0  0  0  0
 20 50  1  0  0  0  0
 21 51  1  0  0  0  0
 21 52  1  0  0  0  0
 21 53  1  0  0  0  0
 22 24  1  0  0  0  0
 22 25  1  0  0  0  0
 23 27  1  0  0  0  0
 23 55  1  0  0  0  0
 24 26  1  0  0  0  0
 26 28  1  0  0  0  0
 26 56  1  0  0  0  0
 27 29  2  0  0  0  0
 27 58  1  0  0  0  0
 28 59  1  0  0  0  0
 28 60  1  0  0  0  0
 29 30  1  0  0  0  0
 29 61  1  0  0  0  0
 30 31  1  0  0  0  0
 30 63  1  0  0  0  0
 30 64  1  0  0  0  0
 31 32  1  0  0  0  0
 31 65  1  0  0  0  0
 32 66  1  0  0  0  0
 32 67  1  0  0  0  0
 32 68  1  0  0  0  0
M  END
> <PUBCHEM_COMPOUND_CID>
139583494

> <PUBCHEM_CONFORMER_RMSD>
1

> <PUBCHEM_CONFORMER_DIVERSEORDER>
1
16
15
14
4
11
3
12
17
7
2
5
13
10
9
6
8

> <PUBCHEM_MMFF94_PARTIAL_CHARGES>
33
1 -0.53
11 0.28
15 -0.29
16 -0.28
18 -0.06
2 -0.57
20 -0.29
21 0.14
22 0.03
23 -0.15
24 0.49
25 0.62
26 0.36
27 -0.15
28 0.28
29 -0.29
3 -0.57
30 0.14
31 0.28
4 -0.68
43 0.15
5 -0.68
50 0.15
54 0.45
55 0.15
57 0.37
58 0.15
6 -0.73
61 0.15
62 0.4
69 0.4
8 0.14
9 0.14

> <PUBCHEM_EFFECTIVE_ROTOR_COUNT>
7.6

> <PUBCHEM_PHARMACOPHORE_FEATURES>
12
1 1 donor
1 2 acceptor
1 22 anion
1 3 acceptor
1 4 acceptor
1 4 donor
1 5 acceptor
1 5 donor
1 6 donor
5 6 22 24 25 26 rings
6 7 8 9 11 15 16 rings
6 7 9 10 12 13 14 rings

> <PUBCHEM_HEAVY_ATOM_COUNT>
32

> <PUBCHEM_ATOM_DEF_STEREO_COUNT>
7

> <PUBCHEM_ATOM_UDEF_STEREO_COUNT>
0

> <PUBCHEM_BOND_DEF_STEREO_COUNT>
2

> <PUBCHEM_BOND_UDEF_STEREO_COUNT>
1

> <PUBCHEM_ISOTOPIC_ATOM_COUNT>
0

> <PUBCHEM_COMPONENT_COUNT>
1

> <PUBCHEM_CACTVS_TAUTO_COUNT>
-1

> <PUBCHEM_CONFORMER_ID>
0851E00600000001

> <PUBCHEM_MMFF94_ENERGY>
95.5199

> <PUBCHEM_FEATURE_SELFOVERLAP>
60.965

> <PUBCHEM_SHAPE_FINGERPRINT>
10411042 1 18337952281956827510
10721379 63 18267311000371439901
11115154 58 18115028498612425677
11720765 8 18410575106365197629
11763715 3 18120676647052439190
12166972 35 18342176666013531531
12633046 712 17897473703481030299
12788726 201 17682960994598759568
133893 2 18195270977150312504
13540713 5 17987540194123203849
13636023 51 18265052621289751807
13782708 43 18341046415780234551
14068700 675 18202004287605589665
15439362 3 18191586569398910013
1813 80 18342177730775056902
20554085 129 11242258488745539982
20771845 65 18273214192253670601
20775438 99 17973716167460515003
2132832 1 18272939310648059545
21424621 283 8574125251318071998
23419403 2 17842807028767117096
23559900 14 18335416924466242387
255183 451 18412544297372608125
3004659 81 18131074865960629223
3380486 145 17977968798741275513
46194498 28 18261948643940301613
513532 50 17604139449966444329
58260988 587 18044658835021772493
6086070 43 18261946350807839773
70251023 43 18409171013137183001
9962374 69 18270953657368425535

> <PUBCHEM_SHAPE_MULTIPOLES>
624.22
15.17
5.51
1.95
48.3
6.4
-0.98
-19.22
4.47
-9.3
1.57
-0.68
0.68
-0.5

> <PUBCHEM_SHAPE_SELFOVERLAP>
1305.454

> <PUBCHEM_SHAPE_VOLUME>
348.6

> <PUBCHEM_COORDINATE_TYPE>
2
5
10

$$$$
