139585336
  -OEChem-03292013293D

 57 60  0     1  0  0  0  0  0999 V2000
    4.5294    0.8038   -0.6757 O   0  0  0  0  0  0  0  0  0  0  0  0
   -5.2057   -0.4061    0.0665 O   0  0  0  0  0  0  0  0  0  0  0  0
    3.6431   -1.3224    1.1924 O   0  0  0  0  0  0  0  0  0  0  0  0
    6.1219   -2.2126    0.4445 O   0  0  0  0  0  0  0  0  0  0  0  0
   -5.3755    1.4025   -1.4766 O   0  0  0  0  0  0  0  0  0  0  0  0
   -1.4266   -1.8232   -1.3093 O   0  0  0  0  0  0  0  0  0  0  0  0
    6.5406    1.9556    0.9011 O   0  0  0  0  0  0  0  0  0  0  0  0
    1.0537   -1.5200   -1.3266 O   0  0  0  0  0  0  0  0  0  0  0  0
    0.6773    3.3166    0.9125 O   0  0  0  0  0  0  0  0  0  0  0  0
    3.4818   -0.1503   -0.9395 C   0  0  1  0  0  0  0  0  0  0  0  0
    3.8962   -1.4210   -0.2057 C   0  0  1  0  0  0  0  0  0  0  0  0
    5.3934   -1.3998   -0.4493 C   0  0  1  0  0  0  0  0  0  0  0  0
    5.7413    0.0857   -0.3599 C   0  0  2  0  0  0  0  0  0  0  0  0
   -4.0362   -0.9458   -0.5695 C   0  0  1  0  0  0  0  0  0  0  0  0
   -2.7813   -0.1360   -0.3016 C   0  0  0  0  0  0  0  0  0  0  0  0
    2.1638    0.4229   -0.5502 C   0  0  0  0  0  0  0  0  0  0  0  0
   -2.8798    1.1531    0.2476 C   0  0  0  0  0  0  0  0  0  0  0  0
   -5.3662    1.0037   -0.1048 C   0  0  2  0  0  0  0  0  0  0  0  0
   -4.2247    1.7205    0.6250 C   0  0  0  0  0  0  0  0  0  0  0  0
   -0.3595    0.1360   -0.4325 C   0  0  0  0  0  0  0  0  0  0  0  0
   -1.5143   -0.6241   -0.6615 C   0  0  0  0  0  0  0  0  0  0  0  0
   -0.4643    1.3974    0.1476 C   0  0  0  0  0  0  0  0  0  0  0  0
   -3.9391   -2.3919   -0.0838 C   0  0  0  0  0  0  0  0  0  0  0  0
    0.9594   -0.4113   -0.8123 C   0  0  0  0  0  0  0  0  0  0  0  0
    6.2561    0.5686    0.9886 C   0  0  0  0  0  0  0  0  0  0  0  0
   -1.7210    1.9063    0.4877 C   0  0  0  0  0  0  0  0  0  0  0  0
    2.0451    1.6311    0.0120 C   0  0  0  0  0  0  0  0  0  0  0  0
    0.7411    2.2060    0.3999 C   0  0  0  0  0  0  0  0  0  0  0  0
   -6.7064    1.3899    0.5222 C   0  0  0  0  0  0  0  0  0  0  0  0
   -3.6579   -2.4485    1.4117 C   0  0  0  0  0  0  0  0  0  0  0  0
   -3.5857   -3.8866    1.8995 C   0  0  0  0  0  0  0  0  0  0  0  0
    3.4953   -0.3245   -2.0238 H   0  0  0  0  0  0  0  0  0  0  0  0
    3.4158   -2.3295   -0.5795 H   0  0  0  0  0  0  0  0  0  0  0  0
    5.5974   -1.7452   -1.4709 H   0  0  0  0  0  0  0  0  0  0  0  0
    6.4745    0.3479   -1.1319 H   0  0  0  0  0  0  0  0  0  0  0  0
   -4.2215   -0.9490   -1.6513 H   0  0  0  0  0  0  0  0  0  0  0  0
   -4.3294    1.5939    1.7101 H   0  0  0  0  0  0  0  0  0  0  0  0
   -4.2489    2.7919    0.3911 H   0  0  0  0  0  0  0  0  0  0  0  0
   -4.9087   -2.8780   -0.2620 H   0  0  0  0  0  0  0  0  0  0  0  0
   -3.2129   -2.9919   -0.6357 H   0  0  0  0  0  0  0  0  0  0  0  0
    7.1744    0.0460    1.2727 H   0  0  0  0  0  0  0  0  0  0  0  0
    5.5061    0.4376    1.7741 H   0  0  0  0  0  0  0  0  0  0  0  0
   -1.8155    2.8928    0.9360 H   0  0  0  0  0  0  0  0  0  0  0  0
    2.9009    2.2646    0.2204 H   0  0  0  0  0  0  0  0  0  0  0  0
   -7.5287    0.8642    0.0228 H   0  0  0  0  0  0  0  0  0  0  0  0
   -6.8984    2.4634    0.4222 H   0  0  0  0  0  0  0  0  0  0  0  0
   -6.7479    1.1127    1.5810 H   0  0  0  0  0  0  0  0  0  0  0  0
   -2.7079   -1.9632    1.6583 H   0  0  0  0  0  0  0  0  0  0  0  0
   -4.4418   -1.9285    1.9742 H   0  0  0  0  0  0  0  0  0  0  0  0
    4.0376   -2.1045    1.6145 H   0  0  0  0  0  0  0  0  0  0  0  0
    5.7792   -3.1188    0.3613 H   0  0  0  0  0  0  0  0  0  0  0  0
   -6.2717    1.2680   -1.8276 H   0  0  0  0  0  0  0  0  0  0  0  0
   -0.5932   -1.8895   -1.7995 H   0  0  0  0  0  0  0  0  0  0  0  0
   -3.3869   -3.9122    2.9756 H   0  0  0  0  0  0  0  0  0  0  0  0
   -2.7832   -4.4333    1.3939 H   0  0  0  0  0  0  0  0  0  0  0  0
   -4.5286   -4.4119    1.7168 H   0  0  0  0  0  0  0  0  0  0  0  0
    6.8676    2.2366    1.7727 H   0  0  0  0  0  0  0  0  0  0  0  0
  1 10  1  0  0  0  0
  1 13  1  0  0  0  0
  2 14  1  0  0  0  0
  2 18  1  0  0  0  0
  3 11  1  0  0  0  0
  3 50  1  0  0  0  0
  4 12  1  0  0  0  0
  4 51  1  0  0  0  0
  5 18  1  0  0  0  0
  5 52  1  0  0  0  0
  6 21  1  0  0  0  0
  6 53  1  0  0  0  0
  7 25  1  0  0  0  0
  7 57  1  0  0  0  0
  8 24  2  0  0  0  0
  9 28  2  0  0  0  0
 10 11  1  0  0  0  0
 10 16  1  0  0  0  0
 10 32  1  0  0  0  0
 11 12  1  0  0  0  0
 11 33  1  0  0  0  0
 12 13  1  0  0  0  0
 12 34  1  0  0  0  0
 13 25  1  0  0  0  0
 13 35  1  0  0  0  0
 14 15  1  0  0  0  0
 14 23  1  0  0  0  0
 14 36  1  0  0  0  0
 15 17  1  0  0  0  0
 15 21  2  0  0  0  0
 16 24  1  0  0  0  0
 16 27  2  0  0  0  0
 17 19  1  0  0  0  0
 17 26  2  0  0  0  0
 18 19  1  0  0  0  0
 18 29  1  0  0  0  0
 19 37  1  0  0  0  0
 19 38  1  0  0  0  0
 20 21  1  0  0  0  0
 20 22  2  0  0  0  0
 20 24  1  0  0  0  0
 22 26  1  0  0  0  0
 22 28  1  0  0  0  0
 23 30  1  0  0  0  0
 23 39  1  0  0  0  0
 23 40  1  0  0  0  0
 25 41  1  0  0  0  0
 25 42  1  0  0  0  0
 26 43  1  0  0  0  0
 27 28  1  0  0  0  0
 27 44  1  0  0  0  0
 29 45  1  0  0  0  0
 29 46  1  0  0  0  0
 29 47  1  0  0  0  0
 30 31  1  0  0  0  0
 30 48  1  0  0  0  0
 30 49  1  0  0  0  0
 31 54  1  0  0  0  0
 31 55  1  0  0  0  0
 31 56  1  0  0  0  0
M  END
> <PUBCHEM_COMPOUND_CID>
139585336

> <PUBCHEM_CONFORMER_RMSD>
0.8

> <PUBCHEM_CONFORMER_DIVERSEORDER>
1
20
8
15
27
26
29
7
24
17
12
21
2
25
16
22
19
18
11
6
9
23
5
14
13
28
10
4
3

> <PUBCHEM_MMFF94_PARTIAL_CHARGES>
34
1 -0.56
10 0.42
11 0.28
12 0.28
13 0.28
14 0.42
15 -0.14
16 -0.12
17 -0.14
18 0.56
19 0.14
2 -0.56
20 0.09
21 0.08
22 0.09
24 0.47
25 0.28
26 -0.15
27 -0.14
28 0.47
3 -0.68
4 -0.68
43 0.15
44 0.15
5 -0.68
50 0.4
51 0.4
52 0.4
53 0.45
57 0.4
6 -0.53
7 -0.68
8 -0.57
9 -0.57

> <PUBCHEM_EFFECTIVE_ROTOR_COUNT>
5.8

> <PUBCHEM_PHARMACOPHORE_FEATURES>
18
1 1 acceptor
1 2 acceptor
1 3 acceptor
1 3 donor
1 31 hydrophobe
1 4 acceptor
1 4 donor
1 5 acceptor
1 5 donor
1 6 donor
1 7 acceptor
1 7 donor
1 8 acceptor
1 9 acceptor
5 1 10 11 12 13 rings
6 15 17 20 21 22 26 rings
6 16 20 22 24 27 28 rings
6 2 14 15 17 18 19 rings

> <PUBCHEM_HEAVY_ATOM_COUNT>
31

> <PUBCHEM_ATOM_DEF_STEREO_COUNT>
5

> <PUBCHEM_ATOM_UDEF_STEREO_COUNT>
1

> <PUBCHEM_BOND_DEF_STEREO_COUNT>
0

> <PUBCHEM_BOND_UDEF_STEREO_COUNT>
0

> <PUBCHEM_ISOTOPIC_ATOM_COUNT>
0

> <PUBCHEM_COMPONENT_COUNT>
1

> <PUBCHEM_CACTVS_TAUTO_COUNT>
-1

> <PUBCHEM_CONFORMER_ID>
0851E73800000001

> <PUBCHEM_MMFF94_ENERGY>
89.5351

> <PUBCHEM_FEATURE_SELFOVERLAP>
91.448

> <PUBCHEM_SHAPE_FINGERPRINT>
10 15 18272363205504891288
10670039 82 10087642623951419490
10675989 125 17474107601536351517
10835480 77 18411694413576621964
10906281 52 18129679499684511013
11135609 12 18189349025061007249
11405975 8 18337114557297100457
11796584 16 18113617889264979690
12236239 1 18334014969356344942
12516196 113 18201998824296776256
12596602 18 18408037429639239114
12616971 3 16732708271982591854
12788726 201 18199183980319893265
13140716 1 18343867735844717649
13533116 47 18261673650364821450
14251764 18 18343585149051511701
15131766 46 14475232784455929426
15196674 1 18343584057507391380
15927050 60 17625816442231032612
17349148 13 17917710184778023093
17492 89 18194122056571885379
1813 80 17894629249826028228
20511986 3 18262224556396183030
21033648 29 17346584283987604146
21130935 74 18201720634843699999
21267235 1 18270126708342975662
21792934 111 18200300023392965760
221490 88 18267029542716769545
23559900 14 18341886429008625417
23569943 247 16054652495049272335
3004659 81 18334862684637607628
3178227 256 18341626901773402057
335352 9 18343303652610741781
3383291 50 18411982490551355339
34797466 226 16271929320366521244
350125 39 18272932725856695257
3680242 22 18340495460525050570
4015057 19 18201146755010692097
4073 2 18334860562681144306
4340502 62 17676487242270294096
5104073 3 18342746229604594568
59755656 215 18268998587632638406
59755656 520 18040997333158952703
6009941 240 18333730225645868722
7226269 152 18341049615108396057
9709674 26 18267303325934333361
9981440 41 18201165343576590223

> <PUBCHEM_SHAPE_MULTIPOLES>
585.14
15.85
3.21
1.21
10.17
1.5
-0.13
0.49
-2.34
-2.41
-1.57
-0.3
0.53
1.35

> <PUBCHEM_SHAPE_SELFOVERLAP>
1276.421

> <PUBCHEM_SHAPE_VOLUME>
313.8

> <PUBCHEM_COORDINATE_TYPE>
2
5
10

$$$$
