139586595
  -OEChem-03292013293D

 63 65  0     1  0  0  0  0  0999 V2000
   -0.7133   -3.9059   -1.6345 Cl  0  0  0  0  0  0  0  0  0  0  0  0
    3.2022   -1.1368    0.0483 O   0  0  0  0  0  0  0  0  0  0  0  0
    3.6761    0.0023   -1.9634 O   0  0  0  0  0  0  0  0  0  0  0  0
    2.1352    2.6537   -1.6760 O   0  0  0  0  0  0  0  0  0  0  0  0
    2.0794   -3.2307   -1.1713 O   0  0  0  0  0  0  0  0  0  0  0  0
    4.5987    1.8460    2.3912 O   0  0  0  0  0  0  0  0  0  0  0  0
   -2.6319    0.4272    0.8387 O   0  0  0  0  0  0  0  0  0  0  0  0
    0.8840    2.6118    0.2655 O   0  0  0  0  0  0  0  0  0  0  0  0
    1.0905   -0.1721    0.4783 C   0  0  2  0  0  0  0  0  0  0  0  0
    1.7148    0.5684   -0.7014 C   0  0  2  0  0  0  0  0  0  0  0  0
    3.1879    0.1374   -0.6300 C   0  0  1  0  0  0  0  0  0  0  0  0
    1.8739   -1.4765    0.4663 C   0  0  1  0  0  0  0  0  0  0  0  0
    4.1077    1.0699    0.1582 C   0  0  1  0  0  0  0  0  0  0  0  0
   -0.3966   -0.3578    0.3794 C   0  0  0  0  0  0  0  0  0  0  0  0
    1.3314   -2.4675   -0.5600 C   0  0  0  0  0  0  0  0  0  0  0  0
    1.9447   -2.1589    1.8282 C   0  0  0  0  0  0  0  0  0  0  0  0
    1.5139    2.0524   -0.6218 C   0  0  0  0  0  0  0  0  0  0  0  0
    4.1950    0.6915    1.6523 C   0  0  1  0  0  0  0  0  0  0  0  0
   -0.9538   -1.5334   -0.3057 C   0  0  0  0  0  0  0  0  0  0  0  0
    5.5016    1.0748   -0.4840 C   0  0  0  0  0  0  0  0  0  0  0  0
   -0.1493   -2.5109   -0.7740 C   0  0  0  0  0  0  0  0  0  0  0  0
   -1.2572    0.5241    0.9175 C   0  0  0  0  0  0  0  0  0  0  0  0
    5.1962   -0.4222    1.9406 C   0  0  0  0  0  0  0  0  0  0  0  0
   -2.4130   -1.5805   -0.4593 C   0  0  0  0  0  0  0  0  0  0  0  0
   -3.1723   -0.6268    0.1100 C   0  0  0  0  0  0  0  0  0  0  0  0
    2.0230    4.0796   -1.7239 C   0  0  0  0  0  0  0  0  0  0  0  0
   -4.6056   -0.6042    0.0234 C   0  0  0  0  0  0  0  0  0  0  0  0
   -5.3642    0.3445    0.5894 C   0  0  0  0  0  0  0  0  0  0  0  0
   -6.8716    0.3719    0.4988 C   0  0  2  0  0  0  0  0  0  0  0  0
   -7.3790    1.6592   -0.1768 C   0  0  0  0  0  0  0  0  0  0  0  0
   -7.4665    0.2457    1.9038 C   0  0  0  0  0  0  0  0  0  0  0  0
   -6.8819    1.8236   -1.6078 C   0  0  0  0  0  0  0  0  0  0  0  0
    1.2953    0.3744    1.4068 H   0  0  0  0  0  0  0  0  0  0  0  0
    1.2402    0.2398   -1.6367 H   0  0  0  0  0  0  0  0  0  0  0  0
    3.7897    2.1141    0.0956 H   0  0  0  0  0  0  0  0  0  0  0  0
    2.3634   -1.5038    2.5968 H   0  0  0  0  0  0  0  0  0  0  0  0
    0.9578   -2.4911    2.1673 H   0  0  0  0  0  0  0  0  0  0  0  0
    2.5963   -3.0397    1.7849 H   0  0  0  0  0  0  0  0  0  0  0  0
    3.2213    0.4390    2.0611 H   0  0  0  0  0  0  0  0  0  0  0  0
    5.4806    1.5601   -1.4669 H   0  0  0  0  0  0  0  0  0  0  0  0
    5.9119    0.0675   -0.6139 H   0  0  0  0  0  0  0  0  0  0  0  0
    6.2081    1.6524    0.1231 H   0  0  0  0  0  0  0  0  0  0  0  0
    2.9868   -0.4116   -2.5083 H   0  0  0  0  0  0  0  0  0  0  0  0
   -0.9795    1.4075    1.4736 H   0  0  0  0  0  0  0  0  0  0  0  0
    6.2292   -0.0689    1.8441 H   0  0  0  0  0  0  0  0  0  0  0  0
    5.0988   -0.7287    2.9894 H   0  0  0  0  0  0  0  0  0  0  0  0
    5.0806   -1.3197    1.3323 H   0  0  0  0  0  0  0  0  0  0  0  0
   -2.8770   -2.3849   -1.0194 H   0  0  0  0  0  0  0  0  0  0  0  0
    4.6337    1.5978    3.3309 H   0  0  0  0  0  0  0  0  0  0  0  0
    2.5599    4.4332   -2.6081 H   0  0  0  0  0  0  0  0  0  0  0  0
    2.4791    4.5249   -0.8346 H   0  0  0  0  0  0  0  0  0  0  0  0
    0.9727    4.3741   -1.8090 H   0  0  0  0  0  0  0  0  0  0  0  0
   -5.0837   -1.4053   -0.5350 H   0  0  0  0  0  0  0  0  0  0  0  0
   -4.9149    1.1590    1.1534 H   0  0  0  0  0  0  0  0  0  0  0  0
   -7.2243   -0.4853   -0.0899 H   0  0  0  0  0  0  0  0  0  0  0  0
   -7.0795    2.5393    0.4065 H   0  0  0  0  0  0  0  0  0  0  0  0
   -8.4760    1.6495   -0.1905 H   0  0  0  0  0  0  0  0  0  0  0  0
   -7.1727    1.0860    2.5432 H   0  0  0  0  0  0  0  0  0  0  0  0
   -8.5608    0.2235    1.8598 H   0  0  0  0  0  0  0  0  0  0  0  0
   -7.1349   -0.6791    2.3891 H   0  0  0  0  0  0  0  0  0  0  0  0
   -7.1463    0.9535   -2.2171 H   0  0  0  0  0  0  0  0  0  0  0  0
   -5.7966    1.9574   -1.6461 H   0  0  0  0  0  0  0  0  0  0  0  0
   -7.3402    2.7072   -2.0638 H   0  0  0  0  0  0  0  0  0  0  0  0
  1 21  1  0  0  0  0
  2 11  1  0  0  0  0
  2 12  1  0  0  0  0
  3 11  1  0  0  0  0
  3 43  1  0  0  0  0
  4 17  1  0  0  0  0
  4 26  1  0  0  0  0
  5 15  2  0  0  0  0
  6 18  1  0  0  0  0
  6 49  1  0  0  0  0
  7 22  1  0  0  0  0
  7 25  1  0  0  0  0
  8 17  2  0  0  0  0
  9 10  1  0  0  0  0
  9 12  1  0  0  0  0
  9 14  1  0  0  0  0
  9 33  1  0  0  0  0
 10 11  1  0  0  0  0
 10 17  1  0  0  0  0
 10 34  1  0  0  0  0
 11 13  1  0  0  0  0
 12 15  1  0  0  0  0
 12 16  1  0  0  0  0
 13 18  1  0  0  0  0
 13 20  1  0  0  0  0
 13 35  1  0  0  0  0
 14 19  1  0  0  0  0
 14 22  2  0  0  0  0
 15 21  1  0  0  0  0
 16 36  1  0  0  0  0
 16 37  1  0  0  0  0
 16 38  1  0  0  0  0
 18 23  1  0  0  0  0
 18 39  1  0  0  0  0
 19 21  2  0  0  0  0
 19 24  1  0  0  0  0
 20 40  1  0  0  0  0
 20 41  1  0  0  0  0
 20 42  1  0  0  0  0
 22 44  1  0  0  0  0
 23 45  1  0  0  0  0
 23 46  1  0  0  0  0
 23 47  1  0  0  0  0
 24 25  2  0  0  0  0
 24 48  1  0  0  0  0
 25 27  1  0  0  0  0
 26 50  1  0  0  0  0
 26 51  1  0  0  0  0
 26 52  1  0  0  0  0
 27 28  2  0  0  0  0
 27 53  1  0  0  0  0
 28 29  1  0  0  0  0
 28 54  1  0  0  0  0
 29 30  1  0  0  0  0
 29 31  1  0  0  0  0
 29 55  1  0  0  0  0
 30 32  1  0  0  0  0
 30 56  1  0  0  0  0
 30 57  1  0  0  0  0
 31 58  1  0  0  0  0
 31 59  1  0  0  0  0
 31 60  1  0  0  0  0
 32 61  1  0  0  0  0
 32 62  1  0  0  0  0
 32 63  1  0  0  0  0
M  END
> <PUBCHEM_COMPOUND_CID>
139586595

> <PUBCHEM_CONFORMER_RMSD>
1

> <PUBCHEM_CONFORMER_DIVERSEORDER>
1
9
8
6
3
7
2
5
4

> <PUBCHEM_MMFF94_PARTIAL_CHARGES>
30
1 -0.14
10 0.06
11 0.56
12 0.34
14 -0.14
15 0.49
17 0.66
18 0.28
2 -0.56
21 0.15
22 -0.07
24 -0.15
25 0.08
26 0.28
27 -0.15
28 -0.29
29 0.14
3 -0.68
4 -0.43
43 0.4
44 0.15
48 0.15
49 0.4
5 -0.57
53 0.15
54 0.15
6 -0.68
7 -0.15
8 -0.57
9 0.14

> <PUBCHEM_EFFECTIVE_ROTOR_COUNT>
7.8

> <PUBCHEM_PHARMACOPHORE_FEATURES>
14
1 2 acceptor
1 20 hydrophobe
1 3 acceptor
1 3 donor
1 31 hydrophobe
1 32 hydrophobe
1 5 acceptor
1 6 acceptor
1 6 donor
1 7 acceptor
1 8 acceptor
5 2 9 10 11 12 rings
6 7 14 19 22 24 25 rings
6 9 12 14 15 19 21 rings

> <PUBCHEM_HEAVY_ATOM_COUNT>
32

> <PUBCHEM_ATOM_DEF_STEREO_COUNT>
7

> <PUBCHEM_ATOM_UDEF_STEREO_COUNT>
0

> <PUBCHEM_BOND_DEF_STEREO_COUNT>
1

> <PUBCHEM_BOND_UDEF_STEREO_COUNT>
0

> <PUBCHEM_ISOTOPIC_ATOM_COUNT>
0

> <PUBCHEM_COMPONENT_COUNT>
1

> <PUBCHEM_CACTVS_TAUTO_COUNT>
-1

> <PUBCHEM_CONFORMER_ID>
0851EC2300000001

> <PUBCHEM_MMFF94_ENERGY>
91.9578

> <PUBCHEM_FEATURE_SELFOVERLAP>
71.293

> <PUBCHEM_SHAPE_FINGERPRINT>
10162869 55 18410568531814382567
10816530 90 18261124014673154180
11297750 10 17907856202814763110
12403259 118 18263078980400765107
12403259 327 17095526231296724354
12422481 6 18114170956651672733
12633257 1 17748825258527601099
12778500 126 16226038951722930133
12838862 33 18341882005070867488
13140716 1 18119808259956463056
13583140 156 17531510041358015223
13782708 43 10231746783131436113
13965767 371 18340186567047094410
14068700 675 13827637885530693868
14117953 113 18411419475360125756
14955137 171 18187648033460189482
15081414 286 18338242570269908597
15183329 4 18411984638092525057
15238133 3 18040435507705851306
15324884 4 17047921501563720506
15439362 3 17972612253697243052
1601671 61 18409167714095637622
17844677 252 18040445357015530953
17980427 23 17983560086747936924
1979834 28 18412830157526797339
20511986 3 18271229587304388563
20715895 44 18343297093541247473
20739085 24 18267315239356168827
20775438 99 17471542475204919509
21033648 29 18059000817755213376
21298829 104 18343023259929158521
22149856 69 18058190392514573747
23558518 356 17759519267754894050
23559900 14 18059309724234739454
25269216 80 15554435329024561261
4340502 62 18131349713127757235
5104073 3 17823702065167490985
513532 50 17917723374279490670
57527306 92 17676217883823743244
58260988 647 14852154067302489032
70251023 43 18047197349751650818

> <PUBCHEM_SHAPE_MULTIPOLES>
619.33
15.18
3.7
1.83
31.66
0.24
0.34
-9.24
4.58
-2.12
-2.49
-1.09
-0.25
-0.13

> <PUBCHEM_SHAPE_SELFOVERLAP>
1305.457

> <PUBCHEM_SHAPE_VOLUME>
349.1

> <PUBCHEM_COORDINATE_TYPE>
2
5
10

$$$$
