139586881
  -OEChem-03292013293D

 64 66  0     1  0  0  0  0  0999 V2000
    3.5026    1.1953    0.1119 O   0  0  0  0  0  0  0  0  0  0  0  0
    6.5008   -0.8765    0.4105 O   0  0  0  0  0  0  0  0  0  0  0  0
   -2.2152    2.5473   -2.7063 O   0  0  0  0  0  0  0  0  0  0  0  0
   -1.6806    2.7559    2.5566 O   0  0  0  0  0  0  0  0  0  0  0  0
   -1.3634   -2.9946    0.6188 N   0  0  0  0  0  0  0  0  0  0  0  0
   -1.8139    1.5232    0.6173 N   0  0  0  0  0  0  0  0  0  0  0  0
   -1.7918    3.7589   -0.7956 N   0  0  0  0  0  0  0  0  0  0  0  0
   -1.3943   -1.1337   -0.5907 C   0  0  0  0  0  0  0  0  0  0  0  0
   -2.1861   -2.0684    0.0359 C   0  0  0  0  0  0  0  0  0  0  0  0
   -3.6535   -2.1792    0.1433 C   0  0  0  0  0  0  0  0  0  0  0  0
   -1.8802    0.0669   -1.3601 C   0  0  0  0  0  0  0  0  0  0  0  0
   -0.0368   -1.5054   -0.3808 C   0  0  0  0  0  0  0  0  0  0  0  0
   -1.3712    1.3678   -0.7605 C   0  0  1  0  0  0  0  0  0  0  0  0
   -0.0454   -2.6760    0.3807 C   0  0  0  0  0  0  0  0  0  0  0  0
    1.2021   -0.9566   -0.7669 C   0  0  0  0  0  0  0  0  0  0  0  0
    2.3839   -1.5977   -0.3777 C   0  0  0  0  0  0  0  0  0  0  0  0
    3.7007   -1.0229   -0.7826 C   0  0  0  0  0  0  0  0  0  0  0  0
    4.2557   -0.0167    0.2491 C   0  0  1  0  0  0  0  0  0  0  0  0
   -4.1889   -3.3828    1.0079 C   0  0  0  0  0  0  0  0  0  0  0  0
   -4.2911   -2.4146   -1.2724 C   0  0  0  0  0  0  0  0  0  0  0  0
    5.7623    0.3167    0.1050 C   0  0  0  0  0  0  0  0  0  0  0  0
    1.1277   -3.3278    0.7770 C   0  0  0  0  0  0  0  0  0  0  0  0
   -1.8767    2.5832   -1.5258 C   0  0  0  0  0  0  0  0  0  0  0  0
   -4.2713   -0.9387    0.8430 C   0  0  0  0  0  0  0  0  0  0  0  0
    2.3449   -2.7651    0.3823 C   0  0  0  0  0  0  0  0  0  0  0  0
   -1.0720    3.8303    0.4674 C   0  0  2  0  0  0  0  0  0  0  0  0
   -1.5868    2.6886    1.3334 C   0  0  0  0  0  0  0  0  0  0  0  0
    6.1544    0.7164   -1.3199 C   0  0  0  0  0  0  0  0  0  0  0  0
    6.2187    1.3921    1.0958 C   0  0  0  0  0  0  0  0  0  0  0  0
   -1.2640    5.1820    1.1361 C   0  0  0  0  0  0  0  0  0  0  0  0
   -5.1707   -0.0680    0.3670 C   0  0  0  0  0  0  0  0  0  0  0  0
   -1.5277   -0.0280   -2.3957 H   0  0  0  0  0  0  0  0  0  0  0  0
   -2.9689    0.1032   -1.4215 H   0  0  0  0  0  0  0  0  0  0  0  0
   -0.2785    1.4238   -0.7606 H   0  0  0  0  0  0  0  0  0  0  0  0
   -1.6613   -3.8011    1.1495 H   0  0  0  0  0  0  0  0  0  0  0  0
    1.2449   -0.0599   -1.3777 H   0  0  0  0  0  0  0  0  0  0  0  0
    4.4127   -1.8457   -0.9249 H   0  0  0  0  0  0  0  0  0  0  0  0
    3.5926   -0.5409   -1.7631 H   0  0  0  0  0  0  0  0  0  0  0  0
    4.0875   -0.4011    1.2641 H   0  0  0  0  0  0  0  0  0  0  0  0
   -3.8695   -4.3427    0.5847 H   0  0  0  0  0  0  0  0  0  0  0  0
   -3.8813   -3.3258   -1.7261 H   0  0  0  0  0  0  0  0  0  0  0  0
   -3.8126   -3.3326    2.0372 H   0  0  0  0  0  0  0  0  0  0  0  0
   -5.2848   -3.3899    1.0551 H   0  0  0  0  0  0  0  0  0  0  0  0
   -4.0965   -1.5987   -1.9733 H   0  0  0  0  0  0  0  0  0  0  0  0
   -5.3785   -2.5423   -1.2092 H   0  0  0  0  0  0  0  0  0  0  0  0
    1.0982   -4.2362    1.3693 H   0  0  0  0  0  0  0  0  0  0  0  0
   -2.0843    0.7032    1.1503 H   0  0  0  0  0  0  0  0  0  0  0  0
   -3.9180   -0.7641    1.8599 H   0  0  0  0  0  0  0  0  0  0  0  0
    3.2680   -3.2559    0.6829 H   0  0  0  0  0  0  0  0  0  0  0  0
   -0.0090    3.6579    0.2622 H   0  0  0  0  0  0  0  0  0  0  0  0
   -2.0484    4.6236   -1.2628 H   0  0  0  0  0  0  0  0  0  0  0  0
    5.9896    1.0914    2.1244 H   0  0  0  0  0  0  0  0  0  0  0  0
    5.7388    2.3564    0.9009 H   0  0  0  0  0  0  0  0  0  0  0  0
    7.3046    1.5351    1.0513 H   0  0  0  0  0  0  0  0  0  0  0  0
    5.9908   -0.1037   -2.0272 H   0  0  0  0  0  0  0  0  0  0  0  0
    7.2235    0.9529   -1.3790 H   0  0  0  0  0  0  0  0  0  0  0  0
    5.5936    1.5922   -1.6614 H   0  0  0  0  0  0  0  0  0  0  0  0
   -2.3200    5.3655    1.3651 H   0  0  0  0  0  0  0  0  0  0  0  0
   -0.9192    5.9920    0.4845 H   0  0  0  0  0  0  0  0  0  0  0  0
   -0.7042    5.2390    2.0755 H   0  0  0  0  0  0  0  0  0  0  0  0
    2.6108    1.0312    0.4616 H   0  0  0  0  0  0  0  0  0  0  0  0
   -5.5069    0.7578    0.9853 H   0  0  0  0  0  0  0  0  0  0  0  0
   -5.5865   -0.1459   -0.6298 H   0  0  0  0  0  0  0  0  0  0  0  0
    7.4488   -0.6774    0.3230 H   0  0  0  0  0  0  0  0  0  0  0  0
  1 18  1  0  0  0  0
  1 61  1  0  0  0  0
  2 21  1  0  0  0  0
  2 64  1  0  0  0  0
  3 23  2  0  0  0  0
  4 27  2  0  0  0  0
  5  9  1  0  0  0  0
  5 14  1  0  0  0  0
  5 35  1  0  0  0  0
  6 13  1  0  0  0  0
  6 27  1  0  0  0  0
  6 47  1  0  0  0  0
  7 23  1  0  0  0  0
  7 26  1  0  0  0  0
  7 51  1  0  0  0  0
  8  9  2  0  0  0  0
  8 11  1  0  0  0  0
  8 12  1  0  0  0  0
  9 10  1  0  0  0  0
 10 19  1  0  0  0  0
 10 20  1  0  0  0  0
 10 24  1  0  0  0  0
 11 13  1  0  0  0  0
 11 32  1  0  0  0  0
 11 33  1  0  0  0  0
 12 14  2  0  0  0  0
 12 15  1  0  0  0  0
 13 23  1  0  0  0  0
 13 34  1  0  0  0  0
 14 22  1  0  0  0  0
 15 16  2  0  0  0  0
 15 36  1  0  0  0  0
 16 17  1  0  0  0  0
 16 25  1  0  0  0  0
 17 18  1  0  0  0  0
 17 37  1  0  0  0  0
 17 38  1  0  0  0  0
 18 21  1  0  0  0  0
 18 39  1  0  0  0  0
 19 40  1  0  0  0  0
 19 42  1  0  0  0  0
 19 43  1  0  0  0  0
 20 41  1  0  0  0  0
 20 44  1  0  0  0  0
 20 45  1  0  0  0  0
 21 28  1  0  0  0  0
 21 29  1  0  0  0  0
 22 25  2  0  0  0  0
 22 46  1  0  0  0  0
 24 31  2  0  0  0  0
 24 48  1  0  0  0  0
 25 49  1  0  0  0  0
 26 27  1  0  0  0  0
 26 30  1  0  0  0  0
 26 50  1  0  0  0  0
 28 55  1  0  0  0  0
 28 56  1  0  0  0  0
 28 57  1  0  0  0  0
 29 52  1  0  0  0  0
 29 53  1  0  0  0  0
 29 54  1  0  0  0  0
 30 58  1  0  0  0  0
 30 59  1  0  0  0  0
 30 60  1  0  0  0  0
 31 62  1  0  0  0  0
 31 63  1  0  0  0  0
M  END
> <PUBCHEM_COMPOUND_CID>
139586881

> <PUBCHEM_CONFORMER_RMSD>
1

> <PUBCHEM_CONFORMER_DIVERSEORDER>
1
102
232
126
87
163
88
222
156
130
137
153
166
197
109
173
58
51
186
154
213
103
236
206
26
160
144
112
99
177
220
127
215
201
149
93
4
171
21
193
66
146
129
229
179
136
158
234
70
53
131
61
33
223
204
170
185
133
139
132
209
184
120
10
212
207
230
210
155
91
152
31
217
114
69
79
85
29
39
89
196
76
77
202
183
20
30
42
12
100
55
115
180
47
116
178
52
235
216
192
107
72
203
135
111
151
172
227
81
187
63
145
96
86
188
221
49
105
15
231
37
181
38
191
36
140
67
162
142
98
159
48
214
2
50
233
106
157
211
28
45
128
219
118
208
56
7
73
35
75
205
64
150
16
5
161
228
123
108
147
225
62
95
164
82
134
65
110
101
46
119
195
94
32
90
199
59
11
104
68
165
92
23
122
84
189
18
57
200
44
113
9
117
8
24
175
138
148
3
141
174
168
40
190
54
13
25
34
71
224
97
121
143
80
22
198
125
218
60
83
226
169
176
78
74
19
182
6
27
124
17
194
14
41
167
43

> <PUBCHEM_MMFF94_PARTIAL_CHARGES>
36
1 -0.68
10 0.32
11 0.18
13 0.36
14 -0.15
15 -0.15
16 -0.14
17 0.14
18 0.28
2 -0.68
21 0.28
22 -0.15
23 0.57
24 -0.29
25 -0.15
26 0.36
27 0.57
3 -0.57
31 -0.3
35 0.27
36 0.15
4 -0.57
46 0.15
47 0.37
48 0.15
49 0.15
5 0.03
51 0.37
6 -0.73
61 0.4
62 0.15
63 0.15
64 0.4
7 -0.73
8 -0.18
9 -0.33

> <PUBCHEM_EFFECTIVE_ROTOR_COUNT>
7.8

> <PUBCHEM_PHARMACOPHORE_FEATURES>
16
1 1 acceptor
1 1 donor
1 2 acceptor
1 2 donor
1 3 acceptor
1 31 hydrophobe
1 4 acceptor
1 5 cation
1 5 donor
1 6 donor
1 7 donor
3 10 19 20 hydrophobe
3 21 28 29 hydrophobe
5 5 8 9 12 14 rings
6 12 14 15 16 22 25 rings
6 6 7 13 23 26 27 rings

> <PUBCHEM_HEAVY_ATOM_COUNT>
31

> <PUBCHEM_ATOM_DEF_STEREO_COUNT>
3

> <PUBCHEM_ATOM_UDEF_STEREO_COUNT>
0

> <PUBCHEM_BOND_DEF_STEREO_COUNT>
0

> <PUBCHEM_BOND_UDEF_STEREO_COUNT>
0

> <PUBCHEM_ISOTOPIC_ATOM_COUNT>
0

> <PUBCHEM_COMPONENT_COUNT>
1

> <PUBCHEM_CACTVS_TAUTO_COUNT>
-1

> <PUBCHEM_CONFORMER_ID>
0851ED4100000001

> <PUBCHEM_MMFF94_ENERGY>
89.2017

> <PUBCHEM_FEATURE_SELFOVERLAP>
81.301

> <PUBCHEM_SHAPE_FINGERPRINT>
10006869 2 18267580213632972143
10670039 82 18263097612580390300
11640471 11 16186897175514097921
12788726 201 18334851749403264050
13140716 1 18117284872181308606
13402501 40 18270678787676135504
14955137 171 18047761678468500499
15131766 46 15696859553509147408
15439362 3 17619337050304617261
17980427 23 17988656237538770935
20600515 1 18190476024131759799
22956985 138 17180531897533732354
23845131 108 17832150424753012585
25019877 29 16772404008894658358
283562 15 18408038507122590279
350125 39 18408326609760787940
392239 28 18411989082396784962
469060 322 18187097155889918121
5171179 24 18054208093899072453
5252454 2 17757576069936201124
57527585 21 17631159797589482725
6004065 56 18053377983689223879
6677587 24 15366364736042878375
7399639 24 18131078138473183782

> <PUBCHEM_SHAPE_MULTIPOLES>
599.55
11.64
5.8
1.57
20.09
5.93
-0.26
-2.73
0.67
-5.39
1.73
-0.86
1.31
0.34

> <PUBCHEM_SHAPE_SELFOVERLAP>
1267.921

> <PUBCHEM_SHAPE_VOLUME>
336.4

> <PUBCHEM_COORDINATE_TYPE>
2
5
10

$$$$
