139583296
  -OEChem-03292013293D

 42 42  0     1  0  0  0  0  0999 V2000
   -3.4614   -1.1604    0.5279 O   0  0  0  0  0  0  0  0  0  0  0  0
   -2.3398    1.9296    1.7533 O   0  0  0  0  0  0  0  0  0  0  0  0
    1.7954    1.3183   -1.6139 O   0  0  0  0  0  0  0  0  0  0  0  0
    0.4212   -2.5656    0.7059 O   0  0  0  0  0  0  0  0  0  0  0  0
    2.2494   -1.1019    0.9326 N   0  0  0  0  0  0  0  0  0  0  0  0
   -0.3445   -0.2799   -2.8563 N   0  0  0  0  0  0  0  0  0  0  0  0
   -2.2732   -0.5320    0.0503 C   0  0  2  0  0  0  0  0  0  0  0  0
   -2.6242    0.8922   -0.3955 C   0  0  0  0  0  0  0  0  0  0  0  0
   -1.7110   -1.3417   -1.1230 C   0  0  0  0  0  0  0  0  0  0  0  0
   -3.2786    1.7584    0.6901 C   0  0  2  0  0  0  0  0  0  0  0  0
   -0.4241   -0.7313   -1.6454 C   0  0  0  0  0  0  0  0  0  0  0  0
    0.7339   -0.6608   -0.7361 C   0  0  0  0  0  0  0  0  0  0  0  0
   -3.7036    3.1356    0.1986 C   0  0  0  0  0  0  0  0  0  0  0  0
    1.7052    0.2652   -0.7480 C   0  0  0  0  0  0  0  0  0  0  0  0
    2.6761    0.0230    0.2847 C   0  0  0  0  0  0  0  0  0  0  0  0
    1.0723   -1.5891    0.3789 C   0  0  0  0  0  0  0  0  0  0  0  0
    3.7814    0.6972    0.6103 C   0  0  0  0  0  0  0  0  0  0  0  0
   -3.1602   -2.2586    1.3749 C   0  0  0  0  0  0  0  0  0  0  0  0
    4.2122    1.9316   -0.1315 C   0  0  0  0  0  0  0  0  0  0  0  0
    4.6736    0.2703    1.7423 C   0  0  0  0  0  0  0  0  0  0  0  0
   -1.5443   -0.4595    0.8666 H   0  0  0  0  0  0  0  0  0  0  0  0
   -1.7175    1.4016   -0.7435 H   0  0  0  0  0  0  0  0  0  0  0  0
   -3.3187    0.8389   -1.2441 H   0  0  0  0  0  0  0  0  0  0  0  0
   -1.5170   -2.3838   -0.8553 H   0  0  0  0  0  0  0  0  0  0  0  0
   -2.4551   -1.3914   -1.9279 H   0  0  0  0  0  0  0  0  0  0  0  0
   -4.1550    1.2448    1.1005 H   0  0  0  0  0  0  0  0  0  0  0  0
   -2.8388    3.7063   -0.1571 H   0  0  0  0  0  0  0  0  0  0  0  0
   -4.1507    3.7151    1.0135 H   0  0  0  0  0  0  0  0  0  0  0  0
   -4.4315    3.0579   -0.6144 H   0  0  0  0  0  0  0  0  0  0  0  0
    2.7158   -1.5394    1.7164 H   0  0  0  0  0  0  0  0  0  0  0  0
   -2.7786    2.4437    2.4524 H   0  0  0  0  0  0  0  0  0  0  0  0
   -2.6754   -3.0707    0.8279 H   0  0  0  0  0  0  0  0  0  0  0  0
   -2.5391   -1.9449    2.2198 H   0  0  0  0  0  0  0  0  0  0  0  0
   -4.1032   -2.6431    1.7743 H   0  0  0  0  0  0  0  0  0  0  0  0
   -1.2345   -0.4018   -3.3497 H   0  0  0  0  0  0  0  0  0  0  0  0
    5.6826    0.0748    1.3624 H   0  0  0  0  0  0  0  0  0  0  0  0
    4.7407    1.0756    2.4822 H   0  0  0  0  0  0  0  0  0  0  0  0
    4.3560   -0.6265    2.2765 H   0  0  0  0  0  0  0  0  0  0  0  0
    3.4577    2.7211   -0.0542 H   0  0  0  0  0  0  0  0  0  0  0  0
    5.1401    2.3370    0.2871 H   0  0  0  0  0  0  0  0  0  0  0  0
    4.4098    1.7091   -1.1851 H   0  0  0  0  0  0  0  0  0  0  0  0
    1.0315    1.2904   -2.2144 H   0  0  0  0  0  0  0  0  0  0  0  0
  1  7  1  0  0  0  0
  1 18  1  0  0  0  0
  2 10  1  0  0  0  0
  2 31  1  0  0  0  0
  3 14  1  0  0  0  0
  3 42  1  0  0  0  0
  4 16  2  0  0  0  0
  5 15  1  0  0  0  0
  5 16  1  0  0  0  0
  5 30  1  0  0  0  0
  6 11  2  0  0  0  0
  6 35  1  0  0  0  0
  7  8  1  0  0  0  0
  7  9  1  0  0  0  0
  7 21  1  0  0  0  0
  8 10  1  0  0  0  0
  8 22  1  0  0  0  0
  8 23  1  0  0  0  0
  9 11  1  0  0  0  0
  9 24  1  0  0  0  0
  9 25  1  0  0  0  0
 10 13  1  0  0  0  0
 10 26  1  0  0  0  0
 11 12  1  0  0  0  0
 12 14  2  0  0  0  0
 12 16  1  0  0  0  0
 13 27  1  0  0  0  0
 13 28  1  0  0  0  0
 13 29  1  0  0  0  0
 14 15  1  0  0  0  0
 15 17  2  0  0  0  0
 17 19  1  0  0  0  0
 17 20  1  0  0  0  0
 18 32  1  0  0  0  0
 18 33  1  0  0  0  0
 18 34  1  0  0  0  0
 19 39  1  0  0  0  0
 19 40  1  0  0  0  0
 19 41  1  0  0  0  0
 20 36  1  0  0  0  0
 20 37  1  0  0  0  0
 20 38  1  0  0  0  0
M  END
> <PUBCHEM_COMPOUND_CID>
139583296

> <PUBCHEM_CONFORMER_RMSD>
1

> <PUBCHEM_CONFORMER_DIVERSEORDER>
1
51
38
58
41
19
11
81
78
12
22
77
32
31
95
30
29
7
69
39
42
93
62
27
44
16
26
3
86
28
33
50
91
84
94
74
82
72
65
63
75
48
13
90
73
66
60
80
46
5
21
6
88
57
85
54
68
34
18
14
47
8
87
79
49
64
2
4
61
23
24
67
55
92
45
20
40
37
43
36
89
59
71
52
83
25
56
70
9
15
76
17
53
10
35

> <PUBCHEM_MMFF94_PARTIAL_CHARGES>
22
1 -0.56
10 0.28
11 0.37
12 0.03
14 0.08
15 0.11
16 0.62
17 -0.28
18 0.28
19 0.14
2 -0.68
20 0.14
3 -0.53
30 0.37
31 0.4
35 0.4
4 -0.57
42 0.45
5 -0.54
6 -0.85
7 0.28
9 0.06

> <PUBCHEM_EFFECTIVE_ROTOR_COUNT>
6.2

> <PUBCHEM_PHARMACOPHORE_FEATURES>
10
1 1 acceptor
1 2 acceptor
1 2 donor
1 3 donor
1 4 acceptor
1 5 donor
1 6 acceptor
1 6 donor
3 17 19 20 hydrophobe
5 5 12 14 15 16 rings

> <PUBCHEM_HEAVY_ATOM_COUNT>
20

> <PUBCHEM_ATOM_DEF_STEREO_COUNT>
2

> <PUBCHEM_ATOM_UDEF_STEREO_COUNT>
0

> <PUBCHEM_BOND_DEF_STEREO_COUNT>
0

> <PUBCHEM_BOND_UDEF_STEREO_COUNT>
0

> <PUBCHEM_ISOTOPIC_ATOM_COUNT>
0

> <PUBCHEM_COMPONENT_COUNT>
1

> <PUBCHEM_CACTVS_TAUTO_COUNT>
-1

> <PUBCHEM_CONFORMER_ID>
0851DF4000000001

> <PUBCHEM_MMFF94_ENERGY>
51.7357

> <PUBCHEM_FEATURE_SELFOVERLAP>
50.749

> <PUBCHEM_SHAPE_FINGERPRINT>
10498660 4 17203320083715555297
11221954 11 17701269022926815297
11471102 22 16805318916169139230
11552529 35 17970061356296854834
11640471 11 18271237218970682653
12202030 40 12324541882006016679
12363563 72 14562530716996693179
12507560 40 18271807891217403358
12633257 1 17676204637158411472
12892183 10 18336259150066975610
12930653 34 18409452470775989891
13583140 156 17274241964120831762
13764800 53 18059867125475217481
13965767 371 17751640936150120129
14178342 30 18113342985683190515
14341114 328 18339371875900927953
14787075 74 18048878794913761531
14957384 54 17916849262725572056
15209294 21 18339349817165309640
15309172 13 17968924392654282446
16945 1 18130232682418071455
18186145 218 15841559595586712052
18981168 100 17415589556790465139
20291156 8 8141790699328466705
20645477 56 16844725473333461558
20739085 24 17894630336484155500
20775530 9 11170788008131781233
20871999 31 10231757790415009169
21069387 34 14852168515498294251
21756936 100 18269271425920512180
21864079 5 18270390732825903624
23419403 2 16318620394539762775
238 59 16055743245012198385
27216 239 18201998837455725169
392239 28 17974577097495519065
633830 44 18411132537807441486
81228 2 16484703640544938887
9981440 41 18059283258973211387

> <PUBCHEM_SHAPE_MULTIPOLES>
378.15
7.89
2.73
1.82
3.84
0.95
-0.76
4.42
3.8
-2.86
0.86
0.02
-0.24
-0.33

> <PUBCHEM_SHAPE_SELFOVERLAP>
768.44

> <PUBCHEM_SHAPE_VOLUME>
220.2

> <PUBCHEM_COORDINATE_TYPE>
2
5
10

$$$$
