139584037
  -OEChem-03292013293D

 74 77  0     1  0  0  0  0  0999 V2000
    3.1968    2.7720   -0.0141 O   0  0  0  0  0  0  0  0  0  0  0  0
   -2.8360   -4.1696   -0.6124 O   0  0  0  0  0  0  0  0  0  0  0  0
   -2.9046    3.4799   -0.6404 O   0  0  0  0  0  0  0  0  0  0  0  0
   -3.7523    0.0822    2.0150 O   0  0  0  0  0  0  0  0  0  0  0  0
   -5.4281    2.7022   -1.5435 O   0  0  0  0  0  0  0  0  0  0  0  0
   -2.9174   -1.8443   -0.4436 N   0  0  0  0  0  0  0  0  0  0  0  0
   -6.1848    0.8211   -0.3600 N   0  0  0  0  0  0  0  0  0  0  0  0
    4.5061    0.2641    0.8146 C   0  0  1  0  0  0  0  0  0  0  0  0
    4.7799   -1.2439    1.0272 C   0  0  2  0  0  0  0  0  0  0  0  0
    5.7838    0.8422    0.1653 C   0  0  2  0  0  0  0  0  0  0  0  0
    3.2442    0.3411   -0.0873 C   0  0  1  0  0  0  0  0  0  0  0  0
    6.4463   -0.3873   -0.4881 C   0  0  2  0  0  0  0  0  0  0  0  0
    6.1939   -1.5107    0.5174 C   0  0  0  0  0  0  0  0  0  0  0  0
    3.6942   -1.9830    0.2451 C   0  0  0  0  0  0  0  0  0  0  0  0
    2.5264   -0.9979    0.2043 C   0  0  2  0  0  0  0  0  0  0  0  0
    2.3957    1.6058    0.1887 C   0  0  2  0  0  0  0  0  0  0  0  0
    7.9164   -0.2384   -0.8482 C   0  0  0  0  0  0  0  0  0  0  0  0
    6.6513    1.5406    1.2164 C   0  0  0  0  0  0  0  0  0  0  0  0
    1.5101   -1.4042   -0.8276 C   0  0  0  0  0  0  0  0  0  0  0  0
    8.1355    0.8776   -1.8549 C   0  0  0  0  0  0  0  0  0  0  0  0
    1.2226    1.7419   -0.7436 C   0  0  0  0  0  0  0  0  0  0  0  0
    0.3466   -2.0420   -0.6236 C   0  0  0  0  0  0  0  0  0  0  0  0
   -0.0749    1.9135   -0.4428 C   0  0  0  0  0  0  0  0  0  0  0  0
   -0.1431   -2.5556    0.6380 C   0  0  0  0  0  0  0  0  0  0  0  0
   -0.6528    2.0215    0.8789 C   0  0  0  0  0  0  0  0  0  0  0  0
   -1.3596   -3.0724    0.8664 C   0  0  0  0  0  0  0  0  0  0  0  0
   -1.9462    2.2361    1.1729 C   0  0  0  0  0  0  0  0  0  0  0  0
   -2.4354   -3.1058   -0.1543 C   0  0  0  0  0  0  0  0  0  0  0  0
   -3.0479    2.4269    0.2473 C   0  0  0  0  0  0  0  0  0  0  0  0
   -4.1603    1.6790    0.2483 C   0  0  0  0  0  0  0  0  0  0  0  0
   -5.8159   -0.0444    0.7472 C   0  0  1  0  0  0  0  0  0  0  0  0
   -3.9563   -1.5851   -1.4184 C   0  0  0  0  0  0  0  0  0  0  0  0
   -5.8105   -1.5377    0.4321 C   0  0  0  0  0  0  0  0  0  0  0  0
   -5.3561   -1.9907   -0.9634 C   0  0  0  0  0  0  0  0  0  0  0  0
   -4.4648    0.5160    1.1248 C   0  0  0  0  0  0  0  0  0  0  0  0
   -5.3029    1.8494   -0.6835 C   0  0  0  0  0  0  0  0  0  0  0  0
    4.2982    0.7388    1.7819 H   0  0  0  0  0  0  0  0  0  0  0  0
    4.7030   -1.5018    2.0903 H   0  0  0  0  0  0  0  0  0  0  0  0
    5.5334    1.5851   -0.6007 H   0  0  0  0  0  0  0  0  0  0  0  0
    3.5701    0.3628   -1.1383 H   0  0  0  0  0  0  0  0  0  0  0  0
    5.8917   -0.6247   -1.4074 H   0  0  0  0  0  0  0  0  0  0  0  0
    6.9040   -1.4484    1.3509 H   0  0  0  0  0  0  0  0  0  0  0  0
    6.3040   -2.5029    0.0677 H   0  0  0  0  0  0  0  0  0  0  0  0
    3.4204   -2.9227    0.7375 H   0  0  0  0  0  0  0  0  0  0  0  0
    4.0337   -2.2330   -0.7685 H   0  0  0  0  0  0  0  0  0  0  0  0
    2.0684   -0.9344    1.1996 H   0  0  0  0  0  0  0  0  0  0  0  0
    2.0925    1.6049    1.2396 H   0  0  0  0  0  0  0  0  0  0  0  0
    8.5306   -0.0590    0.0413 H   0  0  0  0  0  0  0  0  0  0  0  0
    8.2761   -1.1790   -1.2834 H   0  0  0  0  0  0  0  0  0  0  0  0
    7.5470    1.9892    0.7793 H   0  0  0  0  0  0  0  0  0  0  0  0
    6.0883    2.3527    1.6901 H   0  0  0  0  0  0  0  0  0  0  0  0
    6.9674    0.8539    2.0081 H   0  0  0  0  0  0  0  0  0  0  0  0
    1.7460   -1.1377   -1.8574 H   0  0  0  0  0  0  0  0  0  0  0  0
    7.5561    0.7001   -2.7670 H   0  0  0  0  0  0  0  0  0  0  0  0
    9.1927    0.9231   -2.1362 H   0  0  0  0  0  0  0  0  0  0  0  0
    7.8576    1.8588   -1.4622 H   0  0  0  0  0  0  0  0  0  0  0  0
    1.4709    1.7029   -1.8045 H   0  0  0  0  0  0  0  0  0  0  0  0
    2.6730    3.5430    0.2645 H   0  0  0  0  0  0  0  0  0  0  0  0
   -0.2710   -2.2244   -1.5004 H   0  0  0  0  0  0  0  0  0  0  0  0
   -0.7615    1.9848   -1.2834 H   0  0  0  0  0  0  0  0  0  0  0  0
    0.5553   -2.5621    1.4711 H   0  0  0  0  0  0  0  0  0  0  0  0
    0.0207    1.9039    1.7234 H   0  0  0  0  0  0  0  0  0  0  0  0
   -1.6080   -3.4882    1.8375 H   0  0  0  0  0  0  0  0  0  0  0  0
   -2.2224    2.2601    2.2261 H   0  0  0  0  0  0  0  0  0  0  0  0
   -2.5099   -1.0396    0.0240 H   0  0  0  0  0  0  0  0  0  0  0  0
   -6.5060    0.1708    1.5709 H   0  0  0  0  0  0  0  0  0  0  0  0
   -3.7030   -2.1352   -2.3322 H   0  0  0  0  0  0  0  0  0  0  0  0
   -3.9153   -0.5211   -1.6637 H   0  0  0  0  0  0  0  0  0  0  0  0
   -6.8416   -1.8985    0.5491 H   0  0  0  0  0  0  0  0  0  0  0  0
   -5.2248   -2.0704    1.1917 H   0  0  0  0  0  0  0  0  0  0  0  0
   -6.0781   -1.6398   -1.7113 H   0  0  0  0  0  0  0  0  0  0  0  0
   -5.4211   -3.0866   -0.9828 H   0  0  0  0  0  0  0  0  0  0  0  0
   -7.0759    0.7220   -0.8362 H   0  0  0  0  0  0  0  0  0  0  0  0
   -3.6872    3.5356   -1.2117 H   0  0  0  0  0  0  0  0  0  0  0  0
  1 16  1  0  0  0  0
  1 58  1  0  0  0  0
  2 28  2  0  0  0  0
  3 29  1  0  0  0  0
  3 74  1  0  0  0  0
  4 35  2  0  0  0  0
  5 36  2  0  0  0  0
  6 28  1  0  0  0  0
  6 32  1  0  0  0  0
  6 65  1  0  0  0  0
  7 31  1  0  0  0  0
  7 36  1  0  0  0  0
  7 73  1  0  0  0  0
  8  9  1  0  0  0  0
  8 10  1  0  0  0  0
  8 11  1  0  0  0  0
  8 37  1  0  0  0  0
  9 13  1  0  0  0  0
  9 14  1  0  0  0  0
  9 38  1  0  0  0  0
 10 12  1  0  0  0  0
 10 18  1  0  0  0  0
 10 39  1  0  0  0  0
 11 15  1  0  0  0  0
 11 16  1  0  0  0  0
 11 40  1  0  0  0  0
 12 13  1  0  0  0  0
 12 17  1  0  0  0  0
 12 41  1  0  0  0  0
 13 42  1  0  0  0  0
 13 43  1  0  0  0  0
 14 15  1  0  0  0  0
 14 44  1  0  0  0  0
 14 45  1  0  0  0  0
 15 19  1  0  0  0  0
 15 46  1  0  0  0  0
 16 21  1  0  0  0  0
 16 47  1  0  0  0  0
 17 20  1  0  0  0  0
 17 48  1  0  0  0  0
 17 49  1  0  0  0  0
 18 50  1  0  0  0  0
 18 51  1  0  0  0  0
 18 52  1  0  0  0  0
 19 22  2  0  0  0  0
 19 53  1  0  0  0  0
 20 54  1  0  0  0  0
 20 55  1  0  0  0  0
 20 56  1  0  0  0  0
 21 23  2  0  0  0  0
 21 57  1  0  0  0  0
 22 24  1  0  0  0  0
 22 59  1  0  0  0  0
 23 25  1  0  0  0  0
 23 60  1  0  0  0  0
 24 26  2  0  0  0  0
 24 61  1  0  0  0  0
 25 27  2  0  0  0  0
 25 62  1  0  0  0  0
 26 28  1  0  0  0  0
 26 63  1  0  0  0  0
 27 29  1  0  0  0  0
 27 64  1  0  0  0  0
 29 30  2  0  0  0  0
 30 35  1  0  0  0  0
 30 36  1  0  0  0  0
 31 33  1  0  0  0  0
 31 35  1  0  0  0  0
 31 66  1  0  0  0  0
 32 34  1  0  0  0  0
 32 67  1  0  0  0  0
 32 68  1  0  0  0  0
 33 34  1  0  0  0  0
 33 69  1  0  0  0  0
 33 70  1  0  0  0  0
 34 71  1  0  0  0  0
 34 72  1  0  0  0  0
M  END
> <PUBCHEM_COMPOUND_CID>
139584037

> <PUBCHEM_CONFORMER_RMSD>
0.8

> <PUBCHEM_CONFORMER_DIVERSEORDER>
1
6
4
5
3
2

> <PUBCHEM_MMFF94_PARTIAL_CHARGES>
36
1 -0.68
15 0.14
16 0.42
19 -0.29
2 -0.57
21 -0.29
22 -0.15
23 -0.15
24 -0.15
25 -0.15
26 -0.14
27 -0.15
28 0.62
29 0.08
3 -0.53
30 0.03
31 0.36
32 0.3
35 0.49
36 0.62
4 -0.57
5 -0.57
53 0.15
57 0.15
58 0.4
59 0.15
6 -0.73
60 0.15
61 0.15
62 0.15
63 0.15
64 0.15
65 0.37
7 -0.73
73 0.37
74 0.45

> <PUBCHEM_EFFECTIVE_ROTOR_COUNT>
3

> <PUBCHEM_PHARMACOPHORE_FEATURES>
13
1 1 acceptor
1 1 donor
1 2 acceptor
1 20 hydrophobe
1 3 donor
1 30 anion
1 4 acceptor
1 5 acceptor
1 6 donor
1 7 donor
5 7 30 31 35 36 rings
5 8 9 10 12 13 rings
5 8 9 11 14 15 rings

> <PUBCHEM_HEAVY_ATOM_COUNT>
36

> <PUBCHEM_ATOM_DEF_STEREO_COUNT>
8

> <PUBCHEM_ATOM_UDEF_STEREO_COUNT>
0

> <PUBCHEM_BOND_DEF_STEREO_COUNT>
5

> <PUBCHEM_BOND_UDEF_STEREO_COUNT>
0

> <PUBCHEM_ISOTOPIC_ATOM_COUNT>
0

> <PUBCHEM_COMPONENT_COUNT>
1

> <PUBCHEM_CACTVS_TAUTO_COUNT>
-1

> <PUBCHEM_CONFORMER_ID>
0851E22500000001

> <PUBCHEM_MMFF94_ENERGY>
97.4151

> <PUBCHEM_FEATURE_SELFOVERLAP>
66.342

> <PUBCHEM_SHAPE_FINGERPRINT>
100830 39 18410575084753152578
10454371 7 18273501186711411176
10815517 723 18409726291830367894
10864689 126 17979075976937948372
11007060 377 18335982055497932072
11136131 41 18116427047312436162
11513181 2 18129941174572474159
11578080 2 17201618156344065890
117089 54 17972890430186406827
12522641 33 18119237365380194429
13383665 225 18191314974076134020
13402501 40 18342175561827070121
13560911 43 18261669363580856131
13811026 1 18340481274353735899
14117953 113 18410857633957205245
14394314 77 18342179947479900689
1454969 45 18334301955214316508
14765038 42 18059025973531750705
14856354 85 18339646744991805462
15001296 14 18191577751730214112
15183329 4 18410290333096378562
15274700 232 16826716181489003498
15297060 5 17917434198970211275
15328829 1 17749968734131404198
15351339 4 18334842914576778971
15361156 5 18113344093590041677
15406563 185 18271802463143866970
15439362 3 17832136127387574789
15629462 23 16629416748603621544
15728490 51 18413388757322244244
15890870 6 18409164382097990191
16112460 7 18199761262183269595
17627616 140 18263355902701963155
18336668 15 18261112989264718797
20511986 3 17822844282451393633
20721686 56 18265614467458203163
21026386 80 15357701882456474302
21133410 90 17131271393239414771
21236236 1 18342737429317058570
21796203 349 18047508692067913049
23559900 14 18272077344496848265
338550 245 18334577949290420613
350125 39 18411136939742958484
392239 28 18412549782473080371
4144715 1 18335990830206899242
463206 1 18340490066805866737
6036956 94 18121214278100654661
6086070 43 17703508878805384522
6328613 192 18261117417581631806
7226269 152 18343300357995824291

> <PUBCHEM_SHAPE_MULTIPOLES>
701.55
19.76
4.1
1.31
20.66
1.04
0.05
-2.61
3.19
-4.77
0.35
0.05
-0.17
-0.28

> <PUBCHEM_SHAPE_SELFOVERLAP>
1473.708

> <PUBCHEM_SHAPE_VOLUME>
393.7

> <PUBCHEM_COORDINATE_TYPE>
2
5
10

$$$$
