139586745
  -OEChem-03292013293D

 53 55  0     1  0  0  0  0  0999 V2000
   -6.6285   -0.2022    0.1496 S   0  0  0  0  0  0  0  0  0  0  0  0
   -0.4955   -1.7215    0.5811 O   0  0  0  0  0  0  0  0  0  0  0  0
   -0.6732    1.3673   -1.2310 O   0  0  0  0  0  0  0  0  0  0  0  0
   -2.2790   -4.1531    0.4929 O   0  0  0  0  0  0  0  0  0  0  0  0
   -3.8728    1.2280   -1.8927 O   0  0  0  0  0  0  0  0  0  0  0  0
    1.5874   -0.5746    0.0597 N   0  0  0  0  0  0  0  0  0  0  0  0
   -2.8757    0.0569   -0.1562 N   0  0  0  0  0  0  0  0  0  0  0  0
    3.5747   -1.4868   -0.3739 N   0  0  0  0  0  0  0  0  0  0  0  0
    2.2890    1.6481    0.7433 N   0  0  0  0  0  0  0  0  0  0  0  0
   -4.2240    3.0876    0.3013 N   0  0  0  0  0  0  0  0  0  0  0  0
    6.1524    0.0892   -0.0304 N   0  0  0  0  0  0  0  0  0  0  0  0
    4.7172    1.8772    0.6550 N   0  0  0  0  0  0  0  0  0  0  0  0
   -1.9636   -0.7053   -0.9766 C   0  0  1  0  0  0  0  0  0  0  0  0
   -0.6030   -0.0383   -1.0979 C   0  0  2  0  0  0  0  0  0  0  0  0
   -1.5612   -2.0319   -0.3392 C   0  0  2  0  0  0  0  0  0  0  0  0
    0.0882   -0.4567    0.1996 C   0  0  1  0  0  0  0  0  0  0  0  0
   -2.6595   -2.7912    0.3829 C   0  0  0  0  0  0  0  0  0  0  0  0
    2.5131    0.3962    0.3167 C   0  0  0  0  0  0  0  0  0  0  0  0
   -3.7667    0.9734   -0.6944 C   0  0  0  0  0  0  0  0  0  0  0  0
    2.2735   -1.6865   -0.3518 C   0  0  0  0  0  0  0  0  0  0  0  0
    3.7386   -0.1892    0.0416 C   0  0  0  0  0  0  0  0  0  0  0  0
   -4.5993    1.6738    0.3766 C   0  0  2  0  0  0  0  0  0  0  0  0
    4.8686    0.6013    0.2253 C   0  0  0  0  0  0  0  0  0  0  0  0
   -6.1051    1.5423    0.1341 C   0  0  0  0  0  0  0  0  0  0  0  0
    3.4555    2.3149    0.8839 C   0  0  0  0  0  0  0  0  0  0  0  0
    6.3245   -1.2765   -0.4918 C   0  0  0  0  0  0  0  0  0  0  0  0
    7.3293    0.9190    0.1549 C   0  0  0  0  0  0  0  0  0  0  0  0
   -6.6048   -0.4615    1.9373 C   0  0  0  0  0  0  0  0  0  0  0  0
   -2.4275   -0.8547   -1.9575 H   0  0  0  0  0  0  0  0  0  0  0  0
   -0.0655   -0.4404   -1.9661 H   0  0  0  0  0  0  0  0  0  0  0  0
   -1.1123   -2.6769   -1.1069 H   0  0  0  0  0  0  0  0  0  0  0  0
   -0.0731    0.2555    1.0175 H   0  0  0  0  0  0  0  0  0  0  0  0
   -3.5946   -2.7578   -0.1848 H   0  0  0  0  0  0  0  0  0  0  0  0
   -2.8261   -2.4019    1.3922 H   0  0  0  0  0  0  0  0  0  0  0  0
   -2.8057   -0.0388    0.8526 H   0  0  0  0  0  0  0  0  0  0  0  0
   -1.1958    1.5581   -2.0284 H   0  0  0  0  0  0  0  0  0  0  0  0
    1.7776   -2.6077   -0.6256 H   0  0  0  0  0  0  0  0  0  0  0  0
   -4.3408    1.3104    1.3765 H   0  0  0  0  0  0  0  0  0  0  0  0
   -3.0001   -4.6160    0.9526 H   0  0  0  0  0  0  0  0  0  0  0  0
   -6.3695    1.9403   -0.8527 H   0  0  0  0  0  0  0  0  0  0  0  0
   -6.6844    2.1053    0.8742 H   0  0  0  0  0  0  0  0  0  0  0  0
   -3.2429    3.1948    0.5577 H   0  0  0  0  0  0  0  0  0  0  0  0
   -4.7554    3.6195    0.9898 H   0  0  0  0  0  0  0  0  0  0  0  0
    3.3718    3.3406    1.2267 H   0  0  0  0  0  0  0  0  0  0  0  0
    7.3836   -1.5161   -0.6413 H   0  0  0  0  0  0  0  0  0  0  0  0
    5.8399   -1.4346   -1.4612 H   0  0  0  0  0  0  0  0  0  0  0  0
    5.9540   -1.9969    0.2454 H   0  0  0  0  0  0  0  0  0  0  0  0
    8.2552    0.3828   -0.0776 H   0  0  0  0  0  0  0  0  0  0  0  0
    7.4013    1.2580    1.1942 H   0  0  0  0  0  0  0  0  0  0  0  0
    7.2874    1.7969   -0.4990 H   0  0  0  0  0  0  0  0  0  0  0  0
   -5.5858   -0.4041    2.3270 H   0  0  0  0  0  0  0  0  0  0  0  0
   -7.2379    0.2719    2.4435 H   0  0  0  0  0  0  0  0  0  0  0  0
   -6.9950   -1.4594    2.1559 H   0  0  0  0  0  0  0  0  0  0  0  0
  1 24  1  0  0  0  0
  1 28  1  0  0  0  0
  2 15  1  0  0  0  0
  2 16  1  0  0  0  0
  3 14  1  0  0  0  0
  3 36  1  0  0  0  0
  4 17  1  0  0  0  0
  4 39  1  0  0  0  0
  5 19  2  0  0  0  0
  6 16  1  0  0  0  0
  6 18  1  0  0  0  0
  6 20  1  0  0  0  0
  7 13  1  0  0  0  0
  7 19  1  0  0  0  0
  7 35  1  0  0  0  0
  8 20  2  0  0  0  0
  8 21  1  0  0  0  0
  9 18  1  0  0  0  0
  9 25  2  0  0  0  0
 10 22  1  0  0  0  0
 10 42  1  0  0  0  0
 10 43  1  0  0  0  0
 11 23  1  0  0  0  0
 11 26  1  0  0  0  0
 11 27  1  0  0  0  0
 12 23  2  0  0  0  0
 12 25  1  0  0  0  0
 13 14  1  0  0  0  0
 13 15  1  0  0  0  0
 13 29  1  0  0  0  0
 14 16  1  0  0  0  0
 14 30  1  0  0  0  0
 15 17  1  0  0  0  0
 15 31  1  0  0  0  0
 16 32  1  0  0  0  0
 17 33  1  0  0  0  0
 17 34  1  0  0  0  0
 18 21  2  0  0  0  0
 19 22  1  0  0  0  0
 20 37  1  0  0  0  0
 21 23  1  0  0  0  0
 22 24  1  0  0  0  0
 22 38  1  0  0  0  0
 24 40  1  0  0  0  0
 24 41  1  0  0  0  0
 25 44  1  0  0  0  0
 26 45  1  0  0  0  0
 26 46  1  0  0  0  0
 26 47  1  0  0  0  0
 27 48  1  0  0  0  0
 27 49  1  0  0  0  0
 27 50  1  0  0  0  0
 28 51  1  0  0  0  0
 28 52  1  0  0  0  0
 28 53  1  0  0  0  0
M  END
> <PUBCHEM_COMPOUND_CID>
139586745

> <PUBCHEM_CONFORMER_RMSD>
1

> <PUBCHEM_CONFORMER_DIVERSEORDER>
1
28
32
4
29
86
44
18
64
24
77
14
81
7
30
58
54
59
66
56
40
70
17
90
31
35
73
38
46
20
65
55
48
51
8
87
15
53
88
80
84
27
45
11
25
19
22
13
41
67
72
6
52
89
92
61
34
23
43
16
60
83
82
21
5
39
33
10
36
42
49
76
50
37
91
85
74
12
26
9
57
62
47
3
2
63
79
68
78
71
69
75

> <PUBCHEM_MMFF94_PARTIAL_CHARGES>
35
1 -0.46
10 -0.99
11 -0.84
12 -0.62
13 0.3
14 0.28
15 0.28
16 0.54
17 0.28
18 0.11
19 0.57
2 -0.56
20 0.04
21 0.23
22 0.33
23 0.41
24 0.23
25 0.47
26 0.37
27 0.37
28 0.23
3 -0.68
35 0.37
36 0.4
37 0.15
39 0.4
4 -0.68
42 0.36
43 0.36
44 0.15
5 -0.57
6 0.05
7 -0.73
8 -0.57
9 -0.57

> <PUBCHEM_EFFECTIVE_ROTOR_COUNT>
9

> <PUBCHEM_PHARMACOPHORE_FEATURES>
16
1 10 cation
1 10 donor
1 2 acceptor
1 28 hydrophobe
1 3 acceptor
1 3 donor
1 4 acceptor
1 4 donor
1 5 acceptor
1 7 donor
3 11 12 23 cation
3 6 8 20 cation
3 9 12 25 cation
5 2 13 14 15 16 rings
5 6 8 18 20 21 rings
6 9 12 18 21 23 25 rings

> <PUBCHEM_HEAVY_ATOM_COUNT>
28

> <PUBCHEM_ATOM_DEF_STEREO_COUNT>
3

> <PUBCHEM_ATOM_UDEF_STEREO_COUNT>
2

> <PUBCHEM_BOND_DEF_STEREO_COUNT>
0

> <PUBCHEM_BOND_UDEF_STEREO_COUNT>
0

> <PUBCHEM_ISOTOPIC_ATOM_COUNT>
0

> <PUBCHEM_COMPONENT_COUNT>
1

> <PUBCHEM_CACTVS_TAUTO_COUNT>
-1

> <PUBCHEM_CONFORMER_ID>
0851ECB900000001

> <PUBCHEM_MMFF94_ENERGY>
68.6914

> <PUBCHEM_FEATURE_SELFOVERLAP>
81.447

> <PUBCHEM_SHAPE_FINGERPRINT>
10 15 18187085074146667801
11405975 8 18410284835627553362
11578080 2 16413765297661489248
12236239 1 16917060066934272668
12730499 353 18409731733992079906
12788726 201 17489025933671877336
13914758 101 14476971055787215156
14251764 18 18411979161164833796
1454969 45 9006761117376222682
14856354 85 15864080857439916777
15183329 4 17988920046581614180
15927050 60 18410571760686699703
17844677 252 18265899236505524200
17857418 61 7997967985572027164
18608769 82 18411139173310614443
20645477 56 18335699447003484255
21033648 29 18336248069104800741
21033650 10 13470414340553348443
21236236 1 18341046419721585495
21756936 100 18342451535267133565
23559900 14 18341606032548117130
2838139 119 17989199343783351109
3009799 131 11815895647959751393
335352 9 18342455929240204196
3545911 37 18411698794363479940
392239 28 18341905087000303937
4073 2 18335420218706308066
4098825 35 18272369806152219778
4325135 7 18131628998594118261
5104073 3 18336815507461726434
59755656 520 18408036304168150079
633830 44 18128247888289626031
9995097 60 18342178890237171018

> <PUBCHEM_SHAPE_MULTIPOLES>
521.73
17.65
2.99
1.1
4.33
1.42
0.05
-5.94
-3.33
-2.1
-0.55
-1.36
-0.15
1.44

> <PUBCHEM_SHAPE_SELFOVERLAP>
1080.721

> <PUBCHEM_SHAPE_VOLUME>
302.1

> <PUBCHEM_COORDINATE_TYPE>
2
5
10

$$$$
