139587223
  -OEChem-03292013293D

 62 64  0     1  0  0  0  0  0999 V2000
    1.2808    0.1521   -0.7512 O   0  0  0  0  0  0  0  0  0  0  0  0
    3.7998   -2.4035    0.0664 O   0  0  0  0  0  0  0  0  0  0  0  0
    2.6635    1.4598    1.5224 O   0  0  0  0  0  0  0  0  0  0  0  0
    2.6109   -1.1581   -2.1939 O   0  0  0  0  0  0  0  0  0  0  0  0
    4.8242   -0.0195   -1.0027 O   0  0  0  0  0  0  0  0  0  0  0  0
   -1.3923   -1.0459    0.2575 O   0  0  0  0  0  0  0  0  0  0  0  0
   -1.4835    1.3057   -1.1702 O   0  0  0  0  0  0  0  0  0  0  0  0
   -0.3974   -1.2691    2.3268 O   0  0  0  0  0  0  0  0  0  0  0  0
    2.1120    1.3222   -0.8514 C   0  0  1  0  0  0  0  0  0  0  0  0
    1.2063    2.5864   -0.9080 C   0  0  1  0  0  0  0  0  0  0  0  0
    3.2216    1.3166    0.2223 C   0  0  2  0  0  0  0  0  0  0  0  0
    1.9800   -1.0927   -0.9047 C   0  0  1  0  0  0  0  0  0  0  0  0
    3.0633   -1.1922    0.1863 C   0  0  2  0  0  0  0  0  0  0  0  0
    4.0203    0.0080    0.1744 C   0  0  1  0  0  0  0  0  0  0  0  0
    0.3558    2.9418    0.3389 C   0  0  0  0  0  0  0  0  0  0  0  0
   -0.4798    1.8300    1.0145 C   0  0  2  0  0  0  0  0  0  0  0  0
    0.9586   -2.2577   -0.8644 C   0  0  0  0  0  0  0  0  0  0  0  0
    2.0343    3.8213   -1.3011 C   0  0  0  0  0  0  0  0  0  0  0  0
   -1.7433    1.3805    0.2292 C   0  0  2  0  0  0  0  0  0  0  0  0
    0.3416   -2.6302    0.4860 C   0  0  0  0  0  0  0  0  0  0  0  0
   -2.2922    0.0056    0.6911 C   0  0  1  0  0  0  0  0  0  0  0  0
   -0.8885    2.3110    2.4188 C   0  0  0  0  0  0  0  0  0  0  0  0
   -0.4990   -1.5643    1.1426 C   0  0  0  0  0  0  0  0  0  0  0  0
   -3.6747   -0.2592    0.1189 C   0  0  0  0  0  0  0  0  0  0  0  0
    4.3650   -2.7933    1.3098 C   0  0  0  0  0  0  0  0  0  0  0  0
   -4.8098    0.1435    0.8224 C   0  0  0  0  0  0  0  0  0  0  0  0
   -3.8086   -0.9051   -1.1100 C   0  0  0  0  0  0  0  0  0  0  0  0
   -6.0790   -0.0997    0.2970 C   0  0  0  0  0  0  0  0  0  0  0  0
   -5.0775   -1.1483   -1.6356 C   0  0  0  0  0  0  0  0  0  0  0  0
   -6.2128   -0.7457   -0.9320 C   0  0  0  0  0  0  0  0  0  0  0  0
    2.6043    1.2725   -1.8325 H   0  0  0  0  0  0  0  0  0  0  0  0
    0.5149    2.4231   -1.7412 H   0  0  0  0  0  0  0  0  0  0  0  0
    3.8923    2.1658    0.0513 H   0  0  0  0  0  0  0  0  0  0  0  0
    2.5479   -1.1704    1.1564 H   0  0  0  0  0  0  0  0  0  0  0  0
    4.7028   -0.0440    1.0288 H   0  0  0  0  0  0  0  0  0  0  0  0
    1.0339    3.3696    1.0894 H   0  0  0  0  0  0  0  0  0  0  0  0
   -0.3226    3.7635    0.0695 H   0  0  0  0  0  0  0  0  0  0  0  0
    0.1764    0.9752    1.1695 H   0  0  0  0  0  0  0  0  0  0  0  0
    1.4431   -3.1600   -1.2622 H   0  0  0  0  0  0  0  0  0  0  0  0
    0.1483   -2.0288   -1.5701 H   0  0  0  0  0  0  0  0  0  0  0  0
    2.7285    4.1133   -0.5067 H   0  0  0  0  0  0  0  0  0  0  0  0
    1.3790    4.6762   -1.5014 H   0  0  0  0  0  0  0  0  0  0  0  0
    2.6148    3.6316   -2.2101 H   0  0  0  0  0  0  0  0  0  0  0  0
   -2.5253    2.1395    0.3659 H   0  0  0  0  0  0  0  0  0  0  0  0
    1.1237   -2.9338    1.1894 H   0  0  0  0  0  0  0  0  0  0  0  0
   -0.3060   -3.5060    0.3553 H   0  0  0  0  0  0  0  0  0  0  0  0
   -2.3868   -0.0288    1.7821 H   0  0  0  0  0  0  0  0  0  0  0  0
   -1.5415    3.1885    2.3603 H   0  0  0  0  0  0  0  0  0  0  0  0
   -0.0062    2.5867    3.0070 H   0  0  0  0  0  0  0  0  0  0  0  0
   -1.4147    1.5329    2.9784 H   0  0  0  0  0  0  0  0  0  0  0  0
    3.3986    1.4894    2.1580 H   0  0  0  0  0  0  0  0  0  0  0  0
    1.9376   -1.4015   -2.8512 H   0  0  0  0  0  0  0  0  0  0  0  0
    5.4175    0.7502   -0.9708 H   0  0  0  0  0  0  0  0  0  0  0  0
   -1.6000    2.2001   -1.5339 H   0  0  0  0  0  0  0  0  0  0  0  0
    4.8533   -3.7616    1.1672 H   0  0  0  0  0  0  0  0  0  0  0  0
    3.5908   -2.9154    2.0738 H   0  0  0  0  0  0  0  0  0  0  0  0
    5.1244   -2.0838    1.6472 H   0  0  0  0  0  0  0  0  0  0  0  0
   -4.7184    0.6498    1.7796 H   0  0  0  0  0  0  0  0  0  0  0  0
   -2.9411   -1.2206   -1.6831 H   0  0  0  0  0  0  0  0  0  0  0  0
   -6.9628    0.2145    0.8443 H   0  0  0  0  0  0  0  0  0  0  0  0
   -5.1819   -1.6492   -2.5937 H   0  0  0  0  0  0  0  0  0  0  0  0
   -7.2008   -0.9346   -1.3416 H   0  0  0  0  0  0  0  0  0  0  0  0
  1  9  1  0  0  0  0
  1 12  1  0  0  0  0
  2 13  1  0  0  0  0
  2 25  1  0  0  0  0
  3 11  1  0  0  0  0
  3 51  1  0  0  0  0
  4 12  1  0  0  0  0
  4 52  1  0  0  0  0
  5 14  1  0  0  0  0
  5 53  1  0  0  0  0
  6 21  1  0  0  0  0
  6 23  1  0  0  0  0
  7 19  1  0  0  0  0
  7 54  1  0  0  0  0
  8 23  2  0  0  0  0
  9 10  1  0  0  0  0
  9 11  1  0  0  0  0
  9 31  1  0  0  0  0
 10 15  1  0  0  0  0
 10 18  1  0  0  0  0
 10 32  1  0  0  0  0
 11 14  1  0  0  0  0
 11 33  1  0  0  0  0
 12 13  1  0  0  0  0
 12 17  1  0  0  0  0
 13 14  1  0  0  0  0
 13 34  1  0  0  0  0
 14 35  1  0  0  0  0
 15 16  1  0  0  0  0
 15 36  1  0  0  0  0
 15 37  1  0  0  0  0
 16 19  1  0  0  0  0
 16 22  1  0  0  0  0
 16 38  1  0  0  0  0
 17 20  1  0  0  0  0
 17 39  1  0  0  0  0
 17 40  1  0  0  0  0
 18 41  1  0  0  0  0
 18 42  1  0  0  0  0
 18 43  1  0  0  0  0
 19 21  1  0  0  0  0
 19 44  1  0  0  0  0
 20 23  1  0  0  0  0
 20 45  1  0  0  0  0
 20 46  1  0  0  0  0
 21 24  1  0  0  0  0
 21 47  1  0  0  0  0
 22 48  1  0  0  0  0
 22 49  1  0  0  0  0
 22 50  1  0  0  0  0
 24 26  2  0  0  0  0
 24 27  1  0  0  0  0
 25 55  1  0  0  0  0
 25 56  1  0  0  0  0
 25 57  1  0  0  0  0
 26 28  1  0  0  0  0
 26 58  1  0  0  0  0
 27 29  2  0  0  0  0
 27 59  1  0  0  0  0
 28 30  2  0  0  0  0
 28 60  1  0  0  0  0
 29 30  1  0  0  0  0
 29 61  1  0  0  0  0
 30 62  1  0  0  0  0
M  END
> <PUBCHEM_COMPOUND_CID>
139587223

> <PUBCHEM_CONFORMER_RMSD>
0.8

> <PUBCHEM_CONFORMER_DIVERSEORDER>
2
51
47
39
36
65
61
37
60
68
41
49
63
38
32
70
27
5
28
48
10
29
19
55
43
53
17
15
18
26
1
14
23
3
42
69
25
57
58
50
52
66
13
40
67
30
33
11
7
6
46
22
31
24
59
20
16
62
8
44
64
35
21
56
9
34
54
4
12
45

> <PUBCHEM_MMFF94_PARTIAL_CHARGES>
33
1 -0.56
11 0.28
12 0.56
13 0.28
14 0.28
19 0.28
2 -0.56
20 0.06
21 0.42
23 0.66
24 -0.14
25 0.28
26 -0.15
27 -0.15
28 -0.15
29 -0.15
3 -0.68
30 -0.15
4 -0.68
5 -0.68
51 0.4
52 0.4
53 0.4
54 0.4
58 0.15
59 0.15
6 -0.43
60 0.15
61 0.15
62 0.15
7 -0.68
8 -0.57
9 0.28

> <PUBCHEM_EFFECTIVE_ROTOR_COUNT>
4.4

> <PUBCHEM_PHARMACOPHORE_FEATURES>
13
1 1 acceptor
1 2 acceptor
1 3 acceptor
1 3 donor
1 4 acceptor
1 4 donor
1 5 acceptor
1 5 donor
1 7 acceptor
1 7 donor
1 8 acceptor
6 1 9 11 12 13 14 rings
6 24 26 27 28 29 30 rings

> <PUBCHEM_HEAVY_ATOM_COUNT>
30

> <PUBCHEM_ATOM_DEF_STEREO_COUNT>
5

> <PUBCHEM_ATOM_UDEF_STEREO_COUNT>
4

> <PUBCHEM_BOND_DEF_STEREO_COUNT>
0

> <PUBCHEM_BOND_UDEF_STEREO_COUNT>
0

> <PUBCHEM_ISOTOPIC_ATOM_COUNT>
0

> <PUBCHEM_COMPONENT_COUNT>
1

> <PUBCHEM_CACTVS_TAUTO_COUNT>
-1

> <PUBCHEM_CONFORMER_ID>
0851EE9700000002

> <PUBCHEM_MMFF94_ENERGY>
98.2987

> <PUBCHEM_FEATURE_SELFOVERLAP>
66.033

> <PUBCHEM_SHAPE_FINGERPRINT>
10906281 52 18265628747565280432
11578080 2 16807593904469343652
11796584 16 15769500936871700805
12011746 2 18408611378987873310
12156800 1 16738287039531993736
12166972 35 17822295639007895406
12403260 363 18339078164636770050
12467345 10 17632296800434554631
12596599 1 17842571647109881520
12788726 201 18059024890577681697
13140716 1 18049442844700706912
13583140 156 17895201059806572043
13782708 43 17603877736714758931
14068700 675 18131352982040890240
14178342 30 17840592496273297978
14787075 74 18273214235271849849
15420108 30 17260760542472387481
16728300 4 17535159204386533770
17349148 13 18413392020769148851
17492 54 18114477737633609932
17818456 19 17701839699885410353
192875 21 18408889516236995970
20028762 73 18201714016320638142
20511986 3 17917700332318166621
20691752 17 17968388831380110912
20715895 44 18409162225681386141
21033648 29 16878493631517105821
23419403 2 18054757694756793824
23557571 272 17131843014578753323
23559900 14 18262802998571109896
238 59 18054796349498913221
27425 322 16228009465860115397
3004659 81 18201723959522264637
345986 75 18201433636770597153
3680242 22 18410015407881296147
439807 62 18198051681608703151
463206 1 18058727043533726519
474 4 18336829800849272679
484989 97 18119820363401929451
513532 50 17560810990913601596
57527585 103 17681309618217734731
58260988 393 15841559552305204763
6443956 14 18343301466082192513
6669772 16 17896875650190257696
70251023 43 17986973872272093591
8509985 295 18113330925261880074
9981440 41 17686618356687833080

> <PUBCHEM_SHAPE_MULTIPOLES>
570.43
10.44
3.53
1.76
12.9
1.56
-0.35
-4.49
2.16
-3.79
-0.09
0.02
0.19
-1.36

> <PUBCHEM_SHAPE_SELFOVERLAP>
1187.68

> <PUBCHEM_SHAPE_VOLUME>
317.6

> <PUBCHEM_COORDINATE_TYPE>
2
5
10

$$$$
