139583961
  -OEChem-03292013293D

 43 45  0     1  0  0  0  0  0999 V2000
   -3.9959   -1.6590    0.0709 O   0  0  0  0  0  0  0  0  0  0  0  0
   -4.7217    1.0211    0.6170 O   0  0  0  0  0  0  0  0  0  0  0  0
    0.3767   -2.7041   -0.7998 O   0  0  0  0  0  0  0  0  0  0  0  0
   -0.8034    2.6265   -0.4803 O   0  0  0  0  0  0  0  0  0  0  0  0
    2.9046   -2.0972   -0.6433 O   0  0  0  0  0  0  0  0  0  0  0  0
    1.5155    3.1199    0.4618 O   0  0  0  0  0  0  0  0  0  0  0  0
    4.7041   -0.3666    0.4505 O   0  0  0  0  0  0  0  0  0  0  0  0
   -1.2773   -0.9645   -0.9080 C   0  0  2  0  0  0  0  0  0  0  0  0
   -1.5265    0.4939   -1.3129 C   0  0  1  0  0  0  0  0  0  0  0  0
   -1.6827   -1.2415    0.5601 C   0  0  0  0  0  0  0  0  0  0  0  0
   -3.1365   -0.8239    0.8546 C   0  0  1  0  0  0  0  0  0  0  0  0
   -2.9684    0.9126   -0.9996 C   0  0  0  0  0  0  0  0  0  0  0  0
   -3.3541    0.6483    0.4593 C   0  0  1  0  0  0  0  0  0  0  0  0
    0.1766   -1.3569   -1.2251 C   0  0  1  0  0  0  0  0  0  0  0  0
   -0.5171    1.4478   -0.6756 C   0  0  0  0  0  0  0  0  0  0  0  0
    1.1791   -0.4050   -0.6178 C   0  0  0  0  0  0  0  0  0  0  0  0
    0.8434    0.9345   -0.3647 C   0  0  0  0  0  0  0  0  0  0  0  0
   -3.4666   -1.0817    2.3278 C   0  0  0  0  0  0  0  0  0  0  0  0
    2.4924   -0.8274   -0.3514 C   0  0  0  0  0  0  0  0  0  0  0  0
    1.7896    1.8136    0.1809 C   0  0  0  0  0  0  0  0  0  0  0  0
    3.4331    0.0500    0.1896 C   0  0  0  0  0  0  0  0  0  0  0  0
    3.0802    1.3679    0.4602 C   0  0  0  0  0  0  0  0  0  0  0  0
    4.9548   -0.9081    1.7458 C   0  0  0  0  0  0  0  0  0  0  0  0
   -1.9201   -1.6044   -1.5302 H   0  0  0  0  0  0  0  0  0  0  0  0
   -1.3773    0.5928   -2.3972 H   0  0  0  0  0  0  0  0  0  0  0  0
   -1.5702   -2.3146    0.7606 H   0  0  0  0  0  0  0  0  0  0  0  0
   -1.0067   -0.7179    1.2471 H   0  0  0  0  0  0  0  0  0  0  0  0
   -3.1278    1.9729   -1.2341 H   0  0  0  0  0  0  0  0  0  0  0  0
   -3.6564    0.3712   -1.6631 H   0  0  0  0  0  0  0  0  0  0  0  0
   -2.7642    1.2939    1.1214 H   0  0  0  0  0  0  0  0  0  0  0  0
    0.3295   -1.3350   -2.3121 H   0  0  0  0  0  0  0  0  0  0  0  0
   -2.8543   -0.4620    2.9908 H   0  0  0  0  0  0  0  0  0  0  0  0
   -3.3025   -2.1335    2.5890 H   0  0  0  0  0  0  0  0  0  0  0  0
   -4.5224   -0.8747    2.5351 H   0  0  0  0  0  0  0  0  0  0  0  0
   -3.8338   -2.5836    0.3250 H   0  0  0  0  0  0  0  0  0  0  0  0
   -4.7967    1.9658    0.3991 H   0  0  0  0  0  0  0  0  0  0  0  0
   -0.2538   -3.2626   -1.2859 H   0  0  0  0  0  0  0  0  0  0  0  0
    3.8138    2.0514    0.8810 H   0  0  0  0  0  0  0  0  0  0  0  0
    3.8531   -2.1768   -0.4440 H   0  0  0  0  0  0  0  0  0  0  0  0
    0.5711    3.3042    0.3491 H   0  0  0  0  0  0  0  0  0  0  0  0
    5.9977   -1.2343    1.7847 H   0  0  0  0  0  0  0  0  0  0  0  0
    4.3106   -1.7719    1.9384 H   0  0  0  0  0  0  0  0  0  0  0  0
    4.7980   -0.1449    2.5146 H   0  0  0  0  0  0  0  0  0  0  0  0
  1 11  1  0  0  0  0
  1 35  1  0  0  0  0
  2 13  1  0  0  0  0
  2 36  1  0  0  0  0
  3 14  1  0  0  0  0
  3 37  1  0  0  0  0
  4 15  2  0  0  0  0
  5 19  1  0  0  0  0
  5 39  1  0  0  0  0
  6 20  1  0  0  0  0
  6 40  1  0  0  0  0
  7 21  1  0  0  0  0
  7 23  1  0  0  0  0
  8  9  1  0  0  0  0
  8 10  1  0  0  0  0
  8 14  1  0  0  0  0
  8 24  1  0  0  0  0
  9 12  1  0  0  0  0
  9 15  1  0  0  0  0
  9 25  1  0  0  0  0
 10 11  1  0  0  0  0
 10 26  1  0  0  0  0
 10 27  1  0  0  0  0
 11 13  1  0  0  0  0
 11 18  1  0  0  0  0
 12 13  1  0  0  0  0
 12 28  1  0  0  0  0
 12 29  1  0  0  0  0
 13 30  1  0  0  0  0
 14 16  1  0  0  0  0
 14 31  1  0  0  0  0
 15 17  1  0  0  0  0
 16 17  2  0  0  0  0
 16 19  1  0  0  0  0
 17 20  1  0  0  0  0
 18 32  1  0  0  0  0
 18 33  1  0  0  0  0
 18 34  1  0  0  0  0
 19 21  2  0  0  0  0
 20 22  2  0  0  0  0
 21 22  1  0  0  0  0
 22 38  1  0  0  0  0
 23 41  1  0  0  0  0
 23 42  1  0  0  0  0
 23 43  1  0  0  0  0
M  END
> <PUBCHEM_COMPOUND_CID>
139583961

> <PUBCHEM_CONFORMER_RMSD>
0.6

> <PUBCHEM_CONFORMER_DIVERSEORDER>
1
6
7
9
3
4
5
8
2

> <PUBCHEM_MMFF94_PARTIAL_CHARGES>
25
1 -0.68
11 0.28
13 0.28
14 0.42
15 0.42
16 -0.14
17 0.09
19 0.08
2 -0.68
20 0.08
21 0.08
22 -0.15
23 0.28
3 -0.68
35 0.4
36 0.4
37 0.4
38 0.15
39 0.45
4 -0.57
40 0.45
5 -0.53
6 -0.53
7 -0.36
9 0.06

> <PUBCHEM_EFFECTIVE_ROTOR_COUNT>
2

> <PUBCHEM_PHARMACOPHORE_FEATURES>
13
1 1 acceptor
1 1 donor
1 2 acceptor
1 2 donor
1 3 acceptor
1 3 donor
1 4 acceptor
1 5 donor
1 6 donor
1 7 acceptor
6 16 17 19 20 21 22 rings
6 8 9 10 11 12 13 rings
6 8 9 14 15 16 17 rings

> <PUBCHEM_HEAVY_ATOM_COUNT>
23

> <PUBCHEM_ATOM_DEF_STEREO_COUNT>
2

> <PUBCHEM_ATOM_UDEF_STEREO_COUNT>
3

> <PUBCHEM_BOND_DEF_STEREO_COUNT>
0

> <PUBCHEM_BOND_UDEF_STEREO_COUNT>
0

> <PUBCHEM_ISOTOPIC_ATOM_COUNT>
0

> <PUBCHEM_COMPONENT_COUNT>
1

> <PUBCHEM_CACTVS_TAUTO_COUNT>
-1

> <PUBCHEM_CONFORMER_ID>
0851E1D900000001

> <PUBCHEM_MMFF94_ENERGY>
79.677

> <PUBCHEM_FEATURE_SELFOVERLAP>
66.081

> <PUBCHEM_SHAPE_FINGERPRINT>
10366900 7 18114465638278252539
10906281 52 18267024951270545749
10967382 1 18342167835297033700
11132069 177 18343303647598128567
11471102 22 18338526329884124037
11640471 11 16702030759606834491
12011746 2 18340211803705038301
12236239 1 16702015357743257013
12251169 10 18343304802970659431
12403260 363 18270394018433258295
12553582 1 18341607149081469156
12633257 1 18337686294495231563
12670546 177 10807930466329508891
13004483 165 17837764891786171415
13140716 1 18339919419548377140
13224815 77 18335704974256947516
13583140 156 17822837758506827526
13965767 371 16197095360483336105
14223421 5 18337955580059116245
14790565 3 18268158737175362348
15163728 17 13470140643266266282
15209289 33 17603583040979053538
15209294 21 17346591976553300418
15238133 3 18267883691416293741
15309172 13 18272929436011479966
15653759 3 18113899359709014797
16752209 62 15575257883734747351
16945 1 18342451569426587540
17804303 29 18335425681139486228
1813 80 17385732386846247966
18219364 16 18413101762552513533
19049666 15 18119248367993415311
19862831 5 11963386366787263695
200 152 18059284461901508735
20028762 73 17987232420766762935
20739085 24 18410858798072722504
22182313 1 18128534856645669758
23184049 59 18130790040418882214
2334 1 18196083571829374284
23493267 7 17677315113811469957
23503958 8 16805326608307880043
23559900 14 18042696000808202902
2748010 2 18409442604956270077
2838139 119 13901899038673914290
3286 77 18335983185290608431
3472631 163 14620801470467665395
4280585 95 7994650789715896376
5104073 3 18409445920671133232
568465 68 18341059570246203441

> <PUBCHEM_SHAPE_MULTIPOLES>
432.24
8.1
2.52
1.42
1.96
0.78
0.5
-1.77
4.2
0.46
-0.11
-0.53
-0.54
0.64

> <PUBCHEM_SHAPE_SELFOVERLAP>
941.209

> <PUBCHEM_SHAPE_VOLUME>
232.7

> <PUBCHEM_COORDINATE_TYPE>
2
5
10

$$$$
