139588420
  -OEChem-03292013293D

 63 64  0     1  0  0  0  0  0999 V2000
    0.7259    1.9553    2.9007 Cl  0  0  0  0  0  0  0  0  0  0  0  0
   -2.4440   -0.2127   -0.8565 O   0  0  0  0  0  0  0  0  0  0  0  0
   -0.6449    1.8595   -1.7560 O   0  0  0  0  0  0  0  0  0  0  0  0
    3.5849    0.7655   -1.0611 O   0  0  0  0  0  0  0  0  0  0  0  0
    1.5162   -0.4032   -2.2367 O   0  0  0  0  0  0  0  0  0  0  0  0
    3.1393    2.0136    1.2971 O   0  0  0  0  0  0  0  0  0  0  0  0
    2.9505   -0.9730    0.3167 O   0  0  0  0  0  0  0  0  0  0  0  0
    9.5889   -1.5642    0.0445 O   0  0  0  0  0  0  0  0  0  0  0  0
    8.0881   -0.0512    0.8266 O   0  0  0  0  0  0  0  0  0  0  0  0
   -0.1830    0.7609   -0.9755 C   0  0  1  0  0  0  0  0  0  0  0  0
    2.3284    1.3974   -0.8703 C   0  0  1  0  0  0  0  0  0  0  0  0
    1.2495    0.4839   -1.4244 C   0  0  0  0  0  0  0  0  0  0  0  0
   -0.2465    1.1366    0.4915 C   0  0  0  0  0  0  0  0  0  0  0  0
   -1.0824   -0.4546   -1.2352 C   0  0  0  0  0  0  0  0  0  0  0  0
    2.1733    1.6772    0.6112 C   0  0  0  0  0  0  0  0  0  0  0  0
    0.8119    1.5517    1.2162 C   0  0  0  0  0  0  0  0  0  0  0  0
    2.3640    2.7159   -1.6369 C   0  0  0  0  0  0  0  0  0  0  0  0
   -1.5896    0.9872    1.0489 C   0  0  0  0  0  0  0  0  0  0  0  0
   -2.5855    0.3772    0.3821 C   0  0  0  0  0  0  0  0  0  0  0  0
   -3.9200    0.2832    0.9093 C   0  0  0  0  0  0  0  0  0  0  0  0
    3.7635   -0.4206   -0.4054 C   0  0  0  0  0  0  0  0  0  0  0  0
   -8.6573   -1.3841    0.1706 C   0  0  1  0  0  0  0  0  0  0  0  0
   -4.9248   -0.3216    0.2573 C   0  0  0  0  0  0  0  0  0  0  0  0
   -6.3083   -0.4625    0.7208 C   0  0  0  0  0  0  0  0  0  0  0  0
   -7.1899   -1.1063   -0.0740 C   0  0  0  0  0  0  0  0  0  0  0  0
   -9.5392   -0.7551   -0.9247 C   0  0  0  0  0  0  0  0  0  0  0  0
    5.1291   -0.9081   -0.7173 C   0  0  0  0  0  0  0  0  0  0  0  0
   -8.8796   -2.8994    0.2163 C   0  0  0  0  0  0  0  0  0  0  0  0
   -6.6540    0.1310    2.0614 C   0  0  0  0  0  0  0  0  0  0  0  0
    5.8937   -1.6499    0.1058 C   0  0  0  0  0  0  0  0  0  0  0  0
   -9.4439    0.7649   -0.9714 C   0  0  0  0  0  0  0  0  0  0  0  0
    7.2952   -2.1283   -0.1833 C   0  0  0  0  0  0  0  0  0  0  0  0
    5.3646   -2.0421    1.4626 C   0  0  0  0  0  0  0  0  0  0  0  0
    8.3259   -1.1240    0.2889 C   0  0  0  0  0  0  0  0  0  0  0  0
   -1.1044   -0.6983   -2.3039 H   0  0  0  0  0  0  0  0  0  0  0  0
   -0.7223   -1.3482   -0.7078 H   0  0  0  0  0  0  0  0  0  0  0  0
    1.4882    3.3394   -1.4308 H   0  0  0  0  0  0  0  0  0  0  0  0
    2.4109    2.5398   -2.7178 H   0  0  0  0  0  0  0  0  0  0  0  0
    3.2553    3.2976   -1.3730 H   0  0  0  0  0  0  0  0  0  0  0  0
   -1.7890    1.4013    2.0329 H   0  0  0  0  0  0  0  0  0  0  0  0
   -0.7153    1.5659   -2.6805 H   0  0  0  0  0  0  0  0  0  0  0  0
   -4.0864    0.7337    1.8840 H   0  0  0  0  0  0  0  0  0  0  0  0
   -8.9868   -0.9826    1.1324 H   0  0  0  0  0  0  0  0  0  0  0  0
   -4.7347   -0.7666   -0.7186 H   0  0  0  0  0  0  0  0  0  0  0  0
   -6.8316   -1.4950   -1.0289 H   0  0  0  0  0  0  0  0  0  0  0  0
   -9.2728   -1.1595   -1.9095 H   0  0  0  0  0  0  0  0  0  0  0  0
  -10.5862   -1.0299   -0.7454 H   0  0  0  0  0  0  0  0  0  0  0  0
    5.5369   -0.5968   -1.6760 H   0  0  0  0  0  0  0  0  0  0  0  0
   -8.6115   -3.3760   -0.7336 H   0  0  0  0  0  0  0  0  0  0  0  0
   -9.9305   -3.1300    0.4222 H   0  0  0  0  0  0  0  0  0  0  0  0
   -8.2772   -3.3602    1.0073 H   0  0  0  0  0  0  0  0  0  0  0  0
   -6.4667    1.2107    2.0629 H   0  0  0  0  0  0  0  0  0  0  0  0
   -6.0531   -0.3315    2.8524 H   0  0  0  0  0  0  0  0  0  0  0  0
   -7.6987   -0.0022    2.3469 H   0  0  0  0  0  0  0  0  0  0  0  0
   -9.6899    1.2030    0.0012 H   0  0  0  0  0  0  0  0  0  0  0  0
   -8.4419    1.0982   -1.2580 H   0  0  0  0  0  0  0  0  0  0  0  0
  -10.1488    1.1618   -1.7090 H   0  0  0  0  0  0  0  0  0  0  0  0
    7.4239   -2.2543   -1.2649 H   0  0  0  0  0  0  0  0  0  0  0  0
    7.4794   -3.0960    0.2953 H   0  0  0  0  0  0  0  0  0  0  0  0
    4.7670   -2.9563    1.3903 H   0  0  0  0  0  0  0  0  0  0  0  0
    4.7739   -1.2511    1.9341 H   0  0  0  0  0  0  0  0  0  0  0  0
    6.1902   -2.2400    2.1563 H   0  0  0  0  0  0  0  0  0  0  0  0
   10.2647   -0.9214    0.3486 H   0  0  0  0  0  0  0  0  0  0  0  0
  1 16  1  0  0  0  0
  2 14  1  0  0  0  0
  2 19  1  0  0  0  0
  3 10  1  0  0  0  0
  3 41  1  0  0  0  0
  4 11  1  0  0  0  0
  4 21  1  0  0  0  0
  5 12  2  0  0  0  0
  6 15  2  0  0  0  0
  7 21  2  0  0  0  0
  8 34  1  0  0  0  0
  8 63  1  0  0  0  0
  9 34  2  0  0  0  0
 10 12  1  0  0  0  0
 10 13  1  0  0  0  0
 10 14  1  0  0  0  0
 11 12  1  0  0  0  0
 11 15  1  0  0  0  0
 11 17  1  0  0  0  0
 13 16  2  0  0  0  0
 13 18  1  0  0  0  0
 14 35  1  0  0  0  0
 14 36  1  0  0  0  0
 15 16  1  0  0  0  0
 17 37  1  0  0  0  0
 17 38  1  0  0  0  0
 17 39  1  0  0  0  0
 18 19  2  0  0  0  0
 18 40  1  0  0  0  0
 19 20  1  0  0  0  0
 20 23  2  3  0  0  0
 20 42  1  0  0  0  0
 21 27  1  0  0  0  0
 22 25  1  0  0  0  0
 22 26  1  0  0  0  0
 22 28  1  0  0  0  0
 22 43  1  0  0  0  0
 23 24  1  0  0  0  0
 23 44  1  0  0  0  0
 24 25  2  0  0  0  0
 24 29  1  0  0  0  0
 25 45  1  0  0  0  0
 26 31  1  0  0  0  0
 26 46  1  0  0  0  0
 26 47  1  0  0  0  0
 27 30  2  0  0  0  0
 27 48  1  0  0  0  0
 28 49  1  0  0  0  0
 28 50  1  0  0  0  0
 28 51  1  0  0  0  0
 29 52  1  0  0  0  0
 29 53  1  0  0  0  0
 29 54  1  0  0  0  0
 30 32  1  0  0  0  0
 30 33  1  0  0  0  0
 31 55  1  0  0  0  0
 31 56  1  0  0  0  0
 31 57  1  0  0  0  0
 32 34  1  0  0  0  0
 32 58  1  0  0  0  0
 32 59  1  0  0  0  0
 33 60  1  0  0  0  0
 33 61  1  0  0  0  0
 33 62  1  0  0  0  0
M  END
> <PUBCHEM_COMPOUND_CID>
139588420

> <PUBCHEM_CONFORMER_RMSD>
1.2

> <PUBCHEM_CONFORMER_DIVERSEORDER>
1
37
156
169
175
65
116
61
143
183
154
194
35
150
196
40
98
129
43
128
118
168
190
51
142
7
92
165
94
56
200
93
74
103
202
114
124
71
170
100
173
96
137
177
105
54
119
49
111
192
90
180
138
153
14
104
166
20
189
195
107
164
161
59
125
185
191
60
2
198
33
86
174
23
186
78
120
179
97
163
50
134
102
133
182
162
12
53
117
135
27
82
144
68
10
121
197
81
32
72
149
45
140
31
147
155
122
101
42
77
36
66
187
80
46
181
148
152
69
9
39
38
109
157
91
26
28
123
58
201
63
73
83
29
184
95
172
110
3
145
126
178
64
131
88
127
13
113
70
67
193
130
176
199
112
89
75
158
8
141
47
188
16
22
106
57
44
76
17
146
41
84
24
139
25
99
167
115
55
108
15
132
34
30
48
160
52
87
11
85
62
5
151
4
21
136
18
79
171
6
159
19

> <PUBCHEM_MMFF94_PARTIAL_CHARGES>
37
1 -0.14
10 0.48
11 0.4
12 0.45
13 -0.14
14 0.28
15 0.49
16 0.15
18 -0.15
19 0.08
2 -0.36
20 -0.15
21 0.71
22 0.14
23 -0.15
24 -0.14
25 -0.29
27 -0.14
29 0.14
3 -0.68
30 -0.28
32 0.2
33 0.14
34 0.66
4 -0.43
40 0.15
41 0.4
42 0.15
44 0.15
45 0.15
48 0.15
5 -0.57
6 -0.57
63 0.5
7 -0.57
8 -0.65
9 -0.57

> <PUBCHEM_EFFECTIVE_ROTOR_COUNT>
9.6

> <PUBCHEM_PHARMACOPHORE_FEATURES>
15
1 2 acceptor
1 28 hydrophobe
1 29 hydrophobe
1 3 acceptor
1 3 donor
1 31 hydrophobe
1 33 hydrophobe
1 5 acceptor
1 6 acceptor
1 7 acceptor
1 8 acceptor
1 9 acceptor
3 8 9 34 anion
6 10 11 12 13 15 16 rings
6 2 10 13 14 18 19 rings

> <PUBCHEM_HEAVY_ATOM_COUNT>
34

> <PUBCHEM_ATOM_DEF_STEREO_COUNT>
0

> <PUBCHEM_ATOM_UDEF_STEREO_COUNT>
3

> <PUBCHEM_BOND_DEF_STEREO_COUNT>
2

> <PUBCHEM_BOND_UDEF_STEREO_COUNT>
1

> <PUBCHEM_ISOTOPIC_ATOM_COUNT>
0

> <PUBCHEM_COMPONENT_COUNT>
1

> <PUBCHEM_CACTVS_TAUTO_COUNT>
-1

> <PUBCHEM_CONFORMER_ID>
0851F34400000001

> <PUBCHEM_MMFF94_ENERGY>
72.5112

> <PUBCHEM_FEATURE_SELFOVERLAP>
76.208

> <PUBCHEM_SHAPE_FINGERPRINT>
10 15 14620795985783943175
10162869 55 16486966315980396333
10483366 6 13045946802381137726
106641 1 17060618897831532418
10670039 82 14273452561476833207
10674148 151 16950563281233067713
11115154 58 16950285074784895237
11135609 99 18342740766702268335
11456790 92 17846229873463536339
12539745 222 18341050709666024384
12592606 108 18409729560786289371
12741549 16 18343581828789513433
13150687 139 11674879966610715512
13540713 5 16628535128719233332
13560911 43 17346605209231892105
13782708 43 18343310279934754447
13811026 1 17275386499937770441
15183329 4 14635141362069490247
15198563 99 16298384609169598263
15326923 82 18187364346876008196
15347590 135 15123517991019054123
15361156 5 12251902621243303107
15706992 2 12031785894398437490
15840311 113 17988924509701741136
18335252 114 8718823164025574714
19301679 30 17773885190626084318
20105231 36 17774449279342211366
2026 5 18188209806002702595
23576562 1 12253053852039686467
24771293 8 13039189200075280011
3711267 37 8214142988870387671
4112364 45 14692277487157599138
474113 269 18343017749464700431
4760202 170 11819579030275540622
504579 68 15791728599408848069
59682541 35 16487254369929314131
6438161 24 18409449197831302227
9962374 69 18410570729593030591

> <PUBCHEM_SHAPE_MULTIPOLES>
654.62
29.03
2.4
1.84
29.79
0.06
0.36
24.61
1.6
-1.5
0.33
0.01
-1.02
-0.43

> <PUBCHEM_SHAPE_SELFOVERLAP>
1362.511

> <PUBCHEM_SHAPE_VOLUME>
370.3

> <PUBCHEM_COORDINATE_TYPE>
2
5
10

$$$$
