139586502
  -OEChem-03292013293D

 50 51  0     1  0  0  0  0  0999 V2000
   -4.2096   -2.9590    1.0142 O   0  0  0  0  0  0  0  0  0  0  0  0
   -3.7899   -1.8180   -1.7625 O   0  0  0  0  0  0  0  0  0  0  0  0
    0.4003    2.1904   -0.1926 O   0  0  0  0  0  0  0  0  0  0  0  0
    4.6182   -2.3291   -0.4694 O   0  0  0  0  0  0  0  0  0  0  0  0
   -2.3318    0.4256   -1.6568 O   0  0  0  0  0  0  0  0  0  0  0  0
    3.1715    2.1625    0.0340 O   0  0  0  0  0  0  0  0  0  0  0  0
    0.1611    1.4684    1.9993 O   0  0  0  0  0  0  0  0  0  0  0  0
   -1.9924   -3.0050    0.1704 C   0  0  0  0  0  0  0  0  0  0  0  0
   -0.6851   -2.3161   -0.2247 C   0  0  0  0  0  0  0  0  0  0  0  0
   -3.1515   -2.0880    0.5850 C   0  0  1  0  0  0  0  0  0  0  0  0
   -0.0090   -1.5815    0.9411 C   0  0  0  0  0  0  0  0  0  0  0  0
   -3.7260   -1.1641   -0.5041 C   0  0  1  0  0  0  0  0  0  0  0  0
    1.3364   -1.0080    0.5519 C   0  0  0  0  0  0  0  0  0  0  0  0
    1.6090    0.3684    0.4748 C   0  0  0  0  0  0  0  0  0  0  0  0
   -2.9800    0.1596   -0.6491 C   0  0  0  0  0  0  0  0  0  0  0  0
    2.3774   -1.9006    0.2344 C   0  0  0  0  0  0  0  0  0  0  0  0
   -0.3875    3.3855    0.0124 C   0  0  2  0  0  0  0  0  0  0  0  0
   -1.8316    3.1458   -0.4470 C   0  0  0  0  0  0  0  0  0  0  0  0
    2.8734    0.8315    0.0779 C   0  0  0  0  0  0  0  0  0  0  0  0
    0.6267    1.3880    0.8762 C   0  0  0  0  0  0  0  0  0  0  0  0
    3.6339   -1.4400   -0.1643 C   0  0  0  0  0  0  0  0  0  0  0  0
   -3.1186    1.1167    0.4885 C   0  0  0  0  0  0  0  0  0  0  0  0
   -2.6207    2.3583    0.5601 C   0  0  0  0  0  0  0  0  0  0  0  0
    3.8800   -0.0739   -0.2467 C   0  0  0  0  0  0  0  0  0  0  0  0
    0.2678    4.4737   -0.8336 C   0  0  0  0  0  0  0  0  0  0  0  0
    5.8778   -1.7912   -0.8695 C   0  0  0  0  0  0  0  0  0  0  0  0
   -2.3176   -3.6529   -0.6541 H   0  0  0  0  0  0  0  0  0  0  0  0
   -1.7818   -3.7018    0.9935 H   0  0  0  0  0  0  0  0  0  0  0  0
   -0.8430   -1.6308   -1.0628 H   0  0  0  0  0  0  0  0  0  0  0  0
   -0.0129   -3.0953   -0.6061 H   0  0  0  0  0  0  0  0  0  0  0  0
   -2.8689   -1.5061    1.4678 H   0  0  0  0  0  0  0  0  0  0  0  0
    0.1426   -2.2712    1.7814 H   0  0  0  0  0  0  0  0  0  0  0  0
   -0.6746   -0.7997    1.3134 H   0  0  0  0  0  0  0  0  0  0  0  0
   -4.7650   -0.9129   -0.2564 H   0  0  0  0  0  0  0  0  0  0  0  0
    2.2075   -2.9740    0.2967 H   0  0  0  0  0  0  0  0  0  0  0  0
   -0.3507    3.6989    1.0635 H   0  0  0  0  0  0  0  0  0  0  0  0
   -1.8367    2.6759   -1.4329 H   0  0  0  0  0  0  0  0  0  0  0  0
   -2.3430    4.1098   -0.5642 H   0  0  0  0  0  0  0  0  0  0  0  0
   -3.8830   -3.4664    1.7769 H   0  0  0  0  0  0  0  0  0  0  0  0
   -3.6871    0.7500    1.3397 H   0  0  0  0  0  0  0  0  0  0  0  0
   -2.8256    2.9008    1.4834 H   0  0  0  0  0  0  0  0  0  0  0  0
    4.8393    0.3361   -0.5443 H   0  0  0  0  0  0  0  0  0  0  0  0
   -2.8827   -1.9637   -2.0785 H   0  0  0  0  0  0  0  0  0  0  0  0
    0.2880    4.1906   -1.8919 H   0  0  0  0  0  0  0  0  0  0  0  0
    1.3094    4.6188   -0.5269 H   0  0  0  0  0  0  0  0  0  0  0  0
   -0.2594    5.4274   -0.7343 H   0  0  0  0  0  0  0  0  0  0  0  0
    4.0918    2.2816   -0.2561 H   0  0  0  0  0  0  0  0  0  0  0  0
    6.5395   -2.6388   -1.0761 H   0  0  0  0  0  0  0  0  0  0  0  0
    6.3429   -1.2128   -0.0640 H   0  0  0  0  0  0  0  0  0  0  0  0
    5.7943   -1.2181   -1.7992 H   0  0  0  0  0  0  0  0  0  0  0  0
  1 10  1  0  0  0  0
  1 39  1  0  0  0  0
  2 12  1  0  0  0  0
  2 43  1  0  0  0  0
  3 17  1  0  0  0  0
  3 20  1  0  0  0  0
  4 21  1  0  0  0  0
  4 26  1  0  0  0  0
  5 15  2  0  0  0  0
  6 19  1  0  0  0  0
  6 47  1  0  0  0  0
  7 20  2  0  0  0  0
  8  9  1  0  0  0  0
  8 10  1  0  0  0  0
  8 27  1  0  0  0  0
  8 28  1  0  0  0  0
  9 11  1  0  0  0  0
  9 29  1  0  0  0  0
  9 30  1  0  0  0  0
 10 12  1  0  0  0  0
 10 31  1  0  0  0  0
 11 13  1  0  0  0  0
 11 32  1  0  0  0  0
 11 33  1  0  0  0  0
 12 15  1  0  0  0  0
 12 34  1  0  0  0  0
 13 14  2  0  0  0  0
 13 16  1  0  0  0  0
 14 19  1  0  0  0  0
 14 20  1  0  0  0  0
 15 22  1  0  0  0  0
 16 21  2  0  0  0  0
 16 35  1  0  0  0  0
 17 18  1  0  0  0  0
 17 25  1  0  0  0  0
 17 36  1  0  0  0  0
 18 23  1  0  0  0  0
 18 37  1  0  0  0  0
 18 38  1  0  0  0  0
 19 24  2  0  0  0  0
 21 24  1  0  0  0  0
 22 23  2  0  0  0  0
 22 40  1  0  0  0  0
 23 41  1  0  0  0  0
 24 42  1  0  0  0  0
 25 44  1  0  0  0  0
 25 45  1  0  0  0  0
 25 46  1  0  0  0  0
 26 48  1  0  0  0  0
 26 49  1  0  0  0  0
 26 50  1  0  0  0  0
M  END
> <PUBCHEM_COMPOUND_CID>
139586502

> <PUBCHEM_CONFORMER_RMSD>
0.6

> <PUBCHEM_CONFORMER_DIVERSEORDER>
1
7
31
20
14
3
29
24
18
19
9
15
8
25
17
28
33
6
22
2
34
13
10
4
12
23
30
32
16
21
27
26
11
5

> <PUBCHEM_MMFF94_PARTIAL_CHARGES>
30
1 -0.68
10 0.28
11 0.14
12 0.34
13 -0.14
14 0.09
15 0.49
16 -0.15
17 0.28
18 0.14
19 0.08
2 -0.68
20 0.63
21 0.08
22 -0.14
23 -0.29
24 -0.15
26 0.28
3 -0.43
35 0.15
39 0.4
4 -0.36
40 0.15
41 0.15
42 0.15
43 0.4
47 0.45
5 -0.57
6 -0.53
7 -0.57

> <PUBCHEM_EFFECTIVE_ROTOR_COUNT>
2.6

> <PUBCHEM_PHARMACOPHORE_FEATURES>
9
1 1 acceptor
1 1 donor
1 2 acceptor
1 2 donor
1 4 acceptor
1 5 acceptor
1 6 donor
1 7 acceptor
6 13 14 16 19 21 24 rings

> <PUBCHEM_HEAVY_ATOM_COUNT>
26

> <PUBCHEM_ATOM_DEF_STEREO_COUNT>
2

> <PUBCHEM_ATOM_UDEF_STEREO_COUNT>
1

> <PUBCHEM_BOND_DEF_STEREO_COUNT>
1

> <PUBCHEM_BOND_UDEF_STEREO_COUNT>
0

> <PUBCHEM_ISOTOPIC_ATOM_COUNT>
0

> <PUBCHEM_COMPONENT_COUNT>
1

> <PUBCHEM_CACTVS_TAUTO_COUNT>
-1

> <PUBCHEM_CONFORMER_ID>
0851EBC600000001

> <PUBCHEM_MMFF94_ENERGY>
74.2311

> <PUBCHEM_FEATURE_SELFOVERLAP>
45.683

> <PUBCHEM_SHAPE_FINGERPRINT>
116883 192 18411418410698969458
12054548 360 18337667628356177555
12156800 1 17621372001387790349
12553582 1 18336817598810391481
12788726 201 18122897629726799529
13140716 1 18410005507585715395
13583140 156 14189289301578603514
138480 1 15671538397268420425
14114211 80 16534010311879460169
14251751 93 18122905335061697780
14251757 5 18266745675543397974
14363568 33 17976840991947691258
14790565 3 17547862850085741248
15081414 286 18193843862448762768
17357779 13 18341601663991610851
19930381 70 17760932144501895275
20775438 99 16977256318690579103
21634736 98 18410007724147516268
221357 26 18411979187009062207
221490 88 18412829079822282992
23419403 2 17345451774521485298
238 59 16753767450549941615
2818148 4 18119555333901643027
6287921 2 17686059796349113519
6438718 38 17916295053109420495
70251023 43 18126834113863519415

> <PUBCHEM_SHAPE_MULTIPOLES>
493.98
8.44
4.93
1.16
7.82
3.35
-0.03
-6.53
-2.21
-2.76
-0.39
-0.6
-0.03
0.43

> <PUBCHEM_SHAPE_SELFOVERLAP>
1026.263

> <PUBCHEM_SHAPE_VOLUME>
279.9

> <PUBCHEM_COORDINATE_TYPE>
2
5
10

$$$$
