139584782
  -OEChem-03292013293D

 43 45  0     1  0  0  0  0  0999 V2000
    0.2455   -0.8356   -0.5331 O   0  0  0  0  0  0  0  0  0  0  0  0
   -2.2284   -1.8248   -1.1127 O   0  0  0  0  0  0  0  0  0  0  0  0
   -0.3671    1.8186   -0.8259 O   0  0  0  0  0  0  0  0  0  0  0  0
   -4.2766   -1.8246    0.8414 O   0  0  0  0  0  0  0  0  0  0  0  0
   -4.8994    0.6282   -0.0482 O   0  0  0  0  0  0  0  0  0  0  0  0
    0.5161    3.0090    0.9207 O   0  0  0  0  0  0  0  0  0  0  0  0
    4.9306   -1.4532   -0.2179 O   0  0  0  0  0  0  0  0  0  0  0  0
    1.8599   -3.2667    0.3147 O   0  0  0  0  0  0  0  0  0  0  0  0
   -1.9604   -1.4337    0.2413 C   0  0  1  0  0  0  0  0  0  0  0  0
   -0.8645   -0.3439    0.2405 C   0  0  2  0  0  0  0  0  0  0  0  0
   -3.2391   -0.8578    0.8600 C   0  0  1  0  0  0  0  0  0  0  0  0
   -1.3668    0.9657   -0.3289 C   0  0  0  0  0  0  0  0  0  0  0  0
   -1.4856   -2.6901    0.9826 C   0  0  0  0  0  0  0  0  0  0  0  0
   -2.6629    1.3096   -0.4374 C   0  0  0  0  0  0  0  0  0  0  0  0
   -3.7040    0.3756    0.0995 C   0  0  0  0  0  0  0  0  0  0  0  0
    1.4585   -0.2569   -0.2644 C   0  0  0  0  0  0  0  0  0  0  0  0
    1.6554    1.0861    0.0837 C   0  0  0  0  0  0  0  0  0  0  0  0
   -3.1587    2.5826   -1.0547 C   0  0  0  0  0  0  0  0  0  0  0  0
    2.5638   -1.1051   -0.3845 C   0  0  0  0  0  0  0  0  0  0  0  0
    0.5443    2.0590    0.1551 C   0  0  0  0  0  0  0  0  0  0  0  0
    2.9439    1.5552    0.3660 C   0  0  0  0  0  0  0  0  0  0  0  0
    3.8482   -0.6320   -0.1152 C   0  0  0  0  0  0  0  0  0  0  0  0
    4.0369    0.6945    0.2669 C   0  0  0  0  0  0  0  0  0  0  0  0
    2.3794   -2.5355   -0.7867 C   0  0  0  0  0  0  0  0  0  0  0  0
    3.2309    2.9758    0.7373 C   0  0  0  0  0  0  0  0  0  0  0  0
   -0.5479   -0.1818    1.2821 H   0  0  0  0  0  0  0  0  0  0  0  0
   -3.0665   -0.5675    1.9036 H   0  0  0  0  0  0  0  0  0  0  0  0
   -1.1862   -2.4644    2.0108 H   0  0  0  0  0  0  0  0  0  0  0  0
   -0.6472   -3.1587    0.4617 H   0  0  0  0  0  0  0  0  0  0  0  0
   -2.2736   -3.4510    1.0124 H   0  0  0  0  0  0  0  0  0  0  0  0
   -2.4593   -1.0423   -1.6382 H   0  0  0  0  0  0  0  0  0  0  0  0
   -3.7975    2.3634   -1.9167 H   0  0  0  0  0  0  0  0  0  0  0  0
   -2.3462    3.2273   -1.4036 H   0  0  0  0  0  0  0  0  0  0  0  0
   -3.7420    3.1562   -0.3268 H   0  0  0  0  0  0  0  0  0  0  0  0
   -5.0292   -1.4562    1.3351 H   0  0  0  0  0  0  0  0  0  0  0  0
    5.0411    1.0553    0.4771 H   0  0  0  0  0  0  0  0  0  0  0  0
    1.6832   -2.6148   -1.6296 H   0  0  0  0  0  0  0  0  0  0  0  0
    3.3128   -3.0087   -1.1074 H   0  0  0  0  0  0  0  0  0  0  0  0
    2.7997    3.6701    0.0084 H   0  0  0  0  0  0  0  0  0  0  0  0
    2.8563    3.1969    1.7417 H   0  0  0  0  0  0  0  0  0  0  0  0
    4.3077    3.1816    0.7499 H   0  0  0  0  0  0  0  0  0  0  0  0
    5.7336   -0.9523    0.0063 H   0  0  0  0  0  0  0  0  0  0  0  0
    1.7351   -4.1835    0.0158 H   0  0  0  0  0  0  0  0  0  0  0  0
  1 10  1  0  0  0  0
  1 16  1  0  0  0  0
  2  9  1  0  0  0  0
  2 31  1  0  0  0  0
  3 12  1  0  0  0  0
  3 20  1  0  0  0  0
  4 11  1  0  0  0  0
  4 35  1  0  0  0  0
  5 15  2  0  0  0  0
  6 20  2  0  0  0  0
  7 22  1  0  0  0  0
  7 42  1  0  0  0  0
  8 24  1  0  0  0  0
  8 43  1  0  0  0  0
  9 10  1  0  0  0  0
  9 11  1  0  0  0  0
  9 13  1  0  0  0  0
 10 12  1  0  0  0  0
 10 26  1  0  0  0  0
 11 15  1  0  0  0  0
 11 27  1  0  0  0  0
 12 14  2  0  0  0  0
 13 28  1  0  0  0  0
 13 29  1  0  0  0  0
 13 30  1  0  0  0  0
 14 15  1  0  0  0  0
 14 18  1  0  0  0  0
 16 17  2  0  0  0  0
 16 19  1  0  0  0  0
 17 20  1  0  0  0  0
 17 21  1  0  0  0  0
 18 32  1  0  0  0  0
 18 33  1  0  0  0  0
 18 34  1  0  0  0  0
 19 22  2  0  0  0  0
 19 24  1  0  0  0  0
 21 23  2  0  0  0  0
 21 25  1  0  0  0  0
 22 23  1  0  0  0  0
 23 36  1  0  0  0  0
 24 37  1  0  0  0  0
 24 38  1  0  0  0  0
 25 39  1  0  0  0  0
 25 40  1  0  0  0  0
 25 41  1  0  0  0  0
M  END
> <PUBCHEM_COMPOUND_CID>
139584782

> <PUBCHEM_CONFORMER_RMSD>
0.6

> <PUBCHEM_CONFORMER_DIVERSEORDER>
2
4
5
3
1

> <PUBCHEM_MMFF94_PARTIAL_CHARGES>
29
1 -0.36
10 0.42
11 0.34
12 -0.06
14 -0.12
15 0.49
16 0.08
17 0.09
18 0.14
19 -0.14
2 -0.68
20 0.63
21 -0.14
22 0.08
23 -0.15
24 0.42
25 0.14
3 -0.23
31 0.4
35 0.4
36 0.15
4 -0.68
42 0.45
43 0.4
5 -0.57
6 -0.57
7 -0.53
8 -0.68
9 0.28

> <PUBCHEM_EFFECTIVE_ROTOR_COUNT>
1.8

> <PUBCHEM_PHARMACOPHORE_FEATURES>
13
1 1 acceptor
1 2 acceptor
1 2 donor
1 4 acceptor
1 4 donor
1 5 acceptor
1 6 acceptor
1 7 donor
1 8 acceptor
1 8 donor
6 16 17 19 21 22 23 rings
6 9 10 11 12 14 15 rings
7 1 3 10 12 16 17 20 rings

> <PUBCHEM_HEAVY_ATOM_COUNT>
25

> <PUBCHEM_ATOM_DEF_STEREO_COUNT>
3

> <PUBCHEM_ATOM_UDEF_STEREO_COUNT>
0

> <PUBCHEM_BOND_DEF_STEREO_COUNT>
0

> <PUBCHEM_BOND_UDEF_STEREO_COUNT>
0

> <PUBCHEM_ISOTOPIC_ATOM_COUNT>
0

> <PUBCHEM_COMPONENT_COUNT>
1

> <PUBCHEM_CACTVS_TAUTO_COUNT>
-1

> <PUBCHEM_CONFORMER_ID>
0851E50E00000002

> <PUBCHEM_MMFF94_ENERGY>
91.7421

> <PUBCHEM_FEATURE_SELFOVERLAP>
66.018

> <PUBCHEM_SHAPE_FINGERPRINT>
10608611 8 18410290319789223652
10616163 171 18192715767882197028
10967382 1 18411699846704307502
11112241 14 16843017970404313144
12403259 226 18337953506027710123
12506688 2 18412829053752045648
12553582 1 18268700633040141478
12633257 1 18411421682894187914
12788726 201 17910952448785035960
13140716 1 18412259571364220984
13402501 40 18409451392554283242
14223421 5 18337954622407996696
14251757 17 18264486191811706585
14790565 3 17762062442535253620
14866123 147 16322877037990344714
15196674 1 18410294747974131489
15219456 202 18411418440188766576
15635459 17 18340772546251114438
16945 1 18121499321524567189
17804303 29 18336834172967867317
1813 80 17023462074686009029
19049666 15 18336546027843525457
19591789 44 18411138060623934246
19930381 70 18123750859604164895
200 152 17918269866155440879
20645477 70 18131348587877792676
21267235 1 18411146809345780622
21421861 104 17970063344982510554
221490 88 18410295822143307792
2334 1 18268428117444247036
23559900 14 18338230475626288932
2748010 2 18340482374298010212
335352 9 18411137991682729908
34934 24 18413102836273569630
350125 39 18337957887163858092
495365 180 17987783198634309688
5104073 3 18410295843333191681
8809292 202 18408043992111792778
9709674 26 18337391655195727795

> <PUBCHEM_SHAPE_MULTIPOLES>
467.53
8.13
3.59
0.92
0.57
0.08
-0.01
0.45
0.36
-0.93
0.3
0.3
0
1.61

> <PUBCHEM_SHAPE_SELFOVERLAP>
1027.628

> <PUBCHEM_SHAPE_VOLUME>
250.4

> <PUBCHEM_COORDINATE_TYPE>
2
5
10

$$$$
