139591094
  -OEChem-03292013293D

 65 70  0     1  0  0  0  0  0999 V2000
    2.0400   -1.6233    1.1408 O   0  0  0  0  0  0  0  0  0  0  0  0
    5.6431    1.8204    0.2409 O   0  0  0  0  0  0  0  0  0  0  0  0
   -0.0064   -1.6880    2.6779 O   0  0  0  0  0  0  0  0  0  0  0  0
   -1.0380    2.3118    0.0739 O   0  0  0  0  0  0  0  0  0  0  0  0
    3.6688    0.6398   -0.2140 N   0  0  0  0  0  0  0  0  0  0  0  0
    2.3962    1.2007    1.5799 N   0  0  0  0  0  0  0  0  0  0  0  0
   -1.8462    0.1228    0.2243 N   0  0  0  0  0  0  0  0  0  0  0  0
   -1.9454   -2.2246    1.5633 N   0  0  0  0  0  0  0  0  0  0  0  0
   -4.0594   -0.3794   -0.4915 N   0  0  0  0  0  0  0  0  0  0  0  0
    1.8147   -0.8140   -0.0098 C   0  0  2  0  0  0  0  0  0  0  0  0
    2.3047    0.6336    0.2367 C   0  0  2  0  0  0  0  0  0  0  0  0
    0.3482   -0.8885   -0.4052 C   0  0  0  0  0  0  0  0  0  0  0  0
    3.5693    2.1315    1.5271 C   0  0  0  0  0  0  0  0  0  0  0  0
    2.8009   -1.2522   -1.0806 C   0  0  0  0  0  0  0  0  0  0  0  0
    3.9086   -0.3885   -1.1066 C   0  0  0  0  0  0  0  0  0  0  0  0
    4.4709    1.5447    0.4337 C   0  0  0  0  0  0  0  0  0  0  0  0
   -0.5611   -0.4000    0.7162 C   0  0  2  0  0  0  0  0  0  0  0  0
    4.3184    2.1628    2.8609 C   0  0  0  0  0  0  0  0  0  0  0  0
    3.0809    3.5229    1.1368 C   0  0  0  0  0  0  0  0  0  0  0  0
    2.7799   -2.3802   -1.8821 C   0  0  0  0  0  0  0  0  0  0  0  0
   -0.8097   -1.4663    1.7735 C   0  0  0  0  0  0  0  0  0  0  0  0
    5.0236   -0.6329   -1.8823 C   0  0  0  0  0  0  0  0  0  0  0  0
   -2.6381   -2.2121    0.2891 C   0  0  2  0  0  0  0  0  0  0  0  0
   -2.9114   -0.7482   -0.0169 C   0  0  0  0  0  0  0  0  0  0  0  0
   -3.9007   -3.0617    0.3520 C   0  0  0  0  0  0  0  0  0  0  0  0
    3.8854   -2.6276   -2.7021 C   0  0  0  0  0  0  0  0  0  0  0  0
    4.9982   -1.7661   -2.6972 C   0  0  0  0  0  0  0  0  0  0  0  0
   -1.9425    1.4923   -0.0588 C   0  0  0  0  0  0  0  0  0  0  0  0
   -3.2570    1.9356   -0.5698 C   0  0  0  0  0  0  0  0  0  0  0  0
   -4.8580   -2.5298    1.4181 C   0  0  0  0  0  0  0  0  0  0  0  0
   -3.5550   -4.5249    0.6274 C   0  0  0  0  0  0  0  0  0  0  0  0
   -4.2589    0.9805   -0.7652 C   0  0  0  0  0  0  0  0  0  0  0  0
   -3.4887    3.2856   -0.8562 C   0  0  0  0  0  0  0  0  0  0  0  0
   -5.5029    1.3966   -1.2530 C   0  0  0  0  0  0  0  0  0  0  0  0
   -4.7331    3.6849   -1.3415 C   0  0  0  0  0  0  0  0  0  0  0  0
   -5.7393    2.7420   -1.5398 C   0  0  0  0  0  0  0  0  0  0  0  0
    1.7693    1.3320   -0.4238 H   0  0  0  0  0  0  0  0  0  0  0  0
    0.1831   -0.2967   -1.3153 H   0  0  0  0  0  0  0  0  0  0  0  0
    0.0995   -1.9241   -0.6634 H   0  0  0  0  0  0  0  0  0  0  0  0
    1.5462    1.7050    1.8241 H   0  0  0  0  0  0  0  0  0  0  0  0
   -0.1011    0.4308    1.2552 H   0  0  0  0  0  0  0  0  0  0  0  0
    5.1837    2.8337    2.8131 H   0  0  0  0  0  0  0  0  0  0  0  0
    2.5835    3.5295    0.1601 H   0  0  0  0  0  0  0  0  0  0  0  0
    4.6938    1.1679    3.1277 H   0  0  0  0  0  0  0  0  0  0  0  0
    3.6684    2.5071    3.6729 H   0  0  0  0  0  0  0  0  0  0  0  0
    3.9229    4.2212    1.0624 H   0  0  0  0  0  0  0  0  0  0  0  0
    2.3793    3.9255    1.8763 H   0  0  0  0  0  0  0  0  0  0  0  0
    2.9912   -1.6191    1.3435 H   0  0  0  0  0  0  0  0  0  0  0  0
    1.9458   -3.0727   -1.8642 H   0  0  0  0  0  0  0  0  0  0  0  0
   -1.9623   -2.6033   -0.4784 H   0  0  0  0  0  0  0  0  0  0  0  0
    5.8829    0.0272   -1.8813 H   0  0  0  0  0  0  0  0  0  0  0  0
   -2.1209   -2.9724    2.2265 H   0  0  0  0  0  0  0  0  0  0  0  0
   -4.4118   -3.0186   -0.6186 H   0  0  0  0  0  0  0  0  0  0  0  0
    3.8947   -3.5078   -3.3398 H   0  0  0  0  0  0  0  0  0  0  0  0
    5.8496   -1.9899   -3.3347 H   0  0  0  0  0  0  0  0  0  0  0  0
   -4.4159   -2.5543    2.4200 H   0  0  0  0  0  0  0  0  0  0  0  0
   -5.7516   -3.1647    1.4561 H   0  0  0  0  0  0  0  0  0  0  0  0
   -3.1624   -4.6867    1.6358 H   0  0  0  0  0  0  0  0  0  0  0  0
   -2.8173   -4.8955   -0.0922 H   0  0  0  0  0  0  0  0  0  0  0  0
   -4.4510   -5.1481    0.5284 H   0  0  0  0  0  0  0  0  0  0  0  0
   -5.2173   -1.5157    1.2386 H   0  0  0  0  0  0  0  0  0  0  0  0
   -2.7170    4.0358   -0.7084 H   0  0  0  0  0  0  0  0  0  0  0  0
   -6.2979    0.6722   -1.4132 H   0  0  0  0  0  0  0  0  0  0  0  0
   -4.9182    4.7315   -1.5651 H   0  0  0  0  0  0  0  0  0  0  0  0
   -6.7086    3.0536   -1.9179 H   0  0  0  0  0  0  0  0  0  0  0  0
  1 10  1  0  0  0  0
  1 48  1  0  0  0  0
  2 16  2  0  0  0  0
  3 21  2  0  0  0  0
  4 28  2  0  0  0  0
  5 11  1  0  0  0  0
  5 15  1  0  0  0  0
  5 16  1  0  0  0  0
  6 11  1  0  0  0  0
  6 13  1  0  0  0  0
  6 40  1  0  0  0  0
  7 17  1  0  0  0  0
  7 24  1  0  0  0  0
  7 28  1  0  0  0  0
  8 21  1  0  0  0  0
  8 23  1  0  0  0  0
  8 52  1  0  0  0  0
  9 24  2  0  0  0  0
  9 32  1  0  0  0  0
 10 11  1  0  0  0  0
 10 12  1  0  0  0  0
 10 14  1  0  0  0  0
 11 37  1  0  0  0  0
 12 17  1  0  0  0  0
 12 38  1  0  0  0  0
 12 39  1  0  0  0  0
 13 16  1  0  0  0  0
 13 18  1  0  0  0  0
 13 19  1  0  0  0  0
 14 15  1  0  0  0  0
 14 20  2  0  0  0  0
 15 22  2  0  0  0  0
 17 21  1  0  0  0  0
 17 41  1  0  0  0  0
 18 42  1  0  0  0  0
 18 44  1  0  0  0  0
 18 45  1  0  0  0  0
 19 43  1  0  0  0  0
 19 46  1  0  0  0  0
 19 47  1  0  0  0  0
 20 26  1  0  0  0  0
 20 49  1  0  0  0  0
 22 27  1  0  0  0  0
 22 51  1  0  0  0  0
 23 24  1  0  0  0  0
 23 25  1  0  0  0  0
 23 50  1  0  0  0  0
 25 30  1  0  0  0  0
 25 31  1  0  0  0  0
 25 53  1  0  0  0  0
 26 27  2  0  0  0  0
 26 54  1  0  0  0  0
 27 55  1  0  0  0  0
 28 29  1  0  0  0  0
 29 32  1  0  0  0  0
 29 33  2  0  0  0  0
 30 56  1  0  0  0  0
 30 57  1  0  0  0  0
 30 61  1  0  0  0  0
 31 58  1  0  0  0  0
 31 59  1  0  0  0  0
 31 60  1  0  0  0  0
 32 34  2  0  0  0  0
 33 35  1  0  0  0  0
 33 62  1  0  0  0  0
 34 36  1  0  0  0  0
 34 63  1  0  0  0  0
 35 36  2  0  0  0  0
 35 64  1  0  0  0  0
 36 65  1  0  0  0  0
M  END
> <PUBCHEM_COMPOUND_CID>
139591094

> <PUBCHEM_CONFORMER_RMSD>
0.8

> <PUBCHEM_CONFORMER_DIVERSEORDER>
1
3
4
2

> <PUBCHEM_MMFF94_PARTIAL_CHARGES>
41
1 -0.68
10 0.42
11 0.57
13 0.33
14 -0.14
15 0.12
16 0.57
17 0.36
2 -0.57
20 -0.15
21 0.57
22 -0.15
23 0.36
24 0.45
26 -0.15
27 -0.15
28 0.54
29 0.09
3 -0.57
32 0.18
33 -0.15
34 -0.15
35 -0.15
36 -0.15
4 -0.57
40 0.36
48 0.4
49 0.15
5 -0.48
51 0.15
52 0.37
54 0.15
55 0.15
6 -0.9
62 0.15
63 0.15
64 0.15
65 0.15
7 -0.42
8 -0.73
9 -0.63

> <PUBCHEM_EFFECTIVE_ROTOR_COUNT>
4.2

> <PUBCHEM_PHARMACOPHORE_FEATURES>
16
1 1 acceptor
1 1 donor
1 2 acceptor
1 3 acceptor
1 4 acceptor
1 6 cation
1 6 donor
1 8 donor
3 13 18 19 hydrophobe
3 25 30 31 hydrophobe
5 5 10 11 14 15 rings
5 5 6 11 13 16 rings
6 14 15 20 22 26 27 rings
6 29 32 33 34 35 36 rings
6 7 8 17 21 23 24 rings
6 7 9 24 28 29 32 rings

> <PUBCHEM_HEAVY_ATOM_COUNT>
36

> <PUBCHEM_ATOM_DEF_STEREO_COUNT>
4

> <PUBCHEM_ATOM_UDEF_STEREO_COUNT>
0

> <PUBCHEM_BOND_DEF_STEREO_COUNT>
0

> <PUBCHEM_BOND_UDEF_STEREO_COUNT>
0

> <PUBCHEM_ISOTOPIC_ATOM_COUNT>
0

> <PUBCHEM_COMPONENT_COUNT>
1

> <PUBCHEM_CACTVS_TAUTO_COUNT>
-1

> <PUBCHEM_CONFORMER_ID>
0851FDB600000001

> <PUBCHEM_MMFF94_ENERGY>
133.0907

> <PUBCHEM_FEATURE_SELFOVERLAP>
81.642

> <PUBCHEM_SHAPE_FINGERPRINT>
10258939 38 18050281767313639610
10319926 262 18263625373434303800
10974685 15 18264218087427748494
11049842 53 17458344088001783354
11135926 11 17131840910693566436
11621639 336 16687681849076069368
11720765 8 17628343879975730500
1200032 147 16010180600127888886
12107698 1 17972308788413564976
12633046 712 17914363228053520934
12788726 201 17678751261070802883
13540713 4 18342459261311996666
13583140 156 18202290190562103942
13911987 19 17415275307019319320
13944108 23 16892014003702959549
14790565 3 18120364364492338685
15131766 46 16915380133500183441
15324884 4 18269284619680152970
15721738 15 17982172218915097079
15961568 22 17829612017038965020
16992828 155 16971377324142409592
17349148 13 17024021743052619418
20775438 99 18127665219856622879
21033648 144 18343309149477654037
21033648 29 18270110335674773504
21033650 10 17895489101587571074
22182313 1 18341615961731959003
22393880 68 18409736144670603934
2260408 40 17479213041977600075
23557571 272 18335987583184268723
23559900 14 18412547587286064180
244849 19 18272369780524665398
25223398 141 18261692418544074607
4015057 19 17845938420354350689
46194498 28 18198358414685882390
469060 322 17554311901988007959
5081480 168 17987255368644532124
508706 21 18335976536718547485
513532 50 18199452291369404304
5252454 2 17750796545621807973
613672 6 17628649557315662494
6523845 18 18119830031726156161
6695519 79 17343779563069477538
7399639 24 18055914535491622002
9658208 31 18261958440618155093

> <PUBCHEM_SHAPE_MULTIPOLES>
692.48
13.16
4.87
2.37
1.18
0.31
0.12
-4.43
-5.3
4.44
0.29
-2.65
0.57
7.42

> <PUBCHEM_SHAPE_SELFOVERLAP>
1543.466

> <PUBCHEM_SHAPE_VOLUME>
366.1

> <PUBCHEM_COORDINATE_TYPE>
2
5
10

$$$$
