139589079
  -OEChem-03292013293D

 62 65  0     1  0  0  0  0  0999 V2000
   -3.9234   -0.6225    0.1497 O   0  0  0  0  0  0  0  0  0  0  0  0
    5.8439   -0.0704    1.2878 O   0  0  0  0  0  0  0  0  0  0  0  0
    1.7916   -3.1035    0.5871 O   0  0  0  0  0  0  0  0  0  0  0  0
    4.7060    0.3835   -3.2468 O   0  0  0  0  0  0  0  0  0  0  0  0
   -4.9006    2.7345    0.1484 O   0  0  0  0  0  0  0  0  0  0  0  0
    4.1664    1.7829    1.4526 O   0  0  0  0  0  0  0  0  0  0  0  0
   -6.0359   -0.4071    1.0452 O   0  0  0  0  0  0  0  0  0  0  0  0
   -6.5220    0.0662   -1.8359 N   0  0  0  0  0  0  0  0  0  0  0  0
    3.6285    0.7281   -0.5494 N   0  0  0  0  0  0  0  0  0  0  0  0
    1.2131   -0.4097    0.7608 N   0  0  0  0  0  0  0  0  0  0  0  0
   -1.3975    0.4078    1.0800 N   0  0  0  0  0  0  0  0  0  0  0  0
    7.1323   -0.4973   -0.7830 C   0  0  0  0  0  0  0  0  0  0  0  0
    6.7911   -0.3603   -2.2672 C   0  0  0  0  0  0  0  0  0  0  0  0
   -5.4674    0.7065   -1.0514 C   0  0  1  0  0  0  0  0  0  0  0  0
    4.8810    0.2931   -0.8746 C   0  0  0  0  0  0  0  0  0  0  0  0
   -1.1019   -0.8990    0.9957 C   0  0  0  0  0  0  0  0  0  0  0  0
   -2.1104   -1.8576    1.0686 C   0  0  0  0  0  0  0  0  0  0  0  0
    5.8862   -0.0686   -0.0798 C   0  0  0  0  0  0  0  0  0  0  0  0
    0.2238   -1.3141    0.8333 C   0  0  0  0  0  0  0  0  0  0  0  0
    0.9176    0.8971    0.8454 C   0  0  0  0  0  0  0  0  0  0  0  0
    5.3704    0.1379   -2.2515 C   0  0  0  0  0  0  0  0  0  0  0  0
    1.9263    1.8557    0.7732 C   0  0  0  0  0  0  0  0  0  0  0  0
   -0.4082    1.3122    1.0073 C   0  0  0  0  0  0  0  0  0  0  0  0
   -3.5382   -1.4438    1.2429 C   0  0  0  0  0  0  0  0  0  0  0  0
    0.5040   -2.6764    0.7478 C   0  0  0  0  0  0  0  0  0  0  0  0
   -1.8237   -3.2186    0.9827 C   0  0  0  0  0  0  0  0  0  0  0  0
    3.3194    1.4577    0.6043 C   0  0  0  0  0  0  0  0  0  0  0  0
   -5.9133    2.1047   -0.6296 C   0  0  0  0  0  0  0  0  0  0  0  0
   -5.2156   -0.1623    0.1697 C   0  0  0  0  0  0  0  0  0  0  0  0
   -0.5093   -3.6303    0.8210 C   0  0  0  0  0  0  0  0  0  0  0  0
    1.6393    3.2168    0.8590 C   0  0  0  0  0  0  0  0  0  0  0  0
   -0.6885    2.6744    1.0920 C   0  0  0  0  0  0  0  0  0  0  0  0
    0.3247    3.6284    1.0192 C   0  0  0  0  0  0  0  0  0  0  0  0
   -6.1081   -1.2734   -2.2522 C   0  0  0  0  0  0  0  0  0  0  0  0
   -6.8594    0.8821   -3.0020 C   0  0  0  0  0  0  0  0  0  0  0  0
    2.2579   -3.2548   -0.7505 C   0  0  0  0  0  0  0  0  0  0  0  0
    7.9788    0.1438   -0.5159 H   0  0  0  0  0  0  0  0  0  0  0  0
    7.3913   -1.5320   -0.5355 H   0  0  0  0  0  0  0  0  0  0  0  0
    6.8444   -1.3247   -2.7801 H   0  0  0  0  0  0  0  0  0  0  0  0
    7.4390    0.3698   -2.7604 H   0  0  0  0  0  0  0  0  0  0  0  0
   -4.5314    0.7913   -1.6212 H   0  0  0  0  0  0  0  0  0  0  0  0
   -4.1998   -2.3178    1.2837 H   0  0  0  0  0  0  0  0  0  0  0  0
   -3.6452   -0.8928    2.1858 H   0  0  0  0  0  0  0  0  0  0  0  0
    2.9314    0.6956   -1.2894 H   0  0  0  0  0  0  0  0  0  0  0  0
   -2.6111   -3.9649    1.0396 H   0  0  0  0  0  0  0  0  0  0  0  0
   -6.0787    2.7678   -1.4827 H   0  0  0  0  0  0  0  0  0  0  0  0
   -6.8271    2.0713   -0.0253 H   0  0  0  0  0  0  0  0  0  0  0  0
   -0.2778   -4.6894    0.7535 H   0  0  0  0  0  0  0  0  0  0  0  0
    2.4293    3.9606    0.7999 H   0  0  0  0  0  0  0  0  0  0  0  0
   -1.7165    3.0091    1.2173 H   0  0  0  0  0  0  0  0  0  0  0  0
    0.0853    4.6851    1.0868 H   0  0  0  0  0  0  0  0  0  0  0  0
   -5.9835   -1.9535   -1.4032 H   0  0  0  0  0  0  0  0  0  0  0  0
   -7.5248    0.3285   -3.6762 H   0  0  0  0  0  0  0  0  0  0  0  0
   -5.9757    1.1754   -3.5805 H   0  0  0  0  0  0  0  0  0  0  0  0
   -7.4291    1.7749   -2.7267 H   0  0  0  0  0  0  0  0  0  0  0  0
   -6.8818   -1.7338   -2.8783 H   0  0  0  0  0  0  0  0  0  0  0  0
   -5.1759   -1.2583   -2.8292 H   0  0  0  0  0  0  0  0  0  0  0  0
    6.7104   -0.3776    1.6059 H   0  0  0  0  0  0  0  0  0  0  0  0
   -5.2363    3.6119    0.3995 H   0  0  0  0  0  0  0  0  0  0  0  0
    3.3039   -3.5717   -0.7150 H   0  0  0  0  0  0  0  0  0  0  0  0
    2.2005   -2.3050   -1.2917 H   0  0  0  0  0  0  0  0  0  0  0  0
    1.6779   -4.0209   -1.2745 H   0  0  0  0  0  0  0  0  0  0  0  0
  1 24  1  0  0  0  0
  1 29  1  0  0  0  0
  2 18  1  0  0  0  0
  2 58  1  0  0  0  0
  3 25  1  0  0  0  0
  3 36  1  0  0  0  0
  4 21  2  0  0  0  0
  5 28  1  0  0  0  0
  5 59  1  0  0  0  0
  6 27  2  0  0  0  0
  7 29  2  0  0  0  0
  8 14  1  0  0  0  0
  8 34  1  0  0  0  0
  8 35  1  0  0  0  0
  9 15  1  0  0  0  0
  9 27  1  0  0  0  0
  9 44  1  0  0  0  0
 10 19  2  0  0  0  0
 10 20  1  0  0  0  0
 11 16  2  0  0  0  0
 11 23  1  0  0  0  0
 12 13  1  0  0  0  0
 12 18  1  0  0  0  0
 12 37  1  0  0  0  0
 12 38  1  0  0  0  0
 13 21  1  0  0  0  0
 13 39  1  0  0  0  0
 13 40  1  0  0  0  0
 14 28  1  0  0  0  0
 14 29  1  0  0  0  0
 14 41  1  0  0  0  0
 15 18  2  0  0  0  0
 15 21  1  0  0  0  0
 16 17  1  0  0  0  0
 16 19  1  0  0  0  0
 17 24  1  0  0  0  0
 17 26  2  0  0  0  0
 19 25  1  0  0  0  0
 20 22  2  0  0  0  0
 20 23  1  0  0  0  0
 22 27  1  0  0  0  0
 22 31  1  0  0  0  0
 23 32  2  0  0  0  0
 24 42  1  0  0  0  0
 24 43  1  0  0  0  0
 25 30  2  0  0  0  0
 26 30  1  0  0  0  0
 26 45  1  0  0  0  0
 28 46  1  0  0  0  0
 28 47  1  0  0  0  0
 30 48  1  0  0  0  0
 31 33  2  0  0  0  0
 31 49  1  0  0  0  0
 32 33  1  0  0  0  0
 32 50  1  0  0  0  0
 33 51  1  0  0  0  0
 34 52  1  0  0  0  0
 34 56  1  0  0  0  0
 34 57  1  0  0  0  0
 35 53  1  0  0  0  0
 35 54  1  0  0  0  0
 35 55  1  0  0  0  0
 36 60  1  0  0  0  0
 36 61  1  0  0  0  0
 36 62  1  0  0  0  0
M  END
> <PUBCHEM_COMPOUND_CID>
139589079

> <PUBCHEM_CONFORMER_RMSD>
1

> <PUBCHEM_CONFORMER_DIVERSEORDER>
2
49
54
30
42
34
51
74
40
36
31
37
53
44
12
45
41
66
20
7
15
69
22
9
27
78
26
79
52
60
64
38
13
39
68
33
73
35
75
82
5
58
50
43
19
47
77
25
72
76
48
80
28
59
56
67
16
18
61
63
24
10
62
65
55
70
1
4
11
57
29
46
6
23
81
17
21
71
32
8
3
14

> <PUBCHEM_MMFF94_PARTIAL_CHARGES>
44
1 -0.43
10 -0.62
11 -0.62
12 0.14
13 0.06
14 0.33
15 0.12
16 0.31
17 -0.14
18 -0.06
19 0.31
2 -0.53
20 0.31
21 0.49
22 0.09
23 0.31
24 0.42
25 0.08
26 -0.15
27 0.54
28 0.28
29 0.66
3 -0.36
30 -0.15
31 -0.15
32 -0.15
33 -0.15
34 0.27
35 0.27
36 0.28
4 -0.57
44 0.37
45 0.15
48 0.15
49 0.15
5 -0.68
50 0.15
51 0.15
58 0.45
59 0.4
6 -0.57
7 -0.57
8 -0.81
9 -0.54

> <PUBCHEM_EFFECTIVE_ROTOR_COUNT>
10.4

> <PUBCHEM_PHARMACOPHORE_FEATURES>
15
1 10 acceptor
1 11 acceptor
1 2 donor
1 3 acceptor
1 4 acceptor
1 5 acceptor
1 5 donor
1 6 acceptor
1 7 acceptor
1 8 cation
1 9 donor
5 12 13 15 18 21 rings
6 10 11 16 19 20 23 rings
6 16 17 19 25 26 30 rings
6 20 22 23 31 32 33 rings

> <PUBCHEM_HEAVY_ATOM_COUNT>
36

> <PUBCHEM_ATOM_DEF_STEREO_COUNT>
1

> <PUBCHEM_ATOM_UDEF_STEREO_COUNT>
0

> <PUBCHEM_BOND_DEF_STEREO_COUNT>
0

> <PUBCHEM_BOND_UDEF_STEREO_COUNT>
0

> <PUBCHEM_ISOTOPIC_ATOM_COUNT>
0

> <PUBCHEM_COMPONENT_COUNT>
1

> <PUBCHEM_CACTVS_TAUTO_COUNT>
-1

> <PUBCHEM_CONFORMER_ID>
0851F5D700000002

> <PUBCHEM_MMFF94_ENERGY>
116.5957

> <PUBCHEM_FEATURE_SELFOVERLAP>
76.209

> <PUBCHEM_SHAPE_FINGERPRINT>
10483366 6 18411138000362380640
10693767 8 18060692883939885478
11115154 58 17418092101506928105
11991303 11 17603867853457122211
12202916 173 18131068226200016478
12596602 18 13398362235367495886
12838862 33 18339912793495163946
13540713 4 18050569839454477873
13782708 43 14620791596052917071
14931854 50 18410857620507326598
15052358 14 18409167731259708481
15183329 4 18410011031029871017
15324884 4 17900539287928580097
15351339 4 18337951169623615041
15840311 113 13407062670872650263
15927050 60 17767137405761364856
16067689 391 17985845734413035639
16989378 47 17489581264822846607
16994733 274 15936411177986241628
19958102 18 18334013865507798644
21223535 225 18130515128622218209
21279426 13 18410856607005768992
21307412 95 18272104811234283302
21814621 53 15913040963537469513
21859007 373 18261658351269599256
22122407 14 15719976716368190876
22393880 68 18269825571106528707
22440779 20 16375826734950335642
23536364 44 18342747290852504017
23559900 14 18199476639607668504
3298306 158 18409729590444761771
4015057 19 17560805501681302729
4058900 60 17894632513600298691
4353968 344 17985558758696295382
437795 139 15554161575559837183
4394409 98 18260842500819743118
4403749 210 16692430095163574472
4573279 73 18195526991285916257
59755656 215 18411420583815212850
6004065 56 17774152539238859768
9689198 14 14779267492519457437

> <PUBCHEM_SHAPE_MULTIPOLES>
679.85
17.57
3.97
2.26
3.39
0.74
-2.27
-2.76
-15.11
0.89
1.88
0.31
-0.13
1.59

> <PUBCHEM_SHAPE_SELFOVERLAP>
1486.718

> <PUBCHEM_SHAPE_VOLUME>
366.8

> <PUBCHEM_COORDINATE_TYPE>
2
5
10

$$$$
