139588387
  -OEChem-03292013293D

 46 46  0     1  0  0  0  0  0999 V2000
   -3.1669   -0.7976    1.8578 O   0  0  0  0  0  0  0  0  0  0  0  0
   -3.4466   -0.1351   -1.7049 O   0  0  0  0  0  0  0  0  0  0  0  0
   -6.9167   -2.6364   -0.3811 O   0  0  0  0  0  0  0  0  0  0  0  0
   -5.1943    2.0053   -0.4010 O   0  0  0  0  0  0  0  0  0  0  0  0
   -2.5193    2.2156    0.4289 O   0  0  0  0  0  0  0  0  0  0  0  0
   -5.7418   -0.1214    0.4012 N   0  0  0  0  0  0  0  0  0  0  0  0
   -3.6130   -1.0584    0.5264 C   0  0  1  0  0  0  0  0  0  0  0  0
   -5.1048   -1.4069    0.5741 C   0  0  2  0  0  0  0  0  0  0  0  0
   -3.5428    0.2116   -0.3370 C   0  0  2  0  0  0  0  0  0  0  0  0
   -4.9000    0.8511   -0.1283 C   0  0  0  0  0  0  0  0  0  0  0  0
   -5.5316   -2.3742   -0.5222 C   0  0  0  0  0  0  0  0  0  0  0  0
   -2.3682    1.0765   -0.0062 C   0  0  0  0  0  0  0  0  0  0  0  0
   -1.0205    0.4732   -0.2021 C   0  0  0  0  0  0  0  0  0  0  0  0
    0.0866    1.1771    0.0697 C   0  0  0  0  0  0  0  0  0  0  0  0
    1.4179    0.6375   -0.1057 C   0  0  0  0  0  0  0  0  0  0  0  0
    2.5314    1.3357    0.1640 C   0  0  0  0  0  0  0  0  0  0  0  0
    6.4048    1.0393    0.1079 C   0  0  0  0  0  0  0  0  0  0  0  0
    6.6781   -0.3609   -0.4573 C   0  0  0  0  0  0  0  0  0  0  0  0
    3.8626    0.7965   -0.0145 C   0  0  0  0  0  0  0  0  0  0  0  0
    4.9758    1.4952    0.2553 C   0  0  0  0  0  0  0  0  0  0  0  0
    8.1411   -0.7066   -0.4866 C   0  0  0  0  0  0  0  0  0  0  0  0
    8.7581   -1.6848    0.1934 C   0  0  0  0  0  0  0  0  0  0  0  0
   10.2098   -2.0326    0.1682 C   0  0  0  0  0  0  0  0  0  0  0  0
   -3.0130   -1.8866    0.1336 H   0  0  0  0  0  0  0  0  0  0  0  0
   -5.4175   -1.7839    1.5545 H   0  0  0  0  0  0  0  0  0  0  0  0
   -6.7172    0.0527    0.6226 H   0  0  0  0  0  0  0  0  0  0  0  0
   -4.9901   -3.3212   -0.4307 H   0  0  0  0  0  0  0  0  0  0  0  0
   -5.3633   -1.9659   -1.5235 H   0  0  0  0  0  0  0  0  0  0  0  0
   -3.2522   -1.6255    2.3607 H   0  0  0  0  0  0  0  0  0  0  0  0
   -2.9047   -0.9365   -1.7956 H   0  0  0  0  0  0  0  0  0  0  0  0
   -0.9656   -0.5457   -0.5701 H   0  0  0  0  0  0  0  0  0  0  0  0
   -7.1629   -3.2633   -1.0825 H   0  0  0  0  0  0  0  0  0  0  0  0
    0.0159    2.1975    0.4374 H   0  0  0  0  0  0  0  0  0  0  0  0
    1.4928   -0.3828   -0.4755 H   0  0  0  0  0  0  0  0  0  0  0  0
    2.4562    2.3560    0.5338 H   0  0  0  0  0  0  0  0  0  0  0  0
    6.8706    1.1147    1.0996 H   0  0  0  0  0  0  0  0  0  0  0  0
    6.9172    1.7757   -0.5254 H   0  0  0  0  0  0  0  0  0  0  0  0
    6.2870   -0.4302   -1.4797 H   0  0  0  0  0  0  0  0  0  0  0  0
    6.1391   -1.1079    0.1389 H   0  0  0  0  0  0  0  0  0  0  0  0
    4.8722    2.5133    0.6295 H   0  0  0  0  0  0  0  0  0  0  0  0
    3.9356   -0.2209   -0.3875 H   0  0  0  0  0  0  0  0  0  0  0  0
    8.7493   -0.0848   -1.1414 H   0  0  0  0  0  0  0  0  0  0  0  0
    8.1502   -2.3081    0.8467 H   0  0  0  0  0  0  0  0  0  0  0  0
   10.7731   -1.3753   -0.5014 H   0  0  0  0  0  0  0  0  0  0  0  0
   10.6335   -1.9431    1.1730 H   0  0  0  0  0  0  0  0  0  0  0  0
   10.3418   -3.0639   -0.1726 H   0  0  0  0  0  0  0  0  0  0  0  0
  1  7  1  0  0  0  0
  1 29  1  0  0  0  0
  2  9  1  0  0  0  0
  2 30  1  0  0  0  0
  3 11  1  0  0  0  0
  3 32  1  0  0  0  0
  4 10  2  0  0  0  0
  5 12  2  0  0  0  0
  6  8  1  0  0  0  0
  6 10  1  0  0  0  0
  6 26  1  0  0  0  0
  7  8  1  0  0  0  0
  7  9  1  0  0  0  0
  7 24  1  0  0  0  0
  8 11  1  0  0  0  0
  8 25  1  0  0  0  0
  9 10  1  0  0  0  0
  9 12  1  0  0  0  0
 11 27  1  0  0  0  0
 11 28  1  0  0  0  0
 12 13  1  0  0  0  0
 13 14  2  3  0  0  0
 13 31  1  0  0  0  0
 14 15  1  0  0  0  0
 14 33  1  0  0  0  0
 15 16  2  3  0  0  0
 15 34  1  0  0  0  0
 16 19  1  0  0  0  0
 16 35  1  0  0  0  0
 17 18  1  0  0  0  0
 17 20  1  0  0  0  0
 17 36  1  0  0  0  0
 17 37  1  0  0  0  0
 18 21  1  0  0  0  0
 18 38  1  0  0  0  0
 18 39  1  0  0  0  0
 19 20  2  3  0  0  0
 19 41  1  0  0  0  0
 20 40  1  0  0  0  0
 21 22  2  3  0  0  0
 21 42  1  0  0  0  0
 22 23  1  0  0  0  0
 22 43  1  0  0  0  0
 23 44  1  0  0  0  0
 23 45  1  0  0  0  0
 23 46  1  0  0  0  0
M  END
> <PUBCHEM_COMPOUND_CID>
139588387

> <PUBCHEM_CONFORMER_RMSD>
1

> <PUBCHEM_CONFORMER_DIVERSEORDER>
1
79
19
35
95
83
92
64
41
67
69
86
31
7
82
26
77
96
34
45
59
76
46
73
71
63
20
14
15
89
84
48
36
24
54
81
50
43
91
70
58
17
68
75
10
87
60
37
8
33
78
93
16
13
44
97
29
85
42
51
66
61
53
32
57
49
62
80
65
40
90
21
47
94
74
72
39
52
23
25
88
22
5
28
27
12
11
9
55
30
4
98
6
38
56
18
2
3

> <PUBCHEM_MMFF94_PARTIAL_CHARGES>
35
1 -0.68
10 0.57
11 0.28
12 0.49
13 -0.14
14 -0.15
15 -0.15
16 -0.15
17 0.14
18 0.14
19 -0.15
2 -0.68
20 -0.29
21 -0.29
22 -0.29
23 0.14
26 0.37
29 0.4
3 -0.68
30 0.4
31 0.15
32 0.4
33 0.15
34 0.15
35 0.15
4 -0.57
40 0.15
41 0.15
42 0.15
43 0.15
5 -0.57
6 -0.73
7 0.28
8 0.3
9 0.4

> <PUBCHEM_EFFECTIVE_ROTOR_COUNT>
8.8

> <PUBCHEM_PHARMACOPHORE_FEATURES>
12
1 1 acceptor
1 1 donor
1 2 acceptor
1 2 donor
1 23 hydrophobe
1 3 acceptor
1 3 donor
1 4 acceptor
1 5 acceptor
1 6 donor
4 17 18 20 21 hydrophobe
5 6 7 8 9 10 rings

> <PUBCHEM_HEAVY_ATOM_COUNT>
23

> <PUBCHEM_ATOM_DEF_STEREO_COUNT>
3

> <PUBCHEM_ATOM_UDEF_STEREO_COUNT>
0

> <PUBCHEM_BOND_DEF_STEREO_COUNT>
0

> <PUBCHEM_BOND_UDEF_STEREO_COUNT>
4

> <PUBCHEM_ISOTOPIC_ATOM_COUNT>
0

> <PUBCHEM_COMPONENT_COUNT>
1

> <PUBCHEM_CACTVS_TAUTO_COUNT>
-1

> <PUBCHEM_CONFORMER_ID>
0851F32300000001

> <PUBCHEM_MMFF94_ENERGY>
33.321

> <PUBCHEM_FEATURE_SELFOVERLAP>
60.905

> <PUBCHEM_SHAPE_FINGERPRINT>
10299344 5 18333735702683855780
11315181 36 18341898506319583097
11524674 6 17489869353801299110
13288520 33 18409730699142325421
13668630 136 18186517735232405456
13885169 127 18336547123577605336
14251764 18 12679173913227787176
15183329 4 16370441168531655298
15352257 5 18334577932685694114
15419008 91 18265593478074957148
15510794 2 18412258450704836680
15716309 27 18202003273703280677
16994733 274 10087635988843982910
17093844 174 12247678275235104253
2026 5 18408886201356674258
20281389 69 10663824070690244912
20621476 38 18411138031344847860
21150785 3 13984665867196804648
21267235 1 18188494683151732185
21315763 28 18410855482167812564
220451 1 16587738733724161168
23559900 14 18263078975747550033
3004659 81 17967813852056801624
33532 11 18409729552681385050
444769 64 18201997733744374774
59682541 35 17917704688121802026

> <PUBCHEM_SHAPE_MULTIPOLES>
439
28.25
2.37
0.91
63.71
0.9
-0.05
20.53
0.82
-1.28
0
-0.82
0.17
-0.02

> <PUBCHEM_SHAPE_SELFOVERLAP>
883.639

> <PUBCHEM_SHAPE_VOLUME>
255.9

> <PUBCHEM_COORDINATE_TYPE>
2
5
10

$$$$
