139585641
  -OEChem-03292013293D

 42 48  0     1  0  0  0  0  0999 V2000
    2.3710   -3.1282    0.0785 O   0  0  0  0  0  0  0  0  0  0  0  0
   -2.3710    3.1281    0.0783 O   0  0  0  0  0  0  0  0  0  0  0  0
    4.9951   -0.7985    0.4618 O   0  0  0  0  0  0  0  0  0  0  0  0
   -4.9949    0.7987    0.4622 O   0  0  0  0  0  0  0  0  0  0  0  0
   -4.8333   -1.6639   -0.1085 O   0  0  0  0  0  0  0  0  0  0  0  0
    4.8331    1.6641   -0.1084 O   0  0  0  0  0  0  0  0  0  0  0  0
   -0.8351    1.2390   -0.3928 C   0  0  2  0  0  0  0  0  0  0  0  0
    0.8351   -1.2391   -0.3928 C   0  0  2  0  0  0  0  0  0  0  0  0
   -1.4933    2.1373    0.6287 C   0  0  2  0  0  0  0  0  0  0  0  0
    1.4934   -2.1374    0.6288 C   0  0  2  0  0  0  0  0  0  0  0  0
   -2.9892    2.0407    0.7743 C   0  0  2  0  0  0  0  0  0  0  0  0
    2.9892   -2.0405    0.7746 C   0  0  2  0  0  0  0  0  0  0  0  0
    1.4579    0.1423   -0.2553 C   0  0  0  0  0  0  0  0  0  0  0  0
   -1.4579   -0.1424   -0.2553 C   0  0  0  0  0  0  0  0  0  0  0  0
    0.6732    1.3049   -0.2907 C   0  0  0  0  0  0  0  0  0  0  0  0
   -0.6732   -1.3050   -0.2906 C   0  0  0  0  0  0  0  0  0  0  0  0
    3.7015   -1.0372   -0.0848 C   0  0  1  0  0  0  0  0  0  0  0  0
   -3.7014    1.0373   -0.0848 C   0  0  1  0  0  0  0  0  0  0  0  0
   -2.8739   -0.2385   -0.1493 C   0  0  0  0  0  0  0  0  0  0  0  0
    2.8740    0.2384   -0.1494 C   0  0  0  0  0  0  0  0  0  0  0  0
   -1.3161   -2.5556   -0.2934 C   0  0  0  0  0  0  0  0  0  0  0  0
    1.3161    2.5555   -0.2933 C   0  0  0  0  0  0  0  0  0  0  0  0
   -3.4803   -1.5006   -0.1473 C   0  0  0  0  0  0  0  0  0  0  0  0
    3.4803    1.5006   -0.1473 C   0  0  0  0  0  0  0  0  0  0  0  0
    2.7039    2.6523   -0.2215 C   0  0  0  0  0  0  0  0  0  0  0  0
   -2.7039   -2.6524   -0.2216 C   0  0  0  0  0  0  0  0  0  0  0  0
    1.0830   -1.5847   -1.4077 H   0  0  0  0  0  0  0  0  0  0  0  0
   -1.0830    1.5845   -1.4077 H   0  0  0  0  0  0  0  0  0  0  0  0
    0.9231   -2.3600    1.5204 H   0  0  0  0  0  0  0  0  0  0  0  0
   -0.9231    2.3600    1.5204 H   0  0  0  0  0  0  0  0  0  0  0  0
    3.4257   -2.2223    1.7466 H   0  0  0  0  0  0  0  0  0  0  0  0
   -3.4257    2.2225    1.7463 H   0  0  0  0  0  0  0  0  0  0  0  0
   -3.8372    1.4108   -1.1070 H   0  0  0  0  0  0  0  0  0  0  0  0
    3.8371   -1.4110   -1.1070 H   0  0  0  0  0  0  0  0  0  0  0  0
    0.7338    3.4719   -0.3588 H   0  0  0  0  0  0  0  0  0  0  0  0
   -0.7339   -3.4721   -0.3590 H   0  0  0  0  0  0  0  0  0  0  0  0
    3.1630    3.6375   -0.2305 H   0  0  0  0  0  0  0  0  0  0  0  0
   -3.1632   -3.6375   -0.2307 H   0  0  0  0  0  0  0  0  0  0  0  0
    5.4888   -1.6354    0.4195 H   0  0  0  0  0  0  0  0  0  0  0  0
   -5.4887    1.6356    0.4196 H   0  0  0  0  0  0  0  0  0  0  0  0
    5.0483    2.6124   -0.1207 H   0  0  0  0  0  0  0  0  0  0  0  0
   -5.0484   -2.6122   -0.1209 H   0  0  0  0  0  0  0  0  0  0  0  0
  1 10  1  0  0  0  0
  1 12  1  0  0  0  0
  2  9  1  0  0  0  0
  2 11  1  0  0  0  0
  3 17  1  0  0  0  0
  3 39  1  0  0  0  0
  4 18  1  0  0  0  0
  4 40  1  0  0  0  0
  5 23  1  0  0  0  0
  5 42  1  0  0  0  0
  6 24  1  0  0  0  0
  6 41  1  0  0  0  0
  7  9  1  0  0  0  0
  7 14  1  0  0  0  0
  7 15  1  0  0  0  0
  7 28  1  0  0  0  0
  8 10  1  0  0  0  0
  8 13  1  0  0  0  0
  8 16  1  0  0  0  0
  8 27  1  0  0  0  0
  9 11  1  0  0  0  0
  9 30  1  0  0  0  0
 10 12  1  0  0  0  0
 10 29  1  0  0  0  0
 11 18  1  0  0  0  0
 11 32  1  0  0  0  0
 12 17  1  0  0  0  0
 12 31  1  0  0  0  0
 13 15  2  0  0  0  0
 13 20  1  0  0  0  0
 14 16  2  0  0  0  0
 14 19  1  0  0  0  0
 15 22  1  0  0  0  0
 16 21  1  0  0  0  0
 17 20  1  0  0  0  0
 17 34  1  0  0  0  0
 18 19  1  0  0  0  0
 18 33  1  0  0  0  0
 19 23  2  0  0  0  0
 20 24  2  0  0  0  0
 21 26  2  0  0  0  0
 21 36  1  0  0  0  0
 22 25  2  0  0  0  0
 22 35  1  0  0  0  0
 23 26  1  0  0  0  0
 24 25  1  0  0  0  0
 25 37  1  0  0  0  0
 26 38  1  0  0  0  0
M  END
> <PUBCHEM_COMPOUND_CID>
139585641

> <PUBCHEM_CONFORMER_RMSD>
0.6

> <PUBCHEM_CONFORMER_DIVERSEORDER>
1
3
2

> <PUBCHEM_MMFF94_PARTIAL_CHARGES>
38
1 -0.3
10 -0.05
11 -0.05
12 -0.05
13 -0.14
14 -0.14
15 -0.14
16 -0.14
17 0.52
18 0.52
19 -0.14
2 -0.3
20 -0.14
21 -0.15
22 -0.15
23 0.08
24 0.08
25 -0.15
26 -0.15
29 0.1
3 -0.68
30 0.1
31 0.1
32 0.1
35 0.15
36 0.15
37 0.15
38 0.15
39 0.4
4 -0.68
40 0.4
41 0.45
42 0.45
5 -0.53
6 -0.53
7 0.38
8 0.38
9 -0.05

> <PUBCHEM_EFFECTIVE_ROTOR_COUNT>
0.8

> <PUBCHEM_PHARMACOPHORE_FEATURES>
13
1 1 acceptor
1 2 acceptor
1 3 acceptor
1 3 donor
1 4 acceptor
1 4 donor
1 5 donor
1 6 donor
6 13 15 20 22 24 25 rings
6 14 16 19 21 23 26 rings
6 7 8 13 14 15 16 rings
7 1 8 10 12 13 17 20 rings
7 2 7 9 11 14 18 19 rings

> <PUBCHEM_HEAVY_ATOM_COUNT>
26

> <PUBCHEM_ATOM_DEF_STEREO_COUNT>
8

> <PUBCHEM_ATOM_UDEF_STEREO_COUNT>
0

> <PUBCHEM_BOND_DEF_STEREO_COUNT>
0

> <PUBCHEM_BOND_UDEF_STEREO_COUNT>
0

> <PUBCHEM_ISOTOPIC_ATOM_COUNT>
0

> <PUBCHEM_COMPONENT_COUNT>
1

> <PUBCHEM_CACTVS_TAUTO_COUNT>
-1

> <PUBCHEM_CONFORMER_ID>
0851E86900000001

> <PUBCHEM_MMFF94_ENERGY>
87.0762

> <PUBCHEM_FEATURE_SELFOVERLAP>
66.073

> <PUBCHEM_SHAPE_FINGERPRINT>
10411042 1 16536797600248473622
10616163 171 18339645641100339462
10967382 1 18338517434816995468
1100329 8 18410855447243260128
11513181 2 18131635568950479487
12107183 9 17834113039574500011
12553582 1 18192704558329005286
12633257 1 18338797793075789921
12788726 201 17774732974015154185
13140716 1 18338516477012869305
13224815 77 18410574002331320322
13583140 156 17459192885139543817
14081887 123 18271792570947531840
14117953 113 17402043401257785213
14178342 30 18338784672557784616
14223421 5 18410292501590087309
14787075 74 17977383063991298767
14790565 3 18047479108291200404
15042514 8 17110997150743941586
15196674 1 18410856585409593421
15442244 35 18410572842859163350
16728300 4 15730641618185452891
16945 1 18410575093253013638
17492 89 18410856542735149451
1813 80 17167863062780964932
19591789 44 17402898817220379878
20510252 161 18271811245771302633
20691752 17 17748825219883282182
20715895 44 18122057603698324981
20739085 24 18113618993572611404
20905425 154 18270967954401209628
21267235 1 18410300224105387382
21421861 104 18333447638299015651
21673915 165 18410574024159799072
22393880 68 18412271614452824548
2334 1 17834396004904861870
23558518 356 18334866042584711977
23559900 14 18341889710337038112
335352 9 18410573946496746006
338550 245 18334581264968334300
34934 24 18197776802925648983
350125 39 18410576179953819812
392239 28 17985825067362716576
4409770 3 16889191570270151126
474 4 17895759624676842516
5104073 3 18410856585409594217
5312544 6 18262804110851783580
6823239 73 18058744498491963774
7097593 13 18118397350315435802
7471813 234 17984678246543515935
7832392 63 18339360747767536942
9709674 26 18412269432187548646
9981440 41 17687181311258423344

> <PUBCHEM_SHAPE_MULTIPOLES>
499.85
8.51
3.75
0.73
0
0
-0.05
0
-0.69
0
-0.2
0
0
-1.01

> <PUBCHEM_SHAPE_SELFOVERLAP>
1158.315

> <PUBCHEM_SHAPE_VOLUME>
252.7

> <PUBCHEM_COORDINATE_TYPE>
2
5
10

$$$$
