139590627
  -OEChem-03292013293D

 61 64  0     1  0  0  0  0  0999 V2000
    2.9458   -1.8863   -0.3566 O   0  0  0  0  0  0  0  0  0  0  0  0
   -1.8528    1.7740   -0.7185 O   0  0  0  0  0  0  0  0  0  0  0  0
    2.4178    2.2979    0.5662 O   0  0  0  0  0  0  0  0  0  0  0  0
   -5.2454   -0.4494    0.1640 O   0  0  0  0  0  0  0  0  0  0  0  0
    1.0387   -5.4457    0.8989 O   0  0  0  0  0  0  0  0  0  0  0  0
    1.6811   -4.6154   -1.1207 O   0  0  0  0  0  0  0  0  0  0  0  0
   -3.9989   -2.0546    1.1646 O   0  0  0  0  0  0  0  0  0  0  0  0
    3.0636    4.2492   -0.4885 O   0  0  0  0  0  0  0  0  0  0  0  0
    1.0975   -0.5169    0.2433 C   0  0  1  0  0  0  0  0  0  0  0  0
    2.0126    0.2468   -0.7450 C   0  0  2  0  0  0  0  0  0  0  0  0
   -0.3571   -0.0772   -0.1038 C   0  0  2  0  0  0  0  0  0  0  0  0
   -0.5883    1.4734   -0.0593 C   0  0  1  0  0  0  0  0  0  0  0  0
    3.3286   -0.5430   -0.7543 C   0  0  0  0  0  0  0  0  0  0  0  0
    1.5005   -1.9465   -0.1987 C   0  0  2  0  0  0  0  0  0  0  0  0
    1.9523    1.7704   -0.6619 C   0  0  1  0  0  0  0  0  0  0  0  0
    0.4946    2.2216   -0.8926 C   0  0  0  0  0  0  0  0  0  0  0  0
    1.4369   -0.3486    1.7392 C   0  0  0  0  0  0  0  0  0  0  0  0
   -1.4930   -0.8113    0.6240 C   0  0  0  0  0  0  0  0  0  0  0  0
    1.1873   -3.1098    0.7312 C   0  0  0  0  0  0  0  0  0  0  0  0
   -0.6934    2.1173    1.3387 C   0  0  0  0  0  0  0  0  0  0  0  0
    3.9037   -0.6451   -2.1750 C   0  0  0  0  0  0  0  0  0  0  0  0
    4.4375   -0.0494    0.1721 C   0  0  0  0  0  0  0  0  0  0  0  0
   -2.8205   -0.2154    0.2450 C   0  0  0  0  0  0  0  0  0  0  0  0
   -2.9190    0.9608   -0.3958 C   0  0  0  0  0  0  0  0  0  0  0  0
    1.3396   -4.4388    0.0390 C   0  0  0  0  0  0  0  0  0  0  0  0
   -4.0504   -0.9852    0.5653 C   0  0  0  0  0  0  0  0  0  0  0  0
   -4.1940    1.4797   -0.8014 C   0  0  0  0  0  0  0  0  0  0  0  0
    2.9555    3.5572    0.5148 C   0  0  0  0  0  0  0  0  0  0  0  0
   -5.3029    0.7857   -0.5226 C   0  0  0  0  0  0  0  0  0  0  0  0
    3.4036    3.9829    1.8801 C   0  0  0  0  0  0  0  0  0  0  0  0
   -6.6813    1.2216   -0.8917 C   0  0  0  0  0  0  0  0  0  0  0  0
    1.5844    0.0477   -1.7446 H   0  0  0  0  0  0  0  0  0  0  0  0
   -0.5046   -0.3551   -1.1625 H   0  0  0  0  0  0  0  0  0  0  0  0
    1.0839   -2.1512   -1.1948 H   0  0  0  0  0  0  0  0  0  0  0  0
    2.5671    2.1576   -1.4854 H   0  0  0  0  0  0  0  0  0  0  0  0
    0.3952    3.3024   -0.7286 H   0  0  0  0  0  0  0  0  0  0  0  0
    0.2608    2.0726   -1.9568 H   0  0  0  0  0  0  0  0  0  0  0  0
    2.3710   -0.8488    2.0112 H   0  0  0  0  0  0  0  0  0  0  0  0
    0.6712   -0.8008    2.3765 H   0  0  0  0  0  0  0  0  0  0  0  0
    1.5494    0.6840    2.0550 H   0  0  0  0  0  0  0  0  0  0  0  0
   -1.3828   -0.7673    1.7113 H   0  0  0  0  0  0  0  0  0  0  0  0
   -1.4830   -1.8653    0.3281 H   0  0  0  0  0  0  0  0  0  0  0  0
    1.8760   -3.1173    1.5838 H   0  0  0  0  0  0  0  0  0  0  0  0
    0.1602   -3.0527    1.0976 H   0  0  0  0  0  0  0  0  0  0  0  0
   -1.3707    1.5686    1.9998 H   0  0  0  0  0  0  0  0  0  0  0  0
   -1.1141    3.1277    1.2560 H   0  0  0  0  0  0  0  0  0  0  0  0
    0.2615    2.2183    1.8502 H   0  0  0  0  0  0  0  0  0  0  0  0
    4.7974   -1.2798   -2.1887 H   0  0  0  0  0  0  0  0  0  0  0  0
    5.2715   -0.7607    0.1905 H   0  0  0  0  0  0  0  0  0  0  0  0
    4.1066    0.0509    1.2072 H   0  0  0  0  0  0  0  0  0  0  0  0
    4.8240    0.9229   -0.1509 H   0  0  0  0  0  0  0  0  0  0  0  0
    4.1701    0.3396   -2.5724 H   0  0  0  0  0  0  0  0  0  0  0  0
    3.1897   -1.1175   -2.8597 H   0  0  0  0  0  0  0  0  0  0  0  0
   -4.2348    2.4276   -1.3269 H   0  0  0  0  0  0  0  0  0  0  0  0
    4.1695    3.2958    2.2482 H   0  0  0  0  0  0  0  0  0  0  0  0
    2.5476    4.0051    2.5592 H   0  0  0  0  0  0  0  0  0  0  0  0
    3.8325    4.9874    1.8251 H   0  0  0  0  0  0  0  0  0  0  0  0
    1.1288   -6.3264    0.4765 H   0  0  0  0  0  0  0  0  0  0  0  0
   -7.1514    0.4779   -1.5429 H   0  0  0  0  0  0  0  0  0  0  0  0
   -6.6809    2.1806   -1.4200 H   0  0  0  0  0  0  0  0  0  0  0  0
   -7.2963    1.3320    0.0071 H   0  0  0  0  0  0  0  0  0  0  0  0
  1 13  1  0  0  0  0
  1 14  1  0  0  0  0
  2 12  1  0  0  0  0
  2 24  1  0  0  0  0
  3 15  1  0  0  0  0
  3 28  1  0  0  0  0
  4 26  1  0  0  0  0
  4 29  1  0  0  0  0
  5 25  1  0  0  0  0
  5 58  1  0  0  0  0
  6 25  2  0  0  0  0
  7 26  2  0  0  0  0
  8 28  2  0  0  0  0
  9 10  1  0  0  0  0
  9 11  1  0  0  0  0
  9 14  1  0  0  0  0
  9 17  1  0  0  0  0
 10 13  1  0  0  0  0
 10 15  1  0  0  0  0
 10 32  1  0  0  0  0
 11 12  1  0  0  0  0
 11 18  1  0  0  0  0
 11 33  1  0  0  0  0
 12 16  1  0  0  0  0
 12 20  1  0  0  0  0
 13 21  1  0  0  0  0
 13 22  1  0  0  0  0
 14 19  1  0  0  0  0
 14 34  1  0  0  0  0
 15 16  1  0  0  0  0
 15 35  1  0  0  0  0
 16 36  1  0  0  0  0
 16 37  1  0  0  0  0
 17 38  1  0  0  0  0
 17 39  1  0  0  0  0
 17 40  1  0  0  0  0
 18 23  1  0  0  0  0
 18 41  1  0  0  0  0
 18 42  1  0  0  0  0
 19 25  1  0  0  0  0
 19 43  1  0  0  0  0
 19 44  1  0  0  0  0
 20 45  1  0  0  0  0
 20 46  1  0  0  0  0
 20 47  1  0  0  0  0
 21 48  1  0  0  0  0
 21 52  1  0  0  0  0
 21 53  1  0  0  0  0
 22 49  1  0  0  0  0
 22 50  1  0  0  0  0
 22 51  1  0  0  0  0
 23 24  2  0  0  0  0
 23 26  1  0  0  0  0
 24 27  1  0  0  0  0
 27 29  2  0  0  0  0
 27 54  1  0  0  0  0
 28 30  1  0  0  0  0
 29 31  1  0  0  0  0
 30 55  1  0  0  0  0
 30 56  1  0  0  0  0
 30 57  1  0  0  0  0
 31 59  1  0  0  0  0
 31 60  1  0  0  0  0
 31 61  1  0  0  0  0
M  END
> <PUBCHEM_COMPOUND_CID>
139590627

> <PUBCHEM_CONFORMER_RMSD>
0.8

> <PUBCHEM_CONFORMER_DIVERSEORDER>
1
2
3

> <PUBCHEM_MMFF94_PARTIAL_CHARGES>
25
1 -0.56
12 0.28
13 0.28
14 0.28
15 0.28
18 0.14
19 0.06
2 -0.36
23 -0.12
24 0.08
25 0.66
26 0.71
27 -0.15
28 0.66
29 -0.06
3 -0.43
30 0.06
31 0.14
4 -0.23
5 -0.65
54 0.15
58 0.5
6 -0.57
7 -0.57
8 -0.57

> <PUBCHEM_EFFECTIVE_ROTOR_COUNT>
5.4

> <PUBCHEM_PHARMACOPHORE_FEATURES>
12
1 1 acceptor
1 2 acceptor
1 5 acceptor
1 6 acceptor
1 7 acceptor
1 8 acceptor
3 13 21 22 hydrophobe
3 5 6 25 anion
5 1 9 10 13 14 rings
6 2 11 12 18 23 24 rings
6 4 23 24 26 27 29 rings
6 9 10 11 12 15 16 rings

> <PUBCHEM_HEAVY_ATOM_COUNT>
31

> <PUBCHEM_ATOM_DEF_STEREO_COUNT>
6

> <PUBCHEM_ATOM_UDEF_STEREO_COUNT>
0

> <PUBCHEM_BOND_DEF_STEREO_COUNT>
0

> <PUBCHEM_BOND_UDEF_STEREO_COUNT>
0

> <PUBCHEM_ISOTOPIC_ATOM_COUNT>
0

> <PUBCHEM_COMPONENT_COUNT>
1

> <PUBCHEM_CACTVS_TAUTO_COUNT>
-1

> <PUBCHEM_CONFORMER_ID>
0851FBE300000001

> <PUBCHEM_MMFF94_ENERGY>
114.2742

> <PUBCHEM_FEATURE_SELFOVERLAP>
61.063

> <PUBCHEM_SHAPE_FINGERPRINT>
10411042 1 17833828274949044599
10930396 42 18267000827699319074
10940486 97 16750450765330655550
1100329 8 18340204215220609882
12788726 201 17185885986626799838
13140716 1 18339079392617140722
13692114 37 17983847067613972550
13757389 114 17757563227573510541
138480 1 18265894648826330870
13911987 19 18191895395517912260
13955234 65 18411697656513579979
14955137 171 18337662019809605202
15324884 4 18045242662641947034
15439362 3 18268425905816463404
15664445 248 18269845228997555140
15927050 60 18123467452471841558
16728300 4 17463095013768845634
18681886 176 18408882954138878058
19591789 44 18337679740132706471
20028762 73 18271804665850432550
20775438 99 18057042638954545934
20775530 9 17907017270709894135
21033648 29 18196365051096641408
21120745 212 17622739617796046878
21285901 2 17459754718174485511
21452121 103 18339917233600408528
22182313 1 18047207506968679010
22393880 68 18408889572462071647
23559900 14 18335700520697640477
239999 70 18273497866226996677
283562 15 18051709750510029614
3004659 81 17897446086356532727
3178227 256 18410302406048546178
350125 39 18336829783759717372
4280585 95 17467633694088565938
463206 1 18265902362657023982
495365 180 18411692222990099297
5104073 3 18335422409034154033
59755656 215 18189901903185088350
6669772 16 18271248334878814772
9777508 108 17836080452866999456

> <PUBCHEM_SHAPE_MULTIPOLES>
591.01
9.75
5.65
1.37
16.33
4.39
0.05
-3.43
-2.1
-7.18
1.38
-0.91
-0.26
1.88

> <PUBCHEM_SHAPE_SELFOVERLAP>
1266.82

> <PUBCHEM_SHAPE_VOLUME>
324.9

> <PUBCHEM_COORDINATE_TYPE>
2
5
10

$$$$
