139584358
  -OEChem-03292013293D

 73 76  0     1  0  0  0  0  0999 V2000
    4.8706   -0.3071    1.9516 O   0  0  0  0  0  0  0  0  0  0  0  0
    2.7920   -1.2371    0.4385 O   0  0  0  0  0  0  0  0  0  0  0  0
    3.6453    2.2548   -0.4106 O   0  0  0  0  0  0  0  0  0  0  0  0
    5.9092   -0.9806   -1.5082 O   0  0  0  0  0  0  0  0  0  0  0  0
    2.5424    4.2991   -0.9228 O   0  0  0  0  0  0  0  0  0  0  0  0
    5.4512   -3.7270   -2.1071 O   0  0  0  0  0  0  0  0  0  0  0  0
   -0.9027    2.8703    1.8732 O   0  0  0  0  0  0  0  0  0  0  0  0
    0.6633    2.5283    0.1918 N   0  0  0  0  0  0  0  0  0  0  0  0
    3.4608    1.1584    0.5201 C   0  0  0  0  0  0  0  0  0  0  0  0
    4.8064    0.8728    1.1350 C   0  0  2  0  0  0  0  0  0  0  0  0
    2.8761    0.0124   -0.2650 C   0  0  1  0  0  0  0  0  0  0  0  0
    5.6311   -0.3191    0.7336 C   0  0  2  0  0  0  0  0  0  0  0  0
    3.7034   -1.1781   -0.6694 C   0  0  1  0  0  0  0  0  0  0  0  0
    5.1636   -1.2832   -0.3217 C   0  0  0  0  0  0  0  0  0  0  0  0
    2.4736    1.6688    1.5916 C   0  0  0  0  0  0  0  0  0  0  0  0
    5.5113   -2.7184    0.0891 C   0  0  0  0  0  0  0  0  0  0  0  0
    1.8302    2.8868    0.9597 C   0  0  1  0  0  0  0  0  0  0  0  0
    2.9651    3.4109    0.0968 C   0  0  1  0  0  0  0  0  0  0  0  0
    5.0617   -3.7305   -0.9403 C   0  0  0  0  0  0  0  0  0  0  0  0
    4.0869   -4.7695   -0.4500 C   0  0  0  0  0  0  0  0  0  0  0  0
   -0.6151    2.5523    0.7238 C   0  0  0  0  0  0  0  0  0  0  0  0
   -1.6399    2.1344   -0.2758 C   0  0  0  0  0  0  0  0  0  0  0  0
   -2.9374    2.0979    0.0653 C   0  0  0  0  0  0  0  0  0  0  0  0
   -4.0536    1.7128   -0.8044 C   0  0  0  0  0  0  0  0  0  0  0  0
   -5.3036    1.7328   -0.2941 C   0  0  0  0  0  0  0  0  0  0  0  0
   -3.7257    1.3059   -2.2174 C   0  0  0  0  0  0  0  0  0  0  0  0
   -6.6100    1.4013   -0.9852 C   0  0  1  0  0  0  0  0  0  0  0  0
   -7.2807    0.2169   -0.2611 C   0  0  0  0  0  0  0  0  0  0  0  0
   -6.4316   -1.0590   -0.2750 C   0  0  0  0  0  0  0  0  0  0  0  0
   -7.4976    2.6501   -1.0042 C   0  0  0  0  0  0  0  0  0  0  0  0
   -7.1097   -2.2446    0.4201 C   0  0  0  0  0  0  0  0  0  0  0  0
   -6.2735   -3.5250    0.5151 C   0  0  0  0  0  0  0  0  0  0  0  0
   -6.9754   -4.7291    1.1475 C   0  0  0  0  0  0  0  0  0  0  0  0
   -6.0877   -5.9587    1.2595 C   0  0  0  0  0  0  0  0  0  0  0  0
    5.3173    1.7547    1.5003 H   0  0  0  0  0  0  0  0  0  0  0  0
    2.0360    0.2845   -0.8896 H   0  0  0  0  0  0  0  0  0  0  0  0
    6.7080   -0.2606    0.8292 H   0  0  0  0  0  0  0  0  0  0  0  0
    3.4224   -1.6914   -1.5803 H   0  0  0  0  0  0  0  0  0  0  0  0
    3.0196    1.9891    2.4889 H   0  0  0  0  0  0  0  0  0  0  0  0
    1.7540    0.9075    1.9125 H   0  0  0  0  0  0  0  0  0  0  0  0
    5.0480   -2.9631    1.0528 H   0  0  0  0  0  0  0  0  0  0  0  0
    6.5931   -2.8495    0.2156 H   0  0  0  0  0  0  0  0  0  0  0  0
    1.5276    3.6272    1.7080 H   0  0  0  0  0  0  0  0  0  0  0  0
    3.6811    3.9478    0.7328 H   0  0  0  0  0  0  0  0  0  0  0  0
    6.8508   -1.1456   -1.3287 H   0  0  0  0  0  0  0  0  0  0  0  0
    0.8030    2.2284   -0.7687 H   0  0  0  0  0  0  0  0  0  0  0  0
    3.3008    4.8649   -1.1457 H   0  0  0  0  0  0  0  0  0  0  0  0
    3.1770   -4.2824   -0.0909 H   0  0  0  0  0  0  0  0  0  0  0  0
    3.8241   -5.4432   -1.2704 H   0  0  0  0  0  0  0  0  0  0  0  0
    4.5457   -5.3535    0.3516 H   0  0  0  0  0  0  0  0  0  0  0  0
   -1.2961    1.8691   -1.2695 H   0  0  0  0  0  0  0  0  0  0  0  0
   -3.2161    2.3779    1.0803 H   0  0  0  0  0  0  0  0  0  0  0  0
   -5.4282    2.0371    0.7467 H   0  0  0  0  0  0  0  0  0  0  0  0
   -3.0455    0.4467   -2.2207 H   0  0  0  0  0  0  0  0  0  0  0  0
   -3.2482    2.1338   -2.7534 H   0  0  0  0  0  0  0  0  0  0  0  0
   -4.5954    1.0124   -2.8072 H   0  0  0  0  0  0  0  0  0  0  0  0
   -6.4533    1.1060   -2.0258 H   0  0  0  0  0  0  0  0  0  0  0  0
   -7.5063    0.4912    0.7779 H   0  0  0  0  0  0  0  0  0  0  0  0
   -8.2445    0.0072   -0.7425 H   0  0  0  0  0  0  0  0  0  0  0  0
   -6.2037   -1.3349   -1.3118 H   0  0  0  0  0  0  0  0  0  0  0  0
   -5.4729   -0.8797    0.2247 H   0  0  0  0  0  0  0  0  0  0  0  0
   -7.7323    2.9927    0.0099 H   0  0  0  0  0  0  0  0  0  0  0  0
   -8.4442    2.4395   -1.5134 H   0  0  0  0  0  0  0  0  0  0  0  0
   -7.0070    3.4731   -1.5357 H   0  0  0  0  0  0  0  0  0  0  0  0
   -7.3964   -1.9435    1.4357 H   0  0  0  0  0  0  0  0  0  0  0  0
   -8.0432   -2.4731   -0.1094 H   0  0  0  0  0  0  0  0  0  0  0  0
   -5.3636   -3.3041    1.0872 H   0  0  0  0  0  0  0  0  0  0  0  0
   -5.9434   -3.8025   -0.4941 H   0  0  0  0  0  0  0  0  0  0  0  0
   -7.3289   -4.4556    2.1486 H   0  0  0  0  0  0  0  0  0  0  0  0
   -7.8628   -4.9821    0.5554 H   0  0  0  0  0  0  0  0  0  0  0  0
   -5.2095   -5.7510    1.8790 H   0  0  0  0  0  0  0  0  0  0  0  0
   -5.7430   -6.2821    0.2723 H   0  0  0  0  0  0  0  0  0  0  0  0
   -6.6395   -6.7860    1.7164 H   0  0  0  0  0  0  0  0  0  0  0  0
  1 10  1  0  0  0  0
  1 12  1  0  0  0  0
  2 11  1  0  0  0  0
  2 13  1  0  0  0  0
  3  9  1  0  0  0  0
  3 18  1  0  0  0  0
  4 14  1  0  0  0  0
  4 45  1  0  0  0  0
  5 18  1  0  0  0  0
  5 47  1  0  0  0  0
  6 19  2  0  0  0  0
  7 21  2  0  0  0  0
  8 17  1  0  0  0  0
  8 21  1  0  0  0  0
  8 46  1  0  0  0  0
  9 10  1  0  0  0  0
  9 11  1  0  0  0  0
  9 15  1  0  0  0  0
 10 12  1  0  0  0  0
 10 35  1  0  0  0  0
 11 13  1  0  0  0  0
 11 36  1  0  0  0  0
 12 14  1  0  0  0  0
 12 37  1  0  0  0  0
 13 14  1  0  0  0  0
 13 38  1  0  0  0  0
 14 16  1  0  0  0  0
 15 17  1  0  0  0  0
 15 39  1  0  0  0  0
 15 40  1  0  0  0  0
 16 19  1  0  0  0  0
 16 41  1  0  0  0  0
 16 42  1  0  0  0  0
 17 18  1  0  0  0  0
 17 43  1  0  0  0  0
 18 44  1  0  0  0  0
 19 20  1  0  0  0  0
 20 48  1  0  0  0  0
 20 49  1  0  0  0  0
 20 50  1  0  0  0  0
 21 22  1  0  0  0  0
 22 23  2  0  0  0  0
 22 51  1  0  0  0  0
 23 24  1  0  0  0  0
 23 52  1  0  0  0  0
 24 25  2  0  0  0  0
 24 26  1  0  0  0  0
 25 27  1  0  0  0  0
 25 53  1  0  0  0  0
 26 54  1  0  0  0  0
 26 55  1  0  0  0  0
 26 56  1  0  0  0  0
 27 28  1  0  0  0  0
 27 30  1  0  0  0  0
 27 57  1  0  0  0  0
 28 29  1  0  0  0  0
 28 58  1  0  0  0  0
 28 59  1  0  0  0  0
 29 31  1  0  0  0  0
 29 60  1  0  0  0  0
 29 61  1  0  0  0  0
 30 62  1  0  0  0  0
 30 63  1  0  0  0  0
 30 64  1  0  0  0  0
 31 32  1  0  0  0  0
 31 65  1  0  0  0  0
 31 66  1  0  0  0  0
 32 33  1  0  0  0  0
 32 67  1  0  0  0  0
 32 68  1  0  0  0  0
 33 34  1  0  0  0  0
 33 69  1  0  0  0  0
 33 70  1  0  0  0  0
 34 71  1  0  0  0  0
 34 72  1  0  0  0  0
 34 73  1  0  0  0  0
M  END
> <PUBCHEM_COMPOUND_CID>
139584358

> <PUBCHEM_CONFORMER_RMSD>
1.2

> <PUBCHEM_CONFORMER_DIVERSEORDER>
1
8
67
32
41
89
106
47
49
46
103
56
24
116
65
28
72
29
124
86
102
109
25
60
119
96
42
98
80
22
71
37
91
21
5
107
88
26
84
79
78
121
44
45
15
70
61
7
77
40
19
18
101
23
20
110
33
112
30
43
75
69
38
120
90
66
74
35
68
59
39
50
64
81
58
63
105
95
6
31
51
115
83
122
113
73
10
76
62
100
48
36
85
57
53
3
13
34
93
12
54
99
114
16
123
82
11
117
27
4
55
52
118
87
2
111
97
17
94
9
92
108
104
14

> <PUBCHEM_MMFF94_PARTIAL_CHARGES>
36
1 -0.3
10 -0.05
11 -0.05
12 -0.05
13 -0.05
14 0.47
16 0.06
17 0.3
18 0.56
19 0.45
2 -0.3
20 0.06
21 0.62
22 -0.14
23 -0.15
24 -0.14
25 -0.29
26 0.14
27 0.14
3 -0.56
35 0.1
36 0.1
37 0.1
38 0.1
4 -0.68
45 0.4
46 0.37
47 0.4
5 -0.68
51 0.15
52 0.15
53 0.15
6 -0.57
7 -0.57
8 -0.73
9 0.47

> <PUBCHEM_EFFECTIVE_ROTOR_COUNT>
13.4

> <PUBCHEM_PHARMACOPHORE_FEATURES>
15
1 1 acceptor
1 2 acceptor
1 26 hydrophobe
1 3 acceptor
1 30 hydrophobe
1 34 hydrophobe
1 4 acceptor
1 4 donor
1 5 acceptor
1 5 donor
1 6 acceptor
1 7 acceptor
1 8 donor
5 3 9 15 17 18 rings
8 1 2 9 10 11 12 13 14 rings

> <PUBCHEM_HEAVY_ATOM_COUNT>
34

> <PUBCHEM_ATOM_DEF_STEREO_COUNT>
6

> <PUBCHEM_ATOM_UDEF_STEREO_COUNT>
1

> <PUBCHEM_BOND_DEF_STEREO_COUNT>
2

> <PUBCHEM_BOND_UDEF_STEREO_COUNT>
0

> <PUBCHEM_ISOTOPIC_ATOM_COUNT>
0

> <PUBCHEM_COMPONENT_COUNT>
1

> <PUBCHEM_CACTVS_TAUTO_COUNT>
-1

> <PUBCHEM_CONFORMER_ID>
0851E36600000001

> <PUBCHEM_MMFF94_ENERGY>
56.8286

> <PUBCHEM_FEATURE_SELFOVERLAP>
76.175

> <PUBCHEM_SHAPE_FINGERPRINT>
10864689 126 18191863432260693879
11387372 6 18336260228921587423
117089 54 18338800126097996115
13383668 262 18046645656716764567
13553643 44 18266199334572194275
1361 4 18191023607224711673
13782708 43 18260263066908543817
13989917 61 18410575110506917646
14556957 393 14346063184684338903
15019793 15 18268427022402426495
15152005 304 17984149166850683150
15352257 5 18409444821934945281
229767 8 18337679728023498747
404807 78 18412550925087907646
439807 62 18270115687019609277
4435113 14 18189336947750614531
46194498 28 18186793669702441756
484989 97 18410862095889797867
7970288 3 18197214754793774020
9831232 110 18408601440148941157

> <PUBCHEM_SHAPE_MULTIPOLES>
653.64
23.54
7.52
1.53
31.51
10.41
-0.13
21.03
-2.12
5.67
0.85
-0.59
0.19
6.89

> <PUBCHEM_SHAPE_SELFOVERLAP>
1342.627

> <PUBCHEM_SHAPE_VOLUME>
371.8

> <PUBCHEM_COORDINATE_TYPE>
2
5
10

$$$$
