139586996
  -OEChem-03292013293D

 68 72  0     1  0  0  0  0  0999 V2000
   -3.8957   -0.8858   -1.5999 O   0  0  0  0  0  0  0  0  0  0  0  0
    0.0749   -1.3591    0.1303 O   0  0  0  0  0  0  0  0  0  0  0  0
   -1.6431    0.1719   -1.3283 O   0  0  0  0  0  0  0  0  0  0  0  0
   -6.0426    0.7664   -2.1388 O   0  0  0  0  0  0  0  0  0  0  0  0
    2.9114    1.6663    0.2573 O   0  0  0  0  0  0  0  0  0  0  0  0
    1.3164    3.2207    0.6693 O   0  0  0  0  0  0  0  0  0  0  0  0
    8.7538   -0.6290   -0.7121 O   0  0  0  0  0  0  0  0  0  0  0  0
   -3.3666    0.4606    0.4177 C   0  0  1  0  0  0  0  0  0  0  0  0
   -4.1898   -0.7735   -0.1843 C   0  0  1  0  0  0  0  0  0  0  0  0
   -1.8079    0.2414    0.1142 C   0  0  1  0  0  0  0  0  0  0  0  0
   -5.7702   -0.6195   -0.0991 C   0  0  0  0  0  0  0  0  0  0  0  0
   -1.2615   -1.1244    0.6574 C   0  0  1  0  0  0  0  0  0  0  0  0
   -3.6428   -2.1071    0.3872 C   0  0  0  0  0  0  0  0  0  0  0  0
   -3.8882    1.7696   -0.2555 C   0  0  0  0  0  0  0  0  0  0  0  0
   -2.1340   -2.2889    0.1381 C   0  0  0  0  0  0  0  0  0  0  0  0
   -6.2022    0.7539   -0.7174 C   0  0  1  0  0  0  0  0  0  0  0  0
   -5.4131    1.9502   -0.1793 C   0  0  0  0  0  0  0  0  0  0  0  0
   -3.5846    0.6291    1.9508 C   0  0  0  0  0  0  0  0  0  0  0  0
   -0.8667    1.3912    0.5532 C   0  0  0  0  0  0  0  0  0  0  0  0
   -6.3441   -0.7197    1.3327 C   0  0  0  0  0  0  0  0  0  0  0  0
   -6.4725   -1.7615   -0.8925 C   0  0  0  0  0  0  0  0  0  0  0  0
   -1.1212   -1.2653    2.1895 C   0  0  0  0  0  0  0  0  0  0  0  0
    0.5768    0.9858    0.3960 C   0  0  0  0  0  0  0  0  0  0  0  0
    0.9435   -0.2880    0.1782 C   0  0  0  0  0  0  0  0  0  0  0  0
    1.6117    2.0495    0.4537 C   0  0  0  0  0  0  0  0  0  0  0  0
    2.3197   -0.6422   -0.0284 C   0  0  0  0  0  0  0  0  0  0  0  0
    3.2557    0.3150    0.0080 C   0  0  0  0  0  0  0  0  0  0  0  0
    4.6969    0.0691   -0.1804 C   0  0  0  0  0  0  0  0  0  0  0  0
    5.2520    0.1218   -1.4590 C   0  0  0  0  0  0  0  0  0  0  0  0
    5.5052   -0.2176    0.9196 C   0  0  0  0  0  0  0  0  0  0  0  0
    6.6153   -0.1125   -1.6375 C   0  0  0  0  0  0  0  0  0  0  0  0
    6.8685   -0.4521    0.7412 C   0  0  0  0  0  0  0  0  0  0  0  0
    7.4236   -0.3995   -0.5375 C   0  0  0  0  0  0  0  0  0  0  0  0
    9.5216   -0.9166    0.4558 C   0  0  0  0  0  0  0  0  0  0  0  0
   -4.1359   -2.9631   -0.0881 H   0  0  0  0  0  0  0  0  0  0  0  0
   -3.8493   -2.2001    1.4564 H   0  0  0  0  0  0  0  0  0  0  0  0
   -3.6112    1.7912   -1.3153 H   0  0  0  0  0  0  0  0  0  0  0  0
   -3.4114    2.6449    0.2026 H   0  0  0  0  0  0  0  0  0  0  0  0
   -1.8063   -3.2323    0.5951 H   0  0  0  0  0  0  0  0  0  0  0  0
   -1.9524   -2.4333   -0.9354 H   0  0  0  0  0  0  0  0  0  0  0  0
   -7.2709    0.9166   -0.5289 H   0  0  0  0  0  0  0  0  0  0  0  0
   -5.7243    2.1650    0.8471 H   0  0  0  0  0  0  0  0  0  0  0  0
   -5.6688    2.8475   -0.7581 H   0  0  0  0  0  0  0  0  0  0  0  0
   -2.7161    1.0470    2.4616 H   0  0  0  0  0  0  0  0  0  0  0  0
   -3.8266   -0.3080    2.4527 H   0  0  0  0  0  0  0  0  0  0  0  0
   -4.3902    1.3237    2.1958 H   0  0  0  0  0  0  0  0  0  0  0  0
   -1.0167    1.6863    1.5942 H   0  0  0  0  0  0  0  0  0  0  0  0
   -1.0514    2.2780   -0.0656 H   0  0  0  0  0  0  0  0  0  0  0  0
   -5.9975   -1.6206    1.8477 H   0  0  0  0  0  0  0  0  0  0  0  0
   -6.2792   -2.7436   -0.4498 H   0  0  0  0  0  0  0  0  0  0  0  0
   -6.1786   -1.7986   -1.9454 H   0  0  0  0  0  0  0  0  0  0  0  0
   -7.5606   -1.6199   -0.8840 H   0  0  0  0  0  0  0  0  0  0  0  0
   -7.4399   -0.7744    1.3060 H   0  0  0  0  0  0  0  0  0  0  0  0
   -6.1141    0.1430    1.9558 H   0  0  0  0  0  0  0  0  0  0  0  0
   -0.6219   -0.4037    2.6425 H   0  0  0  0  0  0  0  0  0  0  0  0
   -0.4931   -2.1325    2.4314 H   0  0  0  0  0  0  0  0  0  0  0  0
   -2.0698   -1.4160    2.7039 H   0  0  0  0  0  0  0  0  0  0  0  0
   -4.1025   -1.7846   -1.9044 H   0  0  0  0  0  0  0  0  0  0  0  0
   -1.7274    1.0656   -1.6984 H   0  0  0  0  0  0  0  0  0  0  0  0
   -6.4166    1.5997   -2.4721 H   0  0  0  0  0  0  0  0  0  0  0  0
    2.5736   -1.6813   -0.2106 H   0  0  0  0  0  0  0  0  0  0  0  0
    4.6347    0.3446   -2.3259 H   0  0  0  0  0  0  0  0  0  0  0  0
    5.0857   -0.2614    1.9220 H   0  0  0  0  0  0  0  0  0  0  0  0
    7.0422   -0.0703   -2.6359 H   0  0  0  0  0  0  0  0  0  0  0  0
    7.4380   -0.6693    1.6384 H   0  0  0  0  0  0  0  0  0  0  0  0
   10.5561   -1.0718    0.1322 H   0  0  0  0  0  0  0  0  0  0  0  0
    9.1936   -1.8457    0.9342 H   0  0  0  0  0  0  0  0  0  0  0  0
    9.5277   -0.0708    1.1517 H   0  0  0  0  0  0  0  0  0  0  0  0
  1  9  1  0  0  0  0
  1 58  1  0  0  0  0
  2 12  1  0  0  0  0
  2 24  1  0  0  0  0
  3 10  1  0  0  0  0
  3 59  1  0  0  0  0
  4 16  1  0  0  0  0
  4 60  1  0  0  0  0
  5 25  1  0  0  0  0
  5 27  1  0  0  0  0
  6 25  2  0  0  0  0
  7 33  1  0  0  0  0
  7 34  1  0  0  0  0
  8  9  1  0  0  0  0
  8 10  1  0  0  0  0
  8 14  1  0  0  0  0
  8 18  1  0  0  0  0
  9 11  1  0  0  0  0
  9 13  1  0  0  0  0
 10 12  1  0  0  0  0
 10 19  1  0  0  0  0
 11 16  1  0  0  0  0
 11 20  1  0  0  0  0
 11 21  1  0  0  0  0
 12 15  1  0  0  0  0
 12 22  1  0  0  0  0
 13 15  1  0  0  0  0
 13 35  1  0  0  0  0
 13 36  1  0  0  0  0
 14 17  1  0  0  0  0
 14 37  1  0  0  0  0
 14 38  1  0  0  0  0
 15 39  1  0  0  0  0
 15 40  1  0  0  0  0
 16 17  1  0  0  0  0
 16 41  1  0  0  0  0
 17 42  1  0  0  0  0
 17 43  1  0  0  0  0
 18 44  1  0  0  0  0
 18 45  1  0  0  0  0
 18 46  1  0  0  0  0
 19 23  1  0  0  0  0
 19 47  1  0  0  0  0
 19 48  1  0  0  0  0
 20 49  1  0  0  0  0
 20 53  1  0  0  0  0
 20 54  1  0  0  0  0
 21 50  1  0  0  0  0
 21 51  1  0  0  0  0
 21 52  1  0  0  0  0
 22 55  1  0  0  0  0
 22 56  1  0  0  0  0
 22 57  1  0  0  0  0
 23 24  2  0  0  0  0
 23 25  1  0  0  0  0
 24 26  1  0  0  0  0
 26 27  2  0  0  0  0
 26 61  1  0  0  0  0
 27 28  1  0  0  0  0
 28 29  2  0  0  0  0
 28 30  1  0  0  0  0
 29 31  1  0  0  0  0
 29 62  1  0  0  0  0
 30 32  2  0  0  0  0
 30 63  1  0  0  0  0
 31 33  2  0  0  0  0
 31 64  1  0  0  0  0
 32 33  1  0  0  0  0
 32 65  1  0  0  0  0
 34 66  1  0  0  0  0
 34 67  1  0  0  0  0
 34 68  1  0  0  0  0
M  END
> <PUBCHEM_COMPOUND_CID>
139586996

> <PUBCHEM_CONFORMER_RMSD>
0.8

> <PUBCHEM_CONFORMER_DIVERSEORDER>
2
1

> <PUBCHEM_MMFF94_PARTIAL_CHARGES>
32
1 -0.68
10 0.28
12 0.28
16 0.28
19 0.14
2 -0.36
23 -0.12
24 0.08
25 0.71
26 -0.15
27 0.05
28 0.03
29 -0.15
3 -0.68
30 -0.15
31 -0.15
32 -0.15
33 0.08
34 0.28
4 -0.68
5 -0.23
58 0.4
59 0.4
6 -0.57
60 0.4
61 0.15
62 0.15
63 0.15
64 0.15
65 0.15
7 -0.36
9 0.28

> <PUBCHEM_EFFECTIVE_ROTOR_COUNT>
3.6

> <PUBCHEM_PHARMACOPHORE_FEATURES>
15
1 1 acceptor
1 1 donor
1 2 acceptor
1 3 acceptor
1 3 donor
1 4 acceptor
1 4 donor
1 6 acceptor
1 7 acceptor
3 11 20 21 hydrophobe
6 2 10 12 19 23 24 rings
6 28 29 30 31 32 33 rings
6 5 23 24 25 26 27 rings
6 8 9 10 12 13 15 rings
6 8 9 11 14 16 17 rings

> <PUBCHEM_HEAVY_ATOM_COUNT>
34

> <PUBCHEM_ATOM_DEF_STEREO_COUNT>
5

> <PUBCHEM_ATOM_UDEF_STEREO_COUNT>
0

> <PUBCHEM_BOND_DEF_STEREO_COUNT>
0

> <PUBCHEM_BOND_UDEF_STEREO_COUNT>
0

> <PUBCHEM_ISOTOPIC_ATOM_COUNT>
0

> <PUBCHEM_COMPONENT_COUNT>
1

> <PUBCHEM_CACTVS_TAUTO_COUNT>
-1

> <PUBCHEM_CONFORMER_ID>
0851EDB400000002

> <PUBCHEM_MMFF94_ENERGY>
163.1885

> <PUBCHEM_FEATURE_SELFOVERLAP>
76.234

> <PUBCHEM_SHAPE_FINGERPRINT>
10 15 10159700192372199374
10050765 1 18122344841845315992
10076449 9 18335426780630034264
10165383 225 17967530134901284845
10299344 5 17749109985358940042
10369192 42 11386369249168757050
10577160 183 18041271081019856898
10670039 82 17894907417345501069
11007060 377 18187368761184906881
11135926 11 18341612581640624855
11315181 36 17704074001442525640
12166972 35 18334860557949034933
12236239 1 16950281810271606578
12516196 113 18060702789062572704
12643181 29 18409165524248288218
12645989 146 18270678796371727703
13533116 47 14620802570332629870
13540713 4 18121216742873254201
13782708 43 17988641964623857607
13811026 1 18130784560652613600
14068700 675 18409731764025780932
14251752 14 18113617889327912804
14251764 18 17894910724675865042
14279260 333 18341894047921626310
14294032 229 17969782965133484668
14856354 85 15502380053980437315
15021287 119 17917989512207951301
15183329 4 18260547823060556722
15276724 80 16805317778414126692
15419008 47 17561076991423994552
15461852 350 18342459257565805358
1577012 14 17822006476234481344
15849732 13 17775564247749676564
16087824 20 18339361839048751393
18393751 57 16258675008241166489
18608769 82 17822866393539470627
18681886 176 18201711881625913371
20105231 36 18187652457567350179
21267235 1 18411985797348196539
21360443 120 17531246132739686178
21365058 27 13840265883765611336
21792961 116 18186804656444159354
22224240 67 15769772451856175366
23198884 109 16877944953254737767
23522609 53 17896906307957688172
23559900 14 18270113659752847817
23569943 247 17628936534087612710
23576562 1 17896606269730520837
249057 3 18343300379739900549
3004659 81 18260548940174319608
335352 9 18410290315842240757
3383291 50 18273499000099128834
4017518 198 17489591160850022670
4073 2 17603874459570042930
4098825 35 16588019091950975354
4339292 15 17845926438298390375
437815 12 18202283606477595136
44317340 157 13984666967146119686
44802255 64 15574702617805600779
5265222 85 17822580515988879822
5758199 1 10809340044863672124
58902169 19 17385448747966045870
59682541 35 10951759786236442022
59755656 215 18411699867968355438
59755656 520 17312821597877255747
6009941 240 16298395656041728080
6138700 20 18411138026221751072
6328613 192 17894636980445251540
9663363 56 18343295964771963472
9953998 17 9151174268602503863

> <PUBCHEM_SHAPE_MULTIPOLES>
658.62
22.54
2.04
1.44
39.99
0.63
-0.03
-5.1
-5.15
-2.07
0.31
-0.8
-0.1
0.2

> <PUBCHEM_SHAPE_SELFOVERLAP>
1438.025

> <PUBCHEM_SHAPE_VOLUME>
354.4

> <PUBCHEM_COORDINATE_TYPE>
2
5
10

$$$$
