139588449
  -OEChem-03292013293D

 54 57  0     1  0  0  0  0  0999 V2000
    4.0228    1.3168   -0.7690 O   0  0  0  0  0  0  0  0  0  0  0  0
    1.2874   -0.3376    1.9198 O   0  0  0  0  0  0  0  0  0  0  0  0
   -3.5137   -0.3114   -1.9187 O   0  0  0  0  0  0  0  0  0  0  0  0
    1.8655   -2.5880   -0.5120 O   0  0  0  0  0  0  0  0  0  0  0  0
   -3.3124    1.5725    1.2422 O   0  0  0  0  0  0  0  0  0  0  0  0
    4.1020   -0.7079   -1.9026 O   0  0  0  0  0  0  0  0  0  0  0  0
    0.8097    0.6882   -0.2307 C   0  0  1  0  0  0  0  0  0  0  0  0
    1.6526   -0.4084    0.5295 C   0  0  1  0  0  0  0  0  0  0  0  0
   -0.7397    0.4612    0.1208 C   0  0  2  0  0  0  0  0  0  0  0  0
    3.1850   -0.2056    0.4646 C   0  0  2  0  0  0  0  0  0  0  0  0
   -1.2195   -0.9847   -0.2249 C   0  0  2  0  0  0  0  0  0  0  0  0
    1.2422    2.1260    0.2119 C   0  0  0  0  0  0  0  0  0  0  0  0
    3.6210    1.2629    0.6273 C   0  0  2  0  0  0  0  0  0  0  0  0
   -2.7179   -1.2327    0.1562 C   0  0  2  0  0  0  0  0  0  0  0  0
   -1.6969    1.4985   -0.5260 C   0  0  0  0  0  0  0  0  0  0  0  0
    2.5479    2.2653    0.9972 C   0  0  0  0  0  0  0  0  0  0  0  0
   -0.3032   -2.0725    0.3535 C   0  0  0  0  0  0  0  0  0  0  0  0
    1.1500   -1.7710    0.0644 C   0  0  0  0  0  0  0  0  0  0  0  0
    0.9820    0.6010   -1.7776 C   0  0  0  0  0  0  0  0  0  0  0  0
   -3.6305   -0.1504   -0.4925 C   0  0  1  0  0  0  0  0  0  0  0  0
   -3.1670    1.2801   -0.1441 C   0  0  1  0  0  0  0  0  0  0  0  0
    3.8339   -0.0250   -0.9403 C   0  0  0  0  0  0  0  0  0  0  0  0
    3.9994   -1.1541    1.3540 C   0  0  0  0  0  0  0  0  0  0  0  0
   -2.9305   -1.3946    1.6727 C   0  0  0  0  0  0  0  0  0  0  0  0
   -5.0876   -0.3590   -0.1834 C   0  0  0  0  0  0  0  0  0  0  0  0
   -5.9825    0.6306   -0.0921 C   0  0  0  0  0  0  0  0  0  0  0  0
   -0.8370    0.5932    1.2066 H   0  0  0  0  0  0  0  0  0  0  0  0
   -1.1578   -1.0859   -1.3177 H   0  0  0  0  0  0  0  0  0  0  0  0
    0.4684    2.5809    0.8420 H   0  0  0  0  0  0  0  0  0  0  0  0
    1.3044    2.7768   -0.6704 H   0  0  0  0  0  0  0  0  0  0  0  0
    4.5047    1.4026    1.2653 H   0  0  0  0  0  0  0  0  0  0  0  0
   -2.9877   -2.2014   -0.2917 H   0  0  0  0  0  0  0  0  0  0  0  0
   -1.4058    2.5110   -0.2281 H   0  0  0  0  0  0  0  0  0  0  0  0
   -1.6284    1.4576   -1.6170 H   0  0  0  0  0  0  0  0  0  0  0  0
    2.9310    3.2864    0.8820 H   0  0  0  0  0  0  0  0  0  0  0  0
    2.3229    2.1537    2.0657 H   0  0  0  0  0  0  0  0  0  0  0  0
   -0.5549   -3.0451   -0.0849 H   0  0  0  0  0  0  0  0  0  0  0  0
   -0.4002   -2.1714    1.4383 H   0  0  0  0  0  0  0  0  0  0  0  0
    0.8557   -0.4154   -2.1603 H   0  0  0  0  0  0  0  0  0  0  0  0
    1.9529    0.9618   -2.1165 H   0  0  0  0  0  0  0  0  0  0  0  0
    0.2686    1.2375   -2.3068 H   0  0  0  0  0  0  0  0  0  0  0  0
   -3.7355    2.0259   -0.7130 H   0  0  0  0  0  0  0  0  0  0  0  0
    3.7981   -0.9786    2.4157 H   0  0  0  0  0  0  0  0  0  0  0  0
    5.0764   -1.0097    1.2065 H   0  0  0  0  0  0  0  0  0  0  0  0
    3.7835   -2.2031    1.1329 H   0  0  0  0  0  0  0  0  0  0  0  0
    1.6563   -1.1106    2.3787 H   0  0  0  0  0  0  0  0  0  0  0  0
   -2.4749   -0.5861    2.2494 H   0  0  0  0  0  0  0  0  0  0  0  0
   -2.4942   -2.3351    2.0248 H   0  0  0  0  0  0  0  0  0  0  0  0
   -3.9908   -1.4410    1.9374 H   0  0  0  0  0  0  0  0  0  0  0  0
   -5.4455   -1.3818   -0.0903 H   0  0  0  0  0  0  0  0  0  0  0  0
   -3.7889   -1.2156   -2.1487 H   0  0  0  0  0  0  0  0  0  0  0  0
   -3.0316    2.4927    1.3824 H   0  0  0  0  0  0  0  0  0  0  0  0
   -7.0225    0.3868    0.1045 H   0  0  0  0  0  0  0  0  0  0  0  0
   -5.7538    1.6809   -0.2095 H   0  0  0  0  0  0  0  0  0  0  0  0
  1 13  1  0  0  0  0
  1 22  1  0  0  0  0
  2  8  1  0  0  0  0
  2 46  1  0  0  0  0
  3 20  1  0  0  0  0
  3 51  1  0  0  0  0
  4 18  2  0  0  0  0
  5 21  1  0  0  0  0
  5 52  1  0  0  0  0
  6 22  2  0  0  0  0
  7  8  1  0  0  0  0
  7  9  1  0  0  0  0
  7 12  1  0  0  0  0
  7 19  1  0  0  0  0
  8 10  1  0  0  0  0
  8 18  1  0  0  0  0
  9 11  1  0  0  0  0
  9 15  1  0  0  0  0
  9 27  1  0  0  0  0
 10 13  1  0  0  0  0
 10 22  1  0  0  0  0
 10 23  1  0  0  0  0
 11 14  1  0  0  0  0
 11 17  1  0  0  0  0
 11 28  1  0  0  0  0
 12 16  1  0  0  0  0
 12 29  1  0  0  0  0
 12 30  1  0  0  0  0
 13 16  1  0  0  0  0
 13 31  1  0  0  0  0
 14 20  1  0  0  0  0
 14 24  1  0  0  0  0
 14 32  1  0  0  0  0
 15 21  1  0  0  0  0
 15 33  1  0  0  0  0
 15 34  1  0  0  0  0
 16 35  1  0  0  0  0
 16 36  1  0  0  0  0
 17 18  1  0  0  0  0
 17 37  1  0  0  0  0
 17 38  1  0  0  0  0
 19 39  1  0  0  0  0
 19 40  1  0  0  0  0
 19 41  1  0  0  0  0
 20 21  1  0  0  0  0
 20 25  1  0  0  0  0
 21 42  1  0  0  0  0
 23 43  1  0  0  0  0
 23 44  1  0  0  0  0
 23 45  1  0  0  0  0
 24 47  1  0  0  0  0
 24 48  1  0  0  0  0
 24 49  1  0  0  0  0
 25 26  2  0  0  0  0
 25 50  1  0  0  0  0
 26 53  1  0  0  0  0
 26 54  1  0  0  0  0
M  END
> <PUBCHEM_COMPOUND_CID>
139588449

> <PUBCHEM_CONFORMER_RMSD>
0.6

> <PUBCHEM_CONFORMER_DIVERSEORDER>
1
2
3

> <PUBCHEM_MMFF94_PARTIAL_CHARGES>
22
1 -0.41
10 0.05
13 0.26
17 0.06
18 0.45
2 -0.68
20 0.42
21 0.28
22 0.67
25 -0.29
26 -0.3
3 -0.68
4 -0.57
46 0.4
5 -0.68
50 0.15
51 0.4
52 0.4
53 0.15
54 0.15
6 -0.57
8 0.34

> <PUBCHEM_EFFECTIVE_ROTOR_COUNT>
2.6

> <PUBCHEM_PHARMACOPHORE_FEATURES>
13
1 2 acceptor
1 2 donor
1 26 hydrophobe
1 3 acceptor
1 3 donor
1 4 acceptor
1 5 acceptor
1 5 donor
1 6 acceptor
4 1 10 13 22 rings
6 7 8 10 12 13 16 rings
6 7 8 9 11 17 18 rings
6 9 11 14 15 20 21 rings

> <PUBCHEM_HEAVY_ATOM_COUNT>
26

> <PUBCHEM_ATOM_DEF_STEREO_COUNT>
9

> <PUBCHEM_ATOM_UDEF_STEREO_COUNT>
0

> <PUBCHEM_BOND_DEF_STEREO_COUNT>
0

> <PUBCHEM_BOND_UDEF_STEREO_COUNT>
0

> <PUBCHEM_ISOTOPIC_ATOM_COUNT>
0

> <PUBCHEM_COMPONENT_COUNT>
1

> <PUBCHEM_CACTVS_TAUTO_COUNT>
-1

> <PUBCHEM_CONFORMER_ID>
0851F36100000001

> <PUBCHEM_MMFF94_ENERGY>
95.0927

> <PUBCHEM_FEATURE_SELFOVERLAP>
66.683

> <PUBCHEM_SHAPE_FINGERPRINT>
10366900 7 18408327678827914433
10498660 4 18260263074949702933
10646746 165 18410572916053007416
10759866 29 17749394784540130450
10863032 1 18040436603054517226
12011746 2 18409169904544763423
12236239 1 17749107802914030540
12553582 1 18408887300050156625
12592029 89 18412825772281091043
12633257 1 18336259059397837427
12670546 56 15410900643082797195
12788726 201 18339924810181227257
128620 24 17675922110146529509
13140716 1 18265324187027934667
13224815 77 18113339742703040689
13533116 47 18334288735099218763
13583140 156 15502387745971439069
14223421 5 18409163273189241117
15196674 1 18335979852543744779
15848702 151 17703799089091401844
1601671 61 18040434421184750732
16945 1 18341893013156300274
17349148 13 18260542334044899255
1813 80 16807838851456226754
18186145 218 18411135852910504364
19862831 5 18273498978697411373
200 152 18131063866491303165
20691752 17 17751092309727949663
21033648 29 18339357599187328937
21267235 1 18336548226682353226
221357 26 18202568358413917965
23557571 272 18194406812671625227
23558518 356 17614555269518458884
23559900 14 18412547643452889836
2748010 2 18121217855285471106
296302 2 18334855035010793695
3060560 45 18343581854547916718
3323516 105 18343025467130222990
335352 9 18410289203229602238
350125 39 18335134250534227668
474 4 18340484577273510561
495365 180 18129649915416857560
5104073 3 18334853948394553289
542803 24 18040151816900607853
59755656 215 18408605829789978055
633830 44 18272650172837412245
7364860 26 18341892965568632223
9709674 26 18409729543500788707

> <PUBCHEM_SHAPE_MULTIPOLES>
499.85
9.55
2.18
1.46
7.14
0.16
-0.16
-1.14
-0.57
-0.81
0.37
-0.57
0.09
0.26

> <PUBCHEM_SHAPE_SELFOVERLAP>
1077.738

> <PUBCHEM_SHAPE_VOLUME>
269.2

> <PUBCHEM_COORDINATE_TYPE>
2
5
10

$$$$
