139588913
  -OEChem-03292013293D

 57 61  0     1  0  0  0  0  0999 V2000
    3.3899   -0.2636   -0.8876 O   0  0  0  0  0  0  0  0  0  0  0  0
    2.5907    0.5727    1.1385 O   0  0  0  0  0  0  0  0  0  0  0  0
    6.8122    0.0598    0.1788 O   0  0  0  0  0  0  0  0  0  0  0  0
    4.8318   -2.7898   -0.9260 O   0  0  0  0  0  0  0  0  0  0  0  0
    5.0909    0.0405    2.3430 O   0  0  0  0  0  0  0  0  0  0  0  0
   -4.7645    1.9760    0.2105 O   0  0  0  0  0  0  0  0  0  0  0  0
   -2.6583    2.0326   -1.2518 O   0  0  0  0  0  0  0  0  0  0  0  0
    0.7714   -1.2461    0.9822 O   0  0  0  0  0  0  0  0  0  0  0  0
    5.8971   -1.0266    0.3208 C   0  0  2  0  0  0  0  0  0  0  0  0
    5.4748   -1.5236   -1.0641 C   0  0  2  0  0  0  0  0  0  0  0  0
    4.6742   -0.6001    1.1413 C   0  0  2  0  0  0  0  0  0  0  0  0
    4.5087   -0.5345   -1.7390 C   0  0  1  0  0  0  0  0  0  0  0  0
    3.7595    0.3386    0.3526 C   0  0  1  0  0  0  0  0  0  0  0  0
   -6.4382   -1.2442   -0.5006 C   0  0  1  0  0  0  0  0  0  0  0  0
   -5.6555   -1.9326    0.6198 C   0  0  0  0  0  0  0  0  0  0  0  0
   -4.2127   -1.5008    0.6245 C   0  0  0  0  0  0  0  0  0  0  0  0
   -6.3243    0.2709   -0.3576 C   0  0  0  0  0  0  0  0  0  0  0  0
   -3.8368   -0.2008    0.2353 C   0  0  0  0  0  0  0  0  0  0  0  0
   -2.4692    0.1459    0.1716 C   0  0  0  0  0  0  0  0  0  0  0  0
   -4.9427    0.7763    0.0123 C   0  0  0  0  0  0  0  0  0  0  0  0
    3.9568   -1.0721   -3.0553 C   0  0  0  0  0  0  0  0  0  0  0  0
   -1.5089   -0.7711    0.6265 C   0  0  0  0  0  0  0  0  0  0  0  0
    0.3264    0.9708    0.3693 C   0  0  0  0  0  0  0  0  0  0  0  0
   -6.0110   -1.7190   -1.8942 C   0  0  0  0  0  0  0  0  0  0  0  0
    1.6400    1.3908    0.6047 C   0  0  0  0  0  0  0  0  0  0  0  0
   -3.2345   -2.4079    1.0470 C   0  0  0  0  0  0  0  0  0  0  0  0
   -0.6032    1.8569   -0.1706 C   0  0  0  0  0  0  0  0  0  0  0  0
   -1.9772    1.4029   -0.4527 C   0  0  0  0  0  0  0  0  0  0  0  0
   -0.0730   -0.4140    0.6748 C   0  0  0  0  0  0  0  0  0  0  0  0
   -1.8927   -2.0413    1.0670 C   0  0  0  0  0  0  0  0  0  0  0  0
    2.0155    2.6997    0.3007 C   0  0  0  0  0  0  0  0  0  0  0  0
   -0.2231    3.1673   -0.4809 C   0  0  0  0  0  0  0  0  0  0  0  0
    1.0859    3.5862   -0.2408 C   0  0  0  0  0  0  0  0  0  0  0  0
    6.4281   -1.8123    0.8714 H   0  0  0  0  0  0  0  0  0  0  0  0
    6.3507   -1.6625   -1.7087 H   0  0  0  0  0  0  0  0  0  0  0  0
    4.1018   -1.4917    1.4279 H   0  0  0  0  0  0  0  0  0  0  0  0
    5.0257    0.4121   -1.9417 H   0  0  0  0  0  0  0  0  0  0  0  0
    4.2804    1.2870    0.1708 H   0  0  0  0  0  0  0  0  0  0  0  0
   -7.4963   -1.5164   -0.3905 H   0  0  0  0  0  0  0  0  0  0  0  0
   -5.7288   -3.0202    0.4958 H   0  0  0  0  0  0  0  0  0  0  0  0
   -6.0949   -1.6857    1.5944 H   0  0  0  0  0  0  0  0  0  0  0  0
   -6.9950    0.5954    0.4485 H   0  0  0  0  0  0  0  0  0  0  0  0
   -6.6409    0.7728   -1.2786 H   0  0  0  0  0  0  0  0  0  0  0  0
    3.3329   -1.9585   -2.8979 H   0  0  0  0  0  0  0  0  0  0  0  0
    4.7628   -1.3236   -3.7511 H   0  0  0  0  0  0  0  0  0  0  0  0
    3.3122   -0.3221   -3.5270 H   0  0  0  0  0  0  0  0  0  0  0  0
   -4.9797   -1.4423   -2.1336 H   0  0  0  0  0  0  0  0  0  0  0  0
   -6.6573   -1.2793   -2.6617 H   0  0  0  0  0  0  0  0  0  0  0  0
   -6.0964   -2.8079   -1.9737 H   0  0  0  0  0  0  0  0  0  0  0  0
   -3.5145   -3.4063    1.3742 H   0  0  0  0  0  0  0  0  0  0  0  0
   -1.1618   -2.7639    1.4202 H   0  0  0  0  0  0  0  0  0  0  0  0
    7.5782   -0.2661   -0.3238 H   0  0  0  0  0  0  0  0  0  0  0  0
    5.4739   -3.4025   -0.5287 H   0  0  0  0  0  0  0  0  0  0  0  0
    5.6689   -0.5793    2.8198 H   0  0  0  0  0  0  0  0  0  0  0  0
    3.0205    3.0611    0.4994 H   0  0  0  0  0  0  0  0  0  0  0  0
   -0.9309    3.8747   -0.9044 H   0  0  0  0  0  0  0  0  0  0  0  0
    1.3797    4.6059   -0.4727 H   0  0  0  0  0  0  0  0  0  0  0  0
  1 12  1  0  0  0  0
  1 13  1  0  0  0  0
  2 13  1  0  0  0  0
  2 25  1  0  0  0  0
  3  9  1  0  0  0  0
  3 52  1  0  0  0  0
  4 10  1  0  0  0  0
  4 53  1  0  0  0  0
  5 11  1  0  0  0  0
  5 54  1  0  0  0  0
  6 20  2  0  0  0  0
  7 28  2  0  0  0  0
  8 29  2  0  0  0  0
  9 10  1  0  0  0  0
  9 11  1  0  0  0  0
  9 34  1  0  0  0  0
 10 12  1  0  0  0  0
 10 35  1  0  0  0  0
 11 13  1  0  0  0  0
 11 36  1  0  0  0  0
 12 21  1  0  0  0  0
 12 37  1  0  0  0  0
 13 38  1  0  0  0  0
 14 15  1  0  0  0  0
 14 17  1  0  0  0  0
 14 24  1  0  0  0  0
 14 39  1  0  0  0  0
 15 16  1  0  0  0  0
 15 40  1  0  0  0  0
 15 41  1  0  0  0  0
 16 18  2  0  0  0  0
 16 26  1  0  0  0  0
 17 20  1  0  0  0  0
 17 42  1  0  0  0  0
 17 43  1  0  0  0  0
 18 19  1  0  0  0  0
 18 20  1  0  0  0  0
 19 22  2  0  0  0  0
 19 28  1  0  0  0  0
 21 44  1  0  0  0  0
 21 45  1  0  0  0  0
 21 46  1  0  0  0  0
 22 29  1  0  0  0  0
 22 30  1  0  0  0  0
 23 25  1  0  0  0  0
 23 27  2  0  0  0  0
 23 29  1  0  0  0  0
 24 47  1  0  0  0  0
 24 48  1  0  0  0  0
 24 49  1  0  0  0  0
 25 31  2  0  0  0  0
 26 30  2  0  0  0  0
 26 50  1  0  0  0  0
 27 28  1  0  0  0  0
 27 32  1  0  0  0  0
 30 51  1  0  0  0  0
 31 33  1  0  0  0  0
 31 55  1  0  0  0  0
 32 33  2  0  0  0  0
 32 56  1  0  0  0  0
 33 57  1  0  0  0  0
M  END
> <PUBCHEM_COMPOUND_CID>
139588913

> <PUBCHEM_CONFORMER_RMSD>
0.8

> <PUBCHEM_CONFORMER_DIVERSEORDER>
1
23
19
47
45
16
25
38
28
39
42
7
8
43
49
51
52
21
35
31
48
41
15
33
24
44
20
17
36
3
9
34
13
5
37
50
11
27
32
2
4
40
14
29
22
46
6
12
10
26
18
30

> <PUBCHEM_MMFF94_PARTIAL_CHARGES>
38
1 -0.56
10 0.28
11 0.28
12 0.28
13 0.56
15 0.14
16 -0.14
17 0.06
18 0.09
19 0.09
2 -0.36
20 0.42
22 0.09
23 0.09
25 0.08
26 -0.15
27 0.09
28 0.4
29 0.4
3 -0.68
30 -0.15
31 -0.15
32 -0.15
33 -0.15
4 -0.68
5 -0.68
50 0.15
51 0.15
52 0.4
53 0.4
54 0.4
55 0.15
56 0.15
57 0.15
6 -0.57
7 -0.57
8 -0.57
9 0.28

> <PUBCHEM_EFFECTIVE_ROTOR_COUNT>
3.8

> <PUBCHEM_PHARMACOPHORE_FEATURES>
16
1 1 acceptor
1 2 acceptor
1 3 acceptor
1 3 donor
1 4 acceptor
1 4 donor
1 5 acceptor
1 5 donor
1 6 acceptor
1 7 acceptor
1 8 acceptor
6 1 9 10 11 12 13 rings
6 14 15 16 17 18 20 rings
6 16 18 19 22 26 30 rings
6 19 22 23 27 28 29 rings
6 23 25 27 31 32 33 rings

> <PUBCHEM_HEAVY_ATOM_COUNT>
33

> <PUBCHEM_ATOM_DEF_STEREO_COUNT>
6

> <PUBCHEM_ATOM_UDEF_STEREO_COUNT>
0

> <PUBCHEM_BOND_DEF_STEREO_COUNT>
0

> <PUBCHEM_BOND_UDEF_STEREO_COUNT>
0

> <PUBCHEM_ISOTOPIC_ATOM_COUNT>
0

> <PUBCHEM_COMPONENT_COUNT>
1

> <PUBCHEM_CACTVS_TAUTO_COUNT>
-1

> <PUBCHEM_CONFORMER_ID>
0851F53100000001

> <PUBCHEM_MMFF94_ENERGY>
113.248

> <PUBCHEM_FEATURE_SELFOVERLAP>
81.352

> <PUBCHEM_SHAPE_FINGERPRINT>
10 15 12031793582658929079
11513181 2 17979078511185242663
11828532 37 18042978742826814747
12166972 35 17385723565727194140
12236239 1 17168144525194539690
12596602 18 14836112286878188230
12788726 201 17968376728357592952
131258 43 17702410449747523260
13402501 40 18412547591502156742
13540713 4 17753050789651485075
13782708 43 18131349739325069103
13811026 1 18409727366258065026
14294032 229 17606679128089453252
14790565 3 17473265375059899312
14866123 147 18124606284130197633
15183329 4 18040434390946036027
15475509 8 18339090289503253441
17492 89 17975134563330162707
17909252 39 18197782094631884562
1813 80 18341058470898482668
19319366 153 17240756268482058402
19958102 18 17967530134152737582
20028762 73 18271517693473701983
21267235 1 18261113019825388035
21279426 13 18260821627510708317
21623969 137 17561083588266530462
21682296 61 18272938202303630895
21781051 124 17532104937584075163
22122407 14 14129061383187252727
23522609 53 17970937520698154980
23559900 14 18264203789512528233
23569943 247 18126852599281766859
249057 3 18411415104080768213
2838139 119 13984662572361036871
3004659 81 17967535675340394690
3103668 31 18043243553568223133
335352 9 18333445452878177165
3383291 50 18335419114852695523
404807 14 16768478477795734687
4340502 62 15841550803567111350
437815 12 18343022194070004112
5104073 3 18336829818404052929
563151 74 17058914757766707664
59755656 215 18333726897247155243
6823239 73 18408601495878177048
86090 222 17345775018087415526
9709674 26 18046347698198850907

> <PUBCHEM_SHAPE_MULTIPOLES>
632.17
16.24
3.14
1.63
0.01
1.97
-0.85
-9.75
-2.85
-0.26
-0.34
1.83
-0.83
1.29

> <PUBCHEM_SHAPE_SELFOVERLAP>
1406.131

> <PUBCHEM_SHAPE_VOLUME>
332.6

> <PUBCHEM_COORDINATE_TYPE>
2
5
10

$$$$
