139587716
  -OEChem-03292013293D

 71 77  0     1  0  0  0  0  0999 V2000
   -5.2309    0.1693    1.0762 O   0  0  0  0  0  0  0  0  0  0  0  0
   -4.8445   -2.2382    0.0339 O   0  0  0  0  0  0  0  0  0  0  0  0
   -1.3200   -0.5306   -1.2324 O   0  0  0  0  0  0  0  0  0  0  0  0
   -7.7045   -1.3190    0.1551 O   0  0  0  0  0  0  0  0  0  0  0  0
   -4.8882    3.1045    0.1663 O   0  0  0  0  0  0  0  0  0  0  0  0
    9.3068    0.0246   -1.8104 O   0  0  0  0  0  0  0  0  0  0  0  0
    9.2791    0.5621    0.3933 O   0  0  0  0  0  0  0  0  0  0  0  0
   -3.7039   -0.1780   -0.8898 C   0  0  1  0  0  0  0  0  0  0  0  0
   -4.6234    0.7521   -0.0946 C   0  0  1  0  0  0  0  0  0  0  0  0
   -2.2801   -0.1858   -0.2064 C   0  0  2  0  0  0  0  0  0  0  0  0
   -4.2411   -1.5857   -1.0932 C   0  0  2  0  0  0  0  0  0  0  0  0
   -6.1066    0.4412   -0.0221 C   0  0  1  0  0  0  0  0  0  0  0  0
    0.1490   -0.1716    0.7040 C   0  0  2  0  0  0  0  0  0  0  0  0
   -5.7217   -1.8487   -1.0312 C   0  0  2  0  0  0  0  0  0  0  0  0
   -0.4922    1.2148    0.9162 C   0  0  2  0  0  0  0  0  0  0  0  0
   -1.8887    1.1913    0.3558 C   0  0  0  0  0  0  0  0  0  0  0  0
   -6.6934   -0.7654   -0.6853 C   0  0  1  0  0  0  0  0  0  0  0  0
   -2.1091   -1.2226    0.9442 C   0  0  0  0  0  0  0  0  0  0  0  0
   -0.6685   -1.1919    1.5090 C   0  0  0  0  0  0  0  0  0  0  0  0
    1.5829    0.0930    1.1769 C   0  0  2  0  0  0  0  0  0  0  0  0
   -4.1442    2.1332    0.1752 C   0  0  0  0  0  0  0  0  0  0  0  0
   -3.6159    0.4363   -2.3275 C   0  0  0  0  0  0  0  0  0  0  0  0
    0.0348   -0.5880   -0.7769 C   0  0  0  0  0  0  0  0  0  0  0  0
    0.5420    2.1786    0.3408 C   0  0  0  0  0  0  0  0  0  0  0  0
   -2.7080    2.2434    0.5029 C   0  0  0  0  0  0  0  0  0  0  0  0
    1.8973    1.4972    0.6112 C   0  0  0  0  0  0  0  0  0  0  0  0
    2.6175   -0.9495    0.7820 C   0  0  2  0  0  0  0  0  0  0  0  0
    2.5530   -2.1609    1.7177 C   0  0  0  0  0  0  0  0  0  0  0  0
    4.0041   -0.3511    0.8168 C   0  0  0  0  0  0  0  0  0  0  0  0
    4.8808   -0.2367   -0.1938 C   0  0  0  0  0  0  0  0  0  0  0  0
    6.2687    0.3632   -0.1548 C   0  0  1  0  0  0  0  0  0  0  0  0
    7.3792   -0.6417   -0.5550 C   0  0  2  0  0  0  0  0  0  0  0  0
    6.3061    1.6139   -1.0419 C   0  0  0  0  0  0  0  0  0  0  0  0
    7.4452   -1.9012    0.3147 C   0  0  0  0  0  0  0  0  0  0  0  0
    8.7381    0.0477   -0.5769 C   0  0  0  0  0  0  0  0  0  0  0  0
   -3.6337   -2.1985   -1.7473 H   0  0  0  0  0  0  0  0  0  0  0  0
   -6.8183    1.2485    0.0900 H   0  0  0  0  0  0  0  0  0  0  0  0
   -6.1403   -2.6293   -1.6517 H   0  0  0  0  0  0  0  0  0  0  0  0
   -0.5689    1.4092    1.9977 H   0  0  0  0  0  0  0  0  0  0  0  0
   -7.1829   -0.4331   -1.6079 H   0  0  0  0  0  0  0  0  0  0  0  0
   -2.2815   -2.2380    0.5686 H   0  0  0  0  0  0  0  0  0  0  0  0
   -2.8262   -1.0429    1.7534 H   0  0  0  0  0  0  0  0  0  0  0  0
   -0.6909   -0.9328    2.5744 H   0  0  0  0  0  0  0  0  0  0  0  0
   -0.2552   -2.2000    1.4389 H   0  0  0  0  0  0  0  0  0  0  0  0
    1.5749    0.1947    2.2731 H   0  0  0  0  0  0  0  0  0  0  0  0
   -3.1441    1.4245   -2.3290 H   0  0  0  0  0  0  0  0  0  0  0  0
   -4.6171    0.5538   -2.7602 H   0  0  0  0  0  0  0  0  0  0  0  0
   -3.0492   -0.2065   -3.0109 H   0  0  0  0  0  0  0  0  0  0  0  0
    0.6299    0.0433   -1.4443 H   0  0  0  0  0  0  0  0  0  0  0  0
    0.3744   -1.6188   -0.9275 H   0  0  0  0  0  0  0  0  0  0  0  0
    0.4878    3.1615    0.8208 H   0  0  0  0  0  0  0  0  0  0  0  0
    0.3996    2.3338   -0.7351 H   0  0  0  0  0  0  0  0  0  0  0  0
   -2.3668    3.1802    0.9293 H   0  0  0  0  0  0  0  0  0  0  0  0
    2.4502    1.4617   -0.3344 H   0  0  0  0  0  0  0  0  0  0  0  0
    2.4894    2.0836    1.3230 H   0  0  0  0  0  0  0  0  0  0  0  0
    2.4500   -1.3065   -0.2397 H   0  0  0  0  0  0  0  0  0  0  0  0
   -8.1490   -2.0247   -0.3451 H   0  0  0  0  0  0  0  0  0  0  0  0
    2.5038   -1.8662    2.7716 H   0  0  0  0  0  0  0  0  0  0  0  0
    1.6968   -2.7984    1.4932 H   0  0  0  0  0  0  0  0  0  0  0  0
    3.4414   -2.7929    1.5964 H   0  0  0  0  0  0  0  0  0  0  0  0
    4.3210    0.0230    1.7904 H   0  0  0  0  0  0  0  0  0  0  0  0
    4.5697   -0.6127   -1.1679 H   0  0  0  0  0  0  0  0  0  0  0  0
    6.4703    0.6974    0.8727 H   0  0  0  0  0  0  0  0  0  0  0  0
    7.1732   -0.9791   -1.5813 H   0  0  0  0  0  0  0  0  0  0  0  0
    7.2347    2.1779   -0.9090 H   0  0  0  0  0  0  0  0  0  0  0  0
    5.4824    2.2936   -0.7935 H   0  0  0  0  0  0  0  0  0  0  0  0
    6.2145    1.3534   -2.1025 H   0  0  0  0  0  0  0  0  0  0  0  0
    7.5826   -1.6410    1.3698 H   0  0  0  0  0  0  0  0  0  0  0  0
    8.2899   -2.5328    0.0185 H   0  0  0  0  0  0  0  0  0  0  0  0
    6.5320   -2.4972    0.2241 H   0  0  0  0  0  0  0  0  0  0  0  0
   10.1825    0.4667   -1.8172 H   0  0  0  0  0  0  0  0  0  0  0  0
  1  9  1  0  0  0  0
  1 12  1  0  0  0  0
  2 11  1  0  0  0  0
  2 14  1  0  0  0  0
  3 10  1  0  0  0  0
  3 23  1  0  0  0  0
  4 17  1  0  0  0  0
  4 57  1  0  0  0  0
  5 21  2  0  0  0  0
  6 35  1  0  0  0  0
  6 71  1  0  0  0  0
  7 35  2  0  0  0  0
  8  9  1  0  0  0  0
  8 10  1  0  0  0  0
  8 11  1  0  0  0  0
  8 22  1  0  0  0  0
  9 12  1  0  0  0  0
  9 21  1  0  0  0  0
 10 16  1  0  0  0  0
 10 18  1  0  0  0  0
 11 14  1  0  0  0  0
 11 36  1  0  0  0  0
 12 17  1  0  0  0  0
 12 37  1  0  0  0  0
 13 15  1  0  0  0  0
 13 19  1  0  0  0  0
 13 20  1  0  0  0  0
 13 23  1  0  0  0  0
 14 17  1  0  0  0  0
 14 38  1  0  0  0  0
 15 16  1  0  0  0  0
 15 24  1  0  0  0  0
 15 39  1  0  0  0  0
 16 25  2  0  0  0  0
 17 40  1  0  0  0  0
 18 19  1  0  0  0  0
 18 41  1  0  0  0  0
 18 42  1  0  0  0  0
 19 43  1  0  0  0  0
 19 44  1  0  0  0  0
 20 26  1  0  0  0  0
 20 27  1  0  0  0  0
 20 45  1  0  0  0  0
 21 25  1  0  0  0  0
 22 46  1  0  0  0  0
 22 47  1  0  0  0  0
 22 48  1  0  0  0  0
 23 49  1  0  0  0  0
 23 50  1  0  0  0  0
 24 26  1  0  0  0  0
 24 51  1  0  0  0  0
 24 52  1  0  0  0  0
 25 53  1  0  0  0  0
 26 54  1  0  0  0  0
 26 55  1  0  0  0  0
 27 28  1  0  0  0  0
 27 29  1  0  0  0  0
 27 56  1  0  0  0  0
 28 58  1  0  0  0  0
 28 59  1  0  0  0  0
 28 60  1  0  0  0  0
 29 30  2  0  0  0  0
 29 61  1  0  0  0  0
 30 31  1  0  0  0  0
 30 62  1  0  0  0  0
 31 32  1  0  0  0  0
 31 33  1  0  0  0  0
 31 63  1  0  0  0  0
 32 34  1  0  0  0  0
 32 35  1  0  0  0  0
 32 64  1  0  0  0  0
 33 65  1  0  0  0  0
 33 66  1  0  0  0  0
 33 67  1  0  0  0  0
 34 68  1  0  0  0  0
 34 69  1  0  0  0  0
 34 70  1  0  0  0  0
M  END
> <PUBCHEM_COMPOUND_CID>
139587716

> <PUBCHEM_CONFORMER_RMSD>
1

> <PUBCHEM_CONFORMER_DIVERSEORDER>
1
18
20
24
13
5
19
11
2
23
21
25
14
10
15
22
9
16
3
17
6
8
7
12
4

> <PUBCHEM_MMFF94_PARTIAL_CHARGES>
33
1 -0.3
10 0.42
11 -0.05
12 -0.05
14 -0.05
15 0.14
16 -0.28
17 0.47
2 -0.3
21 0.56
23 0.28
25 -0.14
27 0.14
29 -0.29
3 -0.56
30 -0.29
31 0.14
32 0.06
35 0.66
36 0.1
37 0.1
38 0.1
4 -0.68
5 -0.57
53 0.15
57 0.4
6 -0.65
61 0.15
62 0.15
7 -0.57
71 0.5
8 0.19
9 0.05

> <PUBCHEM_EFFECTIVE_ROTOR_COUNT>
7

> <PUBCHEM_PHARMACOPHORE_FEATURES>
16
1 1 acceptor
1 2 acceptor
1 28 hydrophobe
1 3 acceptor
1 33 hydrophobe
1 34 hydrophobe
1 4 acceptor
1 4 donor
1 5 acceptor
1 6 acceptor
1 7 acceptor
3 6 7 35 anion
5 13 15 20 24 26 rings
6 8 9 10 16 21 25 rings
8 1 2 8 9 11 12 14 17 rings
8 3 10 13 15 16 18 19 23 rings

> <PUBCHEM_HEAVY_ATOM_COUNT>
35

> <PUBCHEM_ATOM_DEF_STEREO_COUNT>
13

> <PUBCHEM_ATOM_UDEF_STEREO_COUNT>
0

> <PUBCHEM_BOND_DEF_STEREO_COUNT>
1

> <PUBCHEM_BOND_UDEF_STEREO_COUNT>
0

> <PUBCHEM_ISOTOPIC_ATOM_COUNT>
0

> <PUBCHEM_COMPONENT_COUNT>
1

> <PUBCHEM_CACTVS_TAUTO_COUNT>
-1

> <PUBCHEM_CONFORMER_ID>
0851F08400000001

> <PUBCHEM_MMFF94_ENERGY>
113.2576

> <PUBCHEM_FEATURE_SELFOVERLAP>
81.389

> <PUBCHEM_SHAPE_FINGERPRINT>
10076449 9 17989209256841709632
10299344 5 18411700984928812606
11007060 377 17167583769415610073
11135609 187 17676760994595438043
11135926 11 18260542286932537010
11315181 36 17894354392649666939
11524674 6 15482668004853229519
11578080 2 17461140081899279357
117089 54 18122062272275638779
12082328 90 18343018874550654486
12236239 1 18408603635135620408
12788726 201 18129097810477788568
13540713 5 18046059359838073520
13673619 4 16774077380293452640
13690498 29 18342731918969210445
13782708 43 17131539609847513662
14767858 380 18260547823150208096
14856354 85 18343018926185656023
15183329 4 17676482857230023344
15461852 350 18342746213268789444
1577012 14 18335138649392842960
15849732 13 17988923396856311980
18603816 31 15338828798480291829
18608769 82 18060699515390372374
18681886 176 18272363196582582456
20105231 36 18271810154808119415
21150785 3 18333449850745223146
21267235 1 18342175592245268921
21792961 116 17418095386360122446
23198884 109 18333450936981513570
23522609 53 18197804187432108328
23559900 14 18263075686039484441
335352 9 18341604903346648085
350125 39 18409441480492437561
4098825 35 18340487768808699366
4258327 124 16661225740502568262
4325135 7 18333731320883680231
4339292 15 17489294335443508671
504579 68 18336536170977873741
5265222 85 17988919020348317614
54039377 194 18339364162762669279
6058803 2 17829038815514891544
636775 8 18409734006067014695

> <PUBCHEM_SHAPE_MULTIPOLES>
679.2
23.77
2.26
1.41
46.63
0.62
-0.3
-3.44
-8.21
-2.14
0.39
0.15
-0.26
-1.38

> <PUBCHEM_SHAPE_SELFOVERLAP>
1491.617

> <PUBCHEM_SHAPE_VOLUME>
361.2

> <PUBCHEM_COORDINATE_TYPE>
2
5
10

$$$$
