139587079
  -OEChem-03292013293D

 39 39  0     1  0  0  0  0  0999 V2000
   -0.4100    2.0817    1.3613 O   0  0  0  0  0  0  0  0  0  0  0  0
    0.0967   -2.2794    0.2279 O   0  0  0  0  0  0  0  0  0  0  0  0
    0.8150    4.1491    0.0317 O   0  0  0  0  0  0  0  0  0  0  0  0
    5.9617   -0.1448    0.1009 O   0  0  0  0  0  0  0  0  0  0  0  0
    4.7854   -2.0814    0.3129 O   0  0  0  0  0  0  0  0  0  0  0  0
   -5.9279   -0.0616   -0.0369 O   0  0  0  0  0  0  0  0  0  0  0  0
   -4.8382   -1.9737    0.5410 O   0  0  0  0  0  0  0  0  0  0  0  0
    2.4178   -0.7383    0.0413 N   0  0  0  0  0  0  0  0  0  0  0  0
   -2.4244   -0.8424    0.0857 N   0  0  0  0  0  0  0  0  0  0  0  0
   -0.1947    1.9856   -0.0512 C   0  0  1  0  0  0  0  0  0  0  0  0
    1.1581    1.3097   -0.3152 C   0  0  0  0  0  0  0  0  0  0  0  0
   -1.3350    1.1689   -0.6508 C   0  0  0  0  0  0  0  0  0  0  0  0
    1.1678   -0.1863   -0.0746 C   0  0  0  0  0  0  0  0  0  0  0  0
   -0.2044    3.4099   -0.6120 C   0  0  0  0  0  0  0  0  0  0  0  0
   -1.2934   -0.2624   -0.1526 C   0  0  0  0  0  0  0  0  0  0  0  0
    0.0389   -0.9156    0.0142 C   0  0  0  0  0  0  0  0  0  0  0  0
    3.6267    0.0348   -0.0167 C   0  0  0  0  0  0  0  0  0  0  0  0
   -3.5873    0.0043   -0.1271 C   0  0  0  0  0  0  0  0  0  0  0  0
    0.1462   -2.9776   -1.0006 C   0  0  0  0  0  0  0  0  0  0  0  0
    4.8146   -0.8703    0.1521 C   0  0  0  0  0  0  0  0  0  0  0  0
   -4.8138   -0.8102    0.1687 C   0  0  0  0  0  0  0  0  0  0  0  0
    1.8871    1.7998    0.3392 H   0  0  0  0  0  0  0  0  0  0  0  0
    1.4642    1.4854   -1.3551 H   0  0  0  0  0  0  0  0  0  0  0  0
   -1.2472    1.1316   -1.7449 H   0  0  0  0  0  0  0  0  0  0  0  0
   -2.2356    1.7349   -0.4222 H   0  0  0  0  0  0  0  0  0  0  0  0
   -1.1566    3.9074   -0.3982 H   0  0  0  0  0  0  0  0  0  0  0  0
   -0.0295    3.4217   -1.6929 H   0  0  0  0  0  0  0  0  0  0  0  0
    0.2957    2.6370    1.7347 H   0  0  0  0  0  0  0  0  0  0  0  0
    2.4705   -1.7372    0.2148 H   0  0  0  0  0  0  0  0  0  0  0  0
    3.7227    0.5391   -0.9842 H   0  0  0  0  0  0  0  0  0  0  0  0
    3.6674    0.7583    0.8048 H   0  0  0  0  0  0  0  0  0  0  0  0
    0.7924    5.0495   -0.3346 H   0  0  0  0  0  0  0  0  0  0  0  0
   -3.6790    0.3311   -1.1697 H   0  0  0  0  0  0  0  0  0  0  0  0
   -3.6265    0.8263    0.5983 H   0  0  0  0  0  0  0  0  0  0  0  0
    0.1842   -4.0490   -0.7813 H   0  0  0  0  0  0  0  0  0  0  0  0
    1.0417   -2.7221   -1.5776 H   0  0  0  0  0  0  0  0  0  0  0  0
   -0.7509   -2.7898   -1.6010 H   0  0  0  0  0  0  0  0  0  0  0  0
    6.7566   -0.7095    0.2082 H   0  0  0  0  0  0  0  0  0  0  0  0
   -6.7477   -0.5673    0.1490 H   0  0  0  0  0  0  0  0  0  0  0  0
  1 10  1  0  0  0  0
  1 28  1  0  0  0  0
  2 16  1  0  0  0  0
  2 19  1  0  0  0  0
  3 14  1  0  0  0  0
  3 32  1  0  0  0  0
  4 20  1  0  0  0  0
  4 38  1  0  0  0  0
  5 20  2  0  0  0  0
  6 21  1  0  0  0  0
  6 39  1  0  0  0  0
  7 21  2  0  0  0  0
  8 13  1  0  0  0  0
  8 17  1  0  0  0  0
  8 29  1  0  0  0  0
  9 15  2  0  0  0  0
  9 18  1  0  0  0  0
 10 11  1  0  0  0  0
 10 12  1  0  0  0  0
 10 14  1  0  0  0  0
 11 13  1  0  0  0  0
 11 22  1  0  0  0  0
 11 23  1  0  0  0  0
 12 15  1  0  0  0  0
 12 24  1  0  0  0  0
 12 25  1  0  0  0  0
 13 16  2  0  0  0  0
 14 26  1  0  0  0  0
 14 27  1  0  0  0  0
 15 16  1  0  0  0  0
 17 20  1  0  0  0  0
 17 30  1  0  0  0  0
 17 31  1  0  0  0  0
 18 21  1  0  0  0  0
 18 33  1  0  0  0  0
 18 34  1  0  0  0  0
 19 35  1  0  0  0  0
 19 36  1  0  0  0  0
 19 37  1  0  0  0  0
M  END
> <PUBCHEM_COMPOUND_CID>
139587079

> <PUBCHEM_CONFORMER_RMSD>
0.8

> <PUBCHEM_CONFORMER_DIVERSEORDER>
1
11
2
18
19
12
16
20
10
13
7
14
21
3
5
15
22
17
8
4
9
6

> <PUBCHEM_MMFF94_PARTIAL_CHARGES>
26
1 -0.68
10 0.28
11 0.14
12 0.06
13 -0.04
14 0.28
15 0.37
16 0.09
17 0.43
18 0.31
19 0.28
2 -0.36
20 0.66
21 0.66
28 0.4
29 0.4
3 -0.68
32 0.4
38 0.5
39 0.5
4 -0.65
5 -0.57
6 -0.65
7 -0.57
8 -0.87
9 -0.7

> <PUBCHEM_EFFECTIVE_ROTOR_COUNT>
7.6

> <PUBCHEM_PHARMACOPHORE_FEATURES>
15
1 1 acceptor
1 1 donor
1 2 acceptor
1 3 acceptor
1 3 donor
1 4 acceptor
1 5 acceptor
1 6 acceptor
1 7 acceptor
1 8 cation
1 8 donor
1 9 acceptor
3 4 5 20 anion
3 6 7 21 anion
6 10 11 12 13 15 16 rings

> <PUBCHEM_HEAVY_ATOM_COUNT>
21

> <PUBCHEM_ATOM_DEF_STEREO_COUNT>
1

> <PUBCHEM_ATOM_UDEF_STEREO_COUNT>
0

> <PUBCHEM_BOND_DEF_STEREO_COUNT>
0

> <PUBCHEM_BOND_UDEF_STEREO_COUNT>
0

> <PUBCHEM_ISOTOPIC_ATOM_COUNT>
0

> <PUBCHEM_COMPONENT_COUNT>
1

> <PUBCHEM_CACTVS_TAUTO_COUNT>
-1

> <PUBCHEM_CONFORMER_ID>
0851EE0700000001

> <PUBCHEM_MMFF94_ENERGY>
57.8957

> <PUBCHEM_FEATURE_SELFOVERLAP>
76.26

> <PUBCHEM_SHAPE_FINGERPRINT>
10756046 70 17987231316938087749
10906281 52 18264230061579167987
1100329 8 18338234997757483195
11045515 52 18040434360902734708
11680986 33 18047474709974754425
12507560 14 18342178907321828413
12715332 25 18272367619829516287
12788726 201 18187360979067728170
13140716 1 18267866270838744747
13740256 8 18334579087562274891
13862211 1 18410851066440577719
14787075 74 18040436615797260634
14790565 3 18411144644603538452
14955137 171 18412268367204197799
15042514 8 18265894644795296052
15927050 60 17764030563900063452
1601671 61 18412546475274480581
167882 2 18119251915515712469
17492 89 18120651341074339762
17980427 23 17703520926057229129
1813 80 18342471334465280612
19591789 44 18410290319757250366
20028762 73 18059010730488121847
20510252 161 18270114605225459664
20600515 1 18201730569049976868
20671657 1 18122066669867520925
21029758 27 18408603677510352053
21041028 32 18343866632323270929
21267235 1 18408892827730919950
21285901 2 18129672902445946438
21304253 13 18343021086121825377
21709351 56 18339352063834314399
221490 88 18046071720627785443
22182313 1 18192121936972252868
2297311 6 18340496577981458302
23175994 123 18335422374341670309
23352939 185 18342463659796916776
23402539 116 18272081703940900734
23557571 272 18270124509082427766
23558518 356 17829620465434243258
23559900 14 18337101376432670849
23845131 108 17405713575356700577
2748010 2 18266154232386947653
283562 15 18338517413627054256
3178227 256 18336840783439773843
3250762 1 17621604912562987678
335352 9 18408885144767358551
34934 24 18266177425906132580
4463277 17 18409167714074518924
465052 167 18333737939507904835
474229 33 18411699868121589494
5104073 3 18198050384248335858
59755656 215 18338519621151301358
68521 5 18335702689413798340

> <PUBCHEM_SHAPE_MULTIPOLES>
381.12
9.85
3.59
0.77
0.3
3.01
0
-6.3
1.43
0.45
-0.39
-0.09
0.05
0.13

> <PUBCHEM_SHAPE_SELFOVERLAP>
777.661

> <PUBCHEM_SHAPE_VOLUME>
217.7

> <PUBCHEM_COORDINATE_TYPE>
2
5
10

$$$$
