139587691
  -OEChem-03292013293D

 65 67  0     1  0  0  0  0  0999 V2000
   -0.6966    1.6924   -0.4060 O   0  0  0  0  0  0  0  0  0  0  0  0
   -0.1656   -2.6806    2.2959 O   0  0  0  0  0  0  0  0  0  0  0  0
    1.2400   -3.8051    0.0625 O   0  0  0  0  0  0  0  0  0  0  0  0
   -0.5660   -1.2709   -2.8919 O   0  0  0  0  0  0  0  0  0  0  0  0
    1.4615    2.2842    2.4045 O   0  0  0  0  0  0  0  0  0  0  0  0
    2.6697   -1.0050    1.6599 O   0  0  0  0  0  0  0  0  0  0  0  0
   -3.0717   -0.4777   -2.5018 O   0  0  0  0  0  0  0  0  0  0  0  0
    0.0340    3.1976   -1.9824 O   0  0  0  0  0  0  0  0  0  0  0  0
    0.0969   -0.1182    0.9596 C   0  0  1  0  0  0  0  0  0  0  0  0
   -1.1142   -1.0830    0.7219 C   0  0  2  0  0  0  0  0  0  0  0  0
    1.1979   -0.3942   -0.1090 C   0  0  2  0  0  0  0  0  0  0  0  0
    0.8341   -1.6407   -0.9422 C   0  0  1  0  0  0  0  0  0  0  0  0
   -0.6379   -2.5488    0.9616 C   0  0  1  0  0  0  0  0  0  0  0  0
   -0.3254    1.3551    0.9421 C   0  0  1  0  0  0  0  0  0  0  0  0
    0.5492   -2.7908    0.0232 C   0  0  0  0  0  0  0  0  0  0  0  0
   -1.5640   -0.9426   -0.7228 C   0  0  0  0  0  0  0  0  0  0  0  0
   -0.4534   -1.2838   -1.6742 C   0  0  0  0  0  0  0  0  0  0  0  0
   -1.7304   -3.5910    0.7271 C   0  0  0  0  0  0  0  0  0  0  0  0
    2.5496   -0.5677    0.5178 C   0  0  0  0  0  0  0  0  0  0  0  0
    0.8017    2.2779    1.2078 C   0  0  0  0  0  0  0  0  0  0  0  0
   -1.5297    1.5992    1.8455 C   0  0  0  0  0  0  0  0  0  0  0  0
   -2.7721   -0.5706   -1.1540 C   0  0  0  0  0  0  0  0  0  0  0  0
    1.0729    3.0691    0.1699 C   0  0  0  0  0  0  0  0  0  0  0  0
    0.1068    2.6943   -0.8742 C   0  0  0  0  0  0  0  0  0  0  0  0
    3.7225   -0.1524   -0.3011 C   0  0  0  0  0  0  0  0  0  0  0  0
   -3.8580   -0.2370   -0.2472 C   0  0  0  0  0  0  0  0  0  0  0  0
    2.0948    4.1243   -0.0016 C   0  0  0  0  0  0  0  0  0  0  0  0
    4.9666   -0.2726    0.1810 C   0  0  0  0  0  0  0  0  0  0  0  0
   -5.0932    0.1434   -0.6124 C   0  0  0  0  0  0  0  0  0  0  0  0
    6.1370    0.1171   -0.5739 C   0  0  0  0  0  0  0  0  0  0  0  0
   -6.1321    0.4616    0.3430 C   0  0  0  0  0  0  0  0  0  0  0  0
    7.3870    0.0014   -0.1019 C   0  0  0  0  0  0  0  0  0  0  0  0
   -7.3672    0.8420   -0.0156 C   0  0  0  0  0  0  0  0  0  0  0  0
    8.6032    0.4002   -0.8717 C   0  0  0  0  0  0  0  0  0  0  0  0
   -8.4481    1.1729    0.9605 C   0  0  0  0  0  0  0  0  0  0  0  0
    0.4713   -0.3220    1.9706 H   0  0  0  0  0  0  0  0  0  0  0  0
   -1.8864   -0.8851    1.4658 H   0  0  0  0  0  0  0  0  0  0  0  0
    1.2896    0.4325   -0.8181 H   0  0  0  0  0  0  0  0  0  0  0  0
    1.6119   -1.9290   -1.6553 H   0  0  0  0  0  0  0  0  0  0  0  0
   -2.5995   -3.3892    1.3629 H   0  0  0  0  0  0  0  0  0  0  0  0
   -1.3755   -4.5939    0.9927 H   0  0  0  0  0  0  0  0  0  0  0  0
   -2.0587   -3.6288   -0.3162 H   0  0  0  0  0  0  0  0  0  0  0  0
   -2.4731    1.3098    1.3897 H   0  0  0  0  0  0  0  0  0  0  0  0
   -1.6442    2.6731    2.0444 H   0  0  0  0  0  0  0  0  0  0  0  0
   -1.4218    1.1085    2.8187 H   0  0  0  0  0  0  0  0  0  0  0  0
    0.1100   -3.6033    2.4312 H   0  0  0  0  0  0  0  0  0  0  0  0
    3.5309    0.2426   -1.2934 H   0  0  0  0  0  0  0  0  0  0  0  0
    1.0330    1.6311    2.9833 H   0  0  0  0  0  0  0  0  0  0  0  0
   -3.6883   -0.3517    0.8170 H   0  0  0  0  0  0  0  0  0  0  0  0
    2.7633    3.8771   -0.8323 H   0  0  0  0  0  0  0  0  0  0  0  0
    2.7070    4.2436    0.8978 H   0  0  0  0  0  0  0  0  0  0  0  0
    1.6195    5.0868   -0.2151 H   0  0  0  0  0  0  0  0  0  0  0  0
   -2.2956   -0.7108   -3.0337 H   0  0  0  0  0  0  0  0  0  0  0  0
    5.1366   -0.6737    1.1769 H   0  0  0  0  0  0  0  0  0  0  0  0
   -5.3496    0.2470   -1.6638 H   0  0  0  0  0  0  0  0  0  0  0  0
    5.9761    0.5213   -1.5702 H   0  0  0  0  0  0  0  0  0  0  0  0
   -5.8825    0.3827    1.3982 H   0  0  0  0  0  0  0  0  0  0  0  0
    7.5586   -0.4017    0.8934 H   0  0  0  0  0  0  0  0  0  0  0  0
   -7.6281    0.9239   -1.0681 H   0  0  0  0  0  0  0  0  0  0  0  0
    9.2602   -0.4648   -1.0040 H   0  0  0  0  0  0  0  0  0  0  0  0
    9.1545    1.1704   -0.3238 H   0  0  0  0  0  0  0  0  0  0  0  0
    8.3569    0.7961   -1.8620 H   0  0  0  0  0  0  0  0  0  0  0  0
   -8.1165    1.0695    1.9986 H   0  0  0  0  0  0  0  0  0  0  0  0
   -9.3037    0.5081    0.8080 H   0  0  0  0  0  0  0  0  0  0  0  0
   -8.7824    2.2040    0.8104 H   0  0  0  0  0  0  0  0  0  0  0  0
  1 14  1  0  0  0  0
  1 24  1  0  0  0  0
  2 13  1  0  0  0  0
  2 46  1  0  0  0  0
  3 15  2  0  0  0  0
  4 17  2  0  0  0  0
  5 20  1  0  0  0  0
  5 48  1  0  0  0  0
  6 19  2  0  0  0  0
  7 22  1  0  0  0  0
  7 53  1  0  0  0  0
  8 24  2  0  0  0  0
  9 10  1  0  0  0  0
  9 11  1  0  0  0  0
  9 14  1  0  0  0  0
  9 36  1  0  0  0  0
 10 13  1  0  0  0  0
 10 16  1  0  0  0  0
 10 37  1  0  0  0  0
 11 12  1  0  0  0  0
 11 19  1  0  0  0  0
 11 38  1  0  0  0  0
 12 15  1  0  0  0  0
 12 17  1  0  0  0  0
 12 39  1  0  0  0  0
 13 15  1  0  0  0  0
 13 18  1  0  0  0  0
 14 20  1  0  0  0  0
 14 21  1  0  0  0  0
 16 17  1  0  0  0  0
 16 22  2  0  0  0  0
 18 40  1  0  0  0  0
 18 41  1  0  0  0  0
 18 42  1  0  0  0  0
 19 25  1  0  0  0  0
 20 23  2  0  0  0  0
 21 43  1  0  0  0  0
 21 44  1  0  0  0  0
 21 45  1  0  0  0  0
 22 26  1  0  0  0  0
 23 24  1  0  0  0  0
 23 27  1  0  0  0  0
 25 28  2  0  0  0  0
 25 47  1  0  0  0  0
 26 29  2  0  0  0  0
 26 49  1  0  0  0  0
 27 50  1  0  0  0  0
 27 51  1  0  0  0  0
 27 52  1  0  0  0  0
 28 30  1  0  0  0  0
 28 54  1  0  0  0  0
 29 31  1  0  0  0  0
 29 55  1  0  0  0  0
 30 32  2  0  0  0  0
 30 56  1  0  0  0  0
 31 33  2  0  0  0  0
 31 57  1  0  0  0  0
 32 34  1  0  0  0  0
 32 58  1  0  0  0  0
 33 35  1  0  0  0  0
 33 59  1  0  0  0  0
 34 60  1  0  0  0  0
 34 61  1  0  0  0  0
 34 62  1  0  0  0  0
 35 63  1  0  0  0  0
 35 64  1  0  0  0  0
 35 65  1  0  0  0  0
M  END
> <PUBCHEM_COMPOUND_CID>
139587691

> <PUBCHEM_CONFORMER_RMSD>
1

> <PUBCHEM_CONFORMER_DIVERSEORDER>
1
4
9
10
7
6
8
5
3
2

> <PUBCHEM_MMFF94_PARTIAL_CHARGES>
43
1 -0.43
10 0.14
11 0.06
12 0.12
13 0.34
14 0.42
15 0.45
16 -0.12
17 0.49
19 0.49
2 -0.68
20 -0.06
22 0.08
23 -0.12
24 0.71
25 -0.14
26 -0.15
27 0.14
28 -0.15
29 -0.15
3 -0.57
30 -0.15
31 -0.15
32 -0.29
33 -0.29
34 0.14
35 0.14
4 -0.57
46 0.4
47 0.15
48 0.45
49 0.15
5 -0.53
53 0.45
54 0.15
55 0.15
56 0.15
57 0.15
58 0.15
59 0.15
6 -0.57
7 -0.53
8 -0.57

> <PUBCHEM_EFFECTIVE_ROTOR_COUNT>
7

> <PUBCHEM_PHARMACOPHORE_FEATURES>
13
1 12 anion
1 2 acceptor
1 2 donor
1 3 acceptor
1 34 hydrophobe
1 35 hydrophobe
1 4 acceptor
1 5 donor
1 6 acceptor
1 7 donor
1 8 acceptor
5 1 14 20 23 24 rings
8 9 10 11 12 13 15 16 17 rings

> <PUBCHEM_HEAVY_ATOM_COUNT>
35

> <PUBCHEM_ATOM_DEF_STEREO_COUNT>
6

> <PUBCHEM_ATOM_UDEF_STEREO_COUNT>
0

> <PUBCHEM_BOND_DEF_STEREO_COUNT>
5

> <PUBCHEM_BOND_UDEF_STEREO_COUNT>
0

> <PUBCHEM_ISOTOPIC_ATOM_COUNT>
0

> <PUBCHEM_COMPONENT_COUNT>
1

> <PUBCHEM_CACTVS_TAUTO_COUNT>
-1

> <PUBCHEM_CONFORMER_ID>
0851F06B00000001

> <PUBCHEM_MMFF94_ENERGY>
85.3349

> <PUBCHEM_FEATURE_SELFOVERLAP>
65.974

> <PUBCHEM_SHAPE_FINGERPRINT>
10165383 225 18040433291745651191
10674148 151 18060698382246571368
10930396 42 18265594603456064360
1100329 8 18339360871888812168
11578080 2 17678753459809585924
12788726 201 18337380549143458440
13140716 1 18197199542051500731
14068700 675 17489302018791808536
14849402 71 18408045126321204233
14955137 171 18060139838692185943
15219462 58 16446740497756178008
15439362 3 18263926720735179765
15840311 113 17704064127693007617
15849732 13 17846498145003747277
1601671 61 18201149967229030493
16090146 7 16701751531257307271
16628084 112 18192989327857199490
16945 1 18201136815833792523
17492 54 18188474822690069030
18681886 176 17203315733398708147
20691752 17 18044347604463727101
21304303 64 18187364345805389661
23559900 14 18267859657454006088
3178227 256 18334303050451784017
335352 9 18411981385862954237
484989 97 18191587669147998763
57527306 92 18273214179527069269
57527358 35 15214683902945723940
6081469 158 16845299311161087900
70251023 43 17617652602596927930

> <PUBCHEM_SHAPE_MULTIPOLES>
673.33
14.55
3.99
1.85
0.78
0.65
-0.32
4.76
-1.32
0.7
0.67
-0.57
-0.09
-0.37

> <PUBCHEM_SHAPE_SELFOVERLAP>
1442.421

> <PUBCHEM_SHAPE_VOLUME>
367.6

> <PUBCHEM_COORDINATE_TYPE>
2
5
10

$$$$
