139583680
  -OEChem-03292013293D

 46 47  0     1  0  0  0  0  0999 V2000
   -2.0333    0.4343    1.1239 O   0  0  0  0  0  0  0  0  0  0  0  0
    3.8491   -1.9839   -0.2985 O   0  0  0  0  0  0  0  0  0  0  0  0
   -0.3451    2.2926    0.6981 O   0  0  0  0  0  0  0  0  0  0  0  0
    1.2025   -1.4657   -0.2241 O   0  0  0  0  0  0  0  0  0  0  0  0
   -1.4466   -1.2572   -2.6968 O   0  0  0  0  0  0  0  0  0  0  0  0
   -3.2125   -1.5327    1.4081 O   0  0  0  0  0  0  0  0  0  0  0  0
   -0.8672   -0.8656   -0.5310 N   0  0  0  0  0  0  0  0  0  0  0  0
   -5.4964   -0.1416    0.6410 N   0  0  0  0  0  0  0  0  0  0  0  0
   -0.7607   -0.1193    0.7349 C   0  0  1  0  0  0  0  0  0  0  0  0
    3.4436   -0.7642    0.2965 C   0  0  1  0  0  0  0  0  0  0  0  0
    4.2952    0.3642   -0.2680 C   0  0  0  0  0  0  0  0  0  0  0  0
    1.4631    0.8786    0.1463 C   0  0  0  0  0  0  0  0  0  0  0  0
    3.8360    1.7112    0.2792 C   0  0  0  0  0  0  0  0  0  0  0  0
    0.1796    1.0287    0.5105 C   0  0  0  0  0  0  0  0  0  0  0  0
    2.3941    1.9794   -0.0771 C   0  0  0  0  0  0  0  0  0  0  0  0
    1.9630   -0.5336    0.0325 C   0  0  0  0  0  0  0  0  0  0  0  0
   -3.9363    0.2178   -1.2321 C   0  0  0  0  0  0  0  0  0  0  0  0
   -4.1876    0.3920    0.2747 C   0  0  2  0  0  0  0  0  0  0  0  0
   -2.5244    0.6200   -1.6890 C   0  0  0  0  0  0  0  0  0  0  0  0
   -0.2013   -1.0028    1.8526 C   0  0  0  0  0  0  0  0  0  0  0  0
   -1.5621   -0.5606   -1.6827 C   0  0  0  0  0  0  0  0  0  0  0  0
   -3.1372   -0.3674    1.0484 C   0  0  0  0  0  0  0  0  0  0  0  0
    2.0304    3.1514   -0.6242 C   0  0  0  0  0  0  0  0  0  0  0  0
    5.0540   -2.4756    0.2769 C   0  0  0  0  0  0  0  0  0  0  0  0
    3.5475   -0.8246    1.3884 H   0  0  0  0  0  0  0  0  0  0  0  0
    4.2482    0.3618   -1.3654 H   0  0  0  0  0  0  0  0  0  0  0  0
    5.3508    0.2275   -0.0109 H   0  0  0  0  0  0  0  0  0  0  0  0
    4.4935    2.4958   -0.1149 H   0  0  0  0  0  0  0  0  0  0  0  0
    3.9456    1.7276    1.3713 H   0  0  0  0  0  0  0  0  0  0  0  0
   -0.3601   -1.7419   -0.5883 H   0  0  0  0  0  0  0  0  0  0  0  0
   -4.6621    0.8398   -1.7724 H   0  0  0  0  0  0  0  0  0  0  0  0
   -4.1319   -0.8216   -1.5288 H   0  0  0  0  0  0  0  0  0  0  0  0
   -4.1525    1.4514    0.5544 H   0  0  0  0  0  0  0  0  0  0  0  0
   -2.1345    1.4769   -1.1376 H   0  0  0  0  0  0  0  0  0  0  0  0
   -2.5835    0.9509   -2.7347 H   0  0  0  0  0  0  0  0  0  0  0  0
   -0.4306   -2.0627    1.6853 H   0  0  0  0  0  0  0  0  0  0  0  0
   -0.7045   -0.7480    2.7962 H   0  0  0  0  0  0  0  0  0  0  0  0
    0.8606   -0.9206    2.0959 H   0  0  0  0  0  0  0  0  0  0  0  0
    2.7634    3.9358   -0.7886 H   0  0  0  0  0  0  0  0  0  0  0  0
    1.0241    3.3687   -0.9626 H   0  0  0  0  0  0  0  0  0  0  0  0
   -1.2676    2.1950    0.9884 H   0  0  0  0  0  0  0  0  0  0  0  0
   -6.2228    0.3438    0.1159 H   0  0  0  0  0  0  0  0  0  0  0  0
   -5.6813    0.0497    1.6251 H   0  0  0  0  0  0  0  0  0  0  0  0
    5.2326   -3.4764   -0.1272 H   0  0  0  0  0  0  0  0  0  0  0  0
    4.9679   -2.5602    1.3647 H   0  0  0  0  0  0  0  0  0  0  0  0
    5.9103   -1.8526    0.0074 H   0  0  0  0  0  0  0  0  0  0  0  0
  1  9  1  0  0  0  0
  1 22  1  0  0  0  0
  2 10  1  0  0  0  0
  2 24  1  0  0  0  0
  3 14  1  0  0  0  0
  3 41  1  0  0  0  0
  4 16  2  0  0  0  0
  5 21  2  0  0  0  0
  6 22  2  0  0  0  0
  7  9  1  0  0  0  0
  7 21  1  0  0  0  0
  7 30  1  0  0  0  0
  8 18  1  0  0  0  0
  8 42  1  0  0  0  0
  8 43  1  0  0  0  0
  9 14  1  0  0  0  0
  9 20  1  0  0  0  0
 10 11  1  0  0  0  0
 10 16  1  0  0  0  0
 10 25  1  0  0  0  0
 11 13  1  0  0  0  0
 11 26  1  0  0  0  0
 11 27  1  0  0  0  0
 12 14  2  3  0  0  0
 12 15  1  0  0  0  0
 12 16  1  0  0  0  0
 13 15  1  0  0  0  0
 13 28  1  0  0  0  0
 13 29  1  0  0  0  0
 15 23  2  0  0  0  0
 17 18  1  0  0  0  0
 17 19  1  0  0  0  0
 17 31  1  0  0  0  0
 17 32  1  0  0  0  0
 18 22  1  0  0  0  0
 18 33  1  0  0  0  0
 19 21  1  0  0  0  0
 19 34  1  0  0  0  0
 19 35  1  0  0  0  0
 20 36  1  0  0  0  0
 20 37  1  0  0  0  0
 20 38  1  0  0  0  0
 23 39  1  0  0  0  0
 23 40  1  0  0  0  0
 24 44  1  0  0  0  0
 24 45  1  0  0  0  0
 24 46  1  0  0  0  0
M  END
> <PUBCHEM_COMPOUND_CID>
139583680

> <PUBCHEM_CONFORMER_RMSD>
0.6

> <PUBCHEM_CONFORMER_DIVERSEORDER>
1
9
23
7
15
6
39
27
40
11
22
3
28
33
16
31
14
19
24
32
41
8
12
34
21
5
36
10
20
25
4
26
18

> <PUBCHEM_MMFF94_PARTIAL_CHARGES>
27
1 -0.43
10 0.34
12 0.01
13 0.14
14 -0.06
15 -0.14
16 0.49
18 0.33
19 0.06
2 -0.56
21 0.57
22 0.66
23 -0.3
24 0.28
3 -0.53
30 0.37
39 0.15
4 -0.57
40 0.15
41 0.45
42 0.36
43 0.36
5 -0.57
6 -0.57
7 -0.73
8 -0.99
9 0.72

> <PUBCHEM_EFFECTIVE_ROTOR_COUNT>
3.8

> <PUBCHEM_PHARMACOPHORE_FEATURES>
9
1 2 acceptor
1 3 donor
1 4 acceptor
1 5 acceptor
1 6 acceptor
1 7 donor
1 8 cation
1 8 donor
6 10 11 12 13 15 16 rings

> <PUBCHEM_HEAVY_ATOM_COUNT>
24

> <PUBCHEM_ATOM_DEF_STEREO_COUNT>
1

> <PUBCHEM_ATOM_UDEF_STEREO_COUNT>
2

> <PUBCHEM_BOND_DEF_STEREO_COUNT>
0

> <PUBCHEM_BOND_UDEF_STEREO_COUNT>
1

> <PUBCHEM_ISOTOPIC_ATOM_COUNT>
0

> <PUBCHEM_COMPONENT_COUNT>
1

> <PUBCHEM_CACTVS_TAUTO_COUNT>
-1

> <PUBCHEM_CONFORMER_ID>
0851E0C000000001

> <PUBCHEM_MMFF94_ENERGY>
98.2737

> <PUBCHEM_FEATURE_SELFOVERLAP>
45.679

> <PUBCHEM_SHAPE_FINGERPRINT>
10165383 225 16879908526814840261
10369192 42 17535482740099241444
10863032 1 18264497346052498041
11132069 177 16298378081061789717
12236239 1 17632297890786580817
12403814 3 17989203698905959097
12422481 6 17843140107738686617
12553582 1 18341896247789024230
12592029 89 17988651770181829039
12623949 98 17902825129331793563
12788726 201 16773251655039498209
13134695 92 18272646857513413568
13544592 145 17894634746645344243
13583140 156 17985553483600223121
13782708 43 17603587413272026971
14115302 16 17275101751631477550
14251757 17 18113613469669616848
15848702 151 18334013921363212437
16752209 62 16558487308955956417
16945 1 18267885915992445281
17349148 13 17060618906004696885
1813 80 18128546977011925462
18186145 218 17967530168554024520
200 152 18272650117002700880
20645477 70 18409169904893176394
21033650 10 15864634930355534708
21041028 32 18339924805569611888
22112679 90 17489584605895704876
221357 26 18260543394807200757
23175994 123 18261959544060714422
23402539 116 18267303119401460970
23557571 272 17240481463557506029
23559900 14 18333455352666836634
3286 77 18186527591707752071
3323516 105 17967812734426061059
34934 24 18059575862020463720
4409770 3 15608249459748887734
5281201 14 18114181938513699092
6287921 2 17532943907051101365
633830 44 18113606889959054253
77492 1 17632580478149310584
9709674 26 18115316707638804074

> <PUBCHEM_SHAPE_MULTIPOLES>
448.73
9.1
2.39
1.58
0.71
0.88
0.69
-2.53
-0.21
-3.38
-0.02
1.71
-0.44
0.35

> <PUBCHEM_SHAPE_SELFOVERLAP>
947.526

> <PUBCHEM_SHAPE_VOLUME>
246

> <PUBCHEM_COORDINATE_TYPE>
2
5
10

$$$$
