139589309
  -OEChem-03292013293D

 51 53  0     1  0  0  0  0  0999 V2000
    1.3894    0.7104    1.7954 O   0  0  0  0  0  0  0  0  0  0  0  0
    3.5511   -0.8151    0.7760 O   0  0  0  0  0  0  0  0  0  0  0  0
    0.4605   -2.6750   -2.4223 O   0  0  0  0  0  0  0  0  0  0  0  0
    0.5627   -2.4880    1.5727 O   0  0  0  0  0  0  0  0  0  0  0  0
    2.5634   -2.2460    2.6379 O   0  0  0  0  0  0  0  0  0  0  0  0
   -3.3449    2.0691    1.6903 O   0  0  0  0  0  0  0  0  0  0  0  0
    1.3395    0.1341    0.4792 C   0  0  2  0  0  0  0  0  0  0  0  0
    2.1908   -1.1581    0.4962 C   0  0  1  0  0  0  0  0  0  0  0  0
    2.0916   -2.0136   -0.7846 C   0  0  1  0  0  0  0  0  0  0  0  0
    1.8645    1.2196   -0.4741 C   0  0  0  0  0  0  0  0  0  0  0  0
   -0.0970   -0.1870    0.1114 C   0  0  0  0  0  0  0  0  0  0  0  0
   -0.3863   -1.2093   -0.8005 C   0  0  0  0  0  0  0  0  0  0  0  0
    0.7024   -2.0083   -1.4172 C   0  0  0  0  0  0  0  0  0  0  0  0
    1.3496    2.5907   -0.0585 C   0  0  0  0  0  0  0  0  0  0  0  0
    1.8260   -2.0116    1.6920 C   0  0  0  0  0  0  0  0  0  0  0  0
    3.1354   -1.6811   -1.8583 C   0  0  0  0  0  0  0  0  0  0  0  0
    1.8992    3.7247   -0.9436 C   0  0  0  0  0  0  0  0  0  0  0  0
   -1.1653    0.5653    0.6328 C   0  0  0  0  0  0  0  0  0  0  0  0
   -1.7120   -1.4842   -1.1677 C   0  0  0  0  0  0  0  0  0  0  0  0
   -2.4990    0.2994    0.2783 C   0  0  0  0  0  0  0  0  0  0  0  0
   -2.7759   -0.7416   -0.6331 C   0  0  0  0  0  0  0  0  0  0  0  0
    1.3325    5.0924   -0.5599 C   0  0  0  0  0  0  0  0  0  0  0  0
    3.4271    3.7566   -0.8567 C   0  0  0  0  0  0  0  0  0  0  0  0
   -3.5625    1.0488    0.8085 C   0  0  0  0  0  0  0  0  0  0  0  0
   -4.1087   -1.0082   -0.9885 C   0  0  0  0  0  0  0  0  0  0  0  0
   -4.8808    0.7717    0.4457 C   0  0  0  0  0  0  0  0  0  0  0  0
   -5.1536   -0.2561   -0.4514 C   0  0  0  0  0  0  0  0  0  0  0  0
    2.2744   -3.0628   -0.5077 H   0  0  0  0  0  0  0  0  0  0  0  0
    2.9566    1.2283   -0.4165 H   0  0  0  0  0  0  0  0  0  0  0  0
    1.5997    1.0131   -1.5176 H   0  0  0  0  0  0  0  0  0  0  0  0
    0.2597    2.6324   -0.1366 H   0  0  0  0  0  0  0  0  0  0  0  0
    1.6096    2.8310    0.9789 H   0  0  0  0  0  0  0  0  0  0  0  0
    3.0277   -0.6577   -2.2271 H   0  0  0  0  0  0  0  0  0  0  0  0
    3.0307   -2.3450   -2.7240 H   0  0  0  0  0  0  0  0  0  0  0  0
    4.1552   -1.8070   -1.4822 H   0  0  0  0  0  0  0  0  0  0  0  0
    1.6174    3.5282   -1.9859 H   0  0  0  0  0  0  0  0  0  0  0  0
   -0.9557    1.3638    1.3422 H   0  0  0  0  0  0  0  0  0  0  0  0
    2.3258    0.8312    2.0303 H   0  0  0  0  0  0  0  0  0  0  0  0
    4.0802   -1.6313    0.7656 H   0  0  0  0  0  0  0  0  0  0  0  0
   -1.9281   -2.2845   -1.8736 H   0  0  0  0  0  0  0  0  0  0  0  0
    3.8823    2.8965   -1.3564 H   0  0  0  0  0  0  0  0  0  0  0  0
    0.2399    5.0912   -0.6326 H   0  0  0  0  0  0  0  0  0  0  0  0
    1.7113    5.8744   -1.2263 H   0  0  0  0  0  0  0  0  0  0  0  0
    1.6030    5.3596    0.4672 H   0  0  0  0  0  0  0  0  0  0  0  0
    3.8225    4.6476   -1.3577 H   0  0  0  0  0  0  0  0  0  0  0  0
    3.7714    3.7800    0.1828 H   0  0  0  0  0  0  0  0  0  0  0  0
    0.3066   -3.0446    2.3386 H   0  0  0  0  0  0  0  0  0  0  0  0
   -4.3447   -1.8061   -1.6896 H   0  0  0  0  0  0  0  0  0  0  0  0
   -5.7054    1.3497    0.8545 H   0  0  0  0  0  0  0  0  0  0  0  0
   -6.1794   -0.4727   -0.7348 H   0  0  0  0  0  0  0  0  0  0  0  0
   -4.1970    2.4648    1.9415 H   0  0  0  0  0  0  0  0  0  0  0  0
  1  7  1  0  0  0  0
  1 38  1  0  0  0  0
  2  8  1  0  0  0  0
  2 39  1  0  0  0  0
  3 13  2  0  0  0  0
  4 15  1  0  0  0  0
  4 47  1  0  0  0  0
  5 15  2  0  0  0  0
  6 24  1  0  0  0  0
  6 51  1  0  0  0  0
  7  8  1  0  0  0  0
  7 10  1  0  0  0  0
  7 11  1  0  0  0  0
  8  9  1  0  0  0  0
  8 15  1  0  0  0  0
  9 13  1  0  0  0  0
  9 16  1  0  0  0  0
  9 28  1  0  0  0  0
 10 14  1  0  0  0  0
 10 29  1  0  0  0  0
 10 30  1  0  0  0  0
 11 12  2  0  0  0  0
 11 18  1  0  0  0  0
 12 13  1  0  0  0  0
 12 19  1  0  0  0  0
 14 17  1  0  0  0  0
 14 31  1  0  0  0  0
 14 32  1  0  0  0  0
 16 33  1  0  0  0  0
 16 34  1  0  0  0  0
 16 35  1  0  0  0  0
 17 22  1  0  0  0  0
 17 23  1  0  0  0  0
 17 36  1  0  0  0  0
 18 20  2  0  0  0  0
 18 37  1  0  0  0  0
 19 21  2  0  0  0  0
 19 40  1  0  0  0  0
 20 21  1  0  0  0  0
 20 24  1  0  0  0  0
 21 25  1  0  0  0  0
 22 42  1  0  0  0  0
 22 43  1  0  0  0  0
 22 44  1  0  0  0  0
 23 41  1  0  0  0  0
 23 45  1  0  0  0  0
 23 46  1  0  0  0  0
 24 26  2  0  0  0  0
 25 27  2  0  0  0  0
 25 48  1  0  0  0  0
 26 27  1  0  0  0  0
 26 49  1  0  0  0  0
 27 50  1  0  0  0  0
M  END
> <PUBCHEM_COMPOUND_CID>
139589309

> <PUBCHEM_CONFORMER_RMSD>
0.8

> <PUBCHEM_CONFORMER_DIVERSEORDER>
1
3
5
2
4

> <PUBCHEM_MMFF94_PARTIAL_CHARGES>
28
1 -0.68
11 -0.14
12 0.09
13 0.42
15 0.66
18 -0.15
19 -0.15
2 -0.68
24 0.08
25 -0.15
26 -0.15
27 -0.15
3 -0.57
37 0.15
38 0.4
39 0.4
4 -0.65
40 0.15
47 0.5
48 0.15
49 0.15
5 -0.57
50 0.15
51 0.45
6 -0.53
7 0.42
8 0.34
9 0.06

> <PUBCHEM_EFFECTIVE_ROTOR_COUNT>
4.6

> <PUBCHEM_PHARMACOPHORE_FEATURES>
13
1 1 acceptor
1 1 donor
1 2 acceptor
1 2 donor
1 3 acceptor
1 4 acceptor
1 5 acceptor
1 6 donor
3 17 22 23 hydrophobe
3 4 5 15 anion
6 11 12 18 19 20 21 rings
6 20 21 24 25 26 27 rings
6 7 8 9 11 12 13 rings

> <PUBCHEM_HEAVY_ATOM_COUNT>
27

> <PUBCHEM_ATOM_DEF_STEREO_COUNT>
3

> <PUBCHEM_ATOM_UDEF_STEREO_COUNT>
0

> <PUBCHEM_BOND_DEF_STEREO_COUNT>
0

> <PUBCHEM_BOND_UDEF_STEREO_COUNT>
0

> <PUBCHEM_ISOTOPIC_ATOM_COUNT>
0

> <PUBCHEM_COMPONENT_COUNT>
1

> <PUBCHEM_CACTVS_TAUTO_COUNT>
-1

> <PUBCHEM_CONFORMER_ID>
0851F6BD00000001

> <PUBCHEM_MMFF94_ENERGY>
83.9255

> <PUBCHEM_FEATURE_SELFOVERLAP>
66.094

> <PUBCHEM_SHAPE_FINGERPRINT>
10074138 170 16746730086342730648
10291535 26 16680627996926510748
10940486 97 18131628993561167030
11421498 54 17754760233432150418
11578080 2 17241308223445328093
12553582 1 18191308174060936859
12788726 201 17684667428060173800
13134695 92 18043231492528720236
13140716 1 17916003837321462319
13224815 77 17632287931459340239
13583140 156 18040709239468638823
13965767 371 17912918379474691808
14713325 29 17546746197142591030
15463212 79 17544181036257273605
15664445 248 18339369552413629382
1601671 61 18201436926705054230
16945 1 18409449154776426558
17349148 13 18058427860712861583
17980427 23 18199445775270838009
1813 80 18267303140776135350
18681886 176 18130785693838015044
19078846 21 18118122463933971577
20600515 1 18270397187945432750
20691752 17 18126000464425934799
20739085 24 18339912732595481834
21033648 29 17557409995474842809
21524375 3 18121500416836556468
21756936 100 17539688423393506212
22149856 69 17632584851892860419
2255824 54 18408319995025939827
22907989 373 16531748620740723476
23419403 2 17614330848929727242
23558518 356 18122054579313127506
23559900 14 18060419080428431607
394222 165 18192986234783842993
404807 14 16839144129505413422
4409770 3 16683176033302569599
474 4 18189891092287771337
6086070 43 18116975716783440821
90316 7 17976526226811266809
9981440 41 17477484678518062128

> <PUBCHEM_SHAPE_MULTIPOLES>
520.43
7.29
4.65
1.86
9.3
5.66
-0.42
2.71
0.34
-5.93
0.99
-0.94
-1.51
-1.94

> <PUBCHEM_SHAPE_SELFOVERLAP>
1136.294

> <PUBCHEM_SHAPE_VOLUME>
280.4

> <PUBCHEM_COORDINATE_TYPE>
2
5
10

$$$$
