139589298
  -OEChem-03292013293D

 56 59  0     1  0  0  0  0  0999 V2000
    0.0391   -2.2964   -0.8032 O   0  0  0  0  0  0  0  0  0  0  0  0
   -4.1652   -0.2097   -0.8176 O   0  0  0  0  0  0  0  0  0  0  0  0
   -3.0677    2.2415   -0.9114 O   0  0  0  0  0  0  0  0  0  0  0  0
   -2.8957   -2.4856    0.2168 O   0  0  0  0  0  0  0  0  0  0  0  0
   -0.7311   -1.8044    2.0875 O   0  0  0  0  0  0  0  0  0  0  0  0
   -3.3580    2.6245    1.6209 O   0  0  0  0  0  0  0  0  0  0  0  0
   -0.5280   -0.0092   -1.1485 C   0  0  1  0  0  0  0  0  0  0  0  0
    0.0095   -1.0344   -0.0947 C   0  0  2  0  0  0  0  0  0  0  0  0
    1.4851   -0.6836    0.4542 C   0  0  1  0  0  0  0  0  0  0  0  0
    2.2091    0.3032   -0.5419 C   0  0  2  0  0  0  0  0  0  0  0  0
   -1.9179   -0.4387   -1.6767 C   0  0  0  0  0  0  0  0  0  0  0  0
   -2.7917   -0.1478   -0.4617 C   0  0  1  0  0  0  0  0  0  0  0  0
   -0.8747    1.3691   -0.5051 C   0  0  0  0  0  0  0  0  0  0  0  0
    0.4467    0.0918   -2.3480 C   0  0  0  0  0  0  0  0  0  0  0  0
   -2.3634    1.2910   -0.1152 C   0  0  1  0  0  0  0  0  0  0  0  0
    1.9311   -0.0767   -1.9974 C   0  0  0  0  0  0  0  0  0  0  0  0
    3.7049    0.6395   -0.2018 C   0  0  0  0  0  0  0  0  0  0  0  0
    1.4850    0.0205    1.8528 C   0  0  0  0  0  0  0  0  0  0  0  0
   -2.5100   -1.1800    0.6394 C   0  0  2  0  0  0  0  0  0  0  0  0
   -1.0409   -1.3262    0.9936 C   0  0  0  0  0  0  0  0  0  0  0  0
    2.2672   -2.0180    0.6277 C   0  0  0  0  0  0  0  0  0  0  0  0
    3.9107    0.6915    1.3371 C   0  0  0  0  0  0  0  0  0  0  0  0
    2.6247    1.0253    2.0887 C   0  0  0  0  0  0  0  0  0  0  0  0
    4.7253   -0.3268   -0.8336 C   0  0  0  0  0  0  0  0  0  0  0  0
    4.0337    2.0491   -0.7677 C   0  0  0  0  0  0  0  0  0  0  0  0
   -2.6278    1.6906    1.3060 C   0  0  0  0  0  0  0  0  0  0  0  0
    1.7048    1.2704   -0.4174 H   0  0  0  0  0  0  0  0  0  0  0  0
   -1.9717   -1.4817   -2.0063 H   0  0  0  0  0  0  0  0  0  0  0  0
   -2.2304    0.1674   -2.5384 H   0  0  0  0  0  0  0  0  0  0  0  0
   -0.7094    2.1769   -1.2290 H   0  0  0  0  0  0  0  0  0  0  0  0
   -0.2548    1.6024    0.3606 H   0  0  0  0  0  0  0  0  0  0  0  0
    0.3097    1.0574   -2.8517 H   0  0  0  0  0  0  0  0  0  0  0  0
    0.1985   -0.6613   -3.1079 H   0  0  0  0  0  0  0  0  0  0  0  0
    2.2567   -1.1029   -2.1979 H   0  0  0  0  0  0  0  0  0  0  0  0
    2.5069    0.5504   -2.6870 H   0  0  0  0  0  0  0  0  0  0  0  0
    1.5374   -0.7380    2.6452 H   0  0  0  0  0  0  0  0  0  0  0  0
    0.5461    0.5543    2.0305 H   0  0  0  0  0  0  0  0  0  0  0  0
   -3.0894   -0.9502    1.5400 H   0  0  0  0  0  0  0  0  0  0  0  0
    2.5260   -2.4718   -0.3337 H   0  0  0  0  0  0  0  0  0  0  0  0
    1.6676   -2.7484    1.1840 H   0  0  0  0  0  0  0  0  0  0  0  0
    3.1915   -1.9101    1.1959 H   0  0  0  0  0  0  0  0  0  0  0  0
    4.6752    1.4358    1.5950 H   0  0  0  0  0  0  0  0  0  0  0  0
    4.3079   -0.2563    1.7150 H   0  0  0  0  0  0  0  0  0  0  0  0
    2.2855    2.0261    1.7925 H   0  0  0  0  0  0  0  0  0  0  0  0
    2.8314    1.0857    3.1640 H   0  0  0  0  0  0  0  0  0  0  0  0
    0.6737   -2.2502   -1.5336 H   0  0  0  0  0  0  0  0  0  0  0  0
    3.9185    2.0875   -1.8556 H   0  0  0  0  0  0  0  0  0  0  0  0
    5.0682    2.3341   -0.5421 H   0  0  0  0  0  0  0  0  0  0  0  0
    3.3822    2.8168   -0.3357 H   0  0  0  0  0  0  0  0  0  0  0  0
    4.6766   -0.3100   -1.9275 H   0  0  0  0  0  0  0  0  0  0  0  0
    4.5806   -1.3600   -0.5129 H   0  0  0  0  0  0  0  0  0  0  0  0
    5.7479   -0.0468   -0.5532 H   0  0  0  0  0  0  0  0  0  0  0  0
   -2.1015    1.1174    2.0869 H   0  0  0  0  0  0  0  0  0  0  0  0
   -4.6837    0.0622   -0.0412 H   0  0  0  0  0  0  0  0  0  0  0  0
   -2.6785    3.1191   -0.7548 H   0  0  0  0  0  0  0  0  0  0  0  0
   -2.8440   -3.0732    0.9903 H   0  0  0  0  0  0  0  0  0  0  0  0
  1  8  1  0  0  0  0
  1 46  1  0  0  0  0
  2 12  1  0  0  0  0
  2 54  1  0  0  0  0
  3 15  1  0  0  0  0
  3 55  1  0  0  0  0
  4 19  1  0  0  0  0
  4 56  1  0  0  0  0
  5 20  2  0  0  0  0
  6 26  2  0  0  0  0
  7  8  1  0  0  0  0
  7 11  1  0  0  0  0
  7 13  1  0  0  0  0
  7 14  1  0  0  0  0
  8  9  1  0  0  0  0
  8 20  1  0  0  0  0
  9 10  1  0  0  0  0
  9 18  1  0  0  0  0
  9 21  1  0  0  0  0
 10 16  1  0  0  0  0
 10 17  1  0  0  0  0
 10 27  1  0  0  0  0
 11 12  1  0  0  0  0
 11 28  1  0  0  0  0
 11 29  1  0  0  0  0
 12 15  1  0  0  0  0
 12 19  1  0  0  0  0
 13 15  1  0  0  0  0
 13 30  1  0  0  0  0
 13 31  1  0  0  0  0
 14 16  1  0  0  0  0
 14 32  1  0  0  0  0
 14 33  1  0  0  0  0
 15 26  1  0  0  0  0
 16 34  1  0  0  0  0
 16 35  1  0  0  0  0
 17 22  1  0  0  0  0
 17 24  1  0  0  0  0
 17 25  1  0  0  0  0
 18 23  1  0  0  0  0
 18 36  1  0  0  0  0
 18 37  1  0  0  0  0
 19 20  1  0  0  0  0
 19 38  1  0  0  0  0
 21 39  1  0  0  0  0
 21 40  1  0  0  0  0
 21 41  1  0  0  0  0
 22 23  1  0  0  0  0
 22 42  1  0  0  0  0
 22 43  1  0  0  0  0
 23 44  1  0  0  0  0
 23 45  1  0  0  0  0
 24 50  1  0  0  0  0
 24 51  1  0  0  0  0
 24 52  1  0  0  0  0
 25 47  1  0  0  0  0
 25 48  1  0  0  0  0
 25 49  1  0  0  0  0
 26 53  1  0  0  0  0
M  END
> <PUBCHEM_COMPOUND_CID>
139589298

> <PUBCHEM_CONFORMER_RMSD>
0.6

> <PUBCHEM_CONFORMER_DIVERSEORDER>
1
2
3

> <PUBCHEM_MMFF94_PARTIAL_CHARGES>
17
1 -0.68
12 0.28
15 0.34
19 0.34
2 -0.68
20 0.45
26 0.45
3 -0.68
4 -0.68
46 0.4
5 -0.57
53 0.06
54 0.4
55 0.4
56 0.4
6 -0.57
8 0.34

> <PUBCHEM_EFFECTIVE_ROTOR_COUNT>
3

> <PUBCHEM_PHARMACOPHORE_FEATURES>
14
1 1 acceptor
1 1 donor
1 2 acceptor
1 2 donor
1 3 acceptor
1 3 donor
1 4 acceptor
1 4 donor
1 5 acceptor
1 6 acceptor
3 17 24 25 hydrophobe
6 7 8 9 10 14 16 rings
6 9 10 17 18 22 23 rings
8 7 8 11 12 13 15 19 20 rings

> <PUBCHEM_HEAVY_ATOM_COUNT>
26

> <PUBCHEM_ATOM_DEF_STEREO_COUNT>
7

> <PUBCHEM_ATOM_UDEF_STEREO_COUNT>
0

> <PUBCHEM_BOND_DEF_STEREO_COUNT>
0

> <PUBCHEM_BOND_UDEF_STEREO_COUNT>
0

> <PUBCHEM_ISOTOPIC_ATOM_COUNT>
0

> <PUBCHEM_COMPONENT_COUNT>
1

> <PUBCHEM_CACTVS_TAUTO_COUNT>
-1

> <PUBCHEM_CONFORMER_ID>
0851F6B200000001

> <PUBCHEM_MMFF94_ENERGY>
127.6

> <PUBCHEM_FEATURE_SELFOVERLAP>
71.125

> <PUBCHEM_SHAPE_FINGERPRINT>
10366900 7 18271803574653815226
10646746 165 18272371971074063208
10863032 1 18343018844111408194
10948715 1 18200882781181310676
11132069 177 17240762934518584084
11578080 2 17555780647616743305
11640471 11 18114733829269114025
12156800 1 15977852887644215113
12173636 292 18272925042143969438
12236239 1 17385719222993011902
12403814 3 17418092173930300615
12491281 212 18412827953934229026
12553582 1 15791727529608459884
12592029 89 16733255781960963851
12633257 1 18113612361953260696
13140716 1 17028272553821250795
13224815 77 16370724825061679700
13464514 151 17630337332863629448
13583140 156 17917423268051452494
13965767 371 17315067766593241868
14081887 123 18266729350124935611
14289901 80 18340770450544385862
14787075 74 17174906749048601780
14955137 171 16734417948571693364
15238133 3 17557707958409067976
15309172 13 17313098631546110202
16945 1 18265313174795214495
17349148 13 17749666393460218591
18219364 16 16702308961655058660
18981168 100 18335138644222253584
20510252 161 18262804110635148419
20691752 17 18115315461971628732
20715895 44 17098588238653442181
20775530 9 11533345447483044681
22149856 69 17828217502638527493
23419403 2 16103824145207037999
23493267 7 17988929929132323202
23557571 272 18339651160534637587
23559900 14 18335133177246077982
238 59 16414616173617279125
296302 2 12612749133863876742
427121 178 18122086224916949489
4340502 62 17822015281566290965
469060 322 15142103168631909960
474 4 18337392638801494693

> <PUBCHEM_SHAPE_MULTIPOLES>
499.85
7.11
2.27
2.06
2.84
0.11
0.1
2.56
0.09
-1.42
0.63
0.45
0.2
-0.24

> <PUBCHEM_SHAPE_SELFOVERLAP>
1086.275

> <PUBCHEM_SHAPE_VOLUME>
268.4

> <PUBCHEM_COORDINATE_TYPE>
2
5
10

$$$$
