139583905
  -OEChem-03292013293D

 54 58  0     1  0  0  0  0  0999 V2000
   -0.2355   -0.2254    0.9638 O   0  0  0  0  0  0  0  0  0  0  0  0
   -4.6943    2.1647    0.6049 O   0  0  0  0  0  0  0  0  0  0  0  0
    2.6241   -1.3401   -3.2336 O   0  0  0  0  0  0  0  0  0  0  0  0
    0.5742   -2.1983   -3.6810 O   0  0  0  0  0  0  0  0  0  0  0  0
    1.8415    1.7251   -0.8967 O   0  0  0  0  0  0  0  0  0  0  0  0
   -3.1158    0.5145    0.0684 N   0  0  0  0  0  0  0  0  0  0  0  0
   -1.4180    1.7794   -0.7190 N   0  0  0  0  0  0  0  0  0  0  0  0
    1.9310   -0.6064   -0.7792 N   0  0  0  0  0  0  0  0  0  0  0  0
    3.5500   -1.6731    0.6167 N   0  0  0  0  0  0  0  0  0  0  0  0
   -1.9094    0.4099   -0.7053 C   0  0  1  0  0  0  0  0  0  0  0  0
   -1.1110   -0.7338   -0.0382 C   0  0  2  0  0  0  0  0  0  0  0  0
   -2.6342    2.6402   -0.6556 C   0  0  0  0  0  0  0  0  0  0  0  0
   -2.2352   -1.4728    0.6683 C   0  0  0  0  0  0  0  0  0  0  0  0
   -0.3189   -1.5673   -1.0347 C   0  0  0  0  0  0  0  0  0  0  0  0
   -3.3754   -0.6559    0.7571 C   0  0  0  0  0  0  0  0  0  0  0  0
   -3.6598    1.7750    0.0902 C   0  0  0  0  0  0  0  0  0  0  0  0
    0.8465   -0.8265   -1.7020 C   0  0  2  0  0  0  0  0  0  0  0  0
   -3.1391    2.9564   -2.0643 C   0  0  0  0  0  0  0  0  0  0  0  0
   -2.3416    3.9224    0.1213 C   0  0  0  0  0  0  0  0  0  0  0  0
   -2.2195   -2.7127    1.2827 C   0  0  0  0  0  0  0  0  0  0  0  0
   -4.4963   -1.0188    1.4757 C   0  0  0  0  0  0  0  0  0  0  0  0
   -3.3593   -3.1147    1.9868 C   0  0  0  0  0  0  0  0  0  0  0  0
   -4.4833   -2.2738    2.0871 C   0  0  0  0  0  0  0  0  0  0  0  0
    1.3088   -1.5248   -2.9686 C   0  0  0  0  0  0  0  0  0  0  0  0
    2.3419    0.6964   -0.4523 C   0  0  0  0  0  0  0  0  0  0  0  0
    2.5658   -1.7088   -0.2200 C   0  0  0  0  0  0  0  0  0  0  0  0
    3.4688    0.7806    0.5051 C   0  0  0  0  0  0  0  0  0  0  0  0
    4.0249   -0.4072    0.9988 C   0  0  0  0  0  0  0  0  0  0  0  0
    3.9653    2.0254    0.9059 C   0  0  0  0  0  0  0  0  0  0  0  0
    5.0895   -0.3281    1.9034 C   0  0  0  0  0  0  0  0  0  0  0  0
    5.0264    2.0865    1.8080 C   0  0  0  0  0  0  0  0  0  0  0  0
    5.5880    0.9121    2.3062 C   0  0  0  0  0  0  0  0  0  0  0  0
   -2.2178    0.1189   -1.7199 H   0  0  0  0  0  0  0  0  0  0  0  0
   -0.8678    1.9267    0.1276 H   0  0  0  0  0  0  0  0  0  0  0  0
   -1.0147   -1.9326   -1.8027 H   0  0  0  0  0  0  0  0  0  0  0  0
    0.0481   -2.4768   -0.5445 H   0  0  0  0  0  0  0  0  0  0  0  0
    0.4836    0.1426   -2.0633 H   0  0  0  0  0  0  0  0  0  0  0  0
   -3.4072    2.0499   -2.6188 H   0  0  0  0  0  0  0  0  0  0  0  0
   -3.2325    4.5579    0.1819 H   0  0  0  0  0  0  0  0  0  0  0  0
   -2.0337    3.7052    1.1510 H   0  0  0  0  0  0  0  0  0  0  0  0
   -4.0404    3.5790   -2.0235 H   0  0  0  0  0  0  0  0  0  0  0  0
   -2.3832    3.4964   -2.6454 H   0  0  0  0  0  0  0  0  0  0  0  0
   -1.5448    4.5044   -0.3551 H   0  0  0  0  0  0  0  0  0  0  0  0
    0.2318   -0.9770    1.3672 H   0  0  0  0  0  0  0  0  0  0  0  0
   -1.3448   -3.3524    1.2480 H   0  0  0  0  0  0  0  0  0  0  0  0
   -5.3634   -0.3740    1.5565 H   0  0  0  0  0  0  0  0  0  0  0  0
   -3.3719   -4.0833    2.4800 H   0  0  0  0  0  0  0  0  0  0  0  0
   -5.3502   -2.6062    2.6521 H   0  0  0  0  0  0  0  0  0  0  0  0
    2.1829   -2.6841   -0.5550 H   0  0  0  0  0  0  0  0  0  0  0  0
    2.9022   -1.8039   -4.0519 H   0  0  0  0  0  0  0  0  0  0  0  0
    3.5411    2.9519    0.5292 H   0  0  0  0  0  0  0  0  0  0  0  0
    5.5385   -1.2350    2.3012 H   0  0  0  0  0  0  0  0  0  0  0  0
    5.4160    3.0502    2.1230 H   0  0  0  0  0  0  0  0  0  0  0  0
    6.4147    0.9616    3.0089 H   0  0  0  0  0  0  0  0  0  0  0  0
  1 11  1  0  0  0  0
  1 44  1  0  0  0  0
  2 16  2  0  0  0  0
  3 24  1  0  0  0  0
  3 50  1  0  0  0  0
  4 24  2  0  0  0  0
  5 25  2  0  0  0  0
  6 10  1  0  0  0  0
  6 15  1  0  0  0  0
  6 16  1  0  0  0  0
  7 10  1  0  0  0  0
  7 12  1  0  0  0  0
  7 34  1  0  0  0  0
  8 17  1  0  0  0  0
  8 25  1  0  0  0  0
  8 26  1  0  0  0  0
  9 26  2  0  0  0  0
  9 28  1  0  0  0  0
 10 11  1  0  0  0  0
 10 33  1  0  0  0  0
 11 13  1  0  0  0  0
 11 14  1  0  0  0  0
 12 16  1  0  0  0  0
 12 18  1  0  0  0  0
 12 19  1  0  0  0  0
 13 15  1  0  0  0  0
 13 20  2  0  0  0  0
 14 17  1  0  0  0  0
 14 35  1  0  0  0  0
 14 36  1  0  0  0  0
 15 21  2  0  0  0  0
 17 24  1  0  0  0  0
 17 37  1  0  0  0  0
 18 38  1  0  0  0  0
 18 41  1  0  0  0  0
 18 42  1  0  0  0  0
 19 39  1  0  0  0  0
 19 40  1  0  0  0  0
 19 43  1  0  0  0  0
 20 22  1  0  0  0  0
 20 45  1  0  0  0  0
 21 23  1  0  0  0  0
 21 46  1  0  0  0  0
 22 23  2  0  0  0  0
 22 47  1  0  0  0  0
 23 48  1  0  0  0  0
 25 27  1  0  0  0  0
 26 49  1  0  0  0  0
 27 28  1  0  0  0  0
 27 29  2  0  0  0  0
 28 30  2  0  0  0  0
 29 31  1  0  0  0  0
 29 51  1  0  0  0  0
 30 32  1  0  0  0  0
 30 52  1  0  0  0  0
 31 32  2  0  0  0  0
 31 53  1  0  0  0  0
 32 54  1  0  0  0  0
M  END
> <PUBCHEM_COMPOUND_CID>
139583905

> <PUBCHEM_CONFORMER_RMSD>
0.8

> <PUBCHEM_CONFORMER_DIVERSEORDER>
1
27
19
13
24
4
28
7
15
31
29
20
25
18
21
32
6
35
2
9
34
33
11
30
14
8
36
12
26
17
3
16
10
23
22
5

> <PUBCHEM_MMFF94_PARTIAL_CHARGES>
41
1 -0.68
10 0.57
11 0.42
12 0.33
13 -0.14
15 0.12
16 0.57
17 0.36
2 -0.57
20 -0.15
21 -0.15
22 -0.15
23 -0.15
24 0.66
25 0.54
26 0.45
27 0.09
28 0.18
29 -0.15
3 -0.65
30 -0.15
31 -0.15
32 -0.15
34 0.36
4 -0.57
44 0.4
45 0.15
46 0.15
47 0.15
48 0.15
49 0.06
5 -0.57
50 0.5
51 0.15
52 0.15
53 0.15
54 0.15
6 -0.48
7 -0.9
8 -0.42
9 -0.63

> <PUBCHEM_EFFECTIVE_ROTOR_COUNT>
4.6

> <PUBCHEM_PHARMACOPHORE_FEATURES>
15
1 1 acceptor
1 1 donor
1 2 acceptor
1 3 acceptor
1 4 acceptor
1 5 acceptor
1 7 cation
1 7 donor
3 12 18 19 hydrophobe
3 3 4 24 anion
5 6 10 11 13 15 rings
5 6 7 10 12 16 rings
6 13 15 20 21 22 23 rings
6 27 28 29 30 31 32 rings
6 8 9 25 26 27 28 rings

> <PUBCHEM_HEAVY_ATOM_COUNT>
32

> <PUBCHEM_ATOM_DEF_STEREO_COUNT>
2

> <PUBCHEM_ATOM_UDEF_STEREO_COUNT>
1

> <PUBCHEM_BOND_DEF_STEREO_COUNT>
0

> <PUBCHEM_BOND_UDEF_STEREO_COUNT>
0

> <PUBCHEM_ISOTOPIC_ATOM_COUNT>
0

> <PUBCHEM_COMPONENT_COUNT>
1

> <PUBCHEM_CACTVS_TAUTO_COUNT>
-1

> <PUBCHEM_CONFORMER_ID>
0851E1A100000001

> <PUBCHEM_MMFF94_ENERGY>
106.5589

> <PUBCHEM_FEATURE_SELFOVERLAP>
76.577

> <PUBCHEM_SHAPE_FINGERPRINT>
10319926 262 18334854992256559930
10369192 42 17487631946671071840
10928967 22 15865171526368224458
11049842 53 17680453076979300686
11582403 64 17835204919309323685
12128747 34 18191861224421111770
12160290 23 17970091997088844223
12342043 65 17912684303910878271
12422481 6 18271815677887382347
12553582 1 17827110525692407379
12633257 1 17967246494849749452
12788726 201 17606433001257596915
12892183 10 18260820532114485586
12930653 34 18334850610978682154
13009979 54 16950290632224317850
133893 2 16342866408728305822
13583140 156 18339066164555829538
13726171 33 18120971457465903772
13911987 19 17203321260409870840
14114206 34 11531298049562879358
14178342 30 17967247585671300698
14856354 85 18113334250310359154
14932701 244 14619079767975448133
14950920 106 17896578713937917360
15324884 4 17984174580646381263
17349148 13 16298388001887968571
17974551 9 18191008041862610218
1813 80 15574426622805745350
19315092 285 16228276629568089368
19319366 153 15194745466066827086
20600515 1 18187654643356978773
21033648 29 18059559305253561872
21304303 282 17752176471954876815
21756936 100 18051686944218175280
21792934 111 18259991470831076043
21814621 53 14707772956922034355
22182313 1 18201168667316203636
22956985 138 16888922735334999467
23366157 5 16814915681986051179
23557571 272 18266200425118334183
23559900 14 18264509307172914726
244849 19 18057618568013967295
25222932 49 17105400034635315099
3117164 225 17971453136443806618
376196 1 17910367529646984700
3886686 26 17679852722345362963
392239 28 17969501683044277746
469060 322 17773303737757996663
484985 159 16735481176109874712
5081480 168 16772419260914090244
5104073 3 18261942016943018496
550186 7 18410857685464722188
57527293 21 18199476634627340242
6004065 56 17976258260188171715
6034566 193 17203040901987298952
6371380 46 17683788922728370986
6823239 73 18195558989040256980
7399639 24 18131360712966432823
9862522 239 18059278976885393100
9981440 41 17916285187163548024

> <PUBCHEM_SHAPE_MULTIPOLES>
609.27
10.7
3.81
2.79
7.48
2.06
-2.74
1.5
8.97
-4.95
0.47
2.01
-1.61
3.36

> <PUBCHEM_SHAPE_SELFOVERLAP>
1357.991

> <PUBCHEM_SHAPE_VOLUME>
323.5

> <PUBCHEM_COORDINATE_TYPE>
2
5
10

$$$$
