139586347
  -OEChem-03292013293D

 60 62  0     1  0  0  0  0  0999 V2000
    3.1711   -2.1977    1.4872 O   0  0  0  0  0  0  0  0  0  0  0  0
    2.1844    3.0288    0.0949 O   0  0  0  0  0  0  0  0  0  0  0  0
   -0.7695    0.8704   -0.1638 O   0  0  0  0  0  0  0  0  0  0  0  0
    1.6980    1.5274    2.7959 O   0  0  0  0  0  0  0  0  0  0  0  0
   -1.6931    1.1329   -2.2559 O   0  0  0  0  0  0  0  0  0  0  0  0
    0.7777    4.2763   -1.2474 O   0  0  0  0  0  0  0  0  0  0  0  0
   -3.2100    1.6959    1.1177 O   0  0  0  0  0  0  0  0  0  0  0  0
   -6.1629   -2.0401    1.0249 O   0  0  0  0  0  0  0  0  0  0  0  0
    1.0687    2.2916    0.5929 C   0  0  1  0  0  0  0  0  0  0  0  0
    0.4059    1.5631   -0.5825 C   0  0  1  0  0  0  0  0  0  0  0  0
    1.3502    0.5532   -1.2399 C   0  0  0  0  0  0  0  0  0  0  0  0
    2.1064   -0.2861   -0.2440 C   0  0  0  0  0  0  0  0  0  0  0  0
    2.2230    0.0126    1.0616 C   0  0  0  0  0  0  0  0  0  0  0  0
    1.6472    1.2872    1.5896 C   0  0  0  0  0  0  0  0  0  0  0  0
    2.7500   -1.5378   -0.7914 C   0  0  0  0  0  0  0  0  0  0  0  0
    3.7676   -2.1282    0.1902 C   0  0  2  0  0  0  0  0  0  0  0  0
    2.9277   -0.8950    2.0318 C   0  0  0  0  0  0  0  0  0  0  0  0
    0.1102    3.2649    1.2820 C   0  0  0  0  0  0  0  0  0  0  0  0
    4.1736   -3.5056   -0.2169 C   0  0  0  0  0  0  0  0  0  0  0  0
   -1.7398    0.7273   -1.1049 C   0  0  0  0  0  0  0  0  0  0  0  0
    1.8907    3.9949   -0.8240 C   0  0  0  0  0  0  0  0  0  0  0  0
    5.4401   -3.8669   -0.4675 C   0  0  0  0  0  0  0  0  0  0  0  0
   -2.9035   -0.0063   -0.5464 C   0  0  0  0  0  0  0  0  0  0  0  0
    3.1510    4.6819   -1.2551 C   0  0  0  0  0  0  0  0  0  0  0  0
   -3.3116   -1.2135   -1.1135 C   0  0  0  0  0  0  0  0  0  0  0  0
    5.8464   -5.2447   -0.8742 C   0  0  0  0  0  0  0  0  0  0  0  0
   -3.5910    0.5174    0.5485 C   0  0  0  0  0  0  0  0  0  0  0  0
   -4.4070   -1.8971   -0.5858 C   0  0  0  0  0  0  0  0  0  0  0  0
   -4.6864   -0.1660    1.0762 C   0  0  0  0  0  0  0  0  0  0  0  0
   -2.5950   -1.7983   -2.2868 C   0  0  0  0  0  0  0  0  0  0  0  0
   -5.0944   -1.3733    0.5091 C   0  0  0  0  0  0  0  0  0  0  0  0
   -6.5257   -3.2691    0.3974 C   0  0  0  0  0  0  0  0  0  0  0  0
    0.1115    2.2543   -1.3712 H   0  0  0  0  0  0  0  0  0  0  0  0
    2.0820    1.0790   -1.8655 H   0  0  0  0  0  0  0  0  0  0  0  0
    0.7805   -0.1138   -1.8982 H   0  0  0  0  0  0  0  0  0  0  0  0
    1.9478   -2.2589   -0.9977 H   0  0  0  0  0  0  0  0  0  0  0  0
    3.2500   -1.3192   -1.7431 H   0  0  0  0  0  0  0  0  0  0  0  0
    4.6523   -1.4784    0.2478 H   0  0  0  0  0  0  0  0  0  0  0  0
    3.8833   -0.4564    2.3415 H   0  0  0  0  0  0  0  0  0  0  0  0
    2.3179   -1.0421    2.9291 H   0  0  0  0  0  0  0  0  0  0  0  0
   -0.5481    3.7960    0.5886 H   0  0  0  0  0  0  0  0  0  0  0  0
    0.6575    4.0204    1.8579 H   0  0  0  0  0  0  0  0  0  0  0  0
   -0.5488    2.7347    1.9796 H   0  0  0  0  0  0  0  0  0  0  0  0
    3.3850   -4.2501   -0.3010 H   0  0  0  0  0  0  0  0  0  0  0  0
    6.2362   -3.1323   -0.3807 H   0  0  0  0  0  0  0  0  0  0  0  0
    3.6264    5.1582   -0.3941 H   0  0  0  0  0  0  0  0  0  0  0  0
    2.9096    5.4537   -1.9915 H   0  0  0  0  0  0  0  0  0  0  0  0
    3.8269    3.9583   -1.7176 H   0  0  0  0  0  0  0  0  0  0  0  0
    6.5522   -5.6551   -0.1457 H   0  0  0  0  0  0  0  0  0  0  0  0
    4.9927   -5.9263   -0.9434 H   0  0  0  0  0  0  0  0  0  0  0  0
    6.3387   -5.2146   -1.8510 H   0  0  0  0  0  0  0  0  0  0  0  0
   -4.6857   -2.8303   -1.0637 H   0  0  0  0  0  0  0  0  0  0  0  0
   -5.2227    0.2416    1.9295 H   0  0  0  0  0  0  0  0  0  0  0  0
   -2.7939   -1.2091   -3.1877 H   0  0  0  0  0  0  0  0  0  0  0  0
   -2.9140   -2.8270   -2.4878 H   0  0  0  0  0  0  0  0  0  0  0  0
   -1.5152   -1.8352   -2.1067 H   0  0  0  0  0  0  0  0  0  0  0  0
   -2.4834    2.0961    0.6142 H   0  0  0  0  0  0  0  0  0  0  0  0
   -7.3938   -3.6626    0.9364 H   0  0  0  0  0  0  0  0  0  0  0  0
   -5.7301   -4.0168    0.4855 H   0  0  0  0  0  0  0  0  0  0  0  0
   -6.8386   -3.1143   -0.6409 H   0  0  0  0  0  0  0  0  0  0  0  0
  1 16  1  0  0  0  0
  1 17  1  0  0  0  0
  2  9  1  0  0  0  0
  2 21  1  0  0  0  0
  3 10  1  0  0  0  0
  3 20  1  0  0  0  0
  4 14  2  0  0  0  0
  5 20  2  0  0  0  0
  6 21  2  0  0  0  0
  7 27  1  0  0  0  0
  7 57  1  0  0  0  0
  8 31  1  0  0  0  0
  8 32  1  0  0  0  0
  9 10  1  0  0  0  0
  9 14  1  0  0  0  0
  9 18  1  0  0  0  0
 10 11  1  0  0  0  0
 10 33  1  0  0  0  0
 11 12  1  0  0  0  0
 11 34  1  0  0  0  0
 11 35  1  0  0  0  0
 12 13  2  0  0  0  0
 12 15  1  0  0  0  0
 13 14  1  0  0  0  0
 13 17  1  0  0  0  0
 15 16  1  0  0  0  0
 15 36  1  0  0  0  0
 15 37  1  0  0  0  0
 16 19  1  0  0  0  0
 16 38  1  0  0  0  0
 17 39  1  0  0  0  0
 17 40  1  0  0  0  0
 18 41  1  0  0  0  0
 18 42  1  0  0  0  0
 18 43  1  0  0  0  0
 19 22  2  3  0  0  0
 19 44  1  0  0  0  0
 20 23  1  0  0  0  0
 21 24  1  0  0  0  0
 22 26  1  0  0  0  0
 22 45  1  0  0  0  0
 23 25  1  0  0  0  0
 23 27  2  0  0  0  0
 24 46  1  0  0  0  0
 24 47  1  0  0  0  0
 24 48  1  0  0  0  0
 25 28  2  0  0  0  0
 25 30  1  0  0  0  0
 26 49  1  0  0  0  0
 26 50  1  0  0  0  0
 26 51  1  0  0  0  0
 27 29  1  0  0  0  0
 28 31  1  0  0  0  0
 28 52  1  0  0  0  0
 29 31  2  0  0  0  0
 29 53  1  0  0  0  0
 30 54  1  0  0  0  0
 30 55  1  0  0  0  0
 30 56  1  0  0  0  0
 32 58  1  0  0  0  0
 32 59  1  0  0  0  0
 32 60  1  0  0  0  0
M  END
> <PUBCHEM_COMPOUND_CID>
139586347

> <PUBCHEM_CONFORMER_RMSD>
1

> <PUBCHEM_CONFORMER_DIVERSEORDER>
1
53
49
78
29
70
66
46
31
63
14
52
56
73
27
68
23
60
54
51
47
37
58
75
79
44
76
25
6
71
15
22
64
57
80
59
28
34
24
38
72
42
12
39
69
40
50
55
48
36
77
30
20
8
13
67
41
74
32
45
35
16
43
61
19
65
3
62
9
11
4
33
5
18
21
10
2
26
17
7

> <PUBCHEM_MMFF94_PARTIAL_CHARGES>
36
1 -0.56
10 0.28
11 0.14
12 -0.28
13 -0.12
14 0.49
15 0.14
16 0.42
17 0.42
19 -0.29
2 -0.43
20 0.63
21 0.66
22 -0.29
23 0.09
24 0.06
25 -0.14
26 0.14
27 0.08
28 -0.15
29 -0.15
3 -0.43
30 0.14
31 0.08
32 0.28
4 -0.57
44 0.15
45 0.15
5 -0.57
52 0.15
53 0.15
57 0.45
6 -0.57
7 -0.53
8 -0.36
9 0.34

> <PUBCHEM_EFFECTIVE_ROTOR_COUNT>
8.4

> <PUBCHEM_PHARMACOPHORE_FEATURES>
10
1 1 acceptor
1 26 hydrophobe
1 4 acceptor
1 5 acceptor
1 6 acceptor
1 7 donor
1 8 acceptor
6 1 12 13 15 16 17 rings
6 23 25 27 28 29 31 rings
6 9 10 11 12 13 14 rings

> <PUBCHEM_HEAVY_ATOM_COUNT>
32

> <PUBCHEM_ATOM_DEF_STEREO_COUNT>
3

> <PUBCHEM_ATOM_UDEF_STEREO_COUNT>
0

> <PUBCHEM_BOND_DEF_STEREO_COUNT>
0

> <PUBCHEM_BOND_UDEF_STEREO_COUNT>
1

> <PUBCHEM_ISOTOPIC_ATOM_COUNT>
0

> <PUBCHEM_COMPONENT_COUNT>
1

> <PUBCHEM_CACTVS_TAUTO_COUNT>
-1

> <PUBCHEM_CONFORMER_ID>
0851EB2B00000001

> <PUBCHEM_MMFF94_ENERGY>
87.4953

> <PUBCHEM_FEATURE_SELFOVERLAP>
50.766

> <PUBCHEM_SHAPE_FINGERPRINT>
10319688 140 18337397161386304758
10928967 22 18335970974620588619
11069576 57 17982423173838124983
11135609 127 9150908118333245699
11181472 205 18263644126031793773
11421498 54 18197786698351724281
11488393 25 18261099812490047356
117089 54 18339935809324109023
11763715 3 17974030362003586556
12107183 9 18269287768397492753
12160290 23 17405115467185264560
12633257 1 16773792623788102119
12788726 201 17537723188086950888
13009979 54 18130232566390780928
13103583 49 17773884107782648939
13533116 47 18267584796732472363
14251764 30 18339928095599242618
14420673 8 18197784297797035299
14444916 359 17843094118231000328
14863182 85 18125146384920894808
15324884 4 18051658145824067660
16120349 189 9943221732872850290
17492 89 18411702114864063635
17980427 26 17616588094873233720
1813 80 18336260150683683056
19319366 153 17982456197931275669
20600515 1 17771075899298382052
20771845 140 18122616430034723816
20775438 99 17973157619764507971
20775530 9 18337943485437336283
21033648 29 14979398335770535051
21133410 32 15866646044449927978
21344244 181 17976836598988133732
21365058 27 17687196691293411860
21421861 104 18340770463397730209
21716022 299 18337410283102062860
2260408 40 18273207616938023184
23466295 7 18053383193541867906
23559900 14 18411976962700929249
25222932 49 17623295283685940087
255183 451 18411421704401062423
3737641 26 18271235037575832418
4394409 98 15310421382717570246
4409770 3 17687746034569055596
4461854 278 16819701889518124267
44802255 64 16895123410159337078
484985 159 17905608800577674707
57527573 199 15694352361506988321
613672 6 18192967384178252830
7097593 13 18130216164205777277
7970288 3 18338239241196338243
86090 222 17676489488570820211

> <PUBCHEM_SHAPE_MULTIPOLES>
611.59
12.11
6.43
1.92
10.05
1.03
-0.28
-20.14
-1.21
-10.24
1.99
-0.16
0.6
0.26

> <PUBCHEM_SHAPE_SELFOVERLAP>
1304.251

> <PUBCHEM_SHAPE_VOLUME>
337.8

> <PUBCHEM_COORDINATE_TYPE>
2
5
10

$$$$
