139583797
  -OEChem-03292013293D

 50 50  0     1  0  0  0  0  0999 V2000
   -2.6558    0.8078   -0.6773 O   0  0  0  0  0  0  0  0  0  0  0  0
   -0.3842   -1.9779   -1.4256 O   0  0  0  0  0  0  0  0  0  0  0  0
   -0.1346   -1.4081    1.5985 O   0  0  0  0  0  0  0  0  0  0  0  0
   -2.8103   -0.4533    1.9382 O   0  0  0  0  0  0  0  0  0  0  0  0
   -4.7043    0.8966    0.4667 O   0  0  0  0  0  0  0  0  0  0  0  0
    1.6486    1.8082    0.6984 O   0  0  0  0  0  0  0  0  0  0  0  0
    3.4464    1.3225   -1.2726 O   0  0  0  0  0  0  0  0  0  0  0  0
    4.6943   -1.2226    1.0446 O   0  0  0  0  0  0  0  0  0  0  0  0
   -1.1215   -1.0967   -0.5707 C   0  0  1  0  0  0  0  0  0  0  0  0
   -2.2457   -1.9189    0.0961 C   0  0  0  0  0  0  0  0  0  0  0  0
   -0.1367   -0.5425    0.4680 C   0  0  2  0  0  0  0  0  0  0  0  0
   -1.7517    0.0074   -1.4481 C   0  0  2  0  0  0  0  0  0  0  0  0
   -3.3206   -1.0482    0.7466 C   0  0  2  0  0  0  0  0  0  0  0  0
    1.2807   -0.4486   -0.1171 C   0  0  0  0  0  0  0  0  0  0  0  0
   -3.7757    0.0547   -0.2100 C   0  0  2  0  0  0  0  0  0  0  0  0
    2.2366    0.5051    0.6225 C   0  0  1  0  0  0  0  0  0  0  0  0
   -0.7339    0.9493   -2.0875 C   0  0  0  0  0  0  0  0  0  0  0  0
    3.6292    0.6712   -0.0070 C   0  0  1  0  0  0  0  0  0  0  0  0
    4.4055   -0.6382   -0.2280 C   0  0  1  0  0  0  0  0  0  0  0  0
    5.7323   -0.4601   -0.9558 C   0  0  0  0  0  0  0  0  0  0  0  0
   -5.4969    1.6367   -0.4502 C   0  0  0  0  0  0  0  0  0  0  0  0
    2.1981    2.5554    1.7702 C   0  0  0  0  0  0  0  0  0  0  0  0
   -1.8592   -2.6680    0.7964 H   0  0  0  0  0  0  0  0  0  0  0  0
   -2.7312   -2.5155   -0.6905 H   0  0  0  0  0  0  0  0  0  0  0  0
   -0.4833    0.4317    0.8283 H   0  0  0  0  0  0  0  0  0  0  0  0
   -2.3089   -0.4562   -2.2743 H   0  0  0  0  0  0  0  0  0  0  0  0
   -4.1808   -1.6579    1.0448 H   0  0  0  0  0  0  0  0  0  0  0  0
    1.2767   -0.1416   -1.1618 H   0  0  0  0  0  0  0  0  0  0  0  0
    1.7283   -1.4500   -0.0868 H   0  0  0  0  0  0  0  0  0  0  0  0
   -4.2756   -0.4132   -1.0698 H   0  0  0  0  0  0  0  0  0  0  0  0
    2.3566    0.1024    1.6372 H   0  0  0  0  0  0  0  0  0  0  0  0
   -0.2088    1.5609   -1.3491 H   0  0  0  0  0  0  0  0  0  0  0  0
   -1.2640    1.6683   -2.7246 H   0  0  0  0  0  0  0  0  0  0  0  0
   -0.0257    0.4176   -2.7283 H   0  0  0  0  0  0  0  0  0  0  0  0
   -0.0976   -2.7406   -0.8941 H   0  0  0  0  0  0  0  0  0  0  0  0
    4.2524    1.3318    0.6042 H   0  0  0  0  0  0  0  0  0  0  0  0
    0.4570   -1.0215    2.2658 H   0  0  0  0  0  0  0  0  0  0  0  0
   -2.5187   -1.1733    2.5231 H   0  0  0  0  0  0  0  0  0  0  0  0
    3.8053   -1.3475   -0.8071 H   0  0  0  0  0  0  0  0  0  0  0  0
    6.3940    0.2129   -0.3995 H   0  0  0  0  0  0  0  0  0  0  0  0
    5.5887   -0.0567   -1.9624 H   0  0  0  0  0  0  0  0  0  0  0  0
    6.2577   -1.4177   -1.0412 H   0  0  0  0  0  0  0  0  0  0  0  0
    2.9861    2.1624   -1.1042 H   0  0  0  0  0  0  0  0  0  0  0  0
   -4.8686    2.2611   -1.0928 H   0  0  0  0  0  0  0  0  0  0  0  0
   -6.1103    0.9650   -1.0586 H   0  0  0  0  0  0  0  0  0  0  0  0
   -6.1631    2.2885    0.1214 H   0  0  0  0  0  0  0  0  0  0  0  0
    1.5882    3.4556    1.8932 H   0  0  0  0  0  0  0  0  0  0  0  0
    3.2176    2.8846    1.5564 H   0  0  0  0  0  0  0  0  0  0  0  0
    2.1620    1.9990    2.7122 H   0  0  0  0  0  0  0  0  0  0  0  0
    5.1269   -2.0786    0.8839 H   0  0  0  0  0  0  0  0  0  0  0  0
  1 12  1  0  0  0  0
  1 15  1  0  0  0  0
  2  9  1  0  0  0  0
  2 35  1  0  0  0  0
  3 11  1  0  0  0  0
  3 37  1  0  0  0  0
  4 13  1  0  0  0  0
  4 38  1  0  0  0  0
  5 15  1  0  0  0  0
  5 21  1  0  0  0  0
  6 16  1  0  0  0  0
  6 22  1  0  0  0  0
  7 18  1  0  0  0  0
  7 43  1  0  0  0  0
  8 19  1  0  0  0  0
  8 50  1  0  0  0  0
  9 10  1  0  0  0  0
  9 11  1  0  0  0  0
  9 12  1  0  0  0  0
 10 13  1  0  0  0  0
 10 23  1  0  0  0  0
 10 24  1  0  0  0  0
 11 14  1  0  0  0  0
 11 25  1  0  0  0  0
 12 17  1  0  0  0  0
 12 26  1  0  0  0  0
 13 15  1  0  0  0  0
 13 27  1  0  0  0  0
 14 16  1  0  0  0  0
 14 28  1  0  0  0  0
 14 29  1  0  0  0  0
 15 30  1  0  0  0  0
 16 18  1  0  0  0  0
 16 31  1  0  0  0  0
 17 32  1  0  0  0  0
 17 33  1  0  0  0  0
 17 34  1  0  0  0  0
 18 19  1  0  0  0  0
 18 36  1  0  0  0  0
 19 20  1  0  0  0  0
 19 39  1  0  0  0  0
 20 40  1  0  0  0  0
 20 41  1  0  0  0  0
 20 42  1  0  0  0  0
 21 44  1  0  0  0  0
 21 45  1  0  0  0  0
 21 46  1  0  0  0  0
 22 47  1  0  0  0  0
 22 48  1  0  0  0  0
 22 49  1  0  0  0  0
M  END
> <PUBCHEM_COMPOUND_CID>
139583797

> <PUBCHEM_CONFORMER_RMSD>
1.2

> <PUBCHEM_CONFORMER_DIVERSEORDER>
1
150
65
115
91
191
32
177
43
82
121
187
128
161
97
42
155
149
122
53
95
101
22
10
153
90
25
144
39
98
49
36
133
73
66
45
89
71
152
113
109
166
59
178
84
70
51
106
78
189
85
9
77
184
145
175
100
5
74
102
143
86
104
129
146
76
37
61
176
92
169
123
33
139
188
17
68
182
111
14
58
8
126
159
120
38
94
81
167
140
130
16
27
112
136
141
137
88
29
87
57
132
31
163
172
3
156
142
56
47
186
125
64
154
60
11
117
108
72
48
52
192
6
41
124
180
7
148
127
165
26
19
40
54
34
99
103
131
80
118
2
134
116
12
157
173
83
135
23
183
75
67
171
24
164
50
168
190
160
20
151
162
62
107
30
35
44
119
13
93
174
21
96
105
79
69
179
28
18
114
4
185
138
158
46
170
147
63
55
181
110
15

> <PUBCHEM_MMFF94_PARTIAL_CHARGES>
23
1 -0.56
11 0.28
12 0.28
13 0.28
15 0.56
16 0.28
18 0.28
19 0.28
2 -0.68
21 0.28
22 0.28
3 -0.68
35 0.4
37 0.4
38 0.4
4 -0.68
43 0.4
5 -0.56
50 0.4
6 -0.56
7 -0.68
8 -0.68
9 0.28

> <PUBCHEM_EFFECTIVE_ROTOR_COUNT>
8.2

> <PUBCHEM_PHARMACOPHORE_FEATURES>
14
1 1 acceptor
1 2 acceptor
1 2 donor
1 3 acceptor
1 3 donor
1 4 acceptor
1 4 donor
1 5 acceptor
1 6 acceptor
1 7 acceptor
1 7 donor
1 8 acceptor
1 8 donor
6 1 9 10 12 13 15 rings

> <PUBCHEM_HEAVY_ATOM_COUNT>
22

> <PUBCHEM_ATOM_DEF_STEREO_COUNT>
4

> <PUBCHEM_ATOM_UDEF_STEREO_COUNT>
4

> <PUBCHEM_BOND_DEF_STEREO_COUNT>
0

> <PUBCHEM_BOND_UDEF_STEREO_COUNT>
0

> <PUBCHEM_ISOTOPIC_ATOM_COUNT>
0

> <PUBCHEM_COMPONENT_COUNT>
1

> <PUBCHEM_CACTVS_TAUTO_COUNT>
-1

> <PUBCHEM_CONFORMER_ID>
0851E13500000001

> <PUBCHEM_MMFF94_ENERGY>
78.4998

> <PUBCHEM_FEATURE_SELFOVERLAP>
71.115

> <PUBCHEM_SHAPE_FINGERPRINT>
10366900 7 17967806163411012771
11552529 35 17605002592174272339
12011746 2 18260543395086697773
12119455 92 18342173350029909775
12236239 1 14923947838341220782
12592029 89 18342738477226243078
12633257 1 18059307533706115307
12788726 201 18270689654307566760
128620 24 11891329855276234186
13583140 156 18201159965559922427
14004511 7 17704074005806200818
14251751 93 17241314769017626028
14341114 328 15068342302238961661
14787075 74 13840560600199918948
15099037 51 18060700580605162332
15238133 3 18265320725326862705
15295992 7 18343015627228441489
15375358 24 11600007673770073588
15375462 189 14345789478739307569
15537594 2 13912324594584518097
17349148 13 15841561790119925426
17834072 14 13110964236393216510
17834072 8 18131072614980917590
18186145 218 18187633739418572994
192875 21 16486977314362986888
19489759 90 12967131592683029350
19784866 170 17168145598888916671
200 152 8286202734121551214
20832881 197 18411135801935269778
21033648 29 18335416898485553009
22079108 93 13118294693638085436
23175994 123 18272656736064365940
23402539 116 12679464157884267891
23559900 14 17822009830640895126
2838139 119 18059003987710888465
3286 77 18270395130476379566
347723 3 15195284210100902695
4325135 7 10591755489376634416
5104073 3 17822007657466825000
633830 44 18040712614716802070
7399639 24 17192903589731687074
74978 22 17845369024056022638
81228 2 17393032259497834474
9971528 1 17203889665578139904

> <PUBCHEM_SHAPE_MULTIPOLES>
405.8
10.48
2
1.64
3.35
0.62
-0.07
1.66
-0.69
0.05
0.46
-0.08
0.21
0.79

> <PUBCHEM_SHAPE_SELFOVERLAP>
803.946

> <PUBCHEM_SHAPE_VOLUME>
239.8

> <PUBCHEM_COORDINATE_TYPE>
2
5
10

$$$$
