139588497
  -OEChem-03292013293D

 46 47  0     0  0  0  0  0  0999 V2000
   -0.3283   -0.5647   -0.7568 O   0  0  0  0  0  0  0  0  0  0  0  0
    4.7086   -1.9169    1.2744 O   0  0  0  0  0  0  0  0  0  0  0  0
    3.8414    2.6545    0.1551 O   0  0  0  0  0  0  0  0  0  0  0  0
   -2.0074    1.7491   -0.5820 O   0  0  0  0  0  0  0  0  0  0  0  0
   -5.8594    0.4824    1.9598 O   0  0  0  0  0  0  0  0  0  0  0  0
   -1.6366   -1.4757   -2.4174 O   0  0  0  0  0  0  0  0  0  0  0  0
    1.4415    3.0908   -0.9126 O   0  0  0  0  0  0  0  0  0  0  0  0
    2.0451   -0.4145   -0.7250 C   0  0  0  0  0  0  0  0  0  0  0  0
    2.3831    0.9365   -0.6472 C   0  0  0  0  0  0  0  0  0  0  0  0
   -2.6544   -0.5511   -0.4695 C   0  0  0  0  0  0  0  0  0  0  0  0
    0.8477   -0.8700   -1.4943 C   0  0  0  0  0  0  0  0  0  0  0  0
    4.2914    0.3799    0.7260 C   0  0  0  0  0  0  0  0  0  0  0  0
   -3.5253   -1.5338    0.0013 C   0  0  0  0  0  0  0  0  0  0  0  0
    2.8302   -1.3684   -0.0774 C   0  0  0  0  0  0  0  0  0  0  0  0
    3.5063    1.3338    0.0782 C   0  0  0  0  0  0  0  0  0  0  0  0
    3.9533   -0.9711    0.6482 C   0  0  0  0  0  0  0  0  0  0  0  0
   -2.8585    0.7849   -0.1247 C   0  0  0  0  0  0  0  0  0  0  0  0
   -3.9334    1.1384    0.6909 C   0  0  0  0  0  0  0  0  0  0  0  0
   -4.6001   -1.1804    0.8170 C   0  0  0  0  0  0  0  0  0  0  0  0
   -4.8042    0.1557    1.1618 C   0  0  0  0  0  0  0  0  0  0  0  0
   -1.5076   -0.9234   -1.3359 C   0  0  0  0  0  0  0  0  0  0  0  0
    5.4968    0.8034    1.5027 C   0  0  0  0  0  0  0  0  0  0  0  0
   -3.3323   -2.9729   -0.3517 C   0  0  0  0  0  0  0  0  0  0  0  0
   -4.1529    2.5697    1.0634 C   0  0  0  0  0  0  0  0  0  0  0  0
    1.5662    1.9370   -1.3253 C   0  0  0  0  0  0  0  0  0  0  0  0
    4.2888   -3.2733    1.1411 C   0  0  0  0  0  0  0  0  0  0  0  0
    0.8168   -0.4246   -2.4950 H   0  0  0  0  0  0  0  0  0  0  0  0
    0.8894   -1.9564   -1.6484 H   0  0  0  0  0  0  0  0  0  0  0  0
    2.5193   -2.4034   -0.1684 H   0  0  0  0  0  0  0  0  0  0  0  0
   -5.2814   -1.9442    1.1844 H   0  0  0  0  0  0  0  0  0  0  0  0
    5.2100    1.4768    2.3177 H   0  0  0  0  0  0  0  0  0  0  0  0
    6.0256   -0.0371    1.9631 H   0  0  0  0  0  0  0  0  0  0  0  0
    6.2171    1.3056    0.8478 H   0  0  0  0  0  0  0  0  0  0  0  0
   -3.5670   -3.1420   -1.4074 H   0  0  0  0  0  0  0  0  0  0  0  0
   -2.3036   -3.2905   -0.1508 H   0  0  0  0  0  0  0  0  0  0  0  0
   -3.9841   -3.6253    0.2399 H   0  0  0  0  0  0  0  0  0  0  0  0
   -3.5654    2.8185    1.9529 H   0  0  0  0  0  0  0  0  0  0  0  0
   -3.8640    3.2445    0.2505 H   0  0  0  0  0  0  0  0  0  0  0  0
   -5.2067    2.7825    1.2713 H   0  0  0  0  0  0  0  0  0  0  0  0
    1.0195    1.6332   -2.2302 H   0  0  0  0  0  0  0  0  0  0  0  0
    4.6396    2.7914    0.6874 H   0  0  0  0  0  0  0  0  0  0  0  0
   -1.3355    1.3661   -1.1677 H   0  0  0  0  0  0  0  0  0  0  0  0
   -6.3495   -0.3265    2.1865 H   0  0  0  0  0  0  0  0  0  0  0  0
    5.0030   -3.8868    1.7003 H   0  0  0  0  0  0  0  0  0  0  0  0
    4.3314   -3.6097    0.0995 H   0  0  0  0  0  0  0  0  0  0  0  0
    3.3062   -3.4393    1.5958 H   0  0  0  0  0  0  0  0  0  0  0  0
  1 11  1  0  0  0  0
  1 21  1  0  0  0  0
  2 16  1  0  0  0  0
  2 26  1  0  0  0  0
  3 15  1  0  0  0  0
  3 41  1  0  0  0  0
  4 17  1  0  0  0  0
  4 42  1  0  0  0  0
  5 20  1  0  0  0  0
  5 43  1  0  0  0  0
  6 21  2  0  0  0  0
  7 25  2  0  0  0  0
  8  9  1  0  0  0  0
  8 11  1  0  0  0  0
  8 14  2  0  0  0  0
  9 15  2  0  0  0  0
  9 25  1  0  0  0  0
 10 13  1  0  0  0  0
 10 17  2  0  0  0  0
 10 21  1  0  0  0  0
 11 27  1  0  0  0  0
 11 28  1  0  0  0  0
 12 15  1  0  0  0  0
 12 16  2  0  0  0  0
 12 22  1  0  0  0  0
 13 19  2  0  0  0  0
 13 23  1  0  0  0  0
 14 16  1  0  0  0  0
 14 29  1  0  0  0  0
 17 18  1  0  0  0  0
 18 20  2  0  0  0  0
 18 24  1  0  0  0  0
 19 20  1  0  0  0  0
 19 30  1  0  0  0  0
 22 31  1  0  0  0  0
 22 32  1  0  0  0  0
 22 33  1  0  0  0  0
 23 34  1  0  0  0  0
 23 35  1  0  0  0  0
 23 36  1  0  0  0  0
 24 37  1  0  0  0  0
 24 38  1  0  0  0  0
 24 39  1  0  0  0  0
 25 40  1  0  0  0  0
 26 44  1  0  0  0  0
 26 45  1  0  0  0  0
 26 46  1  0  0  0  0
M  END
> <PUBCHEM_COMPOUND_CID>
139588497

> <PUBCHEM_CONFORMER_RMSD>
0.8

> <PUBCHEM_CONFORMER_DIVERSEORDER>
2
161
81
162
196
159
152
164
173
117
115
184
160
116
58
70
91
171
136
77
82
8
174
75
153
182
100
48
202
201
175
144
80
96
62
134
120
129
151
85
137
105
42
154
84
102
148
64
89
44
123
63
195
111
168
133
57
199
122
119
181
60
183
124
50
132
110
106
146
170
59
193
9
98
125
145
53
65
112
143
189
114
83
127
30
192
163
186
158
167
156
43
139
54
79
197
40
187
76
24
18
32
34
37
95
118
51
101
94
172
188
138
147
41
107
1
38
179
128
99
52
74
29
109
3
177
97
66
16
21
45
67
140
47
141
39
131
135
17
28
20
157
87
46
33
166
55
26
200
121
198
78
56
69
185
93
11
104
165
7
25
10
180
71
61
19
13
191
73
12
15
14
142
49
86
88
178
169
130
103
149
27
176
5
31
92
6
36
68
90
194
113
150
35
155
72
108
4
126
22
23
190

> <PUBCHEM_MMFF94_PARTIAL_CHARGES>
32
1 -0.43
10 0.09
11 0.42
12 -0.14
13 -0.14
14 -0.15
15 0.08
16 0.08
17 0.08
18 -0.14
19 -0.15
2 -0.36
20 0.08
21 0.63
22 0.14
23 0.14
24 0.14
25 0.42
26 0.28
29 0.15
3 -0.53
30 0.15
4 -0.53
40 0.06
41 0.45
42 0.45
43 0.45
5 -0.53
6 -0.57
7 -0.57
8 -0.14
9 0.09

> <PUBCHEM_EFFECTIVE_ROTOR_COUNT>
6

> <PUBCHEM_PHARMACOPHORE_FEATURES>
8
1 2 acceptor
1 3 donor
1 4 donor
1 5 donor
1 6 acceptor
1 7 acceptor
6 10 13 17 18 19 20 rings
6 8 9 12 14 15 16 rings

> <PUBCHEM_HEAVY_ATOM_COUNT>
26

> <PUBCHEM_ATOM_DEF_STEREO_COUNT>
0

> <PUBCHEM_ATOM_UDEF_STEREO_COUNT>
0

> <PUBCHEM_BOND_DEF_STEREO_COUNT>
0

> <PUBCHEM_BOND_UDEF_STEREO_COUNT>
0

> <PUBCHEM_ISOTOPIC_ATOM_COUNT>
0

> <PUBCHEM_COMPONENT_COUNT>
1

> <PUBCHEM_CACTVS_TAUTO_COUNT>
-1

> <PUBCHEM_CONFORMER_ID>
0851F39100000002

> <PUBCHEM_MMFF94_ENERGY>
92.1038

> <PUBCHEM_FEATURE_SELFOVERLAP>
40.597

> <PUBCHEM_SHAPE_FINGERPRINT>
10319926 262 18271817782580132575
10498660 4 11671773875493269978
10674148 151 18129668625729878212
10928967 22 17168134594877614146
11552529 35 18121215643304279119
12107183 9 18122623855684635650
12363563 72 14707205534895094167
12403259 118 18201720622443477537
12422481 6 18269835307201205464
12633257 1 18409737244303180615
12892183 10 18340197579168972966
13103583 49 18336824178705680666
13533116 47 18114185263251143139
13583140 156 18261379040512664197
13914758 101 17895185581566642279
13965767 371 18131064940016927652
14341114 176 18409732841866659226
14341114 328 18337397161396405903
14528608 73 10879988060383293610
14790565 3 18190739933510355356
14849402 71 18190459553718636832
14950920 106 18334855013230334011
15475509 8 18270414884118235980
15475509 84 17986101917187098792
16110190 28 18411699855536932598
1813 80 16732987492349307654
19862831 5 8646774399791093142
20693207 138 12107789665796762295
20715895 44 17983863285543052753
20739085 24 18336268964283388470
21033648 29 17060617785192552498
21065198 48 18411698828501932166
21859007 373 17824537466640840213
23557571 272 15266777857204344935
3117164 225 18339359643575735738
341906 21 16917069979233598978
3633792 109 18115569514611225119
3680242 22 18341062826063763241
3737641 26 17606956197067943586
38570 142 17974308787385582652
5104073 3 18412545400968323755
56633871 153 18336547114639374795
6823239 73 17915770663129926660
7064713 232 18059867155471734921
7097593 13 18408039623813769326
86090 222 16515698705780721427
960060 61 8214138534350030147

> <PUBCHEM_SHAPE_MULTIPOLES>
493.98
12.72
3.19
1.61
0.92
0.12
-0.19
0.46
8.3
-1.11
0.15
0.33
0.19
-1.96

> <PUBCHEM_SHAPE_SELFOVERLAP>
1064.498

> <PUBCHEM_SHAPE_VOLUME>
273.7

> <PUBCHEM_COORDINATE_TYPE>
2
5
10

$$$$
