139583186
  -OEChem-03292013293D

 63 65  0     1  0  0  0  0  0999 V2000
   -1.3582   -0.7512    0.2774 O   0  0  0  0  0  0  0  0  0  0  0  0
   -3.7343    0.2789    1.4896 O   0  0  0  0  0  0  0  0  0  0  0  0
   -2.9294    2.8541    1.9181 O   0  0  0  0  0  0  0  0  0  0  0  0
    1.9032    0.3900   -1.4369 O   0  0  0  0  0  0  0  0  0  0  0  0
    2.3780   -1.8164    2.0352 O   0  0  0  0  0  0  0  0  0  0  0  0
    0.1720    2.4378   -1.6960 O   0  0  0  0  0  0  0  0  0  0  0  0
    1.1675   -1.4446   -2.5128 O   0  0  0  0  0  0  0  0  0  0  0  0
   -1.6591   -2.1511    0.4145 C   0  0  1  0  0  0  0  0  0  0  0  0
   -3.2594   -1.1875   -1.0675 C   0  0  1  0  0  0  0  0  0  0  0  0
   -2.3825   -0.0754   -0.4810 C   0  0  1  0  0  0  0  0  0  0  0  0
   -3.1101   -2.3094   -0.0580 C   0  0  0  0  0  0  0  0  0  0  0  0
   -3.0728    0.9681    0.4204 C   0  0  2  0  0  0  0  0  0  0  0  0
   -0.7034   -2.9738   -0.4832 C   0  0  0  0  0  0  0  0  0  0  0  0
   -2.1310    2.0108    1.0657 C   0  0  1  0  0  0  0  0  0  0  0  0
   -1.5201   -2.5318    1.8881 C   0  0  0  0  0  0  0  0  0  0  0  0
   -4.7002   -0.8322   -1.3918 C   0  0  0  0  0  0  0  0  0  0  0  0
    0.7975   -2.9734   -0.1242 C   0  0  0  0  0  0  0  0  0  0  0  0
   -1.3338    2.9431    0.1237 C   0  0  1  0  0  0  0  0  0  0  0  0
    2.9771    0.1754    0.7346 C   0  0  1  0  0  0  0  0  0  0  0  0
    2.1858    1.0952   -0.2053 C   0  0  2  0  0  0  0  0  0  0  0  0
    1.5161   -1.6453   -0.1741 C   0  0  0  0  0  0  0  0  0  0  0  0
    0.8987    1.6243    0.4525 C   0  0  0  0  0  0  0  0  0  0  0  0
   -0.0714    2.3214   -0.4937 C   0  0  0  0  0  0  0  0  0  0  0  0
    2.2579   -1.1474    0.8323 C   0  0  0  0  0  0  0  0  0  0  0  0
    4.4111   -0.0416    0.2443 C   0  0  0  0  0  0  0  0  0  0  0  0
   -2.2085    3.5843   -0.9609 C   0  0  0  0  0  0  0  0  0  0  0  0
    1.5052   -0.9066   -1.4635 C   0  0  0  0  0  0  0  0  0  0  0  0
    5.2868    1.1648    0.5584 C   0  0  0  0  0  0  0  0  0  0  0  0
    6.7169    0.9395    0.0940 C   0  0  0  0  0  0  0  0  0  0  0  0
   -2.7894   -1.5175   -2.0045 H   0  0  0  0  0  0  0  0  0  0  0  0
   -1.8888    0.4460   -1.3072 H   0  0  0  0  0  0  0  0  0  0  0  0
   -3.8146   -2.1713    0.7706 H   0  0  0  0  0  0  0  0  0  0  0  0
   -3.3177   -3.2947   -0.4888 H   0  0  0  0  0  0  0  0  0  0  0  0
   -3.8594    1.4846   -0.1406 H   0  0  0  0  0  0  0  0  0  0  0  0
   -0.8081   -2.6401   -1.5218 H   0  0  0  0  0  0  0  0  0  0  0  0
   -1.0330   -4.0217   -0.4704 H   0  0  0  0  0  0  0  0  0  0  0  0
   -1.4610    1.4901    1.7568 H   0  0  0  0  0  0  0  0  0  0  0  0
   -2.2260   -1.9653    2.5063 H   0  0  0  0  0  0  0  0  0  0  0  0
   -0.5273   -2.2822    2.2752 H   0  0  0  0  0  0  0  0  0  0  0  0
   -1.7043   -3.5991    2.0459 H   0  0  0  0  0  0  0  0  0  0  0  0
   -5.2765   -0.5784   -0.4972 H   0  0  0  0  0  0  0  0  0  0  0  0
   -5.2011   -1.6797   -1.8719 H   0  0  0  0  0  0  0  0  0  0  0  0
   -4.7433    0.0174   -2.0808 H   0  0  0  0  0  0  0  0  0  0  0  0
    1.3049   -3.6468   -0.8290 H   0  0  0  0  0  0  0  0  0  0  0  0
    0.9218   -3.4490    0.8555 H   0  0  0  0  0  0  0  0  0  0  0  0
   -0.9532    3.7789    0.7290 H   0  0  0  0  0  0  0  0  0  0  0  0
    3.0047    0.6416    1.7286 H   0  0  0  0  0  0  0  0  0  0  0  0
    2.7854    1.9643   -0.4950 H   0  0  0  0  0  0  0  0  0  0  0  0
    1.1674    2.3342    1.2434 H   0  0  0  0  0  0  0  0  0  0  0  0
    0.3659    0.7988    0.9217 H   0  0  0  0  0  0  0  0  0  0  0  0
   -4.1879    0.9477    2.0305 H   0  0  0  0  0  0  0  0  0  0  0  0
    4.8457   -0.9192    0.7415 H   0  0  0  0  0  0  0  0  0  0  0  0
    4.4342   -0.2521   -0.8323 H   0  0  0  0  0  0  0  0  0  0  0  0
   -3.0894    4.0655   -0.5242 H   0  0  0  0  0  0  0  0  0  0  0  0
   -2.5468    2.8474   -1.6967 H   0  0  0  0  0  0  0  0  0  0  0  0
   -1.6486    4.3529   -1.5056 H   0  0  0  0  0  0  0  0  0  0  0  0
   -2.3215    3.4181    2.4261 H   0  0  0  0  0  0  0  0  0  0  0  0
    5.2901    1.3562    1.6379 H   0  0  0  0  0  0  0  0  0  0  0  0
    4.9026    2.0666    0.0714 H   0  0  0  0  0  0  0  0  0  0  0  0
    2.9776   -1.3069    2.6063 H   0  0  0  0  0  0  0  0  0  0  0  0
    7.1588    0.0688    0.5892 H   0  0  0  0  0  0  0  0  0  0  0  0
    7.3338    1.8124    0.3298 H   0  0  0  0  0  0  0  0  0  0  0  0
    6.7576    0.7777   -0.9879 H   0  0  0  0  0  0  0  0  0  0  0  0
  1  8  1  0  0  0  0
  1 10  1  0  0  0  0
  2 12  1  0  0  0  0
  2 51  1  0  0  0  0
  3 14  1  0  0  0  0
  3 57  1  0  0  0  0
  4 20  1  0  0  0  0
  4 27  1  0  0  0  0
  5 24  1  0  0  0  0
  5 60  1  0  0  0  0
  6 23  2  0  0  0  0
  7 27  2  0  0  0  0
  8 11  1  0  0  0  0
  8 13  1  0  0  0  0
  8 15  1  0  0  0  0
  9 10  1  0  0  0  0
  9 11  1  0  0  0  0
  9 16  1  0  0  0  0
  9 30  1  0  0  0  0
 10 12  1  0  0  0  0
 10 31  1  0  0  0  0
 11 32  1  0  0  0  0
 11 33  1  0  0  0  0
 12 14  1  0  0  0  0
 12 34  1  0  0  0  0
 13 17  1  0  0  0  0
 13 35  1  0  0  0  0
 13 36  1  0  0  0  0
 14 18  1  0  0  0  0
 14 37  1  0  0  0  0
 15 38  1  0  0  0  0
 15 39  1  0  0  0  0
 15 40  1  0  0  0  0
 16 41  1  0  0  0  0
 16 42  1  0  0  0  0
 16 43  1  0  0  0  0
 17 21  1  0  0  0  0
 17 44  1  0  0  0  0
 17 45  1  0  0  0  0
 18 23  1  0  0  0  0
 18 26  1  0  0  0  0
 18 46  1  0  0  0  0
 19 20  1  0  0  0  0
 19 24  1  0  0  0  0
 19 25  1  0  0  0  0
 19 47  1  0  0  0  0
 20 22  1  0  0  0  0
 20 48  1  0  0  0  0
 21 24  2  0  0  0  0
 21 27  1  0  0  0  0
 22 23  1  0  0  0  0
 22 49  1  0  0  0  0
 22 50  1  0  0  0  0
 25 28  1  0  0  0  0
 25 52  1  0  0  0  0
 25 53  1  0  0  0  0
 26 54  1  0  0  0  0
 26 55  1  0  0  0  0
 26 56  1  0  0  0  0
 28 29  1  0  0  0  0
 28 58  1  0  0  0  0
 28 59  1  0  0  0  0
 29 61  1  0  0  0  0
 29 62  1  0  0  0  0
 29 63  1  0  0  0  0
M  END
> <PUBCHEM_COMPOUND_CID>
139583186

> <PUBCHEM_CONFORMER_RMSD>
0.8

> <PUBCHEM_CONFORMER_DIVERSEORDER>
1
4
6
3
5
2

> <PUBCHEM_MMFF94_PARTIAL_CHARGES>
23
1 -0.56
10 0.28
12 0.28
14 0.28
17 0.14
18 0.06
19 0.14
2 -0.68
20 0.28
21 -0.12
22 0.06
23 0.45
24 -0.06
27 0.71
3 -0.68
4 -0.43
5 -0.53
51 0.4
57 0.4
6 -0.57
60 0.45
7 -0.57
8 0.28

> <PUBCHEM_EFFECTIVE_ROTOR_COUNT>
4.2

> <PUBCHEM_PHARMACOPHORE_FEATURES>
11
1 1 acceptor
1 2 acceptor
1 2 donor
1 29 hydrophobe
1 3 acceptor
1 3 donor
1 5 donor
1 6 acceptor
1 7 acceptor
5 1 8 9 10 11 rings
6 4 19 20 21 24 27 rings

> <PUBCHEM_HEAVY_ATOM_COUNT>
29

> <PUBCHEM_ATOM_DEF_STEREO_COUNT>
8

> <PUBCHEM_ATOM_UDEF_STEREO_COUNT>
0

> <PUBCHEM_BOND_DEF_STEREO_COUNT>
0

> <PUBCHEM_BOND_UDEF_STEREO_COUNT>
0

> <PUBCHEM_ISOTOPIC_ATOM_COUNT>
0

> <PUBCHEM_COMPONENT_COUNT>
1

> <PUBCHEM_CACTVS_TAUTO_COUNT>
-1

> <PUBCHEM_CONFORMER_ID>
0851DED200000001

> <PUBCHEM_MMFF94_ENERGY>
77.6097

> <PUBCHEM_FEATURE_SELFOVERLAP>
55.836

> <PUBCHEM_SHAPE_FINGERPRINT>
10366900 7 18131058359778812016
104564 63 18412259545272514192
10670039 82 18411980274273402992
10675989 125 17255669803641448636
10906281 52 18340217365956945637
1100329 8 18048875487667481318
11513181 2 18060421270498341174
11578080 2 16915686733544769496
11646440 116 18270684306751614147
12011746 2 18338785818960364926
12156800 1 16386124520553907717
12166972 35 17823972549017306151
12553582 1 18335998539867588309
12633257 1 18052528877333611154
12788726 201 18339347609135524625
13140716 1 18193566789903422361
13965767 371 18045792182153648592
14840074 17 18114189652681417204
17492 54 18263063518470844695
20600515 1 18126863791501134101
20691752 17 18117571634351970103
20905425 154 18341605971733110695
21236236 1 18413669111085468528
22113638 7 18195518418900627863
23402539 116 18199459029566696886
23419403 2 17624646389838957745
23559900 14 18125145280708273656
238 59 17190083355650364735
3052486 1 18336000708815114212
35225 105 18127382645025327305
57527585 103 17897467174851795371
6438718 38 18131067100163937807
81228 2 18339653265163168413

> <PUBCHEM_SHAPE_MULTIPOLES>
555.72
8.62
4.05
1.67
11.09
1.25
-0.06
1.62
0.64
-2.96
0.21
-0.57
-0.21
-0.54

> <PUBCHEM_SHAPE_SELFOVERLAP>
1153.091

> <PUBCHEM_SHAPE_VOLUME>
315.4

> <PUBCHEM_COORDINATE_TYPE>
2
5
10

$$$$
