139588954
  -OEChem-03292013293D

 42 41  0     1  0  0  0  0  0999 V2000
   -3.1972    0.6221   -0.0464 O   0  0  0  0  0  0  0  0  0  0  0  0
   -1.1173   -2.9302   -1.3504 O   0  0  0  0  0  0  0  0  0  0  0  0
   -3.2687   -2.3373   -0.9535 O   0  0  0  0  0  0  0  0  0  0  0  0
    1.3096    1.0902    2.0529 O   0  0  0  0  0  0  0  0  0  0  0  0
    4.4982   -0.6007   -0.5209 O   0  0  0  0  0  0  0  0  0  0  0  0
    2.3975   -1.3601    0.2437 O   0  5  0  0  0  0  0  0  0  0  0  0
    0.4649    1.2376   -0.1323 N   0  0  0  0  0  0  0  0  0  0  0  0
    3.1740   -0.3784   -0.0007 N   0  3  0  0  0  0  0  0  0  0  0  0
   -0.9259    1.4892    0.1732 C   0  0  2  0  0  0  0  0  0  0  0  0
   -1.8296    0.3455   -0.3516 C   0  0  1  0  0  0  0  0  0  0  0  0
   -1.3664    2.8987   -0.3160 C   0  0  0  0  0  0  0  0  0  0  0  0
   -1.4767   -1.0839    0.1361 C   0  0  1  0  0  0  0  0  0  0  0  0
   -1.8876   -1.3021    1.6062 C   0  0  0  0  0  0  0  0  0  0  0  0
   -1.4208    2.9564   -1.8490 C   0  0  0  0  0  0  0  0  0  0  0  0
   -0.5081    4.0541    0.2055 C   0  0  0  0  0  0  0  0  0  0  0  0
   -2.0720   -2.1629   -0.7630 C   0  0  0  0  0  0  0  0  0  0  0  0
   -1.5100   -2.6875    2.1190 C   0  0  0  0  0  0  0  0  0  0  0  0
    1.4220    1.0672    0.8383 C   0  0  0  0  0  0  0  0  0  0  0  0
    2.7723    0.8358    0.2610 C   0  0  0  0  0  0  0  0  0  0  0  0
    4.5417   -1.7536   -1.3521 C   0  0  0  0  0  0  0  0  0  0  0  0
   -1.0334    1.5144    1.2654 H   0  0  0  0  0  0  0  0  0  0  0  0
   -1.7516    0.3239   -1.4456 H   0  0  0  0  0  0  0  0  0  0  0  0
   -2.3858    3.0772    0.0513 H   0  0  0  0  0  0  0  0  0  0  0  0
   -0.3891   -1.2081    0.0715 H   0  0  0  0  0  0  0  0  0  0  0  0
   -1.4041   -0.5532    2.2431 H   0  0  0  0  0  0  0  0  0  0  0  0
   -2.9704   -1.1806    1.7270 H   0  0  0  0  0  0  0  0  0  0  0  0
    0.7362    1.1774   -1.1095 H   0  0  0  0  0  0  0  0  0  0  0  0
   -0.4580    2.7032   -2.3037 H   0  0  0  0  0  0  0  0  0  0  0  0
   -1.6841    3.9670   -2.1821 H   0  0  0  0  0  0  0  0  0  0  0  0
   -0.4515    4.0278    1.2987 H   0  0  0  0  0  0  0  0  0  0  0  0
   -0.9379    5.0191   -0.0837 H   0  0  0  0  0  0  0  0  0  0  0  0
    0.5120    4.0101   -0.1899 H   0  0  0  0  0  0  0  0  0  0  0  0
   -2.1855    2.2892   -2.2563 H   0  0  0  0  0  0  0  0  0  0  0  0
   -3.7412   -0.0596   -0.4760 H   0  0  0  0  0  0  0  0  0  0  0  0
   -2.0594   -3.4767    1.5971 H   0  0  0  0  0  0  0  0  0  0  0  0
   -0.4377   -2.8713    1.9971 H   0  0  0  0  0  0  0  0  0  0  0  0
   -1.7475   -2.7690    3.1846 H   0  0  0  0  0  0  0  0  0  0  0  0
   -1.5075   -3.6209   -1.9273 H   0  0  0  0  0  0  0  0  0  0  0  0
    3.4170    1.7023    0.0657 H   0  0  0  0  0  0  0  0  0  0  0  0
    5.5238   -1.7925   -1.8311 H   0  0  0  0  0  0  0  0  0  0  0  0
    3.7769   -1.6963   -2.1329 H   0  0  0  0  0  0  0  0  0  0  0  0
    4.4135   -2.6608   -0.7542 H   0  0  0  0  0  0  0  0  0  0  0  0
  1 10  1  0  0  0  0
  1 34  1  0  0  0  0
  2 16  1  0  0  0  0
  2 38  1  0  0  0  0
  3 16  2  0  0  0  0
  4 18  2  0  0  0  0
  5  8  1  0  0  0  0
  5 20  1  0  0  0  0
  6  8  1  0  0  0  0
  7  9  1  0  0  0  0
  7 18  1  0  0  0  0
  7 27  1  0  0  0  0
  8 19  2  0  0  0  0
  9 10  1  0  0  0  0
  9 11  1  0  0  0  0
  9 21  1  0  0  0  0
 10 12  1  0  0  0  0
 10 22  1  0  0  0  0
 11 14  1  0  0  0  0
 11 15  1  0  0  0  0
 11 23  1  0  0  0  0
 12 13  1  0  0  0  0
 12 16  1  0  0  0  0
 12 24  1  0  0  0  0
 13 17  1  0  0  0  0
 13 25  1  0  0  0  0
 13 26  1  0  0  0  0
 14 28  1  0  0  0  0
 14 29  1  0  0  0  0
 14 33  1  0  0  0  0
 15 30  1  0  0  0  0
 15 31  1  0  0  0  0
 15 32  1  0  0  0  0
 17 35  1  0  0  0  0
 17 36  1  0  0  0  0
 17 37  1  0  0  0  0
 18 19  1  0  0  0  0
 19 39  1  0  0  0  0
 20 40  1  0  0  0  0
 20 41  1  0  0  0  0
 20 42  1  0  0  0  0
M  CHG  2   6  -1   8   1
M  END
> <PUBCHEM_COMPOUND_CID>
139588954

> <PUBCHEM_CONFORMER_RMSD>
0.8

> <PUBCHEM_CONFORMER_DIVERSEORDER>
1
35
81
34
41
79
66
38
11
77
15
43
60
82
83
47
67
36
64
18
73
14
26
54
53
29
8
65
80
59
62
50
25
32
78
17
24
55
85
23
74
9
76
33
27
39
6
72
40
70
46
44
28
31
4
61
21
49
19
75
45
12
58
84
20
71
42
37
30
86
7
56
10
13
69
51
3
16
52
48
5
57
2
63
68
22

> <PUBCHEM_MMFF94_PARTIAL_CHARGES>
19
1 -0.68
10 0.28
12 0.06
16 0.66
18 0.63
19 -0.06
2 -0.65
20 0.28
27 0.37
3 -0.57
34 0.4
38 0.5
39 0.06
4 -0.57
5 -0.42
6 -0.63
7 -0.73
8 0.77
9 0.3

> <PUBCHEM_EFFECTIVE_ROTOR_COUNT>
9

> <PUBCHEM_PHARMACOPHORE_FEATURES>
10
1 1 acceptor
1 1 donor
1 17 hydrophobe
1 2 acceptor
1 3 acceptor
1 4 acceptor
1 6 anion
1 7 donor
3 11 14 15 hydrophobe
3 2 3 16 anion

> <PUBCHEM_HEAVY_ATOM_COUNT>
20

> <PUBCHEM_ATOM_DEF_STEREO_COUNT>
3

> <PUBCHEM_ATOM_UDEF_STEREO_COUNT>
0

> <PUBCHEM_BOND_DEF_STEREO_COUNT>
1

> <PUBCHEM_BOND_UDEF_STEREO_COUNT>
0

> <PUBCHEM_ISOTOPIC_ATOM_COUNT>
0

> <PUBCHEM_COMPONENT_COUNT>
1

> <PUBCHEM_CACTVS_TAUTO_COUNT>
-1

> <PUBCHEM_CONFORMER_ID>
0851F55A00000001

> <PUBCHEM_MMFF94_ENERGY>
35.0145

> <PUBCHEM_FEATURE_SELFOVERLAP>
50.806

> <PUBCHEM_SHAPE_FINGERPRINT>
10764073 3 17259392840227621251
107951 10 17753631047622079962
10906281 52 17828747775419788745
12553582 1 18121508113554548698
12788726 201 18261388906010338504
12841375 5 17396160382704600945
13681431 1 17828481710490174525
14022347 108 18042112306014457659
15415430 2 18260829306173723026
15463212 79 17896883145483240848
16752209 62 18043509652107683069
20645476 183 17386009408000089345
20645477 70 17183039879757366919
20711985 344 18261098673648169161
21524375 3 17757826736854157557
22907989 373 18336546023475069836
23557571 272 18335974338107001760
2748010 2 18266447896469833593
484985 159 17486512403310727934
5262128 65 17829036963962201115
559249 180 17902231110122632882
57210444 14 17834960771904204316
59755656 215 18196650692992813437
7364860 26 17617931882644292621
81228 2 18263066842686257609
84936 31 17329995106035127377

> <PUBCHEM_SHAPE_MULTIPOLES>
366.41
5.88
4.49
1.65
9.01
2.11
0.35
-3.5
-2.1
-3.45
-0.59
-0.32
-0.7
1.13

> <PUBCHEM_SHAPE_SELFOVERLAP>
705.86

> <PUBCHEM_SHAPE_VOLUME>
223

> <PUBCHEM_COORDINATE_TYPE>
2
5
10

$$$$
