139588040
  -OEChem-03292013293D

 64 66  0     1  0  0  0  0  0999 V2000
    0.3233    3.9579   -1.6463 Cl  0  0  0  0  0  0  0  0  0  0  0  0
   -3.5082    1.0734    0.0362 O   0  0  0  0  0  0  0  0  0  0  0  0
   -3.9378   -0.0902   -1.9715 O   0  0  0  0  0  0  0  0  0  0  0  0
   -2.3140   -2.6896   -1.6649 O   0  0  0  0  0  0  0  0  0  0  0  0
   -2.4483    3.1962   -1.1898 O   0  0  0  0  0  0  0  0  0  0  0  0
   -4.8174   -1.9409    2.3891 O   0  0  0  0  0  0  0  0  0  0  0  0
    2.3700   -0.2992    0.8558 O   0  0  0  0  0  0  0  0  0  0  0  0
   -1.0721   -2.5980    0.2809 O   0  0  0  0  0  0  0  0  0  0  0  0
    8.6120   -1.3233   -0.1357 O   0  0  0  0  0  0  0  0  0  0  0  0
   -1.3683    0.1789    0.4787 C   0  0  2  0  0  0  0  0  0  0  0  0
   -1.9642   -0.5871   -0.6995 C   0  0  2  0  0  0  0  0  0  0  0  0
   -3.4505   -0.2030   -0.6357 C   0  0  1  0  0  0  0  0  0  0  0  0
   -2.1930    1.4576    0.4573 C   0  0  1  0  0  0  0  0  0  0  0  0
   -4.3430   -1.1605    0.1539 C   0  0  1  0  0  0  0  0  0  0  0  0
    0.1124    0.4116    0.3843 C   0  0  0  0  0  0  0  0  0  0  0  0
   -1.6785    2.4603   -0.5720 C   0  0  0  0  0  0  0  0  0  0  0  0
   -2.2908    2.1440    1.8154 C   0  0  0  0  0  0  0  0  0  0  0  0
   -1.7162   -2.0634   -0.6116 C   0  0  0  0  0  0  0  0  0  0  0  0
   -4.4480   -0.7777    1.6458 C   0  0  1  0  0  0  0  0  0  0  0  0
    0.6344    1.6009   -0.3047 C   0  0  0  0  0  0  0  0  0  0  0  0
   -5.7337   -1.2132   -0.4932 C   0  0  0  0  0  0  0  0  0  0  0  0
   -0.1991    2.5500   -0.7809 C   0  0  0  0  0  0  0  0  0  0  0  0
    0.9988   -0.4397    0.9300 C   0  0  0  0  0  0  0  0  0  0  0  0
   -5.4854    0.3047    1.9248 C   0  0  0  0  0  0  0  0  0  0  0  0
    2.0919    1.6940   -0.4532 C   0  0  0  0  0  0  0  0  0  0  0  0
    2.8792    0.7680    0.1237 C   0  0  0  0  0  0  0  0  0  0  0  0
   -2.1561   -4.1114   -1.7051 C   0  0  0  0  0  0  0  0  0  0  0  0
    4.3127    0.7907    0.0424 C   0  0  0  0  0  0  0  0  0  0  0  0
    5.0991   -0.1304    0.6161 C   0  0  0  0  0  0  0  0  0  0  0  0
    6.6092   -0.1087    0.5321 C   0  0  2  0  0  0  0  0  0  0  0  0
    7.1867   -1.3676   -0.1533 C   0  0  1  0  0  0  0  0  0  0  0  0
    7.1860    0.0646    1.9415 C   0  0  0  0  0  0  0  0  0  0  0  0
    6.7088   -1.5489   -1.5906 C   0  0  0  0  0  0  0  0  0  0  0  0
   -1.5590   -0.3693    1.4093 H   0  0  0  0  0  0  0  0  0  0  0  0
   -1.4968   -0.2481   -1.6347 H   0  0  0  0  0  0  0  0  0  0  0  0
   -3.9916   -2.1944    0.0978 H   0  0  0  0  0  0  0  0  0  0  0  0
   -2.6912    1.4797    2.5859 H   0  0  0  0  0  0  0  0  0  0  0  0
   -1.3163    2.5093    2.1565 H   0  0  0  0  0  0  0  0  0  0  0  0
   -2.9700    3.0033    1.7653 H   0  0  0  0  0  0  0  0  0  0  0  0
   -3.4844   -0.4922    2.0569 H   0  0  0  0  0  0  0  0  0  0  0  0
   -6.1755   -0.2202   -0.6297 H   0  0  0  0  0  0  0  0  0  0  0  0
   -6.4237   -1.8101    0.1143 H   0  0  0  0  0  0  0  0  0  0  0  0
   -5.6935   -1.7024   -1.4736 H   0  0  0  0  0  0  0  0  0  0  0  0
   -3.2599    0.3428   -2.5160 H   0  0  0  0  0  0  0  0  0  0  0  0
    0.7474   -1.3287    1.4896 H   0  0  0  0  0  0  0  0  0  0  0  0
   -6.5062   -0.0819    1.8263 H   0  0  0  0  0  0  0  0  0  0  0  0
   -5.4019    0.6195    2.9724 H   0  0  0  0  0  0  0  0  0  0  0  0
   -5.3963    1.2024    1.3123 H   0  0  0  0  0  0  0  0  0  0  0  0
    2.5320    2.5100   -1.0156 H   0  0  0  0  0  0  0  0  0  0  0  0
   -4.8639   -1.6893    3.3273 H   0  0  0  0  0  0  0  0  0  0  0  0
   -2.6781   -4.4864   -2.5894 H   0  0  0  0  0  0  0  0  0  0  0  0
   -2.6011   -4.5666   -0.8152 H   0  0  0  0  0  0  0  0  0  0  0  0
   -1.0966   -4.3726   -1.7850 H   0  0  0  0  0  0  0  0  0  0  0  0
    4.7673    1.6044   -0.5174 H   0  0  0  0  0  0  0  0  0  0  0  0
    4.6755   -0.9574    1.1815 H   0  0  0  0  0  0  0  0  0  0  0  0
    6.9362    0.7673   -0.0453 H   0  0  0  0  0  0  0  0  0  0  0  0
    6.8933   -2.2545    0.4229 H   0  0  0  0  0  0  0  0  0  0  0  0
    6.9686   -0.8050    2.5722 H   0  0  0  0  0  0  0  0  0  0  0  0
    8.2727    0.1966    1.9121 H   0  0  0  0  0  0  0  0  0  0  0  0
    6.7645    0.9494    2.4324 H   0  0  0  0  0  0  0  0  0  0  0  0
    5.6247   -1.6807   -1.6492 H   0  0  0  0  0  0  0  0  0  0  0  0
    6.9926   -0.6869   -2.2043 H   0  0  0  0  0  0  0  0  0  0  0  0
    7.1838   -2.4257   -2.0441 H   0  0  0  0  0  0  0  0  0  0  0  0
    8.9376   -2.1489   -0.5329 H   0  0  0  0  0  0  0  0  0  0  0  0
  1 22  1  0  0  0  0
  2 12  1  0  0  0  0
  2 13  1  0  0  0  0
  3 12  1  0  0  0  0
  3 44  1  0  0  0  0
  4 18  1  0  0  0  0
  4 27  1  0  0  0  0
  5 16  2  0  0  0  0
  6 19  1  0  0  0  0
  6 50  1  0  0  0  0
  7 23  1  0  0  0  0
  7 26  1  0  0  0  0
  8 18  2  0  0  0  0
  9 31  1  0  0  0  0
  9 64  1  0  0  0  0
 10 11  1  0  0  0  0
 10 13  1  0  0  0  0
 10 15  1  0  0  0  0
 10 34  1  0  0  0  0
 11 12  1  0  0  0  0
 11 18  1  0  0  0  0
 11 35  1  0  0  0  0
 12 14  1  0  0  0  0
 13 16  1  0  0  0  0
 13 17  1  0  0  0  0
 14 19  1  0  0  0  0
 14 21  1  0  0  0  0
 14 36  1  0  0  0  0
 15 20  1  0  0  0  0
 15 23  2  0  0  0  0
 16 22  1  0  0  0  0
 17 37  1  0  0  0  0
 17 38  1  0  0  0  0
 17 39  1  0  0  0  0
 19 24  1  0  0  0  0
 19 40  1  0  0  0  0
 20 22  2  0  0  0  0
 20 25  1  0  0  0  0
 21 41  1  0  0  0  0
 21 42  1  0  0  0  0
 21 43  1  0  0  0  0
 23 45  1  0  0  0  0
 24 46  1  0  0  0  0
 24 47  1  0  0  0  0
 24 48  1  0  0  0  0
 25 26  2  0  0  0  0
 25 49  1  0  0  0  0
 26 28  1  0  0  0  0
 27 51  1  0  0  0  0
 27 52  1  0  0  0  0
 27 53  1  0  0  0  0
 28 29  2  0  0  0  0
 28 54  1  0  0  0  0
 29 30  1  0  0  0  0
 29 55  1  0  0  0  0
 30 31  1  0  0  0  0
 30 32  1  0  0  0  0
 30 56  1  0  0  0  0
 31 33  1  0  0  0  0
 31 57  1  0  0  0  0
 32 58  1  0  0  0  0
 32 59  1  0  0  0  0
 32 60  1  0  0  0  0
 33 61  1  0  0  0  0
 33 62  1  0  0  0  0
 33 63  1  0  0  0  0
M  END
> <PUBCHEM_COMPOUND_CID>
139588040

> <PUBCHEM_CONFORMER_RMSD>
1

> <PUBCHEM_CONFORMER_DIVERSEORDER>
1
4
8
2
10
9
3
7
5
11
6

> <PUBCHEM_MMFF94_PARTIAL_CHARGES>
33
1 -0.14
10 0.14
11 0.06
12 0.56
13 0.34
15 -0.14
16 0.49
18 0.66
19 0.28
2 -0.56
22 0.15
23 -0.07
25 -0.15
26 0.08
27 0.28
28 -0.15
29 -0.29
3 -0.68
30 0.14
31 0.28
4 -0.43
44 0.4
45 0.15
49 0.15
5 -0.57
50 0.4
54 0.15
55 0.15
6 -0.68
64 0.4
7 -0.15
8 -0.57
9 -0.68

> <PUBCHEM_EFFECTIVE_ROTOR_COUNT>
7.8

> <PUBCHEM_PHARMACOPHORE_FEATURES>
15
1 2 acceptor
1 21 hydrophobe
1 3 acceptor
1 3 donor
1 32 hydrophobe
1 5 acceptor
1 6 acceptor
1 6 donor
1 7 acceptor
1 8 acceptor
1 9 acceptor
1 9 donor
5 2 10 11 12 13 rings
6 10 13 15 16 20 22 rings
6 7 15 20 23 25 26 rings

> <PUBCHEM_HEAVY_ATOM_COUNT>
33

> <PUBCHEM_ATOM_DEF_STEREO_COUNT>
8

> <PUBCHEM_ATOM_UDEF_STEREO_COUNT>
0

> <PUBCHEM_BOND_DEF_STEREO_COUNT>
1

> <PUBCHEM_BOND_UDEF_STEREO_COUNT>
0

> <PUBCHEM_ISOTOPIC_ATOM_COUNT>
0

> <PUBCHEM_COMPONENT_COUNT>
1

> <PUBCHEM_CACTVS_TAUTO_COUNT>
-1

> <PUBCHEM_CONFORMER_ID>
0851F1C800000001

> <PUBCHEM_MMFF94_ENERGY>
98.2544

> <PUBCHEM_FEATURE_SELFOVERLAP>
76.37

> <PUBCHEM_SHAPE_FINGERPRINT>
10 15 12967123935146659146
10622 236 17624964324576994679
11524674 6 16917064460770460030
12166972 35 16732709376232240132
12422481 6 18130798879430175718
12633257 1 17775288312795539385
13140716 1 18125161790857172323
13782708 43 18343298142304519402
13911987 19 16515410651362017962
14117953 113 18409725141280552437
14856354 85 17749119888873309570
14910302 57 18271525304661522806
14955137 171 18188781654995758041
15021287 119 18335705000280088451
15064986 96 18200333039017943523
15183329 4 18408880721014775586
15324884 4 17107378705358831465
15352257 5 17917992768394470502
15361156 5 18338239383805153542
15439362 3 17548133334104179773
16087824 20 18042958776189001269
16110190 28 18342178907696296612
18603816 31 17060041654216719838
18927931 339 18334295353110837669
19311894 1 18191581055014784650
19958102 18 18270674273876952494
20771845 38 18272654506834837299
21267235 1 18333453157332010057
21792961 116 17458618986850079267
21796203 349 17972914519950750489
23559900 14 18058714940289675224
23569917 315 18200879586533901503
335507 130 18408887357155700172
3383291 50 18411419539906948090
397830 11 18058146454946160536
563151 74 15625955217903317630
56633871 153 18341336707385586023
70251023 43 17332232608146011455
9896288 288 18267871592392960769
999808 66 18260557718538911970

> <PUBCHEM_SHAPE_MULTIPOLES>
634.04
16.59
3.67
1.8
37.44
0.28
0.33
-10.12
4.37
-2.74
-2.44
-1.28
-0.21
0.08

> <PUBCHEM_SHAPE_SELFOVERLAP>
1337.633

> <PUBCHEM_SHAPE_VOLUME>
356.7

> <PUBCHEM_COORDINATE_TYPE>
2
5
10

$$$$
