139584811
  -OEChem-03292013293D

 66 66  0     1  0  0  0  0  0999 V2000
   -2.6887   -2.1549    1.6835 O   0  0  0  0  0  0  0  0  0  0  0  0
    1.6299   -1.5580    0.9262 O   0  0  0  0  0  0  0  0  0  0  0  0
    4.0025    0.3450   -1.6300 O   0  0  0  0  0  0  0  0  0  0  0  0
   -2.3127    1.3524    4.1876 O   0  0  0  0  0  0  0  0  0  0  0  0
   -0.5563    0.6733    2.9196 O   0  0  0  0  0  0  0  0  0  0  0  0
   -0.9149   -2.0509    0.1954 N   0  0  0  0  0  0  0  0  0  0  0  0
   -0.5362   -3.3861    0.4197 N   0  0  0  0  0  0  0  0  0  0  0  0
    1.5875    0.4161   -0.3070 N   0  0  0  0  0  0  0  0  0  0  0  0
   -0.0847   -1.2524   -0.7083 C   0  0  2  0  0  0  0  0  0  0  0  0
    0.2654   -1.9934   -1.9987 C   0  0  0  0  0  0  0  0  0  0  0  0
   -2.2277   -0.0297    0.7200 C   0  0  2  0  0  0  0  0  0  0  0  0
    0.6300   -3.4554   -1.7454 C   0  0  0  0  0  0  0  0  0  0  0  0
   -3.1280    0.1670   -0.5138 C   0  0  0  0  0  0  0  0  0  0  0  0
   -0.4097   -4.1136   -0.8426 C   0  0  0  0  0  0  0  0  0  0  0  0
   -1.9735   -1.5070    0.9159 C   0  0  0  0  0  0  0  0  0  0  0  0
    1.1352   -0.8394    0.0619 C   0  0  0  0  0  0  0  0  0  0  0  0
   -3.1313    1.5924   -1.0869 C   0  0  0  0  0  0  0  0  0  0  0  0
    2.7335    1.0534    0.3003 C   0  0  2  0  0  0  0  0  0  0  0  0
   -2.8125    0.5876    1.9952 C   0  0  0  0  0  0  0  0  0  0  0  0
   -4.0603    1.7561   -2.3059 C   0  0  0  0  0  0  0  0  0  0  0  0
    2.6554    2.5916    0.3062 C   0  0  0  0  0  0  0  0  0  0  0  0
    3.9825    0.5420   -0.4148 C   0  0  0  0  0  0  0  0  0  0  0  0
   -4.0965    3.1943   -2.8249 C   0  0  0  0  0  0  0  0  0  0  0  0
   -3.6153    0.8139   -3.4275 C   0  0  0  0  0  0  0  0  0  0  0  0
    1.4295    3.0738    1.0883 C   0  0  0  0  0  0  0  0  0  0  0  0
    2.6489    3.2065   -1.0971 C   0  0  0  0  0  0  0  0  0  0  0  0
   -1.7584    0.8578    3.0493 C   0  0  0  0  0  0  0  0  0  0  0  0
    5.2102    0.3274    0.4573 C   0  0  0  0  0  0  0  0  0  0  0  0
    6.3959   -0.2101   -0.3237 C   0  0  0  0  0  0  0  0  0  0  0  0
   -0.6036   -0.3552   -1.0450 H   0  0  0  0  0  0  0  0  0  0  0  0
    1.0811   -1.4947   -2.5350 H   0  0  0  0  0  0  0  0  0  0  0  0
   -0.6105   -1.9738   -2.6609 H   0  0  0  0  0  0  0  0  0  0  0  0
   -1.2879    0.5018    0.5534 H   0  0  0  0  0  0  0  0  0  0  0  0
    0.6930   -3.9929   -2.6981 H   0  0  0  0  0  0  0  0  0  0  0  0
    1.6207   -3.5144   -1.2779 H   0  0  0  0  0  0  0  0  0  0  0  0
   -2.8216   -0.5381   -1.2929 H   0  0  0  0  0  0  0  0  0  0  0  0
   -4.1568   -0.1144   -0.2521 H   0  0  0  0  0  0  0  0  0  0  0  0
   -1.3805   -4.1626   -1.3513 H   0  0  0  0  0  0  0  0  0  0  0  0
   -0.1036   -5.1435   -0.6303 H   0  0  0  0  0  0  0  0  0  0  0  0
   -1.2615   -3.8259    0.9858 H   0  0  0  0  0  0  0  0  0  0  0  0
   -2.1066    1.8723   -1.3630 H   0  0  0  0  0  0  0  0  0  0  0  0
   -3.4498    2.2998   -0.3132 H   0  0  0  0  0  0  0  0  0  0  0  0
    2.7850    0.6967    1.3370 H   0  0  0  0  0  0  0  0  0  0  0  0
   -3.2649    1.5592    1.7691 H   0  0  0  0  0  0  0  0  0  0  0  0
   -3.5903   -0.0457    2.4355 H   0  0  0  0  0  0  0  0  0  0  0  0
   -5.0809    1.4822   -2.0103 H   0  0  0  0  0  0  0  0  0  0  0  0
    1.1424    0.8841   -1.0904 H   0  0  0  0  0  0  0  0  0  0  0  0
    3.5476    2.9735    0.8200 H   0  0  0  0  0  0  0  0  0  0  0  0
   -3.1052    3.5197   -3.1583 H   0  0  0  0  0  0  0  0  0  0  0  0
   -4.4307    3.8792   -2.0387 H   0  0  0  0  0  0  0  0  0  0  0  0
   -4.7882    3.2894   -3.6684 H   0  0  0  0  0  0  0  0  0  0  0  0
   -4.1777    1.0157   -4.3461 H   0  0  0  0  0  0  0  0  0  0  0  0
   -3.8003   -0.2344   -3.1758 H   0  0  0  0  0  0  0  0  0  0  0  0
   -2.5507    0.9348   -3.6551 H   0  0  0  0  0  0  0  0  0  0  0  0
    0.4940    2.7739    0.6042 H   0  0  0  0  0  0  0  0  0  0  0  0
    1.4339    2.6676    2.1051 H   0  0  0  0  0  0  0  0  0  0  0  0
    1.7884    2.8762   -1.6871 H   0  0  0  0  0  0  0  0  0  0  0  0
    1.4282    4.1662    1.1684 H   0  0  0  0  0  0  0  0  0  0  0  0
    2.6022    4.2995   -1.0331 H   0  0  0  0  0  0  0  0  0  0  0  0
    3.5605    2.9584   -1.6488 H   0  0  0  0  0  0  0  0  0  0  0  0
    5.4768    1.2844    0.9170 H   0  0  0  0  0  0  0  0  0  0  0  0
    4.9468   -0.3820    1.2489 H   0  0  0  0  0  0  0  0  0  0  0  0
    6.1556   -1.1704   -0.7918 H   0  0  0  0  0  0  0  0  0  0  0  0
    7.2538   -0.3576    0.3394 H   0  0  0  0  0  0  0  0  0  0  0  0
    6.6919    0.4848   -1.1166 H   0  0  0  0  0  0  0  0  0  0  0  0
   -1.6359    1.5344    4.8740 H   0  0  0  0  0  0  0  0  0  0  0  0
  1 15  2  0  0  0  0
  2 16  2  0  0  0  0
  3 22  2  0  0  0  0
  4 27  1  0  0  0  0
  4 66  1  0  0  0  0
  5 27  2  0  0  0  0
  6  7  1  0  0  0  0
  6  9  1  0  0  0  0
  6 15  1  0  0  0  0
  7 14  1  0  0  0  0
  7 40  1  0  0  0  0
  8 16  1  0  0  0  0
  8 18  1  0  0  0  0
  8 47  1  0  0  0  0
  9 10  1  0  0  0  0
  9 16  1  0  0  0  0
  9 30  1  0  0  0  0
 10 12  1  0  0  0  0
 10 31  1  0  0  0  0
 10 32  1  0  0  0  0
 11 13  1  0  0  0  0
 11 15  1  0  0  0  0
 11 19  1  0  0  0  0
 11 33  1  0  0  0  0
 12 14  1  0  0  0  0
 12 34  1  0  0  0  0
 12 35  1  0  0  0  0
 13 17  1  0  0  0  0
 13 36  1  0  0  0  0
 13 37  1  0  0  0  0
 14 38  1  0  0  0  0
 14 39  1  0  0  0  0
 17 20  1  0  0  0  0
 17 41  1  0  0  0  0
 17 42  1  0  0  0  0
 18 21  1  0  0  0  0
 18 22  1  0  0  0  0
 18 43  1  0  0  0  0
 19 27  1  0  0  0  0
 19 44  1  0  0  0  0
 19 45  1  0  0  0  0
 20 23  1  0  0  0  0
 20 24  1  0  0  0  0
 20 46  1  0  0  0  0
 21 25  1  0  0  0  0
 21 26  1  0  0  0  0
 21 48  1  0  0  0  0
 22 28  1  0  0  0  0
 23 49  1  0  0  0  0
 23 50  1  0  0  0  0
 23 51  1  0  0  0  0
 24 52  1  0  0  0  0
 24 53  1  0  0  0  0
 24 54  1  0  0  0  0
 25 55  1  0  0  0  0
 25 56  1  0  0  0  0
 25 58  1  0  0  0  0
 26 57  1  0  0  0  0
 26 59  1  0  0  0  0
 26 60  1  0  0  0  0
 28 29  1  0  0  0  0
 28 61  1  0  0  0  0
 28 62  1  0  0  0  0
 29 63  1  0  0  0  0
 29 64  1  0  0  0  0
 29 65  1  0  0  0  0
M  END
> <PUBCHEM_COMPOUND_CID>
139584811

> <PUBCHEM_CONFORMER_RMSD>
1.2

> <PUBCHEM_CONFORMER_DIVERSEORDER>
1
49
16
64
65
71
59
60
56
34
76
33
37
14
73
4
57
69
61
7
17
67
15
13
36
22
72
27
2
31
40
35
63
77
6
70
25
50
44
66
52
43
62
47
68
55
54
18
74
24
42
53
5
19
38
3
39
21
10
51
26
11
45
75
58
30
23
28
8
48
9
32
46
41
12
20
29

> <PUBCHEM_MMFF94_PARTIAL_CHARGES>
21
1 -0.57
11 0.06
14 0.27
15 0.57
16 0.57
18 0.36
19 0.06
2 -0.57
22 0.45
27 0.66
28 0.06
3 -0.57
4 -0.65
40 0.36
47 0.37
5 -0.57
6 -0.35
66 0.5
7 -0.64
8 -0.73
9 0.36

> <PUBCHEM_EFFECTIVE_ROTOR_COUNT>
14.2

> <PUBCHEM_PHARMACOPHORE_FEATURES>
13
1 1 acceptor
1 2 acceptor
1 29 hydrophobe
1 3 acceptor
1 4 acceptor
1 5 acceptor
1 7 donor
1 8 donor
3 20 23 24 hydrophobe
3 21 25 26 hydrophobe
3 4 5 27 anion
5 11 13 17 19 20 hydrophobe
6 6 7 9 10 12 14 rings

> <PUBCHEM_HEAVY_ATOM_COUNT>
29

> <PUBCHEM_ATOM_DEF_STEREO_COUNT>
2

> <PUBCHEM_ATOM_UDEF_STEREO_COUNT>
1

> <PUBCHEM_BOND_DEF_STEREO_COUNT>
0

> <PUBCHEM_BOND_UDEF_STEREO_COUNT>
0

> <PUBCHEM_ISOTOPIC_ATOM_COUNT>
0

> <PUBCHEM_COMPONENT_COUNT>
1

> <PUBCHEM_CACTVS_TAUTO_COUNT>
-1

> <PUBCHEM_CONFORMER_ID>
0851E52B00000001

> <PUBCHEM_MMFF94_ENERGY>
49.727

> <PUBCHEM_FEATURE_SELFOVERLAP>
66.032

> <PUBCHEM_SHAPE_FINGERPRINT>
107951 10 16805882888430726753
11578080 2 17534367564197689639
11582403 64 17314490583713708915
11725454 13 17531519876800974313
12128747 34 16950561021884916450
13140716 1 17485376891324936842
133893 2 17911523094982572459
13583140 156 18260550073492045034
13761468 95 18047783612719249820
15219462 58 16444182204745035176
17349148 13 17632299012348057976
17974551 9 16950555532869362768
21860390 5 17904458737221644879
238 59 18338784612211828333
376196 1 17897139374368210805
469060 322 17109035067236395456
57527573 199 16951970539978684789
6009941 240 16950561031319064296
9981440 41 17968374542329599123

> <PUBCHEM_SHAPE_MULTIPOLES>
552.52
8.82
4.38
3.4
9.25
2.31
-1.99
-6.01
4.52
-0.71
1.86
-5.18
-1.76
2.02

> <PUBCHEM_SHAPE_SELFOVERLAP>
1090.495

> <PUBCHEM_SHAPE_VOLUME>
326.3

> <PUBCHEM_COORDINATE_TYPE>
2
5
10

$$$$
