139585598
  -OEChem-03292013293D

 64 64  0     1  0  0  0  0  0999 V2000
    3.9022   -2.3671    1.6396 O   0  0  0  0  0  0  0  0  0  0  0  0
    2.3391    0.4681   -2.5985 O   0  0  0  0  0  0  0  0  0  0  0  0
   -3.5789   -0.1243    0.0695 O   0  0  0  0  0  0  0  0  0  0  0  0
   -0.5303    4.3486   -1.0842 O   0  0  0  0  0  0  0  0  0  0  0  0
   -4.3153   -2.7387   -0.8865 O   0  0  0  0  0  0  0  0  0  0  0  0
   -4.1464    1.6888    1.3782 O   0  0  0  0  0  0  0  0  0  0  0  0
    4.1804   -0.5068    0.2703 N   0  0  0  0  0  0  0  0  0  0  0  0
    2.0321   -1.2717   -1.1289 N   0  0  0  0  0  0  0  0  0  0  0  0
    0.5354    3.4718    0.7867 N   0  0  0  0  0  0  0  0  0  0  0  0
    2.0439   -1.7068    0.2558 C   0  0  1  0  0  0  0  0  0  0  0  0
    3.5227    0.5512   -0.5038 C   0  0  2  0  0  0  0  0  0  0  0  0
    1.5036   -3.1249    0.3814 C   0  0  1  0  0  0  0  0  0  0  0  0
    3.4731   -1.6032    0.7745 C   0  0  0  0  0  0  0  0  0  0  0  0
    2.7841    1.5594    0.3666 C   0  0  0  0  0  0  0  0  0  0  0  0
    2.6095   -0.0863   -1.5347 C   0  0  0  0  0  0  0  0  0  0  0  0
    0.0597   -3.2595   -0.1402 C   0  0  0  0  0  0  0  0  0  0  0  0
    2.6535    2.9114   -0.3366 C   0  0  0  0  0  0  0  0  0  0  0  0
    2.4114   -4.1009   -0.3755 C   0  0  0  0  0  0  0  0  0  0  0  0
    5.5544   -0.2678    0.6899 C   0  0  0  0  0  0  0  0  0  0  0  0
    1.8657    3.9245    0.4873 C   0  0  0  0  0  0  0  0  0  0  0  0
   -0.9367   -2.3780    0.5992 C   0  0  0  0  0  0  0  0  0  0  0  0
   -0.5646    3.7217   -0.0290 C   0  0  0  0  0  0  0  0  0  0  0  0
   -1.8386    3.1179    0.5413 C   0  0  0  0  0  0  0  0  0  0  0  0
   -2.0948    1.6899    0.0671 C   0  0  0  0  0  0  0  0  0  0  0  0
   -4.7694   -0.7998    0.4873 C   0  0  1  0  0  0  0  0  0  0  0  0
   -5.2810   -1.7215   -0.6285 C   0  0  1  0  0  0  0  0  0  0  0  0
   -3.3936    1.1224    0.5978 C   0  0  0  0  0  0  0  0  0  0  0  0
   -4.4687   -1.5511    1.7789 C   0  0  0  0  0  0  0  0  0  0  0  0
   -5.5523   -0.9672   -1.9250 C   0  0  0  0  0  0  0  0  0  0  0  0
    1.4378   -1.0085    0.8412 H   0  0  0  0  0  0  0  0  0  0  0  0
    4.3178    1.0513   -1.0727 H   0  0  0  0  0  0  0  0  0  0  0  0
    1.5102   -3.4188    1.4396 H   0  0  0  0  0  0  0  0  0  0  0  0
    1.7919    1.1804    0.6326 H   0  0  0  0  0  0  0  0  0  0  0  0
    3.3236    1.7113    1.3099 H   0  0  0  0  0  0  0  0  0  0  0  0
    1.3839   -1.6983   -1.7821 H   0  0  0  0  0  0  0  0  0  0  0  0
   -0.2583   -4.3021   -0.0077 H   0  0  0  0  0  0  0  0  0  0  0  0
   -0.0092   -3.0657   -1.2159 H   0  0  0  0  0  0  0  0  0  0  0  0
    3.6505    3.3196   -0.5408 H   0  0  0  0  0  0  0  0  0  0  0  0
    2.1556    2.7804   -1.3043 H   0  0  0  0  0  0  0  0  0  0  0  0
    2.4498   -3.8804   -1.4478 H   0  0  0  0  0  0  0  0  0  0  0  0
    2.0268   -5.1226   -0.2737 H   0  0  0  0  0  0  0  0  0  0  0  0
    3.4368   -4.1200    0.0016 H   0  0  0  0  0  0  0  0  0  0  0  0
    5.9619   -1.1290    1.2257 H   0  0  0  0  0  0  0  0  0  0  0  0
    5.5769    0.6045    1.3490 H   0  0  0  0  0  0  0  0  0  0  0  0
    6.1688   -0.0783   -0.1948 H   0  0  0  0  0  0  0  0  0  0  0  0
    1.8077    4.8746   -0.0549 H   0  0  0  0  0  0  0  0  0  0  0  0
    2.3685    4.1123    1.4419 H   0  0  0  0  0  0  0  0  0  0  0  0
   -0.7637   -1.3183    0.3981 H   0  0  0  0  0  0  0  0  0  0  0  0
   -0.8909   -2.5446    1.6796 H   0  0  0  0  0  0  0  0  0  0  0  0
   -1.9449   -2.6177    0.2575 H   0  0  0  0  0  0  0  0  0  0  0  0
    0.4050    2.9329    1.6379 H   0  0  0  0  0  0  0  0  0  0  0  0
   -2.6706    3.7689    0.2447 H   0  0  0  0  0  0  0  0  0  0  0  0
   -1.8042    3.1532    1.6374 H   0  0  0  0  0  0  0  0  0  0  0  0
   -1.2743    1.0436    0.3968 H   0  0  0  0  0  0  0  0  0  0  0  0
   -2.1303    1.6709   -1.0282 H   0  0  0  0  0  0  0  0  0  0  0  0
   -5.5666   -0.0707    0.6848 H   0  0  0  0  0  0  0  0  0  0  0  0
   -6.2008   -2.2166   -0.2957 H   0  0  0  0  0  0  0  0  0  0  0  0
   -3.6780   -2.2932    1.6462 H   0  0  0  0  0  0  0  0  0  0  0  0
   -4.1240   -0.8649    2.5596 H   0  0  0  0  0  0  0  0  0  0  0  0
   -5.3619   -2.0658    2.1471 H   0  0  0  0  0  0  0  0  0  0  0  0
   -4.6306   -0.5478   -2.3427 H   0  0  0  0  0  0  0  0  0  0  0  0
   -6.2716   -0.1574   -1.7704 H   0  0  0  0  0  0  0  0  0  0  0  0
   -5.9546   -1.6476   -2.6834 H   0  0  0  0  0  0  0  0  0  0  0  0
   -4.6789   -3.3214   -1.5749 H   0  0  0  0  0  0  0  0  0  0  0  0
  1 13  2  0  0  0  0
  2 15  2  0  0  0  0
  3 25  1  0  0  0  0
  3 27  1  0  0  0  0
  4 22  2  0  0  0  0
  5 26  1  0  0  0  0
  5 64  1  0  0  0  0
  6 27  2  0  0  0  0
  7 11  1  0  0  0  0
  7 13  1  0  0  0  0
  7 19  1  0  0  0  0
  8 10  1  0  0  0  0
  8 15  1  0  0  0  0
  8 35  1  0  0  0  0
  9 20  1  0  0  0  0
  9 22  1  0  0  0  0
  9 51  1  0  0  0  0
 10 12  1  0  0  0  0
 10 13  1  0  0  0  0
 10 30  1  0  0  0  0
 11 14  1  0  0  0  0
 11 15  1  0  0  0  0
 11 31  1  0  0  0  0
 12 16  1  0  0  0  0
 12 18  1  0  0  0  0
 12 32  1  0  0  0  0
 14 17  1  0  0  0  0
 14 33  1  0  0  0  0
 14 34  1  0  0  0  0
 16 21  1  0  0  0  0
 16 36  1  0  0  0  0
 16 37  1  0  0  0  0
 17 20  1  0  0  0  0
 17 38  1  0  0  0  0
 17 39  1  0  0  0  0
 18 40  1  0  0  0  0
 18 41  1  0  0  0  0
 18 42  1  0  0  0  0
 19 43  1  0  0  0  0
 19 44  1  0  0  0  0
 19 45  1  0  0  0  0
 20 46  1  0  0  0  0
 20 47  1  0  0  0  0
 21 48  1  0  0  0  0
 21 49  1  0  0  0  0
 21 50  1  0  0  0  0
 22 23  1  0  0  0  0
 23 24  1  0  0  0  0
 23 52  1  0  0  0  0
 23 53  1  0  0  0  0
 24 27  1  0  0  0  0
 24 54  1  0  0  0  0
 24 55  1  0  0  0  0
 25 26  1  0  0  0  0
 25 28  1  0  0  0  0
 25 56  1  0  0  0  0
 26 29  1  0  0  0  0
 26 57  1  0  0  0  0
 28 58  1  0  0  0  0
 28 59  1  0  0  0  0
 28 60  1  0  0  0  0
 29 61  1  0  0  0  0
 29 62  1  0  0  0  0
 29 63  1  0  0  0  0
M  END
> <PUBCHEM_COMPOUND_CID>
139585598

> <PUBCHEM_CONFORMER_RMSD>
1.8

> <PUBCHEM_CONFORMER_DIVERSEORDER>
1
45
81
2
8
78
54
63
29
24
12
51
73
57
43
11
33
65
34
17
47
32
64
69
53
21
70
79
16
41
59
44
68
18
27
66
3
75
4
42
58
62
82
56
19
76
80
77
35
36
26
46
25
23
71
50
38
20
49
72
15
5
60
14
37
55
31
67
7
52
40
13
48
10
28
22
61
39
6
74
9
30

> <PUBCHEM_MMFF94_PARTIAL_CHARGES>
24
1 -0.57
10 0.36
11 0.36
13 0.57
15 0.57
19 0.3
2 -0.57
20 0.3
22 0.57
23 0.06
24 0.06
25 0.28
26 0.28
27 0.66
3 -0.43
35 0.37
4 -0.57
5 -0.68
51 0.37
6 -0.57
64 0.4
7 -0.66
8 -0.73
9 -0.73

> <PUBCHEM_EFFECTIVE_ROTOR_COUNT>
13.8

> <PUBCHEM_PHARMACOPHORE_FEATURES>
11
1 1 acceptor
1 18 hydrophobe
1 2 acceptor
1 21 hydrophobe
1 4 acceptor
1 5 acceptor
1 5 donor
1 6 acceptor
1 8 donor
1 9 donor
6 7 8 10 11 13 15 rings

> <PUBCHEM_HEAVY_ATOM_COUNT>
29

> <PUBCHEM_ATOM_DEF_STEREO_COUNT>
0

> <PUBCHEM_ATOM_UDEF_STEREO_COUNT>
5

> <PUBCHEM_BOND_DEF_STEREO_COUNT>
0

> <PUBCHEM_BOND_UDEF_STEREO_COUNT>
0

> <PUBCHEM_ISOTOPIC_ATOM_COUNT>
0

> <PUBCHEM_COMPONENT_COUNT>
1

> <PUBCHEM_CACTVS_TAUTO_COUNT>
-1

> <PUBCHEM_CONFORMER_ID>
0851E83E00000001

> <PUBCHEM_MMFF94_ENERGY>
59.6622

> <PUBCHEM_FEATURE_SELFOVERLAP>
55.823

> <PUBCHEM_SHAPE_FINGERPRINT>
12596599 1 17773897336455857273
13122387 1 18410582751280228049
1361 2 18194680608346784273
14251757 5 17044039099560727694
152267 14 18052255090180100567
15475509 84 18261660499011262042
19026451 147 18341034311881561583
19930381 70 18410294748301140369
20764821 26 18121786298438643681
20775530 9 18043820783653912744
392239 28 18340774852822690603
463206 1 18193279585472260129
5309563 4 18411698807333310505

> <PUBCHEM_SHAPE_MULTIPOLES>
546.65
11.16
6.06
1.49
9.96
3.33
0.53
-5.52
-0.16
-1.69
-0.3
0.52
-0.25
-1.16

> <PUBCHEM_SHAPE_SELFOVERLAP>
1081.331

> <PUBCHEM_SHAPE_VOLUME>
322.2

> <PUBCHEM_COORDINATE_TYPE>
2
5
10

$$$$
