139591310
  -OEChem-03292013293D

 48 49  0     1  0  0  0  0  0999 V2000
    3.4216    2.7948    0.4070 O   0  0  0  0  0  0  0  0  0  0  0  0
    2.7567   -2.9305   -0.7274 O   0  0  0  0  0  0  0  0  0  0  0  0
    0.1160    0.2648    1.7066 O   0  0  0  0  0  0  0  0  0  0  0  0
   -5.3978   -1.0450   -1.1638 O   0  0  0  0  0  0  0  0  0  0  0  0
    5.1285    1.8792   -0.8589 O   0  0  0  0  0  0  0  0  0  0  0  0
   -1.9195    3.3366    0.1512 O   0  0  0  0  0  0  0  0  0  0  0  0
   -2.6079    2.8303   -1.9529 O   0  0  0  0  0  0  0  0  0  0  0  0
    1.4199   -1.3497    0.4948 C   0  0  0  0  0  0  0  0  0  0  0  0
    2.1530    0.9158    0.6626 C   0  0  0  0  0  0  0  0  0  0  0  0
    0.4135   -2.4284    0.8090 C   0  0  0  0  0  0  0  0  0  0  0  0
    1.2115   -0.0499    0.9669 C   0  0  0  0  0  0  0  0  0  0  0  0
    3.2660    0.5960   -0.0880 C   0  0  0  0  0  0  0  0  0  0  0  0
    2.5579   -1.6617   -0.2687 C   0  0  0  0  0  0  0  0  0  0  0  0
    2.1889    2.3443    1.0236 C   0  0  0  0  0  0  0  0  0  0  0  0
   -3.3346   -2.1448   -0.4744 C   0  0  0  0  0  0  0  0  0  0  0  0
   -2.1130   -2.1862    0.4275 C   0  0  0  0  0  0  0  0  0  0  0  0
   -0.8457   -2.3376   -0.0070 C   0  0  0  0  0  0  0  0  0  0  0  0
    3.5014   -0.6785   -0.5693 C   0  0  0  0  0  0  0  0  0  0  0  0
   -4.2189   -0.8848   -0.3739 C   0  0  1  0  0  0  0  0  0  0  0  0
    4.0787    1.7904   -0.2540 C   0  0  0  0  0  0  0  0  0  0  0  0
   -2.3777   -2.0881    1.9086 C   0  0  0  0  0  0  0  0  0  0  0  0
   -3.5300    0.3810   -0.8107 C   0  0  0  0  0  0  0  0  0  0  0  0
   -3.3464    1.4959   -0.0786 C   0  0  0  0  0  0  0  0  0  0  0  0
    3.9358   -3.1632   -1.4941 C   0  0  0  0  0  0  0  0  0  0  0  0
   -3.8494    1.7181    1.3170 C   0  0  0  0  0  0  0  0  0  0  0  0
   -2.6083    2.6011   -0.7531 C   0  0  0  0  0  0  0  0  0  0  0  0
    0.2311   -2.3981    1.8874 H   0  0  0  0  0  0  0  0  0  0  0  0
    0.8433   -3.4236    0.6422 H   0  0  0  0  0  0  0  0  0  0  0  0
   -3.0330   -2.2805   -1.5223 H   0  0  0  0  0  0  0  0  0  0  0  0
   -3.9512   -3.0264   -0.2516 H   0  0  0  0  0  0  0  0  0  0  0  0
    1.3574    2.9086    0.5928 H   0  0  0  0  0  0  0  0  0  0  0  0
    2.2602    2.5049    2.1026 H   0  0  0  0  0  0  0  0  0  0  0  0
   -0.6959   -2.4275   -1.0828 H   0  0  0  0  0  0  0  0  0  0  0  0
    4.4005   -0.8404   -1.1499 H   0  0  0  0  0  0  0  0  0  0  0  0
   -4.5669   -0.8011    0.6591 H   0  0  0  0  0  0  0  0  0  0  0  0
   -2.3388   -1.0456    2.2376 H   0  0  0  0  0  0  0  0  0  0  0  0
   -1.6949   -2.6863    2.5164 H   0  0  0  0  0  0  0  0  0  0  0  0
   -3.3784   -2.4726    2.1377 H   0  0  0  0  0  0  0  0  0  0  0  0
   -3.1345    0.3433   -1.8254 H   0  0  0  0  0  0  0  0  0  0  0  0
    0.1360    1.2097    1.9327 H   0  0  0  0  0  0  0  0  0  0  0  0
   -5.8491   -1.8504   -0.8584 H   0  0  0  0  0  0  0  0  0  0  0  0
    3.9323   -2.5876   -2.4261 H   0  0  0  0  0  0  0  0  0  0  0  0
    4.8424   -2.9955   -0.9027 H   0  0  0  0  0  0  0  0  0  0  0  0
    3.9328   -4.2215   -1.7757 H   0  0  0  0  0  0  0  0  0  0  0  0
   -3.0470    1.5450    2.0411 H   0  0  0  0  0  0  0  0  0  0  0  0
   -4.2031    2.7483    1.4362 H   0  0  0  0  0  0  0  0  0  0  0  0
   -4.6943    1.0755    1.5754 H   0  0  0  0  0  0  0  0  0  0  0  0
   -1.4234    4.0693   -0.2723 H   0  0  0  0  0  0  0  0  0  0  0  0
  1 14  1  0  0  0  0
  1 20  1  0  0  0  0
  2 13  1  0  0  0  0
  2 24  1  0  0  0  0
  3 11  1  0  0  0  0
  3 40  1  0  0  0  0
  4 19  1  0  0  0  0
  4 41  1  0  0  0  0
  5 20  2  0  0  0  0
  6 26  1  0  0  0  0
  6 48  1  0  0  0  0
  7 26  2  0  0  0  0
  8 10  1  0  0  0  0
  8 11  1  0  0  0  0
  8 13  2  0  0  0  0
  9 11  2  0  0  0  0
  9 12  1  0  0  0  0
  9 14  1  0  0  0  0
 10 17  1  0  0  0  0
 10 27  1  0  0  0  0
 10 28  1  0  0  0  0
 12 18  2  0  0  0  0
 12 20  1  0  0  0  0
 13 18  1  0  0  0  0
 14 31  1  0  0  0  0
 14 32  1  0  0  0  0
 15 16  1  0  0  0  0
 15 19  1  0  0  0  0
 15 29  1  0  0  0  0
 15 30  1  0  0  0  0
 16 17  2  0  0  0  0
 16 21  1  0  0  0  0
 17 33  1  0  0  0  0
 18 34  1  0  0  0  0
 19 22  1  0  0  0  0
 19 35  1  0  0  0  0
 21 36  1  0  0  0  0
 21 37  1  0  0  0  0
 21 38  1  0  0  0  0
 22 23  2  0  0  0  0
 22 39  1  0  0  0  0
 23 25  1  0  0  0  0
 23 26  1  0  0  0  0
 24 42  1  0  0  0  0
 24 43  1  0  0  0  0
 24 44  1  0  0  0  0
 25 45  1  0  0  0  0
 25 46  1  0  0  0  0
 25 47  1  0  0  0  0
M  END
> <PUBCHEM_COMPOUND_CID>
139591310

> <PUBCHEM_CONFORMER_RMSD>
0.8

> <PUBCHEM_CONFORMER_DIVERSEORDER>
1
35
76
199
166
279
219
175
89
339
60
278
286
325
258
52
321
178
297
157
195
140
135
221
269
24
65
119
319
274
246
204
349
346
345
122
230
342
149
213
57
241
288
95
191
218
45
273
281
153
340
36
344
263
272
233
102
162
307
126
80
78
109
231
134
10
172
8
145
167
238
54
309
264
284
113
18
232
5
200
22
283
353
296
112
228
125
256
282
198
55
226
161
44
254
315
358
290
47
106
129
318
355
164
236
244
77
156
184
343
335
31
249
329
242
235
27
82
227
9
337
72
116
99
267
4
53
159
324
266
276
152
32
138
21
287
74
187
354
7
43
348
143
201
352
158
79
185
142
359
312
123
182
197
351
268
171
70
328
294
271
320
229
336
151
117
225
313
234
259
314
311
163
212
81
302
310
39
62
327
103
101
330
29
59
16
341
25
133
15
42
301
38
206
110
203
265
121
98
350
270
115
30
176
180
63
306
91
136
73
326
170
289
303
215
92
139
41
189
90
299
2
93
97
356
298
160
48
181
23
66
217
207
210
88
124
179
107
245
100
64
12
280
285
87
243
37
169
85
114
308
141
131
111
118
155
196
17
154
202
67
120
334
205
165
277
250
50
186
332
211
209
220
132
331
317
26
237
104
46
174
144
13
6
14
128
222
61
3
177
150
51
333
105
168
305
33
83
40
322
262
316
34
148
190
193
75
20
251
96
146
224
357
275
257
188
108
323
253
261
192
347
291
293
304
86
300
248
147
84
19
239
71
28
137
338
214
68
216
173
260
58
252
240
69
208
183
255
295
94
11
223
247
56
130
194
292
127
49

> <PUBCHEM_MMFF94_PARTIAL_CHARGES>
32
1 -0.43
10 0.28
11 0.08
12 0.09
13 0.08
14 0.42
15 0.14
16 -0.28
17 -0.29
18 -0.15
19 0.42
2 -0.36
20 0.63
21 0.14
22 -0.29
23 -0.12
24 0.28
25 0.14
26 0.71
3 -0.53
33 0.15
34 0.15
39 0.15
4 -0.68
40 0.45
41 0.4
48 0.5
5 -0.57
6 -0.65
7 -0.57
8 -0.14
9 -0.14

> <PUBCHEM_EFFECTIVE_ROTOR_COUNT>
7.4

> <PUBCHEM_PHARMACOPHORE_FEATURES>
12
1 2 acceptor
1 21 hydrophobe
1 25 hydrophobe
1 3 donor
1 4 acceptor
1 4 donor
1 5 acceptor
1 6 acceptor
1 7 acceptor
3 6 7 26 anion
5 1 9 12 14 20 rings
6 8 9 11 12 13 18 rings

> <PUBCHEM_HEAVY_ATOM_COUNT>
26

> <PUBCHEM_ATOM_DEF_STEREO_COUNT>
1

> <PUBCHEM_ATOM_UDEF_STEREO_COUNT>
0

> <PUBCHEM_BOND_DEF_STEREO_COUNT>
2

> <PUBCHEM_BOND_UDEF_STEREO_COUNT>
0

> <PUBCHEM_ISOTOPIC_ATOM_COUNT>
0

> <PUBCHEM_COMPONENT_COUNT>
1

> <PUBCHEM_CACTVS_TAUTO_COUNT>
-1

> <PUBCHEM_CONFORMER_ID>
0851FE8E00000001

> <PUBCHEM_MMFF94_ENERGY>
66.0695

> <PUBCHEM_FEATURE_SELFOVERLAP>
61.045

> <PUBCHEM_SHAPE_FINGERPRINT>
10498660 4 18261660571862058511
10670039 82 18189064242965149852
13122387 1 18193268607562108069
13402501 40 18266170828377735289
14251751 93 18193834847639482023
14251757 17 18341614754999318074
14363568 33 17180549481440708345
14466204 15 18192138314109853258
15163728 17 17898313807805781902
17492 54 18042946835920174941
19311894 1 17622164564319129079
20465049 17 17977952280877043673
21864079 5 18189047608334869459
221357 26 18342174428040522191
23114952 82 18342459248543535570
23536364 44 18057068885784086100
23557571 272 17824550896412951571
23559900 14 18129379311625287354
23566358 2 18343026566794870374
238 59 18127946729013729975
4280585 95 17981610360621911702
460360 51 18261967262639458050
46194498 28 18272091569486451039
469060 322 17824560779553965843
5281201 14 18342740684739018239
5895379 119 18268981008394416202
6287921 2 18334585654261673092
9709674 26 18411700971780361479

> <PUBCHEM_SHAPE_MULTIPOLES>
493.98
9.78
4.4
1.42
0.87
0.62
-0.11
1.75
3.3
-0.73
0.65
0.63
-0.04
1.42

> <PUBCHEM_SHAPE_SELFOVERLAP>
1039.983

> <PUBCHEM_SHAPE_VOLUME>
279.3

> <PUBCHEM_COORDINATE_TYPE>
2
5
10

$$$$
