139585938
  -OEChem-03292013293D

 51 52  0     1  0  0  0  0  0999 V2000
   -4.7946   -0.4731   -0.7780 S   0  0  0  0  0  0  0  0  0  0  0  0
    2.5978   -0.6171   -1.7328 O   0  0  0  0  0  0  0  0  0  0  0  0
    2.8806    1.9988    0.8433 O   0  0  0  0  0  0  0  0  0  0  0  0
   -1.6458   -0.3074    2.2695 O   0  0  0  0  0  0  0  0  0  0  0  0
   -3.7165    0.0457    0.3344 O   0  0  0  0  0  0  0  0  0  0  0  0
   -6.2371   -0.2309   -0.0557 O   0  0  0  0  0  0  0  0  0  0  0  0
   -4.7175    0.4279   -1.9129 O   0  0  0  0  0  0  0  0  0  0  0  0
   -4.6254   -1.9016   -0.9688 O   0  0  0  0  0  0  0  0  0  0  0  0
    2.8852   -0.0805   -0.4355 C   0  0  2  0  0  0  0  0  0  0  0  0
    1.9941   -0.7785    0.6111 C   0  0  2  0  0  0  0  0  0  0  0  0
    2.5479   -2.2250    0.6863 C   0  0  2  0  0  0  0  0  0  0  0  0
    2.7473    1.4666   -0.4755 C   0  0  1  0  0  0  0  0  0  0  0  0
    0.4850   -0.6527    0.3894 C   0  0  0  0  0  0  0  0  0  0  0  0
    4.2646   -0.6067   -0.0052 C   0  0  0  0  0  0  0  0  0  0  0  0
   -0.0389    0.7262    0.8222 C   0  0  1  0  0  0  0  0  0  0  0  0
    4.0306   -2.0920    0.2886 C   0  0  0  0  0  0  0  0  0  0  0  0
    1.3932    1.9039   -1.0803 C   0  0  0  0  0  0  0  0  0  0  0  0
    0.1392    1.8526   -0.2047 C   0  0  0  0  0  0  0  0  0  0  0  0
   -1.5256    0.6256    1.1950 C   0  0  1  0  0  0  0  0  0  0  0  0
    1.8322   -3.2695   -0.1686 C   0  0  0  0  0  0  0  0  0  0  0  0
    3.8712    2.0993   -1.3214 C   0  0  0  0  0  0  0  0  0  0  0  0
   -2.3349    0.1139   -0.0005 C   0  0  0  0  0  0  0  0  0  0  0  0
   -2.0325    1.9744    1.7003 C   0  0  0  0  0  0  0  0  0  0  0  0
    2.2187   -0.3419    1.5966 H   0  0  0  0  0  0  0  0  0  0  0  0
    2.4875   -2.5659    1.7282 H   0  0  0  0  0  0  0  0  0  0  0  0
    0.2299   -0.8573   -0.6568 H   0  0  0  0  0  0  0  0  0  0  0  0
    0.0087   -1.4347    0.9909 H   0  0  0  0  0  0  0  0  0  0  0  0
    4.6176   -0.1013    0.9016 H   0  0  0  0  0  0  0  0  0  0  0  0
    5.0277   -0.4978   -0.7827 H   0  0  0  0  0  0  0  0  0  0  0  0
    0.5022    1.0094    1.7362 H   0  0  0  0  0  0  0  0  0  0  0  0
    4.2611   -2.6895   -0.6014 H   0  0  0  0  0  0  0  0  0  0  0  0
    4.6928   -2.4365    1.0902 H   0  0  0  0  0  0  0  0  0  0  0  0
    1.1989    1.3453   -2.0046 H   0  0  0  0  0  0  0  0  0  0  0  0
    1.4783    2.9508   -1.4066 H   0  0  0  0  0  0  0  0  0  0  0  0
    0.1296    2.7973    0.3586 H   0  0  0  0  0  0  0  0  0  0  0  0
   -0.7012    1.9419   -0.8965 H   0  0  0  0  0  0  0  0  0  0  0  0
    1.8021   -2.9894   -1.2253 H   0  0  0  0  0  0  0  0  0  0  0  0
    0.8035   -3.4235    0.1708 H   0  0  0  0  0  0  0  0  0  0  0  0
    2.3439   -4.2356   -0.0954 H   0  0  0  0  0  0  0  0  0  0  0  0
    4.8582    1.8862   -0.8975 H   0  0  0  0  0  0  0  0  0  0  0  0
    3.7859    3.1928   -1.3248 H   0  0  0  0  0  0  0  0  0  0  0  0
    3.8510    1.7565   -2.3602 H   0  0  0  0  0  0  0  0  0  0  0  0
    3.3151   -0.3597   -2.3354 H   0  0  0  0  0  0  0  0  0  0  0  0
    2.7506    2.9613    0.7941 H   0  0  0  0  0  0  0  0  0  0  0  0
   -2.2469    0.7433   -0.8871 H   0  0  0  0  0  0  0  0  0  0  0  0
   -2.0338   -0.9039   -0.2693 H   0  0  0  0  0  0  0  0  0  0  0  0
   -3.0204    1.8689    2.1647 H   0  0  0  0  0  0  0  0  0  0  0  0
   -2.1257    2.7215    0.9063 H   0  0  0  0  0  0  0  0  0  0  0  0
   -1.3784    2.3734    2.4844 H   0  0  0  0  0  0  0  0  0  0  0  0
   -2.5924   -0.4209    2.4615 H   0  0  0  0  0  0  0  0  0  0  0  0
   -7.0246   -0.4922   -0.5884 H   0  0  0  0  0  0  0  0  0  0  0  0
  1  5  1  0  0  0  0
  1  6  1  0  0  0  0
  1  7  2  0  0  0  0
  1  8  2  0  0  0  0
  2  9  1  0  0  0  0
  2 43  1  0  0  0  0
  3 12  1  0  0  0  0
  3 44  1  0  0  0  0
  4 19  1  0  0  0  0
  4 50  1  0  0  0  0
  5 22  1  0  0  0  0
  6 51  1  0  0  0  0
  9 10  1  0  0  0  0
  9 12  1  0  0  0  0
  9 14  1  0  0  0  0
 10 11  1  0  0  0  0
 10 13  1  0  0  0  0
 10 24  1  0  0  0  0
 11 16  1  0  0  0  0
 11 20  1  0  0  0  0
 11 25  1  0  0  0  0
 12 17  1  0  0  0  0
 12 21  1  0  0  0  0
 13 15  1  0  0  0  0
 13 26  1  0  0  0  0
 13 27  1  0  0  0  0
 14 16  1  0  0  0  0
 14 28  1  0  0  0  0
 14 29  1  0  0  0  0
 15 18  1  0  0  0  0
 15 19  1  0  0  0  0
 15 30  1  0  0  0  0
 16 31  1  0  0  0  0
 16 32  1  0  0  0  0
 17 18  1  0  0  0  0
 17 33  1  0  0  0  0
 17 34  1  0  0  0  0
 18 35  1  0  0  0  0
 18 36  1  0  0  0  0
 19 22  1  0  0  0  0
 19 23  1  0  0  0  0
 20 37  1  0  0  0  0
 20 38  1  0  0  0  0
 20 39  1  0  0  0  0
 21 40  1  0  0  0  0
 21 41  1  0  0  0  0
 21 42  1  0  0  0  0
 22 45  1  0  0  0  0
 22 46  1  0  0  0  0
 23 47  1  0  0  0  0
 23 48  1  0  0  0  0
 23 49  1  0  0  0  0
M  END
> <PUBCHEM_COMPOUND_CID>
139585938

> <PUBCHEM_CONFORMER_RMSD>
0.8

> <PUBCHEM_CONFORMER_DIVERSEORDER>
2
81
29
23
148
24
41
155
37
145
112
80
92
36
144
101
116
115
71
88
19
109
137
133
108
126
134
89
77
99
96
91
28
150
5
72
121
125
66
67
100
106
87
10
1
120
83
111
132
147
130
136
8
70
86
95
38
26
25
93
124
135
98
104
40
141
64
105
9
123
22
114
82
63
39
152
31
74
17
21
59
18
153
73
4
138
30
16
97
113
149
151
47
131
85
146
20
139
27
79
76
102
51
56
6
34
46
118
49
35
45
53
119
84
69
15
60
140
142
78
62
122
54
43
94
75
33
44
48
52
129
103
3
128
107
57
143
32
117
58
154
65
7
110
127
42
55
14
13
61
11
90
12
50
68

> <PUBCHEM_MMFF94_PARTIAL_CHARGES>
16
1 1.67
12 0.28
19 0.28
2 -0.68
22 0.28
3 -0.68
4 -0.68
43 0.4
44 0.4
5 -0.46
50 0.4
51 0.5
6 -0.68
7 -0.65
8 -0.65
9 0.28

> <PUBCHEM_EFFECTIVE_ROTOR_COUNT>
5.6

> <PUBCHEM_PHARMACOPHORE_FEATURES>
12
1 2 acceptor
1 2 donor
1 3 acceptor
1 3 donor
1 4 acceptor
1 4 donor
1 6 acceptor
1 7 acceptor
1 8 acceptor
4 1 6 7 8 anion
5 9 10 11 14 16 rings
7 9 10 12 13 15 17 18 rings

> <PUBCHEM_HEAVY_ATOM_COUNT>
23

> <PUBCHEM_ATOM_DEF_STEREO_COUNT>
4

> <PUBCHEM_ATOM_UDEF_STEREO_COUNT>
2

> <PUBCHEM_BOND_DEF_STEREO_COUNT>
0

> <PUBCHEM_BOND_UDEF_STEREO_COUNT>
0

> <PUBCHEM_ISOTOPIC_ATOM_COUNT>
0

> <PUBCHEM_COMPONENT_COUNT>
1

> <PUBCHEM_CACTVS_TAUTO_COUNT>
-1

> <PUBCHEM_CONFORMER_ID>
0851E99200000002

> <PUBCHEM_MMFF94_ENERGY>
83.8904

> <PUBCHEM_FEATURE_SELFOVERLAP>
60.973

> <PUBCHEM_SHAPE_FINGERPRINT>
10042902 136 17770510729248062158
11118852 30 17846215531623787838
11135609 201 8283901482170906726
11796584 16 17775003509957529303
12035759 4 18342746242468617895
12236239 1 18202005404312943185
12553582 1 18044960994797759818
12616971 3 18341906155808746601
12670546 177 18114176458678741615
12788726 201 17846511313779762921
13083527 12 18336253549556098672
13140716 1 18189919628814922634
13257819 101 16588861433774535812
13533116 47 18413109463697978457
13911987 19 17900280867930489676
14251757 17 17751339713087726509
14252887 29 13614522960917164434
14508693 111 15981682516940054319
14576447 43 18413388752103740638
14955137 171 9367084267242394732
15183329 4 18339634548297137997
15537594 2 18130229384490037767
15842332 3 18128555785283071784
16752209 62 17489870410610815631
16945 1 18116738243667568856
17134984 74 18197202858193911199
17138139 8 17842265158259964119
17349148 13 18334857195010040035
17357779 13 17676774158432738940
17492 54 18114481002199092918
17818456 19 17769948878568716401
1813 80 16487253305267957441
18186145 218 17095526154340727601
18222031 100 18337670798744071442
200 152 18341894065343932809
20028762 73 18272650117757952086
20600515 1 16199856371661851843
20645477 70 18260270745782197562
21069387 34 18336270063251781425
21285901 2 17530959181309953165
221357 26 17968086505033497701
2255824 54 18336564758649642412
235170 7 17967801782903190791
23557571 272 15841559517834442985
23559900 14 18114185250276050954
23598291 2 18200047143902108732
23622692 118 18271244915641793344
238 59 18261682544619384802
25147074 1 18270977747027358665
2748010 2 17901136258380671336
3004659 81 18411411796307110179
3060560 45 18408045126247046110
312423 11 18272101456458266297
3286 77 18131063810451279752
439807 62 18266733757685093239
46194498 28 17821726169852781639
463206 1 18341889744823532867
495365 180 18334010635776794632
5161694 15 16950570956260335587
5281201 14 17894345562756049933
59682541 52 18189877783080654127
602551 16 15841543102558952559
7164475 11 18340485548152507785
7471813 234 18342452600150296488
7615 1 18271816661435166209

> <PUBCHEM_SHAPE_MULTIPOLES>
436.09
10.1
2.76
1.53
14.07
0.85
0.14
2.65
-3.58
-2.88
-0.18
0.93
-0.41
-1.33

> <PUBCHEM_SHAPE_SELFOVERLAP>
882.911

> <PUBCHEM_SHAPE_VOLUME>
258.2

> <PUBCHEM_COORDINATE_TYPE>
2
5
10

$$$$
