139591311
  -OEChem-03292013293D

 51 52  0     1  0  0  0  0  0999 V2000
    3.6895    2.7747    0.3686 O   0  0  0  0  0  0  0  0  0  0  0  0
   -5.1845   -0.9967   -1.0536 O   0  0  0  0  0  0  0  0  0  0  0  0
    2.9606   -2.9468   -0.7457 O   0  0  0  0  0  0  0  0  0  0  0  0
    0.3851    0.2731    1.7254 O   0  0  0  0  0  0  0  0  0  0  0  0
    5.3683    1.8436   -0.9232 O   0  0  0  0  0  0  0  0  0  0  0  0
   -1.6506    3.3589    0.1981 O   0  0  0  0  0  0  0  0  0  0  0  0
   -2.3769    2.8550   -1.8938 O   0  0  0  0  0  0  0  0  0  0  0  0
    1.6564   -1.3535    0.4953 C   0  0  0  0  0  0  0  0  0  0  0  0
    2.4102    0.9063    0.6477 C   0  0  0  0  0  0  0  0  0  0  0  0
    0.6467   -2.4236    0.8275 C   0  0  0  0  0  0  0  0  0  0  0  0
    1.4660   -0.0515    0.9686 C   0  0  0  0  0  0  0  0  0  0  0  0
   -3.1193   -2.1119   -0.3958 C   0  0  0  0  0  0  0  0  0  0  0  0
    3.5084    0.5765   -0.1203 C   0  0  0  0  0  0  0  0  0  0  0  0
   -1.8837   -2.1618    0.4863 C   0  0  0  0  0  0  0  0  0  0  0  0
    2.7794   -1.6757   -0.2859 C   0  0  0  0  0  0  0  0  0  0  0  0
   -3.9918   -0.8448   -0.2831 C   0  0  1  0  0  0  0  0  0  0  0  0
   -0.6248   -2.3240    0.0317 C   0  0  0  0  0  0  0  0  0  0  0  0
    2.4633    2.3350    1.0057 C   0  0  0  0  0  0  0  0  0  0  0  0
    3.7257   -0.7006   -0.6033 C   0  0  0  0  0  0  0  0  0  0  0  0
    4.3278    1.7641   -0.3013 C   0  0  0  0  0  0  0  0  0  0  0  0
   -2.1237   -2.0594    1.9714 C   0  0  0  0  0  0  0  0  0  0  0  0
   -3.2999    0.4148   -0.7330 C   0  0  0  0  0  0  0  0  0  0  0  0
   -3.0957    1.5293   -0.0058 C   0  0  0  0  0  0  0  0  0  0  0  0
   -6.2283   -0.1759   -0.5541 C   0  0  0  0  0  0  0  0  0  0  0  0
    4.1253   -3.1901   -1.5309 C   0  0  0  0  0  0  0  0  0  0  0  0
   -3.5742    1.7576    1.3974 C   0  0  0  0  0  0  0  0  0  0  0  0
   -2.3597    2.6275   -0.6938 C   0  0  0  0  0  0  0  0  0  0  0  0
    0.4825   -2.3906    1.9086 H   0  0  0  0  0  0  0  0  0  0  0  0
    1.0657   -3.4225    0.6551 H   0  0  0  0  0  0  0  0  0  0  0  0
   -2.8356   -2.2517   -1.4482 H   0  0  0  0  0  0  0  0  0  0  0  0
   -3.7427   -2.9860   -0.1623 H   0  0  0  0  0  0  0  0  0  0  0  0
   -4.2790   -0.7787    0.7717 H   0  0  0  0  0  0  0  0  0  0  0  0
   -0.4932   -2.4166   -1.0462 H   0  0  0  0  0  0  0  0  0  0  0  0
    1.6296    2.9053    0.5875 H   0  0  0  0  0  0  0  0  0  0  0  0
    2.5533    2.4966    2.0832 H   0  0  0  0  0  0  0  0  0  0  0  0
    4.6141   -0.8706   -1.1980 H   0  0  0  0  0  0  0  0  0  0  0  0
   -2.0800   -1.0158    2.2965 H   0  0  0  0  0  0  0  0  0  0  0  0
   -1.4309   -2.6548    2.5704 H   0  0  0  0  0  0  0  0  0  0  0  0
   -3.1200   -2.4444    2.2183 H   0  0  0  0  0  0  0  0  0  0  0  0
   -2.9215    0.3726   -1.7540 H   0  0  0  0  0  0  0  0  0  0  0  0
    0.4163    1.2182    1.9495 H   0  0  0  0  0  0  0  0  0  0  0  0
   -7.1230   -0.3670   -1.1538 H   0  0  0  0  0  0  0  0  0  0  0  0
   -5.9854    0.8864   -0.6461 H   0  0  0  0  0  0  0  0  0  0  0  0
   -6.4608   -0.4251    0.4862 H   0  0  0  0  0  0  0  0  0  0  0  0
    5.0427   -3.0288   -0.9545 H   0  0  0  0  0  0  0  0  0  0  0  0
    4.1114   -2.6159   -2.4636 H   0  0  0  0  0  0  0  0  0  0  0  0
    4.1094   -4.2487   -1.8107 H   0  0  0  0  0  0  0  0  0  0  0  0
   -2.7533    1.6092    2.1061 H   0  0  0  0  0  0  0  0  0  0  0  0
   -3.9451    2.7824    1.5110 H   0  0  0  0  0  0  0  0  0  0  0  0
   -4.3991    1.1018    1.6845 H   0  0  0  0  0  0  0  0  0  0  0  0
   -1.1555    4.0869   -0.2346 H   0  0  0  0  0  0  0  0  0  0  0  0
  1 18  1  0  0  0  0
  1 20  1  0  0  0  0
  2 16  1  0  0  0  0
  2 24  1  0  0  0  0
  3 15  1  0  0  0  0
  3 25  1  0  0  0  0
  4 11  1  0  0  0  0
  4 41  1  0  0  0  0
  5 20  2  0  0  0  0
  6 27  1  0  0  0  0
  6 51  1  0  0  0  0
  7 27  2  0  0  0  0
  8 10  1  0  0  0  0
  8 11  1  0  0  0  0
  8 15  2  0  0  0  0
  9 11  2  0  0  0  0
  9 13  1  0  0  0  0
  9 18  1  0  0  0  0
 10 17  1  0  0  0  0
 10 28  1  0  0  0  0
 10 29  1  0  0  0  0
 12 14  1  0  0  0  0
 12 16  1  0  0  0  0
 12 30  1  0  0  0  0
 12 31  1  0  0  0  0
 13 19  2  0  0  0  0
 13 20  1  0  0  0  0
 14 17  2  0  0  0  0
 14 21  1  0  0  0  0
 15 19  1  0  0  0  0
 16 22  1  0  0  0  0
 16 32  1  0  0  0  0
 17 33  1  0  0  0  0
 18 34  1  0  0  0  0
 18 35  1  0  0  0  0
 19 36  1  0  0  0  0
 21 37  1  0  0  0  0
 21 38  1  0  0  0  0
 21 39  1  0  0  0  0
 22 23  2  0  0  0  0
 22 40  1  0  0  0  0
 23 26  1  0  0  0  0
 23 27  1  0  0  0  0
 24 42  1  0  0  0  0
 24 43  1  0  0  0  0
 24 44  1  0  0  0  0
 25 45  1  0  0  0  0
 25 46  1  0  0  0  0
 25 47  1  0  0  0  0
 26 48  1  0  0  0  0
 26 49  1  0  0  0  0
 26 50  1  0  0  0  0
M  END
> <PUBCHEM_COMPOUND_CID>
139591311

> <PUBCHEM_CONFORMER_RMSD>
1

> <PUBCHEM_CONFORMER_DIVERSEORDER>
1
4
66
82
32
22
70
7
31
33
87
52
40
112
105
104
12
116
25
98
94
28
18
92
96
34
95
46
59
6
100
115
97
21
47
58
88
36
62
41
50
102
29
73
99
13
114
124
8
39
9
48
57
75
84
23
118
56
65
125
127
64
24
3
17
2
72
42
117
68
15
126
93
27
111
119
108
35
20
123
86
120
78
106
45
5
11
113
44
91
55
69
53
89
85
81
38
16
26
54
80
14
63
77
51
43
74
121
109
107
60
110
103
67
37
19
61
90
101
122
83
71
79
30
76
10
49

> <PUBCHEM_MMFF94_PARTIAL_CHARGES>
32
1 -0.43
10 0.28
11 0.08
12 0.14
13 0.09
14 -0.28
15 0.08
16 0.42
17 -0.29
18 0.42
19 -0.15
2 -0.56
20 0.63
21 0.14
22 -0.29
23 -0.12
24 0.28
25 0.28
26 0.14
27 0.71
3 -0.36
33 0.15
36 0.15
4 -0.53
40 0.15
41 0.45
5 -0.57
51 0.5
6 -0.65
7 -0.57
8 -0.14
9 -0.14

> <PUBCHEM_EFFECTIVE_ROTOR_COUNT>
8.4

> <PUBCHEM_PHARMACOPHORE_FEATURES>
11
1 2 acceptor
1 21 hydrophobe
1 26 hydrophobe
1 3 acceptor
1 4 donor
1 5 acceptor
1 6 acceptor
1 7 acceptor
3 6 7 27 anion
5 1 9 13 18 20 rings
6 8 9 11 13 15 19 rings

> <PUBCHEM_HEAVY_ATOM_COUNT>
27

> <PUBCHEM_ATOM_DEF_STEREO_COUNT>
1

> <PUBCHEM_ATOM_UDEF_STEREO_COUNT>
0

> <PUBCHEM_BOND_DEF_STEREO_COUNT>
2

> <PUBCHEM_BOND_UDEF_STEREO_COUNT>
0

> <PUBCHEM_ISOTOPIC_ATOM_COUNT>
0

> <PUBCHEM_COMPONENT_COUNT>
1

> <PUBCHEM_CACTVS_TAUTO_COUNT>
-1

> <PUBCHEM_CONFORMER_ID>
0851FE8F00000001

> <PUBCHEM_MMFF94_ENERGY>
73.1537

> <PUBCHEM_FEATURE_SELFOVERLAP>
55.971

> <PUBCHEM_SHAPE_FINGERPRINT>
10498660 4 18261945345289314787
10670039 82 18261403294847340004
12788726 201 18335410284178018129
13122387 1 18192987128137468825
13402501 40 18265891535165283233
14251751 93 18194397793208265255
14251757 17 18269838623127116834
14363568 33 17180550576504420529
14466204 15 18192138309904556770
14840074 17 18113903784301316053
14931854 50 18413388743672458341
15840311 113 18341338800168782929
17492 54 18043229406081865027
19311894 1 17549545106785674655
20465049 17 17977671905290661041
221357 26 18342175518798672055
23114952 82 18342460343897339634
23536364 44 18057351456061846772
23557571 272 17896891060538723163
23559900 14 18341045336687914576
23566358 2 18342743983800967390
46194498 28 18271811185368104046
469060 322 17824561883239241659
508706 21 18187370882740014138
5281201 14 18343022146936263550
5895379 119 18269263574398347602
59755656 215 18411702123042405316
6287921 2 18334586749657675124
9709674 26 18411702066960079178

> <PUBCHEM_SHAPE_MULTIPOLES>
514.56
11.01
4.25
1.41
3.64
0.65
-0.19
1.55
3.95
-1.6
0.57
0.38
-0.09
1.31

> <PUBCHEM_SHAPE_SELFOVERLAP>
1078.617

> <PUBCHEM_SHAPE_VOLUME>
292.8

> <PUBCHEM_COORDINATE_TYPE>
2
5
10

$$$$
