139589503
  -OEChem-03292013293D

 68 69  0     1  0  0  0  0  0999 V2000
   -2.0325    2.6186   -0.9187 O   0  0  0  0  0  0  0  0  0  0  0  0
    2.0408    2.1235   -0.2535 O   0  0  0  0  0  0  0  0  0  0  0  0
   -4.9589    2.3363    2.0471 O   0  0  0  0  0  0  0  0  0  0  0  0
   -1.6384    2.9088   -3.1201 O   0  0  0  0  0  0  0  0  0  0  0  0
   -0.9136   -5.4958   -1.2154 O   0  0  0  0  0  0  0  0  0  0  0  0
    4.1926   -0.6829    1.9063 O   0  0  0  0  0  0  0  0  0  0  0  0
    6.7836   -0.9578    1.3397 O   0  0  0  0  0  0  0  0  0  0  0  0
    3.7815    0.6192    0.0281 N   0  0  0  0  0  0  0  0  0  0  0  0
   -1.5570    2.1725    0.3773 C   0  0  1  0  0  0  0  0  0  0  0  0
   -0.1882    2.8162    0.6451 C   0  0  2  0  0  0  0  0  0  0  0  0
   -2.6541    2.5357    1.3946 C   0  0  0  0  0  0  0  0  0  0  0  0
    0.7023    2.3724   -0.5005 C   0  0  0  0  0  0  0  0  0  0  0  0
    0.3317    2.5292    2.0527 C   0  0  0  0  0  0  0  0  0  0  0  0
   -3.9985    1.8314    1.1195 C   0  0  1  0  0  0  0  0  0  0  0  0
    0.2224    2.3517   -1.7598 C   0  0  0  0  0  0  0  0  0  0  0  0
   -1.2122    2.6528   -1.9986 C   0  0  0  0  0  0  0  0  0  0  0  0
    2.3705    0.8148    0.2521 C   0  0  2  0  0  0  0  0  0  0  0  0
    1.0463    2.0793   -2.9850 C   0  0  0  0  0  0  0  0  0  0  0  0
   -3.8807    0.3428    1.3090 C   0  0  0  0  0  0  0  0  0  0  0  0
    1.6508   -0.3280   -0.4226 C   0  0  0  0  0  0  0  0  0  0  0  0
   -3.8668   -0.5326    0.2900 C   0  0  0  0  0  0  0  0  0  0  0  0
   -3.5858   -1.9649    0.3900 C   0  0  0  0  0  0  0  0  0  0  0  0
    0.9805   -1.3481    0.1553 C   0  0  0  0  0  0  0  0  0  0  0  0
    4.5826   -0.1221    0.8844 C   0  0  0  0  0  0  0  0  0  0  0  0
   -2.8325   -4.0678   -0.8688 C   0  0  0  0  0  0  0  0  0  0  0  0
   -3.3201   -2.6482   -0.7438 C   0  0  0  0  0  0  0  0  0  0  0  0
   -1.3430   -4.1367   -1.2594 C   0  0  1  0  0  0  0  0  0  0  0  0
    0.2342   -2.2687   -0.7050 C   0  0  0  0  0  0  0  0  0  0  0  0
    6.0280   -0.1965    0.4123 C   0  0  2  0  0  0  0  0  0  0  0  0
   -3.5277   -2.5676    1.7700 C   0  0  0  0  0  0  0  0  0  0  0  0
   -0.4719   -3.3445   -0.3175 C   0  0  0  0  0  0  0  0  0  0  0  0
    0.9078   -1.5730    1.6423 C   0  0  0  0  0  0  0  0  0  0  0  0
    6.1264   -0.8700   -0.9471 C   0  0  0  0  0  0  0  0  0  0  0  0
   -1.4495    1.0812    0.3335 H   0  0  0  0  0  0  0  0  0  0  0  0
   -0.2797    3.9085    0.5557 H   0  0  0  0  0  0  0  0  0  0  0  0
   -2.8218    3.6208    1.3745 H   0  0  0  0  0  0  0  0  0  0  0  0
   -2.3361    2.2961    2.4162 H   0  0  0  0  0  0  0  0  0  0  0  0
    1.3643    2.8715    2.1773 H   0  0  0  0  0  0  0  0  0  0  0  0
   -0.2618    3.0648    2.8012 H   0  0  0  0  0  0  0  0  0  0  0  0
    0.2792    1.4633    2.2940 H   0  0  0  0  0  0  0  0  0  0  0  0
   -4.3632    2.0724    0.1146 H   0  0  0  0  0  0  0  0  0  0  0  0
    2.2153    0.8279    1.3302 H   0  0  0  0  0  0  0  0  0  0  0  0
   -3.7238    0.0078    2.3310 H   0  0  0  0  0  0  0  0  0  0  0  0
    0.6695    1.1926   -3.5055 H   0  0  0  0  0  0  0  0  0  0  0  0
    2.1022    1.9066   -2.7558 H   0  0  0  0  0  0  0  0  0  0  0  0
    1.0014    2.9303   -3.6728 H   0  0  0  0  0  0  0  0  0  0  0  0
   -5.0464    3.2918    1.8884 H   0  0  0  0  0  0  0  0  0  0  0  0
    1.6672   -0.2828   -1.5115 H   0  0  0  0  0  0  0  0  0  0  0  0
   -3.9853   -0.1370   -0.7178 H   0  0  0  0  0  0  0  0  0  0  0  0
    4.1899    1.0604   -0.7898 H   0  0  0  0  0  0  0  0  0  0  0  0
   -3.0045   -4.6575    0.0367 H   0  0  0  0  0  0  0  0  0  0  0  0
   -3.4278   -4.5749   -1.6392 H   0  0  0  0  0  0  0  0  0  0  0  0
   -3.3744   -2.1224   -1.6975 H   0  0  0  0  0  0  0  0  0  0  0  0
   -1.2163   -3.7866   -2.2913 H   0  0  0  0  0  0  0  0  0  0  0  0
    0.2131   -2.0104   -1.7633 H   0  0  0  0  0  0  0  0  0  0  0  0
    6.4386    0.8185    0.3790 H   0  0  0  0  0  0  0  0  0  0  0  0
   -0.4949   -3.6491    0.7255 H   0  0  0  0  0  0  0  0  0  0  0  0
   -2.6870   -2.1536    2.3372 H   0  0  0  0  0  0  0  0  0  0  0  0
   -3.4090   -3.6526    1.7701 H   0  0  0  0  0  0  0  0  0  0  0  0
   -4.4554   -2.3626    2.3165 H   0  0  0  0  0  0  0  0  0  0  0  0
    1.3022   -2.5623    1.8996 H   0  0  0  0  0  0  0  0  0  0  0  0
   -0.1293   -1.5069    1.9893 H   0  0  0  0  0  0  0  0  0  0  0  0
    1.4810   -0.8532    2.2281 H   0  0  0  0  0  0  0  0  0  0  0  0
    5.6636   -1.8634   -0.9243 H   0  0  0  0  0  0  0  0  0  0  0  0
    7.1749   -1.0162   -1.2290 H   0  0  0  0  0  0  0  0  0  0  0  0
    5.6403   -0.2886   -1.7359 H   0  0  0  0  0  0  0  0  0  0  0  0
   -1.4797   -6.0014   -1.8233 H   0  0  0  0  0  0  0  0  0  0  0  0
    7.7216   -0.8655    1.1000 H   0  0  0  0  0  0  0  0  0  0  0  0
  1  9  1  0  0  0  0
  1 16  1  0  0  0  0
  2 12  1  0  0  0  0
  2 17  1  0  0  0  0
  3 14  1  0  0  0  0
  3 47  1  0  0  0  0
  4 16  2  0  0  0  0
  5 27  1  0  0  0  0
  5 67  1  0  0  0  0
  6 24  2  0  0  0  0
  7 29  1  0  0  0  0
  7 68  1  0  0  0  0
  8 17  1  0  0  0  0
  8 24  1  0  0  0  0
  8 50  1  0  0  0  0
  9 10  1  0  0  0  0
  9 11  1  0  0  0  0
  9 34  1  0  0  0  0
 10 12  1  0  0  0  0
 10 13  1  0  0  0  0
 10 35  1  0  0  0  0
 11 14  1  0  0  0  0
 11 36  1  0  0  0  0
 11 37  1  0  0  0  0
 12 15  2  0  0  0  0
 13 38  1  0  0  0  0
 13 39  1  0  0  0  0
 13 40  1  0  0  0  0
 14 19  1  0  0  0  0
 14 41  1  0  0  0  0
 15 16  1  0  0  0  0
 15 18  1  0  0  0  0
 17 20  1  0  0  0  0
 17 42  1  0  0  0  0
 18 44  1  0  0  0  0
 18 45  1  0  0  0  0
 18 46  1  0  0  0  0
 19 21  2  0  0  0  0
 19 43  1  0  0  0  0
 20 23  2  0  0  0  0
 20 48  1  0  0  0  0
 21 22  1  0  0  0  0
 21 49  1  0  0  0  0
 22 26  2  0  0  0  0
 22 30  1  0  0  0  0
 23 28  1  0  0  0  0
 23 32  1  0  0  0  0
 24 29  1  0  0  0  0
 25 26  1  0  0  0  0
 25 27  1  0  0  0  0
 25 51  1  0  0  0  0
 25 52  1  0  0  0  0
 26 53  1  0  0  0  0
 27 31  1  0  0  0  0
 27 54  1  0  0  0  0
 28 31  2  0  0  0  0
 28 55  1  0  0  0  0
 29 33  1  0  0  0  0
 29 56  1  0  0  0  0
 30 58  1  0  0  0  0
 30 59  1  0  0  0  0
 30 60  1  0  0  0  0
 31 57  1  0  0  0  0
 32 61  1  0  0  0  0
 32 62  1  0  0  0  0
 32 63  1  0  0  0  0
 33 64  1  0  0  0  0
 33 65  1  0  0  0  0
 33 66  1  0  0  0  0
M  END
> <PUBCHEM_COMPOUND_CID>
139589503

> <PUBCHEM_CONFORMER_RMSD>
0.8

> <PUBCHEM_CONFORMER_DIVERSEORDER>
2
19
16
8
6
24
7
20
22
10
5
23
13
18
4
12
27
21
11
26
29
15
1
28
3
14
25
17
9

> <PUBCHEM_MMFF94_PARTIAL_CHARGES>
40
1 -0.43
10 0.14
12 -0.06
14 0.42
15 -0.12
16 0.71
17 0.72
18 0.14
19 -0.29
2 -0.36
20 -0.29
21 -0.15
22 -0.14
23 -0.14
24 0.57
25 0.14
26 -0.29
27 0.42
28 -0.15
29 0.34
3 -0.68
30 0.14
31 -0.29
32 0.14
4 -0.57
43 0.15
47 0.4
48 0.15
49 0.15
5 -0.68
50 0.37
53 0.15
55 0.15
57 0.15
6 -0.57
67 0.4
68 0.4
7 -0.68
8 -0.73
9 0.28

> <PUBCHEM_EFFECTIVE_ROTOR_COUNT>
4.6

> <PUBCHEM_PHARMACOPHORE_FEATURES>
11
1 2 acceptor
1 3 acceptor
1 3 donor
1 4 acceptor
1 5 acceptor
1 5 donor
1 6 acceptor
1 7 acceptor
1 7 donor
1 8 donor
6 1 9 10 12 15 16 rings

> <PUBCHEM_HEAVY_ATOM_COUNT>
33

> <PUBCHEM_ATOM_DEF_STEREO_COUNT>
5

> <PUBCHEM_ATOM_UDEF_STEREO_COUNT>
1

> <PUBCHEM_BOND_DEF_STEREO_COUNT>
4

> <PUBCHEM_BOND_UDEF_STEREO_COUNT>
0

> <PUBCHEM_ISOTOPIC_ATOM_COUNT>
0

> <PUBCHEM_COMPONENT_COUNT>
1

> <PUBCHEM_CACTVS_TAUTO_COUNT>
-1

> <PUBCHEM_CONFORMER_ID>
0851F77F00000002

> <PUBCHEM_MMFF94_ENERGY>
72.9404

> <PUBCHEM_FEATURE_SELFOVERLAP>
55.834

> <PUBCHEM_SHAPE_FINGERPRINT>
10010297 198 17606110685532178610
10675989 125 15606803224935059035
10815517 723 18409730685761694534
11014199 57 17981321510553500186
11513181 2 18056493969698272422
12156800 1 18127157305439955414
12422481 6 18337400352725892632
13009979 54 18123470750326885959
13383661 66 18129078165276459911
13773456 30 17758943836473647045
14068700 675 17986658458980488719
14117953 113 18411415120970448623
14674994 50 18266719411950044589
14840074 17 18187092719183452512
14863182 85 18124341335860399001
15420108 30 18270115704410540027
15444296 8 17022913341691489701
17818456 19 18197782313247643158
20775530 9 18117271660961743331
229767 44 18412547604318610395
4409770 3 18264468655423353006
469060 322 17676482839812920228
5047190 48 18268991999321922586
5080951 261 18265872745252854842
581034 39 18341909475496855838

> <PUBCHEM_SHAPE_MULTIPOLES>
633.06
10.11
5.98
2.32
15.21
4.76
1.03
3.66
-5.02
-6.33
2.47
-0.41
-1.71
-1.7

> <PUBCHEM_SHAPE_SELFOVERLAP>
1290.78

> <PUBCHEM_SHAPE_VOLUME>
363

> <PUBCHEM_COORDINATE_TYPE>
2
5
10

$$$$
