139589826
  -OEChem-03292013293D

 38 39  0     1  0  0  0  0  0999 V2000
    2.2860   -1.2267   -2.6987 Cl  0  0  0  0  0  0  0  0  0  0  0  0
   -0.5685   -1.3251   -0.9284 O   0  0  0  0  0  0  0  0  0  0  0  0
    2.2618    0.9043    1.9561 O   0  0  0  0  0  0  0  0  0  0  0  0
   -2.8145    2.2750    1.4005 O   0  0  0  0  0  0  0  0  0  0  0  0
   -0.2039    2.0628    1.2875 O   0  0  0  0  0  0  0  0  0  0  0  0
    2.1839    2.2856   -1.3501 O   0  0  0  0  0  0  0  0  0  0  0  0
    2.3802    3.2929    0.7156 O   0  0  0  0  0  0  0  0  0  0  0  0
    2.5158   -4.1696    1.3258 O   0  0  0  0  0  0  0  0  0  0  0  0
    0.9197   -2.5760    1.6322 O   0  0  0  0  0  0  0  0  0  0  0  0
    0.8805    0.2915    0.1441 C   0  0  0  0  0  0  0  0  0  0  0  0
   -1.6344    0.4992    0.2519 C   0  0  0  0  0  0  0  0  0  0  0  0
   -1.6895   -0.6630   -0.5079 C   0  0  0  0  0  0  0  0  0  0  0  0
   -0.3200    1.0424    0.6202 C   0  0  0  0  0  0  0  0  0  0  0  0
    2.2014    0.8850    0.5458 C   0  0  1  0  0  0  0  0  0  0  0  0
    0.6784   -0.8242   -0.5865 C   0  0  0  0  0  0  0  0  0  0  0  0
   -2.8122    1.1349    0.6546 C   0  0  0  0  0  0  0  0  0  0  0  0
   -2.9241   -1.2014   -0.8729 C   0  0  0  0  0  0  0  0  0  0  0  0
   -4.1024   -0.5707   -0.4737 C   0  0  0  0  0  0  0  0  0  0  0  0
   -4.0463    0.5959    0.2891 C   0  0  0  0  0  0  0  0  0  0  0  0
    1.7304   -1.6565   -1.1159 C   0  0  0  0  0  0  0  0  0  0  0  0
    2.2747    2.2956    0.0131 C   0  0  0  0  0  0  0  0  0  0  0  0
   -5.4231   -1.1441   -0.8622 C   0  0  0  0  0  0  0  0  0  0  0  0
    2.2236   -2.6847   -0.4076 C   0  0  0  0  0  0  0  0  0  0  0  0
    2.2184    3.5703   -1.9801 C   0  0  0  0  0  0  0  0  0  0  0  0
    1.7842   -3.0935    0.9476 C   0  0  0  0  0  0  0  0  0  0  0  0
    3.0691    0.3291    0.1810 H   0  0  0  0  0  0  0  0  0  0  0  0
   -2.9628   -2.1121   -1.4659 H   0  0  0  0  0  0  0  0  0  0  0  0
   -4.9637    1.0884    0.6035 H   0  0  0  0  0  0  0  0  0  0  0  0
   -5.7677   -1.8461   -0.0964 H   0  0  0  0  0  0  0  0  0  0  0  0
   -6.1758   -0.3573   -0.9816 H   0  0  0  0  0  0  0  0  0  0  0  0
   -5.3587   -1.6728   -1.8193 H   0  0  0  0  0  0  0  0  0  0  0  0
    1.5453    1.4630    2.3016 H   0  0  0  0  0  0  0  0  0  0  0  0
   -1.9069    2.5557    1.5939 H   0  0  0  0  0  0  0  0  0  0  0  0
    3.0176   -3.2859   -0.8465 H   0  0  0  0  0  0  0  0  0  0  0  0
    2.1393    3.4211   -3.0602 H   0  0  0  0  0  0  0  0  0  0  0  0
    1.3717    4.1777   -1.6464 H   0  0  0  0  0  0  0  0  0  0  0  0
    3.1655    4.0733   -1.7631 H   0  0  0  0  0  0  0  0  0  0  0  0
    2.2673   -4.4861    2.2205 H   0  0  0  0  0  0  0  0  0  0  0  0
  1 20  1  0  0  0  0
  2 12  1  0  0  0  0
  2 15  1  0  0  0  0
  3 14  1  0  0  0  0
  3 32  1  0  0  0  0
  4 16  1  0  0  0  0
  4 33  1  0  0  0  0
  5 13  2  0  0  0  0
  6 21  1  0  0  0  0
  6 24  1  0  0  0  0
  7 21  2  0  0  0  0
  8 25  1  0  0  0  0
  8 38  1  0  0  0  0
  9 25  2  0  0  0  0
 10 13  1  0  0  0  0
 10 14  1  0  0  0  0
 10 15  2  0  0  0  0
 11 12  1  0  0  0  0
 11 13  1  0  0  0  0
 11 16  2  0  0  0  0
 12 17  2  0  0  0  0
 14 21  1  0  0  0  0
 14 26  1  0  0  0  0
 15 20  1  0  0  0  0
 16 19  1  0  0  0  0
 17 18  1  0  0  0  0
 17 27  1  0  0  0  0
 18 19  2  0  0  0  0
 18 22  1  0  0  0  0
 19 28  1  0  0  0  0
 20 23  2  0  0  0  0
 22 29  1  0  0  0  0
 22 30  1  0  0  0  0
 22 31  1  0  0  0  0
 23 25  1  0  0  0  0
 23 34  1  0  0  0  0
 24 35  1  0  0  0  0
 24 36  1  0  0  0  0
 24 37  1  0  0  0  0
M  END
> <PUBCHEM_COMPOUND_CID>
139589826

> <PUBCHEM_CONFORMER_RMSD>
0.8

> <PUBCHEM_CONFORMER_DIVERSEORDER>
1
3
20
14
5
17
18
9
11
16
6
19
12
8
10
15
13
7
4
2

> <PUBCHEM_MMFF94_PARTIAL_CHARGES>
31
1 -0.14
10 -0.12
11 0.09
12 0.08
13 0.47
14 0.48
15 0.08
16 0.08
17 -0.15
18 -0.14
19 -0.15
2 -0.16
20 0.14
21 0.66
22 0.14
23 -0.14
24 0.28
25 0.71
27 0.15
28 0.15
3 -0.68
32 0.4
33 0.45
34 0.15
38 0.5
4 -0.53
5 -0.57
6 -0.43
7 -0.57
8 -0.65
9 -0.57

> <PUBCHEM_EFFECTIVE_ROTOR_COUNT>
5

> <PUBCHEM_PHARMACOPHORE_FEATURES>
11
1 2 acceptor
1 3 acceptor
1 3 donor
1 4 donor
1 5 acceptor
1 7 acceptor
1 8 acceptor
1 9 acceptor
3 8 9 25 anion
6 11 12 16 17 18 19 rings
6 2 10 11 12 13 15 rings

> <PUBCHEM_HEAVY_ATOM_COUNT>
25

> <PUBCHEM_ATOM_DEF_STEREO_COUNT>
1

> <PUBCHEM_ATOM_UDEF_STEREO_COUNT>
0

> <PUBCHEM_BOND_DEF_STEREO_COUNT>
1

> <PUBCHEM_BOND_UDEF_STEREO_COUNT>
0

> <PUBCHEM_ISOTOPIC_ATOM_COUNT>
0

> <PUBCHEM_COMPONENT_COUNT>
1

> <PUBCHEM_CACTVS_TAUTO_COUNT>
-1

> <PUBCHEM_CONFORMER_ID>
0851F8C200000001

> <PUBCHEM_MMFF94_ENERGY>
65.3015

> <PUBCHEM_FEATURE_SELFOVERLAP>
55.92

> <PUBCHEM_SHAPE_FINGERPRINT>
10090160 65 18193264420242833703
11578080 2 17897994742737570740
11640471 11 17320133543417809900
12553582 1 17910403792414210055
12788726 201 17325785681724340954
13004483 165 17469318137021344298
13140716 1 17697016404181998537
133893 2 18410863135440584585
13583140 156 17898311432683981953
14022347 108 17550980008225462743
14713325 29 17183664372402609612
14790565 3 17769381857440011425
15475509 35 12031520938346191141
16945 1 18260272923446648133
17980427 23 17629739207244156749
1813 80 18044361752202161914
20567600 347 18127973211781999030
20600515 1 17626660501481958154
20645476 183 17758110784637825500
20691752 17 18188220813876339301
20905425 154 18060422391310373853
21421861 104 18413668002841585675
21524375 3 18269554021282164180
22112679 90 17834971771172946418
2255824 54 18409737243949869775
22907989 373 17039545911176520084
23184049 29 18200305503596856579
2334 1 18131351899698497445
23366157 5 18408044000622495679
23419403 2 11557727663584351864
23558518 356 18339942496534181321
23559900 14 17916870119292236575
238 59 18198637698738635370
25147074 1 18202007590857569713
25222932 49 18054218002637304439
2748010 2 18059574638144402509
312423 11 18201731634924357735
394222 165 18269829968451420266
4409770 3 17253721980195250494
474 4 18261956370058842381
5104073 3 18202565052228013123
6138700 20 18342746200563164126
70251023 43 18129963199349149935
7097593 13 18267861684072135667
7364860 26 17847062177178040302
81228 2 17267230103138455259
90316 7 17690842259338830651

> <PUBCHEM_SHAPE_MULTIPOLES>
469.4
6.72
4.29
1.83
10.09
0.47
-0.53
0.3
-1.38
-5.33
0.71
-1.5
0.1
-1.64

> <PUBCHEM_SHAPE_SELFOVERLAP>
1007.728

> <PUBCHEM_SHAPE_VOLUME>
260.4

> <PUBCHEM_COORDINATE_TYPE>
2
5
10

$$$$
