139589754
  -OEChem-03292013293D

 54 56  0     1  0  0  0  0  0999 V2000
    1.4934   -0.7284    0.2874 O   0  0  0  0  0  0  0  0  0  0  0  0
   -3.0939    0.2206    0.9279 O   0  0  0  0  0  0  0  0  0  0  0  0
    1.7769   -3.3901    0.5937 O   0  0  0  0  0  0  0  0  0  0  0  0
    0.8587   -3.7045   -1.9017 O   0  0  0  0  0  0  0  0  0  0  0  0
    1.4890    0.6528    2.1289 O   0  0  0  0  0  0  0  0  0  0  0  0
    1.7895    1.5060   -1.5017 O   0  0  0  0  0  0  0  0  0  0  0  0
   -7.7478    1.5164    0.6351 O   0  0  0  0  0  0  0  0  0  0  0  0
    6.3780    2.7788   -1.3908 O   0  0  0  0  0  0  0  0  0  0  0  0
   -0.9113   -0.7097    0.3261 C   0  0  1  0  0  0  0  0  0  0  0  0
    0.3560   -1.4422    0.8046 C   0  0  1  0  0  0  0  0  0  0  0  0
    0.4582   -2.9076    0.3547 C   0  0  1  0  0  0  0  0  0  0  0  0
   -1.5135   -1.2726   -0.9453 C   0  0  0  0  0  0  0  0  0  0  0  0
   -2.0349   -0.6542    1.3642 C   0  0  0  0  0  0  0  0  0  0  0  0
    0.1889   -3.0063   -1.1441 C   0  0  0  0  0  0  0  0  0  0  0  0
   -0.9875   -2.2687   -1.6712 C   0  0  0  0  0  0  0  0  0  0  0  0
   -0.5023   -3.8356    1.1011 C   0  0  0  0  0  0  0  0  0  0  0  0
   -2.7759   -0.6520   -1.3004 C   0  0  0  0  0  0  0  0  0  0  0  0
   -3.4756    0.0552   -0.3938 C   0  0  0  0  0  0  0  0  0  0  0  0
    1.9512    0.2944    1.0568 C   0  0  0  0  0  0  0  0  0  0  0  0
   -4.7158    0.7062   -0.7168 C   0  0  0  0  0  0  0  0  0  0  0  0
    3.1208    0.9464    0.4154 C   0  0  0  0  0  0  0  0  0  0  0  0
   -5.4286    1.4147    0.1684 C   0  0  0  0  0  0  0  0  0  0  0  0
    4.3525    0.9812    1.0693 C   0  0  0  0  0  0  0  0  0  0  0  0
    2.9839    1.5276   -0.8451 C   0  0  0  0  0  0  0  0  0  0  0  0
   -6.7233    2.0950   -0.1689 C   0  0  2  0  0  0  0  0  0  0  0  0
    5.4471    1.5971    0.4627 C   0  0  0  0  0  0  0  0  0  0  0  0
    4.0784    2.1436   -1.4518 C   0  0  0  0  0  0  0  0  0  0  0  0
    4.5287    0.3676    2.4200 C   0  0  0  0  0  0  0  0  0  0  0  0
    5.3101    2.1783   -0.7979 C   0  0  0  0  0  0  0  0  0  0  0  0
   -6.6510    3.5899    0.1132 C   0  0  0  0  0  0  0  0  0  0  0  0
   -0.6442    0.3336    0.1017 H   0  0  0  0  0  0  0  0  0  0  0  0
    0.4147   -1.4312    1.9012 H   0  0  0  0  0  0  0  0  0  0  0  0
   -2.4656   -1.6380    1.5821 H   0  0  0  0  0  0  0  0  0  0  0  0
   -1.6594   -0.2450    2.3084 H   0  0  0  0  0  0  0  0  0  0  0  0
   -1.4283   -2.6243   -2.5957 H   0  0  0  0  0  0  0  0  0  0  0  0
   -0.3263   -3.7881    2.1816 H   0  0  0  0  0  0  0  0  0  0  0  0
   -0.3422   -4.8799    0.8061 H   0  0  0  0  0  0  0  0  0  0  0  0
   -1.5535   -3.6061    0.9088 H   0  0  0  0  0  0  0  0  0  0  0  0
   -3.1499   -0.7961   -2.3105 H   0  0  0  0  0  0  0  0  0  0  0  0
    1.8106   -4.3285    0.3406 H   0  0  0  0  0  0  0  0  0  0  0  0
   -5.0776    0.6124   -1.7379 H   0  0  0  0  0  0  0  0  0  0  0  0
   -5.0970    1.5239    1.1985 H   0  0  0  0  0  0  0  0  0  0  0  0
   -6.9931    1.9322   -1.2186 H   0  0  0  0  0  0  0  0  0  0  0  0
    6.4086    1.6275    0.9696 H   0  0  0  0  0  0  0  0  0  0  0  0
    3.9724    2.5968   -2.4343 H   0  0  0  0  0  0  0  0  0  0  0  0
    4.0077    0.9595    3.1793 H   0  0  0  0  0  0  0  0  0  0  0  0
    5.5850    0.3182    2.7072 H   0  0  0  0  0  0  0  0  0  0  0  0
    4.1504   -0.6601    2.4353 H   0  0  0  0  0  0  0  0  0  0  0  0
   -6.4614    3.7854    1.1750 H   0  0  0  0  0  0  0  0  0  0  0  0
   -5.8652    4.0721   -0.4773 H   0  0  0  0  0  0  0  0  0  0  0  0
   -7.6068    4.0694   -0.1254 H   0  0  0  0  0  0  0  0  0  0  0  0
    1.1237    1.0303   -0.9820 H   0  0  0  0  0  0  0  0  0  0  0  0
   -8.5834    1.9600    0.4099 H   0  0  0  0  0  0  0  0  0  0  0  0
    7.1472    2.7102   -0.7995 H   0  0  0  0  0  0  0  0  0  0  0  0
  1 10  1  0  0  0  0
  1 19  1  0  0  0  0
  2 13  1  0  0  0  0
  2 18  1  0  0  0  0
  3 11  1  0  0  0  0
  3 40  1  0  0  0  0
  4 14  2  0  0  0  0
  5 19  2  0  0  0  0
  6 24  1  0  0  0  0
  6 52  1  0  0  0  0
  7 25  1  0  0  0  0
  7 53  1  0  0  0  0
  8 29  1  0  0  0  0
  8 54  1  0  0  0  0
  9 10  1  0  0  0  0
  9 12  1  0  0  0  0
  9 13  1  0  0  0  0
  9 31  1  0  0  0  0
 10 11  1  0  0  0  0
 10 32  1  0  0  0  0
 11 14  1  0  0  0  0
 11 16  1  0  0  0  0
 12 15  2  0  0  0  0
 12 17  1  0  0  0  0
 13 33  1  0  0  0  0
 13 34  1  0  0  0  0
 14 15  1  0  0  0  0
 15 35  1  0  0  0  0
 16 36  1  0  0  0  0
 16 37  1  0  0  0  0
 16 38  1  0  0  0  0
 17 18  2  0  0  0  0
 17 39  1  0  0  0  0
 18 20  1  0  0  0  0
 19 21  1  0  0  0  0
 20 22  2  0  0  0  0
 20 41  1  0  0  0  0
 21 23  1  0  0  0  0
 21 24  2  0  0  0  0
 22 25  1  0  0  0  0
 22 42  1  0  0  0  0
 23 26  2  0  0  0  0
 23 28  1  0  0  0  0
 24 27  1  0  0  0  0
 25 30  1  0  0  0  0
 25 43  1  0  0  0  0
 26 29  1  0  0  0  0
 26 44  1  0  0  0  0
 27 29  2  0  0  0  0
 27 45  1  0  0  0  0
 28 46  1  0  0  0  0
 28 47  1  0  0  0  0
 28 48  1  0  0  0  0
 30 49  1  0  0  0  0
 30 50  1  0  0  0  0
 30 51  1  0  0  0  0
M  END
> <PUBCHEM_COMPOUND_CID>
139589754

> <PUBCHEM_CONFORMER_RMSD>
0.8

> <PUBCHEM_CONFORMER_DIVERSEORDER>
1
42
22
70
67
86
58
35
63
82
27
26
19
47
66
50
38
85
83
73
51
61
62
69
48
23
74
75
79
59
84
65
49
55
81
77
43
37
52
76
32
41
71
20
18
40
33
57
45
72
29
12
53
13
21
16
34
14
25
31
80
68
46
5
10
36
11
60
9
3
64
17
44
8
15
24
2
78
28
6
56
54
4
39
30
7

> <PUBCHEM_MMFF94_PARTIAL_CHARGES>
38
1 -0.43
10 0.28
11 0.34
12 -0.14
13 0.28
14 0.49
15 -0.14
17 -0.15
18 0.08
19 0.63
2 -0.36
20 -0.15
21 0.09
22 -0.29
23 -0.14
24 0.08
25 0.42
26 -0.15
27 -0.15
28 0.14
29 0.08
3 -0.68
35 0.15
39 0.15
4 -0.57
40 0.4
41 0.15
42 0.15
44 0.15
45 0.15
5 -0.57
52 0.45
53 0.4
54 0.45
6 -0.53
7 -0.68
8 -0.53
9 0.14

> <PUBCHEM_EFFECTIVE_ROTOR_COUNT>
5.8

> <PUBCHEM_PHARMACOPHORE_FEATURES>
12
1 2 acceptor
1 3 acceptor
1 3 donor
1 4 acceptor
1 5 acceptor
1 6 donor
1 7 acceptor
1 7 donor
1 8 donor
6 2 9 12 13 17 18 rings
6 21 23 24 26 27 29 rings
6 9 10 11 12 14 15 rings

> <PUBCHEM_HEAVY_ATOM_COUNT>
30

> <PUBCHEM_ATOM_DEF_STEREO_COUNT>
4

> <PUBCHEM_ATOM_UDEF_STEREO_COUNT>
0

> <PUBCHEM_BOND_DEF_STEREO_COUNT>
1

> <PUBCHEM_BOND_UDEF_STEREO_COUNT>
0

> <PUBCHEM_ISOTOPIC_ATOM_COUNT>
0

> <PUBCHEM_COMPONENT_COUNT>
1

> <PUBCHEM_CACTVS_TAUTO_COUNT>
-1

> <PUBCHEM_CONFORMER_ID>
0851F87A00000001

> <PUBCHEM_MMFF94_ENERGY>
77.5407

> <PUBCHEM_FEATURE_SELFOVERLAP>
60.937

> <PUBCHEM_SHAPE_FINGERPRINT>
10369192 42 18335425703200177789
105312 117 18339646758071385566
10673678 19 18271527503326133719
10721379 63 17985836925698783535
11578080 2 18336000687968493179
11823591 26 18410848880544408053
12342043 65 13769306624982761304
12422481 6 17823682101648289669
12633257 1 16877660180059804393
12788726 201 17831292066427116162
13540713 5 18127665224453140695
13782708 43 10447633692185308777
13944108 23 18197218049203638593
14294032 229 18269562800738954355
15163728 17 18410299107597922391
15183329 4 16200157577729077633
15439362 3 18410014304269866726
17980427 23 17313388980516390631
19315092 285 12318910054984450508
20554085 129 18059848463304389312
21033648 29 18340197613397375832
21756936 100 18262799708325207906
23559900 14 18044103354533430499
3388396 114 16826435324517280644
3411729 13 18337673010472315503
392239 28 15647051611903714257
397830 11 18041573451682343321
4015057 19 15840718529489850360
4058900 60 18410580544078300091
439807 62 11743829292991159733
45377200 153 14835255802920126253
469060 322 12757978213081203322
474 4 18334852797380506675
5104073 3 17096918282407424368
5385378 56 18337104566670374810
57724786 102 18113330917009464440
58260988 587 18335991861457271699
59682541 52 16630252428643098908

> <PUBCHEM_SHAPE_MULTIPOLES>
570.43
14.78
4.42
1.79
15.81
3.04
0.14
-22.61
0.54
0.6
-1.1
-1.75
0.33
-1.68

> <PUBCHEM_SHAPE_SELFOVERLAP>
1226.822

> <PUBCHEM_SHAPE_VOLUME>
312.1

> <PUBCHEM_COORDINATE_TYPE>
2
5
10

$$$$
