139588937
  -OEChem-03292013293D

 40 42  0     1  0  0  0  0  0999 V2000
   -1.2057   -1.4234   -0.6239 S   0  0  0  0  0  0  0  0  0  0  0  0
    1.3752    2.1484   -0.7621 S   0  0  0  0  0  0  0  0  0  0  0  0
   -5.6236   -0.5369   -1.2693 O   0  0  0  0  0  0  0  0  0  0  0  0
   -4.9466    1.4463   -0.3726 O   0  0  0  0  0  0  0  0  0  0  0  0
    2.7207   -2.0313    0.1876 O   0  0  0  0  0  0  0  0  0  0  0  0
   -2.7061    0.3860    0.6449 N   0  0  2  0  0  0  0  0  0  0  0  0
    1.0363    0.0542    0.7394 N   0  0  0  0  0  0  0  0  0  0  0  0
   -3.6425   -0.5628    0.0061 C   0  0  1  0  0  0  0  0  0  0  0  0
   -1.3858   -0.2542    0.7644 C   0  0  2  0  0  0  0  0  0  0  0  0
   -0.2574    0.7701    0.7009 C   0  0  2  0  0  0  0  0  0  0  0  0
   -2.8976   -1.1631   -1.1968 C   0  0  0  0  0  0  0  0  0  0  0  0
   -4.2084   -1.6562    0.9279 C   0  0  0  0  0  0  0  0  0  0  0  0
   -0.3315    1.6103   -0.5669 C   0  0  0  0  0  0  0  0  0  0  0  0
   -3.1634    0.9400    1.9178 C   0  0  0  0  0  0  0  0  0  0  0  0
   -4.7866    0.2476   -0.5473 C   0  0  0  0  0  0  0  0  0  0  0  0
    1.9322    0.7122    0.0736 C   0  0  0  0  0  0  0  0  0  0  0  0
    3.3454    0.2757   -0.0177 C   0  0  0  0  0  0  0  0  0  0  0  0
    3.6824   -1.0765    0.0424 C   0  0  0  0  0  0  0  0  0  0  0  0
    4.3447    1.2377   -0.1641 C   0  0  0  0  0  0  0  0  0  0  0  0
    5.0188   -1.4667   -0.0439 C   0  0  0  0  0  0  0  0  0  0  0  0
    5.6813    0.8474   -0.2502 C   0  0  0  0  0  0  0  0  0  0  0  0
    6.0183   -0.5047   -0.1902 C   0  0  0  0  0  0  0  0  0  0  0  0
   -1.3088   -0.8530    1.6804 H   0  0  0  0  0  0  0  0  0  0  0  0
   -0.3033    1.4199    1.5858 H   0  0  0  0  0  0  0  0  0  0  0  0
   -3.3269   -2.1112   -1.5360 H   0  0  0  0  0  0  0  0  0  0  0  0
   -2.8666   -0.4787   -2.0527 H   0  0  0  0  0  0  0  0  0  0  0  0
   -3.4173   -2.2039    1.4510 H   0  0  0  0  0  0  0  0  0  0  0  0
   -4.7908   -2.3939    0.3632 H   0  0  0  0  0  0  0  0  0  0  0  0
   -4.8825   -1.2369    1.6838 H   0  0  0  0  0  0  0  0  0  0  0  0
   -0.6108    1.0739   -1.4755 H   0  0  0  0  0  0  0  0  0  0  0  0
   -1.0001    2.4687   -0.4522 H   0  0  0  0  0  0  0  0  0  0  0  0
   -4.1643    1.3762    1.8641 H   0  0  0  0  0  0  0  0  0  0  0  0
   -2.5013    1.7518    2.2374 H   0  0  0  0  0  0  0  0  0  0  0  0
   -3.1736    0.1888    2.7158 H   0  0  0  0  0  0  0  0  0  0  0  0
   -6.3766   -0.0275   -1.6377 H   0  0  0  0  0  0  0  0  0  0  0  0
    4.1260    2.3010   -0.1927 H   0  0  0  0  0  0  0  0  0  0  0  0
    5.2961   -2.5165    0.0022 H   0  0  0  0  0  0  0  0  0  0  0  0
    6.4602    1.5965   -0.3589 H   0  0  0  0  0  0  0  0  0  0  0  0
    7.0591   -0.8083   -0.2560 H   0  0  0  0  0  0  0  0  0  0  0  0
    3.1431   -2.9071    0.2097 H   0  0  0  0  0  0  0  0  0  0  0  0
  1  9  1  0  0  0  0
  1 11  1  0  0  0  0
  2 13  1  0  0  0  0
  2 16  1  0  0  0  0
  3 15  1  0  0  0  0
  3 35  1  0  0  0  0
  4 15  2  0  0  0  0
  5 18  1  0  0  0  0
  5 40  1  0  0  0  0
  6  8  1  0  0  0  0
  6  9  1  0  0  0  0
  6 14  1  0  0  0  0
  7 10  1  0  0  0  0
  7 16  2  0  0  0  0
  8 11  1  0  0  0  0
  8 12  1  0  0  0  0
  8 15  1  0  0  0  0
  9 10  1  0  0  0  0
  9 23  1  0  0  0  0
 10 13  1  0  0  0  0
 10 24  1  0  0  0  0
 11 25  1  0  0  0  0
 11 26  1  0  0  0  0
 12 27  1  0  0  0  0
 12 28  1  0  0  0  0
 12 29  1  0  0  0  0
 13 30  1  0  0  0  0
 13 31  1  0  0  0  0
 14 32  1  0  0  0  0
 14 33  1  0  0  0  0
 14 34  1  0  0  0  0
 16 17  1  0  0  0  0
 17 18  1  0  0  0  0
 17 19  2  0  0  0  0
 18 20  2  0  0  0  0
 19 21  1  0  0  0  0
 19 36  1  0  0  0  0
 20 22  1  0  0  0  0
 20 37  1  0  0  0  0
 21 22  2  0  0  0  0
 21 38  1  0  0  0  0
 22 39  1  0  0  0  0
M  END
> <PUBCHEM_COMPOUND_CID>
139588937

> <PUBCHEM_CONFORMER_RMSD>
0.8

> <PUBCHEM_CONFORMER_DIVERSEORDER>
1
13
11
12
35
30
19
20
31
18
7
33
24
36
16
34
17
29
9
25
2
5
14
27
23
10
3
21
4
28
22
32
8
6
26
15

> <PUBCHEM_MMFF94_PARTIAL_CHARGES>
27
1 -0.46
10 0.25
11 0.23
13 0.23
14 0.27
15 0.66
16 0.5
17 0.09
18 0.08
19 -0.15
2 -0.37
20 -0.15
21 -0.15
22 -0.15
3 -0.65
35 0.5
36 0.15
37 0.15
38 0.15
39 0.15
4 -0.57
40 0.45
5 -0.53
6 -0.81
7 -0.7
8 0.33
9 0.5

> <PUBCHEM_EFFECTIVE_ROTOR_COUNT>
4.6

> <PUBCHEM_PHARMACOPHORE_FEATURES>
9
1 3 acceptor
1 4 acceptor
1 5 donor
1 6 cation
1 7 acceptor
3 3 4 15 anion
5 1 6 8 9 11 rings
5 2 7 10 13 16 rings
6 17 18 19 20 21 22 rings

> <PUBCHEM_HEAVY_ATOM_COUNT>
22

> <PUBCHEM_ATOM_DEF_STEREO_COUNT>
3

> <PUBCHEM_ATOM_UDEF_STEREO_COUNT>
0

> <PUBCHEM_BOND_DEF_STEREO_COUNT>
0

> <PUBCHEM_BOND_UDEF_STEREO_COUNT>
0

> <PUBCHEM_ISOTOPIC_ATOM_COUNT>
0

> <PUBCHEM_COMPONENT_COUNT>
1

> <PUBCHEM_CACTVS_TAUTO_COUNT>
-1

> <PUBCHEM_CONFORMER_ID>
0851F54900000001

> <PUBCHEM_MMFF94_ENERGY>
63.1514

> <PUBCHEM_FEATURE_SELFOVERLAP>
45.727

> <PUBCHEM_SHAPE_FINGERPRINT>
10366900 7 15841833352217405182
10447042 23 18335415760508889382
106641 1 13973671867510327606
11315181 36 17917994983579269312
11796584 16 17846781818755884711
12107183 9 17481440278708918418
12166972 35 18200870781612781137
12236239 1 18273215300376000106
12516196 113 18130783469177149472
12596602 18 16988843874166252738
12633257 1 16343709871369387763
12670546 56 17775284975811737272
12788726 201 17096354064747722837
12916748 109 11386362621786240260
13167823 11 18273218599332974146
13288520 33 17418092139918624117
13544653 18 18261399936024664768
13685833 64 18334018315273167915
14251752 14 17385995127460514628
14251764 18 18344149194289989725
14386348 63 17675928702873843178
14528608 73 18412828010401897444
14840074 17 18410018745207645782
15048467 5 15213013834940431437
15099037 51 18334293171388705789
15183329 4 18335975381662235285
15196674 1 18410013243149102946
15788980 27 18412263951808720124
17349148 13 17346604092434684621
17834072 33 18202562899705364656
17834072 8 18260823800436969717
17844677 252 18187654629860276813
17857418 61 18272929410610778618
17980427 23 17489317386153528433
1813 80 18262534627697778052
18186145 218 17022896891175468029
18222031 100 18343013406941313360
19141452 34 18412825797950349750
19489759 90 16271929294216337761
200 152 18343581845525309280
20028762 73 18200590294832606886
20511986 3 18201142309207350726
20600515 1 16056331646704263961
20645477 70 18408602527060652710
21236236 1 18337389331983021773
21250096 35 18342175566143272576
21267235 1 18412273839219353690
221357 26 18114453513970737309
23175994 123 17385730213529895157
23402539 116 18187082854112766680
23559900 14 17703497904430869688
2871803 45 18260266318319872274
29717793 49 18060704966278468092
300161 21 18343297089736767008
3004659 81 18335137571213795526
339767 52 18412258441518816066
34797466 226 16343709884845263160
3633792 109 18342166770388042525
4073 2 17895199943241318410
4214541 1 18413390925373276640
4325135 7 18342175579766639948
465052 167 16200151032108988068
474229 33 10015577315951949317
5104073 3 18413392025364621882
5283173 99 17968931985840230452
542803 24 11386365945969634088
559249 180 18343018852843774031
59755656 215 18335987476659698374
633830 44 17168142394294947477
7495541 125 12757444863747019060
9971528 1 18334855047964832620

> <PUBCHEM_SHAPE_MULTIPOLES>
432.88
13.48
1.92
1.12
4.7
0.03
0.19
-2.11
-1.57
0.49
-0.2
-1.4
0.09
-0.43

> <PUBCHEM_SHAPE_SELFOVERLAP>
902.145

> <PUBCHEM_SHAPE_VOLUME>
249

> <PUBCHEM_COORDINATE_TYPE>
2
5
10

$$$$
