139589595
  -OEChem-03292013293D

 57 61  0     1  0  0  0  0  0999 V2000
    0.1591   -0.3273   -1.7459 S   0  0  0  0  0  0  0  0  0  0  0  0
    1.7119    1.0807    1.0447 O   0  0  0  0  0  0  0  0  0  0  0  0
    2.5176    2.0445   -1.4926 O   0  0  0  0  0  0  0  0  0  0  0  0
    5.1476    0.9621   -2.3980 O   0  0  0  0  0  0  0  0  0  0  0  0
    3.9935    1.0855    2.9287 O   0  0  0  0  0  0  0  0  0  0  0  0
    2.3116   -3.0416   -1.0274 O   0  0  0  0  0  0  0  0  0  0  0  0
   -0.3417   -0.0346    2.3657 O   0  0  0  0  0  0  0  0  0  0  0  0
   -3.8445   -2.1212   -0.5902 O   0  0  0  0  0  0  0  0  0  0  0  0
   -6.0234   -0.4688   -0.2373 O   0  0  0  0  0  0  0  0  0  0  0  0
   -5.6560    2.2647    0.0042 O   0  0  0  0  0  0  0  0  0  0  0  0
    1.2945   -0.2232    0.7073 N   0  0  0  0  0  0  0  0  0  0  0  0
    0.4369   -2.6756    0.3123 N   0  0  0  0  0  0  0  0  0  0  0  0
    1.5742   -0.7390   -0.6397 C   0  0  2  0  0  0  0  0  0  0  0  0
    3.3417    1.1155   -0.7783 C   0  0  2  0  0  0  0  0  0  0  0  0
    2.9396   -0.3090   -1.1925 C   0  0  0  0  0  0  0  0  0  0  0  0
    3.0840    1.3209    0.7224 C   0  0  2  0  0  0  0  0  0  0  0  0
   -0.5942   -1.6761    0.6047 C   0  0  2  0  0  0  0  0  0  0  0  0
   -1.1702   -1.1226   -0.7242 C   0  0  1  0  0  0  0  0  0  0  0  0
    4.8176    1.4576   -1.1001 C   0  0  1  0  0  0  0  0  0  0  0  0
    1.5348   -2.2746   -0.4633 C   0  0  0  0  0  0  0  0  0  0  0  0
    0.1377   -0.5926    1.3843 C   0  0  0  0  0  0  0  0  0  0  0  0
    4.0261    0.5023    1.6248 C   0  0  1  0  0  0  0  0  0  0  0  0
    5.7978    0.9216   -0.0937 C   0  0  0  0  0  0  0  0  0  0  0  0
    5.4414    0.4871    1.1235 C   0  0  0  0  0  0  0  0  0  0  0  0
   -2.3813   -0.2312   -0.5298 C   0  0  0  0  0  0  0  0  0  0  0  0
    0.1620   -4.0722    0.5965 C   0  0  0  0  0  0  0  0  0  0  0  0
   -3.6649   -0.7743   -0.4723 C   0  0  0  0  0  0  0  0  0  0  0  0
   -2.2009    1.1467   -0.4082 C   0  0  0  0  0  0  0  0  0  0  0  0
   -4.7679    0.0604   -0.2933 C   0  0  0  0  0  0  0  0  0  0  0  0
   -3.3040    1.9814   -0.2291 C   0  0  0  0  0  0  0  0  0  0  0  0
   -4.5875    1.4382   -0.1717 C   0  0  0  0  0  0  0  0  0  0  0  0
   -6.5095   -0.8452    1.0490 C   0  0  0  0  0  0  0  0  0  0  0  0
   -5.3836    3.6600    0.1195 C   0  0  0  0  0  0  0  0  0  0  0  0
    3.7101   -0.9985   -0.8230 H   0  0  0  0  0  0  0  0  0  0  0  0
    2.9473   -0.4139   -2.2855 H   0  0  0  0  0  0  0  0  0  0  0  0
    3.2251    2.3859    0.9552 H   0  0  0  0  0  0  0  0  0  0  0  0
   -1.3632   -2.1228    1.2447 H   0  0  0  0  0  0  0  0  0  0  0  0
   -1.4777   -1.9738   -1.3453 H   0  0  0  0  0  0  0  0  0  0  0  0
    4.9438    2.5466   -1.1480 H   0  0  0  0  0  0  0  0  0  0  0  0
    3.6755   -0.5295    1.7353 H   0  0  0  0  0  0  0  0  0  0  0  0
    6.8489    0.9002   -0.3689 H   0  0  0  0  0  0  0  0  0  0  0  0
    6.2097    0.0994    1.7870 H   0  0  0  0  0  0  0  0  0  0  0  0
    2.7380    2.9426   -1.1921 H   0  0  0  0  0  0  0  0  0  0  0  0
   -0.0850   -4.1768    1.6564 H   0  0  0  0  0  0  0  0  0  0  0  0
   -0.6851   -4.3938   -0.0158 H   0  0  0  0  0  0  0  0  0  0  0  0
    1.0298   -4.6946    0.3635 H   0  0  0  0  0  0  0  0  0  0  0  0
    6.0589    1.2359   -2.5991 H   0  0  0  0  0  0  0  0  0  0  0  0
    4.5565    0.5453    3.5096 H   0  0  0  0  0  0  0  0  0  0  0  0
   -1.2199    1.6114   -0.4121 H   0  0  0  0  0  0  0  0  0  0  0  0
   -3.0878    3.0399   -0.1344 H   0  0  0  0  0  0  0  0  0  0  0  0
   -4.7983   -2.3105   -0.5739 H   0  0  0  0  0  0  0  0  0  0  0  0
   -7.5023   -1.2863    0.9241 H   0  0  0  0  0  0  0  0  0  0  0  0
   -6.5963    0.0322    1.6975 H   0  0  0  0  0  0  0  0  0  0  0  0
   -5.8527   -1.5887    1.5117 H   0  0  0  0  0  0  0  0  0  0  0  0
   -6.3456    4.1660    0.2520 H   0  0  0  0  0  0  0  0  0  0  0  0
   -4.9372    4.0615   -0.7966 H   0  0  0  0  0  0  0  0  0  0  0  0
   -4.7832    3.8819    1.0084 H   0  0  0  0  0  0  0  0  0  0  0  0
  1 13  1  0  0  0  0
  1 18  1  0  0  0  0
  2 11  1  0  0  0  0
  2 16  1  0  0  0  0
  3 14  1  0  0  0  0
  3 43  1  0  0  0  0
  4 19  1  0  0  0  0
  4 47  1  0  0  0  0
  5 22  1  0  0  0  0
  5 48  1  0  0  0  0
  6 20  2  0  0  0  0
  7 21  2  0  0  0  0
  8 27  1  0  0  0  0
  8 51  1  0  0  0  0
  9 29  1  0  0  0  0
  9 32  1  0  0  0  0
 10 31  1  0  0  0  0
 10 33  1  0  0  0  0
 11 13  1  0  0  0  0
 11 21  1  0  0  0  0
 12 17  1  0  0  0  0
 12 20  1  0  0  0  0
 12 26  1  0  0  0  0
 13 15  1  0  0  0  0
 13 20  1  0  0  0  0
 14 15  1  0  0  0  0
 14 16  1  0  0  0  0
 14 19  1  0  0  0  0
 15 34  1  0  0  0  0
 15 35  1  0  0  0  0
 16 22  1  0  0  0  0
 16 36  1  0  0  0  0
 17 18  1  0  0  0  0
 17 21  1  0  0  0  0
 17 37  1  0  0  0  0
 18 25  1  0  0  0  0
 18 38  1  0  0  0  0
 19 23  1  0  0  0  0
 19 39  1  0  0  0  0
 22 24  1  0  0  0  0
 22 40  1  0  0  0  0
 23 24  2  0  0  0  0
 23 41  1  0  0  0  0
 24 42  1  0  0  0  0
 25 27  2  0  0  0  0
 25 28  1  0  0  0  0
 26 44  1  0  0  0  0
 26 45  1  0  0  0  0
 26 46  1  0  0  0  0
 27 29  1  0  0  0  0
 28 30  2  0  0  0  0
 28 49  1  0  0  0  0
 29 31  2  0  0  0  0
 30 31  1  0  0  0  0
 30 50  1  0  0  0  0
 32 52  1  0  0  0  0
 32 53  1  0  0  0  0
 32 54  1  0  0  0  0
 33 55  1  0  0  0  0
 33 56  1  0  0  0  0
 33 57  1  0  0  0  0
M  END
> <PUBCHEM_COMPOUND_CID>
139589595

> <PUBCHEM_CONFORMER_RMSD>
0.8

> <PUBCHEM_CONFORMER_DIVERSEORDER>
1
12
10
6
11
14
13
15
9
17
7
5
2
4
8
16
3

> <PUBCHEM_MMFF94_PARTIAL_CHARGES>
40
1 -0.46
10 -0.36
11 -0.32
12 -0.66
13 0.59
14 0.28
16 0.28
17 0.36
18 0.37
19 0.42
2 -0.32
20 0.57
21 0.57
22 0.42
23 -0.29
24 -0.29
25 -0.14
26 0.3
27 0.08
28 -0.15
29 0.08
3 -0.68
30 -0.15
31 0.08
32 0.28
33 0.28
4 -0.68
41 0.15
42 0.15
43 0.4
47 0.4
48 0.4
49 0.15
5 -0.68
50 0.15
51 0.45
6 -0.57
7 -0.57
8 -0.53
9 -0.36

> <PUBCHEM_EFFECTIVE_ROTOR_COUNT>
4.4

> <PUBCHEM_PHARMACOPHORE_FEATURES>
15
1 10 acceptor
1 3 acceptor
1 3 donor
1 4 acceptor
1 4 donor
1 5 acceptor
1 5 donor
1 6 acceptor
1 7 acceptor
1 8 donor
1 9 acceptor
6 14 16 19 22 23 24 rings
6 2 11 13 14 15 16 rings
6 25 27 28 29 30 31 rings
8 1 11 12 13 17 18 20 21 rings

> <PUBCHEM_HEAVY_ATOM_COUNT>
33

> <PUBCHEM_ATOM_DEF_STEREO_COUNT>
7

> <PUBCHEM_ATOM_UDEF_STEREO_COUNT>
0

> <PUBCHEM_BOND_DEF_STEREO_COUNT>
0

> <PUBCHEM_BOND_UDEF_STEREO_COUNT>
0

> <PUBCHEM_ISOTOPIC_ATOM_COUNT>
0

> <PUBCHEM_COMPONENT_COUNT>
1

> <PUBCHEM_CACTVS_TAUTO_COUNT>
-1

> <PUBCHEM_CONFORMER_ID>
0851F7DB00000001

> <PUBCHEM_MMFF94_ENERGY>
139.909

> <PUBCHEM_FEATURE_SELFOVERLAP>
76.239

> <PUBCHEM_SHAPE_FINGERPRINT>
10670039 82 18408608045487337444
11796584 16 8430316844566998965
12236239 1 17458622341493960981
12403259 415 18059851818069538400
12422481 6 17678440992327592676
12516196 113 9799693700984810502
12596602 18 16877943879792846017
12633257 1 17530958094614602780
12788726 201 17536600968904388050
13617811 41 18337664313654489653
13782708 43 17130429201698168303
14341114 328 17894628149929161089
14739800 52 18129081364899968049
14790565 3 18335708272982338973
14840074 17 17240489134337475029
15163728 17 18334584520368564298
15238133 3 18408882954260703868
17980427 23 17458634436195570543
18608769 82 18268436896410504851
19301676 85 14231511067692492124
19377110 9 18187083958140908203
21033648 144 18192142704019779381
21033648 29 17916008244215962296
22149856 69 18264231170614537651
22393880 68 17703787033007419189
23559900 14 17771341968649414895
23569914 152 15763885433956450061
2838139 119 18130496504984418628
392239 28 17969236680158443505
4340502 62 18413108376681395006
469060 322 18339094765044059305
474 4 18187086152410202029
5104073 3 18263366893928760467
513532 50 15409458070931652025
5265222 85 18126006203609401284
59755656 215 18272652337611582214
6442390 28 18408605876808186967
9981440 41 18334016099033497107

> <PUBCHEM_SHAPE_MULTIPOLES>
620.19
13.54
3.24
1.75
8.79
1.49
0.55
-8.69
0.68
2.17
-0.06
-2.44
-0.32
0.05

> <PUBCHEM_SHAPE_SELFOVERLAP>
1346.654

> <PUBCHEM_SHAPE_VOLUME>
341.6

> <PUBCHEM_COORDINATE_TYPE>
2
5
10

$$$$
