139587014
  -OEChem-03292013293D

 57 59  0     1  0  0  0  0  0999 V2000
   -3.4622   -1.2073   -2.3599 O   0  0  0  0  0  0  0  0  0  0  0  0
    2.6976   -1.6232    2.1689 O   0  0  0  0  0  0  0  0  0  0  0  0
   -4.0761   -0.3908    1.0016 O   0  0  0  0  0  0  0  0  0  0  0  0
    4.5681   -0.5495    0.6851 O   0  0  0  0  0  0  0  0  0  0  0  0
    4.6955    0.3929   -2.2921 O   0  0  0  0  0  0  0  0  0  0  0  0
   -1.5208   -1.3803   -0.8511 C   0  0  1  0  0  0  0  0  0  0  0  0
    0.7585   -0.6545    1.0689 C   0  0  1  0  0  0  0  0  0  0  0  0
    0.3038    0.2602   -0.1153 C   0  0  1  0  0  0  0  0  0  0  0  0
   -1.1716    0.0191   -0.3603 C   0  0  0  0  0  0  0  0  0  0  0  0
   -1.0658   -2.3549    0.2597 C   0  0  0  0  0  0  0  0  0  0  0  0
    0.4011   -2.1395    0.7034 C   0  0  0  0  0  0  0  0  0  0  0  0
   -3.0687   -1.3261   -0.9919 C   0  0  1  0  0  0  0  0  0  0  0  0
   -2.2677    0.7388   -0.0624 C   0  0  0  0  0  0  0  0  0  0  0  0
    2.2822   -0.4944    1.3844 C   0  0  2  0  0  0  0  0  0  0  0  0
   -3.5259   -0.0581   -0.2668 C   0  0  2  0  0  0  0  0  0  0  0  0
    0.7976    1.7104   -0.0123 C   0  0  0  0  0  0  0  0  0  0  0  0
   -0.8568   -1.7526   -2.1933 C   0  0  0  0  0  0  0  0  0  0  0  0
    0.0093   -0.3062    2.3902 C   0  0  0  0  0  0  0  0  0  0  0  0
    3.2358   -0.3371    0.1803 C   0  0  1  0  0  0  0  0  0  0  0  0
   -2.3942    2.0945    0.5474 C   0  0  0  0  0  0  0  0  0  0  0  0
    2.2005    1.8958   -0.5269 C   0  0  0  0  0  0  0  0  0  0  0  0
    3.2202    1.0148   -0.5250 C   0  0  0  0  0  0  0  0  0  0  0  0
   -3.1438    2.0297    1.8783 C   0  0  0  0  0  0  0  0  0  0  0  0
   -3.0910    3.0528   -0.4171 C   0  0  0  0  0  0  0  0  0  0  0  0
    4.4745    1.3653   -1.2935 C   0  0  0  0  0  0  0  0  0  0  0  0
    0.7872   -0.1218   -1.0244 H   0  0  0  0  0  0  0  0  0  0  0  0
   -1.1848   -3.3909   -0.0825 H   0  0  0  0  0  0  0  0  0  0  0  0
   -1.7166   -2.2582    1.1384 H   0  0  0  0  0  0  0  0  0  0  0  0
    0.5882   -2.8000    1.5594 H   0  0  0  0  0  0  0  0  0  0  0  0
    1.0681   -2.4855   -0.0952 H   0  0  0  0  0  0  0  0  0  0  0  0
   -3.5363   -2.2351   -0.5963 H   0  0  0  0  0  0  0  0  0  0  0  0
    2.4373    0.3800    2.0321 H   0  0  0  0  0  0  0  0  0  0  0  0
   -4.2729    0.4979   -0.8418 H   0  0  0  0  0  0  0  0  0  0  0  0
    0.7294    2.1172    1.0007 H   0  0  0  0  0  0  0  0  0  0  0  0
    0.1739    2.3372   -0.6623 H   0  0  0  0  0  0  0  0  0  0  0  0
    0.2226   -1.9079   -2.1067 H   0  0  0  0  0  0  0  0  0  0  0  0
   -1.0052   -0.9701   -2.9465 H   0  0  0  0  0  0  0  0  0  0  0  0
   -1.2753   -2.6873   -2.5845 H   0  0  0  0  0  0  0  0  0  0  0  0
    0.2147    0.7202    2.7109 H   0  0  0  0  0  0  0  0  0  0  0  0
    0.3074   -0.9699    3.2088 H   0  0  0  0  0  0  0  0  0  0  0  0
   -1.0745   -0.4074    2.3008 H   0  0  0  0  0  0  0  0  0  0  0  0
    3.0639   -1.1360   -0.5489 H   0  0  0  0  0  0  0  0  0  0  0  0
   -1.4174    2.5161    0.7773 H   0  0  0  0  0  0  0  0  0  0  0  0
    2.3508    2.8498   -1.0320 H   0  0  0  0  0  0  0  0  0  0  0  0
   -4.4344   -1.1993   -2.3840 H   0  0  0  0  0  0  0  0  0  0  0  0
    2.3257   -1.5236    3.0607 H   0  0  0  0  0  0  0  0  0  0  0  0
   -4.8627   -0.9399    0.8426 H   0  0  0  0  0  0  0  0  0  0  0  0
   -4.1338    2.7746   -0.6023 H   0  0  0  0  0  0  0  0  0  0  0  0
   -2.5717    3.0889   -1.3814 H   0  0  0  0  0  0  0  0  0  0  0  0
   -3.0944    4.0687   -0.0062 H   0  0  0  0  0  0  0  0  0  0  0  0
   -4.2223    1.8888    1.7510 H   0  0  0  0  0  0  0  0  0  0  0  0
   -3.0267    2.9835    2.4076 H   0  0  0  0  0  0  0  0  0  0  0  0
   -2.7505    1.2525    2.5408 H   0  0  0  0  0  0  0  0  0  0  0  0
    5.3438    1.4097   -0.6294 H   0  0  0  0  0  0  0  0  0  0  0  0
    4.3945    2.3402   -1.7871 H   0  0  0  0  0  0  0  0  0  0  0  0
    4.7227    0.0942    1.3980 H   0  0  0  0  0  0  0  0  0  0  0  0
    5.5120    0.6389   -2.7593 H   0  0  0  0  0  0  0  0  0  0  0  0
  1 12  1  0  0  0  0
  1 45  1  0  0  0  0
  2 14  1  0  0  0  0
  2 46  1  0  0  0  0
  3 15  1  0  0  0  0
  3 47  1  0  0  0  0
  4 19  1  0  0  0  0
  4 56  1  0  0  0  0
  5 25  1  0  0  0  0
  5 57  1  0  0  0  0
  6  9  1  0  0  0  0
  6 10  1  0  0  0  0
  6 12  1  0  0  0  0
  6 17  1  0  0  0  0
  7  8  1  0  0  0  0
  7 11  1  0  0  0  0
  7 14  1  0  0  0  0
  7 18  1  0  0  0  0
  8  9  1  0  0  0  0
  8 16  1  0  0  0  0
  8 26  1  0  0  0  0
  9 13  2  0  0  0  0
 10 11  1  0  0  0  0
 10 27  1  0  0  0  0
 10 28  1  0  0  0  0
 11 29  1  0  0  0  0
 11 30  1  0  0  0  0
 12 15  1  0  0  0  0
 12 31  1  0  0  0  0
 13 15  1  0  0  0  0
 13 20  1  0  0  0  0
 14 19  1  0  0  0  0
 14 32  1  0  0  0  0
 15 33  1  0  0  0  0
 16 21  1  0  0  0  0
 16 34  1  0  0  0  0
 16 35  1  0  0  0  0
 17 36  1  0  0  0  0
 17 37  1  0  0  0  0
 17 38  1  0  0  0  0
 18 39  1  0  0  0  0
 18 40  1  0  0  0  0
 18 41  1  0  0  0  0
 19 22  1  0  0  0  0
 19 42  1  0  0  0  0
 20 23  1  0  0  0  0
 20 24  1  0  0  0  0
 20 43  1  0  0  0  0
 21 22  2  0  0  0  0
 21 44  1  0  0  0  0
 22 25  1  0  0  0  0
 23 51  1  0  0  0  0
 23 52  1  0  0  0  0
 23 53  1  0  0  0  0
 24 48  1  0  0  0  0
 24 49  1  0  0  0  0
 24 50  1  0  0  0  0
 25 54  1  0  0  0  0
 25 55  1  0  0  0  0
M  END
> <PUBCHEM_COMPOUND_CID>
139587014

> <PUBCHEM_CONFORMER_RMSD>
0.6

> <PUBCHEM_CONFORMER_DIVERSEORDER>
1
4
3
2

> <PUBCHEM_MMFF94_PARTIAL_CHARGES>
24
1 -0.68
12 0.28
13 -0.28
14 0.28
15 0.42
16 0.14
19 0.42
2 -0.68
20 0.14
21 -0.29
22 -0.28
25 0.42
3 -0.68
4 -0.68
44 0.15
45 0.4
46 0.4
47 0.4
5 -0.68
56 0.4
57 0.4
6 0.14
8 0.14
9 -0.28

> <PUBCHEM_EFFECTIVE_ROTOR_COUNT>
3.4

> <PUBCHEM_PHARMACOPHORE_FEATURES>
14
1 1 acceptor
1 1 donor
1 2 acceptor
1 2 donor
1 3 acceptor
1 3 donor
1 4 acceptor
1 4 donor
1 5 acceptor
1 5 donor
3 20 23 24 hydrophobe
5 6 9 12 13 15 rings
6 6 7 8 9 10 11 rings
7 7 8 14 16 19 21 22 rings

> <PUBCHEM_HEAVY_ATOM_COUNT>
25

> <PUBCHEM_ATOM_DEF_STEREO_COUNT>
7

> <PUBCHEM_ATOM_UDEF_STEREO_COUNT>
0

> <PUBCHEM_BOND_DEF_STEREO_COUNT>
0

> <PUBCHEM_BOND_UDEF_STEREO_COUNT>
0

> <PUBCHEM_ISOTOPIC_ATOM_COUNT>
0

> <PUBCHEM_COMPONENT_COUNT>
1

> <PUBCHEM_CACTVS_TAUTO_COUNT>
-1

> <PUBCHEM_CONFORMER_ID>
0851EDC600000001

> <PUBCHEM_MMFF94_ENERGY>
86.1985

> <PUBCHEM_FEATURE_SELFOVERLAP>
71.188

> <PUBCHEM_SHAPE_FINGERPRINT>
10062212 137 18335974268817195840
10165383 225 17202508635987135249
10863032 1 17845089575876672742
12035759 4 18337654374430032861
12173636 292 18335418006165004726
12236239 1 18408879629254020073
12422481 6 17835778834815983210
12491281 212 18261397766775724904
12553582 1 18340482378255295861
12592029 89 18341347612112274298
12714826 92 17703793681601170159
12788726 201 18341894142669051291
13009979 54 18267563746158842707
13140716 1 17973999858127848977
13224815 77 17167858668913473404
13583140 156 17387137468624063817
14251751 93 18343026562220536173
14251757 17 17415867724231181340
14289901 80 14779264193926551674
14713325 29 18129122137040384823
14787075 74 17532380957482567851
15534591 1 18336838540685778800
15664445 248 16258109858800304479
16752209 62 18199731631541504253
16945 1 18340193163921727587
18219364 16 16732701687977055228
19862831 5 18189040031674994934
20775438 99 16256402291742123215
21033650 10 18060150833924528152
21756936 100 18115046168060421508
22112679 90 18339066117047600984
23419403 2 16233665465321063153
23526113 38 15482375483025473442
23557571 272 17274244166895092683
23559900 14 16486981691736293356
23598291 2 18335696114092830406
2637199 183 18335435555638408714
2748010 2 16680613075897933157
469060 322 15432009234795531635
474 4 17603870048147999636
5161694 15 16559032679465693032
59755656 215 17560802096336544231
633830 44 17749678376656045728
77492 1 18336537253024840889
90525 40 18341043021942992053
9862522 239 18195237824313539565
9981440 41 17399508421814506440

> <PUBCHEM_SHAPE_MULTIPOLES>
485.14
7.65
2.67
2.06
5.04
0.77
0.06
2.23
-2.1
-1.91
-0.19
0.45
-0.62
-2.05

> <PUBCHEM_SHAPE_SELFOVERLAP>
1021.879

> <PUBCHEM_SHAPE_VOLUME>
271

> <PUBCHEM_COORDINATE_TYPE>
2
5
10

$$$$
