139587983
  -OEChem-03292013293D

 62 64  0     1  0  0  0  0  0999 V2000
   -0.4335   -1.2825    0.6702 O   0  0  0  0  0  0  0  0  0  0  0  0
    1.7414    1.2827    1.7179 O   0  0  0  0  0  0  0  0  0  0  0  0
    2.3194   -3.5659    0.4207 O   0  0  0  0  0  0  0  0  0  0  0  0
   -0.1879    0.3672    2.5990 O   0  0  0  0  0  0  0  0  0  0  0  0
   -0.5569   -3.5661    0.9290 O   0  0  0  0  0  0  0  0  0  0  0  0
   -3.1744    3.7418    0.5774 O   0  0  0  0  0  0  0  0  0  0  0  0
   -5.1461    2.1884   -0.5849 O   0  0  0  0  0  0  0  0  0  0  0  0
    6.9446    0.7567   -1.0786 O   0  0  0  0  0  0  0  0  0  0  0  0
    0.6275   -0.3344    0.4413 C   0  0  2  0  0  0  0  0  0  0  0  0
    0.2604    0.5238   -0.7607 C   0  0  0  0  0  0  0  0  0  0  0  0
    1.8403   -1.1860    0.2668 C   0  0  0  0  0  0  0  0  0  0  0  0
   -1.1786    0.9655   -0.7146 C   0  0  0  0  0  0  0  0  0  0  0  0
    1.5151   -2.4693    0.4577 C   0  0  0  0  0  0  0  0  0  0  0  0
    0.6530    0.4616    1.7151 C   0  0  0  0  0  0  0  0  0  0  0  0
    3.1781   -0.6782   -0.0866 C   0  0  0  0  0  0  0  0  0  0  0  0
    0.0757   -2.5467    0.7176 C   0  0  0  0  0  0  0  0  0  0  0  0
   -2.1691    0.1786   -1.3023 C   0  0  0  0  0  0  0  0  0  0  0  0
   -1.5212    2.1618   -0.0842 C   0  0  0  0  0  0  0  0  0  0  0  0
   -3.5020    0.5879   -1.2597 C   0  0  0  0  0  0  0  0  0  0  0  0
   -2.8539    2.5712   -0.0416 C   0  0  0  0  0  0  0  0  0  0  0  0
   -3.8443    1.7843   -0.6294 C   0  0  0  0  0  0  0  0  0  0  0  0
    3.3628    0.0360   -1.2705 C   0  0  0  0  0  0  0  0  0  0  0  0
    4.2593   -0.9106    0.7636 C   0  0  0  0  0  0  0  0  0  0  0  0
   -4.5478   -0.2681   -1.8947 C   0  0  0  0  0  0  0  0  0  0  0  0
    4.6284    0.5180   -1.6041 C   0  0  0  0  0  0  0  0  0  0  0  0
    5.5250   -0.4285    0.4301 C   0  0  0  0  0  0  0  0  0  0  0  0
    5.7095    0.2857   -0.7538 C   0  0  0  0  0  0  0  0  0  0  0  0
   -5.3716   -1.0318   -0.8877 C   0  0  0  0  0  0  0  0  0  0  0  0
    1.8897    2.1032    2.8810 C   0  0  0  0  0  0  0  0  0  0  0  0
   -5.1209   -2.2446   -0.3585 C   0  0  0  0  0  0  0  0  0  0  0  0
   -2.1015    4.4852    1.1523 C   0  0  0  0  0  0  0  0  0  0  0  0
   -5.9887   -2.9497    0.6448 C   0  0  0  0  0  0  0  0  0  0  0  0
   -3.8945   -3.0159   -0.7689 C   0  0  0  0  0  0  0  0  0  0  0  0
    7.0623    1.4788   -2.3037 C   0  0  0  0  0  0  0  0  0  0  0  0
    0.3873   -0.0459   -1.6913 H   0  0  0  0  0  0  0  0  0  0  0  0
    0.9040    1.4081   -0.8473 H   0  0  0  0  0  0  0  0  0  0  0  0
   -1.8946   -0.7479   -1.7998 H   0  0  0  0  0  0  0  0  0  0  0  0
   -0.7091    2.7345    0.3506 H   0  0  0  0  0  0  0  0  0  0  0  0
    2.5592    0.2011   -1.9787 H   0  0  0  0  0  0  0  0  0  0  0  0
    4.1336   -1.4597    1.6936 H   0  0  0  0  0  0  0  0  0  0  0  0
   -5.2121    0.3371   -2.5252 H   0  0  0  0  0  0  0  0  0  0  0  0
   -4.0947   -0.9515   -2.6226 H   0  0  0  0  0  0  0  0  0  0  0  0
    1.7594   -4.3416    0.5969 H   0  0  0  0  0  0  0  0  0  0  0  0
    4.7035    1.0567   -2.5426 H   0  0  0  0  0  0  0  0  0  0  0  0
    6.3631   -0.6111    1.0971 H   0  0  0  0  0  0  0  0  0  0  0  0
   -6.2796   -0.5265   -0.5609 H   0  0  0  0  0  0  0  0  0  0  0  0
    2.7949    2.7039    2.7595 H   0  0  0  0  0  0  0  0  0  0  0  0
    1.9990    1.4793    3.7731 H   0  0  0  0  0  0  0  0  0  0  0  0
    1.0321    2.7754    2.9808 H   0  0  0  0  0  0  0  0  0  0  0  0
   -5.7294    1.6026   -1.0880 H   0  0  0  0  0  0  0  0  0  0  0  0
   -2.5373    5.3831    1.6029 H   0  0  0  0  0  0  0  0  0  0  0  0
   -1.3919    4.8255    0.3904 H   0  0  0  0  0  0  0  0  0  0  0  0
   -1.6127    3.9304    1.9606 H   0  0  0  0  0  0  0  0  0  0  0  0
   -6.3510   -3.8991    0.2377 H   0  0  0  0  0  0  0  0  0  0  0  0
   -5.4246   -3.1528    1.5607 H   0  0  0  0  0  0  0  0  0  0  0  0
   -6.8615   -2.3469    0.9162 H   0  0  0  0  0  0  0  0  0  0  0  0
   -3.2145   -3.1056    0.0844 H   0  0  0  0  0  0  0  0  0  0  0  0
   -4.1811   -4.0271   -1.0795 H   0  0  0  0  0  0  0  0  0  0  0  0
   -3.3304   -2.5900   -1.5978 H   0  0  0  0  0  0  0  0  0  0  0  0
    6.8293    0.8467   -3.1672 H   0  0  0  0  0  0  0  0  0  0  0  0
    8.1104    1.7800   -2.4018 H   0  0  0  0  0  0  0  0  0  0  0  0
    6.4659    2.3973   -2.2884 H   0  0  0  0  0  0  0  0  0  0  0  0
  1  9  1  0  0  0  0
  1 16  1  0  0  0  0
  2 14  1  0  0  0  0
  2 29  1  0  0  0  0
  3 13  1  0  0  0  0
  3 43  1  0  0  0  0
  4 14  2  0  0  0  0
  5 16  2  0  0  0  0
  6 20  1  0  0  0  0
  6 31  1  0  0  0  0
  7 21  1  0  0  0  0
  7 50  1  0  0  0  0
  8 27  1  0  0  0  0
  8 34  1  0  0  0  0
  9 10  1  0  0  0  0
  9 11  1  0  0  0  0
  9 14  1  0  0  0  0
 10 12  1  0  0  0  0
 10 35  1  0  0  0  0
 10 36  1  0  0  0  0
 11 13  2  0  0  0  0
 11 15  1  0  0  0  0
 12 17  2  0  0  0  0
 12 18  1  0  0  0  0
 13 16  1  0  0  0  0
 15 22  2  0  0  0  0
 15 23  1  0  0  0  0
 17 19  1  0  0  0  0
 17 37  1  0  0  0  0
 18 20  2  0  0  0  0
 18 38  1  0  0  0  0
 19 21  2  0  0  0  0
 19 24  1  0  0  0  0
 20 21  1  0  0  0  0
 22 25  1  0  0  0  0
 22 39  1  0  0  0  0
 23 26  2  0  0  0  0
 23 40  1  0  0  0  0
 24 28  1  0  0  0  0
 24 41  1  0  0  0  0
 24 42  1  0  0  0  0
 25 27  2  0  0  0  0
 25 44  1  0  0  0  0
 26 27  1  0  0  0  0
 26 45  1  0  0  0  0
 28 30  2  0  0  0  0
 28 46  1  0  0  0  0
 29 47  1  0  0  0  0
 29 48  1  0  0  0  0
 29 49  1  0  0  0  0
 30 32  1  0  0  0  0
 30 33  1  0  0  0  0
 31 51  1  0  0  0  0
 31 52  1  0  0  0  0
 31 53  1  0  0  0  0
 32 54  1  0  0  0  0
 32 55  1  0  0  0  0
 32 56  1  0  0  0  0
 33 57  1  0  0  0  0
 33 58  1  0  0  0  0
 33 59  1  0  0  0  0
 34 60  1  0  0  0  0
 34 61  1  0  0  0  0
 34 62  1  0  0  0  0
M  END
> <PUBCHEM_COMPOUND_CID>
139587983

> <PUBCHEM_CONFORMER_RMSD>
1

> <PUBCHEM_CONFORMER_DIVERSEORDER>
3
83
86
81
100
43
36
110
31
101
129
18
99
66
32
117
29
120
107
62
126
70
22
85
61
25
125
59
44
105
57
34
127
98
51
53
79
23
111
119
67
93
15
123
130
92
88
72
20
68
113
9
33
118
11
64
106
14
40
90
74
49
10
109
60
55
78
104
96
116
28
4
84
56
30
77
5
121
7
131
122
87
6
89
46
63
12
42
17
69
124
8
47
27
112
71
52
114
19
108
24
102
54
38
65
37
41
91
103
26
50
21
45
80
13
16
94
73
97
58
2
128
35
95
76
82
48
39
75
1
115

> <PUBCHEM_MMFF94_PARTIAL_CHARGES>
43
1 -0.43
10 0.14
11 -0.17
12 -0.14
13 0.09
14 0.66
15 0.03
16 0.71
17 -0.15
18 -0.15
19 -0.14
2 -0.43
20 0.08
21 0.08
22 -0.15
23 -0.15
24 0.28
25 -0.15
26 -0.15
27 0.08
28 -0.29
29 0.28
3 -0.53
30 -0.28
31 0.28
32 0.14
33 0.14
34 0.28
37 0.15
38 0.15
39 0.15
4 -0.57
40 0.15
43 0.45
44 0.15
45 0.15
46 0.15
5 -0.57
50 0.45
6 -0.36
7 -0.53
8 -0.36
9 0.48

> <PUBCHEM_EFFECTIVE_ROTOR_COUNT>
9.4

> <PUBCHEM_PHARMACOPHORE_FEATURES>
10
1 3 donor
1 4 acceptor
1 5 acceptor
1 6 acceptor
1 7 donor
1 8 acceptor
3 30 32 33 hydrophobe
5 1 9 11 13 16 rings
6 12 17 18 19 20 21 rings
6 15 22 23 25 26 27 rings

> <PUBCHEM_HEAVY_ATOM_COUNT>
34

> <PUBCHEM_ATOM_DEF_STEREO_COUNT>
1

> <PUBCHEM_ATOM_UDEF_STEREO_COUNT>
0

> <PUBCHEM_BOND_DEF_STEREO_COUNT>
0

> <PUBCHEM_BOND_UDEF_STEREO_COUNT>
0

> <PUBCHEM_ISOTOPIC_ATOM_COUNT>
0

> <PUBCHEM_COMPONENT_COUNT>
1

> <PUBCHEM_CACTVS_TAUTO_COUNT>
-1

> <PUBCHEM_CONFORMER_ID>
0851F18F00000003

> <PUBCHEM_MMFF94_ENERGY>
107.3987

> <PUBCHEM_FEATURE_SELFOVERLAP>
50.747

> <PUBCHEM_SHAPE_FINGERPRINT>
10076449 9 18267032832482519662
10366900 7 18058426756900796877
12788726 201 18409452526373103254
13631057 29 18335698377883708007
13726171 33 17559962013023087688
14856354 85 18341335595363720327
15328829 1 17024284479746004642
15629462 23 17345208722195642618
19319366 153 18122060897573698739
21033648 29 14475809919926686145
21033650 10 18057345911153942812
21120745 212 18342461430951788245
21796203 349 18046654432079241851
23536364 44 17989211425536456298
23559900 14 18339062857626528125
23569917 315 18186801362337132370
2838139 119 17458063742812032796
3493558 16 15578674233486852831
4258327 124 16589167098302294470
46194498 28 17130967885081000600
484989 97 18190749819875632726
5912855 24 18340210670435091019
6058803 2 17978496543432982903
6823239 73 18269257093287474817

> <PUBCHEM_SHAPE_MULTIPOLES>
652.75
14.03
4.29
1.98
9.78
0.94
0.61
-1.32
-8.18
-5.81
1.79
1.55
0.98
-0.9

> <PUBCHEM_SHAPE_SELFOVERLAP>
1405.434

> <PUBCHEM_SHAPE_VOLUME>
359.6

> <PUBCHEM_COORDINATE_TYPE>
2
5
10

$$$$
