139585999
  -OEChem-03292013293D

 53 53  0     1  0  0  0  0  0999 V2000
   -3.6515    1.7392    0.2732 O   0  0  0  0  0  0  0  0  0  0  0  0
   -1.3323    1.4610   -0.8298 O   0  0  0  0  0  0  0  0  0  0  0  0
   -5.1056   -1.1699   -1.3486 O   0  0  0  0  0  0  0  0  0  0  0  0
   -4.5748    0.8834   -2.1410 O   0  0  0  0  0  0  0  0  0  0  0  0
    1.2313   -2.3043    0.3585 O   0  0  0  0  0  0  0  0  0  0  0  0
    1.3955    1.9412   -0.5461 O   0  0  0  0  0  0  0  0  0  0  0  0
   -1.0754   -1.9328   -0.0460 N   0  0  0  0  0  0  0  0  0  0  0  0
   -4.1765    0.4131    0.2230 C   0  0  1  0  0  0  0  0  0  0  0  0
   -3.0503   -0.5671    0.6498 C   0  0  0  0  0  0  0  0  0  0  0  0
   -1.9994   -0.8448   -0.4094 C   0  0  1  0  0  0  0  0  0  0  0  0
   -5.3831    0.3676    1.2118 C   0  0  0  0  0  0  0  0  0  0  0  0
   -1.0356    0.3152   -0.5351 C   0  0  0  0  0  0  0  0  0  0  0  0
   -6.5205    1.3365    0.8711 C   0  0  0  0  0  0  0  0  0  0  0  0
   -4.9634    0.5764    2.6755 C   0  0  0  0  0  0  0  0  0  0  0  0
    0.3289   -0.1612   -0.2347 C   0  0  0  0  0  0  0  0  0  0  0  0
   -4.6346    0.0949   -1.2051 C   0  0  0  0  0  0  0  0  0  0  0  0
    0.2783   -1.6005    0.0754 C   0  0  0  0  0  0  0  0  0  0  0  0
   -1.5646   -3.2893    0.1132 C   0  0  0  0  0  0  0  0  0  0  0  0
    1.4362    0.5942   -0.2425 C   0  0  0  0  0  0  0  0  0  0  0  0
    2.7476    0.0549    0.0642 C   0  0  0  0  0  0  0  0  0  0  0  0
    3.8948    0.7532    0.0746 C   0  0  0  0  0  0  0  0  0  0  0  0
    5.1750    0.1566    0.3886 C   0  0  0  0  0  0  0  0  0  0  0  0
    7.6574    0.2415    0.7300 C   0  0  0  0  0  0  0  0  0  0  0  0
    6.3239    0.8488    0.4008 C   0  0  0  0  0  0  0  0  0  0  0  0
    8.6278    0.3654   -0.4450 C   0  0  0  0  0  0  0  0  0  0  0  0
    9.9708   -0.2733   -0.1264 C   0  0  0  0  0  0  0  0  0  0  0  0
   -3.5256   -1.5176    0.9223 H   0  0  0  0  0  0  0  0  0  0  0  0
   -2.5486   -0.2008    1.5553 H   0  0  0  0  0  0  0  0  0  0  0  0
   -2.3977   -1.0930   -1.3969 H   0  0  0  0  0  0  0  0  0  0  0  0
   -5.8176   -0.6407    1.1573 H   0  0  0  0  0  0  0  0  0  0  0  0
   -7.3572    1.2152    1.5676 H   0  0  0  0  0  0  0  0  0  0  0  0
   -4.2830   -0.2083    3.0185 H   0  0  0  0  0  0  0  0  0  0  0  0
   -6.9072    1.1570   -0.1369 H   0  0  0  0  0  0  0  0  0  0  0  0
   -5.8386    0.5432    3.3342 H   0  0  0  0  0  0  0  0  0  0  0  0
   -4.4773    1.5463    2.8212 H   0  0  0  0  0  0  0  0  0  0  0  0
   -6.1861    2.3777    0.9267 H   0  0  0  0  0  0  0  0  0  0  0  0
   -3.0346    1.8097    1.0205 H   0  0  0  0  0  0  0  0  0  0  0  0
   -2.1904   -3.3446    1.0071 H   0  0  0  0  0  0  0  0  0  0  0  0
   -0.7294   -3.9859    0.2249 H   0  0  0  0  0  0  0  0  0  0  0  0
   -2.1487   -3.5632   -0.7694 H   0  0  0  0  0  0  0  0  0  0  0  0
   -5.3839   -1.3541   -2.2710 H   0  0  0  0  0  0  0  0  0  0  0  0
    2.8602   -0.9895    0.3114 H   0  0  0  0  0  0  0  0  0  0  0  0
    0.4796    2.2025   -0.7344 H   0  0  0  0  0  0  0  0  0  0  0  0
    3.8963    1.8149   -0.1593 H   0  0  0  0  0  0  0  0  0  0  0  0
    5.1896   -0.9051    0.6219 H   0  0  0  0  0  0  0  0  0  0  0  0
    8.0679    0.7577    1.6061 H   0  0  0  0  0  0  0  0  0  0  0  0
    7.5457   -0.8140    1.0066 H   0  0  0  0  0  0  0  0  0  0  0  0
    6.3185    1.9128    0.1738 H   0  0  0  0  0  0  0  0  0  0  0  0
    8.7830    1.4218   -0.6957 H   0  0  0  0  0  0  0  0  0  0  0  0
    8.2049   -0.1176   -1.3344 H   0  0  0  0  0  0  0  0  0  0  0  0
    9.8564   -1.3400    0.0912 H   0  0  0  0  0  0  0  0  0  0  0  0
   10.6504   -0.1716   -0.9783 H   0  0  0  0  0  0  0  0  0  0  0  0
   10.4375    0.2066    0.7398 H   0  0  0  0  0  0  0  0  0  0  0  0
  1  8  1  0  0  0  0
  1 37  1  0  0  0  0
  2 12  2  0  0  0  0
  3 16  1  0  0  0  0
  3 41  1  0  0  0  0
  4 16  2  0  0  0  0
  5 17  2  0  0  0  0
  6 19  1  0  0  0  0
  6 43  1  0  0  0  0
  7 10  1  0  0  0  0
  7 17  1  0  0  0  0
  7 18  1  0  0  0  0
  8  9  1  0  0  0  0
  8 11  1  0  0  0  0
  8 16  1  0  0  0  0
  9 10  1  0  0  0  0
  9 27  1  0  0  0  0
  9 28  1  0  0  0  0
 10 12  1  0  0  0  0
 10 29  1  0  0  0  0
 11 13  1  0  0  0  0
 11 14  1  0  0  0  0
 11 30  1  0  0  0  0
 12 15  1  0  0  0  0
 13 31  1  0  0  0  0
 13 33  1  0  0  0  0
 13 36  1  0  0  0  0
 14 32  1  0  0  0  0
 14 34  1  0  0  0  0
 14 35  1  0  0  0  0
 15 17  1  0  0  0  0
 15 19  2  3  0  0  0
 18 38  1  0  0  0  0
 18 39  1  0  0  0  0
 18 40  1  0  0  0  0
 19 20  1  0  0  0  0
 20 21  2  3  0  0  0
 20 42  1  0  0  0  0
 21 22  1  0  0  0  0
 21 44  1  0  0  0  0
 22 24  2  3  0  0  0
 22 45  1  0  0  0  0
 23 24  1  0  0  0  0
 23 25  1  0  0  0  0
 23 46  1  0  0  0  0
 23 47  1  0  0  0  0
 24 48  1  0  0  0  0
 25 26  1  0  0  0  0
 25 49  1  0  0  0  0
 25 50  1  0  0  0  0
 26 51  1  0  0  0  0
 26 52  1  0  0  0  0
 26 53  1  0  0  0  0
M  END
> <PUBCHEM_COMPOUND_CID>
139585999

> <PUBCHEM_CONFORMER_RMSD>
1

> <PUBCHEM_CONFORMER_DIVERSEORDER>
1
8
9
11
10
13
12
7
6
5
3
2
4

> <PUBCHEM_MMFF94_PARTIAL_CHARGES>
27
1 -0.68
10 0.36
12 0.49
15 0.03
16 0.66
17 0.62
18 0.3
19 0.08
2 -0.57
20 -0.15
21 -0.15
22 -0.15
23 0.14
24 -0.29
3 -0.65
37 0.4
4 -0.57
41 0.5
42 0.15
43 0.45
44 0.15
45 0.15
48 0.15
5 -0.57
6 -0.53
7 -0.66
8 0.34

> <PUBCHEM_EFFECTIVE_ROTOR_COUNT>
8.4

> <PUBCHEM_PHARMACOPHORE_FEATURES>
12
1 1 acceptor
1 1 donor
1 15 anion
1 2 acceptor
1 26 hydrophobe
1 3 acceptor
1 4 acceptor
1 5 acceptor
1 6 donor
3 11 13 14 hydrophobe
3 3 4 16 anion
5 7 10 12 15 17 rings

> <PUBCHEM_HEAVY_ATOM_COUNT>
26

> <PUBCHEM_ATOM_DEF_STEREO_COUNT>
2

> <PUBCHEM_ATOM_UDEF_STEREO_COUNT>
0

> <PUBCHEM_BOND_DEF_STEREO_COUNT>
0

> <PUBCHEM_BOND_UDEF_STEREO_COUNT>
3

> <PUBCHEM_ISOTOPIC_ATOM_COUNT>
0

> <PUBCHEM_COMPONENT_COUNT>
1

> <PUBCHEM_CACTVS_TAUTO_COUNT>
-1

> <PUBCHEM_CONFORMER_ID>
0851E9CF00000001

> <PUBCHEM_MMFF94_ENERGY>
54.5533

> <PUBCHEM_FEATURE_SELFOVERLAP>
60.975

> <PUBCHEM_SHAPE_FINGERPRINT>
10 15 17821729429611639512
10674148 151 18411698795513344170
10883706 142 17132122342240712147
11089746 13 17561361812084866720
11135609 99 14202264758852141193
11315181 36 17917427670023425416
11524674 6 17632293502280032166
12091667 2 17676201381472675533
12104220 1 18272653441460882112
12236239 1 17917712367027240527
13140716 1 18190749828322999673
13533116 47 17988641840829532634
13540713 5 17973174112105406980
13583140 156 16588296212025890247
13914758 101 16271934788133604666
14251764 18 18412541008097734426
14251764 46 18335421270856900073
15021287 119 17240765124746131620
15183329 4 18411695487903371906
15849732 13 17167861968160396742
17093844 174 18335696200430045962
20105231 36 17822018593128982346
21033648 29 17677336000864950591
21756936 100 17989211443317783683
21781055 127 18057350352150178468
23402539 116 17775283876458306145
23559900 14 18198334247248253888
2838139 119 17346598599271857288
335352 9 18335415798878563894
4073 2 18261956371209056762
4093350 32 17059781019017499238
4938544 92 14056986201495799639
5104073 3 18191583262827532208
5385378 56 18339086981830153907
57527293 21 16808172209763973145
59755656 520 18341608235123015766
7226269 152 18131071532549368000

> <PUBCHEM_SHAPE_MULTIPOLES>
494.87
22.35
1.98
1.35
56.21
1.61
-0.25
-6.39
-2.92
-1.76
-0.09
-2.89
-0.35
-0.65

> <PUBCHEM_SHAPE_SELFOVERLAP>
1004.917

> <PUBCHEM_SHAPE_VOLUME>
285.7

> <PUBCHEM_COORDINATE_TYPE>
2
5
10

$$$$
