139584509
  -OEChem-03292013293D

 56 58  0     1  0  0  0  0  0999 V2000
   -3.1357    0.9962    0.7509 O   0  0  0  0  0  0  0  0  0  0  0  0
   -3.5367    0.9135   -1.5911 O   0  0  0  0  0  0  0  0  0  0  0  0
   -5.2762   -2.0542   -2.0859 O   0  0  0  0  0  0  0  0  0  0  0  0
    3.8102    2.0725   -0.1304 O   0  0  0  0  0  0  0  0  0  0  0  0
    6.4913    2.2727   -0.9082 O   0  0  0  0  0  0  0  0  0  0  0  0
    5.0853   -2.0851    0.2034 O   0  0  0  0  0  0  0  0  0  0  0  0
    7.1129   -1.1255   -0.5177 N   0  0  0  0  0  0  0  0  0  0  0  0
   -2.5312   -1.0077   -0.5336 C   0  0  2  0  0  0  0  0  0  0  0  0
   -2.9067   -0.4187    0.8452 C   0  0  1  0  0  0  0  0  0  0  0  0
   -3.4839   -0.5062   -1.6322 C   0  0  1  0  0  0  0  0  0  0  0  0
   -4.0174    1.3721   -0.3178 C   0  0  1  0  0  0  0  0  0  0  0  0
   -1.8108   -0.6155    1.8888 C   0  0  2  0  0  0  0  0  0  0  0  0
   -5.4319    0.8574   -0.0767 C   0  0  0  0  0  0  0  0  0  0  0  0
   -2.4270   -2.5317   -0.5189 C   0  0  0  0  0  0  0  0  0  0  0  0
   -4.9135   -1.0187   -1.5321 C   0  0  0  0  0  0  0  0  0  0  0  0
   -3.9634    2.8999   -0.4060 C   0  0  0  0  0  0  0  0  0  0  0  0
   -5.8695   -0.2523   -0.6941 C   0  0  0  0  0  0  0  0  0  0  0  0
   -2.2294   -0.0022    3.2271 C   0  0  0  0  0  0  0  0  0  0  0  0
   -0.5219    0.0191    1.4149 C   0  0  0  0  0  0  0  0  0  0  0  0
   -6.3078    1.5820    0.9049 C   0  0  0  0  0  0  0  0  0  0  0  0
    0.6726   -0.5654    1.1801 C   0  0  0  0  0  0  0  0  0  0  0  0
    0.9400   -2.0386    1.3471 C   0  0  0  0  0  0  0  0  0  0  0  0
    1.7858    0.2779    0.7299 C   0  0  0  0  0  0  0  0  0  0  0  0
    3.0373   -0.1270    0.4493 C   0  0  0  0  0  0  0  0  0  0  0  0
    4.1202    0.7332    0.0058 C   0  0  0  0  0  0  0  0  0  0  0  0
    5.3481    0.2638   -0.2577 C   0  0  0  0  0  0  0  0  0  0  0  0
    6.5008    1.0694   -0.7116 C   0  0  0  0  0  0  0  0  0  0  0  0
    7.6866    0.1611   -0.8905 C   0  0  0  0  0  0  0  0  0  0  0  0
    5.7719   -1.1418   -0.1427 C   0  0  0  0  0  0  0  0  0  0  0  0
   -1.5518   -0.6091   -0.8276 H   0  0  0  0  0  0  0  0  0  0  0  0
   -3.8228   -0.8934    1.2192 H   0  0  0  0  0  0  0  0  0  0  0  0
   -3.1041   -0.7809   -2.6231 H   0  0  0  0  0  0  0  0  0  0  0  0
   -1.6886   -1.6866    2.0643 H   0  0  0  0  0  0  0  0  0  0  0  0
   -3.3477   -2.9919   -0.1456 H   0  0  0  0  0  0  0  0  0  0  0  0
   -1.6044   -2.8752    0.1117 H   0  0  0  0  0  0  0  0  0  0  0  0
   -2.2417   -2.9163   -1.5276 H   0  0  0  0  0  0  0  0  0  0  0  0
   -2.9494    3.2281   -0.6661 H   0  0  0  0  0  0  0  0  0  0  0  0
   -4.2102    3.3758    0.5492 H   0  0  0  0  0  0  0  0  0  0  0  0
   -4.6324    3.2828   -1.1847 H   0  0  0  0  0  0  0  0  0  0  0  0
   -6.8639   -0.6571   -0.5503 H   0  0  0  0  0  0  0  0  0  0  0  0
   -2.3397    1.0867    3.1738 H   0  0  0  0  0  0  0  0  0  0  0  0
   -3.1827   -0.4220    3.5663 H   0  0  0  0  0  0  0  0  0  0  0  0
   -1.4810   -0.2174    3.9986 H   0  0  0  0  0  0  0  0  0  0  0  0
   -0.5929    1.0980    1.2651 H   0  0  0  0  0  0  0  0  0  0  0  0
   -5.7918    1.6944    1.8639 H   0  0  0  0  0  0  0  0  0  0  0  0
   -7.2415    1.0424    1.0974 H   0  0  0  0  0  0  0  0  0  0  0  0
   -6.5742    2.5744    0.5287 H   0  0  0  0  0  0  0  0  0  0  0  0
    1.1938   -2.4946    0.3838 H   0  0  0  0  0  0  0  0  0  0  0  0
    0.0949   -2.5973    1.7517 H   0  0  0  0  0  0  0  0  0  0  0  0
    1.7682   -2.2034    2.0457 H   0  0  0  0  0  0  0  0  0  0  0  0
    1.5482    1.3355    0.6218 H   0  0  0  0  0  0  0  0  0  0  0  0
    3.2229   -1.1808    0.5680 H   0  0  0  0  0  0  0  0  0  0  0  0
    8.0119    0.1198   -1.9310 H   0  0  0  0  0  0  0  0  0  0  0  0
    8.4933    0.4070   -0.1986 H   0  0  0  0  0  0  0  0  0  0  0  0
    7.6682   -1.9752   -0.5314 H   0  0  0  0  0  0  0  0  0  0  0  0
    4.5968    2.5570   -0.4294 H   0  0  0  0  0  0  0  0  0  0  0  0
  1  9  1  0  0  0  0
  1 11  1  0  0  0  0
  2 10  1  0  0  0  0
  2 11  1  0  0  0  0
  3 15  2  0  0  0  0
  4 25  1  0  0  0  0
  4 56  1  0  0  0  0
  5 27  2  0  0  0  0
  6 29  2  0  0  0  0
  7 28  1  0  0  0  0
  7 29  1  0  0  0  0
  7 55  1  0  0  0  0
  8  9  1  0  0  0  0
  8 10  1  0  0  0  0
  8 14  1  0  0  0  0
  8 30  1  0  0  0  0
  9 12  1  0  0  0  0
  9 31  1  0  0  0  0
 10 15  1  0  0  0  0
 10 32  1  0  0  0  0
 11 13  1  0  0  0  0
 11 16  1  0  0  0  0
 12 18  1  0  0  0  0
 12 19  1  0  0  0  0
 12 33  1  0  0  0  0
 13 17  2  0  0  0  0
 13 20  1  0  0  0  0
 14 34  1  0  0  0  0
 14 35  1  0  0  0  0
 14 36  1  0  0  0  0
 15 17  1  0  0  0  0
 16 37  1  0  0  0  0
 16 38  1  0  0  0  0
 16 39  1  0  0  0  0
 17 40  1  0  0  0  0
 18 41  1  0  0  0  0
 18 42  1  0  0  0  0
 18 43  1  0  0  0  0
 19 21  2  3  0  0  0
 19 44  1  0  0  0  0
 20 45  1  0  0  0  0
 20 46  1  0  0  0  0
 20 47  1  0  0  0  0
 21 22  1  0  0  0  0
 21 23  1  0  0  0  0
 22 48  1  0  0  0  0
 22 49  1  0  0  0  0
 22 50  1  0  0  0  0
 23 24  2  3  0  0  0
 23 51  1  0  0  0  0
 24 25  1  0  0  0  0
 24 52  1  0  0  0  0
 25 26  2  3  0  0  0
 26 27  1  0  0  0  0
 26 29  1  0  0  0  0
 27 28  1  0  0  0  0
 28 53  1  0  0  0  0
 28 54  1  0  0  0  0
M  END
> <PUBCHEM_COMPOUND_CID>
139584509

> <PUBCHEM_CONFORMER_RMSD>
0.8

> <PUBCHEM_CONFORMER_DIVERSEORDER>
1
10
19
8
2
21
7
20
13
25
9
17
6
5
15
3
23
4
22
12
18
24
16
11
14

> <PUBCHEM_MMFF94_PARTIAL_CHARGES>
31
1 -0.56
10 0.34
11 0.7
12 0.14
13 -0.28
15 0.49
17 -0.14
19 -0.29
2 -0.56
20 0.14
21 -0.14
22 0.14
23 -0.15
24 -0.15
25 0.08
26 0.03
27 0.49
28 0.36
29 0.62
3 -0.57
4 -0.53
40 0.15
44 0.15
5 -0.57
51 0.15
52 0.15
55 0.37
56 0.45
6 -0.57
7 -0.73
9 0.28

> <PUBCHEM_EFFECTIVE_ROTOR_COUNT>
5.2

> <PUBCHEM_PHARMACOPHORE_FEATURES>
13
1 1 acceptor
1 18 hydrophobe
1 2 acceptor
1 22 hydrophobe
1 26 anion
1 3 acceptor
1 4 donor
1 5 acceptor
1 6 acceptor
1 7 donor
5 7 26 27 28 29 rings
6 1 2 8 9 10 11 rings
6 2 10 11 13 15 17 rings

> <PUBCHEM_HEAVY_ATOM_COUNT>
29

> <PUBCHEM_ATOM_DEF_STEREO_COUNT>
5

> <PUBCHEM_ATOM_UDEF_STEREO_COUNT>
0

> <PUBCHEM_BOND_DEF_STEREO_COUNT>
0

> <PUBCHEM_BOND_UDEF_STEREO_COUNT>
3

> <PUBCHEM_ISOTOPIC_ATOM_COUNT>
0

> <PUBCHEM_COMPONENT_COUNT>
1

> <PUBCHEM_CACTVS_TAUTO_COUNT>
-1

> <PUBCHEM_CONFORMER_ID>
0851E3FD00000001

> <PUBCHEM_MMFF94_ENERGY>
72.6268

> <PUBCHEM_FEATURE_SELFOVERLAP>
67.471

> <PUBCHEM_SHAPE_FINGERPRINT>
10 15 13695592156899328494
10554248 39 18335150769954225630
10670039 82 17967809410438417788
10674148 151 15769777918917286507
12166972 35 17988358273333356464
12760667 363 13686300179780043131
13668630 136 17275108336449261030
13690498 29 17988069110971808807
13761468 95 18195245504000330173
13782708 43 13973964294632414122
14251752 14 17775565321385777819
15183329 4 18409726253640021686
15513586 35 12036316964241586159
17780758 139 9367344838496750565
18927931 339 15554450703899243289
20281389 69 15647052664370810968
21033648 29 17749954483382826104
21623969 137 10519990349053964744
21756936 100 17967535645265262897
23198884 109 18409165515383566375
23559900 14 16486676056893466251
2838139 119 18113898239002300708
3004659 81 17847056692863570874
4098825 35 18343021064762481159
484985 159 16487258811711631239
5085150 59 17203603766421787222
5265222 85 17988920132190823047
531348 171 18270962332331236382
59682541 35 16226058782299008361
59755656 520 17385726898036591787

> <PUBCHEM_SHAPE_MULTIPOLES>
556.61
20.12
2.28
1.9
29.73
0.33
0.89
4.65
-8.6
-0.67
-0.49
-2.61
-0.54
-1.68

> <PUBCHEM_SHAPE_SELFOVERLAP>
1179.859

> <PUBCHEM_SHAPE_VOLUME>
309.4

> <PUBCHEM_COORDINATE_TYPE>
2
5
10

$$$$
