139588160
  -OEChem-03292013293D

 70 72  0     1  0  0  0  0  0999 V2000
    7.4278    0.7331    0.8586 O   0  0  0  0  0  0  0  0  0  0  0  0
    5.6892    0.0536   -1.1999 O   0  0  0  0  0  0  0  0  0  0  0  0
   -0.9831   -1.1463    0.3002 O   0  0  0  0  0  0  0  0  0  0  0  0
   -1.8860    2.3284   -0.5727 O   0  0  0  0  0  0  0  0  0  0  0  0
   -3.6204   -0.6963   -1.2266 O   0  0  0  0  0  0  0  0  0  0  0  0
   -6.4243    0.9472    1.3560 O   0  0  0  0  0  0  0  0  0  0  0  0
   -1.7197   -1.1392    2.4897 O   0  0  0  0  0  0  0  0  0  0  0  0
   -5.1146   -2.2697   -1.8548 O   0  0  0  0  0  0  0  0  0  0  0  0
    6.7973   -0.5558    0.7885 C   0  0  1  0  0  0  0  0  0  0  0  0
    6.0081    0.6627    1.0531 C   0  0  2  0  0  0  0  0  0  0  0  0
    5.1699    0.9291   -0.1623 C   0  0  1  0  0  0  0  0  0  0  0  0
    6.4755   -1.0054   -0.5968 C   0  0  1  0  0  0  0  0  0  0  0  0
    7.2141   -1.4932    1.8605 C   0  0  0  0  0  0  0  0  0  0  0  0
    5.3375    2.3689   -0.6481 C   0  0  0  0  0  0  0  0  0  0  0  0
    5.6668   -2.2924   -0.6576 C   0  0  0  0  0  0  0  0  0  0  0  0
    3.7156    0.6268    0.0178 C   0  0  0  0  0  0  0  0  0  0  0  0
    2.8388    0.2246   -0.9220 C   0  0  0  0  0  0  0  0  0  0  0  0
    3.2720   -0.0198   -2.3413 C   0  0  0  0  0  0  0  0  0  0  0  0
    1.4346   -0.0512   -0.6713 C   0  0  0  0  0  0  0  0  0  0  0  0
    0.5880    0.6374    0.1232 C   0  0  0  0  0  0  0  0  0  0  0  0
   -0.8816    0.2825    0.3250 C   0  0  1  0  0  0  0  0  0  0  0  0
   -1.8797    0.9047   -0.6934 C   0  0  1  0  0  0  0  0  0  0  0  0
    1.1094    1.8461    0.8625 C   0  0  0  0  0  0  0  0  0  0  0  0
   -3.2836    0.4258   -0.4339 C   0  0  0  0  0  0  0  0  0  0  0  0
   -1.5224    0.5653   -2.1432 C   0  0  0  0  0  0  0  0  0  0  0  0
   -4.1689    0.9645    0.4236 C   0  0  0  0  0  0  0  0  0  0  0  0
   -1.4167   -1.7215    1.4572 C   0  0  0  0  0  0  0  0  0  0  0  0
   -5.4962    0.3716    0.5037 C   0  0  0  0  0  0  0  0  0  0  0  0
   -3.8324    2.1163    1.3345 C   0  0  0  0  0  0  0  0  0  0  0  0
   -5.8464   -0.6988   -0.2344 C   0  0  0  0  0  0  0  0  0  0  0  0
   -4.8461   -1.2902   -1.1659 C   0  0  0  0  0  0  0  0  0  0  0  0
   -1.4728   -3.2092    1.2851 C   0  0  0  0  0  0  0  0  0  0  0  0
   -7.1956   -1.3542   -0.2025 C   0  0  0  0  0  0  0  0  0  0  0  0
   -7.1542    1.9547    0.6876 C   0  0  0  0  0  0  0  0  0  0  0  0
    5.5968    0.8906    2.0220 H   0  0  0  0  0  0  0  0  0  0  0  0
    7.3882   -1.1166   -1.1919 H   0  0  0  0  0  0  0  0  0  0  0  0
    8.0656   -2.0970    1.5311 H   0  0  0  0  0  0  0  0  0  0  0  0
    6.3952   -2.1687    2.1269 H   0  0  0  0  0  0  0  0  0  0  0  0
    7.5129   -0.9615    2.7705 H   0  0  0  0  0  0  0  0  0  0  0  0
    6.3870    2.5812   -0.8846 H   0  0  0  0  0  0  0  0  0  0  0  0
    5.0142    3.0880    0.1131 H   0  0  0  0  0  0  0  0  0  0  0  0
    4.7740    2.5646   -1.5668 H   0  0  0  0  0  0  0  0  0  0  0  0
    4.7396   -2.2134   -0.0805 H   0  0  0  0  0  0  0  0  0  0  0  0
    6.2384   -3.1388   -0.2645 H   0  0  0  0  0  0  0  0  0  0  0  0
    5.3849   -2.5200   -1.6907 H   0  0  0  0  0  0  0  0  0  0  0  0
    3.3765    0.7294    1.0453 H   0  0  0  0  0  0  0  0  0  0  0  0
    4.0100    0.6991   -2.7052 H   0  0  0  0  0  0  0  0  0  0  0  0
    2.4210    0.0934   -3.0259 H   0  0  0  0  0  0  0  0  0  0  0  0
    3.6449   -1.0400   -2.4692 H   0  0  0  0  0  0  0  0  0  0  0  0
    1.0478   -0.9101   -1.2179 H   0  0  0  0  0  0  0  0  0  0  0  0
   -1.1343    0.6701    1.3194 H   0  0  0  0  0  0  0  0  0  0  0  0
    1.8554    2.4208    0.3070 H   0  0  0  0  0  0  0  0  0  0  0  0
    0.2916    2.5548    1.0387 H   0  0  0  0  0  0  0  0  0  0  0  0
    1.4896    1.5639    1.8492 H   0  0  0  0  0  0  0  0  0  0  0  0
   -0.5960    1.0659   -2.4483 H   0  0  0  0  0  0  0  0  0  0  0  0
   -1.3918   -0.5088   -2.3149 H   0  0  0  0  0  0  0  0  0  0  0  0
   -2.2850    0.9381   -2.8395 H   0  0  0  0  0  0  0  0  0  0  0  0
   -1.0298    2.6654   -0.8860 H   0  0  0  0  0  0  0  0  0  0  0  0
   -2.7782    2.1587    1.6167 H   0  0  0  0  0  0  0  0  0  0  0  0
   -4.3681    2.0336    2.2873 H   0  0  0  0  0  0  0  0  0  0  0  0
   -4.1156    3.0673    0.8722 H   0  0  0  0  0  0  0  0  0  0  0  0
   -0.4766   -3.5933    1.0518 H   0  0  0  0  0  0  0  0  0  0  0  0
   -2.1799   -3.4630    0.4912 H   0  0  0  0  0  0  0  0  0  0  0  0
   -1.8145   -3.6694    2.2166 H   0  0  0  0  0  0  0  0  0  0  0  0
   -7.8570   -0.9348    0.5613 H   0  0  0  0  0  0  0  0  0  0  0  0
   -7.0940   -2.4228    0.0157 H   0  0  0  0  0  0  0  0  0  0  0  0
   -7.6930   -1.2445   -1.1718 H   0  0  0  0  0  0  0  0  0  0  0  0
   -7.7303    1.5495   -0.1516 H   0  0  0  0  0  0  0  0  0  0  0  0
   -6.5059    2.7635    0.3341 H   0  0  0  0  0  0  0  0  0  0  0  0
   -7.8646    2.3864    1.3992 H   0  0  0  0  0  0  0  0  0  0  0  0
  1  9  1  0  0  0  0
  1 10  1  0  0  0  0
  2 11  1  0  0  0  0
  2 12  1  0  0  0  0
  3 21  1  0  0  0  0
  3 27  1  0  0  0  0
  4 22  1  0  0  0  0
  4 58  1  0  0  0  0
  5 24  1  0  0  0  0
  5 31  1  0  0  0  0
  6 28  1  0  0  0  0
  6 34  1  0  0  0  0
  7 27  2  0  0  0  0
  8 31  2  0  0  0  0
  9 10  1  0  0  0  0
  9 12  1  0  0  0  0
  9 13  1  0  0  0  0
 10 11  1  0  0  0  0
 10 35  1  0  0  0  0
 11 14  1  0  0  0  0
 11 16  1  0  0  0  0
 12 15  1  0  0  0  0
 12 36  1  0  0  0  0
 13 37  1  0  0  0  0
 13 38  1  0  0  0  0
 13 39  1  0  0  0  0
 14 40  1  0  0  0  0
 14 41  1  0  0  0  0
 14 42  1  0  0  0  0
 15 43  1  0  0  0  0
 15 44  1  0  0  0  0
 15 45  1  0  0  0  0
 16 17  2  0  0  0  0
 16 46  1  0  0  0  0
 17 18  1  0  0  0  0
 17 19  1  0  0  0  0
 18 47  1  0  0  0  0
 18 48  1  0  0  0  0
 18 49  1  0  0  0  0
 19 20  2  0  0  0  0
 19 50  1  0  0  0  0
 20 21  1  0  0  0  0
 20 23  1  0  0  0  0
 21 22  1  0  0  0  0
 21 51  1  0  0  0  0
 22 24  1  0  0  0  0
 22 25  1  0  0  0  0
 23 52  1  0  0  0  0
 23 53  1  0  0  0  0
 23 54  1  0  0  0  0
 24 26  2  0  0  0  0
 25 55  1  0  0  0  0
 25 56  1  0  0  0  0
 25 57  1  0  0  0  0
 26 28  1  0  0  0  0
 26 29  1  0  0  0  0
 27 32  1  0  0  0  0
 28 30  2  0  0  0  0
 29 59  1  0  0  0  0
 29 60  1  0  0  0  0
 29 61  1  0  0  0  0
 30 31  1  0  0  0  0
 30 33  1  0  0  0  0
 32 62  1  0  0  0  0
 32 63  1  0  0  0  0
 32 64  1  0  0  0  0
 33 65  1  0  0  0  0
 33 66  1  0  0  0  0
 33 67  1  0  0  0  0
 34 68  1  0  0  0  0
 34 69  1  0  0  0  0
 34 70  1  0  0  0  0
M  END
> <PUBCHEM_COMPOUND_CID>
139588160

> <PUBCHEM_CONFORMER_RMSD>
1

> <PUBCHEM_CONFORMER_DIVERSEORDER>
117
174
119
152
44
115
103
63
2
60
39
173
110
144
74
141
93
130
98
125
68
146
46
85
36
151
109
163
123
155
92
135
58
122
133
66
131
116
172
86
14
178
127
61
73
145
176
126
34
101
161
158
84
137
147
107
53
97
18
124
54
170
132
171
81
35
29
143
75
104
164
159
121
113
64
72
22
162
6
48
114
136
160
90
15
32
140
79
11
21
102
175
139
165
55
7
177
5
25
82
157
105
100
83
12
37
20
26
138
77
28
96
91
129
153
31
154
169
106
65
148
33
69
17
95
30
142
1
10
57
166
94
167
27
87
149
8
71
88
150
134
23
111
59
67
13
62
120
118
40
112
70
89
43
9
156
99
80
168
128
3
50
52
45
51
56
24
42
38
41
108
76
19
78
47
4
16
49

> <PUBCHEM_MMFF94_PARTIAL_CHARGES>
35
1 -0.3
10 -0.05
11 0.51
12 0.38
13 0.09
16 -0.29
17 -0.14
18 0.14
19 -0.15
2 -0.56
20 -0.28
21 0.42
22 0.42
23 0.14
24 -0.06
26 -0.14
27 0.66
28 0.08
29 0.14
3 -0.43
30 -0.12
31 0.71
32 0.06
33 0.14
34 0.28
35 0.1
4 -0.68
46 0.15
5 -0.23
50 0.15
58 0.4
6 -0.36
7 -0.57
8 -0.57
9 -0.04

> <PUBCHEM_EFFECTIVE_ROTOR_COUNT>
8.8

> <PUBCHEM_PHARMACOPHORE_FEATURES>
11
1 1 acceptor
1 18 hydrophobe
1 2 acceptor
1 23 hydrophobe
1 4 acceptor
1 4 donor
1 6 acceptor
1 7 acceptor
1 8 acceptor
6 1 2 9 10 11 12 rings
6 5 24 26 28 30 31 rings

> <PUBCHEM_HEAVY_ATOM_COUNT>
34

> <PUBCHEM_ATOM_DEF_STEREO_COUNT>
5

> <PUBCHEM_ATOM_UDEF_STEREO_COUNT>
1

> <PUBCHEM_BOND_DEF_STEREO_COUNT>
2

> <PUBCHEM_BOND_UDEF_STEREO_COUNT>
0

> <PUBCHEM_ISOTOPIC_ATOM_COUNT>
0

> <PUBCHEM_COMPONENT_COUNT>
1

> <PUBCHEM_CACTVS_TAUTO_COUNT>
-1

> <PUBCHEM_CONFORMER_ID>
0851F24000000075

> <PUBCHEM_MMFF94_ENERGY>
110.1939

> <PUBCHEM_FEATURE_SELFOVERLAP>
55.829

> <PUBCHEM_SHAPE_FINGERPRINT>
10 15 16774075185306766044
10299344 5 18412545426949143036
11135926 11 18260263011469406479
11719270 70 17203612566898895334
11991303 11 15936700353502009779
12166972 35 17676206875369513084
13383668 251 14116931644472898523
13533116 47 18334859381955664034
13782708 43 18334857233886362766
14118638 360 13326588341325970072
14394314 77 18336265648579880385
14856354 85 17988924509368964447
15183329 4 17603586331219524202
15419008 42 17415567501765006404
1577012 14 18411984693341693884
15849732 13 15430034370225656062
19958102 18 17822004311687547650
21130935 74 18060420205509909926
21150785 3 9727627306543458544
21781051 124 16878244024897343611
23522609 53 18196396855345435029
23559900 14 18042682995204008084
23569917 315 17822017531750405851
23569943 247 18190177880118513338
3383291 50 18187085078442304771
4015057 19 18338232790339575928
4073 2 18339363088635379274
5104073 3 17346042164767810830
59755656 215 13551464856900043400
59755656 520 18113337527096151579

> <PUBCHEM_SHAPE_MULTIPOLES>
652.75
21.71
2.45
1.8
10.83
0.76
0.16
1.65
-3.12
-0.92
-0.53
0.1
0.46
-1.57

> <PUBCHEM_SHAPE_SELFOVERLAP>
1370.827

> <PUBCHEM_SHAPE_VOLUME>
370.7

> <PUBCHEM_COORDINATE_TYPE>
2
5
10

$$$$
