139589374
  -OEChem-03292013293D

 38 37  0     1  0  0  0  0  0999 V2000
   -5.0050    0.3045   -1.4346 O   0  0  0  0  0  0  0  0  0  0  0  0
    3.3648   -1.8872    0.8050 O   0  0  0  0  0  0  0  0  0  0  0  0
   -1.2577   -0.5030    1.6463 O   0  5  0  0  0  0  0  0  0  0  0  0
   -2.3598   -0.0300   -0.2841 N   0  0  0  0  0  0  0  0  0  0  0  0
   -1.2835   -0.1932    0.3959 N   0  3  0  0  0  0  0  0  0  0  0  0
    3.3814   -1.9026   -1.4919 N   0  0  0  0  0  0  0  0  0  0  0  0
    2.4090    0.0137   -0.3640 C   0  0  2  0  0  0  0  0  0  0  0  0
    3.2557    1.1007    0.3200 C   0  0  0  0  0  0  0  0  0  0  0  0
   -3.5943   -0.2261    0.4817 C   0  0  1  0  0  0  0  0  0  0  0  0
    4.6162    1.3034   -0.3535 C   0  0  0  0  0  0  0  0  0  0  0  0
   -4.7049    0.6676   -0.0891 C   0  0  1  0  0  0  0  0  0  0  0  0
    1.0623   -0.1559    0.2917 C   0  0  0  0  0  0  0  0  0  0  0  0
    3.1047   -1.3396   -0.2644 C   0  0  0  0  0  0  0  0  0  0  0  0
   -3.9542   -1.7064    0.4187 C   0  0  0  0  0  0  0  0  0  0  0  0
    5.4157    2.4015    0.3305 C   0  0  0  0  0  0  0  0  0  0  0  0
   -4.3585    2.1515   -0.0428 C   0  0  0  0  0  0  0  0  0  0  0  0
   -0.0919    0.0013   -0.3654 C   0  0  0  0  0  0  0  0  0  0  0  0
    2.2789    0.2885   -1.4187 H   0  0  0  0  0  0  0  0  0  0  0  0
    3.4156    0.8453    1.3761 H   0  0  0  0  0  0  0  0  0  0  0  0
    2.7027    2.0490    0.3070 H   0  0  0  0  0  0  0  0  0  0  0  0
   -3.4817    0.0668    1.5338 H   0  0  0  0  0  0  0  0  0  0  0  0
    4.4725    1.5658   -1.4080 H   0  0  0  0  0  0  0  0  0  0  0  0
    5.2003    0.3771   -0.3251 H   0  0  0  0  0  0  0  0  0  0  0  0
   -5.6181    0.5042    0.4961 H   0  0  0  0  0  0  0  0  0  0  0  0
    1.0871   -0.4056    1.3500 H   0  0  0  0  0  0  0  0  0  0  0  0
   -4.0516   -2.0544   -0.6156 H   0  0  0  0  0  0  0  0  0  0  0  0
   -4.9017   -1.8981    0.9329 H   0  0  0  0  0  0  0  0  0  0  0  0
   -3.1854   -2.3229    0.8964 H   0  0  0  0  0  0  0  0  0  0  0  0
    5.6041    2.1539    1.3800 H   0  0  0  0  0  0  0  0  0  0  0  0
    4.8825    3.3568    0.2927 H   0  0  0  0  0  0  0  0  0  0  0  0
    6.3821    2.5323   -0.1665 H   0  0  0  0  0  0  0  0  0  0  0  0
   -5.2064    2.7506   -0.3926 H   0  0  0  0  0  0  0  0  0  0  0  0
   -4.1067    2.4697    0.9733 H   0  0  0  0  0  0  0  0  0  0  0  0
   -3.5196    2.3869   -0.7063 H   0  0  0  0  0  0  0  0  0  0  0  0
   -0.1505    0.2565   -1.4169 H   0  0  0  0  0  0  0  0  0  0  0  0
   -5.7359    0.8703   -1.7365 H   0  0  0  0  0  0  0  0  0  0  0  0
    3.8348   -2.8079   -1.5572 H   0  0  0  0  0  0  0  0  0  0  0  0
    3.1550   -1.4455   -2.3692 H   0  0  0  0  0  0  0  0  0  0  0  0
  1 11  1  0  0  0  0
  1 36  1  0  0  0  0
  2 13  2  0  0  0  0
  3  5  1  0  0  0  0
  4  5  2  0  0  0  0
  4  9  1  0  0  0  0
  5 17  1  0  0  0  0
  6 13  1  0  0  0  0
  6 37  1  0  0  0  0
  6 38  1  0  0  0  0
  7  8  1  0  0  0  0
  7 12  1  0  0  0  0
  7 13  1  0  0  0  0
  7 18  1  0  0  0  0
  8 10  1  0  0  0  0
  8 19  1  0  0  0  0
  8 20  1  0  0  0  0
  9 11  1  0  0  0  0
  9 14  1  0  0  0  0
  9 21  1  0  0  0  0
 10 15  1  0  0  0  0
 10 22  1  0  0  0  0
 10 23  1  0  0  0  0
 11 16  1  0  0  0  0
 11 24  1  0  0  0  0
 12 17  2  0  0  0  0
 12 25  1  0  0  0  0
 14 26  1  0  0  0  0
 14 27  1  0  0  0  0
 14 28  1  0  0  0  0
 15 29  1  0  0  0  0
 15 30  1  0  0  0  0
 15 31  1  0  0  0  0
 16 32  1  0  0  0  0
 16 33  1  0  0  0  0
 16 34  1  0  0  0  0
 17 35  1  0  0  0  0
M  CHG  2   3  -1   5   1
M  END
> <PUBCHEM_COMPOUND_CID>
139589374

> <PUBCHEM_CONFORMER_RMSD>
1

> <PUBCHEM_CONFORMER_DIVERSEORDER>
1
56
118
40
71
145
51
142
16
54
55
117
42
125
134
81
82
59
90
11
141
12
154
99
39
28
67
33
152
13
103
68
151
100
98
147
36
24
77
144
26
116
143
148
45
150
47
96
133
108
21
129
131
27
126
2
112
135
74
113
48
29
62
88
61
146
9
109
136
31
23
83
91
58
111
123
155
138
46
128
121
132
17
52
19
76
139
137
107
102
65
106
25
73
53
86
64
153
41
32
104
75
34
140
80
97
43
7
120
156
30
66
92
95
124
20
114
85
38
10
60
93
122
37
101
44
69
63
78
87
149
84
105
115
50
6
8
14
70
15
119
72
89
110
5
79
127
22
49
35
3
57
18
130
4
94

> <PUBCHEM_MMFF94_PARTIAL_CHARGES>
17
1 -0.68
11 0.28
12 -0.29
13 0.57
17 -0.19
2 -0.57
25 0.15
3 -0.63
35 0.15
36 0.4
37 0.37
38 0.37
4 -0.45
5 0.88
6 -0.8
7 0.2
9 0.25

> <PUBCHEM_EFFECTIVE_ROTOR_COUNT>
7

> <PUBCHEM_PHARMACOPHORE_FEATURES>
7
1 1 acceptor
1 1 donor
1 15 hydrophobe
1 2 acceptor
1 3 anion
1 6 donor
4 7 8 10 12 hydrophobe

> <PUBCHEM_HEAVY_ATOM_COUNT>
17

> <PUBCHEM_ATOM_DEF_STEREO_COUNT>
0

> <PUBCHEM_ATOM_UDEF_STEREO_COUNT>
3

> <PUBCHEM_BOND_DEF_STEREO_COUNT>
1

> <PUBCHEM_BOND_UDEF_STEREO_COUNT>
0

> <PUBCHEM_ISOTOPIC_ATOM_COUNT>
0

> <PUBCHEM_COMPONENT_COUNT>
1

> <PUBCHEM_CACTVS_TAUTO_COUNT>
-1

> <PUBCHEM_CONFORMER_ID>
0851F6FE00000001

> <PUBCHEM_MMFF94_ENERGY>
27.0936

> <PUBCHEM_FEATURE_SELFOVERLAP>
35.521

> <PUBCHEM_SHAPE_FINGERPRINT>
10014705 185 17967809449504105821
10366900 7 14979961371375460310
10912923 1 17989487403250316619
11128504 68 15267064795727985840
11132069 177 17313103042830879821
11405975 8 18335421223105929403
12616999 72 17561365084717966918
12916748 109 17822015298440399961
13073987 5 18333733507517763353
13675066 3 17603312531364838609
13760787 5 17561091288884363915
14528608 73 18130786802124603084
15375358 24 18040720307134896896
17834072 33 18202002144374691318
17844677 252 18337118882097162857
18186145 218 18040436555783353567
18222031 100 14333402350823627385
19026448 4 18410017636900568835
20279233 1 17822018635440007146
20369508 70 18188769423535800954
20645477 56 18334295396656603233
20645477 70 18271810086003902582
21452121 103 18408036308768799744
22289505 5 18341610395855737764
22485316 2 18335139795373936587
23402539 116 17603856857865440749
23402655 69 18343584048964766972
23557571 272 18188776170665087665
23559900 14 17967823717232709574
300161 21 18408036334042568767
3545911 37 18410296938423432577
441001 317 18408603677922152937
449060 50 18339647840387209092
5104073 3 18187086135240876433
59755656 215 18342183254868001348
633830 44 18339359665325034815
77779 3 18410014321074916571
81539 233 18339647840993766788
90127 26 18337682922935165801
9971528 1 17749391447044437420

> <PUBCHEM_SHAPE_MULTIPOLES>
317.3
12.83
2.14
1.03
1.99
0.28
0.06
5.43
1.32
-1.76
0.02
0.19
-0.29
0.97

> <PUBCHEM_SHAPE_SELFOVERLAP>
605.978

> <PUBCHEM_SHAPE_VOLUME>
195

> <PUBCHEM_COORDINATE_TYPE>
2
5
10

$$$$
