139583837
  -OEChem-03292013293D

 73 74  0     1  0  0  0  0  0999 V2000
    2.0619    1.0996    0.2729 O   0  0  0  0  0  0  0  0  0  0  0  0
    4.8816   -2.1644   -1.8112 O   0  0  0  0  0  0  0  0  0  0  0  0
    2.2272   -4.0541    1.9784 O   0  0  0  0  0  0  0  0  0  0  0  0
   -3.8186   -0.6305    2.7584 O   0  0  0  0  0  0  0  0  0  0  0  0
    0.9788    3.0604   -0.2781 O   0  0  0  0  0  0  0  0  0  0  0  0
   -6.0280   -1.4947   -0.7232 O   0  0  0  0  0  0  0  0  0  0  0  0
   -3.9585    2.1161   -1.1367 O   0  0  0  0  0  0  0  0  0  0  0  0
   -5.0710    0.6006   -2.4735 O   0  0  0  0  0  0  0  0  0  0  0  0
    1.3786   -1.0185   -0.7489 C   0  0  1  0  0  0  0  0  0  0  0  0
    0.5074   -1.2991    0.5118 C   0  0  2  0  0  0  0  0  0  0  0  0
    1.6161    0.5044   -0.9437 C   0  0  2  0  0  0  0  0  0  0  0  0
    2.6935   -1.7995   -0.7378 C   0  0  0  0  0  0  0  0  0  0  0  0
    0.4945   -2.7901    0.8924 C   0  0  2  0  0  0  0  0  0  0  0  0
    3.9327    0.0678   -1.9639 C   0  0  2  0  0  0  0  0  0  0  0  0
    2.6026    0.8293   -2.0705 C   0  0  0  0  0  0  0  0  0  0  0  0
    3.6534   -1.4414   -1.8638 C   0  0  1  0  0  0  0  0  0  0  0  0
   -0.9152   -0.7474    0.3630 C   0  0  0  0  0  0  0  0  0  0  0  0
    2.9556   -2.7788    0.1443 C   0  0  0  0  0  0  0  0  0  0  0  0
    1.9236   -3.2506    1.0985 C   0  0  0  0  0  0  0  0  0  0  0  0
   -1.7257   -0.9983    1.6305 C   0  0  0  0  0  0  0  0  0  0  0  0
   -0.2012   -3.7139   -0.1049 C   0  0  0  0  0  0  0  0  0  0  0  0
    4.8274    0.5989   -0.8370 C   0  0  0  0  0  0  0  0  0  0  0  0
   -3.1463   -0.4333    1.5121 C   0  0  1  0  0  0  0  0  0  0  0  0
    1.6682    2.3940    0.4831 C   0  0  0  0  0  0  0  0  0  0  0  0
   -3.9786   -1.1144    0.4176 C   0  0  0  0  0  0  0  0  0  0  0  0
    2.2399    2.9015    1.7961 C   0  0  1  0  0  0  0  0  0  0  0  0
   -5.4427   -0.6756    0.2950 C   0  0  1  0  0  0  0  0  0  0  0  0
    2.5272    4.4088    1.7392 C   0  0  0  0  0  0  0  0  0  0  0  0
    1.2469    2.5787    2.9092 C   0  0  0  0  0  0  0  0  0  0  0  0
   -5.5977    0.7954   -0.1030 C   0  0  0  0  0  0  0  0  0  0  0  0
    3.5246    4.7728    0.6467 C   0  0  0  0  0  0  0  0  0  0  0  0
   -4.8690    1.1289   -1.3890 C   0  0  0  0  0  0  0  0  0  0  0  0
   -3.1893    2.5474   -2.2640 C   0  0  0  0  0  0  0  0  0  0  0  0
    0.8305   -1.3709   -1.6351 H   0  0  0  0  0  0  0  0  0  0  0  0
    0.9718   -0.7770    1.3618 H   0  0  0  0  0  0  0  0  0  0  0  0
    0.6512    0.9395   -1.2338 H   0  0  0  0  0  0  0  0  0  0  0  0
    0.0276   -2.9157    1.8760 H   0  0  0  0  0  0  0  0  0  0  0  0
    4.4895    0.2468   -2.8943 H   0  0  0  0  0  0  0  0  0  0  0  0
    2.8053    1.9065   -2.1030 H   0  0  0  0  0  0  0  0  0  0  0  0
    2.1324    0.5687   -3.0279 H   0  0  0  0  0  0  0  0  0  0  0  0
    3.1645   -1.7586   -2.7952 H   0  0  0  0  0  0  0  0  0  0  0  0
   -0.8878    0.3331    0.1858 H   0  0  0  0  0  0  0  0  0  0  0  0
   -1.3880   -1.1977   -0.5145 H   0  0  0  0  0  0  0  0  0  0  0  0
    3.8942   -3.3213    0.1505 H   0  0  0  0  0  0  0  0  0  0  0  0
   -1.8256   -2.0640    1.8581 H   0  0  0  0  0  0  0  0  0  0  0  0
   -1.2247   -0.5464    2.4960 H   0  0  0  0  0  0  0  0  0  0  0  0
    0.2266   -3.6349   -1.1092 H   0  0  0  0  0  0  0  0  0  0  0  0
   -1.2719   -3.5000   -0.1720 H   0  0  0  0  0  0  0  0  0  0  0  0
   -0.0961   -4.7601    0.2047 H   0  0  0  0  0  0  0  0  0  0  0  0
    4.4514    0.3361    0.1556 H   0  0  0  0  0  0  0  0  0  0  0  0
    4.9191    1.6887   -0.8922 H   0  0  0  0  0  0  0  0  0  0  0  0
    5.8362    0.1805   -0.9216 H   0  0  0  0  0  0  0  0  0  0  0  0
   -3.0985    0.6459    1.3312 H   0  0  0  0  0  0  0  0  0  0  0  0
    5.4023   -1.9172   -2.5944 H   0  0  0  0  0  0  0  0  0  0  0  0
   -3.4954   -1.0092   -0.5596 H   0  0  0  0  0  0  0  0  0  0  0  0
   -3.9851   -2.1968    0.6120 H   0  0  0  0  0  0  0  0  0  0  0  0
    3.1859    2.3788    1.9871 H   0  0  0  0  0  0  0  0  0  0  0  0
   -5.9821   -0.8723    1.2276 H   0  0  0  0  0  0  0  0  0  0  0  0
   -3.3109   -0.1612    3.4422 H   0  0  0  0  0  0  0  0  0  0  0  0
    1.5996    4.9696    1.5709 H   0  0  0  0  0  0  0  0  0  0  0  0
    2.9278    4.7381    2.7057 H   0  0  0  0  0  0  0  0  0  0  0  0
    0.2847    3.0753    2.7411 H   0  0  0  0  0  0  0  0  0  0  0  0
    1.0545    1.5013    2.9606 H   0  0  0  0  0  0  0  0  0  0  0  0
    1.6328    2.8998    3.8821 H   0  0  0  0  0  0  0  0  0  0  0  0
   -5.2487    1.4450    0.7073 H   0  0  0  0  0  0  0  0  0  0  0  0
   -6.6533    1.0393   -0.2722 H   0  0  0  0  0  0  0  0  0  0  0  0
   -6.9648   -1.2441   -0.7958 H   0  0  0  0  0  0  0  0  0  0  0  0
    3.1339    4.5671   -0.3537 H   0  0  0  0  0  0  0  0  0  0  0  0
    4.4603    4.2182    0.7712 H   0  0  0  0  0  0  0  0  0  0  0  0
    3.7579    5.8414    0.6959 H   0  0  0  0  0  0  0  0  0  0  0  0
   -2.5105    3.3367   -1.9301 H   0  0  0  0  0  0  0  0  0  0  0  0
   -3.8464    2.9529   -3.0392 H   0  0  0  0  0  0  0  0  0  0  0  0
   -2.5947    1.7162   -2.6552 H   0  0  0  0  0  0  0  0  0  0  0  0
  1 11  1  0  0  0  0
  1 24  1  0  0  0  0
  2 16  1  0  0  0  0
  2 54  1  0  0  0  0
  3 19  2  0  0  0  0
  4 23  1  0  0  0  0
  4 59  1  0  0  0  0
  5 24  2  0  0  0  0
  6 27  1  0  0  0  0
  6 67  1  0  0  0  0
  7 32  1  0  0  0  0
  7 33  1  0  0  0  0
  8 32  2  0  0  0  0
  9 10  1  0  0  0  0
  9 11  1  0  0  0  0
  9 12  1  0  0  0  0
  9 34  1  0  0  0  0
 10 13  1  0  0  0  0
 10 17  1  0  0  0  0
 10 35  1  0  0  0  0
 11 15  1  0  0  0  0
 11 36  1  0  0  0  0
 12 16  1  0  0  0  0
 12 18  2  0  0  0  0
 13 19  1  0  0  0  0
 13 21  1  0  0  0  0
 13 37  1  0  0  0  0
 14 15  1  0  0  0  0
 14 16  1  0  0  0  0
 14 22  1  0  0  0  0
 14 38  1  0  0  0  0
 15 39  1  0  0  0  0
 15 40  1  0  0  0  0
 16 41  1  0  0  0  0
 17 20  1  0  0  0  0
 17 42  1  0  0  0  0
 17 43  1  0  0  0  0
 18 19  1  0  0  0  0
 18 44  1  0  0  0  0
 20 23  1  0  0  0  0
 20 45  1  0  0  0  0
 20 46  1  0  0  0  0
 21 47  1  0  0  0  0
 21 48  1  0  0  0  0
 21 49  1  0  0  0  0
 22 50  1  0  0  0  0
 22 51  1  0  0  0  0
 22 52  1  0  0  0  0
 23 25  1  0  0  0  0
 23 53  1  0  0  0  0
 24 26  1  0  0  0  0
 25 27  1  0  0  0  0
 25 55  1  0  0  0  0
 25 56  1  0  0  0  0
 26 28  1  0  0  0  0
 26 29  1  0  0  0  0
 26 57  1  0  0  0  0
 27 30  1  0  0  0  0
 27 58  1  0  0  0  0
 28 31  1  0  0  0  0
 28 60  1  0  0  0  0
 28 61  1  0  0  0  0
 29 62  1  0  0  0  0
 29 63  1  0  0  0  0
 29 64  1  0  0  0  0
 30 32  1  0  0  0  0
 30 65  1  0  0  0  0
 30 66  1  0  0  0  0
 31 68  1  0  0  0  0
 31 69  1  0  0  0  0
 31 70  1  0  0  0  0
 33 71  1  0  0  0  0
 33 72  1  0  0  0  0
 33 73  1  0  0  0  0
M  END
> <PUBCHEM_COMPOUND_CID>
139583837

> <PUBCHEM_CONFORMER_RMSD>
1.2

> <PUBCHEM_CONFORMER_DIVERSEORDER>
1
81
65
80
79
28
55
82
74
75
69
64
12
73
83
7
34
67
3
66
70
76
21
42
2
37
63
31
51
78
47
29
71
46
52
56
54
72
68
61
16
60
45
25
59
36
57
35
58
4
77
24
15
14
8
49
53
43
13
22
11
62
17
41
50
18
20
26
10
30
6
23
33
44
5
84
40
39
48
38
85
9
19
32
27

> <PUBCHEM_MMFF94_PARTIAL_CHARGES>
26
1 -0.43
11 0.28
12 -0.28
13 0.06
16 0.42
18 -0.14
19 0.49
2 -0.68
23 0.28
24 0.66
26 0.06
27 0.28
3 -0.57
30 0.06
32 0.66
33 0.28
4 -0.68
44 0.15
5 -0.57
54 0.4
59 0.4
6 -0.68
67 0.4
7 -0.43
8 -0.57
9 0.14

> <PUBCHEM_EFFECTIVE_ROTOR_COUNT>
13.2

> <PUBCHEM_PHARMACOPHORE_FEATURES>
13
1 2 acceptor
1 2 donor
1 29 hydrophobe
1 3 acceptor
1 31 hydrophobe
1 4 acceptor
1 4 donor
1 5 acceptor
1 6 acceptor
1 6 donor
1 8 acceptor
6 9 10 12 13 18 19 rings
6 9 11 12 14 15 16 rings

> <PUBCHEM_HEAVY_ATOM_COUNT>
33

> <PUBCHEM_ATOM_DEF_STEREO_COUNT>
8

> <PUBCHEM_ATOM_UDEF_STEREO_COUNT>
1

> <PUBCHEM_BOND_DEF_STEREO_COUNT>
0

> <PUBCHEM_BOND_UDEF_STEREO_COUNT>
0

> <PUBCHEM_ISOTOPIC_ATOM_COUNT>
0

> <PUBCHEM_COMPONENT_COUNT>
1

> <PUBCHEM_CACTVS_TAUTO_COUNT>
-1

> <PUBCHEM_CONFORMER_ID>
0851E15D00000001

> <PUBCHEM_MMFF94_ENERGY>
63.0725

> <PUBCHEM_FEATURE_SELFOVERLAP>
65.995

> <PUBCHEM_SHAPE_FINGERPRINT>
10764073 3 17174848170000526608
12769317 202 18260271815118810623
12788726 201 17547854053501751108
14347329 18 17603595122769425765
15968369 26 17827602938680709820
18681886 176 18060703874787945886
21033648 29 18188778391216303865
22393880 68 18410858793645906015
23559900 14 18113336397561989941
238918 7 18194104442399691505
3388396 114 17702673305598057009
3493558 16 17387149588567794319
376196 1 17769927210416081104
57124632 79 18338507668093078361
6376802 137 17617914964662197138
6669772 16 18198900499398165528
7399639 24 18189902101132989675
7471813 234 17560813099425935280

> <PUBCHEM_SHAPE_MULTIPOLES>
632.17
11.22
5.54
2.57
16.73
2.72
-0.2
1.6
5.14
-6.9
-2.85
0.16
0.98
3.15

> <PUBCHEM_SHAPE_SELFOVERLAP>
1279.124

> <PUBCHEM_SHAPE_VOLUME>
364.6

> <PUBCHEM_COORDINATE_TYPE>
2
5
10

$$$$
