139590614
  -OEChem-03292013293D

 62 65  0     1  0  0  0  0  0999 V2000
    0.2344    2.0162   -0.1127 O   0  0  0  0  0  0  0  0  0  0  0  0
   -5.4232   -1.9169   -2.0320 O   0  0  0  0  0  0  0  0  0  0  0  0
    5.1654   -2.6157   -1.0533 O   0  0  0  0  0  0  0  0  0  0  0  0
   -0.4529    0.2798   -1.7474 O   0  0  0  0  0  0  0  0  0  0  0  0
   -3.6021    2.2913    1.2004 O   0  0  0  0  0  0  0  0  0  0  0  0
    0.6180   -1.3571    1.6604 O   0  0  0  0  0  0  0  0  0  0  0  0
    3.0252    2.4387    0.0956 O   0  0  0  0  0  0  0  0  0  0  0  0
   -5.7934    1.0686    1.5857 O   0  0  0  0  0  0  0  0  0  0  0  0
    5.4034    2.0675   -0.7109 O   0  0  0  0  0  0  0  0  0  0  0  0
   -4.6332   -2.1028   -0.8600 C   0  0  1  0  0  0  0  0  0  0  0  0
   -3.7360   -0.9126   -0.6343 C   0  0  0  0  0  0  0  0  0  0  0  0
   -5.5535   -2.3299    0.3352 C   0  0  0  0  0  0  0  0  0  0  0  0
   -4.1201    0.1480    0.2015 C   0  0  0  0  0  0  0  0  0  0  0  0
    5.2527   -1.9924    0.2258 C   0  0  2  0  0  0  0  0  0  0  0  0
    4.0691   -1.0869    0.4534 C   0  0  0  0  0  0  0  0  0  0  0  0
    6.5625   -1.2159    0.3176 C   0  0  0  0  0  0  0  0  0  0  0  0
   -6.3409   -1.0703    0.6674 C   0  0  0  0  0  0  0  0  0  0  0  0
   -2.0392    1.2926   -0.2645 C   0  0  0  0  0  0  0  0  0  0  0  0
    4.1251    0.2834    0.1531 C   0  0  0  0  0  0  0  0  0  0  0  0
    6.5602   -0.0235   -0.6289 C   0  0  0  0  0  0  0  0  0  0  0  0
   -1.1125    2.4671   -0.0572 C   0  0  2  0  0  0  0  0  0  0  0  0
   -3.2711    1.2461    0.3874 C   0  0  0  0  0  0  0  0  0  0  0  0
   -5.4357    0.1207    0.8920 C   0  0  0  0  0  0  0  0  0  0  0  0
   -2.4972   -0.8452   -1.2891 C   0  0  0  0  0  0  0  0  0  0  0  0
    1.8302    0.5534    0.8730 C   0  0  0  0  0  0  0  0  0  0  0  0
    5.3684    0.8798   -0.4008 C   0  0  0  0  0  0  0  0  0  0  0  0
   -1.6531    0.2497   -1.1031 C   0  0  0  0  0  0  0  0  0  0  0  0
    3.0083    1.1010    0.3655 C   0  0  0  0  0  0  0  0  0  0  0  0
    2.8735   -1.6226    0.9550 C   0  0  0  0  0  0  0  0  0  0  0  0
    0.6375    1.4240    1.1143 C   0  0  0  0  0  0  0  0  0  0  0  0
    1.7618   -0.8064    1.1657 C   0  0  0  0  0  0  0  0  0  0  0  0
   -1.3289    3.5581   -1.0999 C   0  0  0  0  0  0  0  0  0  0  0  0
   -0.1406   -0.8306   -2.5860 C   0  0  0  0  0  0  0  0  0  0  0  0
    0.6380   -2.7572    1.9314 C   0  0  0  0  0  0  0  0  0  0  0  0
   -4.0234   -3.0024   -1.0073 H   0  0  0  0  0  0  0  0  0  0  0  0
   -4.9566   -2.6244    1.2083 H   0  0  0  0  0  0  0  0  0  0  0  0
   -6.2570   -3.1443    0.1261 H   0  0  0  0  0  0  0  0  0  0  0  0
    5.2627   -2.7852    0.9837 H   0  0  0  0  0  0  0  0  0  0  0  0
    7.4099   -1.8654    0.0691 H   0  0  0  0  0  0  0  0  0  0  0  0
    6.7083   -0.8610    1.3462 H   0  0  0  0  0  0  0  0  0  0  0  0
   -6.9149   -1.2425    1.5848 H   0  0  0  0  0  0  0  0  0  0  0  0
   -7.0442   -0.8192   -0.1341 H   0  0  0  0  0  0  0  0  0  0  0  0
    6.5477   -0.3482   -1.6751 H   0  0  0  0  0  0  0  0  0  0  0  0
    7.4712    0.5625   -0.4633 H   0  0  0  0  0  0  0  0  0  0  0  0
   -1.2760    2.9240    0.9278 H   0  0  0  0  0  0  0  0  0  0  0  0
   -2.2504   -1.6840   -1.9319 H   0  0  0  0  0  0  0  0  0  0  0  0
    2.8766   -2.6881    1.1608 H   0  0  0  0  0  0  0  0  0  0  0  0
   -0.1821    0.8644    1.5778 H   0  0  0  0  0  0  0  0  0  0  0  0
    0.9064    2.2199    1.8204 H   0  0  0  0  0  0  0  0  0  0  0  0
   -2.3532    3.9433   -1.0753 H   0  0  0  0  0  0  0  0  0  0  0  0
   -1.1254    3.1866   -2.1108 H   0  0  0  0  0  0  0  0  0  0  0  0
   -0.6372    4.3900   -0.9278 H   0  0  0  0  0  0  0  0  0  0  0  0
   -5.9655   -2.7152   -2.1507 H   0  0  0  0  0  0  0  0  0  0  0  0
    5.9329   -3.2056   -1.1459 H   0  0  0  0  0  0  0  0  0  0  0  0
   -4.3887    2.0838    1.7261 H   0  0  0  0  0  0  0  0  0  0  0  0
    3.9257    2.7417   -0.0925 H   0  0  0  0  0  0  0  0  0  0  0  0
    0.8482   -0.6388   -3.0159 H   0  0  0  0  0  0  0  0  0  0  0  0
   -0.8398   -0.9142   -3.4249 H   0  0  0  0  0  0  0  0  0  0  0  0
   -0.0593   -1.7600   -2.0118 H   0  0  0  0  0  0  0  0  0  0  0  0
   -0.3518   -3.0230    2.3175 H   0  0  0  0  0  0  0  0  0  0  0  0
    1.3609   -3.0077    2.7153 H   0  0  0  0  0  0  0  0  0  0  0  0
    0.7882   -3.3434    1.0183 H   0  0  0  0  0  0  0  0  0  0  0  0
  1 21  1  0  0  0  0
  1 30  1  0  0  0  0
  2 10  1  0  0  0  0
  2 53  1  0  0  0  0
  3 14  1  0  0  0  0
  3 54  1  0  0  0  0
  4 27  1  0  0  0  0
  4 33  1  0  0  0  0
  5 22  1  0  0  0  0
  5 55  1  0  0  0  0
  6 31  1  0  0  0  0
  6 34  1  0  0  0  0
  7 28  1  0  0  0  0
  7 56  1  0  0  0  0
  8 23  2  0  0  0  0
  9 26  2  0  0  0  0
 10 11  1  0  0  0  0
 10 12  1  0  0  0  0
 10 35  1  0  0  0  0
 11 13  1  0  0  0  0
 11 24  2  0  0  0  0
 12 17  1  0  0  0  0
 12 36  1  0  0  0  0
 12 37  1  0  0  0  0
 13 22  2  0  0  0  0
 13 23  1  0  0  0  0
 14 15  1  0  0  0  0
 14 16  1  0  0  0  0
 14 38  1  0  0  0  0
 15 19  1  0  0  0  0
 15 29  2  0  0  0  0
 16 20  1  0  0  0  0
 16 39  1  0  0  0  0
 16 40  1  0  0  0  0
 17 23  1  0  0  0  0
 17 41  1  0  0  0  0
 17 42  1  0  0  0  0
 18 21  1  0  0  0  0
 18 22  1  0  0  0  0
 18 27  2  0  0  0  0
 19 26  1  0  0  0  0
 19 28  2  0  0  0  0
 20 26  1  0  0  0  0
 20 43  1  0  0  0  0
 20 44  1  0  0  0  0
 21 32  1  0  0  0  0
 21 45  1  0  0  0  0
 24 27  1  0  0  0  0
 24 46  1  0  0  0  0
 25 28  1  0  0  0  0
 25 30  1  0  0  0  0
 25 31  2  0  0  0  0
 29 31  1  0  0  0  0
 29 47  1  0  0  0  0
 30 48  1  0  0  0  0
 30 49  1  0  0  0  0
 32 50  1  0  0  0  0
 32 51  1  0  0  0  0
 32 52  1  0  0  0  0
 33 57  1  0  0  0  0
 33 58  1  0  0  0  0
 33 59  1  0  0  0  0
 34 60  1  0  0  0  0
 34 61  1  0  0  0  0
 34 62  1  0  0  0  0
M  END
> <PUBCHEM_COMPOUND_CID>
139590614

> <PUBCHEM_CONFORMER_RMSD>
1

> <PUBCHEM_CONFORMER_DIVERSEORDER>
1
28
41
69
27
11
54
66
33
46
49
32
30
23
42
44
70
25
72
6
37
64
51
55
9
15
58
17
39
47
20
61
22
74
36
35
18
75
3
62
12
2
71
45
56
43
13
21
4
26
68
50
59
73
40
8
7
16
67
57
52
48
34
5
63
29
19
60
53
14
10
38
65
31
24

> <PUBCHEM_MMFF94_PARTIAL_CHARGES>
37
1 -0.56
10 0.42
11 -0.14
13 0.09
14 0.42
15 -0.14
17 0.06
18 -0.14
19 0.09
2 -0.68
20 0.06
21 0.42
22 0.08
23 0.42
24 -0.15
25 -0.14
26 0.42
27 0.08
28 0.08
29 -0.15
3 -0.68
30 0.42
31 0.08
33 0.28
34 0.28
4 -0.36
46 0.15
47 0.15
5 -0.53
53 0.4
54 0.4
55 0.45
56 0.45
6 -0.36
7 -0.53
8 -0.57
9 -0.57

> <PUBCHEM_EFFECTIVE_ROTOR_COUNT>
7.2

> <PUBCHEM_PHARMACOPHORE_FEATURES>
15
1 1 acceptor
1 2 acceptor
1 2 donor
1 3 acceptor
1 3 donor
1 4 acceptor
1 5 donor
1 6 acceptor
1 7 donor
1 8 acceptor
1 9 acceptor
6 10 11 12 13 17 23 rings
6 11 13 18 22 24 27 rings
6 14 15 16 19 20 26 rings
6 15 19 25 28 29 31 rings

> <PUBCHEM_HEAVY_ATOM_COUNT>
34

> <PUBCHEM_ATOM_DEF_STEREO_COUNT>
3

> <PUBCHEM_ATOM_UDEF_STEREO_COUNT>
0

> <PUBCHEM_BOND_DEF_STEREO_COUNT>
0

> <PUBCHEM_BOND_UDEF_STEREO_COUNT>
0

> <PUBCHEM_ISOTOPIC_ATOM_COUNT>
0

> <PUBCHEM_COMPONENT_COUNT>
1

> <PUBCHEM_CACTVS_TAUTO_COUNT>
-1

> <PUBCHEM_CONFORMER_ID>
0851FBD600000001

> <PUBCHEM_MMFF94_ENERGY>
114.1431

> <PUBCHEM_FEATURE_SELFOVERLAP>
76.193

> <PUBCHEM_SHAPE_FINGERPRINT>
117089 54 18341056331937055175
12107698 1 18272087218578337361
12236239 1 18343024401683285217
12422481 6 17703794699782609543
12633257 1 16200147754980356269
13782708 43 15984535736687117111
14279260 333 18191863419624478546
14341114 328 18410575076278872907
14347332 77 18336260150778660936
14787075 74 18260828223884006320
14840074 17 17313388941466110959
14856354 85 18131072671032231967
15064986 96 17059785386371479007
15183329 4 18272932726162364614
15238133 3 13254795784992381936
15537594 2 18412263938849958697
15799311 1 18342472447025574006
16110190 28 18272091591198020463
17909252 39 18201997729723551634
19319366 153 18113608015462707754
20028762 73 18409727344567574578
21859007 373 12606864495781494619
221357 26 18408882941111577210
22393880 68 18115579336731548892
22950370 63 18413107277179933441
23516275 137 18056789587607702026
23522609 53 18125751025600080032
23559900 14 18190735526614771049
3737641 26 18262234400678068683
392239 28 18261116253149785035
44880168 125 17203608147404090686
5104073 3 17989201560044278032
5265222 85 16916504895457119204
54039377 194 18272373028237957446
6086070 43 15769475553351263017

> <PUBCHEM_SHAPE_MULTIPOLES>
646.88
15.92
3.17
1.66
3.95
0.89
-0.52
-6.7
-0.07
-0.33
0.03
-1.09
-0.58
-1.22

> <PUBCHEM_SHAPE_SELFOVERLAP>
1413.89

> <PUBCHEM_SHAPE_VOLUME>
351.3

> <PUBCHEM_COORDINATE_TYPE>
2
5
10

$$$$
