139588339
  -OEChem-03292013293D

 55 61  0     1  0  0  0  0  0999 V2000
    1.3733    3.2614    0.5554 O   0  0  0  0  0  0  0  0  0  0  0  0
   -3.0739    2.7558    1.7104 O   0  0  0  0  0  0  0  0  0  0  0  0
   -3.3990   -0.6255    1.9390 O   0  0  0  0  0  0  0  0  0  0  0  0
   -3.7282    3.2973   -0.6856 O   0  0  0  0  0  0  0  0  0  0  0  0
    5.6974    1.3474    0.0104 O   0  0  0  0  0  0  0  0  0  0  0  0
   -1.2407    1.2571   -4.1563 O   0  0  0  0  0  0  0  0  0  0  0  0
   -4.2912   -2.7792    0.8847 O   0  0  0  0  0  0  0  0  0  0  0  0
    5.7626   -1.3633   -0.2789 O   0  0  0  0  0  0  0  0  0  0  0  0
    0.1442    0.3678    0.4967 C   0  0  2  0  0  0  0  0  0  0  0  0
   -0.2729    0.5260    1.9989 C   0  0  1  0  0  0  0  0  0  0  0  0
    0.3670   -1.1518    0.1553 C   0  0  0  0  0  0  0  0  0  0  0  0
    1.5786    0.8739    0.3726 C   0  0  0  0  0  0  0  0  0  0  0  0
   -0.7796    1.0612   -0.5052 C   0  0  0  0  0  0  0  0  0  0  0  0
   -0.9296    1.8786    2.2850 C   0  0  0  0  0  0  0  0  0  0  0  0
   -1.0965   -0.6366    2.5730 C   0  0  0  0  0  0  0  0  0  0  0  0
    2.4140   -0.2164    0.1833 C   0  0  0  0  0  0  0  0  0  0  0  0
    1.6815   -1.4620    0.0719 C   0  0  0  0  0  0  0  0  0  0  0  0
   -1.8334    1.8941   -0.0984 C   0  0  0  0  0  0  0  0  0  0  0  0
   -0.7860   -2.0538   -0.0932 C   0  0  0  0  0  0  0  0  0  0  0  0
   -2.0475    2.1992    1.3324 C   0  0  0  0  0  0  0  0  0  0  0  0
    2.1300    2.1417    0.4386 C   0  0  0  0  0  0  0  0  0  0  0  0
   -2.2639   -1.0369    1.7137 C   0  0  0  0  0  0  0  0  0  0  0  0
   -2.0168   -1.9719    0.5875 C   0  0  0  0  0  0  0  0  0  0  0  0
    3.7854   -0.1154    0.0559 C   0  0  0  0  0  0  0  0  0  0  0  0
   -0.5924    0.8758   -1.8912 C   0  0  0  0  0  0  0  0  0  0  0  0
    2.4194   -2.6808   -0.1379 C   0  0  0  0  0  0  0  0  0  0  0  0
   -2.6938    2.4808   -1.0383 C   0  0  0  0  0  0  0  0  0  0  0  0
    3.5243    2.2730    0.3163 C   0  0  0  0  0  0  0  0  0  0  0  0
    4.3558    1.1509    0.1277 C   0  0  0  0  0  0  0  0  0  0  0  0
   -0.7048   -2.9642   -1.1671 C   0  0  0  0  0  0  0  0  0  0  0  0
    4.5438   -1.3692   -0.1654 C   0  0  0  0  0  0  0  0  0  0  0  0
   -1.4440    1.4653   -2.8268 C   0  0  0  0  0  0  0  0  0  0  0  0
    3.7602   -2.6509   -0.2462 C   0  0  0  0  0  0  0  0  0  0  0  0
   -3.0961   -2.7972    0.2238 C   0  0  0  0  0  0  0  0  0  0  0  0
   -2.4988    2.2619   -2.3995 C   0  0  0  0  0  0  0  0  0  0  0  0
   -1.7767   -3.7875   -1.5204 C   0  0  0  0  0  0  0  0  0  0  0  0
   -2.9720   -3.7064   -0.8217 C   0  0  0  0  0  0  0  0  0  0  0  0
    0.6372    0.5171    2.6201 H   0  0  0  0  0  0  0  0  0  0  0  0
   -0.2092    2.6985    2.2557 H   0  0  0  0  0  0  0  0  0  0  0  0
   -1.3423    1.8802    3.3016 H   0  0  0  0  0  0  0  0  0  0  0  0
   -1.4798   -0.3896    3.5712 H   0  0  0  0  0  0  0  0  0  0  0  0
   -0.4620   -1.5177    2.7350 H   0  0  0  0  0  0  0  0  0  0  0  0
    0.2276    0.2561   -2.2491 H   0  0  0  0  0  0  0  0  0  0  0  0
    1.8952   -3.6275   -0.1907 H   0  0  0  0  0  0  0  0  0  0  0  0
    3.9790    3.2615    0.3561 H   0  0  0  0  0  0  0  0  0  0  0  0
    0.1918   -3.0297   -1.7799 H   0  0  0  0  0  0  0  0  0  0  0  0
    4.3265   -3.5636   -0.3974 H   0  0  0  0  0  0  0  0  0  0  0  0
   -3.1624    2.7212   -3.1279 H   0  0  0  0  0  0  0  0  0  0  0  0
   -1.6772   -4.4799   -2.3512 H   0  0  0  0  0  0  0  0  0  0  0  0
    1.9540    4.0413    0.5703 H   0  0  0  0  0  0  0  0  0  0  0  0
   -3.8033   -4.3485   -1.0990 H   0  0  0  0  0  0  0  0  0  0  0  0
   -3.6980    3.5047    0.2602 H   0  0  0  0  0  0  0  0  0  0  0  0
    6.1457    0.4949   -0.1101 H   0  0  0  0  0  0  0  0  0  0  0  0
   -0.4672    0.6789   -4.2716 H   0  0  0  0  0  0  0  0  0  0  0  0
   -4.2195   -2.2734    1.7089 H   0  0  0  0  0  0  0  0  0  0  0  0
  1 21  1  0  0  0  0
  1 50  1  0  0  0  0
  2 20  2  0  0  0  0
  3 22  2  0  0  0  0
  4 27  1  0  0  0  0
  4 52  1  0  0  0  0
  5 29  1  0  0  0  0
  5 53  1  0  0  0  0
  6 32  1  0  0  0  0
  6 54  1  0  0  0  0
  7 34  1  0  0  0  0
  7 55  1  0  0  0  0
  8 31  2  0  0  0  0
  9 10  1  0  0  0  0
  9 11  1  0  0  0  0
  9 12  1  0  0  0  0
  9 13  1  0  0  0  0
 10 14  1  0  0  0  0
 10 15  1  0  0  0  0
 10 38  1  0  0  0  0
 11 17  2  0  0  0  0
 11 19  1  0  0  0  0
 12 16  1  0  0  0  0
 12 21  2  0  0  0  0
 13 18  2  0  0  0  0
 13 25  1  0  0  0  0
 14 20  1  0  0  0  0
 14 39  1  0  0  0  0
 14 40  1  0  0  0  0
 15 22  1  0  0  0  0
 15 41  1  0  0  0  0
 15 42  1  0  0  0  0
 16 17  1  0  0  0  0
 16 24  2  0  0  0  0
 17 26  1  0  0  0  0
 18 20  1  0  0  0  0
 18 27  1  0  0  0  0
 19 23  2  0  0  0  0
 19 30  1  0  0  0  0
 21 28  1  0  0  0  0
 22 23  1  0  0  0  0
 23 34  1  0  0  0  0
 24 29  1  0  0  0  0
 24 31  1  0  0  0  0
 25 32  2  0  0  0  0
 25 43  1  0  0  0  0
 26 33  2  0  0  0  0
 26 44  1  0  0  0  0
 27 35  2  0  0  0  0
 28 29  2  0  0  0  0
 28 45  1  0  0  0  0
 30 36  2  0  0  0  0
 30 46  1  0  0  0  0
 31 33  1  0  0  0  0
 32 35  1  0  0  0  0
 33 47  1  0  0  0  0
 34 37  2  0  0  0  0
 35 48  1  0  0  0  0
 36 37  1  0  0  0  0
 36 49  1  0  0  0  0
 37 51  1  0  0  0  0
M  END
> <PUBCHEM_COMPOUND_CID>
139588339

> <PUBCHEM_CONFORMER_RMSD>
0.6

> <PUBCHEM_CONFORMER_DIVERSEORDER>
1
3
2

> <PUBCHEM_MMFF94_PARTIAL_CHARGES>
49
1 -0.53
11 -0.17
12 -0.14
13 -0.14
14 0.06
15 0.06
16 0.03
17 -0.03
18 0.09
19 0.03
2 -0.57
20 0.42
21 0.08
22 0.42
23 0.09
24 0.09
25 -0.15
26 -0.15
27 0.08
28 -0.15
29 0.08
3 -0.57
30 -0.15
31 0.47
32 0.08
33 -0.14
34 0.08
35 -0.15
36 -0.15
37 -0.15
4 -0.53
43 0.15
44 0.15
45 0.15
46 0.15
47 0.15
48 0.15
49 0.15
5 -0.53
50 0.45
51 0.15
52 0.45
53 0.45
54 0.45
55 0.45
6 -0.53
7 -0.53
8 -0.57
9 0.43

> <PUBCHEM_EFFECTIVE_ROTOR_COUNT>
0.4

> <PUBCHEM_PHARMACOPHORE_FEATURES>
15
1 1 donor
1 2 acceptor
1 3 acceptor
1 4 donor
1 5 donor
1 6 donor
1 7 donor
1 8 acceptor
5 9 11 12 16 17 rings
6 12 16 21 24 28 29 rings
6 13 18 25 27 32 35 rings
6 16 17 24 26 31 33 rings
6 19 23 30 34 36 37 rings
6 9 10 13 14 18 20 rings
7 9 10 11 15 19 22 23 rings

> <PUBCHEM_HEAVY_ATOM_COUNT>
37

> <PUBCHEM_ATOM_DEF_STEREO_COUNT>
2

> <PUBCHEM_ATOM_UDEF_STEREO_COUNT>
0

> <PUBCHEM_BOND_DEF_STEREO_COUNT>
0

> <PUBCHEM_BOND_UDEF_STEREO_COUNT>
0

> <PUBCHEM_ISOTOPIC_ATOM_COUNT>
0

> <PUBCHEM_COMPONENT_COUNT>
1

> <PUBCHEM_CACTVS_TAUTO_COUNT>
-1

> <PUBCHEM_CONFORMER_ID>
0851F2F300000001

> <PUBCHEM_MMFF94_ENERGY>
142.1835

> <PUBCHEM_FEATURE_SELFOVERLAP>
76.491

> <PUBCHEM_SHAPE_FINGERPRINT>
10165383 225 17389109940512195852
11578080 2 18057868311629773136
11582403 64 17099174209193556851
12422481 6 18119562914809143145
12788726 201 18190447432365515882
13004483 165 18270119144626499339
13140716 1 18340204090830056530
13583140 156 17386850496231067706
13911987 19 17831868941064886150
14068700 675 17125358357065742295
15274700 242 16897921666994648606
15324884 4 17389398017048617893
15484559 13 17394976913425628861
1813 80 17823703168462642431
19319366 153 17556008096637778665
19930381 70 17331693349015157219
21033648 29 17605553237210264868
23419403 2 17198240558885406121
238 59 17394418352860166533
3380486 145 18336562589132275225
350125 39 18340494464788879322
460360 51 18188477009467051130
469060 322 18120367920197199936
484985 159 18341613660030882798
5080951 261 18116411714315235210
57527452 28 14673818813147553959
70251023 43 18262796405801955962
9981440 41 17051838292235022000

> <PUBCHEM_SHAPE_MULTIPOLES>
714.49
7.73
4.73
2.41
9.95
1.7
1.31
1.14
-0.04
-3.5
1.02
-2.8
-1.36
0.9

> <PUBCHEM_SHAPE_SELFOVERLAP>
1669.124

> <PUBCHEM_SHAPE_VOLUME>
354.2

> <PUBCHEM_COORDINATE_TYPE>
2
5
10

$$$$
