139587902
  -OEChem-03292013293D

 41 44  0     1  0  0  0  0  0999 V2000
   -2.2004   -2.2342    1.1586 O   0  0  0  0  0  0  0  0  0  0  0  0
   -2.9203    3.2304   -0.0138 O   0  0  0  0  0  0  0  0  0  0  0  0
    0.3966   -2.2907    0.1701 O   0  0  0  0  0  0  0  0  0  0  0  0
    2.0087    2.7768    0.2077 O   0  0  0  0  0  0  0  0  0  0  0  0
    2.7420   -3.1523   -0.1502 O   0  0  0  0  0  0  0  0  0  0  0  0
    4.4533    2.0853   -0.0284 O   0  0  0  0  0  0  0  0  0  0  0  0
   -4.5957   -0.7183    0.1436 C   0  0  1  0  0  0  0  0  0  0  0  0
   -3.7368   -1.7235   -0.6220 C   0  0  0  0  0  0  0  0  0  0  0  0
   -2.2817   -1.6597   -0.1457 C   0  0  1  0  0  0  0  0  0  0  0  0
   -4.0883    0.6929   -0.1577 C   0  0  0  0  0  0  0  0  0  0  0  0
   -1.6980   -0.2605   -0.0731 C   0  0  0  0  0  0  0  0  0  0  0  0
   -2.5869    0.8439   -0.0550 C   0  0  0  0  0  0  0  0  0  0  0  0
   -0.2962   -0.0149    0.0048 C   0  0  0  0  0  0  0  0  0  0  0  0
   -6.0695   -0.8560   -0.2326 C   0  0  0  0  0  0  0  0  0  0  0  0
   -2.0843    2.1508   -0.0005 C   0  0  0  0  0  0  0  0  0  0  0  0
    0.1751    1.3087    0.0542 C   0  0  0  0  0  0  0  0  0  0  0  0
   -0.7175    2.3835    0.0524 C   0  0  0  0  0  0  0  0  0  0  0  0
    0.7158   -1.1150    0.0521 C   0  0  0  0  0  0  0  0  0  0  0  0
    1.6204    1.6196    0.1007 C   0  0  0  0  0  0  0  0  0  0  0  0
    2.1569   -0.7967   -0.0214 C   0  0  0  0  0  0  0  0  0  0  0  0
    2.5950    0.5235    0.0071 C   0  0  0  0  0  0  0  0  0  0  0  0
    3.0948   -1.8353   -0.1062 C   0  0  0  0  0  0  0  0  0  0  0  0
    3.9646    0.8125   -0.0479 C   0  0  0  0  0  0  0  0  0  0  0  0
    4.4589   -1.5466   -0.1632 C   0  0  0  0  0  0  0  0  0  0  0  0
    4.8934   -0.2241   -0.1338 C   0  0  0  0  0  0  0  0  0  0  0  0
   -4.5025   -0.9107    1.2208 H   0  0  0  0  0  0  0  0  0  0  0  0
   -3.7839   -1.5087   -1.6977 H   0  0  0  0  0  0  0  0  0  0  0  0
   -4.1318   -2.7360   -0.4725 H   0  0  0  0  0  0  0  0  0  0  0  0
   -1.6994   -2.2734   -0.8411 H   0  0  0  0  0  0  0  0  0  0  0  0
   -4.5806    1.3837    0.5388 H   0  0  0  0  0  0  0  0  0  0  0  0
   -4.3827    0.9854   -1.1746 H   0  0  0  0  0  0  0  0  0  0  0  0
   -6.4395   -1.8574    0.0112 H   0  0  0  0  0  0  0  0  0  0  0  0
   -6.6790   -0.1304    0.3162 H   0  0  0  0  0  0  0  0  0  0  0  0
   -6.2264   -0.6896   -1.3037 H   0  0  0  0  0  0  0  0  0  0  0  0
   -0.3527    3.4073    0.0873 H   0  0  0  0  0  0  0  0  0  0  0  0
   -2.5064   -3.1549    1.0939 H   0  0  0  0  0  0  0  0  0  0  0  0
   -2.3944    4.0474    0.0270 H   0  0  0  0  0  0  0  0  0  0  0  0
    5.1890   -2.3488   -0.2322 H   0  0  0  0  0  0  0  0  0  0  0  0
    5.9575   -0.0082   -0.1794 H   0  0  0  0  0  0  0  0  0  0  0  0
    1.7863   -3.2436   -0.2824 H   0  0  0  0  0  0  0  0  0  0  0  0
    3.7318    2.7308   -0.0667 H   0  0  0  0  0  0  0  0  0  0  0  0
  1  9  1  0  0  0  0
  1 36  1  0  0  0  0
  2 15  1  0  0  0  0
  2 37  1  0  0  0  0
  3 18  2  0  0  0  0
  4 19  2  0  0  0  0
  5 22  1  0  0  0  0
  5 40  1  0  0  0  0
  6 23  1  0  0  0  0
  6 41  1  0  0  0  0
  7  8  1  0  0  0  0
  7 10  1  0  0  0  0
  7 14  1  0  0  0  0
  7 26  1  0  0  0  0
  8  9  1  0  0  0  0
  8 27  1  0  0  0  0
  8 28  1  0  0  0  0
  9 11  1  0  0  0  0
  9 29  1  0  0  0  0
 10 12  1  0  0  0  0
 10 30  1  0  0  0  0
 10 31  1  0  0  0  0
 11 12  1  0  0  0  0
 11 13  2  0  0  0  0
 12 15  2  0  0  0  0
 13 16  1  0  0  0  0
 13 18  1  0  0  0  0
 14 32  1  0  0  0  0
 14 33  1  0  0  0  0
 14 34  1  0  0  0  0
 15 17  1  0  0  0  0
 16 17  2  0  0  0  0
 16 19  1  0  0  0  0
 17 35  1  0  0  0  0
 18 20  1  0  0  0  0
 19 21  1  0  0  0  0
 20 21  1  0  0  0  0
 20 22  2  0  0  0  0
 21 23  2  0  0  0  0
 22 24  1  0  0  0  0
 23 25  1  0  0  0  0
 24 25  2  0  0  0  0
 24 38  1  0  0  0  0
 25 39  1  0  0  0  0
M  END
> <PUBCHEM_COMPOUND_CID>
139587902

> <PUBCHEM_CONFORMER_RMSD>
0.6

> <PUBCHEM_CONFORMER_DIVERSEORDER>
1

> <PUBCHEM_MMFF94_PARTIAL_CHARGES>
29
1 -0.68
10 0.14
11 -0.14
12 -0.14
13 0.09
15 0.08
16 0.09
17 -0.15
18 0.4
19 0.4
2 -0.53
20 0.09
21 0.09
22 0.08
23 0.08
24 -0.15
25 -0.15
3 -0.57
35 0.15
36 0.4
37 0.45
38 0.15
39 0.15
4 -0.57
40 0.45
41 0.45
5 -0.53
6 -0.53
9 0.42

> <PUBCHEM_EFFECTIVE_ROTOR_COUNT>
0.8

> <PUBCHEM_PHARMACOPHORE_FEATURES>
11
1 1 acceptor
1 1 donor
1 2 donor
1 3 acceptor
1 4 acceptor
1 5 donor
1 6 donor
6 11 12 13 15 16 17 rings
6 13 16 18 19 20 21 rings
6 20 21 22 23 24 25 rings
6 7 8 9 10 11 12 rings

> <PUBCHEM_HEAVY_ATOM_COUNT>
25

> <PUBCHEM_ATOM_DEF_STEREO_COUNT>
0

> <PUBCHEM_ATOM_UDEF_STEREO_COUNT>
2

> <PUBCHEM_BOND_DEF_STEREO_COUNT>
0

> <PUBCHEM_BOND_UDEF_STEREO_COUNT>
0

> <PUBCHEM_ISOTOPIC_ATOM_COUNT>
0

> <PUBCHEM_COMPONENT_COUNT>
1

> <PUBCHEM_CACTVS_TAUTO_COUNT>
-1

> <PUBCHEM_CONFORMER_ID>
0851F13E00000001

> <PUBCHEM_MMFF94_ENERGY>
80.3227

> <PUBCHEM_FEATURE_SELFOVERLAP>
55.886

> <PUBCHEM_SHAPE_FINGERPRINT>
10411042 1 18194965128688124078
10616163 171 18412827958398209262
10693767 8 18128515220266975367
10906281 52 18264506120312006993
10967382 1 18410574023843093064
11578080 2 17169815696573846518
12107183 9 17763466110412637747
12236239 1 17846782940359481491
12403259 226 18410849928210895205
12553582 1 18339347643706291799
12788726 201 18408879616685649337
13140716 1 17977656838618986538
13224815 77 18411418397370819506
13402501 40 18409449219253352123
138480 1 14880316596868687093
14223421 5 18411697690588695756
14790565 3 17476083427714950209
15196674 1 18411136909456634853
15442244 35 18267021665646203570
15536298 74 18342457049741397356
15927050 60 14522274916502599820
17349148 13 18259699004130980514
17492 89 18267584606841749262
1813 80 17530965795469957045
19591789 44 18338235942644649771
200 152 18131631214253884731
20028762 73 18201433688020924799
20645477 70 18272936016149492254
20691752 17 17458633246321122776
21267235 1 18411989035511145918
21279426 13 18337387137533717533
21421861 104 18187921725281199826
21792934 111 18339912741612743049
221357 26 18413108350895357839
221490 88 18409453608720270346
23402539 116 18413101763043059015
23557571 272 18200601302352764110
23559900 14 18411693301100620232
23566358 2 18338794520368758967
2871803 45 18408601469891724630
3004659 81 18260265239934914838
335352 9 18050849922772321348
3380486 145 18046082702933047315
34934 24 18339920536261226487
350125 39 18411421679100763337
3680242 22 18261951834663282842
4214541 1 18339361855505121988
4280585 95 17550397233241723566
46194498 28 17604142757117597877
463206 1 18269271446852231391
5104073 3 18340485560657296944
59755656 215 18409167731354654206
9709674 26 18339367370417463270

> <PUBCHEM_SHAPE_MULTIPOLES>
479.27
10.22
3.26
0.66
2.61
0.73
-0.03
-2.43
0.79
-0.37
-0.12
0.17
-0.13
0.12

> <PUBCHEM_SHAPE_SELFOVERLAP>
1083.356

> <PUBCHEM_SHAPE_VOLUME>
247.7

> <PUBCHEM_COORDINATE_TYPE>
2
5
10

$$$$
