139588023
  -OEChem-03292013293D

 34 34  0     1  0  0  0  0  0999 V2000
   -2.9243    0.9754   -0.1270 O   0  0  0  0  0  0  0  0  0  0  0  0
   -2.3748   -1.6611    2.0959 O   0  0  0  0  0  0  0  0  0  0  0  0
   -4.3364   -0.7734   -0.6118 O   0  0  0  0  0  0  0  0  0  0  0  0
    0.6288   -1.8488   -1.2507 O   0  0  0  0  0  0  0  0  0  0  0  0
    3.1116   -1.8148   -0.3404 O   0  0  0  0  0  0  0  0  0  0  0  0
    5.2170   -0.1343    0.2805 O   0  0  0  0  0  0  0  0  0  0  0  0
   -0.7856   -0.4662   -0.0394 N   0  0  0  0  0  0  0  0  0  0  0  0
   -1.9905   -1.2282   -0.2515 C   0  0  1  0  0  0  0  0  0  0  0  0
   -2.1642   -2.2849    0.8341 C   0  0  0  0  0  0  0  0  0  0  0  0
   -3.2202   -0.3357   -0.3507 C   0  0  0  0  0  0  0  0  0  0  0  0
    0.4412   -0.8471   -0.5652 C   0  0  0  0  0  0  0  0  0  0  0  0
    1.5923    0.0314   -0.2334 C   0  0  0  0  0  0  0  0  0  0  0  0
    2.8838   -0.4858   -0.1332 C   0  0  0  0  0  0  0  0  0  0  0  0
    1.3672    1.3915   -0.0210 C   0  0  0  0  0  0  0  0  0  0  0  0
    3.9503    0.3569    0.1796 C   0  0  0  0  0  0  0  0  0  0  0  0
   -4.0263    1.8851   -0.2111 C   0  0  0  0  0  0  0  0  0  0  0  0
    2.4337    2.2343    0.2918 C   0  0  0  0  0  0  0  0  0  0  0  0
    3.7253    1.7171    0.3921 C   0  0  0  0  0  0  0  0  0  0  0  0
   -3.5289    3.2886    0.0615 C   0  0  0  0  0  0  0  0  0  0  0  0
   -1.8955   -1.7273   -1.2238 H   0  0  0  0  0  0  0  0  0  0  0  0
   -0.8518    0.3334    0.5820 H   0  0  0  0  0  0  0  0  0  0  0  0
   -3.0332   -2.9168    0.6227 H   0  0  0  0  0  0  0  0  0  0  0  0
   -1.2776   -2.9234    0.9095 H   0  0  0  0  0  0  0  0  0  0  0  0
    0.3828    1.8398   -0.1202 H   0  0  0  0  0  0  0  0  0  0  0  0
   -4.4644    1.8360   -1.2142 H   0  0  0  0  0  0  0  0  0  0  0  0
   -4.7839    1.6102    0.5311 H   0  0  0  0  0  0  0  0  0  0  0  0
    2.2600    3.2947    0.4502 H   0  0  0  0  0  0  0  0  0  0  0  0
    4.5471    2.3855    0.6348 H   0  0  0  0  0  0  0  0  0  0  0  0
   -2.4825   -2.3719    2.7507 H   0  0  0  0  0  0  0  0  0  0  0  0
   -3.0714    3.3489    1.0545 H   0  0  0  0  0  0  0  0  0  0  0  0
   -2.7563    3.5706   -0.6615 H   0  0  0  0  0  0  0  0  0  0  0  0
   -4.3472    4.0118    0.0047 H   0  0  0  0  0  0  0  0  0  0  0  0
    4.0630   -1.9851   -0.2285 H   0  0  0  0  0  0  0  0  0  0  0  0
    5.8225    0.5935    0.5033 H   0  0  0  0  0  0  0  0  0  0  0  0
  1 10  1  0  0  0  0
  1 16  1  0  0  0  0
  2  9  1  0  0  0  0
  2 29  1  0  0  0  0
  3 10  2  0  0  0  0
  4 11  2  0  0  0  0
  5 13  1  0  0  0  0
  5 33  1  0  0  0  0
  6 15  1  0  0  0  0
  6 34  1  0  0  0  0
  7  8  1  0  0  0  0
  7 11  1  0  0  0  0
  7 21  1  0  0  0  0
  8  9  1  0  0  0  0
  8 10  1  0  0  0  0
  8 20  1  0  0  0  0
  9 22  1  0  0  0  0
  9 23  1  0  0  0  0
 11 12  1  0  0  0  0
 12 13  2  0  0  0  0
 12 14  1  0  0  0  0
 13 15  1  0  0  0  0
 14 17  2  0  0  0  0
 14 24  1  0  0  0  0
 15 18  2  0  0  0  0
 16 19  1  0  0  0  0
 16 25  1  0  0  0  0
 16 26  1  0  0  0  0
 17 18  1  0  0  0  0
 17 27  1  0  0  0  0
 18 28  1  0  0  0  0
 19 30  1  0  0  0  0
 19 31  1  0  0  0  0
 19 32  1  0  0  0  0
M  END
> <PUBCHEM_COMPOUND_CID>
139588023

> <PUBCHEM_CONFORMER_RMSD>
0.8

> <PUBCHEM_CONFORMER_DIVERSEORDER>
1
19
56
80
10
72
48
64
24
7
41
50
71
35
77
74
81
63
79
78
18
13
23
40
58
49
57
60
70
69
4
31
43
27
82
8
59
52
9
62
34
25
66
36
54
46
16
51
42
26
76
20
37
75
67
47
83
2
38
30
11
32
12
73
5
29
14
53
21
22
55
45
65
6
61
3
17
28
39
44
68
15
33

> <PUBCHEM_MMFF94_PARTIAL_CHARGES>
25
1 -0.43
10 0.66
11 0.54
12 0.09
13 0.08
14 -0.15
15 0.08
16 0.28
17 -0.15
18 -0.15
2 -0.68
21 0.37
24 0.15
27 0.15
28 0.15
29 0.4
3 -0.57
33 0.45
34 0.45
4 -0.57
5 -0.53
6 -0.53
7 -0.73
8 0.36
9 0.28

> <PUBCHEM_EFFECTIVE_ROTOR_COUNT>
7

> <PUBCHEM_PHARMACOPHORE_FEATURES>
8
1 2 acceptor
1 2 donor
1 3 acceptor
1 4 acceptor
1 5 donor
1 6 donor
1 7 donor
6 12 13 14 15 17 18 rings

> <PUBCHEM_HEAVY_ATOM_COUNT>
19

> <PUBCHEM_ATOM_DEF_STEREO_COUNT>
1

> <PUBCHEM_ATOM_UDEF_STEREO_COUNT>
0

> <PUBCHEM_BOND_DEF_STEREO_COUNT>
0

> <PUBCHEM_BOND_UDEF_STEREO_COUNT>
0

> <PUBCHEM_ISOTOPIC_ATOM_COUNT>
0

> <PUBCHEM_COMPONENT_COUNT>
1

> <PUBCHEM_CACTVS_TAUTO_COUNT>
-1

> <PUBCHEM_CONFORMER_ID>
0851F1B700000001

> <PUBCHEM_MMFF94_ENERGY>
39.0016

> <PUBCHEM_FEATURE_SELFOVERLAP>
40.604

> <PUBCHEM_SHAPE_FINGERPRINT>
10366900 7 18336828718111247643
10608611 8 18412543223535942181
10646746 165 18411417306486270588
1100329 8 16680064411195616458
12077114 3 18412825810787726759
12107183 9 17975966575429853802
12403260 363 18340195367102449775
12507560 40 18264489653692217802
12633257 1 18041547066753998040
13464514 151 18266743484809305563
14251764 38 18411981368778621453
14289901 80 17898292955270327186
14466204 15 18341039736509509760
14790565 3 18121220042279263660
15196674 1 18413386531711578972
15442244 35 18339921502828970820
1601671 61 18411700955259862548
17802600 8 18343296011341506933
18186145 218 17702682067182750550
19049666 15 18334864917340535170
20645477 70 18202566168339397574
21033648 29 17845918715450793696
21065198 57 18408603690738210146
21065199 12 18335985384335060650
21279426 13 18197782098836356214
21421861 104 17678729030631445770
22182937 141 18340495478364738225
2306618 200 18059863917145314099
23402539 116 18337100268178504735
23559900 14 18335976579440970578
23845131 108 17972891255262738897
351380 180 18411974801904819159
4214541 1 18411134731892411077
5104073 3 18411135805581280419
59124914 9 17905609900305892105
90127 26 18339930406654949560
9709674 26 18412547612918789199
9981440 41 18411411804839049091

> <PUBCHEM_SHAPE_MULTIPOLES>
350.81
9.19
2.93
0.95
1.56
1.53
0.33
3.08
0.4
-2.4
0.34
-0.5
-0.54
0.9

> <PUBCHEM_SHAPE_SELFOVERLAP>
723.029

> <PUBCHEM_SHAPE_VOLUME>
199.7

> <PUBCHEM_COORDINATE_TYPE>
2
5
10

$$$$
