139585158
  -OEChem-03292013293D

 76 80  0     1  0  0  0  0  0999 V2000
    2.8143    0.7324   -0.7682 O   0  0  0  0  0  0  0  0  0  0  0  0
   -5.6947   -1.6048    0.8528 O   0  0  0  0  0  0  0  0  0  0  0  0
   -4.2245   -2.7364   -1.6358 O   0  0  0  0  0  0  0  0  0  0  0  0
   -0.4907    2.6780   -2.1294 O   0  0  0  0  0  0  0  0  0  0  0  0
    0.0785   -1.1218    0.3120 O   0  0  0  0  0  0  0  0  0  0  0  0
    2.0967    2.1036   -2.4451 O   0  0  0  0  0  0  0  0  0  0  0  0
   -2.5559   -0.0189   -0.3417 C   0  0  1  0  0  0  0  0  0  0  0  0
   -2.0603    1.3799   -0.8419 C   0  0  1  0  0  0  0  0  0  0  0  0
   -4.0463   -0.0290    0.1098 C   0  0  1  0  0  0  0  0  0  0  0  0
   -2.3411    2.4453    0.3167 C   0  0  1  0  0  0  0  0  0  0  0  0
   -2.4114   -1.1820   -1.3576 C   0  0  0  0  0  0  0  0  0  0  0  0
   -4.3142   -1.2665    1.0011 C   0  0  2  0  0  0  0  0  0  0  0  0
   -3.3979   -2.4687    0.6444 C   0  0  2  0  0  0  0  0  0  0  0  0
   -3.0498   -2.4985   -0.8577 C   0  0  1  0  0  0  0  0  0  0  0  0
   -0.5832    1.5246   -1.3335 C   0  0  0  0  0  0  0  0  0  0  0  0
   -4.5153    1.2492    0.7517 C   0  0  0  0  0  0  0  0  0  0  0  0
    2.3448   -0.3120    0.1316 C   0  0  2  0  0  0  0  0  0  0  0  0
   -2.9484    1.7787   -2.0839 C   0  0  0  0  0  0  0  0  0  0  0  0
   -3.7742    2.3630    0.8098 C   0  0  0  0  0  0  0  0  0  0  0  0
    2.7438    0.0408    1.6022 C   0  0  2  0  0  0  0  0  0  0  0  0
   -1.4967    2.3929    1.6278 C   0  0  0  0  0  0  0  0  0  0  0  0
    0.5449    0.8229   -1.0652 C   0  0  0  0  0  0  0  0  0  0  0  0
    2.9890   -1.6238   -0.3376 C   0  0  0  0  0  0  0  0  0  0  0  0
    0.8558   -0.3077   -0.1500 C   0  0  0  0  0  0  0  0  0  0  0  0
   -3.9543   -3.8086    1.1340 C   0  0  0  0  0  0  0  0  0  0  0  0
    4.5347   -1.5956   -0.2482 C   0  0  2  0  0  0  0  0  0  0  0  0
    2.2792    1.4776    2.0332 C   0  0  0  0  0  0  0  0  0  0  0  0
    4.2650   -0.0328    1.7154 C   0  0  0  0  0  0  0  0  0  0  0  0
    5.0640   -0.7571    0.9073 C   0  0  0  0  0  0  0  0  0  0  0  0
   -0.0022    2.4639    1.5198 C   0  0  0  0  0  0  0  0  0  0  0  0
    1.8651    1.3145   -1.5480 C   0  0  0  0  0  0  0  0  0  0  0  0
    2.2275   -1.0069    2.6235 C   0  0  0  0  0  0  0  0  0  0  0  0
    0.7883    1.6155    2.1959 C   0  0  0  0  0  0  0  0  0  0  0  0
    5.1502   -1.1585   -1.5860 C   0  0  0  0  0  0  0  0  0  0  0  0
    6.5470   -0.8127    1.1596 C   0  0  0  0  0  0  0  0  0  0  0  0
    4.6723   -2.0405   -2.7189 C   0  0  0  0  0  0  0  0  0  0  0  0
   -1.9688   -0.2432    0.5531 H   0  0  0  0  0  0  0  0  0  0  0  0
   -4.6808   -0.1324   -0.7833 H   0  0  0  0  0  0  0  0  0  0  0  0
   -2.2042    3.4466   -0.1169 H   0  0  0  0  0  0  0  0  0  0  0  0
   -2.8614   -0.9023   -2.3171 H   0  0  0  0  0  0  0  0  0  0  0  0
   -1.3570   -1.3657   -1.5768 H   0  0  0  0  0  0  0  0  0  0  0  0
   -4.1574   -1.0268    2.0607 H   0  0  0  0  0  0  0  0  0  0  0  0
   -2.4497   -2.3210    1.1803 H   0  0  0  0  0  0  0  0  0  0  0  0
   -2.3639   -3.3299   -1.0594 H   0  0  0  0  0  0  0  0  0  0  0  0
   -5.5301    1.2837    1.1383 H   0  0  0  0  0  0  0  0  0  0  0  0
   -4.0152    1.5909   -1.9436 H   0  0  0  0  0  0  0  0  0  0  0  0
   -2.6431    1.2314   -2.9837 H   0  0  0  0  0  0  0  0  0  0  0  0
   -2.8698    2.8492   -2.3118 H   0  0  0  0  0  0  0  0  0  0  0  0
   -4.1965    3.2516    1.2723 H   0  0  0  0  0  0  0  0  0  0  0  0
   -1.7783    1.4954    2.1968 H   0  0  0  0  0  0  0  0  0  0  0  0
   -1.7964    3.2446    2.2563 H   0  0  0  0  0  0  0  0  0  0  0  0
    2.6241   -1.8794   -1.3349 H   0  0  0  0  0  0  0  0  0  0  0  0
    2.6245   -2.4461    0.2925 H   0  0  0  0  0  0  0  0  0  0  0  0
   -4.8824   -4.0779    0.6200 H   0  0  0  0  0  0  0  0  0  0  0  0
   -4.1586   -3.7711    2.2092 H   0  0  0  0  0  0  0  0  0  0  0  0
   -3.2307   -4.6118    0.9586 H   0  0  0  0  0  0  0  0  0  0  0  0
    4.8541   -2.6319   -0.0654 H   0  0  0  0  0  0  0  0  0  0  0  0
    2.6598    2.2264    1.3271 H   0  0  0  0  0  0  0  0  0  0  0  0
    2.7274    1.7304    3.0041 H   0  0  0  0  0  0  0  0  0  0  0  0
    4.7149    0.5035    2.5491 H   0  0  0  0  0  0  0  0  0  0  0  0
   -6.2228   -0.8736    1.2144 H   0  0  0  0  0  0  0  0  0  0  0  0
    0.4307    3.1938    0.8426 H   0  0  0  0  0  0  0  0  0  0  0  0
    2.4640   -0.7006    3.6505 H   0  0  0  0  0  0  0  0  0  0  0  0
    2.6856   -1.9919    2.4782 H   0  0  0  0  0  0  0  0  0  0  0  0
    1.1451   -1.1495    2.5710 H   0  0  0  0  0  0  0  0  0  0  0  0
   -3.9468   -2.8462   -2.5612 H   0  0  0  0  0  0  0  0  0  0  0  0
    0.3181    0.9274    2.8943 H   0  0  0  0  0  0  0  0  0  0  0  0
    0.4007    2.7707   -2.4960 H   0  0  0  0  0  0  0  0  0  0  0  0
    6.2417   -1.2520   -1.5346 H   0  0  0  0  0  0  0  0  0  0  0  0
    4.9416   -0.1082   -1.8145 H   0  0  0  0  0  0  0  0  0  0  0  0
    6.8880   -1.8523    1.2006 H   0  0  0  0  0  0  0  0  0  0  0  0
    6.8212   -0.3434    2.1107 H   0  0  0  0  0  0  0  0  0  0  0  0
    7.0956   -0.2930    0.3686 H   0  0  0  0  0  0  0  0  0  0  0  0
    4.6623   -3.0998   -2.4433 H   0  0  0  0  0  0  0  0  0  0  0  0
    5.3486   -1.9322   -3.5746 H   0  0  0  0  0  0  0  0  0  0  0  0
    3.6815   -1.7528   -3.0816 H   0  0  0  0  0  0  0  0  0  0  0  0
  1 17  1  0  0  0  0
  1 31  1  0  0  0  0
  2 12  1  0  0  0  0
  2 61  1  0  0  0  0
  3 14  1  0  0  0  0
  3 66  1  0  0  0  0
  4 15  1  0  0  0  0
  4 68  1  0  0  0  0
  5 24  2  0  0  0  0
  6 31  2  0  0  0  0
  7  8  1  0  0  0  0
  7  9  1  0  0  0  0
  7 11  1  0  0  0  0
  7 37  1  0  0  0  0
  8 10  1  0  0  0  0
  8 15  1  0  0  0  0
  8 18  1  0  0  0  0
  9 12  1  0  0  0  0
  9 16  1  0  0  0  0
  9 38  1  0  0  0  0
 10 19  1  0  0  0  0
 10 21  1  0  0  0  0
 10 39  1  0  0  0  0
 11 14  1  0  0  0  0
 11 40  1  0  0  0  0
 11 41  1  0  0  0  0
 12 13  1  0  0  0  0
 12 42  1  0  0  0  0
 13 14  1  0  0  0  0
 13 25  1  0  0  0  0
 13 43  1  0  0  0  0
 14 44  1  0  0  0  0
 15 22  2  3  0  0  0
 16 19  2  0  0  0  0
 16 45  1  0  0  0  0
 17 20  1  0  0  0  0
 17 23  1  0  0  0  0
 17 24  1  0  0  0  0
 18 46  1  0  0  0  0
 18 47  1  0  0  0  0
 18 48  1  0  0  0  0
 19 49  1  0  0  0  0
 20 27  1  0  0  0  0
 20 28  1  0  0  0  0
 20 32  1  0  0  0  0
 21 30  1  0  0  0  0
 21 50  1  0  0  0  0
 21 51  1  0  0  0  0
 22 24  1  0  0  0  0
 22 31  1  0  0  0  0
 23 26  1  0  0  0  0
 23 52  1  0  0  0  0
 23 53  1  0  0  0  0
 25 54  1  0  0  0  0
 25 55  1  0  0  0  0
 25 56  1  0  0  0  0
 26 29  1  0  0  0  0
 26 34  1  0  0  0  0
 26 57  1  0  0  0  0
 27 33  1  0  0  0  0
 27 58  1  0  0  0  0
 27 59  1  0  0  0  0
 28 29  2  0  0  0  0
 28 60  1  0  0  0  0
 29 35  1  0  0  0  0
 30 33  2  0  0  0  0
 30 62  1  0  0  0  0
 32 63  1  0  0  0  0
 32 64  1  0  0  0  0
 32 65  1  0  0  0  0
 33 67  1  0  0  0  0
 34 36  1  0  0  0  0
 34 69  1  0  0  0  0
 34 70  1  0  0  0  0
 35 71  1  0  0  0  0
 35 72  1  0  0  0  0
 35 73  1  0  0  0  0
 36 74  1  0  0  0  0
 36 75  1  0  0  0  0
 36 76  1  0  0  0  0
M  END
> <PUBCHEM_COMPOUND_CID>
139585158

> <PUBCHEM_CONFORMER_RMSD>
0.8

> <PUBCHEM_CONFORMER_DIVERSEORDER>
1

> <PUBCHEM_MMFF94_PARTIAL_CHARGES>
35
1 -0.43
10 0.14
12 0.28
14 0.28
15 -0.06
16 -0.29
17 0.34
19 -0.29
2 -0.68
20 0.14
21 0.14
22 0.03
24 0.49
26 0.14
27 0.14
28 -0.29
29 -0.28
3 -0.68
30 -0.29
31 0.71
33 -0.29
35 0.14
4 -0.53
45 0.15
49 0.15
5 -0.57
6 -0.57
60 0.15
61 0.4
62 0.15
66 0.4
67 0.15
68 0.45
8 0.14
9 0.14

> <PUBCHEM_EFFECTIVE_ROTOR_COUNT>
2.8

> <PUBCHEM_PHARMACOPHORE_FEATURES>
13
1 2 acceptor
1 2 donor
1 22 anion
1 3 acceptor
1 3 donor
1 36 hydrophobe
1 4 donor
1 5 acceptor
1 6 acceptor
5 1 17 22 24 31 rings
6 17 20 23 26 28 29 rings
6 7 8 9 10 16 19 rings
6 7 9 11 12 13 14 rings

> <PUBCHEM_HEAVY_ATOM_COUNT>
36

> <PUBCHEM_ATOM_DEF_STEREO_COUNT>
10

> <PUBCHEM_ATOM_UDEF_STEREO_COUNT>
0

> <PUBCHEM_BOND_DEF_STEREO_COUNT>
1

> <PUBCHEM_BOND_UDEF_STEREO_COUNT>
1

> <PUBCHEM_ISOTOPIC_ATOM_COUNT>
0

> <PUBCHEM_COMPONENT_COUNT>
1

> <PUBCHEM_CACTVS_TAUTO_COUNT>
-1

> <PUBCHEM_CONFORMER_ID>
0851E68600000001

> <PUBCHEM_MMFF94_ENERGY>
134.1656

> <PUBCHEM_FEATURE_SELFOVERLAP>
66.002

> <PUBCHEM_SHAPE_FINGERPRINT>
11135609 12 18343868813912787672
11370993 144 17632295631602270994
12156800 1 16697008173079338745
12553582 1 17822004320250803115
12633257 1 17346322647786411235
13009979 54 18334580173999116169
13224815 77 18334287691100100337
13583140 156 16629949006288403806
13782708 43 18340196394465556554
14856354 85 18272367560285198732
15001296 14 18042133222352377143
15484559 13 13417429724844000764
15721738 202 18338813302809422196
17349148 13 15502658131849006664
1813 80 18186517721872886476
20775530 9 18334570287269328555
21033648 29 17703494520059969946
23559900 14 18342460330822559709
238 59 14490464309448432352
3459 110 16917059014377258223
392239 28 18130784581378260450
4058900 60 17405158331012139665
460360 51 15840724967551147456
469060 322 17968102992953770627
508706 21 18411698781558394647
57527295 17 15430577507900941017

> <PUBCHEM_SHAPE_MULTIPOLES>
705.65
11.61
3.5
2.52
6.3
1.13
0.51
7.49
-1.47
-4.26
-0.08
1.77
-0.52
1.31

> <PUBCHEM_SHAPE_SELFOVERLAP>
1514.554

> <PUBCHEM_SHAPE_VOLUME>
383.5

> <PUBCHEM_COORDINATE_TYPE>
2
5
10

$$$$
