139587673
  -OEChem-03292013293D

 35 37  0     0  0  0  0  0  0999 V2000
    4.9388   -1.1787    0.3880 S   0  0  0  0  0  0  0  0  0  0  0  0
   -3.7135    2.4993    0.4061 O   0  0  0  0  0  0  0  0  0  0  0  0
   -0.2473   -2.3557   -0.2680 O   0  0  0  0  0  0  0  0  0  0  0  0
   -1.2003    2.8895    0.1027 O   0  0  0  0  0  0  0  0  0  0  0  0
    4.2773   -0.1801   -0.7382 O   0  0  0  0  0  0  0  0  0  0  0  0
    1.2829    3.4488   -0.1849 O   0  0  0  0  0  0  0  0  0  0  0  0
   -5.6322   -2.5816   -0.8954 O   0  0  0  0  0  0  0  0  0  0  0  0
    6.5454   -0.9382    0.2279 O   0  0  0  0  0  0  0  0  0  0  0  0
    4.5493   -0.7234    1.7099 O   0  0  0  0  0  0  0  0  0  0  0  0
    4.6628   -2.5446   -0.0180 O   0  0  0  0  0  0  0  0  0  0  0  0
   -1.8414   -0.6544    0.0181 C   0  0  0  0  0  0  0  0  0  0  0  0
   -2.0905    0.7162    0.1148 C   0  0  0  0  0  0  0  0  0  0  0  0
    0.3940    1.1885   -0.1798 C   0  0  0  0  0  0  0  0  0  0  0  0
    0.6431   -0.1822   -0.2766 C   0  0  0  0  0  0  0  0  0  0  0  0
   -0.4655   -1.1536   -0.1814 C   0  0  0  0  0  0  0  0  0  0  0  0
   -0.9820    1.6879    0.0187 C   0  0  0  0  0  0  0  0  0  0  0  0
   -2.9010   -1.5648    0.1105 C   0  0  0  0  0  0  0  0  0  0  0  0
   -3.3992    1.1765    0.3039 C   0  0  0  0  0  0  0  0  0  0  0  0
   -4.2035   -1.1020    0.2989 C   0  0  0  0  0  0  0  0  0  0  0  0
    1.4538    2.0988   -0.2712 C   0  0  0  0  0  0  0  0  0  0  0  0
    1.9517   -0.6425   -0.4650 C   0  0  0  0  0  0  0  0  0  0  0  0
   -4.4521    0.2657    0.3954 C   0  0  0  0  0  0  0  0  0  0  0  0
    3.0048    0.2681   -0.5557 C   0  0  0  0  0  0  0  0  0  0  0  0
    2.7564    1.6358   -0.4589 C   0  0  0  0  0  0  0  0  0  0  0  0
   -5.3316   -2.0728    0.3983 C   0  0  0  0  0  0  0  0  0  0  0  0
   -2.7215   -2.6348    0.0367 H   0  0  0  0  0  0  0  0  0  0  0  0
    2.1502   -1.7069   -0.5554 H   0  0  0  0  0  0  0  0  0  0  0  0
   -5.4665    0.6300    0.5407 H   0  0  0  0  0  0  0  0  0  0  0  0
    3.5809    2.3412   -0.5295 H   0  0  0  0  0  0  0  0  0  0  0  0
   -5.0632   -2.9068    1.0563 H   0  0  0  0  0  0  0  0  0  0  0  0
   -6.2333   -1.6032    0.8061 H   0  0  0  0  0  0  0  0  0  0  0  0
   -2.9194    3.0489    0.3317 H   0  0  0  0  0  0  0  0  0  0  0  0
    0.3491    3.6701   -0.0534 H   0  0  0  0  0  0  0  0  0  0  0  0
   -6.3616   -3.2160   -0.7896 H   0  0  0  0  0  0  0  0  0  0  0  0
    7.1131   -1.4644    0.8385 H   0  0  0  0  0  0  0  0  0  0  0  0
  1  5  1  0  0  0  0
  1  8  1  0  0  0  0
  1  9  2  0  0  0  0
  1 10  2  0  0  0  0
  2 18  1  0  0  0  0
  2 32  1  0  0  0  0
  3 15  2  0  0  0  0
  4 16  2  0  0  0  0
  5 23  1  0  0  0  0
  6 20  1  0  0  0  0
  6 33  1  0  0  0  0
  7 25  1  0  0  0  0
  7 34  1  0  0  0  0
  8 35  1  0  0  0  0
 11 12  2  0  0  0  0
 11 15  1  0  0  0  0
 11 17  1  0  0  0  0
 12 16  1  0  0  0  0
 12 18  1  0  0  0  0
 13 14  2  0  0  0  0
 13 16  1  0  0  0  0
 13 20  1  0  0  0  0
 14 15  1  0  0  0  0
 14 21  1  0  0  0  0
 17 19  2  0  0  0  0
 17 26  1  0  0  0  0
 18 22  2  0  0  0  0
 19 22  1  0  0  0  0
 19 25  1  0  0  0  0
 20 24  2  0  0  0  0
 21 23  2  0  0  0  0
 21 27  1  0  0  0  0
 22 28  1  0  0  0  0
 23 24  1  0  0  0  0
 24 29  1  0  0  0  0
 25 30  1  0  0  0  0
 25 31  1  0  0  0  0
M  END
> <PUBCHEM_COMPOUND_CID>
139587673

> <PUBCHEM_CONFORMER_RMSD>
0.6

> <PUBCHEM_CONFORMER_DIVERSEORDER>
1
3
8
7
4
6
5
2

> <PUBCHEM_MMFF94_PARTIAL_CHARGES>
33
1 1.67
10 -0.65
11 0.09
12 0.09
13 0.09
14 0.09
15 0.4
16 0.4
17 -0.15
18 0.08
19 -0.14
2 -0.53
20 0.08
21 -0.15
22 -0.15
23 0.08
24 -0.15
25 0.42
26 0.15
27 0.15
28 0.15
29 0.15
3 -0.57
32 0.45
33 0.45
34 0.4
35 0.5
4 -0.57
5 -0.27
6 -0.53
7 -0.68
8 -0.68
9 -0.65

> <PUBCHEM_EFFECTIVE_ROTOR_COUNT>
3

> <PUBCHEM_PHARMACOPHORE_FEATURES>
13
1 10 acceptor
1 2 donor
1 3 acceptor
1 4 acceptor
1 6 donor
1 7 acceptor
1 7 donor
1 8 acceptor
1 9 acceptor
4 1 8 9 10 anion
6 11 12 13 14 15 16 rings
6 11 12 17 18 19 22 rings
6 13 14 20 21 23 24 rings

> <PUBCHEM_HEAVY_ATOM_COUNT>
25

> <PUBCHEM_ATOM_DEF_STEREO_COUNT>
0

> <PUBCHEM_ATOM_UDEF_STEREO_COUNT>
0

> <PUBCHEM_BOND_DEF_STEREO_COUNT>
0

> <PUBCHEM_BOND_UDEF_STEREO_COUNT>
0

> <PUBCHEM_ISOTOPIC_ATOM_COUNT>
0

> <PUBCHEM_COMPONENT_COUNT>
1

> <PUBCHEM_CACTVS_TAUTO_COUNT>
-1

> <PUBCHEM_CONFORMER_ID>
0851F05900000001

> <PUBCHEM_MMFF94_ENERGY>
73.94

> <PUBCHEM_FEATURE_SELFOVERLAP>
66.074

> <PUBCHEM_SHAPE_FINGERPRINT>
10062212 137 18409730651433175691
10411042 1 18410294730715043647
10693767 8 17984125231641169871
10967382 1 17979925126902194373
11607047 403 16048685815192417387
12236239 1 17895198762525887326
12403259 226 18410291441171716621
12403260 363 18411984701999680173
12633257 1 18339091397314964313
12839892 36 18343016657878641743
13140716 1 18412830179134042017
13533116 47 18265334087091010515
13540713 5 18266760111087332869
13583140 156 14476139786283869117
13862211 1 18411982507219151151
14178342 30 18129112121102959921
14347332 77 18410854391377871415
15042514 8 18265899055826955388
15196674 1 18410860987999342469
15442244 35 18410579512848500052
15927050 60 17764312039330311836
17349148 13 18272374199877363767
17492 89 18337676441724534251
17857418 61 18333730221340663706
1813 80 17458347408174370694
19591789 44 18410859884287524047
20028762 73 18201719608557896695
21033648 29 17631996577635726466
21267235 1 18409740576876081263
21792934 111 18341891927299383427
23366157 5 18042691791671856220
23402539 116 18413103939937467278
23522609 53 18048917140208350109
23559900 14 18410569600090491129
23622692 118 18411696617041914221
25147074 1 18337688489102466301
3004659 81 18113340804319559718
3286 77 18335422408548564653
335352 9 18410014304401755277
350125 39 18411143562751476893
4409770 3 17753038402228254148
465052 167 18337399347503676167
5104073 3 18341338863459097897
56633871 153 18196100945193827427
76465 3 18408603677531359937
9709674 26 18264779924920212691
9981440 41 17327177053570559128

> <PUBCHEM_SHAPE_MULTIPOLES>
465.51
11.88
3.17
0.8
4.33
1.3
0.12
-8.72
1.46
-1
-0.11
0.37
-0.16
-0.95

> <PUBCHEM_SHAPE_SELFOVERLAP>
1027.602

> <PUBCHEM_SHAPE_VOLUME>
250.1

> <PUBCHEM_COORDINATE_TYPE>
2
5
10

$$$$
