139589704
  -OEChem-03292013293D

 55 56  0     1  0  0  0  0  0999 V2000
    0.1493   -1.9574    0.1718 O   0  0  0  0  0  0  0  0  0  0  0  0
    0.9135    0.5015   -0.2944 O   0  0  0  0  0  0  0  0  0  0  0  0
    5.7488   -0.6385    1.6966 O   0  0  0  0  0  0  0  0  0  0  0  0
    1.4553   -3.1212   -1.3228 O   0  0  0  0  0  0  0  0  0  0  0  0
   -1.4135    0.2420   -2.1550 O   0  0  0  0  0  0  0  0  0  0  0  0
   -6.8104    2.7814    1.3545 O   0  5  0  0  0  0  0  0  0  0  0  0
   -7.7791    0.8175    1.2020 O   0  0  0  0  0  0  0  0  0  0  0  0
    3.5468   -1.2018    1.3804 N   0  0  0  0  0  0  0  0  0  0  0  0
    3.1326    1.0317   -0.1169 N   0  0  0  0  0  0  0  0  0  0  0  0
   -1.9310   -1.8836   -1.3827 N   0  0  0  0  0  0  0  0  0  0  0  0
   -6.7988    1.5758    1.0069 N   0  3  0  0  0  0  0  0  0  0  0  0
    1.2301   -1.9439    1.1074 C   0  0  0  0  0  0  0  0  0  0  0  0
    2.4145   -1.2269    0.4752 C   0  0  1  0  0  0  0  0  0  0  0  0
    1.5856   -3.3903    1.4555 C   0  0  0  0  0  0  0  0  0  0  0  0
    0.7472   -1.1990    2.3520 C   0  0  0  0  0  0  0  0  0  0  0  0
    2.0518    0.1880    0.0541 C   0  0  0  0  0  0  0  0  0  0  0  0
    4.4128    0.7638    0.2989 C   0  0  0  0  0  0  0  0  0  0  0  0
    4.6627   -0.4220    1.1660 C   0  0  0  0  0  0  0  0  0  0  0  0
    5.4294    1.5860    0.0082 C   0  0  0  0  0  0  0  0  0  0  0  0
    5.2967    2.8124   -0.8557 C   0  0  0  0  0  0  0  0  0  0  0  0
    0.3974   -2.5832   -1.0125 C   0  0  0  0  0  0  0  0  0  0  0  0
   -0.7924   -2.5531   -1.9427 C   0  0  0  0  0  0  0  0  0  0  0  0
    4.9189    4.0223   -0.0016 C   0  0  0  0  0  0  0  0  0  0  0  0
    6.6019    3.0724   -1.6075 C   0  0  0  0  0  0  0  0  0  0  0  0
   -2.1533   -0.5185   -1.5364 C   0  0  0  0  0  0  0  0  0  0  0  0
   -3.3650    0.0277   -0.8729 C   0  0  0  0  0  0  0  0  0  0  0  0
   -3.4008    1.3650   -0.4777 C   0  0  0  0  0  0  0  0  0  0  0  0
   -4.4672   -0.7964   -0.6455 C   0  0  0  0  0  0  0  0  0  0  0  0
   -4.5386    1.8780    0.1451 C   0  0  0  0  0  0  0  0  0  0  0  0
   -5.6048   -0.2835   -0.0226 C   0  0  0  0  0  0  0  0  0  0  0  0
   -5.6406    1.0537    0.3727 C   0  0  0  0  0  0  0  0  0  0  0  0
    2.8091   -1.6996   -0.4270 H   0  0  0  0  0  0  0  0  0  0  0  0
    1.5212   -1.1212    3.1222 H   0  0  0  0  0  0  0  0  0  0  0  0
    2.1161   -3.4522    2.4128 H   0  0  0  0  0  0  0  0  0  0  0  0
    0.3816   -0.1928    2.1237 H   0  0  0  0  0  0  0  0  0  0  0  0
   -0.1080   -1.7250    2.7943 H   0  0  0  0  0  0  0  0  0  0  0  0
    2.2325   -3.8762    0.7191 H   0  0  0  0  0  0  0  0  0  0  0  0
    0.6819   -4.0047    1.5464 H   0  0  0  0  0  0  0  0  0  0  0  0
    3.6812   -1.9944    2.0000 H   0  0  0  0  0  0  0  0  0  0  0  0
    2.9396    1.9283   -0.5515 H   0  0  0  0  0  0  0  0  0  0  0  0
    6.4221    1.3807    0.4036 H   0  0  0  0  0  0  0  0  0  0  0  0
    4.5256    2.6675   -1.6216 H   0  0  0  0  0  0  0  0  0  0  0  0
   -1.0926   -3.5834   -2.1537 H   0  0  0  0  0  0  0  0  0  0  0  0
   -0.4942   -2.0516   -2.8682 H   0  0  0  0  0  0  0  0  0  0  0  0
    5.6789    4.2281    0.7609 H   0  0  0  0  0  0  0  0  0  0  0  0
    7.4328    3.2681   -0.9200 H   0  0  0  0  0  0  0  0  0  0  0  0
    6.5018    3.9420   -2.2662 H   0  0  0  0  0  0  0  0  0  0  0  0
    6.8746    2.2129   -2.2301 H   0  0  0  0  0  0  0  0  0  0  0  0
    4.8193    4.9179   -0.6246 H   0  0  0  0  0  0  0  0  0  0  0  0
    3.9630    3.8688    0.5107 H   0  0  0  0  0  0  0  0  0  0  0  0
   -2.5388   -2.4391   -0.7903 H   0  0  0  0  0  0  0  0  0  0  0  0
   -2.5501    2.0213   -0.6419 H   0  0  0  0  0  0  0  0  0  0  0  0
   -4.4915   -1.8340   -0.9649 H   0  0  0  0  0  0  0  0  0  0  0  0
   -4.5305    2.9241    0.4405 H   0  0  0  0  0  0  0  0  0  0  0  0
   -6.4473   -0.9528    0.1327 H   0  0  0  0  0  0  0  0  0  0  0  0
  1 12  1  0  0  0  0
  1 21  1  0  0  0  0
  2 16  2  0  0  0  0
  3 18  2  0  0  0  0
  4 21  2  0  0  0  0
  5 25  2  0  0  0  0
  6 11  1  0  0  0  0
  7 11  2  0  0  0  0
  8 13  1  0  0  0  0
  8 18  1  0  0  0  0
  8 39  1  0  0  0  0
  9 16  1  0  0  0  0
  9 17  1  0  0  0  0
  9 40  1  0  0  0  0
 10 22  1  0  0  0  0
 10 25  1  0  0  0  0
 10 51  1  0  0  0  0
 11 31  1  0  0  0  0
 12 13  1  0  0  0  0
 12 14  1  0  0  0  0
 12 15  1  0  0  0  0
 13 16  1  0  0  0  0
 13 32  1  0  0  0  0
 14 34  1  0  0  0  0
 14 37  1  0  0  0  0
 14 38  1  0  0  0  0
 15 33  1  0  0  0  0
 15 35  1  0  0  0  0
 15 36  1  0  0  0  0
 17 18  1  0  0  0  0
 17 19  2  0  0  0  0
 19 20  1  0  0  0  0
 19 41  1  0  0  0  0
 20 23  1  0  0  0  0
 20 24  1  0  0  0  0
 20 42  1  0  0  0  0
 21 22  1  0  0  0  0
 22 43  1  0  0  0  0
 22 44  1  0  0  0  0
 23 45  1  0  0  0  0
 23 49  1  0  0  0  0
 23 50  1  0  0  0  0
 24 46  1  0  0  0  0
 24 47  1  0  0  0  0
 24 48  1  0  0  0  0
 25 26  1  0  0  0  0
 26 27  2  0  0  0  0
 26 28  1  0  0  0  0
 27 29  1  0  0  0  0
 27 52  1  0  0  0  0
 28 30  2  0  0  0  0
 28 53  1  0  0  0  0
 29 31  2  0  0  0  0
 29 54  1  0  0  0  0
 30 31  1  0  0  0  0
 30 55  1  0  0  0  0
M  CHG  2   6  -1  11   1
M  END
> <PUBCHEM_COMPOUND_CID>
139589704

> <PUBCHEM_CONFORMER_RMSD>
1.2

> <PUBCHEM_CONFORMER_DIVERSEORDER>
1
43
56
46
137
7
102
70
45
32
115
78
68
41
29
87
35
117
8
5
61
24
82
60
38
140
136
112
26
36
42
53
17
71
30
23
66
14
79
96
67
10
123
104
4
9
114
37
27
74
65
106
62
141
21
20
54
122
94
28
13
144
2
111
120
58
57
22
83
64
33
40
49
90
16
109
85
116
124
110
81
15
103
25
50
131
19
108
59
95
72
134
80
105
89
93
113
86
11
91
44
3
98
34
12
101
73
118
48
52
139
143
142
6
18
69
119
130
51
121
99
92
128
133
84
107
135
47
129
31
138
55
63
77
76
97
100
88
75
126
125
127
39
132

> <PUBCHEM_MMFF94_PARTIAL_CHARGES>
35
1 -0.43
10 -0.73
11 0.91
12 0.28
13 0.36
16 0.57
17 0.12
18 0.62
19 -0.29
2 -0.57
20 0.14
21 0.66
22 0.36
25 0.54
26 0.09
27 -0.15
28 -0.15
29 -0.15
3 -0.57
30 -0.15
31 0.13
39 0.37
4 -0.57
40 0.37
41 0.15
5 -0.57
51 0.37
52 0.15
53 0.15
54 0.15
55 0.15
6 -0.52
7 -0.52
8 -0.73
9 -0.54

> <PUBCHEM_EFFECTIVE_ROTOR_COUNT>
9.6

> <PUBCHEM_PHARMACOPHORE_FEATURES>
14
1 10 donor
1 2 acceptor
1 3 acceptor
1 4 acceptor
1 5 acceptor
1 6 acceptor
1 6 anion
1 7 acceptor
1 8 donor
1 9 donor
3 12 14 15 hydrophobe
3 20 23 24 hydrophobe
6 26 27 28 29 30 31 rings
6 8 9 13 16 17 18 rings

> <PUBCHEM_HEAVY_ATOM_COUNT>
31

> <PUBCHEM_ATOM_DEF_STEREO_COUNT>
1

> <PUBCHEM_ATOM_UDEF_STEREO_COUNT>
0

> <PUBCHEM_BOND_DEF_STEREO_COUNT>
1

> <PUBCHEM_BOND_UDEF_STEREO_COUNT>
0

> <PUBCHEM_ISOTOPIC_ATOM_COUNT>
0

> <PUBCHEM_COMPONENT_COUNT>
1

> <PUBCHEM_CACTVS_TAUTO_COUNT>
-1

> <PUBCHEM_CONFORMER_ID>
0851F84800000001

> <PUBCHEM_MMFF94_ENERGY>
94.4955

> <PUBCHEM_FEATURE_SELFOVERLAP>
71.137

> <PUBCHEM_SHAPE_FINGERPRINT>
11475781 23 16845289471496325768
1200032 147 18271820011477741834
12975358 362 17412486641106209913
13627175 23 18409721889710539389
13828863 39 18408603690806541853
13885169 86 18262803002713551508
14114211 68 17703801288415623327
14251764 75 18411419552627754100
14341114 328 18408316679807137355
14747281 78 18264790834696613398
14765038 42 18262519329093361164
14790565 3 18409162251314319316
14840074 17 18334010622718241965
14849402 71 18261388889606455546
15163728 17 18341897441563183614
15183329 4 14261635014759540255
15238133 3 17917983993153552128
15338160 23 18263930019654567667
19319366 153 18334848424834650802
19438510 23 18191300684218455240
21120745 212 17908694382651593487
21365058 113 17697051235898148286
21458453 9 16589162699644495841
21781055 127 18130792240286130944
249057 25 18195219287392919798
3178227 256 18041553647324254474
3411729 13 18340493279093225047
3552219 110 18120641694736016967
3610482 184 18268149940970759084
38570 142 18334302002484953964
392239 28 17603579721180498947
469060 322 14563634691190890090
508180 173 17987243403414324448
5104073 3 17823401877281996354
5951187 136 18271254932160273196
59682541 52 15195296295854284540
7288768 16 17677607734533879226
7808743 9 18201994452304905871

> <PUBCHEM_SHAPE_MULTIPOLES>
576.96
17.41
4.08
1.84
13.81
0.61
0.07
20.04
-4.43
-4.26
0.26
0.03
-0.85
-3.94

> <PUBCHEM_SHAPE_SELFOVERLAP>
1216.686

> <PUBCHEM_SHAPE_VOLUME>
319.6

> <PUBCHEM_COORDINATE_TYPE>
2
5
10

$$$$
