139600838
  -OEChem-03292013293D

 34 34  0     1  0  0  0  0  0999 V2000
    0.6506   -0.8724    0.2166 O   0  0  0  0  0  0  0  0  0  0  0  0
   -2.9243   -0.6978   -0.5179 O   0  0  0  0  0  0  0  0  0  0  0  0
    0.4661    2.6932   -0.5990 O   0  0  0  0  0  0  0  0  0  0  0  0
   -2.2244    2.0601    0.2470 O   0  0  0  0  0  0  0  0  0  0  0  0
   -0.9612   -2.5565    0.3185 O   0  0  0  0  0  0  0  0  0  0  0  0
    3.3195   -0.4124   -0.2534 O   0  0  0  0  0  0  0  0  0  0  0  0
   -4.1332    0.2074    1.2303 O   0  0  0  0  0  0  0  0  0  0  0  0
    5.1314    0.6118    0.7492 O   0  0  0  0  0  0  0  0  0  0  0  0
    0.0886    1.4791    0.0448 C   0  0  1  0  0  0  0  0  0  0  0  0
   -1.3404    1.1159   -0.3591 C   0  0  1  0  0  0  0  0  0  0  0  0
    1.0646    0.3699   -0.3546 C   0  0  1  0  0  0  0  0  0  0  0  0
   -1.7053   -0.2941    0.1056 C   0  0  2  0  0  0  0  0  0  0  0  0
   -0.6189   -1.3019   -0.2697 C   0  0  1  0  0  0  0  0  0  0  0  0
    2.4783    0.6559    0.1417 C   0  0  0  0  0  0  0  0  0  0  0  0
   -4.0666   -0.3803    0.1591 C   0  0  0  0  0  0  0  0  0  0  0  0
    4.6346   -0.3104    0.1168 C   0  0  0  0  0  0  0  0  0  0  0  0
   -5.2596   -0.8629   -0.6090 C   0  0  0  0  0  0  0  0  0  0  0  0
    5.4001   -1.5046   -0.3669 C   0  0  0  0  0  0  0  0  0  0  0  0
    0.1319    1.6555    1.1266 H   0  0  0  0  0  0  0  0  0  0  0  0
   -1.4805    1.2162   -1.4419 H   0  0  0  0  0  0  0  0  0  0  0  0
    1.1051    0.2548   -1.4464 H   0  0  0  0  0  0  0  0  0  0  0  0
   -1.8180   -0.3110    1.1989 H   0  0  0  0  0  0  0  0  0  0  0  0
   -0.5779   -1.4489   -1.3565 H   0  0  0  0  0  0  0  0  0  0  0  0
    2.4849    0.7206    1.2367 H   0  0  0  0  0  0  0  0  0  0  0  0
    2.8536    1.5950   -0.2806 H   0  0  0  0  0  0  0  0  0  0  0  0
    0.4432    2.5436   -1.5596 H   0  0  0  0  0  0  0  0  0  0  0  0
   -2.1412    1.9759    1.2122 H   0  0  0  0  0  0  0  0  0  0  0  0
   -0.5252   -3.2470   -0.2090 H   0  0  0  0  0  0  0  0  0  0  0  0
   -5.2921   -0.3761   -1.5869 H   0  0  0  0  0  0  0  0  0  0  0  0
   -6.1713   -0.6068   -0.0617 H   0  0  0  0  0  0  0  0  0  0  0  0
   -5.2139   -1.9492   -0.7204 H   0  0  0  0  0  0  0  0  0  0  0  0
    4.9874   -2.4136    0.0778 H   0  0  0  0  0  0  0  0  0  0  0  0
    6.4469   -1.4122   -0.0636 H   0  0  0  0  0  0  0  0  0  0  0  0
    5.3564   -1.5552   -1.4577 H   0  0  0  0  0  0  0  0  0  0  0  0
  1 11  1  0  0  0  0
  1 13  1  0  0  0  0
  2 12  1  0  0  0  0
  2 15  1  0  0  0  0
  3  9  1  0  0  0  0
  3 26  1  0  0  0  0
  4 10  1  0  0  0  0
  4 27  1  0  0  0  0
  5 13  1  0  0  0  0
  5 28  1  0  0  0  0
  6 14  1  0  0  0  0
  6 16  1  0  0  0  0
  7 15  2  0  0  0  0
  8 16  2  0  0  0  0
  9 10  1  0  0  0  0
  9 11  1  0  0  0  0
  9 19  1  0  0  0  0
 10 12  1  0  0  0  0
 10 20  1  0  0  0  0
 11 14  1  0  0  0  0
 11 21  1  0  0  0  0
 12 13  1  0  0  0  0
 12 22  1  0  0  0  0
 13 23  1  0  0  0  0
 14 24  1  0  0  0  0
 14 25  1  0  0  0  0
 15 17  1  0  0  0  0
 16 18  1  0  0  0  0
 17 29  1  0  0  0  0
 17 30  1  0  0  0  0
 17 31  1  0  0  0  0
 18 32  1  0  0  0  0
 18 33  1  0  0  0  0
 18 34  1  0  0  0  0
M  END
> <PUBCHEM_COMPOUND_CID>
139600838

> <PUBCHEM_CONFORMER_RMSD>
0.8

> <PUBCHEM_CONFORMER_DIVERSEORDER>
1
51
82
84
24
5
31
53
38
68
30
4
39
64
74
32
40
25
14
61
11
70
65
12
16
22
81
52
80
33
73
23
34
44
15
43
57
28
83
37
49
47
66
60
36
71
8
69
6
17
10
55
46
56
77
62
58
48
9
50
79
78
20
59
18
19
54
7
76
63
72
45
3
27
35
85
41
42
2
21
29
67
75
13
26

> <PUBCHEM_MMFF94_PARTIAL_CHARGES>
21
1 -0.56
10 0.28
11 0.28
12 0.28
13 0.56
14 0.28
15 0.66
16 0.66
17 0.06
18 0.06
2 -0.43
26 0.4
27 0.4
28 0.4
3 -0.68
4 -0.68
5 -0.68
6 -0.43
7 -0.57
8 -0.57
9 0.28

> <PUBCHEM_EFFECTIVE_ROTOR_COUNT>
6.2

> <PUBCHEM_PHARMACOPHORE_FEATURES>
10
1 1 acceptor
1 3 acceptor
1 3 donor
1 4 acceptor
1 4 donor
1 5 acceptor
1 5 donor
1 7 acceptor
1 8 acceptor
6 1 9 10 11 12 13 rings

> <PUBCHEM_HEAVY_ATOM_COUNT>
18

> <PUBCHEM_ATOM_DEF_STEREO_COUNT>
5

> <PUBCHEM_ATOM_UDEF_STEREO_COUNT>
0

> <PUBCHEM_BOND_DEF_STEREO_COUNT>
0

> <PUBCHEM_BOND_UDEF_STEREO_COUNT>
0

> <PUBCHEM_ISOTOPIC_ATOM_COUNT>
0

> <PUBCHEM_COMPONENT_COUNT>
1

> <PUBCHEM_CACTVS_TAUTO_COUNT>
-1

> <PUBCHEM_CONFORMER_ID>
085223C600000001

> <PUBCHEM_MMFF94_ENERGY>
35.4989

> <PUBCHEM_FEATURE_SELFOVERLAP>
50.801

> <PUBCHEM_SHAPE_FINGERPRINT>
11401426 45 18412822499721388927
11680986 33 18120374512555358993
12011746 2 18333726914658723583
12032990 46 18409168805217862204
12236239 1 17989204859032607423
13140716 1 18193844966445327011
13288520 33 18411703145439599062
13533116 47 18060701667918112586
13551218 46 18341895139191810414
13690532 89 18409166631900983503
13760787 5 18187936109337514333
13862211 1 18409163316075941815
14115302 16 17822579411870996774
14911166 2 18334008423852760903
15042514 8 18337677532867981339
15099037 51 18334573568450061423
15196674 1 18411418367601460548
15209294 21 17917442973234585777
15848702 151 17846224332201343455
16945 1 18336837475997970141
17804303 29 18342460356676538640
17862501 102 17988924504952592783
1813 80 17676491631700568596
18522853 276 18411418418819431632
19141452 34 18130786793154925527
200 152 18343294877781188877
20510252 161 18271525299728635120
21029758 11 18341608239407446353
21029758 27 18113625598520279477
21267235 1 18409737256845197494
2297311 6 18341905043871100796
23402539 116 18342451534887384095
23557571 272 18272097059081765788
23559900 14 18339641265362231496
2748010 2 18193840340823448077
3286 77 17489583502105044809
335352 9 18409730668850409215
4340502 62 14764635235079946839
43471831 8 18189332373109401162
59755656 215 18336828572167301687
69090 78 18202280325059082678
9709674 26 18342743979754426854

> <PUBCHEM_SHAPE_MULTIPOLES>
323.48
10.55
2.05
0.76
6
0.46
0.05
-3.82
0.44
-0.11
-0.15
-0.26
0.03
0.03

> <PUBCHEM_SHAPE_SELFOVERLAP>
649.004

> <PUBCHEM_SHAPE_VOLUME>
188.3

> <PUBCHEM_COORDINATE_TYPE>
2
5
10

$$$$
