13962857
  -OEChem-03292013303D

 58 61  0     1  0  0  0  0  0999 V2000
   -4.0894    0.5348    1.6963 O   0  0  0  0  0  0  0  0  0  0  0  0
    0.3524    0.6226    0.8398 O   0  0  0  0  0  0  0  0  0  0  0  0
   -3.4024   -2.1971    1.1765 O   0  0  0  0  0  0  0  0  0  0  0  0
    2.0668   -0.6492   -0.1021 O   0  0  0  0  0  0  0  0  0  0  0  0
    2.0809    2.8622    0.9075 O   0  0  0  0  0  0  0  0  0  0  0  0
    4.9105    2.0624    1.0923 O   0  0  0  0  0  0  0  0  0  0  0  0
    5.5474    0.1156   -0.9472 O   0  0  0  0  0  0  0  0  0  0  0  0
    3.8553   -2.7543    0.1419 O   0  0  0  0  0  0  0  0  0  0  0  0
   -3.3168    0.8823   -0.6201 C   0  0  0  0  0  0  0  0  0  0  0  0
   -2.9467    0.8037    0.8721 C   0  0  2  0  0  0  0  0  0  0  0  0
   -4.5021    0.0796   -1.1438 C   0  0  0  0  0  0  0  0  0  0  0  0
   -4.6192    1.5663   -1.0008 C   0  0  0  0  0  0  0  0  0  0  0  0
   -1.8801   -0.2945    1.0948 C   0  0  2  0  0  0  0  0  0  0  0  0
   -0.6409   -0.1566    0.1762 C   0  0  2  0  0  0  0  0  0  0  0  0
   -2.1274    0.9552   -1.5358 C   0  0  0  0  0  0  0  0  0  0  0  0
   -0.1246   -1.5973    0.0422 C   0  0  0  0  0  0  0  0  0  0  0  0
   -0.9231    0.4696   -1.1696 C   0  0  0  0  0  0  0  0  0  0  0  0
   -2.3537   -1.7120    0.7685 C   0  0  0  0  0  0  0  0  0  0  0  0
   -1.3770   -2.4550   -0.1178 C   0  0  2  0  0  0  0  0  0  0  0  0
   -2.4395    2.1723    1.3621 C   0  0  0  0  0  0  0  0  0  0  0  0
   -2.2665    1.6194   -2.8818 C   0  0  0  0  0  0  0  0  0  0  0  0
   -1.1643   -3.8931    0.3119 C   0  0  0  0  0  0  0  0  0  0  0  0
    1.5638    0.6713    0.0866 C   0  0  2  0  0  0  0  0  0  0  0  0
    2.5681    1.5213    0.8649 C   0  0  1  0  0  0  0  0  0  0  0  0
    3.9450    1.5024    0.2010 C   0  0  2  0  0  0  0  0  0  0  0  0
    3.2694   -0.6725   -0.8731 C   0  0  1  0  0  0  0  0  0  0  0  0
    4.3799    0.0749   -0.1309 C   0  0  1  0  0  0  0  0  0  0  0  0
    3.6344   -2.1342   -1.1117 C   0  0  0  0  0  0  0  0  0  0  0  0
   -4.4640   -0.3289   -2.1472 H   0  0  0  0  0  0  0  0  0  0  0  0
   -5.0714   -0.5348   -0.4566 H   0  0  0  0  0  0  0  0  0  0  0  0
   -5.2614    1.9435   -0.2124 H   0  0  0  0  0  0  0  0  0  0  0  0
   -4.6906    2.1515   -1.9088 H   0  0  0  0  0  0  0  0  0  0  0  0
   -1.5748   -0.3141    2.1501 H   0  0  0  0  0  0  0  0  0  0  0  0
    0.4315   -1.9162    0.9345 H   0  0  0  0  0  0  0  0  0  0  0  0
    0.4609   -1.7921   -0.8630 H   0  0  0  0  0  0  0  0  0  0  0  0
   -0.1308    0.4898   -1.9125 H   0  0  0  0  0  0  0  0  0  0  0  0
   -1.7525   -2.4093   -1.1467 H   0  0  0  0  0  0  0  0  0  0  0  0
   -2.1520    2.1266    2.4190 H   0  0  0  0  0  0  0  0  0  0  0  0
   -1.5833    2.5427    0.7911 H   0  0  0  0  0  0  0  0  0  0  0  0
   -3.2329    2.9259    1.2901 H   0  0  0  0  0  0  0  0  0  0  0  0
   -3.7817    0.4280    2.6127 H   0  0  0  0  0  0  0  0  0  0  0  0
   -3.0212    1.1128   -3.4912 H   0  0  0  0  0  0  0  0  0  0  0  0
   -1.3313    1.6065   -3.4522 H   0  0  0  0  0  0  0  0  0  0  0  0
   -2.5541    2.6689   -2.7606 H   0  0  0  0  0  0  0  0  0  0  0  0
   -0.8826   -3.9596    1.3686 H   0  0  0  0  0  0  0  0  0  0  0  0
   -2.0838   -4.4741    0.1842 H   0  0  0  0  0  0  0  0  0  0  0  0
   -0.3774   -4.3657   -0.2844 H   0  0  0  0  0  0  0  0  0  0  0  0
    1.4106    1.1674   -0.8770 H   0  0  0  0  0  0  0  0  0  0  0  0
    2.6423    1.1776    1.9035 H   0  0  0  0  0  0  0  0  0  0  0  0
    3.9497    2.1335   -0.6963 H   0  0  0  0  0  0  0  0  0  0  0  0
    3.0793   -0.2135   -1.8523 H   0  0  0  0  0  0  0  0  0  0  0  0
    4.6504   -0.4287    0.8042 H   0  0  0  0  0  0  0  0  0  0  0  0
    2.0149    3.1896   -0.0058 H   0  0  0  0  0  0  0  0  0  0  0  0
    4.5243   -2.2479   -1.7387 H   0  0  0  0  0  0  0  0  0  0  0  0
    2.8028   -2.6598   -1.5916 H   0  0  0  0  0  0  0  0  0  0  0  0
    5.7745    2.0239    0.6472 H   0  0  0  0  0  0  0  0  0  0  0  0
    5.3189    0.5707   -1.7757 H   0  0  0  0  0  0  0  0  0  0  0  0
    4.7673   -2.5574    0.4146 H   0  0  0  0  0  0  0  0  0  0  0  0
  1 10  1  0  0  0  0
  1 41  1  0  0  0  0
  2 14  1  0  0  0  0
  2 23  1  0  0  0  0
  3 18  2  0  0  0  0
  4 23  1  0  0  0  0
  4 26  1  0  0  0  0
  5 24  1  0  0  0  0
  5 53  1  0  0  0  0
  6 25  1  0  0  0  0
  6 56  1  0  0  0  0
  7 27  1  0  0  0  0
  7 57  1  0  0  0  0
  8 28  1  0  0  0  0
  8 58  1  0  0  0  0
  9 10  1  0  0  0  0
  9 11  1  0  0  0  0
  9 12  1  0  0  0  0
  9 15  1  0  0  0  0
 10 13  1  0  0  0  0
 10 20  1  0  0  0  0
 11 12  1  0  0  0  0
 11 29  1  0  0  0  0
 11 30  1  0  0  0  0
 12 31  1  0  0  0  0
 12 32  1  0  0  0  0
 13 14  1  0  0  0  0
 13 18  1  0  0  0  0
 13 33  1  0  0  0  0
 14 16  1  0  0  0  0
 14 17  1  0  0  0  0
 15 17  2  0  0  0  0
 15 21  1  0  0  0  0
 16 19  1  0  0  0  0
 16 34  1  0  0  0  0
 16 35  1  0  0  0  0
 17 36  1  0  0  0  0
 18 19  1  0  0  0  0
 19 22  1  0  0  0  0
 19 37  1  0  0  0  0
 20 38  1  0  0  0  0
 20 39  1  0  0  0  0
 20 40  1  0  0  0  0
 21 42  1  0  0  0  0
 21 43  1  0  0  0  0
 21 44  1  0  0  0  0
 22 45  1  0  0  0  0
 22 46  1  0  0  0  0
 22 47  1  0  0  0  0
 23 24  1  0  0  0  0
 23 48  1  0  0  0  0
 24 25  1  0  0  0  0
 24 49  1  0  0  0  0
 25 27  1  0  0  0  0
 25 50  1  0  0  0  0
 26 27  1  0  0  0  0
 26 28  1  0  0  0  0
 26 51  1  0  0  0  0
 27 52  1  0  0  0  0
 28 54  1  0  0  0  0
 28 55  1  0  0  0  0
M  END
> <PUBCHEM_COMPOUND_CID>
13962857

> <PUBCHEM_CONFORMER_RMSD>
0.8

> <PUBCHEM_CONFORMER_DIVERSEORDER>
1
8
3
4
7
6
5
2

> <PUBCHEM_MMFF94_PARTIAL_CHARGES>
35
1 -0.68
10 0.38
11 -0.2
12 -0.2
13 0.06
14 0.42
15 -0.18
17 -0.29
18 0.45
19 0.06
2 -0.56
21 0.14
23 0.56
24 0.28
25 0.28
26 0.28
27 0.28
28 0.28
29 0.1
3 -0.57
30 0.1
31 0.1
32 0.1
36 0.15
4 -0.56
41 0.4
5 -0.68
53 0.4
56 0.4
57 0.4
58 0.4
6 -0.68
7 -0.68
8 -0.68
9 -0.05

> <PUBCHEM_EFFECTIVE_ROTOR_COUNT>
5.2

> <PUBCHEM_PHARMACOPHORE_FEATURES>
16
1 1 acceptor
1 1 donor
1 2 acceptor
1 3 acceptor
1 4 acceptor
1 5 acceptor
1 5 donor
1 6 acceptor
1 6 donor
1 7 acceptor
1 7 donor
1 8 acceptor
1 8 donor
5 13 14 16 18 19 rings
6 4 23 24 25 26 27 rings
6 9 10 13 14 15 17 rings

> <PUBCHEM_HEAVY_ATOM_COUNT>
28

> <PUBCHEM_ATOM_DEF_STEREO_COUNT>
9

> <PUBCHEM_ATOM_UDEF_STEREO_COUNT>
0

> <PUBCHEM_BOND_DEF_STEREO_COUNT>
0

> <PUBCHEM_BOND_UDEF_STEREO_COUNT>
0

> <PUBCHEM_ISOTOPIC_ATOM_COUNT>
0

> <PUBCHEM_COMPONENT_COUNT>
1

> <PUBCHEM_CACTVS_TAUTO_COUNT>
3

> <PUBCHEM_CONFORMER_ID>
00D50E6900000001

> <PUBCHEM_MMFF94_ENERGY>
95.5914

> <PUBCHEM_FEATURE_SELFOVERLAP>
81.522

> <PUBCHEM_SHAPE_FINGERPRINT>
10165383 225 18261399884353214685
10366900 7 17846212306430181736
105312 117 18040708143877218183
1100329 8 16608291582037110960
11135926 11 18341060623494769358
11370993 70 18412824702654756210
11552529 35 18128541646419667707
11595378 159 16443059504540770324
12173636 292 18341903965175082177
12236239 1 16702018665121535772
12403259 415 18261956254522123085
12422481 6 17971223463415786651
12553582 1 18128541466663868758
12788726 201 17416420757653794376
12969540 114 18114725072004689477
13140716 1 18339086994778307418
13224815 77 17632291289843872640
13583140 156 18271525411218176780
14223421 5 18124034786938181714
14251757 17 18410291380925409032
15420108 30 15973303847352185936
16945 1 18267587901830076179
17349148 13 17703508809595374810
1813 80 17534627315382920827
20645477 56 18260265248324285652
20645477 70 17917991677129483356
21033648 144 18343016709760842012
21033648 29 18261663796834514957
21521239 73 18200293465183425647
22182313 1 18335149704174952147
23557571 272 18113904904506473662
23559900 14 18343302596011701128
3298306 158 17972027055269421679
3380486 145 17981053221648277331
350125 39 18266190589268855259
3729539 64 18120660123997519734
469060 322 17531816886611345011
5104073 3 18412549833923329650
6287921 2 17831025985003259964
633830 44 18130228129894999581
7399639 24 17763735894789139744
81228 2 17970912399729215955
9709674 26 18271813479223173486
9981440 41 16838773880821279713

> <PUBCHEM_SHAPE_MULTIPOLES>
529.27
9.69
3.22
1.66
7.8
2.49
0.65
-2.64
1.01
0.38
-0.57
-1.4
-0.83
1.87

> <PUBCHEM_SHAPE_SELFOVERLAP>
1133.496

> <PUBCHEM_SHAPE_VOLUME>
290.4

> <PUBCHEM_COORDINATE_TYPE>
2
5
10

$$$$
