13963777
  -OEChem-03292013303D

 45 47  0     0  0  0  0  0  0999 V2000
   -0.4226    0.3811   -0.1871 O   0  0  0  0  0  0  0  0  0  0  0  0
   -2.1548    2.3966    0.3460 O   0  0  0  0  0  0  0  0  0  0  0  0
    2.2934   -0.4614    1.7255 O   0  0  0  0  0  0  0  0  0  0  0  0
   -4.8497    1.8792    0.6937 O   0  0  0  0  0  0  0  0  0  0  0  0
   -4.1179   -2.7515   -0.0231 O   0  0  0  0  0  0  0  0  0  0  0  0
    4.8892    0.3747    1.3798 O   0  0  0  0  0  0  0  0  0  0  0  0
   -1.6462   -3.4923   -0.4993 O   0  0  0  0  0  0  0  0  0  0  0  0
    5.7947    1.0707   -1.1420 O   0  0  0  0  0  0  0  0  0  0  0  0
   -2.2341   -1.2356   -0.1182 C   0  0  0  0  0  0  0  0  0  0  0  0
   -1.7481    0.0673   -0.0234 C   0  0  0  0  0  0  0  0  0  0  0  0
    0.4690   -0.6432   -0.4671 C   0  0  0  0  0  0  0  0  0  0  0  0
    1.8681   -0.1960   -0.6190 C   0  0  0  0  0  0  0  0  0  0  0  0
   -2.6225    1.1194    0.2497 C   0  0  0  0  0  0  0  0  0  0  0  0
   -1.2898   -2.3261   -0.4055 C   0  0  0  0  0  0  0  0  0  0  0  0
    0.1245   -1.9362   -0.5763 C   0  0  0  0  0  0  0  0  0  0  0  0
   -3.5949   -1.4967    0.0583 C   0  0  0  0  0  0  0  0  0  0  0  0
    2.7320   -0.1220    0.4782 C   0  0  0  0  0  0  0  0  0  0  0  0
   -3.9824    0.8630    0.4265 C   0  0  0  0  0  0  0  0  0  0  0  0
   -4.4673   -0.4423    0.3308 C   0  0  0  0  0  0  0  0  0  0  0  0
    2.3352    0.1587   -1.8884 C   0  0  0  0  0  0  0  0  0  0  0  0
    4.0498    0.3026    0.3076 C   0  0  0  0  0  0  0  0  0  0  0  0
    4.5101    0.6550   -0.9612 C   0  0  0  0  0  0  0  0  0  0  0  0
    3.6527    0.5831   -2.0591 C   0  0  0  0  0  0  0  0  0  0  0  0
   -1.5098    2.9378   -0.8046 C   0  0  0  0  0  0  0  0  0  0  0  0
    1.7275    0.5802    2.5163 C   0  0  0  0  0  0  0  0  0  0  0  0
   -5.4547    2.5256   -0.4244 C   0  0  0  0  0  0  0  0  0  0  0  0
    5.6489   -0.7920    1.6861 C   0  0  0  0  0  0  0  0  0  0  0  0
    0.8447   -2.7184   -0.7881 H   0  0  0  0  0  0  0  0  0  0  0  0
   -5.5280   -0.6376    0.4705 H   0  0  0  0  0  0  0  0  0  0  0  0
    1.6801    0.1096   -2.7552 H   0  0  0  0  0  0  0  0  0  0  0  0
    4.0052    0.8565   -3.0499 H   0  0  0  0  0  0  0  0  0  0  0  0
   -3.4222   -3.3982   -0.2168 H   0  0  0  0  0  0  0  0  0  0  0  0
   -1.8250    2.4450   -1.7311 H   0  0  0  0  0  0  0  0  0  0  0  0
   -0.4242    2.8731   -0.6889 H   0  0  0  0  0  0  0  0  0  0  0  0
   -1.7791    3.9960   -0.8742 H   0  0  0  0  0  0  0  0  0  0  0  0
    1.0099    1.1795    1.9483 H   0  0  0  0  0  0  0  0  0  0  0  0
    2.5214    1.2265    2.9032 H   0  0  0  0  0  0  0  0  0  0  0  0
    1.2075    0.1233    3.3627 H   0  0  0  0  0  0  0  0  0  0  0  0
   -4.6940    2.9782   -1.0681 H   0  0  0  0  0  0  0  0  0  0  0  0
   -6.1102    3.3163   -0.0494 H   0  0  0  0  0  0  0  0  0  0  0  0
   -6.0573    1.8144   -0.9981 H   0  0  0  0  0  0  0  0  0  0  0  0
    6.2343    1.1034   -0.2749 H   0  0  0  0  0  0  0  0  0  0  0  0
    6.2799   -1.0794    0.8391 H   0  0  0  0  0  0  0  0  0  0  0  0
    4.9867   -1.6204    1.9572 H   0  0  0  0  0  0  0  0  0  0  0  0
    6.2929   -0.5665    2.5405 H   0  0  0  0  0  0  0  0  0  0  0  0
  1 10  1  0  0  0  0
  1 11  1  0  0  0  0
  2 13  1  0  0  0  0
  2 24  1  0  0  0  0
  3 17  1  0  0  0  0
  3 25  1  0  0  0  0
  4 18  1  0  0  0  0
  4 26  1  0  0  0  0
  5 16  1  0  0  0  0
  5 32  1  0  0  0  0
  6 21  1  0  0  0  0
  6 27  1  0  0  0  0
  7 14  2  0  0  0  0
  8 22  1  0  0  0  0
  8 42  1  0  0  0  0
  9 10  2  0  0  0  0
  9 14  1  0  0  0  0
  9 16  1  0  0  0  0
 10 13  1  0  0  0  0
 11 12  1  0  0  0  0
 11 15  2  0  0  0  0
 12 17  2  0  0  0  0
 12 20  1  0  0  0  0
 13 18  2  0  0  0  0
 14 15  1  0  0  0  0
 15 28  1  0  0  0  0
 16 19  2  0  0  0  0
 17 21  1  0  0  0  0
 18 19  1  0  0  0  0
 19 29  1  0  0  0  0
 20 23  2  0  0  0  0
 20 30  1  0  0  0  0
 21 22  2  0  0  0  0
 22 23  1  0  0  0  0
 23 31  1  0  0  0  0
 24 33  1  0  0  0  0
 24 34  1  0  0  0  0
 24 35  1  0  0  0  0
 25 36  1  0  0  0  0
 25 37  1  0  0  0  0
 25 38  1  0  0  0  0
 26 39  1  0  0  0  0
 26 40  1  0  0  0  0
 26 41  1  0  0  0  0
 27 43  1  0  0  0  0
 27 44  1  0  0  0  0
 27 45  1  0  0  0  0
M  END
> <PUBCHEM_COMPOUND_CID>
13963777

> <PUBCHEM_CONFORMER_RMSD>
0.8

> <PUBCHEM_CONFORMER_DIVERSEORDER>
2
10
9
6
4
5
11
8
7
1
3

> <PUBCHEM_MMFF94_PARTIAL_CHARGES>
33
1 -0.16
10 0.08
11 0.05
12 0.03
13 0.08
14 0.47
15 -0.14
16 0.08
17 0.08
18 0.08
19 -0.15
2 -0.36
20 -0.15
21 0.08
22 0.08
23 -0.15
24 0.28
25 0.28
26 0.28
27 0.28
28 0.15
29 0.15
3 -0.36
30 0.15
31 0.15
32 0.45
4 -0.36
42 0.45
5 -0.53
6 -0.36
7 -0.57
8 -0.53
9 0.09

> <PUBCHEM_EFFECTIVE_ROTOR_COUNT>
5

> <PUBCHEM_PHARMACOPHORE_FEATURES>
11
1 1 acceptor
1 2 acceptor
1 3 acceptor
1 4 acceptor
1 5 donor
1 6 acceptor
1 7 acceptor
1 8 donor
6 1 9 10 11 14 15 rings
6 12 17 20 21 22 23 rings
6 9 10 13 16 18 19 rings

> <PUBCHEM_HEAVY_ATOM_COUNT>
27

> <PUBCHEM_ATOM_DEF_STEREO_COUNT>
0

> <PUBCHEM_ATOM_UDEF_STEREO_COUNT>
0

> <PUBCHEM_BOND_DEF_STEREO_COUNT>
0

> <PUBCHEM_BOND_UDEF_STEREO_COUNT>
0

> <PUBCHEM_ISOTOPIC_ATOM_COUNT>
0

> <PUBCHEM_COMPONENT_COUNT>
1

> <PUBCHEM_CACTVS_TAUTO_COUNT>
20

> <PUBCHEM_CONFORMER_ID>
00D5120100000002

> <PUBCHEM_MMFF94_ENERGY>
124.9845

> <PUBCHEM_FEATURE_SELFOVERLAP>
55.869

> <PUBCHEM_SHAPE_FINGERPRINT>
10319926 262 18272080605215269466
10366900 7 17703786973337222009
10369192 42 16983199192034328072
10411042 1 17764032758966916759
10498660 4 18341057337063994333
11595378 159 18186801383272897844
11796584 16 18272662242761631334
12107183 9 18117833301251021298
12236239 1 17894349990308110498
12390115 104 18129962095647426249
12403259 415 17775289390884967586
12596602 18 17385447643573654137
12616971 3 17530684298986559380
12788726 201 18044664336854156651
13140716 1 17907301305935532179
13402501 40 17774999098456631512
13583140 156 17916284144309343450
13726171 33 18198644291799142352
13782708 43 17632020844301656326
13911987 19 16343437201788024540
13965767 371 17609781898642860996
14117953 113 18189898604528652517
14341114 328 17821454546966986785
15238133 3 18413386523691006056
16752209 62 18410853304598352943
16988056 13 15812267106389771669
200 152 16877937278132505103
20511986 3 17748817519086594285
20554085 129 18128805366502431745
20715895 44 17608080980467899189
21033648 29 17418093234560440834
21033650 10 18265922223318341484
21065198 48 18114180860925118502
21792961 116 17417268597620821252
21859007 373 17535740794096599261
22182313 1 18199774495658529607
23402539 116 18413109489246236551
23557571 272 18130802199518633750
23559900 14 18129398024422847510
350125 39 18194128403921658455
3633792 109 17241026765907468167
38570 142 17025470857224479788
469060 322 18194988398804545139
474 4 17098348789873856348
5104073 3 18113900494007798760
5265222 85 18199475544802600982
7064713 232 18410296865419785149
7808743 9 18410860940702045573
9981440 41 18408889499738284899

> <PUBCHEM_SHAPE_MULTIPOLES>
508.69
11.84
2.79
1.62
4.64
0.64
-0.41
-3.98
-1.39
-4.6
0.6
2.71
-0.28
-0.88

> <PUBCHEM_SHAPE_SELFOVERLAP>
1113.438

> <PUBCHEM_SHAPE_VOLUME>
275.9

> <PUBCHEM_COORDINATE_TYPE>
2
5
10

$$$$
