13965876
  -OEChem-03292013303D

 50 53  0     1  0  0  0  0  0999 V2000
    0.4345    0.4559    0.2009 O   0  0  0  0  0  0  0  0  0  0  0  0
    1.1470   -2.3286    0.2934 O   0  0  0  0  0  0  0  0  0  0  0  0
   -0.7515   -4.1780   -0.4294 O   0  0  0  0  0  0  0  0  0  0  0  0
    2.3761    2.3394    0.0175 O   0  0  0  0  0  0  0  0  0  0  0  0
    3.7708   -3.0217    0.3159 O   0  0  0  0  0  0  0  0  0  0  0  0
   -3.9396    0.9076   -2.5296 O   0  0  0  0  0  0  0  0  0  0  0  0
   -4.8926    0.9296    2.1640 O   0  0  0  0  0  0  0  0  0  0  0  0
   -5.6947    1.4026   -0.4439 O   0  0  0  0  0  0  0  0  0  0  0  0
    3.0064    4.5358   -0.1375 O   0  0  0  0  0  0  0  0  0  0  0  0
   -0.4888   -0.5632    0.6222 C   0  0  2  0  0  0  0  0  0  0  0  0
   -0.1667   -1.8867   -0.0903 C   0  0  2  0  0  0  0  0  0  0  0  0
   -1.8791   -0.0385    0.3370 C   0  0  0  0  0  0  0  0  0  0  0  0
    1.7305    0.0226    0.1801 C   0  0  0  0  0  0  0  0  0  0  0  0
    2.0762   -1.3258    0.2348 C   0  0  0  0  0  0  0  0  0  0  0  0
   -1.1253   -3.0138    0.2841 C   0  0  0  0  0  0  0  0  0  0  0  0
    2.7433    0.9781    0.0912 C   0  0  0  0  0  0  0  0  0  0  0  0
    3.4204   -1.7064    0.2443 C   0  0  0  0  0  0  0  0  0  0  0  0
   -2.7599    0.2081    1.3896 C   0  0  0  0  0  0  0  0  0  0  0  0
   -2.2790    0.1980   -0.9780 C   0  0  0  0  0  0  0  0  0  0  0  0
    4.0884    0.6150    0.0843 C   0  0  0  0  0  0  0  0  0  0  0  0
    4.4251   -0.7381    0.1672 C   0  0  0  0  0  0  0  0  0  0  0  0
   -3.5608    0.6815   -1.2405 C   0  0  0  0  0  0  0  0  0  0  0  0
   -4.0417    0.6916    1.1272 C   0  0  0  0  0  0  0  0  0  0  0  0
   -4.4422    0.9284   -0.1879 C   0  0  0  0  0  0  0  0  0  0  0  0
    5.0985    1.6564   -0.0032 C   0  0  0  0  0  0  0  0  0  0  0  0
    4.7385    2.9400   -0.0754 C   0  0  0  0  0  0  0  0  0  0  0  0
    3.3236    3.3536   -0.0696 C   0  0  0  0  0  0  0  0  0  0  0  0
    3.9258   -3.7184   -0.9184 C   0  0  0  0  0  0  0  0  0  0  0  0
   -4.5518   -0.1767   -3.2247 C   0  0  0  0  0  0  0  0  0  0  0  0
   -5.7312   -0.1484    2.5748 C   0  0  0  0  0  0  0  0  0  0  0  0
   -0.3558   -0.6860    1.7069 H   0  0  0  0  0  0  0  0  0  0  0  0
   -0.1511   -1.7714   -1.1830 H   0  0  0  0  0  0  0  0  0  0  0  0
   -1.0622   -3.2406    1.3536 H   0  0  0  0  0  0  0  0  0  0  0  0
   -2.1604   -2.7737    0.0257 H   0  0  0  0  0  0  0  0  0  0  0  0
   -2.4551    0.0267    2.4172 H   0  0  0  0  0  0  0  0  0  0  0  0
   -1.5980    0.0172   -1.8057 H   0  0  0  0  0  0  0  0  0  0  0  0
    5.4683   -1.0467    0.1696 H   0  0  0  0  0  0  0  0  0  0  0  0
    6.1456    1.3745   -0.0088 H   0  0  0  0  0  0  0  0  0  0  0  0
   -1.3689   -4.8836   -0.1715 H   0  0  0  0  0  0  0  0  0  0  0  0
    5.4874    3.7217   -0.1411 H   0  0  0  0  0  0  0  0  0  0  0  0
    4.1920   -4.7552   -0.6955 H   0  0  0  0  0  0  0  0  0  0  0  0
    4.7287   -3.2711   -1.5130 H   0  0  0  0  0  0  0  0  0  0  0  0
    2.9899   -3.7120   -1.4860 H   0  0  0  0  0  0  0  0  0  0  0  0
   -5.7824    1.5463   -1.4018 H   0  0  0  0  0  0  0  0  0  0  0  0
   -3.8485   -1.0092   -3.3274 H   0  0  0  0  0  0  0  0  0  0  0  0
   -4.8308    0.1704   -4.2234 H   0  0  0  0  0  0  0  0  0  0  0  0
   -5.4554   -0.5113   -2.7054 H   0  0  0  0  0  0  0  0  0  0  0  0
   -6.3828   -0.4647    1.7541 H   0  0  0  0  0  0  0  0  0  0  0  0
   -6.3551    0.1991    3.4027 H   0  0  0  0  0  0  0  0  0  0  0  0
   -5.1273   -0.9928    2.9220 H   0  0  0  0  0  0  0  0  0  0  0  0
  1 10  1  0  0  0  0
  1 13  1  0  0  0  0
  2 11  1  0  0  0  0
  2 14  1  0  0  0  0
  3 15  1  0  0  0  0
  3 39  1  0  0  0  0
  4 16  1  0  0  0  0
  4 27  1  0  0  0  0
  5 17  1  0  0  0  0
  5 28  1  0  0  0  0
  6 22  1  0  0  0  0
  6 29  1  0  0  0  0
  7 23  1  0  0  0  0
  7 30  1  0  0  0  0
  8 24  1  0  0  0  0
  8 44  1  0  0  0  0
  9 27  2  0  0  0  0
 10 11  1  0  0  0  0
 10 12  1  0  0  0  0
 10 31  1  0  0  0  0
 11 15  1  0  0  0  0
 11 32  1  0  0  0  0
 12 18  2  0  0  0  0
 12 19  1  0  0  0  0
 13 14  1  0  0  0  0
 13 16  2  0  0  0  0
 14 17  2  0  0  0  0
 15 33  1  0  0  0  0
 15 34  1  0  0  0  0
 16 20  1  0  0  0  0
 17 21  1  0  0  0  0
 18 23  1  0  0  0  0
 18 35  1  0  0  0  0
 19 22  2  0  0  0  0
 19 36  1  0  0  0  0
 20 21  2  0  0  0  0
 20 25  1  0  0  0  0
 21 37  1  0  0  0  0
 22 24  1  0  0  0  0
 23 24  2  0  0  0  0
 25 26  2  0  0  0  0
 25 38  1  0  0  0  0
 26 27  1  0  0  0  0
 26 40  1  0  0  0  0
 28 41  1  0  0  0  0
 28 42  1  0  0  0  0
 28 43  1  0  0  0  0
 29 45  1  0  0  0  0
 29 46  1  0  0  0  0
 29 47  1  0  0  0  0
 30 48  1  0  0  0  0
 30 49  1  0  0  0  0
 30 50  1  0  0  0  0
M  END
> <PUBCHEM_COMPOUND_CID>
13965876

> <PUBCHEM_CONFORMER_RMSD>
0.8

> <PUBCHEM_CONFORMER_DIVERSEORDER>
1
12
6
13
7
5
9
2
11
3
8
4
10

> <PUBCHEM_MMFF94_PARTIAL_CHARGES>
37
1 -0.36
10 0.42
11 0.28
12 -0.14
13 0.08
14 0.08
15 0.28
16 0.08
17 0.08
18 -0.15
19 -0.15
2 -0.36
20 0.03
21 -0.15
22 0.08
23 0.08
24 0.08
25 -0.18
26 -0.14
27 0.71
28 0.28
29 0.28
3 -0.68
30 0.28
35 0.15
36 0.15
37 0.15
38 0.15
39 0.4
4 -0.23
40 0.15
44 0.45
5 -0.36
6 -0.36
7 -0.36
8 -0.53
9 -0.57

> <PUBCHEM_EFFECTIVE_ROTOR_COUNT>
5.8

> <PUBCHEM_PHARMACOPHORE_FEATURES>
13
1 1 acceptor
1 2 acceptor
1 3 acceptor
1 3 donor
1 5 acceptor
1 6 acceptor
1 7 acceptor
1 8 donor
1 9 acceptor
6 1 2 10 11 13 14 rings
6 12 18 19 22 23 24 rings
6 13 14 16 17 20 21 rings
6 4 16 20 25 26 27 rings

> <PUBCHEM_HEAVY_ATOM_COUNT>
30

> <PUBCHEM_ATOM_DEF_STEREO_COUNT>
2

> <PUBCHEM_ATOM_UDEF_STEREO_COUNT>
0

> <PUBCHEM_BOND_DEF_STEREO_COUNT>
0

> <PUBCHEM_BOND_UDEF_STEREO_COUNT>
0

> <PUBCHEM_ISOTOPIC_ATOM_COUNT>
0

> <PUBCHEM_COMPONENT_COUNT>
1

> <PUBCHEM_CACTVS_TAUTO_COUNT>
2

> <PUBCHEM_CONFORMER_ID>
00D51A3400000001

> <PUBCHEM_MMFF94_ENERGY>
129.2948

> <PUBCHEM_FEATURE_SELFOVERLAP>
66.055

> <PUBCHEM_SHAPE_FINGERPRINT>
10411042 1 17977950077796775858
11135926 11 18410856586369975172
11331351 85 17343509904085361282
11796584 16 14117804591716243940
12128747 34 16372393797523187064
12236239 1 17703218508872294931
12403259 415 18040442053352093987
12616971 3 17988361455940734067
12788726 201 17202504245924326672
13140716 1 18265897046220078640
13583140 156 17458612411334387739
13782708 43 17531252712133633507
14848178 96 18267578190645801840
15021287 119 18127971901690795190
15081414 286 18410860915443658944
15131766 46 18271524316582726425
15324884 4 17749104478899507301
15475509 35 16805323263050700666
1813 80 17842566137089263158
20739085 24 18124897667638015104
21033648 144 18337382868078022260
21033648 29 17530677693522193261
21033650 10 15554181310491664875
21065201 7 16081372908273585841
21756936 100 17916877931537152089
21792961 116 17896319109341300642
22122407 14 18269004090061069385
22182313 1 17821445742473693821
23559900 14 18341890810407607898
24771293 8 18129931296980727010
24771750 20 18191612906981933718
335352 9 18410294710226689894
350125 39 18122067764836157786
469060 322 17096642304835747647
474 4 18342175553010308059
5104073 3 18191581068310279704
5252454 2 18190755312933297132
633830 44 18130235865131210287

> <PUBCHEM_SHAPE_MULTIPOLES>
564.56
12.67
4.31
1.78
6.89
1.02
-0.8
-6.06
0.58
-7.3
-0.56
4.96
-0.15
0.2

> <PUBCHEM_SHAPE_SELFOVERLAP>
1238.269

> <PUBCHEM_SHAPE_VOLUME>
305.1

> <PUBCHEM_COORDINATE_TYPE>
2
5
10

$$$$
