13970369
  -OEChem-03292013303D

 52 55  0     1  0  0  0  0  0999 V2000
    3.1212   -1.5249    1.2018 O   0  0  0  0  0  0  0  0  0  0  0  0
    1.0972   -1.0053    2.2757 O   0  0  0  0  0  0  0  0  0  0  0  0
    0.0720    3.0434   -0.8480 O   0  0  0  0  0  0  0  0  0  0  0  0
   -0.8078   -2.5475   -0.4212 O   0  0  0  0  0  0  0  0  0  0  0  0
   -2.6685    2.5277    0.0859 O   0  0  0  0  0  0  0  0  0  0  0  0
   -3.3632   -2.1363   -0.0810 O   0  0  0  0  0  0  0  0  0  0  0  0
    1.2973   -0.5054   -0.1918 C   0  0  1  0  0  0  0  0  0  0  0  0
    2.1198    0.8257   -0.2595 C   0  0  2  0  0  0  0  0  0  0  0  0
    3.6272    0.5078   -0.0830 C   0  0  2  0  0  0  0  0  0  0  0  0
    1.6981   -1.2561   -1.5089 C   0  0  0  0  0  0  0  0  0  0  0  0
    4.0737   -0.3050   -1.3301 C   0  0  0  0  0  0  0  0  0  0  0  0
    1.5632    1.9108    0.6658 C   0  0  0  0  0  0  0  0  0  0  0  0
    1.7091   -1.3845    1.0449 C   0  0  1  0  0  0  0  0  0  0  0  0
    3.2010   -1.5150   -1.6613 C   0  0  0  0  0  0  0  0  0  0  0  0
   -0.2186   -0.2276   -0.1512 C   0  0  0  0  0  0  0  0  0  0  0  0
    3.8345   -0.2976    1.2121 C   0  0  0  0  0  0  0  0  0  0  0  0
    0.1041    2.2103    0.3151 C   0  0  2  0  0  0  0  0  0  0  0  0
    4.4959    1.7774   -0.0145 C   0  0  0  0  0  0  0  0  0  0  0  0
   -0.7640    0.9965    0.0379 C   0  0  0  0  0  0  0  0  0  0  0  0
   -1.1575   -1.3877   -0.2522 C   0  0  0  0  0  0  0  0  0  0  0  0
   -2.2183    1.2151    0.0431 C   0  0  0  0  0  0  0  0  0  0  0  0
   -3.1235    0.2265   -0.0002 C   0  0  0  0  0  0  0  0  0  0  0  0
   -2.6280   -1.1591   -0.1014 C   0  0  0  0  0  0  0  0  0  0  0  0
   -4.6111    0.4091    0.0250 C   0  0  0  0  0  0  0  0  0  0  0  0
   -5.2339   -0.1360   -1.2568 C   0  0  0  0  0  0  0  0  0  0  0  0
   -5.2199   -0.2625    1.2537 C   0  0  0  0  0  0  0  0  0  0  0  0
    2.0054    1.2447   -1.2731 H   0  0  0  0  0  0  0  0  0  0  0  0
    1.3548   -0.6732   -2.3751 H   0  0  0  0  0  0  0  0  0  0  0  0
    1.1977   -2.2258   -1.5895 H   0  0  0  0  0  0  0  0  0  0  0  0
    5.1138   -0.6359   -1.2159 H   0  0  0  0  0  0  0  0  0  0  0  0
    4.0640    0.3598   -2.2053 H   0  0  0  0  0  0  0  0  0  0  0  0
    2.1359    2.8370    0.5372 H   0  0  0  0  0  0  0  0  0  0  0  0
    1.6585    1.6368    1.7182 H   0  0  0  0  0  0  0  0  0  0  0  0
    1.3562   -2.4067    0.8738 H   0  0  0  0  0  0  0  0  0  0  0  0
    3.4938   -2.3646   -1.0343 H   0  0  0  0  0  0  0  0  0  0  0  0
    3.4072   -1.8356   -2.6900 H   0  0  0  0  0  0  0  0  0  0  0  0
    4.8949   -0.5473    1.3333 H   0  0  0  0  0  0  0  0  0  0  0  0
    3.5460    0.2771    2.1000 H   0  0  0  0  0  0  0  0  0  0  0  0
   -0.3111    2.7951    1.1456 H   0  0  0  0  0  0  0  0  0  0  0  0
    4.2991    2.4384   -0.8659 H   0  0  0  0  0  0  0  0  0  0  0  0
    4.3168    2.3447    0.9049 H   0  0  0  0  0  0  0  0  0  0  0  0
    5.5622    1.5237   -0.0306 H   0  0  0  0  0  0  0  0  0  0  0  0
    0.9838   -0.0456    2.2979 H   0  0  0  0  0  0  0  0  0  0  0  0
   -0.8372    3.3703   -0.9573 H   0  0  0  0  0  0  0  0  0  0  0  0
   -4.8962    1.4623    0.0951 H   0  0  0  0  0  0  0  0  0  0  0  0
   -3.5185    2.6031   -0.3732 H   0  0  0  0  0  0  0  0  0  0  0  0
   -5.2008   -1.2264   -1.3336 H   0  0  0  0  0  0  0  0  0  0  0  0
   -4.7469    0.2840   -2.1443 H   0  0  0  0  0  0  0  0  0  0  0  0
   -6.2923    0.1468   -1.3046 H   0  0  0  0  0  0  0  0  0  0  0  0
   -4.7079    0.0495    2.1711 H   0  0  0  0  0  0  0  0  0  0  0  0
   -5.2066   -1.3550    1.2102 H   0  0  0  0  0  0  0  0  0  0  0  0
   -6.2718    0.0306    1.3539 H   0  0  0  0  0  0  0  0  0  0  0  0
  1 13  1  0  0  0  0
  1 16  1  0  0  0  0
  2 13  1  0  0  0  0
  2 43  1  0  0  0  0
  3 17  1  0  0  0  0
  3 44  1  0  0  0  0
  4 20  2  0  0  0  0
  5 21  1  0  0  0  0
  5 46  1  0  0  0  0
  6 23  2  0  0  0  0
  7  8  1  0  0  0  0
  7 10  1  0  0  0  0
  7 13  1  0  0  0  0
  7 15  1  0  0  0  0
  8  9  1  0  0  0  0
  8 12  1  0  0  0  0
  8 27  1  0  0  0  0
  9 11  1  0  0  0  0
  9 16  1  0  0  0  0
  9 18  1  0  0  0  0
 10 14  1  0  0  0  0
 10 28  1  0  0  0  0
 10 29  1  0  0  0  0
 11 14  1  0  0  0  0
 11 30  1  0  0  0  0
 11 31  1  0  0  0  0
 12 17  1  0  0  0  0
 12 32  1  0  0  0  0
 12 33  1  0  0  0  0
 13 34  1  0  0  0  0
 14 35  1  0  0  0  0
 14 36  1  0  0  0  0
 15 19  2  0  0  0  0
 15 20  1  0  0  0  0
 16 37  1  0  0  0  0
 16 38  1  0  0  0  0
 17 19  1  0  0  0  0
 17 39  1  0  0  0  0
 18 40  1  0  0  0  0
 18 41  1  0  0  0  0
 18 42  1  0  0  0  0
 19 21  1  0  0  0  0
 20 23  1  0  0  0  0
 21 22  2  0  0  0  0
 22 23  1  0  0  0  0
 22 24  1  0  0  0  0
 24 25  1  0  0  0  0
 24 26  1  0  0  0  0
 24 45  1  0  0  0  0
 25 47  1  0  0  0  0
 25 48  1  0  0  0  0
 25 49  1  0  0  0  0
 26 50  1  0  0  0  0
 26 51  1  0  0  0  0
 26 52  1  0  0  0  0
M  END
> <PUBCHEM_COMPOUND_CID>
13970369

> <PUBCHEM_CONFORMER_RMSD>
0.6

> <PUBCHEM_CONFORMER_DIVERSEORDER>
1

> <PUBCHEM_MMFF94_PARTIAL_CHARGES>
20
1 -0.56
13 0.56
15 -0.12
16 0.28
17 0.42
19 -0.14
2 -0.68
20 0.56
21 0.08
22 -0.12
23 0.56
24 0.14
3 -0.68
4 -0.57
43 0.4
44 0.4
46 0.45
5 -0.53
6 -0.57
7 0.14

> <PUBCHEM_EFFECTIVE_ROTOR_COUNT>
2.6

> <PUBCHEM_PHARMACOPHORE_FEATURES>
13
1 1 acceptor
1 2 acceptor
1 2 donor
1 3 acceptor
1 3 donor
1 4 acceptor
1 5 donor
1 6 acceptor
3 24 25 26 hydrophobe
6 1 7 8 9 13 16 rings
6 15 19 20 21 22 23 rings
6 7 8 12 15 17 19 rings
6 7 8 9 10 11 14 rings

> <PUBCHEM_HEAVY_ATOM_COUNT>
26

> <PUBCHEM_ATOM_DEF_STEREO_COUNT>
5

> <PUBCHEM_ATOM_UDEF_STEREO_COUNT>
0

> <PUBCHEM_BOND_DEF_STEREO_COUNT>
0

> <PUBCHEM_BOND_UDEF_STEREO_COUNT>
0

> <PUBCHEM_ISOTOPIC_ATOM_COUNT>
0

> <PUBCHEM_COMPONENT_COUNT>
1

> <PUBCHEM_CACTVS_TAUTO_COUNT>
26

> <PUBCHEM_CONFORMER_ID>
00D52BC100000001

> <PUBCHEM_MMFF94_ENERGY>
80.3918

> <PUBCHEM_FEATURE_SELFOVERLAP>
67.841

> <PUBCHEM_SHAPE_FINGERPRINT>
10366900 7 17561358513238526145
10498660 4 18409729560490585119
10759866 29 18041000600800558574
10863032 1 18408882923815592074
10906281 52 18191885619867007796
10967382 1 18412545396657356253
11578080 2 17459726182517675092
12011746 2 18413670218627829573
12236239 1 17749393637467429326
12553582 1 18410294696840582371
12788726 201 18272653411622964537
13140716 1 18050851314537040377
13224815 77 18186807967188613753
13583140 156 17676201403791563267
14022347 108 18337127686563828918
14787075 74 17895195566352859722
14790565 3 18269287780977023705
15196674 1 18341051916493162589
15375462 189 18186512202897966171
15788980 27 16950279607338492583
1601671 61 18272937158505089636
16752209 62 18338790109833049409
16945 1 18131355245398886776
17349148 13 18129932473389925951
17357779 13 18341886377584874229
1813 80 17967824863720063189
19591789 44 18268435633288874975
20028762 73 18059574758857999599
20510252 161 18201722795454719841
20645477 70 18341890848455847045
20691752 17 18265911167333893791
20715895 44 17320966552551677141
20905425 154 17621042396379988782
21033648 29 16988270998263952451
21267235 1 18409173181895109882
21285901 2 18271812267736207829
21421861 104 18042398037187941778
23402539 116 18341885329243491214
23557571 272 18200869574594595696
23558518 356 17614843341232464452
23559900 14 18272378559654304510
2748010 2 18341897333603029037
314173 41 18336834177109957701
335352 9 18412829096411367349
34934 24 18338510949627433572
3680242 22 18337956679892666603
4340502 62 17022624182532801803
474 4 17749961080162468388
5104073 3 18338517434870133561
5939293 188 18341889748960121248
7097593 13 17464803585327829954
9709674 26 18272655644857732479

> <PUBCHEM_SHAPE_MULTIPOLES>
499.85
9.25
2.51
1.36
6.62
0.86
-0.23
-0.27
0.44
-0.2
0.26
-0.73
-0.52
0.16

> <PUBCHEM_SHAPE_SELFOVERLAP>
1090.393

> <PUBCHEM_SHAPE_VOLUME>
264.8

> <PUBCHEM_COORDINATE_TYPE>
2
5
10

$$$$
