13987106
  -OEChem-03292013303D

 67 69  0     1  0  0  0  0  0999 V2000
   -2.1769    2.8210    0.3304 P   0  0  1  0  0  0  0  0  0  0  0  0
   -1.8053    1.3964   -0.3427 O   0  0  0  0  0  0  0  0  0  0  0  0
   -0.9667   -0.7038   -1.6063 O   0  0  0  0  0  0  0  0  0  0  0  0
    0.5634   -0.1961    3.5318 O   0  0  0  0  0  0  0  0  0  0  0  0
   -2.3894    3.8135   -0.9287 O   0  0  0  0  0  0  0  0  0  0  0  0
    1.7967   -0.1423    1.6156 O   0  0  0  0  0  0  0  0  0  0  0  0
   -3.3415    2.7751    1.2763 O   0  0  0  0  0  0  0  0  0  0  0  0
   -0.1285   -1.6368    0.3608 N   0  0  0  0  0  0  0  0  0  0  0  0
   -7.6695   -1.0123   -1.2221 N   0  0  0  0  0  0  0  0  0  0  0  0
   -0.0280   -1.7171    1.8379 C   0  0  1  0  0  0  0  0  0  0  0  0
    0.6053   -3.0761    2.1738 C   0  0  0  0  0  0  0  0  0  0  0  0
    0.6652   -2.6741   -0.1836 C   0  0  0  0  0  0  0  0  0  0  0  0
    1.1389   -3.4994    0.8404 C   0  0  0  0  0  0  0  0  0  0  0  0
   -1.7283    0.2196    0.4354 C   0  0  2  0  0  0  0  0  0  0  0  0
   -0.9016   -0.7489   -0.3769 C   0  0  0  0  0  0  0  0  0  0  0  0
   -3.1138   -0.3571    0.6768 C   0  0  0  0  0  0  0  0  0  0  0  0
   -4.0220   -0.1564   -0.5403 C   0  0  0  0  0  0  0  0  0  0  0  0
    0.8853   -0.6100    2.2818 C   0  0  0  0  0  0  0  0  0  0  0  0
    0.9876   -2.9362   -1.5068 C   0  0  0  0  0  0  0  0  0  0  0  0
    1.9412   -4.5973    0.5705 C   0  0  0  0  0  0  0  0  0  0  0  0
   -0.6689    3.4046    1.0783 C   0  0  0  0  0  0  0  0  0  0  0  0
   -5.4264   -0.7075   -0.2829 C   0  0  0  0  0  0  0  0  0  0  0  0
    0.5108    3.4499    0.1154 C   0  0  0  0  0  0  0  0  0  0  0  0
    1.8037   -4.0372   -1.7871 C   0  0  0  0  0  0  0  0  0  0  0  0
    2.2782   -4.8611   -0.7567 C   0  0  0  0  0  0  0  0  0  0  0  0
    1.7852    3.9655    0.7914 C   0  0  0  0  0  0  0  0  0  0  0  0
   -6.3405   -0.4730   -1.4842 C   0  0  0  0  0  0  0  0  0  0  0  0
    2.9915    3.9994   -0.1545 C   0  0  0  0  0  0  0  0  0  0  0  0
    3.4076    2.6403   -0.6583 C   0  0  0  0  0  0  0  0  0  0  0  0
    4.3435    1.8894    0.0531 C   0  0  0  0  0  0  0  0  0  0  0  0
    2.8564    2.1337   -1.8353 C   0  0  0  0  0  0  0  0  0  0  0  0
    4.7284    0.6321   -0.4126 C   0  0  0  0  0  0  0  0  0  0  0  0
    3.2413    0.8764   -2.3010 C   0  0  0  0  0  0  0  0  0  0  0  0
    4.1772    0.1257   -1.5895 C   0  0  0  0  0  0  0  0  0  0  0  0
   -1.0153   -1.5978    2.2945 H   0  0  0  0  0  0  0  0  0  0  0  0
    1.3938   -3.0131    2.9302 H   0  0  0  0  0  0  0  0  0  0  0  0
   -0.1618   -3.7873    2.4989 H   0  0  0  0  0  0  0  0  0  0  0  0
   -1.2483    0.4705    1.3805 H   0  0  0  0  0  0  0  0  0  0  0  0
   -3.0608   -1.4199    0.9412 H   0  0  0  0  0  0  0  0  0  0  0  0
   -3.5683    0.1537    1.5340 H   0  0  0  0  0  0  0  0  0  0  0  0
   -4.1173    0.9064   -0.7885 H   0  0  0  0  0  0  0  0  0  0  0  0
   -3.5979   -0.6592   -1.4168 H   0  0  0  0  0  0  0  0  0  0  0  0
    0.6466   -2.3167   -2.3269 H   0  0  0  0  0  0  0  0  0  0  0  0
    2.2941   -5.2431    1.3673 H   0  0  0  0  0  0  0  0  0  0  0  0
   -0.8503    4.4068    1.4825 H   0  0  0  0  0  0  0  0  0  0  0  0
   -0.4249    2.7580    1.9286 H   0  0  0  0  0  0  0  0  0  0  0  0
   -5.8511   -0.2236    0.6059 H   0  0  0  0  0  0  0  0  0  0  0  0
   -5.3631   -1.7816   -0.0667 H   0  0  0  0  0  0  0  0  0  0  0  0
    0.6628    2.4362   -0.2669 H   0  0  0  0  0  0  0  0  0  0  0  0
    0.2823    4.0844   -0.7460 H   0  0  0  0  0  0  0  0  0  0  0  0
    2.0742   -4.2572   -2.8166 H   0  0  0  0  0  0  0  0  0  0  0  0
    2.9073   -5.7139   -0.9960 H   0  0  0  0  0  0  0  0  0  0  0  0
    2.0168    3.3364    1.6601 H   0  0  0  0  0  0  0  0  0  0  0  0
    1.6077    4.9796    1.1696 H   0  0  0  0  0  0  0  0  0  0  0  0
   -6.4198    0.5987   -1.6974 H   0  0  0  0  0  0  0  0  0  0  0  0
   -5.9266   -0.9604   -2.3734 H   0  0  0  0  0  0  0  0  0  0  0  0
    2.7763    4.6558   -1.0077 H   0  0  0  0  0  0  0  0  0  0  0  0
    3.8393    4.4645    0.3649 H   0  0  0  0  0  0  0  0  0  0  0  0
    1.1484    0.5288    3.8390 H   0  0  0  0  0  0  0  0  0  0  0  0
   -1.6719    4.4041   -1.2380 H   0  0  0  0  0  0  0  0  0  0  0  0
   -8.0763   -0.5450   -0.4129 H   0  0  0  0  0  0  0  0  0  0  0  0
   -8.2807   -0.8027   -2.0102 H   0  0  0  0  0  0  0  0  0  0  0  0
    4.7776    2.2718    0.9731 H   0  0  0  0  0  0  0  0  0  0  0  0
    2.1296    2.7092   -2.4023 H   0  0  0  0  0  0  0  0  0  0  0  0
    5.4555    0.0466    0.1423 H   0  0  0  0  0  0  0  0  0  0  0  0
    2.8114    0.4813   -3.2167 H   0  0  0  0  0  0  0  0  0  0  0  0
    4.4749   -0.8542   -1.9509 H   0  0  0  0  0  0  0  0  0  0  0  0
  1  2  1  0  0  0  0
  1  5  1  0  0  0  0
  1  7  2  0  0  0  0
  1 21  1  0  0  0  0
  2 14  1  0  0  0  0
  3 15  2  0  0  0  0
  4 18  1  0  0  0  0
  4 59  1  0  0  0  0
  5 60  1  0  0  0  0
  6 18  2  0  0  0  0
  8 10  1  0  0  0  0
  8 12  1  0  0  0  0
  8 15  1  0  0  0  0
  9 27  1  0  0  0  0
  9 61  1  0  0  0  0
  9 62  1  0  0  0  0
 10 11  1  0  0  0  0
 10 18  1  0  0  0  0
 10 35  1  0  0  0  0
 11 13  1  0  0  0  0
 11 36  1  0  0  0  0
 11 37  1  0  0  0  0
 12 13  1  0  0  0  0
 12 19  2  0  0  0  0
 13 20  2  0  0  0  0
 14 15  1  0  0  0  0
 14 16  1  0  0  0  0
 14 38  1  0  0  0  0
 16 17  1  0  0  0  0
 16 39  1  0  0  0  0
 16 40  1  0  0  0  0
 17 22  1  0  0  0  0
 17 41  1  0  0  0  0
 17 42  1  0  0  0  0
 19 24  1  0  0  0  0
 19 43  1  0  0  0  0
 20 25  1  0  0  0  0
 20 44  1  0  0  0  0
 21 23  1  0  0  0  0
 21 45  1  0  0  0  0
 21 46  1  0  0  0  0
 22 27  1  0  0  0  0
 22 47  1  0  0  0  0
 22 48  1  0  0  0  0
 23 26  1  0  0  0  0
 23 49  1  0  0  0  0
 23 50  1  0  0  0  0
 24 25  2  0  0  0  0
 24 51  1  0  0  0  0
 25 52  1  0  0  0  0
 26 28  1  0  0  0  0
 26 53  1  0  0  0  0
 26 54  1  0  0  0  0
 27 55  1  0  0  0  0
 27 56  1  0  0  0  0
 28 29  1  0  0  0  0
 28 57  1  0  0  0  0
 28 58  1  0  0  0  0
 29 30  2  0  0  0  0
 29 31  1  0  0  0  0
 30 32  1  0  0  0  0
 30 63  1  0  0  0  0
 31 33  2  0  0  0  0
 31 64  1  0  0  0  0
 32 34  2  0  0  0  0
 32 65  1  0  0  0  0
 33 34  1  0  0  0  0
 33 66  1  0  0  0  0
 34 67  1  0  0  0  0
M  END
> <PUBCHEM_COMPOUND_CID>
13987106

> <PUBCHEM_CONFORMER_RMSD>
1.4

> <PUBCHEM_CONFORMER_DIVERSEORDER>
1
111
310
99
264
319
125
214
153
228
102
272
199
323
65
216
234
243
301
73
75
223
309
45
247
72
322
202
215
80
8
60
204
12
48
236
56
184
274
120
330
313
235
268
284
157
226
179
210
20
198
154
2
174
318
40
128
314
292
97
156
84
328
331
165
96
53
285
255
249
46
106
278
160
231
300
144
248
27
129
62
213
34
251
193
155
67
162
24
108
83
38
299
113
201
295
316
217
266
239
325
100
275
281
151
178
191
250
114
289
109
37
194
143
71
103
79
261
98
85
190
25
287
259
126
203
230
39
332
58
81
212
92
241
29
4
308
240
245
315
233
7
133
52
77
152
16
94
294
238
219
282
43
130
32
86
290
149
140
95
181
172
57
44
187
207
169
222
115
182
70
276
206
13
288
35
54
167
280
89
66
161
197
218
9
327
131
244
117
123
142
265
246
69
237
41
263
145
229
320
74
18
116
312
185
252
256
298
68
188
112
311
150
3
91
146
192
136
134
90
258
296
30
26
208
305
224
49
121
303
324
271
135
220
186
270
297
23
137
173
257
326
227
277
177
51
101
21
176
110
93
195
6
260
221
76
28
119
183
189
302
14
205
10
242
286
5
107
293
164
147
139
124
87
166
291
163
15
253
148
306
180
118
104
127
11
283
17
138
141
50
273
82
321
63
168
19
269
31
158
304
47
232
42
209
279
333
267
196
170
211
55
262
88
254
317
329
105
200
59
22
159
36
64
61
132
33
175
122
171
307
78
225

> <PUBCHEM_MMFF94_PARTIAL_CHARGES>
41
1 1.24
10 0.36
11 0.14
12 0.12
13 -0.14
14 0.34
15 0.57
18 0.66
19 -0.15
2 -0.55
20 -0.15
24 -0.15
25 -0.15
27 0.27
28 0.14
29 -0.14
3 -0.57
30 -0.15
31 -0.15
32 -0.15
33 -0.15
34 -0.15
4 -0.65
43 0.15
44 0.15
5 -0.77
51 0.15
52 0.15
59 0.5
6 -0.57
60 0.5
61 0.36
62 0.36
63 0.15
64 0.15
65 0.15
66 0.15
67 0.15
7 -0.7
8 -0.48
9 -0.99

> <PUBCHEM_EFFECTIVE_ROTOR_COUNT>
14.6

> <PUBCHEM_PHARMACOPHORE_FEATURES>
11
1 3 acceptor
1 4 acceptor
1 5 acceptor
1 6 acceptor
1 7 acceptor
1 9 cation
1 9 donor
3 4 6 18 anion
5 8 10 11 12 13 rings
6 12 13 19 20 24 25 rings
6 29 30 31 32 33 34 rings

> <PUBCHEM_HEAVY_ATOM_COUNT>
34

> <PUBCHEM_ATOM_DEF_STEREO_COUNT>
0

> <PUBCHEM_ATOM_UDEF_STEREO_COUNT>
2

> <PUBCHEM_BOND_DEF_STEREO_COUNT>
0

> <PUBCHEM_BOND_UDEF_STEREO_COUNT>
0

> <PUBCHEM_ISOTOPIC_ATOM_COUNT>
0

> <PUBCHEM_COMPONENT_COUNT>
1

> <PUBCHEM_CACTVS_TAUTO_COUNT>
1

> <PUBCHEM_CONFORMER_ID>
00D56D2200000001

> <PUBCHEM_MMFF94_ENERGY>
60.2224

> <PUBCHEM_FEATURE_SELFOVERLAP>
55.974

> <PUBCHEM_SHAPE_FINGERPRINT>
10653451 467 17759260861042834219
10764073 3 12904867361493609671
11014199 57 17907010682023982942
12156800 1 17125870480681748284
1361 2 18271246143770253797
14725015 67 18341325673873292696
15082195 135 18268413673822905677
15484559 13 18263348347933194611
19930381 70 18340498819484933748
20764821 26 17326620705303501240
23559900 14 18122611761747813135
2818148 4 18127978499235224697
3027735 51 18268169620226357856
3504750 166 16386195739528940314
35225 105 17751933659836128796
354706 35 18196676174896494732
5265222 85 18118996692270834708
57527358 35 15552791485261200936
6669772 16 18125150782497777229
6700243 42 17124816980469468190

> <PUBCHEM_SHAPE_MULTIPOLES>
658.38
9.5
6.99
2.26
17.29
2.62
0.97
-3.12
-6.38
-5.69
0.16
-0.64
0.95
-0.65

> <PUBCHEM_SHAPE_SELFOVERLAP>
1360.318

> <PUBCHEM_SHAPE_VOLUME>
376.5

> <PUBCHEM_COORDINATE_TYPE>
2
5
10

$$$$
