13989137
  -OEChem-03292013303D

 33 36  0     1  0  0  0  0  0999 V2000
   -0.7792   -1.6359   -2.0571 S   0  0  0  0  0  0  0  0  0  0  0  0
   -2.2813   -0.2253   -2.1098 S   0  0  0  0  0  0  0  0  0  0  0  0
   -1.3399   -2.6765    1.2438 O   0  0  0  0  0  0  0  0  0  0  0  0
   -0.5520    2.2959   -0.3493 O   0  0  0  0  0  0  0  0  0  0  0  0
   -3.0801    2.1653    1.0061 O   0  0  0  0  0  0  0  0  0  0  0  0
    1.8628    2.6283    0.1384 O   0  0  0  0  0  0  0  0  0  0  0  0
    0.2200    0.0830   -0.1817 N   0  0  0  0  0  0  0  0  0  0  0  0
   -2.2310   -0.6022    0.6071 N   0  0  0  0  0  0  0  0  0  0  0  0
   -0.1253   -1.3385   -0.3694 C   0  0  2  0  0  0  0  0  0  0  0  0
   -2.1458    0.4809   -0.4072 C   0  0  1  0  0  0  0  0  0  0  0  0
    1.1710   -2.1401   -0.1090 C   0  0  0  0  0  0  0  0  0  0  0  0
   -1.2558   -1.6229    0.6166 C   0  0  0  0  0  0  0  0  0  0  0  0
   -0.7369    1.0860   -0.2735 C   0  0  0  0  0  0  0  0  0  0  0  0
    1.6024    0.2173   -0.0088 C   0  0  0  0  0  0  0  0  0  0  0  0
    2.1940   -1.0469    0.0184 C   0  0  0  0  0  0  0  0  0  0  0  0
   -3.2130    1.5736   -0.2706 C   0  0  0  0  0  0  0  0  0  0  0  0
   -3.3126   -0.6105    1.5839 C   0  0  0  0  0  0  0  0  0  0  0  0
    2.3600    1.3683    0.1309 C   0  0  0  0  0  0  0  0  0  0  0  0
    3.5623   -1.1913    0.1826 C   0  0  0  0  0  0  0  0  0  0  0  0
    3.7415    1.2305    0.2921 C   0  0  0  0  0  0  0  0  0  0  0  0
    4.3387   -0.0393    0.3164 C   0  0  0  0  0  0  0  0  0  0  0  0
    1.4362   -2.8219   -0.9236 H   0  0  0  0  0  0  0  0  0  0  0  0
    1.1351   -2.7044    0.8288 H   0  0  0  0  0  0  0  0  0  0  0  0
   -4.2299    1.1784   -0.3698 H   0  0  0  0  0  0  0  0  0  0  0  0
   -3.0823    2.3644   -1.0190 H   0  0  0  0  0  0  0  0  0  0  0  0
   -3.3184   -1.5552    2.1359 H   0  0  0  0  0  0  0  0  0  0  0  0
   -4.2768   -0.5122    1.0806 H   0  0  0  0  0  0  0  0  0  0  0  0
   -3.1579    0.1872    2.3129 H   0  0  0  0  0  0  0  0  0  0  0  0
    4.0233   -2.1728    0.2111 H   0  0  0  0  0  0  0  0  0  0  0  0
    4.3694    2.1113    0.4054 H   0  0  0  0  0  0  0  0  0  0  0  0
    5.4141   -0.1250    0.4460 H   0  0  0  0  0  0  0  0  0  0  0  0
   -3.7631    2.8537    1.0774 H   0  0  0  0  0  0  0  0  0  0  0  0
    1.1191    2.6636   -0.4820 H   0  0  0  0  0  0  0  0  0  0  0  0
  1  2  1  0  0  0  0
  1  9  1  0  0  0  0
  2 10  1  0  0  0  0
  3 12  2  0  0  0  0
  4 13  2  0  0  0  0
  5 16  1  0  0  0  0
  5 32  1  0  0  0  0
  6 18  1  0  0  0  0
  6 33  1  0  0  0  0
  7  9  1  0  0  0  0
  7 13  1  0  0  0  0
  7 14  1  0  0  0  0
  8 10  1  0  0  0  0
  8 12  1  0  0  0  0
  8 17  1  0  0  0  0
  9 11  1  0  0  0  0
  9 12  1  0  0  0  0
 10 13  1  0  0  0  0
 10 16  1  0  0  0  0
 11 15  1  0  0  0  0
 11 22  1  0  0  0  0
 11 23  1  0  0  0  0
 14 15  2  0  0  0  0
 14 18  1  0  0  0  0
 15 19  1  0  0  0  0
 16 24  1  0  0  0  0
 16 25  1  0  0  0  0
 17 26  1  0  0  0  0
 17 27  1  0  0  0  0
 17 28  1  0  0  0  0
 18 20  2  0  0  0  0
 19 21  2  0  0  0  0
 19 29  1  0  0  0  0
 20 21  1  0  0  0  0
 20 30  1  0  0  0  0
 21 31  1  0  0  0  0
M  END
> <PUBCHEM_COMPOUND_CID>
13989137

> <PUBCHEM_CONFORMER_RMSD>
0.6

> <PUBCHEM_CONFORMER_DIVERSEORDER>
1

> <PUBCHEM_MMFF94_PARTIAL_CHARGES>
26
1 -0.23
10 0.59
11 0.14
12 0.57
13 0.57
14 0.12
15 -0.14
16 0.28
17 0.3
18 0.08
19 -0.15
2 -0.23
20 -0.15
21 -0.15
29 0.15
3 -0.57
30 0.15
31 0.15
32 0.4
33 0.45
4 -0.57
5 -0.68
6 -0.53
7 -0.48
8 -0.66
9 0.59

> <PUBCHEM_EFFECTIVE_ROTOR_COUNT>
1.8

> <PUBCHEM_PHARMACOPHORE_FEATURES>
8
1 3 acceptor
1 4 acceptor
1 5 acceptor
1 5 donor
1 6 donor
5 7 9 11 14 15 rings
6 14 15 18 19 20 21 rings
8 1 2 7 8 9 10 12 13 rings

> <PUBCHEM_HEAVY_ATOM_COUNT>
21

> <PUBCHEM_ATOM_DEF_STEREO_COUNT>
2

> <PUBCHEM_ATOM_UDEF_STEREO_COUNT>
0

> <PUBCHEM_BOND_DEF_STEREO_COUNT>
0

> <PUBCHEM_BOND_UDEF_STEREO_COUNT>
0

> <PUBCHEM_ISOTOPIC_ATOM_COUNT>
0

> <PUBCHEM_COMPONENT_COUNT>
1

> <PUBCHEM_CACTVS_TAUTO_COUNT>
9

> <PUBCHEM_CONFORMER_ID>
00D5751100000001

> <PUBCHEM_MMFF94_ENERGY>
90.4637

> <PUBCHEM_FEATURE_SELFOVERLAP>
40.75

> <PUBCHEM_SHAPE_FINGERPRINT>
10608611 8 18409165532584722912
10863032 1 18262241014811185619
10948715 1 18199185092652826461
10967382 1 18265893566858621104
1100329 8 16461920191822039362
11640471 11 16988287447935811915
12011746 2 18334862718559658303
12251169 10 18336836376080219202
12423570 1 17483662417526020783
12491281 212 18201711847271449543
12592029 89 17774723056845684927
12633257 1 18116715114545935408
13140716 1 18337667620188372848
13221675 6 18409726227764514916
13583140 156 16370990915449984676
14223421 5 18118406382699698330
14289901 80 15936406741305720604
14817 1 13825386403550304167
15196674 1 18410291398263611496
15219456 202 18408608041297306074
15309172 13 18059858341850502174
16945 1 18411136892266307222
18219364 16 18260258659717833438
200 152 18199737185024116263
21524375 3 18341889632937774197
2334 1 18121776407477198484
23419403 2 17535177062907522559
23493267 7 17313369094247974212
23559900 14 18410014296265429630
238 59 17614240452378697821
25 1 18263916648998921102
2748010 2 18193269913389960574
298252 57 17774710957880483839
335352 9 18265894649301039422
350125 39 18191313873503734840
4340502 62 18115876196692661457
474 4 18268708308083525785
5104073 3 18408038503349454152
5939293 188 16179600768590896245
81228 2 17604999297934381795
8809292 202 18333733481621443290
90525 40 17988920072050452182
9709674 26 18411700989213548790
9981440 41 17550915493664167488

> <PUBCHEM_SHAPE_MULTIPOLES>
406.43
6.14
2.62
1.4
3.82
0.41
-0.45
1.72
1.25
-0.28
0.24
-1.57
-0.66
0.03

> <PUBCHEM_SHAPE_SELFOVERLAP>
883.128

> <PUBCHEM_SHAPE_VOLUME>
224.6

> <PUBCHEM_COORDINATE_TYPE>
2
5
10

$$$$
