14021703
  -OEChem-03292013303D

 44 47  0     1  0  0  0  0  0999 V2000
    0.9288   -0.4485    1.6884 S   0  0  0  0  0  0  0  0  0  0  0  0
   -4.2774   -0.4960    1.9729 S   0  0  0  0  0  0  0  0  0  0  0  0
    2.9072    1.8489   -1.8359 O   0  0  0  0  0  0  0  0  0  0  0  0
   -1.1248    3.2189    0.9596 O   0  0  0  0  0  0  0  0  0  0  0  0
    4.0969   -1.3393   -1.9433 O   0  0  0  0  0  0  0  0  0  0  0  0
    5.7868   -0.2921   -0.8128 O   0  0  0  0  0  0  0  0  0  0  0  0
    2.8324    0.5306    0.1180 N   0  0  0  0  0  0  0  0  0  0  0  0
    0.0192    1.6713   -0.3342 N   0  0  0  0  0  0  0  0  0  0  0  0
   -3.2914    3.0182   -0.7810 N   0  0  0  0  0  0  0  0  0  0  0  0
    1.9676    0.9494    1.2060 C   0  0  1  0  0  0  0  0  0  0  0  0
    1.3508    1.9489    0.2031 C   0  0  1  0  0  0  0  0  0  0  0  0
    2.5059    1.5173   -0.7449 C   0  0  0  0  0  0  0  0  0  0  0  0
    3.6401   -0.5597    0.1725 C   0  0  0  0  0  0  0  0  0  0  0  0
    2.3535   -1.4905    2.1525 C   0  0  0  0  0  0  0  0  0  0  0  0
    3.4871   -1.5058    1.1293 C   0  0  0  0  0  0  0  0  0  0  0  0
   -1.1269    2.3421    0.0975 C   0  0  0  0  0  0  0  0  0  0  0  0
   -2.3862    1.8782   -0.6231 C   0  0  1  0  0  0  0  0  0  0  0  0
    4.3929   -2.7010    1.3056 C   0  0  0  0  0  0  0  0  0  0  0  0
    4.6451   -0.6992   -0.8918 C   0  0  0  0  0  0  0  0  0  0  0  0
   -3.0827    0.7732    0.1237 C   0  0  0  0  0  0  0  0  0  0  0  0
   -3.3288   -0.5147   -0.4325 C   0  0  0  0  0  0  0  0  0  0  0  0
   -3.5346    0.9278    1.4013 C   0  0  0  0  0  0  0  0  0  0  0  0
   -3.9907   -1.3299    0.4910 C   0  0  0  0  0  0  0  0  0  0  0  0
   -3.0206   -1.0569   -1.7035 C   0  0  0  0  0  0  0  0  0  0  0  0
   -4.3473   -2.6566    0.1796 C   0  0  0  0  0  0  0  0  0  0  0  0
   -3.3735   -2.3724   -2.0157 C   0  0  0  0  0  0  0  0  0  0  0  0
   -4.0293   -3.1623   -1.0823 C   0  0  0  0  0  0  0  0  0  0  0  0
    2.5149    1.4260    2.0279 H   0  0  0  0  0  0  0  0  0  0  0  0
    1.4570    2.9956    0.5148 H   0  0  0  0  0  0  0  0  0  0  0  0
   -0.0930    0.9487   -1.0415 H   0  0  0  0  0  0  0  0  0  0  0  0
    1.9605   -2.5042    2.2841 H   0  0  0  0  0  0  0  0  0  0  0  0
    2.7411   -1.1539    3.1201 H   0  0  0  0  0  0  0  0  0  0  0  0
   -2.1091    1.5573   -1.6320 H   0  0  0  0  0  0  0  0  0  0  0  0
    5.2435   -2.7002    0.6185 H   0  0  0  0  0  0  0  0  0  0  0  0
    3.8335   -3.6273    1.1381 H   0  0  0  0  0  0  0  0  0  0  0  0
    4.7978   -2.7181    2.3231 H   0  0  0  0  0  0  0  0  0  0  0  0
   -2.8338    3.7437   -1.3322 H   0  0  0  0  0  0  0  0  0  0  0  0
   -3.4931    3.4383    0.1258 H   0  0  0  0  0  0  0  0  0  0  0  0
   -3.4724    1.7978    2.0402 H   0  0  0  0  0  0  0  0  0  0  0  0
   -2.5064   -0.4644   -2.4555 H   0  0  0  0  0  0  0  0  0  0  0  0
    4.7354   -1.4545   -2.6792 H   0  0  0  0  0  0  0  0  0  0  0  0
   -4.8612   -3.2822    0.9040 H   0  0  0  0  0  0  0  0  0  0  0  0
   -3.1313   -2.7772   -2.9944 H   0  0  0  0  0  0  0  0  0  0  0  0
   -4.2992   -4.1844   -1.3340 H   0  0  0  0  0  0  0  0  0  0  0  0
  1 10  1  0  0  0  0
  1 14  1  0  0  0  0
  2 22  1  0  0  0  0
  2 23  1  0  0  0  0
  3 12  2  0  0  0  0
  4 16  2  0  0  0  0
  5 19  1  0  0  0  0
  5 41  1  0  0  0  0
  6 19  2  0  0  0  0
  7 10  1  0  0  0  0
  7 12  1  0  0  0  0
  7 13  1  0  0  0  0
  8 11  1  0  0  0  0
  8 16  1  0  0  0  0
  8 30  1  0  0  0  0
  9 17  1  0  0  0  0
  9 37  1  0  0  0  0
  9 38  1  0  0  0  0
 10 11  1  0  0  0  0
 10 28  1  0  0  0  0
 11 12  1  0  0  0  0
 11 29  1  0  0  0  0
 13 15  2  0  0  0  0
 13 19  1  0  0  0  0
 14 15  1  0  0  0  0
 14 31  1  0  0  0  0
 14 32  1  0  0  0  0
 15 18  1  0  0  0  0
 16 17  1  0  0  0  0
 17 20  1  0  0  0  0
 17 33  1  0  0  0  0
 18 34  1  0  0  0  0
 18 35  1  0  0  0  0
 18 36  1  0  0  0  0
 20 21  1  0  0  0  0
 20 22  2  0  0  0  0
 21 23  1  0  0  0  0
 21 24  2  0  0  0  0
 22 39  1  0  0  0  0
 23 25  2  0  0  0  0
 24 26  1  0  0  0  0
 24 40  1  0  0  0  0
 25 27  1  0  0  0  0
 25 42  1  0  0  0  0
 26 27  2  0  0  0  0
 26 43  1  0  0  0  0
 27 44  1  0  0  0  0
M  END
> <PUBCHEM_COMPOUND_CID>
14021703

> <PUBCHEM_CONFORMER_RMSD>
0.8

> <PUBCHEM_CONFORMER_DIVERSEORDER>
1
26
55
39
38
25
21
37
29
27
51
33
47
32
44
23
30
28
57
58
34
11
53
14
20
45
35
7
15
4
16
5
52
49
36
8
3
6
24
19
54
10
40
42
43
46
22
48
2
50
12
41
17
56
18
13
31
9

> <PUBCHEM_MMFF94_PARTIAL_CHARGES>
35
1 -0.45
10 0.44
11 0.28
12 0.58
13 0.12
14 0.37
15 -0.28
16 0.57
17 0.51
18 0.14
19 0.71
2 -0.08
20 -0.18
22 -0.11
23 0.04
24 -0.15
25 -0.15
26 -0.15
27 -0.15
3 -0.57
30 0.37
37 0.36
38 0.36
39 0.15
4 -0.57
40 0.15
41 0.5
42 0.15
43 0.15
44 0.15
5 -0.65
6 -0.57
7 -0.39
8 -0.65
9 -0.99

> <PUBCHEM_EFFECTIVE_ROTOR_COUNT>
5.6

> <PUBCHEM_PHARMACOPHORE_FEATURES>
12
1 3 acceptor
1 4 acceptor
1 5 acceptor
1 6 acceptor
1 8 donor
1 9 cation
1 9 donor
3 5 6 19 anion
4 7 10 11 12 rings
5 2 20 21 22 23 rings
6 1 7 10 13 14 15 rings
6 21 23 24 25 26 27 rings

> <PUBCHEM_HEAVY_ATOM_COUNT>
27

> <PUBCHEM_ATOM_DEF_STEREO_COUNT>
3

> <PUBCHEM_ATOM_UDEF_STEREO_COUNT>
0

> <PUBCHEM_BOND_DEF_STEREO_COUNT>
0

> <PUBCHEM_BOND_UDEF_STEREO_COUNT>
0

> <PUBCHEM_ISOTOPIC_ATOM_COUNT>
0

> <PUBCHEM_COMPONENT_COUNT>
1

> <PUBCHEM_CACTVS_TAUTO_COUNT>
2

> <PUBCHEM_CONFORMER_ID>
00D5F44700000001

> <PUBCHEM_MMFF94_ENERGY>
71.936

> <PUBCHEM_FEATURE_SELFOVERLAP>
61.271

> <PUBCHEM_SHAPE_FINGERPRINT>
10928967 22 18340770437369957191
11211813 15 17098356482439806748
11370993 144 16630530591851662843
11552529 35 17131546258208701919
11578080 2 17842253025874411649
11672396 43 9943807764091465105
11796584 16 18270122305869959724
12553582 1 18335977644909416995
12596599 1 18272929431938175651
12633257 1 14979401802025433583
13103583 49 17774740726319762281
13224815 77 18334569178945979745
13257819 101 13985246426885632270
13383661 66 16459125886300722787
13726171 33 18057912249388628496
13911987 19 17101441771559065165
14114206 34 17821718425821303785
14251751 93 18410580543714237863
14279260 333 17607529029852110586
14950920 106 14907898327135095887
150020 26 17274277053571215350
15537594 2 18335148569860195395
17349148 13 17821725044577124896
17809404 112 17977343344376331691
17909252 39 18409731806974999594
20291156 8 18339073895496877721
20554085 129 16915682297956461443
20775530 9 18271237343704316227
21033648 144 13624686898402876124
21033648 29 14188758297876364121
21054139 6 18186804682456458566
21315764 21 15794228802466164715
21458453 9 9221544271548400087
23598288 3 18263642870983640297
3459 110 13829842586727716103
44062 13 18410852123344780815
44880168 125 17917154892603929287
463206 1 18264772241065958675
508706 21 18130787815694707071
6328613 192 10087637127089307370
7970288 3 18126002913000600375

> <PUBCHEM_SHAPE_MULTIPOLES>
524.93
11.38
3.6
2.01
4.83
0.47
0.04
-7.4
-1.51
-2.36
-0.51
-0.01
-0.84
-1.9

> <PUBCHEM_SHAPE_SELFOVERLAP>
1119.788

> <PUBCHEM_SHAPE_VOLUME>
294

> <PUBCHEM_COORDINATE_TYPE>
2
5
10

$$$$
