14021483
  -OEChem-03292013303D

 52 54  0     1  0  0  0  0  0999 V2000
   -3.5598    1.0408    2.8322 Cl  0  0  0  0  0  0  0  0  0  0  0  0
    5.4042   -0.7358    2.8566 Cl  0  0  0  0  0  0  0  0  0  0  0  0
   -2.1983    1.7860   -0.0529 O   0  0  0  0  0  0  0  0  0  0  0  0
   -3.5532   -1.7590    1.9095 O   0  0  0  0  0  0  0  0  0  0  0  0
   -4.3443   -0.5174   -1.4124 O   0  0  0  0  0  0  0  0  0  0  0  0
    2.3348    0.5431   -0.2606 O   0  0  0  0  0  0  0  0  0  0  0  0
   -1.8544    4.0236   -0.4726 O   0  0  0  0  0  0  0  0  0  0  0  0
    3.4670   -0.7890   -1.7599 O   0  0  0  0  0  0  0  0  0  0  0  0
    5.6436   -0.8076   -0.2679 O   0  0  0  0  0  0  0  0  0  0  0  0
   -1.9170   -0.6010    0.5567 C   0  0  2  0  0  0  0  0  0  0  0  0
   -1.5687   -1.9785   -0.0915 C   0  0  1  0  0  0  0  0  0  0  0  0
   -3.4349   -0.7878    0.8481 C   0  0  1  0  0  0  0  0  0  0  0  0
   -1.4723    0.5772   -0.3389 C   0  0  2  0  0  0  0  0  0  0  0  0
   -3.9760   -1.4631   -0.4160 C   0  0  2  0  0  0  0  0  0  0  0  0
   -2.8109   -2.3013   -0.9604 C   0  0  0  0  0  0  0  0  0  0  0  0
   -0.0142    0.9875   -0.1043 C   0  0  1  0  0  0  0  0  0  0  0  0
   -0.2305   -2.1187   -0.7909 C   0  0  0  0  0  0  0  0  0  0  0  0
    1.0552    0.0592   -0.6863 C   0  0  2  0  0  0  0  0  0  0  0  0
    0.9398   -1.3862   -0.1911 C   0  0  0  0  0  0  0  0  0  0  0  0
   -4.2298    0.4267    1.3133 C   0  0  0  0  0  0  0  0  0  0  0  0
   -0.0855    2.3811   -0.6491 C   0  0  0  0  0  0  0  0  0  0  0  0
   -1.4571    2.8753   -0.4058 C   0  0  0  0  0  0  0  0  0  0  0  0
   -0.0321   -2.9017   -1.8659 C   0  0  0  0  0  0  0  0  0  0  0  0
    0.8101    3.1322   -1.2942 C   0  0  0  0  0  0  0  0  0  0  0  0
    3.4117   -0.1694   -0.7045 C   0  0  0  0  0  0  0  0  0  0  0  0
    4.5541   -0.0856    0.3052 C   0  0  1  0  0  0  0  0  0  0  0  0
    4.1422   -0.8008    1.5973 C   0  0  0  0  0  0  0  0  0  0  0  0
    4.9763    1.3700    0.5064 C   0  0  0  0  0  0  0  0  0  0  0  0
   -1.3900   -0.5310    1.5181 H   0  0  0  0  0  0  0  0  0  0  0  0
   -1.5319   -2.7174    0.7229 H   0  0  0  0  0  0  0  0  0  0  0  0
   -1.6589    0.3408   -1.3958 H   0  0  0  0  0  0  0  0  0  0  0  0
   -4.8480   -2.0937   -0.2083 H   0  0  0  0  0  0  0  0  0  0  0  0
   -2.6427   -2.0780   -2.0203 H   0  0  0  0  0  0  0  0  0  0  0  0
   -3.0408   -3.3705   -0.8791 H   0  0  0  0  0  0  0  0  0  0  0  0
    0.1705    1.1004    0.9751 H   0  0  0  0  0  0  0  0  0  0  0  0
    1.0168    0.0965   -1.7837 H   0  0  0  0  0  0  0  0  0  0  0  0
    0.8691   -1.4022    0.9053 H   0  0  0  0  0  0  0  0  0  0  0  0
    1.8424   -1.9747   -0.3888 H   0  0  0  0  0  0  0  0  0  0  0  0
   -5.2572    0.1242    1.5458 H   0  0  0  0  0  0  0  0  0  0  0  0
   -4.3030    1.2356    0.5854 H   0  0  0  0  0  0  0  0  0  0  0  0
   -3.4702   -2.6574    1.5508 H   0  0  0  0  0  0  0  0  0  0  0  0
   -4.6753   -1.0141   -2.1802 H   0  0  0  0  0  0  0  0  0  0  0  0
   -0.8269   -3.4868   -2.3134 H   0  0  0  0  0  0  0  0  0  0  0  0
    0.9484   -2.9870   -2.3244 H   0  0  0  0  0  0  0  0  0  0  0  0
    1.8113    2.7718   -1.4989 H   0  0  0  0  0  0  0  0  0  0  0  0
    0.5698    4.1321   -1.6406 H   0  0  0  0  0  0  0  0  0  0  0  0
    3.2388   -0.3608    2.0315 H   0  0  0  0  0  0  0  0  0  0  0  0
    3.9454   -1.8615    1.4087 H   0  0  0  0  0  0  0  0  0  0  0  0
    5.1105    1.8704   -0.4603 H   0  0  0  0  0  0  0  0  0  0  0  0
    5.9383    1.4445    1.0242 H   0  0  0  0  0  0  0  0  0  0  0  0
    4.2270    1.9353    1.0704 H   0  0  0  0  0  0  0  0  0  0  0  0
    5.9519   -0.3185   -1.0500 H   0  0  0  0  0  0  0  0  0  0  0  0
  1 20  1  0  0  0  0
  2 27  1  0  0  0  0
  3 13  1  0  0  0  0
  3 22  1  0  0  0  0
  4 12  1  0  0  0  0
  4 41  1  0  0  0  0
  5 14  1  0  0  0  0
  5 42  1  0  0  0  0
  6 18  1  0  0  0  0
  6 25  1  0  0  0  0
  7 22  2  0  0  0  0
  8 25  2  0  0  0  0
  9 26  1  0  0  0  0
  9 52  1  0  0  0  0
 10 11  1  0  0  0  0
 10 12  1  0  0  0  0
 10 13  1  0  0  0  0
 10 29  1  0  0  0  0
 11 15  1  0  0  0  0
 11 17  1  0  0  0  0
 11 30  1  0  0  0  0
 12 14  1  0  0  0  0
 12 20  1  0  0  0  0
 13 16  1  0  0  0  0
 13 31  1  0  0  0  0
 14 15  1  0  0  0  0
 14 32  1  0  0  0  0
 15 33  1  0  0  0  0
 15 34  1  0  0  0  0
 16 18  1  0  0  0  0
 16 21  1  0  0  0  0
 16 35  1  0  0  0  0
 17 19  1  0  0  0  0
 17 23  2  0  0  0  0
 18 19  1  0  0  0  0
 18 36  1  0  0  0  0
 19 37  1  0  0  0  0
 19 38  1  0  0  0  0
 20 39  1  0  0  0  0
 20 40  1  0  0  0  0
 21 22  1  0  0  0  0
 21 24  2  0  0  0  0
 23 43  1  0  0  0  0
 23 44  1  0  0  0  0
 24 45  1  0  0  0  0
 24 46  1  0  0  0  0
 25 26  1  0  0  0  0
 26 27  1  0  0  0  0
 26 28  1  0  0  0  0
 27 47  1  0  0  0  0
 27 48  1  0  0  0  0
 28 49  1  0  0  0  0
 28 50  1  0  0  0  0
 28 51  1  0  0  0  0
M  END
> <PUBCHEM_COMPOUND_CID>
14021483

> <PUBCHEM_CONFORMER_RMSD>
0.8

> <PUBCHEM_CONFORMER_DIVERSEORDER>
2
117
39
77
6
96
110
118
61
41
68
116
115
16
92
93
71
119
36
21
69
31
50
46
34
112
108
22
38
23
55
91
72
111
17
63
62
27
114
95
86
107
43
99
64
30
76
88
90
98
35
105
65
87
75
85
103
84
109
13
66
58
89
53
26
42
82
33
81
78
32
106
113
37
10
67
97
40
104
80
101
49
83
15
74
54
48
52
73
19
12
100
70
20
56
18
24
9
102
44
60
29
8
45
47
14
59
79
57
7
28
11
5
3
94
51
25
4
1

> <PUBCHEM_MMFF94_PARTIAL_CHARGES>
32
1 -0.29
11 0.14
12 0.28
13 0.28
14 0.28
16 0.14
17 -0.28
18 0.28
19 0.14
2 -0.29
20 0.29
21 -0.12
22 0.71
23 -0.3
24 -0.3
25 0.66
26 0.34
27 0.29
3 -0.43
4 -0.68
41 0.4
42 0.4
43 0.15
44 0.15
45 0.15
46 0.15
5 -0.68
52 0.4
6 -0.43
7 -0.57
8 -0.57
9 -0.68

> <PUBCHEM_EFFECTIVE_ROTOR_COUNT>
6.2

> <PUBCHEM_PHARMACOPHORE_FEATURES>
11
1 4 acceptor
1 4 donor
1 5 acceptor
1 5 donor
1 7 acceptor
1 8 acceptor
1 9 acceptor
1 9 donor
5 10 11 12 14 15 rings
5 3 13 16 21 22 rings
7 10 11 13 16 17 18 19 rings

> <PUBCHEM_HEAVY_ATOM_COUNT>
28

> <PUBCHEM_ATOM_DEF_STEREO_COUNT>
7

> <PUBCHEM_ATOM_UDEF_STEREO_COUNT>
1

> <PUBCHEM_BOND_DEF_STEREO_COUNT>
0

> <PUBCHEM_BOND_UDEF_STEREO_COUNT>
0

> <PUBCHEM_ISOTOPIC_ATOM_COUNT>
0

> <PUBCHEM_COMPONENT_COUNT>
1

> <PUBCHEM_CACTVS_TAUTO_COUNT>
1

> <PUBCHEM_CONFORMER_ID>
00D5F36B00000002

> <PUBCHEM_MMFF94_ENERGY>
90.8781

> <PUBCHEM_FEATURE_SELFOVERLAP>
55.888

> <PUBCHEM_SHAPE_FINGERPRINT>
10319926 262 18268412557321215530
10369192 42 17058358427138805752
10906281 52 18336553707704259813
10930396 42 17834349679846758464
11132069 177 18201727253461785903
11370993 144 17488757665882806488
11387372 6 16738322142616625466
11578080 2 17559665140957047921
11595378 159 18261661637224840760
12403814 3 18411696599418939890
12422481 6 18267034863948900899
12553582 1 18335718155522076295
12788726 201 18333731325758772856
13004483 165 18264188344604240932
13009979 54 17985838261649792811
13140716 1 18266473159905480969
13583140 156 17603859014382180492
13965767 371 17767437628512318201
14068700 675 17630029697784698071
14081887 123 18342453690903158576
14142880 1 18201727224003377571
14178342 30 18200615643396466251
14420673 8 17686608053879610738
14840074 17 18410300232536520680
15209294 21 17846512395726276059
15475509 35 16880501416969315291
17349148 13 18129660949377978871
17980427 23 17560529511863462625
1813 80 18113625615942605636
20600515 1 18199482106420476068
20739085 24 18048069464520315589
20775438 99 11318862700956782321
21033648 29 17775571952652253290
21304303 282 17317576835311967669
21756936 100 14476382929368553210
22182313 1 18049742723606655725
23366157 5 17609497485739364220
23402539 116 18341608235133396623
23559900 14 17489040301028416006
23598288 3 18042109990969166634
2748010 2 17833289531668109069
2838139 119 15194731090995216169
445580 44 18337373994443083904
5171179 24 17839740365935331014
5265222 85 18341905078722093182
5951187 136 14542870100746908313
6913067 236 18130491003294693470
7064713 232 18059864964647718776
90316 7 18407760334896199749
9862522 239 18268983202790290551
9981440 41 18051672379018431121

> <PUBCHEM_SHAPE_MULTIPOLES>
538.88
10.15
3.43
2.06
11.28
2.33
1.6
-2.25
5.63
-2.2
-1.7
0.31
-0.31
-0.84

> <PUBCHEM_SHAPE_SELFOVERLAP>
1124.274

> <PUBCHEM_SHAPE_VOLUME>
305.9

> <PUBCHEM_COORDINATE_TYPE>
2
5
10

$$$$
