14037471
  -OEChem-03292013303D

 49 51  0     0  0  0  0  0  0999 V2000
   -0.3710   -0.7254   -0.0627 O   0  0  0  0  0  0  0  0  0  0  0  0
    0.8239    2.7591    0.0672 O   0  0  0  0  0  0  0  0  0  0  0  0
   -5.8573   -0.2447    0.3500 O   0  0  0  0  0  0  0  0  0  0  0  0
   -4.6651   -2.7270    0.1033 O   0  0  0  0  0  0  0  0  0  0  0  0
   -4.3338    2.0174    0.3950 O   0  0  0  0  0  0  0  0  0  0  0  0
   -1.9364    3.0205    0.2861 O   0  0  0  0  0  0  0  0  0  0  0  0
    4.7342   -0.6695    1.9925 O   0  0  0  0  0  0  0  0  0  0  0  0
    5.9110   -0.8344   -0.5095 O   0  0  0  0  0  0  0  0  0  0  0  0
    4.3820   -0.3898   -2.7756 O   0  0  0  0  0  0  0  0  0  0  0  0
   -2.3241    0.6971    0.1686 C   0  0  0  0  0  0  0  0  0  0  0  0
   -1.7272   -0.5554    0.0441 C   0  0  0  0  0  0  0  0  0  0  0  0
    0.4406    0.3975   -0.0332 C   0  0  0  0  0  0  0  0  0  0  0  0
    1.8731    0.0748   -0.1579 C   0  0  0  0  0  0  0  0  0  0  0  0
   -0.0089    1.6613    0.0740 C   0  0  0  0  0  0  0  0  0  0  0  0
   -1.4690    1.8938    0.1862 C   0  0  0  0  0  0  0  0  0  0  0  0
   -3.7128    0.8099    0.2724 C   0  0  0  0  0  0  0  0  0  0  0  0
   -2.5167   -1.7056    0.0222 C   0  0  0  0  0  0  0  0  0  0  0  0
   -4.5003   -0.3420    0.2506 C   0  0  0  0  0  0  0  0  0  0  0  0
   -3.9036   -1.5972    0.1258 C   0  0  0  0  0  0  0  0  0  0  0  0
    2.6406   -0.1484    0.9857 C   0  0  0  0  0  0  0  0  0  0  0  0
    2.4628   -0.0078   -1.4196 C   0  0  0  0  0  0  0  0  0  0  0  0
    3.9965   -0.4537    0.8678 C   0  0  0  0  0  0  0  0  0  0  0  0
    3.8186   -0.3133   -1.5376 C   0  0  0  0  0  0  0  0  0  0  0  0
    4.5856   -0.5361   -0.3940 C   0  0  0  0  0  0  0  0  0  0  0  0
    0.5110    3.6216   -1.0098 C   0  0  0  0  0  0  0  0  0  0  0  0
   -6.5867   -0.1138   -0.8676 C   0  0  0  0  0  0  0  0  0  0  0  0
   -3.9773   -3.9694   -0.0270 C   0  0  0  0  0  0  0  0  0  0  0  0
    5.3687    0.4652    2.5792 C   0  0  0  0  0  0  0  0  0  0  0  0
    6.3417   -2.0845    0.0238 C   0  0  0  0  0  0  0  0  0  0  0  0
   -1.9927   -2.6503   -0.0773 H   0  0  0  0  0  0  0  0  0  0  0  0
    2.1881   -0.0873    1.9732 H   0  0  0  0  0  0  0  0  0  0  0  0
    1.8720    0.1649   -2.3167 H   0  0  0  0  0  0  0  0  0  0  0  0
   -3.6863    2.7384    0.3995 H   0  0  0  0  0  0  0  0  0  0  0  0
    1.4289    4.1500   -1.2874 H   0  0  0  0  0  0  0  0  0  0  0  0
    0.1609    3.0888   -1.9024 H   0  0  0  0  0  0  0  0  0  0  0  0
   -0.2135    4.3826   -0.7059 H   0  0  0  0  0  0  0  0  0  0  0  0
   -6.2901    0.7954   -1.3999 H   0  0  0  0  0  0  0  0  0  0  0  0
   -6.4315   -0.9894   -1.5060 H   0  0  0  0  0  0  0  0  0  0  0  0
   -7.6503   -0.0441   -0.6238 H   0  0  0  0  0  0  0  0  0  0  0  0
   -4.7362   -4.7588   -0.0267 H   0  0  0  0  0  0  0  0  0  0  0  0
   -3.3215   -4.1600    0.8295 H   0  0  0  0  0  0  0  0  0  0  0  0
   -3.4475   -4.0396   -0.9831 H   0  0  0  0  0  0  0  0  0  0  0  0
    5.3237   -0.6107   -2.6699 H   0  0  0  0  0  0  0  0  0  0  0  0
    4.6217    1.1984    2.8995 H   0  0  0  0  0  0  0  0  0  0  0  0
    6.0678    0.9245    1.8733 H   0  0  0  0  0  0  0  0  0  0  0  0
    5.9280    0.1291    3.4565 H   0  0  0  0  0  0  0  0  0  0  0  0
    7.1467   -2.4626   -0.6133 H   0  0  0  0  0  0  0  0  0  0  0  0
    6.7457   -1.9441    1.0301 H   0  0  0  0  0  0  0  0  0  0  0  0
    5.5382   -2.8294    0.0356 H   0  0  0  0  0  0  0  0  0  0  0  0
  1 11  1  0  0  0  0
  1 12  1  0  0  0  0
  2 14  1  0  0  0  0
  2 25  1  0  0  0  0
  3 18  1  0  0  0  0
  3 26  1  0  0  0  0
  4 19  1  0  0  0  0
  4 27  1  0  0  0  0
  5 16  1  0  0  0  0
  5 33  1  0  0  0  0
  6 15  2  0  0  0  0
  7 22  1  0  0  0  0
  7 28  1  0  0  0  0
  8 24  1  0  0  0  0
  8 29  1  0  0  0  0
  9 23  1  0  0  0  0
  9 43  1  0  0  0  0
 10 11  1  0  0  0  0
 10 15  1  0  0  0  0
 10 16  2  0  0  0  0
 11 17  2  0  0  0  0
 12 13  1  0  0  0  0
 12 14  2  0  0  0  0
 13 20  1  0  0  0  0
 13 21  2  0  0  0  0
 14 15  1  0  0  0  0
 16 18  1  0  0  0  0
 17 19  1  0  0  0  0
 17 30  1  0  0  0  0
 18 19  2  0  0  0  0
 20 22  2  0  0  0  0
 20 31  1  0  0  0  0
 21 23  1  0  0  0  0
 21 32  1  0  0  0  0
 22 24  1  0  0  0  0
 23 24  2  0  0  0  0
 25 34  1  0  0  0  0
 25 35  1  0  0  0  0
 25 36  1  0  0  0  0
 26 37  1  0  0  0  0
 26 38  1  0  0  0  0
 26 39  1  0  0  0  0
 27 40  1  0  0  0  0
 27 41  1  0  0  0  0
 27 42  1  0  0  0  0
 28 44  1  0  0  0  0
 28 45  1  0  0  0  0
 28 46  1  0  0  0  0
 29 47  1  0  0  0  0
 29 48  1  0  0  0  0
 29 49  1  0  0  0  0
M  END
> <PUBCHEM_COMPOUND_CID>
14037471

> <PUBCHEM_CONFORMER_RMSD>
0.8

> <PUBCHEM_CONFORMER_DIVERSEORDER>
5
9
8
11
2
7
1
10
13
6
12
3
4

> <PUBCHEM_MMFF94_PARTIAL_CHARGES>
34
1 -0.16
10 0.09
11 0.08
12 0.05
13 0.03
14 0.09
15 0.47
16 0.08
17 -0.15
18 0.08
19 0.08
2 -0.36
20 -0.15
21 -0.15
22 0.08
23 0.08
24 0.08
25 0.28
26 0.28
27 0.28
28 0.28
29 0.28
3 -0.36
30 0.15
31 0.15
32 0.15
33 0.45
4 -0.36
43 0.45
5 -0.53
6 -0.57
7 -0.36
8 -0.36
9 -0.53

> <PUBCHEM_EFFECTIVE_ROTOR_COUNT>
6

> <PUBCHEM_PHARMACOPHORE_FEATURES>
12
1 1 acceptor
1 2 acceptor
1 3 acceptor
1 4 acceptor
1 5 donor
1 6 acceptor
1 7 acceptor
1 8 acceptor
1 9 donor
6 1 10 11 12 14 15 rings
6 10 11 16 17 18 19 rings
6 13 20 21 22 23 24 rings

> <PUBCHEM_HEAVY_ATOM_COUNT>
29

> <PUBCHEM_ATOM_DEF_STEREO_COUNT>
0

> <PUBCHEM_ATOM_UDEF_STEREO_COUNT>
0

> <PUBCHEM_BOND_DEF_STEREO_COUNT>
0

> <PUBCHEM_BOND_UDEF_STEREO_COUNT>
0

> <PUBCHEM_ISOTOPIC_ATOM_COUNT>
0

> <PUBCHEM_COMPONENT_COUNT>
1

> <PUBCHEM_CACTVS_TAUTO_COUNT>
14

> <PUBCHEM_CONFORMER_ID>
00D631DF00000005

> <PUBCHEM_MMFF94_ENERGY>
135.8891

> <PUBCHEM_FEATURE_SELFOVERLAP>
60.943

> <PUBCHEM_SHAPE_FINGERPRINT>
10 15 17846483852112248306
10050765 1 18193277627742028717
10319926 262 18199454494903899130
10369192 42 17416671644359187296
11963148 33 17404582667792206231
12166972 35 17748831821253421500
12236239 1 17822018566915572588
12553582 1 18336557070320358227
12616971 3 17240478121946563547
12788726 201 18041843904581014624
13140716 1 18341332305481723897
13540713 5 18195545889960189961
13583140 156 17984678054087151362
13782708 43 17703512086993311710
13862211 1 18412265025988433071
14294032 229 17825951412329094805
15183329 4 16732981986190534973
17138139 8 17895472652095150954
17349148 13 17530965748715595626
17492 89 18122345954748871347
1813 80 18335419092839333484
18222031 100 18408886235140698000
18681886 176 18260272941428318750
20511986 3 17676475125524304872
20600515 1 18341609321633885473
21033648 29 17275095107454260259
21065201 7 18271249326715631174
21267235 1 18409174316183110059
21859007 373 18116409502486913821
23366157 5 17898012588100364509
23402539 116 18411419475270474084
23557571 272 18200879470199596196
23559900 14 18340202016076113081
23569914 152 13195618896681375811
3004659 81 17822010900298930214
335352 9 18410575098618820797
3383291 50 18342176713681042027
3411729 13 18196367246515876688
3882209 13 16978116174789657431
3886686 26 17111262145936107698
4340502 62 15410890756342148494
463206 1 18114176462430949354
5104073 3 18197223753383308131
57527293 21 17915999392330536714
59755656 215 18339080384813375062
7970288 3 18410013281688569590
86090 222 16915970433568300574
9709674 26 18047758388723472419

> <PUBCHEM_SHAPE_MULTIPOLES>
543.98
14.75
3.2
1.48
2.39
0.39
-0.05
-8.63
0.96
-3.42
-0.26
3.32
0.04
0.07

> <PUBCHEM_SHAPE_SELFOVERLAP>
1187.581

> <PUBCHEM_SHAPE_VOLUME>
296.6

> <PUBCHEM_COORDINATE_TYPE>
2
5
10

$$$$
