14037936
  -OEChem-03292013303D

 54 57  0     1  0  0  0  0  0999 V2000
   -2.7985    0.3427    1.2832 O   0  0  0  0  0  0  0  0  0  0  0  0
    0.6514   -2.0502   -0.6741 O   0  0  0  0  0  0  0  0  0  0  0  0
    1.7788    0.7946    0.0345 O   0  0  0  0  0  0  0  0  0  0  0  0
   -2.1067    3.0290    0.8115 O   0  0  0  0  0  0  0  0  0  0  0  0
    2.6289   -0.4943   -1.6786 O   0  0  0  0  0  0  0  0  0  0  0  0
    7.5427   -0.9934   -0.2371 O   0  0  0  0  0  0  0  0  0  0  0  0
    6.5261    0.1748    1.4254 O   0  0  0  0  0  0  0  0  0  0  0  0
   -3.1916   -0.1829   -0.0039 C   0  0  1  0  0  0  0  0  0  0  0  0
   -2.1466   -1.2403   -0.4565 C   0  0  1  0  0  0  0  0  0  0  0  0
   -1.1556   -1.2209    0.7190 C   0  0  2  0  0  0  0  0  0  0  0  0
   -4.2718   -1.2843    0.0486 C   0  0  0  0  0  0  0  0  0  0  0  0
   -1.4090    0.1172    1.4216 C   0  0  1  0  0  0  0  0  0  0  0  0
   -3.2555   -2.3101   -0.4673 C   0  0  0  0  0  0  0  0  0  0  0  0
   -0.5394    1.1665    0.6843 C   0  0  1  0  0  0  0  0  0  0  0  0
   -3.4578    0.9842   -0.9397 C   0  0  0  0  0  0  0  0  0  0  0  0
    0.3045   -1.1042    0.3197 C   0  0  2  0  0  0  0  0  0  0  0  0
    0.4486    0.3353   -0.1718 C   0  0  2  0  0  0  0  0  0  0  0  0
   -1.3002    2.2782   -0.1057 C   0  0  1  0  0  0  0  0  0  0  0  0
   -2.1940    1.7895   -1.2759 C   0  0  0  0  0  0  0  0  0  0  0  0
   -4.8369   -1.6626    1.4018 C   0  0  0  0  0  0  0  0  0  0  0  0
   -5.4176   -1.0810   -0.9252 C   0  0  0  0  0  0  0  0  0  0  0  0
   -0.2847    3.2904   -0.6673 C   0  0  0  0  0  0  0  0  0  0  0  0
    2.7611    0.0915   -0.6131 C   0  0  0  0  0  0  0  0  0  0  0  0
    4.0348    0.1537    0.2023 C   0  0  0  0  0  0  0  0  0  0  0  0
    5.2150   -0.5290   -0.4784 C   0  0  0  0  0  0  0  0  0  0  0  0
    6.4735   -0.3944    0.3427 C   0  0  0  0  0  0  0  0  0  0  0  0
   -1.7266   -1.0597   -1.4505 H   0  0  0  0  0  0  0  0  0  0  0  0
   -1.3323   -2.0735    1.3836 H   0  0  0  0  0  0  0  0  0  0  0  0
   -1.1429    0.0677    2.4832 H   0  0  0  0  0  0  0  0  0  0  0  0
   -3.4589   -2.7059   -1.4697 H   0  0  0  0  0  0  0  0  0  0  0  0
   -3.0668   -3.1693    0.1860 H   0  0  0  0  0  0  0  0  0  0  0  0
    0.0340    1.6777    1.4725 H   0  0  0  0  0  0  0  0  0  0  0  0
   -4.2067    1.6524   -0.4966 H   0  0  0  0  0  0  0  0  0  0  0  0
   -3.8580    0.6577   -1.9040 H   0  0  0  0  0  0  0  0  0  0  0  0
    0.9492   -1.2842    1.1887 H   0  0  0  0  0  0  0  0  0  0  0  0
    0.2267    0.4147   -1.2403 H   0  0  0  0  0  0  0  0  0  0  0  0
   -1.5918    1.2247   -1.9956 H   0  0  0  0  0  0  0  0  0  0  0  0
   -2.5470    2.6729   -1.8272 H   0  0  0  0  0  0  0  0  0  0  0  0
   -4.0450   -1.8690    2.1307 H   0  0  0  0  0  0  0  0  0  0  0  0
   -5.4545   -0.8549    1.8101 H   0  0  0  0  0  0  0  0  0  0  0  0
   -5.4595   -2.5625    1.3407 H   0  0  0  0  0  0  0  0  0  0  0  0
   -6.1111   -1.9307   -0.8930 H   0  0  0  0  0  0  0  0  0  0  0  0
   -5.9988   -0.1847   -0.6819 H   0  0  0  0  0  0  0  0  0  0  0  0
   -5.0891   -1.0112   -1.9674 H   0  0  0  0  0  0  0  0  0  0  0  0
    0.3666    3.6759    0.1258 H   0  0  0  0  0  0  0  0  0  0  0  0
    0.3446    2.8537   -1.4489 H   0  0  0  0  0  0  0  0  0  0  0  0
   -0.7969    4.1629   -1.0902 H   0  0  0  0  0  0  0  0  0  0  0  0
    0.2704   -1.7739   -1.5234 H   0  0  0  0  0  0  0  0  0  0  0  0
   -1.5334    3.3467    1.5298 H   0  0  0  0  0  0  0  0  0  0  0  0
    3.8389   -0.3203    1.1713 H   0  0  0  0  0  0  0  0  0  0  0  0
    4.2707    1.2106    0.3754 H   0  0  0  0  0  0  0  0  0  0  0  0
    5.3944   -0.0773   -1.4604 H   0  0  0  0  0  0  0  0  0  0  0  0
    5.0023   -1.5948   -0.6167 H   0  0  0  0  0  0  0  0  0  0  0  0
    8.3521   -0.9081    0.3105 H   0  0  0  0  0  0  0  0  0  0  0  0
  1  8  1  0  0  0  0
  1 12  1  0  0  0  0
  2 16  1  0  0  0  0
  2 48  1  0  0  0  0
  3 17  1  0  0  0  0
  3 23  1  0  0  0  0
  4 18  1  0  0  0  0
  4 49  1  0  0  0  0
  5 23  2  0  0  0  0
  6 26  1  0  0  0  0
  6 54  1  0  0  0  0
  7 26  2  0  0  0  0
  8  9  1  0  0  0  0
  8 11  1  0  0  0  0
  8 15  1  0  0  0  0
  9 10  1  0  0  0  0
  9 13  1  0  0  0  0
  9 27  1  0  0  0  0
 10 12  1  0  0  0  0
 10 16  1  0  0  0  0
 10 28  1  0  0  0  0
 11 13  1  0  0  0  0
 11 20  1  0  0  0  0
 11 21  1  0  0  0  0
 12 14  1  0  0  0  0
 12 29  1  0  0  0  0
 13 30  1  0  0  0  0
 13 31  1  0  0  0  0
 14 17  1  0  0  0  0
 14 18  1  0  0  0  0
 14 32  1  0  0  0  0
 15 19  1  0  0  0  0
 15 33  1  0  0  0  0
 15 34  1  0  0  0  0
 16 17  1  0  0  0  0
 16 35  1  0  0  0  0
 17 36  1  0  0  0  0
 18 19  1  0  0  0  0
 18 22  1  0  0  0  0
 19 37  1  0  0  0  0
 19 38  1  0  0  0  0
 20 39  1  0  0  0  0
 20 40  1  0  0  0  0
 20 41  1  0  0  0  0
 21 42  1  0  0  0  0
 21 43  1  0  0  0  0
 21 44  1  0  0  0  0
 22 45  1  0  0  0  0
 22 46  1  0  0  0  0
 22 47  1  0  0  0  0
 23 24  1  0  0  0  0
 24 25  1  0  0  0  0
 24 50  1  0  0  0  0
 24 51  1  0  0  0  0
 25 26  1  0  0  0  0
 25 52  1  0  0  0  0
 25 53  1  0  0  0  0
M  END
> <PUBCHEM_COMPOUND_CID>
14037936

> <PUBCHEM_CONFORMER_RMSD>
0.8

> <PUBCHEM_CONFORMER_DIVERSEORDER>
1
42
28
22
24
35
21
40
25
15
20
38
18
6
34
12
2
10
31
19
9
7
32
16
3
29
30
39
4
36
14
8
11
37
41
26
13
17
27
23
33
5

> <PUBCHEM_MMFF94_PARTIAL_CHARGES>
19
1 -0.54
12 0.28
16 0.28
17 0.28
18 0.28
2 -0.68
23 0.66
24 0.06
25 0.06
26 0.66
3 -0.43
4 -0.68
48 0.4
49 0.4
5 -0.57
54 0.5
6 -0.65
7 -0.57
8 0.26

> <PUBCHEM_EFFECTIVE_ROTOR_COUNT>
6.6

> <PUBCHEM_PHARMACOPHORE_FEATURES>
13
1 1 acceptor
1 2 acceptor
1 2 donor
1 4 acceptor
1 4 donor
1 5 acceptor
1 6 acceptor
1 7 acceptor
3 11 20 21 hydrophobe
3 6 7 26 anion
5 10 12 14 16 17 rings
7 1 8 12 14 15 18 19 rings
7 1 8 9 10 11 12 13 rings

> <PUBCHEM_HEAVY_ATOM_COUNT>
26

> <PUBCHEM_ATOM_DEF_STEREO_COUNT>
8

> <PUBCHEM_ATOM_UDEF_STEREO_COUNT>
0

> <PUBCHEM_BOND_DEF_STEREO_COUNT>
0

> <PUBCHEM_BOND_UDEF_STEREO_COUNT>
0

> <PUBCHEM_ISOTOPIC_ATOM_COUNT>
0

> <PUBCHEM_COMPONENT_COUNT>
1

> <PUBCHEM_CACTVS_TAUTO_COUNT>
1

> <PUBCHEM_CONFORMER_ID>
00D633B000000001

> <PUBCHEM_MMFF94_ENERGY>
91.6274

> <PUBCHEM_FEATURE_SELFOVERLAP>
66.631

> <PUBCHEM_SHAPE_FINGERPRINT>
106641 1 12679178349607523423
11101153 10 18335710494140028388
11315181 36 17095528405167152748
12107183 9 17613428944990064434
12166972 35 17386010619418101212
12236239 1 17603865598872844274
12403259 415 17917987274867184640
12403260 363 18409451392950039100
12596602 18 17749103405637815504
12788726 201 18187355506862635690
13140716 1 18195256739380763627
13288520 33 18409729573116913551
13583140 156 17988631962082524350
13782708 43 18060141995278024022
13862211 1 18339361967158661799
13914758 101 17240755147315641014
14142880 1 18269567048303335385
14790565 3 17476362699779548393
15183329 4 14996277003825893490
16087824 20 18265050246701345021
16945 1 18268712887072297915
17349148 13 17676492744002158646
1813 80 18270138905965719821
18927931 339 18410300198440708518
192875 21 17676494968505211092
19489759 90 18187363212503397442
200 152 17894630370353101234
21033648 29 17631714003732891952
21236236 1 18412263904770042024
21267235 1 18335706078586047995
21792934 111 18412261766198290345
21792961 116 17967247590483219387
22224240 67 9727639423394923311
23198884 109 15502090856140734254
23402539 116 18408884040079808204
23419403 2 17916566769878827873
23557571 272 18413109450391024876
23559900 14 18263357156663367720
2748010 2 17612873008681235555
335352 9 18408600375540227893
4280585 95 18339350985322886143
5104073 3 18128264393638526194
57527585 103 17315390022458137771
59755656 215 18334855004909762054

> <PUBCHEM_SHAPE_MULTIPOLES>
493.98
13.03
2.6
1.24
27.25
2.03
0.11
-6.88
0.63
-2.52
-0.22
-0.39
0
0.35

> <PUBCHEM_SHAPE_SELFOVERLAP>
1063.298

> <PUBCHEM_SHAPE_VOLUME>
272.7

> <PUBCHEM_COORDINATE_TYPE>
2
5
10

$$$$
