14059869
  -OEChem-03292013303D

 48 52  0     1  0  0  0  0  0999 V2000
    1.9968    1.7414    0.8508 O   0  0  0  0  0  0  0  0  0  0  0  0
   -0.7757   -0.5720   -2.0730 O   0  0  0  0  0  0  0  0  0  0  0  0
    1.6577    2.3722   -1.3875 O   0  0  0  0  0  0  0  0  0  0  0  0
    3.9527    1.0586    1.8179 O   0  0  0  0  0  0  0  0  0  0  0  0
   -0.5314    2.9671    0.0831 O   0  0  0  0  0  0  0  0  0  0  0  0
   -1.6681   -2.9018   -0.2859 O   0  0  0  0  0  0  0  0  0  0  0  0
    0.6403   -0.9711   -0.1453 C   0  0  2  0  0  0  0  0  0  0  0  0
    1.1882   -2.3601    0.0919 C   0  0  2  0  0  0  0  0  0  0  0  0
    1.6613    0.0282   -0.7005 C   0  0  2  0  0  0  0  0  0  0  0  0
    0.7372   -1.5308    1.2669 C   0  0  0  0  0  0  0  0  0  0  0  0
   -0.7769   -0.6560   -0.6410 C   0  0  1  0  0  0  0  0  0  0  0  0
    3.1090   -0.0853   -0.1704 C   0  0  2  0  0  0  0  0  0  0  0  0
    2.6382   -2.6065   -0.1713 C   0  0  0  0  0  0  0  0  0  0  0  0
    1.2773    1.4631   -0.3539 C   0  0  1  0  0  0  0  0  0  0  0  0
    3.5285   -1.4808    0.3411 C   0  0  0  0  0  0  0  0  0  0  0  0
   -1.1990    0.6904   -0.0992 C   0  0  0  0  0  0  0  0  0  0  0  0
    3.1003    0.9394    0.9501 C   0  0  0  0  0  0  0  0  0  0  0  0
   -0.1891    1.7983   -0.1113 C   0  0  0  0  0  0  0  0  0  0  0  0
   -1.8787   -1.6945   -0.3918 C   0  0  0  0  0  0  0  0  0  0  0  0
    4.1312    0.3868   -1.2222 C   0  0  0  0  0  0  0  0  0  0  0  0
   -2.3875    0.9578    0.4706 C   0  0  0  0  0  0  0  0  0  0  0  0
   -3.3095   -1.1942   -0.4157 C   0  0  0  0  0  0  0  0  0  0  0  0
   -3.5160   -0.0429    0.5793 C   0  0  1  0  0  0  0  0  0  0  0  0
   -3.5713   -0.5740    2.0215 C   0  0  0  0  0  0  0  0  0  0  0  0
   -4.8372    0.6171    0.2669 C   0  0  0  0  0  0  0  0  0  0  0  0
   -4.9782    1.6497   -0.5711 C   0  0  0  0  0  0  0  0  0  0  0  0
    0.6047   -3.2238   -0.1871 H   0  0  0  0  0  0  0  0  0  0  0  0
    1.6760   -0.1073   -1.7905 H   0  0  0  0  0  0  0  0  0  0  0  0
   -0.1663   -1.8495    1.7759 H   0  0  0  0  0  0  0  0  0  0  0  0
    1.4485   -1.0989    1.9561 H   0  0  0  0  0  0  0  0  0  0  0  0
    2.7882   -2.7349   -1.2500 H   0  0  0  0  0  0  0  0  0  0  0  0
    2.9367   -3.5474    0.3052 H   0  0  0  0  0  0  0  0  0  0  0  0
    3.5350   -1.5057    1.4382 H   0  0  0  0  0  0  0  0  0  0  0  0
    4.5647   -1.7057    0.0569 H   0  0  0  0  0  0  0  0  0  0  0  0
    5.1492    0.3729   -0.8145 H   0  0  0  0  0  0  0  0  0  0  0  0
    4.1122   -0.2629   -2.1041 H   0  0  0  0  0  0  0  0  0  0  0  0
    3.9498    1.4131   -1.5548 H   0  0  0  0  0  0  0  0  0  0  0  0
   -0.4089   -1.4040   -2.4193 H   0  0  0  0  0  0  0  0  0  0  0  0
   -2.5632    1.9327    0.9236 H   0  0  0  0  0  0  0  0  0  0  0  0
   -3.5246   -0.8907   -1.4491 H   0  0  0  0  0  0  0  0  0  0  0  0
   -3.9797   -2.0325   -0.1861 H   0  0  0  0  0  0  0  0  0  0  0  0
    1.3551    3.2611   -1.1355 H   0  0  0  0  0  0  0  0  0  0  0  0
   -3.7618    0.2325    2.7407 H   0  0  0  0  0  0  0  0  0  0  0  0
   -4.3665   -1.3191    2.1455 H   0  0  0  0  0  0  0  0  0  0  0  0
   -2.6286   -1.0525    2.3120 H   0  0  0  0  0  0  0  0  0  0  0  0
   -5.7375    0.1915    0.7053 H   0  0  0  0  0  0  0  0  0  0  0  0
   -5.9671    2.0526   -0.7662 H   0  0  0  0  0  0  0  0  0  0  0  0
   -4.1494    2.1111   -1.0947 H   0  0  0  0  0  0  0  0  0  0  0  0
  1 14  1  0  0  0  0
  1 17  1  0  0  0  0
  2 11  1  0  0  0  0
  2 38  1  0  0  0  0
  3 14  1  0  0  0  0
  3 42  1  0  0  0  0
  4 17  2  0  0  0  0
  5 18  2  0  0  0  0
  6 19  2  0  0  0  0
  7  8  1  0  0  0  0
  7  9  1  0  0  0  0
  7 10  1  0  0  0  0
  7 11  1  0  0  0  0
  8 10  1  0  0  0  0
  8 13  1  0  0  0  0
  8 27  1  0  0  0  0
  9 12  1  0  0  0  0
  9 14  1  0  0  0  0
  9 28  1  0  0  0  0
 10 29  1  0  0  0  0
 10 30  1  0  0  0  0
 11 16  1  0  0  0  0
 11 19  1  0  0  0  0
 12 15  1  0  0  0  0
 12 17  1  0  0  0  0
 12 20  1  0  0  0  0
 13 15  1  0  0  0  0
 13 31  1  0  0  0  0
 13 32  1  0  0  0  0
 14 18  1  0  0  0  0
 15 33  1  0  0  0  0
 15 34  1  0  0  0  0
 16 18  1  0  0  0  0
 16 21  2  0  0  0  0
 19 22  1  0  0  0  0
 20 35  1  0  0  0  0
 20 36  1  0  0  0  0
 20 37  1  0  0  0  0
 21 23  1  0  0  0  0
 21 39  1  0  0  0  0
 22 23  1  0  0  0  0
 22 40  1  0  0  0  0
 22 41  1  0  0  0  0
 23 24  1  0  0  0  0
 23 25  1  0  0  0  0
 24 43  1  0  0  0  0
 24 44  1  0  0  0  0
 24 45  1  0  0  0  0
 25 26  2  0  0  0  0
 25 46  1  0  0  0  0
 26 47  1  0  0  0  0
 26 48  1  0  0  0  0
M  END
> <PUBCHEM_COMPOUND_CID>
14059869

> <PUBCHEM_CONFORMER_RMSD>
0.6

> <PUBCHEM_CONFORMER_DIVERSEORDER>
1
2

> <PUBCHEM_MMFF94_PARTIAL_CHARGES>
32
1 -0.43
10 -0.2
11 0.57
12 0.06
13 0.09
14 0.62
16 -0.12
17 0.66
18 0.49
19 0.45
2 -0.68
21 -0.29
22 0.06
23 0.28
25 -0.29
26 -0.3
27 0.1
29 0.1
3 -0.68
30 0.1
38 0.4
39 0.15
4 -0.57
42 0.4
46 0.15
47 0.15
48 0.15
5 -0.57
6 -0.57
7 -0.19
8 -0.19
9 0.09

> <PUBCHEM_EFFECTIVE_ROTOR_COUNT>
2.2

> <PUBCHEM_PHARMACOPHORE_FEATURES>
12
1 2 acceptor
1 2 donor
1 26 hydrophobe
1 3 acceptor
1 3 donor
1 4 acceptor
1 5 acceptor
1 6 acceptor
5 1 9 12 14 17 rings
6 11 16 19 21 22 23 rings
6 7 9 11 14 16 18 rings
7 7 8 9 10 12 13 15 rings

> <PUBCHEM_HEAVY_ATOM_COUNT>
26

> <PUBCHEM_ATOM_DEF_STEREO_COUNT>
7

> <PUBCHEM_ATOM_UDEF_STEREO_COUNT>
0

> <PUBCHEM_BOND_DEF_STEREO_COUNT>
0

> <PUBCHEM_BOND_UDEF_STEREO_COUNT>
0

> <PUBCHEM_ISOTOPIC_ATOM_COUNT>
0

> <PUBCHEM_COMPONENT_COUNT>
1

> <PUBCHEM_CACTVS_TAUTO_COUNT>
2

> <PUBCHEM_CONFORMER_ID>
00D6895D00000001

> <PUBCHEM_MMFF94_ENERGY>
75.9152

> <PUBCHEM_FEATURE_SELFOVERLAP>
61.19

> <PUBCHEM_SHAPE_FINGERPRINT>
10863032 1 17989207083335186282
10948715 1 17773588515532876392
10967382 1 18411138013184076222
11132069 177 18411696629504751561
11578080 2 17630009773088728561
11961588 58 13038321762620581970
12011746 2 18339367348778628999
12236239 1 17632289056962110141
12422481 6 18267281189483077522
12553582 1 18409168830950736284
12633257 1 17385436631325116353
13140716 1 18266454489466257112
13224815 77 18040714787801591779
13583140 156 18129658729058845059
14178342 30 18267290122609188946
14223421 5 18266456508026948528
14787075 74 17897183500730093987
14790565 3 18049445035150267876
15196674 1 18411136935284441391
15238133 3 17749387014548906485
15536298 74 18272368667832846962
1601671 61 18333455330701642988
16945 1 18413101749899765484
17349148 13 17775565330344977677
1813 80 17385443206756301892
19591789 44 18123190104162253854
20691752 17 18187357779032261918
20739085 24 18121803650412799425
20905425 154 18197222455717589228
21033648 29 18335416834108522441
21267235 1 18338246942098495607
21421861 104 17751634356033188082
22182313 1 18118388567027817628
23184049 59 18341051826689219911
2334 1 17977949312595491884
23419403 2 17245807274908280743
23558518 356 17828763176876651851
23559900 14 18115031783687309555
2748010 2 18120086187205784804
296302 2 17458071460424852647
335352 9 18339359652149995798
34934 24 18413101766784255077
350125 39 18265615373395056798
394222 165 17315645264191939396
474 4 18261395588984809895
5104073 3 18411981347583120315
7364860 26 18272088249576632470
7832392 63 18341891934766055183

> <PUBCHEM_SHAPE_MULTIPOLES>
499.85
7.87
2.78
1.33
4.55
0.22
0.21
-1.23
0.99
-0.63
-0.17
-0.16
-0.08
0.22

> <PUBCHEM_SHAPE_SELFOVERLAP>
1119.249

> <PUBCHEM_SHAPE_VOLUME>
263

> <PUBCHEM_COORDINATE_TYPE>
2
5
10

$$$$
