14060930
  -OEChem-03292013303D

 57 60  0     1  0  0  0  0  0999 V2000
    1.7906    2.0281    1.1506 O   0  0  0  0  0  0  0  0  0  0  0  0
   -2.2756   -0.0188   -1.7783 O   0  0  0  0  0  0  0  0  0  0  0  0
    4.3974    1.6512    0.4018 O   0  0  0  0  0  0  0  0  0  0  0  0
   -1.5010    2.5703   -1.2403 O   0  0  0  0  0  0  0  0  0  0  0  0
   -4.8662   -1.0361    1.1608 O   0  0  0  0  0  0  0  0  0  0  0  0
    1.4528    0.2762   -0.5343 C   0  0  1  0  0  0  0  0  0  0  0  0
    1.1176   -1.2442   -0.7334 C   0  0  1  0  0  0  0  0  0  0  0  0
    1.6515    0.6235    0.9572 C   0  0  1  0  0  0  0  0  0  0  0  0
    2.9676   -0.0972    1.2695 C   0  0  2  0  0  0  0  0  0  0  0  0
    2.9089    0.5139   -1.0998 C   0  0  0  0  0  0  0  0  0  0  0  0
   -1.8841    0.3388   -0.4370 C   0  0  1  0  0  0  0  0  0  0  0  0
    3.8723    0.3472    0.0977 C   0  0  1  0  0  0  0  0  0  0  0  0
    0.4506    1.1876   -1.2783 C   0  0  0  0  0  0  0  0  0  0  0  0
   -1.3384   -0.9607    0.2125 C   0  0  2  0  0  0  0  0  0  0  0  0
   -0.8645    1.4901   -0.5417 C   0  0  1  0  0  0  0  0  0  0  0  0
    2.0707   -2.1808    0.0571 C   0  0  0  0  0  0  0  0  0  0  0  0
   -3.1978    0.6760    0.4101 C   0  0  0  0  0  0  0  0  0  0  0  0
    2.6675   -1.5975    1.3387 C   0  0  0  0  0  0  0  0  0  0  0  0
   -0.3309   -1.7279   -0.6241 C   0  0  0  0  0  0  0  0  0  0  0  0
   -2.6433   -1.7116    0.5339 C   0  0  0  0  0  0  0  0  0  0  0  0
   -3.5052   -0.6448    1.1859 C   0  0  2  0  0  0  0  0  0  0  0  0
    5.0823   -0.5312   -0.1980 C   0  0  0  0  0  0  0  0  0  0  0  0
   -2.9860    1.7733    1.4768 C   0  0  0  0  0  0  0  0  0  0  0  0
   -4.3795    1.1178   -0.4770 C   0  0  0  0  0  0  0  0  0  0  0  0
   -0.6572   -2.8434   -1.3103 C   0  0  0  0  0  0  0  0  0  0  0  0
    1.3553   -1.4310   -1.7950 H   0  0  0  0  0  0  0  0  0  0  0  0
    0.8413    0.2865    1.6047 H   0  0  0  0  0  0  0  0  0  0  0  0
    3.3798    0.2501    2.2245 H   0  0  0  0  0  0  0  0  0  0  0  0
    3.1389   -0.1908   -1.9072 H   0  0  0  0  0  0  0  0  0  0  0  0
    3.0072    1.5185   -1.5293 H   0  0  0  0  0  0  0  0  0  0  0  0
    0.2419    0.7890   -2.2799 H   0  0  0  0  0  0  0  0  0  0  0  0
    0.9328    2.1559   -1.4738 H   0  0  0  0  0  0  0  0  0  0  0  0
   -0.8789   -0.7334    1.1799 H   0  0  0  0  0  0  0  0  0  0  0  0
   -0.6301    1.8684    0.4552 H   0  0  0  0  0  0  0  0  0  0  0  0
    2.8927   -2.4554   -0.6145 H   0  0  0  0  0  0  0  0  0  0  0  0
    1.5935   -3.1379    0.3029 H   0  0  0  0  0  0  0  0  0  0  0  0
    1.9602   -1.7733    2.1600 H   0  0  0  0  0  0  0  0  0  0  0  0
    3.5753   -2.1531    1.6016 H   0  0  0  0  0  0  0  0  0  0  0  0
   -3.1480   -2.1014   -0.3579 H   0  0  0  0  0  0  0  0  0  0  0  0
   -2.4793   -2.5590    1.2089 H   0  0  0  0  0  0  0  0  0  0  0  0
   -3.2148   -0.5574    2.2400 H   0  0  0  0  0  0  0  0  0  0  0  0
    4.8192   -1.5334   -0.5392 H   0  0  0  0  0  0  0  0  0  0  0  0
    5.7091   -0.0709   -0.9709 H   0  0  0  0  0  0  0  0  0  0  0  0
    5.7119   -0.6260    0.6940 H   0  0  0  0  0  0  0  0  0  0  0  0
   -3.8717    1.8694    2.1165 H   0  0  0  0  0  0  0  0  0  0  0  0
   -2.1376    1.5422    2.1305 H   0  0  0  0  0  0  0  0  0  0  0  0
   -2.8125    2.7548    1.0242 H   0  0  0  0  0  0  0  0  0  0  0  0
   -4.1323    2.0231   -1.0414 H   0  0  0  0  0  0  0  0  0  0  0  0
   -4.6678    0.3436   -1.1957 H   0  0  0  0  0  0  0  0  0  0  0  0
   -5.2649    1.3476    0.1273 H   0  0  0  0  0  0  0  0  0  0  0  0
    1.9701    2.1740    2.0952 H   0  0  0  0  0  0  0  0  0  0  0  0
   -2.4793    0.8019   -2.2583 H   0  0  0  0  0  0  0  0  0  0  0  0
    3.6559    2.2633    0.5399 H   0  0  0  0  0  0  0  0  0  0  0  0
   -1.6499   -3.2740   -1.3137 H   0  0  0  0  0  0  0  0  0  0  0  0
    0.0826   -3.3711   -1.9055 H   0  0  0  0  0  0  0  0  0  0  0  0
   -0.9124    3.3426   -1.1886 H   0  0  0  0  0  0  0  0  0  0  0  0
   -5.0978   -1.3040    0.2559 H   0  0  0  0  0  0  0  0  0  0  0  0
  1  8  1  0  0  0  0
  1 51  1  0  0  0  0
  2 11  1  0  0  0  0
  2 52  1  0  0  0  0
  3 12  1  0  0  0  0
  3 53  1  0  0  0  0
  4 15  1  0  0  0  0
  4 56  1  0  0  0  0
  5 21  1  0  0  0  0
  5 57  1  0  0  0  0
  6  7  1  0  0  0  0
  6  8  1  0  0  0  0
  6 10  1  0  0  0  0
  6 13  1  0  0  0  0
  7 16  1  0  0  0  0
  7 19  1  0  0  0  0
  7 26  1  0  0  0  0
  8  9  1  0  0  0  0
  8 27  1  0  0  0  0
  9 12  1  0  0  0  0
  9 18  1  0  0  0  0
  9 28  1  0  0  0  0
 10 12  1  0  0  0  0
 10 29  1  0  0  0  0
 10 30  1  0  0  0  0
 11 14  1  0  0  0  0
 11 15  1  0  0  0  0
 11 17  1  0  0  0  0
 12 22  1  0  0  0  0
 13 15  1  0  0  0  0
 13 31  1  0  0  0  0
 13 32  1  0  0  0  0
 14 19  1  0  0  0  0
 14 20  1  0  0  0  0
 14 33  1  0  0  0  0
 15 34  1  0  0  0  0
 16 18  1  0  0  0  0
 16 35  1  0  0  0  0
 16 36  1  0  0  0  0
 17 21  1  0  0  0  0
 17 23  1  0  0  0  0
 17 24  1  0  0  0  0
 18 37  1  0  0  0  0
 18 38  1  0  0  0  0
 19 25  2  0  0  0  0
 20 21  1  0  0  0  0
 20 39  1  0  0  0  0
 20 40  1  0  0  0  0
 21 41  1  0  0  0  0
 22 42  1  0  0  0  0
 22 43  1  0  0  0  0
 22 44  1  0  0  0  0
 23 45  1  0  0  0  0
 23 46  1  0  0  0  0
 23 47  1  0  0  0  0
 24 48  1  0  0  0  0
 24 49  1  0  0  0  0
 24 50  1  0  0  0  0
 25 54  1  0  0  0  0
 25 55  1  0  0  0  0
M  END
> <PUBCHEM_COMPOUND_CID>
14060930

> <PUBCHEM_CONFORMER_RMSD>
0.6

> <PUBCHEM_CONFORMER_DIVERSEORDER>
1
2

> <PUBCHEM_MMFF94_PARTIAL_CHARGES>
21
1 -0.68
11 0.28
12 0.28
14 0.14
15 0.28
19 -0.28
2 -0.68
21 0.28
25 -0.3
3 -0.68
4 -0.68
5 -0.68
51 0.4
52 0.4
53 0.4
54 0.15
55 0.15
56 0.4
57 0.4
7 0.14
8 0.28

> <PUBCHEM_EFFECTIVE_ROTOR_COUNT>
2

> <PUBCHEM_PHARMACOPHORE_FEATURES>
14
1 1 acceptor
1 1 donor
1 2 acceptor
1 2 donor
1 3 acceptor
1 3 donor
1 4 acceptor
1 4 donor
1 5 acceptor
1 5 donor
3 17 23 24 hydrophobe
5 11 14 17 20 21 rings
7 6 7 11 13 14 15 19 rings
8 6 7 8 9 10 12 16 18 rings

> <PUBCHEM_HEAVY_ATOM_COUNT>
25

> <PUBCHEM_ATOM_DEF_STEREO_COUNT>
9

> <PUBCHEM_ATOM_UDEF_STEREO_COUNT>
0

> <PUBCHEM_BOND_DEF_STEREO_COUNT>
0

> <PUBCHEM_BOND_UDEF_STEREO_COUNT>
0

> <PUBCHEM_ISOTOPIC_ATOM_COUNT>
0

> <PUBCHEM_COMPONENT_COUNT>
1

> <PUBCHEM_CACTVS_TAUTO_COUNT>
1

> <PUBCHEM_CONFORMER_ID>
00D68D8200000001

> <PUBCHEM_MMFF94_ENERGY>
128.1112

> <PUBCHEM_FEATURE_SELFOVERLAP>
71.094

> <PUBCHEM_SHAPE_FINGERPRINT>
10165383 225 17988374753043425154
10366900 7 18341888572086263265
10759866 29 18114185186099473954
10863032 1 18410860923332025691
10948715 1 18060142015850240908
1100329 8 14307216832583243520
11370993 70 18272933799930179347
12011746 2 18411416185336087805
12236239 1 17385729101729094188
12251169 10 18336270119228904515
12403814 3 18261386762874320573
12422481 6 18118941652333098818
12553582 1 18187358878359175852
12633257 1 18120375350353433675
13140716 1 18122627424749450688
13224815 77 18408319973461341495
13583140 156 17749936856150948407
14178342 30 18266481853209211185
14223421 5 18334575698621802388
14790565 3 18044667631431552860
14856354 85 17531260478099207234
14955137 171 18188223095031643884
15209289 33 18202848759590522550
15295992 7 16701737267206479378
15309172 13 18342457032266330623
1601671 61 18410863131330233504
16945 1 18341315769562085526
17349148 13 18410568518359924463
1813 80 16515692138564468447
18186145 218 16845574205720464411
19862831 5 10952054454719617810
200 152 12829488173040049443
20261772 1 18410577326768214046
20715895 44 17752758031891438877
21033648 29 18201707457915464073
21267235 1 18041573506335457675
23419403 2 12063219450257497992
23559900 14 18042411226827071374
238 59 17834639778669594668
2748010 2 18193552264265758414
34934 24 18186514414748074989
350125 39 18338803295261419870
465052 167 17897182414630960339
474 4 18201436909704383801
5104073 3 18261393312746972560
5161694 15 11455893550645718787
7097593 13 17679570143535566210
81228 2 17837751680197249846
90316 7 17894915092409854301

> <PUBCHEM_SHAPE_MULTIPOLES>
485.14
8.17
2.47
1.46
0.66
0.5
0
-1.07
-2.16
-0.4
0.3
-0.35
-0.08
0.22

> <PUBCHEM_SHAPE_SELFOVERLAP>
1044.655

> <PUBCHEM_SHAPE_VOLUME>
266.1

> <PUBCHEM_COORDINATE_TYPE>
2
5
10

$$$$
