140793092
  -OEChem-03292013293D

 61 63  0     1  0  0  0  0  0999 V2000
    2.1502    0.0230    0.7242 O   0  0  0  0  0  0  0  0  0  0  0  0
    5.9498    2.8135    1.1054 O   0  0  0  0  0  0  0  0  0  0  0  0
    5.8244    3.6151   -1.5323 O   0  0  0  0  0  0  0  0  0  0  0  0
    1.2727   -0.3087   -1.4021 O   0  0  0  0  0  0  0  0  0  0  0  0
    0.2255   -2.0373    1.6403 O   0  0  0  0  0  0  0  0  0  0  0  0
   -3.2367    0.6173    2.8694 O   0  0  0  0  0  0  0  0  0  0  0  0
   -2.1944    1.3219    0.9034 N   0  0  0  0  0  0  0  0  0  0  0  0
    4.7014    2.7252    0.4071 C   0  0  2  0  0  0  0  0  0  0  0  0
    3.8803    1.6121    1.0628 C   0  0  0  0  0  0  0  0  0  0  0  0
    2.4748    1.4096    0.4849 C   0  0  2  0  0  0  0  0  0  0  0  0
    5.0047    2.5234   -1.0925 C   0  0  2  0  0  0  0  0  0  0  0  0
    5.7446    1.2191   -1.4524 C   0  0  0  0  0  0  0  0  0  0  0  0
    1.4325    2.2797    1.1712 C   0  0  0  0  0  0  0  0  0  0  0  0
    4.8116    0.1147   -1.8718 C   0  0  0  0  0  0  0  0  0  0  0  0
    0.0603    2.0012    0.6395 C   0  0  0  0  0  0  0  0  0  0  0  0
    3.8352   -2.1923   -1.7934 C   0  0  0  0  0  0  0  0  0  0  0  0
    1.7041   -0.6985   -0.3326 C   0  0  0  0  0  0  0  0  0  0  0  0
    2.9932   -2.8051   -0.6927 C   0  0  0  0  0  0  0  0  0  0  0  0
    1.9772   -2.1043   -0.0153 C   0  0  0  0  0  0  0  0  0  0  0  0
    4.7729   -1.1116   -1.3256 C   0  0  0  0  0  0  0  0  0  0  0  0
    1.2181   -2.7093    0.9928 C   0  0  0  0  0  0  0  0  0  0  0  0
    3.2241   -4.1395   -0.3220 C   0  0  0  0  0  0  0  0  0  0  0  0
   -0.9496    1.5608    1.3991 C   0  0  0  0  0  0  0  0  0  0  0  0
    1.4666   -4.0348    1.3384 C   0  0  0  0  0  0  0  0  0  0  0  0
    2.4682   -4.7484    0.6835 C   0  0  0  0  0  0  0  0  0  0  0  0
   -3.2532    0.8669    1.6701 C   0  0  0  0  0  0  0  0  0  0  0  0
   -4.4882    0.6804    0.9419 C   0  0  0  0  0  0  0  0  0  0  0  0
   -5.5143    0.5255    0.3369 C   0  0  0  0  0  0  0  0  0  0  0  0
   -6.7354    0.3424   -0.3855 C   0  0  0  0  0  0  0  0  0  0  0  0
   -6.8054    0.6856   -1.7357 C   0  0  0  0  0  0  0  0  0  0  0  0
   -7.8558   -0.1798    0.2604 C   0  0  0  0  0  0  0  0  0  0  0  0
   -7.9962    0.5066   -2.4399 C   0  0  0  0  0  0  0  0  0  0  0  0
   -9.0465   -0.3589   -0.4436 C   0  0  0  0  0  0  0  0  0  0  0  0
   -9.1167   -0.0156   -1.7939 C   0  0  0  0  0  0  0  0  0  0  0  0
    4.2043    3.6932    0.5408 H   0  0  0  0  0  0  0  0  0  0  0  0
    4.4501    0.6753    1.0175 H   0  0  0  0  0  0  0  0  0  0  0  0
    3.8097    1.8058    2.1423 H   0  0  0  0  0  0  0  0  0  0  0  0
    2.4726    1.6103   -0.5908 H   0  0  0  0  0  0  0  0  0  0  0  0
    4.0741    2.6058   -1.6646 H   0  0  0  0  0  0  0  0  0  0  0  0
    6.4218    1.3989   -2.2976 H   0  0  0  0  0  0  0  0  0  0  0  0
    6.3889    0.8988   -0.6251 H   0  0  0  0  0  0  0  0  0  0  0  0
    1.6645    3.3393    1.0149 H   0  0  0  0  0  0  0  0  0  0  0  0
    1.4524    2.1002    2.2538 H   0  0  0  0  0  0  0  0  0  0  0  0
    4.1387    0.3436   -2.6953 H   0  0  0  0  0  0  0  0  0  0  0  0
    5.7522    3.0169    2.0356 H   0  0  0  0  0  0  0  0  0  0  0  0
    5.9028    3.5522   -2.4996 H   0  0  0  0  0  0  0  0  0  0  0  0
   -0.1041    2.1915   -0.4188 H   0  0  0  0  0  0  0  0  0  0  0  0
    4.4455   -2.9736   -2.2647 H   0  0  0  0  0  0  0  0  0  0  0  0
    3.1668   -1.8322   -2.5855 H   0  0  0  0  0  0  0  0  0  0  0  0
    5.4557   -1.3583   -0.5164 H   0  0  0  0  0  0  0  0  0  0  0  0
    3.9992   -4.7213   -0.8157 H   0  0  0  0  0  0  0  0  0  0  0  0
   -0.8090    1.3725    2.4582 H   0  0  0  0  0  0  0  0  0  0  0  0
    0.8878   -4.5264    2.1158 H   0  0  0  0  0  0  0  0  0  0  0  0
    2.6623   -5.7824    0.9542 H   0  0  0  0  0  0  0  0  0  0  0  0
   -2.3441    1.4912   -0.0886 H   0  0  0  0  0  0  0  0  0  0  0  0
   -0.1828   -2.6257    2.2983 H   0  0  0  0  0  0  0  0  0  0  0  0
   -5.9405    1.0937   -2.2532 H   0  0  0  0  0  0  0  0  0  0  0  0
   -7.8170   -0.4523    1.3125 H   0  0  0  0  0  0  0  0  0  0  0  0
   -8.0510    0.7738   -3.4912 H   0  0  0  0  0  0  0  0  0  0  0  0
   -9.9191   -0.7655    0.0592 H   0  0  0  0  0  0  0  0  0  0  0  0
  -10.0438   -0.1550   -2.3421 H   0  0  0  0  0  0  0  0  0  0  0  0
  1 10  1  0  0  0  0
  1 17  1  0  0  0  0
  2  8  1  0  0  0  0
  2 45  1  0  0  0  0
  3 11  1  0  0  0  0
  3 46  1  0  0  0  0
  4 17  2  0  0  0  0
  5 21  1  0  0  0  0
  5 56  1  0  0  0  0
  6 26  2  0  0  0  0
  7 23  1  0  0  0  0
  7 26  1  0  0  0  0
  7 55  1  0  0  0  0
  8  9  1  0  0  0  0
  8 11  1  0  0  0  0
  8 35  1  0  0  0  0
  9 10  1  0  0  0  0
  9 36  1  0  0  0  0
  9 37  1  0  0  0  0
 10 13  1  0  0  0  0
 10 38  1  0  0  0  0
 11 12  1  0  0  0  0
 11 39  1  0  0  0  0
 12 14  1  0  0  0  0
 12 40  1  0  0  0  0
 12 41  1  0  0  0  0
 13 15  1  0  0  0  0
 13 42  1  0  0  0  0
 13 43  1  0  0  0  0
 14 20  2  0  0  0  0
 14 44  1  0  0  0  0
 15 23  2  0  0  0  0
 15 47  1  0  0  0  0
 16 18  1  0  0  0  0
 16 20  1  0  0  0  0
 16 48  1  0  0  0  0
 16 49  1  0  0  0  0
 17 19  1  0  0  0  0
 18 19  2  0  0  0  0
 18 22  1  0  0  0  0
 19 21  1  0  0  0  0
 20 50  1  0  0  0  0
 21 24  2  0  0  0  0
 22 25  2  0  0  0  0
 22 51  1  0  0  0  0
 23 52  1  0  0  0  0
 24 25  1  0  0  0  0
 24 53  1  0  0  0  0
 25 54  1  0  0  0  0
 26 27  1  0  0  0  0
 27 28  3  0  0  0  0
 28 29  1  0  0  0  0
 29 30  2  0  0  0  0
 29 31  1  0  0  0  0
 30 32  1  0  0  0  0
 30 57  1  0  0  0  0
 31 33  2  0  0  0  0
 31 58  1  0  0  0  0
 32 34  2  0  0  0  0
 32 59  1  0  0  0  0
 33 34  1  0  0  0  0
 33 60  1  0  0  0  0
 34 61  1  0  0  0  0
M  END
> <PUBCHEM_COMPOUND_CID>
140793092

> <PUBCHEM_CONFORMER_RMSD>
0.8

> <PUBCHEM_CONFORMER_DIVERSEORDER>
4
3
138
131
117
31
48
95
22
94
128
121
15
65
66
43
63
127
81
75
61
143
78
74
148
35
122
136
52
13
134
37
103
51
107
130
5
73
26
99
91
23
54
116
144
45
33
90
110
76
142
64
112
140
126
105
79
70
98
50
16
102
84
44
80
135
115
36
41
118
18
62
111
145
146
38
25
124
68
106
123
49
97
120
96
125
113
39
132
93
29
47
42
67
87
56
129
21
86
72
19
77
6
20
55
8
9
27
104
92
58
30
34
1
137
53
85
108
57
100
147
17
14
119
69
109
88
60
46
7
114
71
133
28
89
149
59
12
11
10
2
40
139
83
141
82
101
32
24

> <PUBCHEM_MMFF94_PARTIAL_CHARGES>
49
1 -0.43
10 0.28
11 0.28
12 0.14
13 0.14
14 -0.29
15 -0.29
16 0.28
17 0.63
18 -0.14
19 0.09
2 -0.68
20 -0.29
21 0.08
22 -0.15
23 -0.04
24 -0.15
25 -0.15
26 0.74
27 -0.1
28 -0.07
29 0.07
3 -0.68
30 -0.15
31 -0.15
32 -0.15
33 -0.15
34 -0.15
4 -0.57
44 0.15
45 0.4
46 0.4
47 0.15
5 -0.53
50 0.15
51 0.15
52 0.15
53 0.15
54 0.15
55 0.37
56 0.45
57 0.15
58 0.15
59 0.15
6 -0.57
60 0.15
61 0.15
7 -0.54
8 0.28

> <PUBCHEM_EFFECTIVE_ROTOR_COUNT>
5.4

> <PUBCHEM_PHARMACOPHORE_FEATURES>
10
1 2 acceptor
1 2 donor
1 3 acceptor
1 3 donor
1 4 acceptor
1 5 donor
1 6 acceptor
1 7 donor
6 18 19 21 22 24 25 rings
6 29 30 31 32 33 34 rings

> <PUBCHEM_HEAVY_ATOM_COUNT>
34

> <PUBCHEM_ATOM_DEF_STEREO_COUNT>
3

> <PUBCHEM_ATOM_UDEF_STEREO_COUNT>
0

> <PUBCHEM_BOND_DEF_STEREO_COUNT>
2

> <PUBCHEM_BOND_UDEF_STEREO_COUNT>
0

> <PUBCHEM_ISOTOPIC_ATOM_COUNT>
0

> <PUBCHEM_COMPONENT_COUNT>
1

> <PUBCHEM_CACTVS_TAUTO_COUNT>
-1

> <PUBCHEM_CONFORMER_ID>
0864550400000004

> <PUBCHEM_MMFF94_ENERGY>
78.5567

> <PUBCHEM_FEATURE_SELFOVERLAP>
50.758

> <PUBCHEM_SHAPE_FINGERPRINT>
10622 236 18055912083566650947
11135926 11 18411709807144937257
11204353 107 18268153226801094547
11443803 9 17489298737900803440
11475781 23 17095518466818785549
11621639 208 17679849419674287901
12838863 1 18268712719780115530
13540713 5 17986403200278782465
1361 4 18343293791861767031
13692114 37 18131344241962148034
14118638 360 18272929411160048185
15001296 14 17345737716343499349
17134984 74 18411414029996059475
19246450 95 9328921416647566829
19315092 285 17987796302674417353
19319366 153 18411704283569496726
20775438 99 18342171163676012235
3388396 114 18271535238478592073
4403749 210 17975413830081688856
45266715 3 18407761425865593562
57359948 33 17749659698270842869
57634706 306 18191024710567843244
6058803 2 17913506644024008353

> <PUBCHEM_SHAPE_MULTIPOLES>
659.51
22.73
4.83
2.16
65.67
4.74
-0.24
-7.99
-14.66
-12.2
1.1
1.22
-0.32
-0.52

> <PUBCHEM_SHAPE_SELFOVERLAP>
1392.364

> <PUBCHEM_SHAPE_VOLUME>
364.5

> <PUBCHEM_COORDINATE_TYPE>
2
5
10

$$$$
