14136266
  -OEChem-03292013303D

 53 57  0     1  0  0  0  0  0999 V2000
    3.8741   -1.1154   -1.3979 O   0  0  0  0  0  0  0  0  0  0  0  0
    3.0242    2.3698   -0.3841 O   0  0  0  0  0  0  0  0  0  0  0  0
    0.2175   -3.7040    0.8964 O   0  0  0  0  0  0  0  0  0  0  0  0
   -0.8682    0.7802   -1.8089 O   0  0  0  0  0  0  0  0  0  0  0  0
    2.1787    4.1405    0.8200 O   0  0  0  0  0  0  0  0  0  0  0  0
   -6.7469    2.2831    1.4420 O   0  0  0  0  0  0  0  0  0  0  0  0
    3.4492    0.0794    2.1481 N   0  0  0  0  0  0  0  0  0  0  0  0
    2.3131   -1.7873    0.2615 N   0  0  1  0  0  0  0  0  0  0  0  0
   -2.9803   -0.8147   -1.2301 N   0  0  0  0  0  0  0  0  0  0  0  0
    4.2900    4.2203   -0.0872 N   0  0  0  0  0  0  0  0  0  0  0  0
    3.9497   -0.1935    0.8031 C   0  0  2  0  0  0  0  0  0  0  0  0
    3.0648   -0.6505   -0.3172 C   0  0  1  0  0  0  0  0  0  0  0  0
    3.9248   -1.2609    1.8523 C   0  0  2  0  0  0  0  0  0  0  0  0
    2.9337   -2.3218    1.4668 C   0  0  0  0  0  0  0  0  0  0  0  0
    1.9483    0.2933   -0.8713 C   0  0  1  0  0  0  0  0  0  0  0  0
    0.9764   -1.6831   -0.0400 C   0  0  0  0  0  0  0  0  0  0  0  0
    0.7052   -0.5570   -0.6982 C   0  0  0  0  0  0  0  0  0  0  0  0
    1.8224    1.6483   -0.1831 C   0  0  0  0  0  0  0  0  0  0  0  0
   -0.0548   -2.6639    0.3067 C   0  0  0  0  0  0  0  0  0  0  0  0
   -0.6474   -0.2359   -1.1573 C   0  0  0  0  0  0  0  0  0  0  0  0
    4.4924   -0.0359   -2.0798 C   0  0  0  0  0  0  0  0  0  0  0  0
   -1.4569   -2.3307   -0.1128 C   0  0  0  0  0  0  0  0  0  0  0  0
   -1.7411   -1.2018   -0.7982 C   0  0  0  0  0  0  0  0  0  0  0  0
   -2.4783   -3.3598    0.2938 C   0  0  0  0  0  0  0  0  0  0  0  0
    3.0824    3.6213    0.1736 C   0  0  0  0  0  0  0  0  0  0  0  0
   -3.9269   -0.0364   -0.5582 C   0  0  0  0  0  0  0  0  0  0  0  0
   -5.1555    0.2642   -1.1611 C   0  0  0  0  0  0  0  0  0  0  0  0
   -3.6601    0.4544    0.7270 C   0  0  0  0  0  0  0  0  0  0  0  0
   -6.1003    1.0413   -0.4910 C   0  0  0  0  0  0  0  0  0  0  0  0
   -4.6050    1.2315    1.3971 C   0  0  0  0  0  0  0  0  0  0  0  0
   -5.8251    1.5250    0.7881 C   0  0  0  0  0  0  0  0  0  0  0  0
    4.8963    0.2580    0.5545 H   0  0  0  0  0  0  0  0  0  0  0  0
    4.8333   -1.5936    2.3261 H   0  0  0  0  0  0  0  0  0  0  0  0
    2.4310    0.0894    2.1706 H   0  0  0  0  0  0  0  0  0  0  0  0
    3.4442   -3.2620    1.2370 H   0  0  0  0  0  0  0  0  0  0  0  0
    2.2115   -2.4892    2.2727 H   0  0  0  0  0  0  0  0  0  0  0  0
    2.0561    0.4651   -1.9469 H   0  0  0  0  0  0  0  0  0  0  0  0
    1.5979    1.5543    0.8840 H   0  0  0  0  0  0  0  0  0  0  0  0
    1.0009    2.2162   -0.6370 H   0  0  0  0  0  0  0  0  0  0  0  0
    4.7756    0.8109   -1.4523 H   0  0  0  0  0  0  0  0  0  0  0  0
    3.8680    0.3048   -2.9106 H   0  0  0  0  0  0  0  0  0  0  0  0
    5.4116   -0.4244   -2.5302 H   0  0  0  0  0  0  0  0  0  0  0  0
   -3.4879   -3.1079   -0.0446 H   0  0  0  0  0  0  0  0  0  0  0  0
   -2.5108   -3.4527    1.3845 H   0  0  0  0  0  0  0  0  0  0  0  0
   -2.2272   -4.3365   -0.1334 H   0  0  0  0  0  0  0  0  0  0  0  0
   -3.1044   -0.8541   -2.2376 H   0  0  0  0  0  0  0  0  0  0  0  0
    5.0075    3.7485   -0.6273 H   0  0  0  0  0  0  0  0  0  0  0  0
    4.5021    5.1522    0.2527 H   0  0  0  0  0  0  0  0  0  0  0  0
   -5.3846   -0.1064   -2.1574 H   0  0  0  0  0  0  0  0  0  0  0  0
   -2.7202    0.2470    1.2321 H   0  0  0  0  0  0  0  0  0  0  0  0
   -7.0472    1.2628   -0.9763 H   0  0  0  0  0  0  0  0  0  0  0  0
   -4.3850    1.6058    2.3932 H   0  0  0  0  0  0  0  0  0  0  0  0
   -7.5300    2.3862    0.8743 H   0  0  0  0  0  0  0  0  0  0  0  0
  1 12  1  0  0  0  0
  1 21  1  0  0  0  0
  2 18  1  0  0  0  0
  2 25  1  0  0  0  0
  3 19  2  0  0  0  0
  4 20  2  0  0  0  0
  5 25  2  0  0  0  0
  6 31  1  0  0  0  0
  6 53  1  0  0  0  0
  7 11  1  0  0  0  0
  7 13  1  0  0  0  0
  7 34  1  0  0  0  0
  8 12  1  0  0  0  0
  8 14  1  0  0  0  0
  8 16  1  0  0  0  0
  9 23  1  0  0  0  0
  9 26  1  0  0  0  0
  9 46  1  0  0  0  0
 10 25  1  0  0  0  0
 10 47  1  0  0  0  0
 10 48  1  0  0  0  0
 11 12  1  0  0  0  0
 11 13  1  0  0  0  0
 11 32  1  0  0  0  0
 12 15  1  0  0  0  0
 13 14  1  0  0  0  0
 13 33  1  0  0  0  0
 14 35  1  0  0  0  0
 14 36  1  0  0  0  0
 15 17  1  0  0  0  0
 15 18  1  0  0  0  0
 15 37  1  0  0  0  0
 16 17  2  0  0  0  0
 16 19  1  0  0  0  0
 17 20  1  0  0  0  0
 18 38  1  0  0  0  0
 18 39  1  0  0  0  0
 19 22  1  0  0  0  0
 20 23  1  0  0  0  0
 21 40  1  0  0  0  0
 21 41  1  0  0  0  0
 21 42  1  0  0  0  0
 22 23  2  0  0  0  0
 22 24  1  0  0  0  0
 24 43  1  0  0  0  0
 24 44  1  0  0  0  0
 24 45  1  0  0  0  0
 26 27  2  0  0  0  0
 26 28  1  0  0  0  0
 27 29  1  0  0  0  0
 27 49  1  0  0  0  0
 28 30  2  0  0  0  0
 28 50  1  0  0  0  0
 29 31  2  0  0  0  0
 29 51  1  0  0  0  0
 30 31  1  0  0  0  0
 30 52  1  0  0  0  0
M  END
> <PUBCHEM_COMPOUND_CID>
14136266

> <PUBCHEM_CONFORMER_RMSD>
0.8

> <PUBCHEM_CONFORMER_DIVERSEORDER>
1
23
25
30
6
4
20
29
19
14
22
10
24
17
28
13
7
9
26
2
11
27
8
21
3
5
18
15
32
16
31
12

> <PUBCHEM_MMFF94_PARTIAL_CHARGES>
42
1 -0.56
10 -0.8
11 -0.04
12 0.74
13 -0.04
14 0.46
15 0.14
16 0.11
17 -0.12
18 0.28
19 0.54
2 -0.43
20 0.54
21 0.28
22 -0.12
23 0.11
24 0.14
25 0.78
26 0.1
27 -0.15
28 -0.15
29 -0.15
3 -0.57
30 -0.15
31 0.08
32 0.1
33 0.1
34 0.36
4 -0.57
46 0.4
47 0.37
48 0.37
49 0.15
5 -0.57
50 0.15
51 0.15
52 0.15
53 0.45
6 -0.53
7 -0.68
8 -0.84
9 -0.6

> <PUBCHEM_EFFECTIVE_ROTOR_COUNT>
6.6

> <PUBCHEM_PHARMACOPHORE_FEATURES>
15
1 1 acceptor
1 10 donor
1 3 acceptor
1 4 acceptor
1 5 acceptor
1 6 donor
1 7 cation
1 7 donor
1 8 cation
1 9 cation
1 9 donor
5 8 12 15 16 17 rings
6 16 17 19 20 22 23 rings
6 26 27 28 29 30 31 rings
6 7 8 11 12 13 14 rings

> <PUBCHEM_HEAVY_ATOM_COUNT>
31

> <PUBCHEM_ATOM_DEF_STEREO_COUNT>
4

> <PUBCHEM_ATOM_UDEF_STEREO_COUNT>
0

> <PUBCHEM_BOND_DEF_STEREO_COUNT>
0

> <PUBCHEM_BOND_UDEF_STEREO_COUNT>
0

> <PUBCHEM_ISOTOPIC_ATOM_COUNT>
0

> <PUBCHEM_COMPONENT_COUNT>
1

> <PUBCHEM_CACTVS_TAUTO_COUNT>
84

> <PUBCHEM_CONFORMER_ID>
00D7B3CA00000001

> <PUBCHEM_MMFF94_ENERGY>
125.483

> <PUBCHEM_FEATURE_SELFOVERLAP>
76.365

> <PUBCHEM_SHAPE_FINGERPRINT>
10674148 151 18269006310701079566
1100329 8 18411135844235959522
11796584 16 13334735705091597803
12390115 104 17902235838533395108
12633257 1 18335690646256688094
13140716 1 18188481479731641871
13878862 14 18189876687590161373
13965767 371 18113891706204114980
14178342 30 17681270293522993518
14251764 38 18270112551930275425
14466204 15 18120642540311446409
14739800 52 17915444211076753248
14955137 171 18190175698760079034
15081414 286 18267581304069459879
15238133 3 18411418384665239746
15475509 8 18129396903605090742
15475509 84 18045213834806164252
17980427 23 18057296531851104178
20511986 3 17986092038978361117
20691752 17 16951673869787228734
20739085 24 18113340803607715421
21033648 144 18262789778777564837
22122407 14 18268445542612539841
23558518 356 17973164220812054903
23559900 14 18272657844029071030
25222932 49 13840559517720636049
34797466 226 14836112295974745769
3680242 22 18336259038123532395
474 4 18412822478357484539
5104073 3 18114455768511887627
5252454 2 18041282165913528294
5895379 119 17560532728303474184
633830 44 18343017813477500311

> <PUBCHEM_SHAPE_MULTIPOLES>
582.83
12.38
4.27
1.65
17.16
2.53
-0.1
8.46
-2.2
-3.49
-1.37
-0.76
-0.05
-1.42

> <PUBCHEM_SHAPE_SELFOVERLAP>
1286.735

> <PUBCHEM_SHAPE_VOLUME>
314.3

> <PUBCHEM_COORDINATE_TYPE>
2
5
10

$$$$
