14132955
  -OEChem-03292013303D

 34 36  0     1  0  0  0  0  0999 V2000
   -1.7319    0.1694    1.0613 O   0  0  0  0  0  0  0  0  0  0  0  0
   -3.6879    0.5132   -1.9295 O   0  0  0  0  0  0  0  0  0  0  0  0
   -3.3711   -2.0393    1.6731 O   0  0  0  0  0  0  0  0  0  0  0  0
    0.3343    1.0514    0.3062 N   0  0  0  0  0  0  0  0  0  0  0  0
    2.5355    1.4200    0.2041 N   0  0  0  0  0  0  0  0  0  0  0  0
    0.3005   -1.3441   -0.1006 N   0  0  0  0  0  0  0  0  0  0  0  0
    2.5537   -2.2257   -0.4194 N   0  0  0  0  0  0  0  0  0  0  0  0
    4.5012   -0.8383   -0.3274 N   0  0  0  0  0  0  0  0  0  0  0  0
   -1.0977    1.3127    0.4579 C   0  0  1  0  0  0  0  0  0  0  0  0
   -1.8146    1.5980   -0.8567 C   0  0  0  0  0  0  0  0  0  0  0  0
   -2.5302    0.2977   -1.1488 C   0  0  1  0  0  0  0  0  0  0  0  0
   -2.8598   -0.1949    0.2502 C   0  0  1  0  0  0  0  0  0  0  0  0
   -3.0837   -1.6942    0.3294 C   0  0  0  0  0  0  0  0  0  0  0  0
    0.9157   -0.1622    0.0554 C   0  0  0  0  0  0  0  0  0  0  0  0
    1.3524    1.9689    0.3858 C   0  0  0  0  0  0  0  0  0  0  0  0
    2.2773    0.0883   -0.0035 C   0  0  0  0  0  0  0  0  0  0  0  0
    1.0943    3.3997    0.6486 C   0  0  0  0  0  0  0  0  0  0  0  0
    3.1072   -1.0005   -0.2512 C   0  0  0  0  0  0  0  0  0  0  0  0
    1.2047   -2.3199   -0.3350 C   0  0  0  0  0  0  0  0  0  0  0  0
   -1.2034    2.1501    1.1550 H   0  0  0  0  0  0  0  0  0  0  0  0
   -1.1532    1.9098   -1.6717 H   0  0  0  0  0  0  0  0  0  0  0  0
   -2.5447    2.4055   -0.7175 H   0  0  0  0  0  0  0  0  0  0  0  0
   -1.8604   -0.3886   -1.6791 H   0  0  0  0  0  0  0  0  0  0  0  0
   -3.7364    0.3247    0.6587 H   0  0  0  0  0  0  0  0  0  0  0  0
   -2.1946   -2.2524    0.0249 H   0  0  0  0  0  0  0  0  0  0  0  0
   -3.9275   -1.9982   -0.2976 H   0  0  0  0  0  0  0  0  0  0  0  0
   -4.1396   -0.3421   -2.0275 H   0  0  0  0  0  0  0  0  0  0  0  0
    0.7060    3.5465    1.6612 H   0  0  0  0  0  0  0  0  0  0  0  0
    2.0207    3.9765    0.5610 H   0  0  0  0  0  0  0  0  0  0  0  0
    0.3785    3.8124   -0.0690 H   0  0  0  0  0  0  0  0  0  0  0  0
   -3.5150   -3.0007    1.6979 H   0  0  0  0  0  0  0  0  0  0  0  0
    0.7958   -3.3149   -0.4746 H   0  0  0  0  0  0  0  0  0  0  0  0
    4.9168    0.0749   -0.2027 H   0  0  0  0  0  0  0  0  0  0  0  0
    5.0829   -1.6450   -0.5088 H   0  0  0  0  0  0  0  0  0  0  0  0
  1  9  1  0  0  0  0
  1 12  1  0  0  0  0
  2 11  1  0  0  0  0
  2 27  1  0  0  0  0
  3 13  1  0  0  0  0
  3 31  1  0  0  0  0
  4  9  1  0  0  0  0
  4 14  1  0  0  0  0
  4 15  1  0  0  0  0
  5 15  2  0  0  0  0
  5 16  1  0  0  0  0
  6 14  2  0  0  0  0
  6 19  1  0  0  0  0
  7 18  1  0  0  0  0
  7 19  2  0  0  0  0
  8 18  1  0  0  0  0
  8 33  1  0  0  0  0
  8 34  1  0  0  0  0
  9 10  1  0  0  0  0
  9 20  1  0  0  0  0
 10 11  1  0  0  0  0
 10 21  1  0  0  0  0
 10 22  1  0  0  0  0
 11 12  1  0  0  0  0
 11 23  1  0  0  0  0
 12 13  1  0  0  0  0
 12 24  1  0  0  0  0
 13 25  1  0  0  0  0
 13 26  1  0  0  0  0
 14 16  1  0  0  0  0
 15 17  1  0  0  0  0
 16 18  2  0  0  0  0
 17 28  1  0  0  0  0
 17 29  1  0  0  0  0
 17 30  1  0  0  0  0
 19 32  1  0  0  0  0
M  END
> <PUBCHEM_COMPOUND_CID>
14132955

> <PUBCHEM_CONFORMER_RMSD>
0.6

> <PUBCHEM_CONFORMER_DIVERSEORDER>
2
10
5
8
11
12
4
6
1
9
7
3

> <PUBCHEM_MMFF94_PARTIAL_CHARGES>
23
1 -0.56
11 0.28
12 0.28
13 0.28
14 0.11
15 0.01
16 0.23
17 0.18
18 0.41
19 0.47
2 -0.68
27 0.4
3 -0.68
31 0.4
32 0.15
33 0.4
34 0.4
4 0.05
5 -0.57
6 -0.57
7 -0.62
8 -0.9
9 0.54

> <PUBCHEM_EFFECTIVE_ROTOR_COUNT>
3

> <PUBCHEM_PHARMACOPHORE_FEATURES>
13
1 1 acceptor
1 2 acceptor
1 2 donor
1 3 acceptor
1 3 donor
1 8 cation
1 8 donor
3 4 5 15 cation
3 4 6 14 cation
3 6 7 19 cation
5 1 9 10 11 12 rings
5 4 5 14 15 16 rings
6 6 7 14 16 18 19 rings

> <PUBCHEM_HEAVY_ATOM_COUNT>
19

> <PUBCHEM_ATOM_DEF_STEREO_COUNT>
3

> <PUBCHEM_ATOM_UDEF_STEREO_COUNT>
0

> <PUBCHEM_BOND_DEF_STEREO_COUNT>
0

> <PUBCHEM_BOND_UDEF_STEREO_COUNT>
0

> <PUBCHEM_ISOTOPIC_ATOM_COUNT>
0

> <PUBCHEM_COMPONENT_COUNT>
1

> <PUBCHEM_CACTVS_TAUTO_COUNT>
3

> <PUBCHEM_CONFORMER_ID>
00D7A6DB00000002

> <PUBCHEM_MMFF94_ENERGY>
42.0017

> <PUBCHEM_FEATURE_SELFOVERLAP>
66.579

> <PUBCHEM_SHAPE_FINGERPRINT>
10967382 1 18196937892685811768
11578080 2 13267692085396882389
11582403 64 16604555892872774829
12553582 1 18196938777290877674
12596599 1 17489035975579845191
13140716 1 17620753221017624464
13583140 156 16739127328224419264
15219456 202 18335698386125287617
16945 1 18270959158377025216
19591789 44 17691132955974315916
200 152 17989194933035957021
20201158 50 18337667521050657943
20645477 70 18266729363399902559
21634736 98 17987219209372532710
22112679 90 16558751251955376705
221490 88 18337396036247063986
22182313 1 18263353866507285941
22802520 49 18334569153413734517
23402539 116 18269835307955527614
23557571 272 17677324056471229469
23559900 14 18193834830966398218
238 59 18125410220250000037
2748010 2 18264479770830337197
2838139 119 16154292610218129366
31174 14 18267314303306259297
34934 24 18053945056736999824
458136 41 17834973235704241905
5493415 88 18410012130636243090
6049 1 18187927334851281621
7364860 26 18270400623934950888
77492 1 17060060393005855481
81228 2 17694218872612149664
8809292 202 18261116261687075739
9709674 26 18336816585387740935

> <PUBCHEM_SHAPE_MULTIPOLES>
348.5
6.13
2.96
1.11
0.12
0.99
0.13
-2.75
0.78
-1.11
-0.55
1.33
-0.04
1.36

> <PUBCHEM_SHAPE_SELFOVERLAP>
755.497

> <PUBCHEM_SHAPE_VOLUME>
188.7

> <PUBCHEM_COORDINATE_TYPE>
2
5
10

$$$$
