14134976
  -OEChem-03292013303D

 61 65  0     1  0  0  0  0  0999 V2000
   -1.9526    1.5784    0.5210 O   0  0  0  0  0  0  0  0  0  0  0  0
    5.9198   -1.8105   -0.9543 O   0  0  0  0  0  0  0  0  0  0  0  0
    6.8878    0.6564    0.1770 O   0  0  0  0  0  0  0  0  0  0  0  0
    3.3980   -1.3330    2.1388 O   0  0  0  0  0  0  0  0  0  0  0  0
   -6.3591   -0.8643    0.7059 O   0  0  0  0  0  0  0  0  0  0  0  0
   -6.9576    1.3495    0.8987 O   0  0  0  0  0  0  0  0  0  0  0  0
   -1.1947    0.6461   -0.2646 C   0  0  1  0  0  0  0  0  0  0  0  0
    0.2807    0.7819    0.1993 C   0  0  1  0  0  0  0  0  0  0  0  0
   -1.7745   -0.7870   -0.1076 C   0  0  1  0  0  0  0  0  0  0  0  0
    1.2230   -0.3095   -0.3787 C   0  0  1  0  0  0  0  0  0  0  0  0
    2.6910   -0.1521    0.1481 C   0  0  2  0  0  0  0  0  0  0  0  0
   -3.0511   -0.7732   -1.0146 C   0  0  2  0  0  0  0  0  0  0  0  0
   -0.7861   -1.8340   -0.6925 C   0  0  0  0  0  0  0  0  0  0  0  0
    0.6340   -1.7126   -0.1476 C   0  0  0  0  0  0  0  0  0  0  0  0
    3.1896    1.2887   -0.1521 C   0  0  1  0  0  0  0  0  0  0  0  0
   -1.4351    0.9575   -1.7505 C   0  0  0  0  0  0  0  0  0  0  0  0
    0.8354    2.1922   -0.0892 C   0  0  0  0  0  0  0  0  0  0  0  0
   -2.7656    0.2825   -2.1031 C   0  0  0  0  0  0  0  0  0  0  0  0
    2.2645    2.3717    0.4124 C   0  0  0  0  0  0  0  0  0  0  0  0
    3.6559   -1.1540   -0.5323 C   0  0  0  0  0  0  0  0  0  0  0  0
   -2.0785   -1.1568    1.3578 C   0  0  0  0  0  0  0  0  0  0  0  0
    4.6400    1.5075    0.2942 C   0  0  0  0  0  0  0  0  0  0  0  0
    5.1255   -0.9368   -0.1507 C   0  0  2  0  0  0  0  0  0  0  0  0
    5.5797    0.5045   -0.3721 C   0  0  2  0  0  0  0  0  0  0  0  0
   -4.3638   -0.4805   -0.3489 C   0  0  0  0  0  0  0  0  0  0  0  0
    2.7150   -0.4469    1.6361 C   0  0  0  0  0  0  0  0  0  0  0  0
   -5.2342   -1.5604    0.1590 C   0  0  0  0  0  0  0  0  0  0  0  0
   -4.9047    0.7154   -0.1319 C   0  0  0  0  0  0  0  0  0  0  0  0
   -6.1821    0.4792    0.5425 C   0  0  0  0  0  0  0  0  0  0  0  0
    0.2681    0.6780    1.2918 H   0  0  0  0  0  0  0  0  0  0  0  0
    1.2684   -0.1642   -1.4677 H   0  0  0  0  0  0  0  0  0  0  0  0
   -3.1677   -1.7455   -1.5135 H   0  0  0  0  0  0  0  0  0  0  0  0
   -0.7383   -1.7506   -1.7861 H   0  0  0  0  0  0  0  0  0  0  0  0
   -1.1587   -2.8472   -0.4926 H   0  0  0  0  0  0  0  0  0  0  0  0
    3.1788    1.4149   -1.2461 H   0  0  0  0  0  0  0  0  0  0  0  0
    0.6426   -1.9670    0.9176 H   0  0  0  0  0  0  0  0  0  0  0  0
    1.2467   -2.4677   -0.6517 H   0  0  0  0  0  0  0  0  0  0  0  0
   -0.6460    0.5536   -2.3926 H   0  0  0  0  0  0  0  0  0  0  0  0
   -1.5031    2.0344   -1.9401 H   0  0  0  0  0  0  0  0  0  0  0  0
    0.2030    2.9549    0.3798 H   0  0  0  0  0  0  0  0  0  0  0  0
    0.8182    2.3885   -1.1682 H   0  0  0  0  0  0  0  0  0  0  0  0
   -3.5487    1.0308   -2.2557 H   0  0  0  0  0  0  0  0  0  0  0  0
   -2.6569   -0.2163   -3.0751 H   0  0  0  0  0  0  0  0  0  0  0  0
    2.6243    3.3624    0.1086 H   0  0  0  0  0  0  0  0  0  0  0  0
    2.2778    2.3616    1.5084 H   0  0  0  0  0  0  0  0  0  0  0  0
    3.5570   -1.0758   -1.6241 H   0  0  0  0  0  0  0  0  0  0  0  0
    3.3964   -2.1938   -0.2968 H   0  0  0  0  0  0  0  0  0  0  0  0
   -2.8191   -0.4968    1.8195 H   0  0  0  0  0  0  0  0  0  0  0  0
   -2.4557   -2.1826    1.4318 H   0  0  0  0  0  0  0  0  0  0  0  0
   -1.1810   -1.0986    1.9817 H   0  0  0  0  0  0  0  0  0  0  0  0
    4.9684    2.5235    0.0399 H   0  0  0  0  0  0  0  0  0  0  0  0
    4.7257    1.4413    1.3865 H   0  0  0  0  0  0  0  0  0  0  0  0
    5.3255   -1.2364    0.8814 H   0  0  0  0  0  0  0  0  0  0  0  0
   -1.7541    1.4284    1.4602 H   0  0  0  0  0  0  0  0  0  0  0  0
    5.6609    0.7143   -1.4450 H   0  0  0  0  0  0  0  0  0  0  0  0
    2.0964    0.1917    2.2852 H   0  0  0  0  0  0  0  0  0  0  0  0
   -5.5822   -2.2211   -0.6404 H   0  0  0  0  0  0  0  0  0  0  0  0
   -4.7692   -2.1522    0.9506 H   0  0  0  0  0  0  0  0  0  0  0  0
   -4.5275    1.6951   -0.3677 H   0  0  0  0  0  0  0  0  0  0  0  0
    6.8516   -1.6479   -0.7277 H   0  0  0  0  0  0  0  0  0  0  0  0
    6.8351    0.4880    1.1333 H   0  0  0  0  0  0  0  0  0  0  0  0
  1  7  1  0  0  0  0
  1 54  1  0  0  0  0
  2 23  1  0  0  0  0
  2 60  1  0  0  0  0
  3 24  1  0  0  0  0
  3 61  1  0  0  0  0
  4 26  2  0  0  0  0
  5 27  1  0  0  0  0
  5 29  1  0  0  0  0
  6 29  2  0  0  0  0
  7  8  1  0  0  0  0
  7  9  1  0  0  0  0
  7 16  1  0  0  0  0
  8 10  1  0  0  0  0
  8 17  1  0  0  0  0
  8 30  1  0  0  0  0
  9 12  1  0  0  0  0
  9 13  1  0  0  0  0
  9 21  1  0  0  0  0
 10 11  1  0  0  0  0
 10 14  1  0  0  0  0
 10 31  1  0  0  0  0
 11 15  1  0  0  0  0
 11 20  1  0  0  0  0
 11 26  1  0  0  0  0
 12 18  1  0  0  0  0
 12 25  1  0  0  0  0
 12 32  1  0  0  0  0
 13 14  1  0  0  0  0
 13 33  1  0  0  0  0
 13 34  1  0  0  0  0
 14 36  1  0  0  0  0
 14 37  1  0  0  0  0
 15 19  1  0  0  0  0
 15 22  1  0  0  0  0
 15 35  1  0  0  0  0
 16 18  1  0  0  0  0
 16 38  1  0  0  0  0
 16 39  1  0  0  0  0
 17 19  1  0  0  0  0
 17 40  1  0  0  0  0
 17 41  1  0  0  0  0
 18 42  1  0  0  0  0
 18 43  1  0  0  0  0
 19 44  1  0  0  0  0
 19 45  1  0  0  0  0
 20 23  1  0  0  0  0
 20 46  1  0  0  0  0
 20 47  1  0  0  0  0
 21 48  1  0  0  0  0
 21 49  1  0  0  0  0
 21 50  1  0  0  0  0
 22 24  1  0  0  0  0
 22 51  1  0  0  0  0
 22 52  1  0  0  0  0
 23 24  1  0  0  0  0
 23 53  1  0  0  0  0
 24 55  1  0  0  0  0
 25 27  1  0  0  0  0
 25 28  2  0  0  0  0
 26 56  1  0  0  0  0
 27 57  1  0  0  0  0
 27 58  1  0  0  0  0
 28 29  1  0  0  0  0
 28 59  1  0  0  0  0
M  END
> <PUBCHEM_COMPOUND_CID>
14134976

> <PUBCHEM_CONFORMER_RMSD>
0.8

> <PUBCHEM_CONFORMER_DIVERSEORDER>
3
1
2
4

> <PUBCHEM_MMFF94_PARTIAL_CHARGES>
21
1 -0.68
11 0.06
12 0.14
2 -0.68
23 0.28
24 0.28
25 -0.28
26 0.45
27 0.42
28 -0.14
29 0.71
3 -0.68
4 -0.57
5 -0.43
54 0.4
56 0.06
59 0.15
6 -0.57
60 0.4
61 0.4
7 0.28

> <PUBCHEM_EFFECTIVE_ROTOR_COUNT>
4.6

> <PUBCHEM_PHARMACOPHORE_FEATURES>
13
1 1 acceptor
1 1 donor
1 2 acceptor
1 2 donor
1 3 acceptor
1 3 donor
1 4 acceptor
1 6 acceptor
5 5 25 27 28 29 rings
5 7 9 12 16 18 rings
6 11 15 20 22 23 24 rings
6 7 8 9 10 13 14 rings
6 8 10 11 15 17 19 rings

> <PUBCHEM_HEAVY_ATOM_COUNT>
29

> <PUBCHEM_ATOM_DEF_STEREO_COUNT>
9

> <PUBCHEM_ATOM_UDEF_STEREO_COUNT>
0

> <PUBCHEM_BOND_DEF_STEREO_COUNT>
0

> <PUBCHEM_BOND_UDEF_STEREO_COUNT>
0

> <PUBCHEM_ISOTOPIC_ATOM_COUNT>
0

> <PUBCHEM_COMPONENT_COUNT>
1

> <PUBCHEM_CACTVS_TAUTO_COUNT>
1

> <PUBCHEM_CONFORMER_ID>
00D7AEC000000003

> <PUBCHEM_MMFF94_ENERGY>
95.2427

> <PUBCHEM_FEATURE_SELFOVERLAP>
66.164

> <PUBCHEM_SHAPE_FINGERPRINT>
10366900 7 17385723603548463129
10674148 151 18201726137566575080
10906281 52 18339942470658772007
11045977 3 18260831531657768163
11089746 13 15123503701435266331
11578080 2 14997714190046203012
12166972 35 17846217795160846897
12236239 1 17632858641959359327
12403259 415 18113609080292200749
12516196 113 18343301483240572904
12553582 1 18339626893852877060
12788726 201 18343018852791501425
13140716 1 18266450091314426251
13402501 40 18334577957822352206
13533116 47 15984830285423009206
13583140 156 17387105681465169487
13782708 43 17967527986658384323
14251764 18 18410014360367782755
14341114 176 18411141346453192277
14617045 38 17748826319342292778
14790565 3 18413112774954726893
14849402 71 18268997651277357729
14955137 171 18413112770506519061
15142383 8 17346598543431825320
15183329 4 18343577447589529261
15196674 1 18341049704759149959
15461852 350 16559026104767815429
15537594 2 17676482856729350971
15840311 113 18411423921511684861
15849732 13 17846782914093818893
1601671 61 18342175570343119005
17349148 13 17988639722413285903
1813 80 16660640795805106277
18608769 82 17531532078180784962
19319366 153 17312813888611621178
20832881 197 18131351907813828176
21033648 29 18115006589435752789
21130935 74 18272932747463426506
21267235 1 18412549791189745374
21279426 13 18338798901246041413
21521721 280 17968099780772329176
21792934 111 18271515404398096896
21859007 373 14979676520591327027
23522609 53 18115896073152922725
23559900 14 18272366511780318040
23622692 88 14979956969213089344
24771293 8 17915441995817860976
2838139 119 17489586741407555137
3004659 81 18334860507189408678
335352 9 18342459252722010637
34797466 226 16515696532943811782
350125 39 18412546509017482269
3545911 37 17603581937467733546
4073 2 18115311218543947146
4093350 32 17060063696500656292
4325135 7 8142087550768002161
4340502 62 16805602573289988274
46194498 28 17821728373218945148
5104073 3 18337949090970187507
542803 24 18411976974884009775
59755656 215 18336271158722325174
7226269 152 16774082869282651771

> <PUBCHEM_SHAPE_MULTIPOLES>
561.59
15.1
2.02
1.33
4.19
0.31
0.03
-0.2
-2.02
-0.84
-0.1
0.31
-0.19
0.12

> <PUBCHEM_SHAPE_SELFOVERLAP>
1222.364

> <PUBCHEM_SHAPE_VOLUME>
303

> <PUBCHEM_COORDINATE_TYPE>
2
5
10

$$$$
