14132346
  -OEChem-03292013303D

 45 46  0     1  0  0  0  0  0999 V2000
    2.4289    0.8553   -0.1373 O   0  0  0  0  0  0  0  0  0  0  0  0
    6.0054    0.0926   -0.3400 O   0  0  0  0  0  0  0  0  0  0  0  0
    4.7470   -2.4609   -0.8415 O   0  0  0  0  0  0  0  0  0  0  0  0
    0.5551   -0.4595    0.3143 O   0  0  0  0  0  0  0  0  0  0  0  0
    2.2445   -2.6974    0.6956 O   0  0  0  0  0  0  0  0  0  0  0  0
    3.4137    3.4146    0.0528 O   0  0  0  0  0  0  0  0  0  0  0  0
    0.1980    1.5737    1.3330 O   0  0  0  0  0  0  0  0  0  0  0  0
   -3.8926   -2.5314    0.1953 O   0  0  0  0  0  0  0  0  0  0  0  0
   -4.6887    2.1795   -0.1406 O   0  0  0  0  0  0  0  0  0  0  0  0
   -5.6379   -0.4217   -0.2210 O   0  0  0  0  0  0  0  0  0  0  0  0
    4.6152   -0.0834   -0.6003 C   0  0  1  0  0  0  0  0  0  0  0  0
    4.1630   -1.4322   -0.0408 C   0  0  1  0  0  0  0  0  0  0  0  0
    3.8309    1.0623    0.0436 C   0  0  1  0  0  0  0  0  0  0  0  0
    2.6401   -1.5631   -0.0753 C   0  0  2  0  0  0  0  0  0  0  0  0
    1.9622   -0.3251    0.5116 C   0  0  1  0  0  0  0  0  0  0  0  0
    4.1816    2.4086   -0.5821 C   0  0  0  0  0  0  0  0  0  0  0  0
   -0.2085    0.5662    0.7751 C   0  0  0  0  0  0  0  0  0  0  0  0
   -1.6462    0.3054    0.5111 C   0  0  0  0  0  0  0  0  0  0  0  0
   -2.4927    1.3759    0.3071 C   0  0  0  0  0  0  0  0  0  0  0  0
   -2.0915   -1.0004    0.4784 C   0  0  0  0  0  0  0  0  0  0  0  0
   -3.4420   -1.2461    0.2310 C   0  0  0  0  0  0  0  0  0  0  0  0
   -3.8433    1.1301    0.0601 C   0  0  0  0  0  0  0  0  0  0  0  0
   -4.3180   -0.1810    0.0221 C   0  0  0  0  0  0  0  0  0  0  0  0
   -3.8687   -3.1915   -1.0687 C   0  0  0  0  0  0  0  0  0  0  0  0
   -4.8555    2.6296   -1.4836 C   0  0  0  0  0  0  0  0  0  0  0  0
    4.4822   -0.0775   -1.6892 H   0  0  0  0  0  0  0  0  0  0  0  0
    4.5400   -1.5816    0.9785 H   0  0  0  0  0  0  0  0  0  0  0  0
    4.0371    1.1249    1.1208 H   0  0  0  0  0  0  0  0  0  0  0  0
    2.2972   -1.7421   -1.1013 H   0  0  0  0  0  0  0  0  0  0  0  0
    2.1478   -0.2596    1.5927 H   0  0  0  0  0  0  0  0  0  0  0  0
    3.9409    2.4290   -1.6503 H   0  0  0  0  0  0  0  0  0  0  0  0
    5.2404    2.6512   -0.4544 H   0  0  0  0  0  0  0  0  0  0  0  0
    6.1323    0.0960    0.6242 H   0  0  0  0  0  0  0  0  0  0  0  0
    5.7117   -2.3421   -0.8097 H   0  0  0  0  0  0  0  0  0  0  0  0
    2.5410   -2.5582    1.6112 H   0  0  0  0  0  0  0  0  0  0  0  0
    2.4756    3.1861   -0.0632 H   0  0  0  0  0  0  0  0  0  0  0  0
   -2.1273    2.3988    0.3336 H   0  0  0  0  0  0  0  0  0  0  0  0
   -1.4273   -1.8422    0.6531 H   0  0  0  0  0  0  0  0  0  0  0  0
   -6.0998    0.4306   -0.2987 H   0  0  0  0  0  0  0  0  0  0  0  0
   -4.2667   -4.2012   -0.9356 H   0  0  0  0  0  0  0  0  0  0  0  0
   -2.8426   -3.2661   -1.4426 H   0  0  0  0  0  0  0  0  0  0  0  0
   -4.4949   -2.6611   -1.7929 H   0  0  0  0  0  0  0  0  0  0  0  0
   -5.2265    1.8215   -2.1219 H   0  0  0  0  0  0  0  0  0  0  0  0
   -3.9090    3.0136   -1.8771 H   0  0  0  0  0  0  0  0  0  0  0  0
   -5.5891    3.4405   -1.4844 H   0  0  0  0  0  0  0  0  0  0  0  0
  1 13  1  0  0  0  0
  1 15  1  0  0  0  0
  2 11  1  0  0  0  0
  2 33  1  0  0  0  0
  3 12  1  0  0  0  0
  3 34  1  0  0  0  0
  4 15  1  0  0  0  0
  4 17  1  0  0  0  0
  5 14  1  0  0  0  0
  5 35  1  0  0  0  0
  6 16  1  0  0  0  0
  6 36  1  0  0  0  0
  7 17  2  0  0  0  0
  8 21  1  0  0  0  0
  8 24  1  0  0  0  0
  9 22  1  0  0  0  0
  9 25  1  0  0  0  0
 10 23  1  0  0  0  0
 10 39  1  0  0  0  0
 11 12  1  0  0  0  0
 11 13  1  0  0  0  0
 11 26  1  0  0  0  0
 12 14  1  0  0  0  0
 12 27  1  0  0  0  0
 13 16  1  0  0  0  0
 13 28  1  0  0  0  0
 14 15  1  0  0  0  0
 14 29  1  0  0  0  0
 15 30  1  0  0  0  0
 16 31  1  0  0  0  0
 16 32  1  0  0  0  0
 17 18  1  0  0  0  0
 18 19  2  0  0  0  0
 18 20  1  0  0  0  0
 19 22  1  0  0  0  0
 19 37  1  0  0  0  0
 20 21  2  0  0  0  0
 20 38  1  0  0  0  0
 21 23  1  0  0  0  0
 22 23  2  0  0  0  0
 24 40  1  0  0  0  0
 24 41  1  0  0  0  0
 24 42  1  0  0  0  0
 25 43  1  0  0  0  0
 25 44  1  0  0  0  0
 25 45  1  0  0  0  0
M  END
> <PUBCHEM_COMPOUND_CID>
14132346

> <PUBCHEM_CONFORMER_RMSD>
0.8

> <PUBCHEM_CONFORMER_DIVERSEORDER>
1
114
18
61
132
84
85
43
92
23
55
17
93
116
57
4
107
79
122
34
70
28
67
127
66
101
117
29
120
83
75
15
11
89
40
27
109
141
71
128
80
65
19
35
13
81
8
42
100
137
104
36
105
5
53
25
138
94
20
41
14
125
30
64
78
48
74
98
46
16
77
87
63
26
134
124
126
38
58
103
3
69
9
91
49
96
118
76
68
139
52
108
32
129
97
51
39
45
111
60
121
59
50
2
119
88
62
110
90
21
37
22
112
56
130
106
140
6
136
95
72
33
82
44
131
135
115
73
123
47
31
133
99
7
113
12
86
54
10
102
24

> <PUBCHEM_MMFF94_PARTIAL_CHARGES>
32
1 -0.56
10 -0.53
11 0.28
12 0.28
13 0.28
14 0.28
15 0.56
16 0.28
17 0.63
18 0.09
19 -0.15
2 -0.68
20 -0.15
21 0.08
22 0.08
23 0.08
24 0.28
25 0.28
3 -0.68
33 0.4
34 0.4
35 0.4
36 0.4
37 0.15
38 0.15
39 0.45
4 -0.43
5 -0.68
6 -0.68
7 -0.57
8 -0.36
9 -0.36

> <PUBCHEM_EFFECTIVE_ROTOR_COUNT>
7.2

> <PUBCHEM_PHARMACOPHORE_FEATURES>
15
1 1 acceptor
1 10 donor
1 2 acceptor
1 2 donor
1 3 acceptor
1 3 donor
1 5 acceptor
1 5 donor
1 6 acceptor
1 6 donor
1 7 acceptor
1 8 acceptor
1 9 acceptor
6 1 11 12 13 14 15 rings
6 18 19 20 21 22 23 rings

> <PUBCHEM_HEAVY_ATOM_COUNT>
25

> <PUBCHEM_ATOM_DEF_STEREO_COUNT>
5

> <PUBCHEM_ATOM_UDEF_STEREO_COUNT>
0

> <PUBCHEM_BOND_DEF_STEREO_COUNT>
0

> <PUBCHEM_BOND_UDEF_STEREO_COUNT>
0

> <PUBCHEM_ISOTOPIC_ATOM_COUNT>
0

> <PUBCHEM_COMPONENT_COUNT>
1

> <PUBCHEM_CACTVS_TAUTO_COUNT>
3

> <PUBCHEM_CONFORMER_ID>
00D7A47A00000001

> <PUBCHEM_MMFF94_ENERGY>
90.9859

> <PUBCHEM_FEATURE_SELFOVERLAP>
76.147

> <PUBCHEM_SHAPE_FINGERPRINT>
10595046 47 18337955700334011708
10616163 171 18342177773767538367
10835480 77 18342731906100379696
11405975 8 18409167679714878440
12107183 9 17833551189164452451
12596602 18 11959433574998286415
12788726 201 17416973829150896913
13167823 11 18411138043227936587
13944108 23 16819375867752776685
14117953 113 17834385722891175974
14528608 73 18336550520611425836
14790565 3 18052825741638144649
15196674 1 18411703179472627514
15250474 111 18338785780116592899
15961568 22 17532092868299127916
17492 89 18412831304325964990
17844677 252 18410301319311238489
17959699 21 18260269641923244696
18681886 176 18343018913680256690
200 152 18202002101314203144
20511986 3 18262223435626217586
20645477 56 18114181900486831525
20645477 70 18271530814529784030
21065198 57 18411139108368880269
21315763 129 18335137613746854000
21618674 54 18409728490874728353
21709351 56 18410011052857999276
221490 88 18339087089499417058
22289505 5 18335985268914587396
22393880 68 18411138043491381934
23522609 53 17844273876553480777
23559900 14 18342452604429225360
249057 3 18265615390105466678
3004659 81 18337391539659080178
3545911 37 18409451375337484289
4073 2 18041006180248224970
4214541 1 18410294692292563433
4280585 95 17623584051369933318
5104073 3 18409169913134744224
5281201 14 18408890624549834308
5283173 99 18335699399621908209
543358 83 18336549296492875650
559249 180 18264203608802356227
633830 44 17240490208005367184
67856867 119 18409725192941387920
77779 3 18410295817299597482
9709674 26 18336272331010779946

> <PUBCHEM_SHAPE_MULTIPOLES>
455.8
13.5
3.43
0.93
1.7
0.11
0.11
-0.81
3.82
-0.68
0.86
-0.39
-0.11
0.33

> <PUBCHEM_SHAPE_SELFOVERLAP>
957.227

> <PUBCHEM_SHAPE_VOLUME>
255.3

> <PUBCHEM_COORDINATE_TYPE>
2
5
10

$$$$
