14158940
  -OEChem-03292013303D

 32 34  0     1  0  0  0  0  0999 V2000
   -2.1321    0.1024    0.8836 O   0  0  0  0  0  0  0  0  0  0  0  0
   -2.3484   -1.8737   -1.4063 O   0  0  0  0  0  0  0  0  0  0  0  0
   -4.7114    0.9518    1.6306 O   0  0  0  0  0  0  0  0  0  0  0  0
    0.1233   -0.1161    0.1664 N   0  0  0  0  0  0  0  0  0  0  0  0
    1.6350    1.6768   -0.3989 N   0  0  0  0  0  0  0  0  0  0  0  0
    3.9792    1.0460   -0.2142 N   0  0  0  0  0  0  0  0  0  0  0  0
    4.6727   -1.1366    0.4606 N   0  0  0  0  0  0  0  0  0  0  0  0
   -1.1465    0.5840   -0.0446 C   0  0  1  0  0  0  0  0  0  0  0  0
   -1.7101    0.4250   -1.4542 C   0  0  0  0  0  0  0  0  0  0  0  0
   -2.8532   -0.5484   -1.2749 C   0  0  2  0  0  0  0  0  0  0  0  0
   -3.3057   -0.3056    0.1569 C   0  0  2  0  0  0  0  0  0  0  0  0
   -4.3430    0.8048    0.2690 C   0  0  0  0  0  0  0  0  0  0  0  0
    1.3775    0.4172   -0.0058 C   0  0  0  0  0  0  0  0  0  0  0  0
    0.2452   -1.4246    0.5729 C   0  0  0  0  0  0  0  0  0  0  0  0
    2.3125   -0.5655    0.2954 C   0  0  0  0  0  0  0  0  0  0  0  0
    1.5871   -1.7284    0.6604 C   0  0  0  0  0  0  0  0  0  0  0  0
    3.6549   -0.2081    0.1776 C   0  0  0  0  0  0  0  0  0  0  0  0
    2.9630    1.8990   -0.4746 C   0  0  0  0  0  0  0  0  0  0  0  0
   -0.9632    1.6395    0.1864 H   0  0  0  0  0  0  0  0  0  0  0  0
   -0.9629    0.0985   -2.1846 H   0  0  0  0  0  0  0  0  0  0  0  0
   -2.1073    1.3923   -1.7846 H   0  0  0  0  0  0  0  0  0  0  0  0
   -3.6447   -0.4184   -2.0188 H   0  0  0  0  0  0  0  0  0  0  0  0
   -3.6778   -1.2162    0.6392 H   0  0  0  0  0  0  0  0  0  0  0  0
   -5.2390    0.5609   -0.3101 H   0  0  0  0  0  0  0  0  0  0  0  0
   -3.9433    1.7657   -0.0708 H   0  0  0  0  0  0  0  0  0  0  0  0
   -0.6238   -2.0374    0.7696 H   0  0  0  0  0  0  0  0  0  0  0  0
   -3.0860   -2.4841   -1.2363 H   0  0  0  0  0  0  0  0  0  0  0  0
    1.9919   -2.6863    0.9566 H   0  0  0  0  0  0  0  0  0  0  0  0
   -5.3756    1.6608    1.6726 H   0  0  0  0  0  0  0  0  0  0  0  0
    3.2562    2.8957   -0.7862 H   0  0  0  0  0  0  0  0  0  0  0  0
    4.4457   -2.0770    0.7536 H   0  0  0  0  0  0  0  0  0  0  0  0
    5.6380   -0.8512    0.3663 H   0  0  0  0  0  0  0  0  0  0  0  0
  1  8  1  0  0  0  0
  1 11  1  0  0  0  0
  2 10  1  0  0  0  0
  2 27  1  0  0  0  0
  3 12  1  0  0  0  0
  3 29  1  0  0  0  0
  4  8  1  0  0  0  0
  4 13  1  0  0  0  0
  4 14  1  0  0  0  0
  5 13  2  0  0  0  0
  5 18  1  0  0  0  0
  6 17  1  0  0  0  0
  6 18  2  0  0  0  0
  7 17  1  0  0  0  0
  7 31  1  0  0  0  0
  7 32  1  0  0  0  0
  8  9  1  0  0  0  0
  8 19  1  0  0  0  0
  9 10  1  0  0  0  0
  9 20  1  0  0  0  0
  9 21  1  0  0  0  0
 10 11  1  0  0  0  0
 10 22  1  0  0  0  0
 11 12  1  0  0  0  0
 11 23  1  0  0  0  0
 12 24  1  0  0  0  0
 12 25  1  0  0  0  0
 13 15  1  0  0  0  0
 14 16  2  0  0  0  0
 14 26  1  0  0  0  0
 15 16  1  0  0  0  0
 15 17  2  0  0  0  0
 16 28  1  0  0  0  0
 18 30  1  0  0  0  0
M  END
> <PUBCHEM_COMPOUND_CID>
14158940

> <PUBCHEM_CONFORMER_RMSD>
0.6

> <PUBCHEM_CONFORMER_DIVERSEORDER>
5
57
20
41
7
50
36
70
12
9
21
14
29
23
2
11
43
62
3
28
60
38
66
26
55
69
34
19
59
39
16
48
17
68
6
1
13
44
15
64
25
33
35
67
22
31
45
40
52
56
49
53
10
27
63
37
42
58
30
8
65
46
61
24
18
4
51
32
54
47

> <PUBCHEM_MMFF94_PARTIAL_CHARGES>
23
1 -0.56
10 0.28
11 0.28
12 0.28
13 0.11
14 -0.3
16 -0.15
17 0.41
18 0.47
2 -0.68
26 0.15
27 0.4
28 0.15
29 0.4
3 -0.68
30 0.15
31 0.4
32 0.4
4 0.05
5 -0.57
6 -0.62
7 -0.9
8 0.54

> <PUBCHEM_EFFECTIVE_ROTOR_COUNT>
3

> <PUBCHEM_PHARMACOPHORE_FEATURES>
12
1 1 acceptor
1 2 acceptor
1 2 donor
1 3 acceptor
1 3 donor
1 7 cation
1 7 donor
3 4 5 13 cation
3 5 6 18 cation
5 1 8 9 10 11 rings
5 4 13 14 15 16 rings
6 5 6 13 15 17 18 rings

> <PUBCHEM_HEAVY_ATOM_COUNT>
18

> <PUBCHEM_ATOM_DEF_STEREO_COUNT>
0

> <PUBCHEM_ATOM_UDEF_STEREO_COUNT>
3

> <PUBCHEM_BOND_DEF_STEREO_COUNT>
0

> <PUBCHEM_BOND_UDEF_STEREO_COUNT>
0

> <PUBCHEM_ISOTOPIC_ATOM_COUNT>
0

> <PUBCHEM_COMPONENT_COUNT>
1

> <PUBCHEM_CACTVS_TAUTO_COUNT>
4

> <PUBCHEM_CONFORMER_ID>
00D80C5C00000005

> <PUBCHEM_MMFF94_ENERGY>
39.8641

> <PUBCHEM_FEATURE_SELFOVERLAP>
61.177

> <PUBCHEM_SHAPE_FINGERPRINT>
10062212 137 18271516572144047294
11471102 20 18333446543251211620
11578080 2 17770459197782071089
11796584 16 16128666228042301782
12236239 1 18273493468692122985
12403259 415 17531242855504967884
12500047 106 16343696621553418287
13140716 1 18188489198320181458
13214271 11 17603865594519867941
13538477 17 17989202664050936161
13583140 156 15214122228344485828
13760787 5 18260826008039525798
15219456 202 17603861187398177397
15279307 12 18272646848886562159
15309172 13 18333166167664945843
15342168 16 17896895437152472429
15653759 3 16298103189726748096
15775835 57 18410855494556537157
16945 1 18187071858927988642
17834072 33 18411978096640652895
17844478 74 17458061547566643109
18186145 218 18335697260885937342
19026448 5 18202280342080410508
19050596 39 18412824689801236616
19422 9 18272083950271905167
200 152 18339912784018934407
20645476 183 17846779620275902615
20645477 70 18116134624141671551
21041028 32 18262800649124077500
22854114 111 18260265261230331812
23402539 116 18131345315566341284
23402655 69 18413389856269246364
23493267 7 17346607386922397151
23559900 14 14996830014618447546
23598291 2 18342167895162760399
25 1 18260264170451076386
2748010 2 17971199359711154562
474 4 18263082261449921432
5104073 3 18336263539264985962
633830 44 18410862091895283836
7495541 125 16515695446053133400
77492 1 18201714072148852845
81228 2 15806881775735078578
8272917 22 18268436741717549827
9981440 41 17406253912697172576

> <PUBCHEM_SHAPE_MULTIPOLES>
332.9
8.48
1.69
1.14
1.12
0.03
-0.15
-1.21
1.56
-1.14
-0.12
1.46
0.07
-1.02

> <PUBCHEM_SHAPE_SELFOVERLAP>
724.472

> <PUBCHEM_SHAPE_VOLUME>
179

> <PUBCHEM_COORDINATE_TYPE>
2
5
10

$$$$
