14158941
  -OEChem-03292013303D

 32 34  0     1  0  0  0  0  0999 V2000
    2.1329    0.1004    0.8824 O   0  0  0  0  0  0  0  0  0  0  0  0
    2.3645   -1.8833   -1.3859 O   0  0  0  0  0  0  0  0  0  0  0  0
    4.6960    0.9666    1.6301 O   0  0  0  0  0  0  0  0  0  0  0  0
   -0.1234   -0.1166    0.1661 N   0  0  0  0  0  0  0  0  0  0  0  0
   -1.6345    1.6769   -0.3988 N   0  0  0  0  0  0  0  0  0  0  0  0
   -3.9789    1.0460   -0.2157 N   0  0  0  0  0  0  0  0  0  0  0  0
   -4.6729   -1.1364    0.4590 N   0  0  0  0  0  0  0  0  0  0  0  0
    1.1466    0.5833   -0.0448 C   0  0  2  0  0  0  0  0  0  0  0  0
    1.7093    0.4257   -1.4549 C   0  0  0  0  0  0  0  0  0  0  0  0
    2.8519   -0.5494   -1.2765 C   0  0  1  0  0  0  0  0  0  0  0  0
    3.3062   -0.3062    0.1541 C   0  0  1  0  0  0  0  0  0  0  0  0
    4.3426    0.8052    0.2661 C   0  0  0  0  0  0  0  0  0  0  0  0
   -1.3774    0.4170   -0.0063 C   0  0  0  0  0  0  0  0  0  0  0  0
   -0.2455   -1.4252    0.5718 C   0  0  0  0  0  0  0  0  0  0  0  0
   -2.3127   -0.5659    0.2938 C   0  0  0  0  0  0  0  0  0  0  0  0
   -1.5874   -1.7288    0.6591 C   0  0  0  0  0  0  0  0  0  0  0  0
   -3.6549   -0.2082    0.1754 C   0  0  0  0  0  0  0  0  0  0  0  0
   -2.9625    1.8991   -0.4750 C   0  0  0  0  0  0  0  0  0  0  0  0
    0.9639    1.6386    0.1875 H   0  0  0  0  0  0  0  0  0  0  0  0
    2.1064    1.3928   -1.7858 H   0  0  0  0  0  0  0  0  0  0  0  0
    0.9620    0.0975   -2.1845 H   0  0  0  0  0  0  0  0  0  0  0  0
    3.6421   -0.4208   -2.0221 H   0  0  0  0  0  0  0  0  0  0  0  0
    3.6786   -1.2171    0.6358 H   0  0  0  0  0  0  0  0  0  0  0  0
    3.9464    1.7651   -0.0791 H   0  0  0  0  0  0  0  0  0  0  0  0
    5.2461    0.5716   -0.3054 H   0  0  0  0  0  0  0  0  0  0  0  0
    0.6232   -2.0383    0.7688 H   0  0  0  0  0  0  0  0  0  0  0  0
    3.1147   -2.4818   -1.2294 H   0  0  0  0  0  0  0  0  0  0  0  0
   -1.9925   -2.6867    0.9550 H   0  0  0  0  0  0  0  0  0  0  0  0
    5.0853    0.1292    1.9349 H   0  0  0  0  0  0  0  0  0  0  0  0
   -3.2555    2.8960   -0.7862 H   0  0  0  0  0  0  0  0  0  0  0  0
   -4.4463   -2.0765    0.7531 H   0  0  0  0  0  0  0  0  0  0  0  0
   -5.6382   -0.8503    0.3660 H   0  0  0  0  0  0  0  0  0  0  0  0
  1  8  1  0  0  0  0
  1 11  1  0  0  0  0
  2 10  1  0  0  0  0
  2 27  1  0  0  0  0
  3 12  1  0  0  0  0
  3 29  1  0  0  0  0
  4  8  1  0  0  0  0
  4 13  1  0  0  0  0
  4 14  1  0  0  0  0
  5 13  2  0  0  0  0
  5 18  1  0  0  0  0
  6 17  1  0  0  0  0
  6 18  2  0  0  0  0
  7 17  1  0  0  0  0
  7 31  1  0  0  0  0
  7 32  1  0  0  0  0
  8  9  1  0  0  0  0
  8 19  1  0  0  0  0
  9 10  1  0  0  0  0
  9 20  1  0  0  0  0
  9 21  1  0  0  0  0
 10 11  1  0  0  0  0
 10 22  1  0  0  0  0
 11 12  1  0  0  0  0
 11 23  1  0  0  0  0
 12 24  1  0  0  0  0
 12 25  1  0  0  0  0
 13 15  1  0  0  0  0
 14 16  2  0  0  0  0
 14 26  1  0  0  0  0
 15 16  1  0  0  0  0
 15 17  2  0  0  0  0
 16 28  1  0  0  0  0
 18 30  1  0  0  0  0
M  END
> <PUBCHEM_COMPOUND_CID>
14158941

> <PUBCHEM_CONFORMER_RMSD>
0.6

> <PUBCHEM_CONFORMER_DIVERSEORDER>
1
9
14
13
3
5
15
10
6
8
4
11
16
12
7
2

> <PUBCHEM_MMFF94_PARTIAL_CHARGES>
23
1 -0.56
10 0.28
11 0.28
12 0.28
13 0.11
14 -0.3
16 -0.15
17 0.41
18 0.47
2 -0.68
26 0.15
27 0.4
28 0.15
29 0.4
3 -0.68
30 0.15
31 0.4
32 0.4
4 0.05
5 -0.57
6 -0.62
7 -0.9
8 0.54

> <PUBCHEM_EFFECTIVE_ROTOR_COUNT>
3

> <PUBCHEM_PHARMACOPHORE_FEATURES>
12
1 1 acceptor
1 2 acceptor
1 2 donor
1 3 acceptor
1 3 donor
1 7 cation
1 7 donor
3 4 5 13 cation
3 5 6 18 cation
5 1 8 9 10 11 rings
5 4 13 14 15 16 rings
6 5 6 13 15 17 18 rings

> <PUBCHEM_HEAVY_ATOM_COUNT>
18

> <PUBCHEM_ATOM_DEF_STEREO_COUNT>
3

> <PUBCHEM_ATOM_UDEF_STEREO_COUNT>
0

> <PUBCHEM_BOND_DEF_STEREO_COUNT>
0

> <PUBCHEM_BOND_UDEF_STEREO_COUNT>
0

> <PUBCHEM_ISOTOPIC_ATOM_COUNT>
0

> <PUBCHEM_COMPONENT_COUNT>
1

> <PUBCHEM_CACTVS_TAUTO_COUNT>
4

> <PUBCHEM_CONFORMER_ID>
00D80C5D00000001

> <PUBCHEM_MMFF94_ENERGY>
40.1544

> <PUBCHEM_FEATURE_SELFOVERLAP>
61.177

> <PUBCHEM_SHAPE_FINGERPRINT>
10608611 8 18412545388152103436
10646746 165 18336827494240961524
10922523 26 18339651044269457399
11132069 177 18261115140990657765
12236239 1 17022901263794904368
12403259 415 18342182132852856060
12788726 201 16881911033720977330
13140716 1 18044948015427801019
13538477 17 17168716347938744139
13581323 91 18259702311155519726
13675066 3 18334297560713524010
13862211 1 18187930655388847331
14144814 61 17967254173992506561
15219456 202 18201440250909345726
15375358 24 18343299279879937616
15536298 74 18263079933667304946
16945 1 18187094952993506499
17980427 23 18189891088446504708
18186145 218 18270692947671691677
19026448 4 18202285766618830605
19049666 15 18199475363559022480
200 152 16630529501156686378
20279233 1 18343589546602144006
204376 136 17346311661491962180
20510252 161 18411984633164451513
20645477 56 18410014333891441601
20645477 70 17417821599691623622
23402539 116 18335691784829190703
23557571 272 18411709793864506276
23559900 14 18339367370976197462
296302 2 17489868258436535396
43471831 8 18040714719441071523
474 4 15050865634199169226
495365 180 17916573238072681902
5104073 3 18337675209147594171
573450 72 17749381568298039512
69090 78 18273213110148791007
7364860 26 18048312254341553931
74978 22 17313964020206326238
77492 1 16877949342742975884
9709674 26 18410582789935141606

> <PUBCHEM_SHAPE_MULTIPOLES>
332.9
8.48
1.69
1.14
1.09
0.03
0.14
-1.22
-1.54
-1.12
0.12
1.45
0.07
1.03

> <PUBCHEM_SHAPE_SELFOVERLAP>
724.494

> <PUBCHEM_SHAPE_VOLUME>
179

> <PUBCHEM_COORDINATE_TYPE>
2
5
10

$$$$
