14189788
  -OEChem-03292013303D

 63 65  0     1  0  0  0  0  0999 V2000
    1.0758   -0.3299    1.6936 O   0  0  0  0  0  0  0  0  0  0  0  0
   -0.3237   -0.3406   -2.3632 O   0  0  0  0  0  0  0  0  0  0  0  0
   -2.7691    1.9233   -1.0655 O   0  0  0  0  0  0  0  0  0  0  0  0
   -3.9810    2.2530   -2.9932 O   0  0  0  0  0  0  0  0  0  0  0  0
    1.6072   -0.4899   -0.5621 N   0  0  0  0  0  0  0  0  0  0  0  0
   -0.4541    1.9754   -2.2486 N   0  0  0  0  0  0  0  0  0  0  0  0
    3.1946   -2.3628    1.6788 N   0  0  0  0  0  0  0  0  0  0  0  0
    1.2385    0.8503   -0.9432 C   0  0  1  0  0  0  0  0  0  0  0  0
    2.4090    1.6171   -1.5693 C   0  0  0  0  0  0  0  0  0  0  0  0
    2.0096   -2.4055    0.8597 C   0  0  1  0  0  0  0  0  0  0  0  0
    0.9260   -3.3115    1.4558 C   0  0  0  0  0  0  0  0  0  0  0  0
    1.4953   -0.9757    0.7356 C   0  0  0  0  0  0  0  0  0  0  0  0
    3.5926    1.7357   -0.6404 C   0  0  0  0  0  0  0  0  0  0  0  0
    0.0878    0.7362   -1.9366 C   0  0  0  0  0  0  0  0  0  0  0  0
   -0.0823   -3.7681    0.4299 C   0  0  0  0  0  0  0  0  0  0  0  0
    4.5849    0.7554   -0.6461 C   0  0  0  0  0  0  0  0  0  0  0  0
    3.6939    2.8255    0.2244 C   0  0  0  0  0  0  0  0  0  0  0  0
   -1.2285   -3.0091    0.1928 C   0  0  0  0  0  0  0  0  0  0  0  0
    0.1319   -4.9486   -0.2816 C   0  0  0  0  0  0  0  0  0  0  0  0
   -1.5874    2.1471   -3.1290 C   0  0  0  0  0  0  0  0  0  0  0  0
    5.6786    0.8652    0.2128 C   0  0  0  0  0  0  0  0  0  0  0  0
    4.7876    2.9353    1.0831 C   0  0  0  0  0  0  0  0  0  0  0  0
    5.7798    1.9551    1.0774 C   0  0  0  0  0  0  0  0  0  0  0  0
   -2.1605   -3.4308   -0.7555 C   0  0  0  0  0  0  0  0  0  0  0  0
   -0.8001   -5.3702   -1.2300 C   0  0  0  0  0  0  0  0  0  0  0  0
   -1.9463   -4.6112   -1.4669 C   0  0  0  0  0  0  0  0  0  0  0  0
   -2.9131    2.1158   -2.4054 C   0  0  0  0  0  0  0  0  0  0  0  0
   -3.9837    1.8828   -0.3090 C   0  0  0  0  0  0  0  0  0  0  0  0
   -3.6524    1.6656    1.1383 C   0  0  0  0  0  0  0  0  0  0  0  0
   -3.5606    0.3695    1.6459 C   0  0  0  0  0  0  0  0  0  0  0  0
   -3.4355    2.7596    1.9762 C   0  0  0  0  0  0  0  0  0  0  0  0
   -3.2524    0.1674    2.9912 C   0  0  0  0  0  0  0  0  0  0  0  0
   -3.1271    2.5574    3.3214 C   0  0  0  0  0  0  0  0  0  0  0  0
   -3.0356    1.2613    3.8289 C   0  0  0  0  0  0  0  0  0  0  0  0
    0.8690    1.3879   -0.0611 H   0  0  0  0  0  0  0  0  0  0  0  0
    2.1036    2.6245   -1.8783 H   0  0  0  0  0  0  0  0  0  0  0  0
    2.7304    1.1220   -2.4965 H   0  0  0  0  0  0  0  0  0  0  0  0
    2.3020   -2.7906   -0.1247 H   0  0  0  0  0  0  0  0  0  0  0  0
    1.9374   -1.1083   -1.2973 H   0  0  0  0  0  0  0  0  0  0  0  0
    1.3858   -4.2087    1.8937 H   0  0  0  0  0  0  0  0  0  0  0  0
    0.4048   -2.8214    2.2889 H   0  0  0  0  0  0  0  0  0  0  0  0
   -0.0867    2.8074   -1.7969 H   0  0  0  0  0  0  0  0  0  0  0  0
    3.5719   -3.3018    1.7989 H   0  0  0  0  0  0  0  0  0  0  0  0
    3.9235   -1.8227    1.2135 H   0  0  0  0  0  0  0  0  0  0  0  0
    4.5197   -0.0984   -1.3153 H   0  0  0  0  0  0  0  0  0  0  0  0
    2.9257    3.5941    0.2396 H   0  0  0  0  0  0  0  0  0  0  0  0
   -1.4072   -2.0875    0.7399 H   0  0  0  0  0  0  0  0  0  0  0  0
    1.0220   -5.5474   -0.1082 H   0  0  0  0  0  0  0  0  0  0  0  0
   -1.4764    3.1221   -3.6116 H   0  0  0  0  0  0  0  0  0  0  0  0
   -1.5826    1.3505   -3.8788 H   0  0  0  0  0  0  0  0  0  0  0  0
    6.4510    0.1017    0.2088 H   0  0  0  0  0  0  0  0  0  0  0  0
    4.8660    3.7834    1.7570 H   0  0  0  0  0  0  0  0  0  0  0  0
    6.6311    2.0403    1.7464 H   0  0  0  0  0  0  0  0  0  0  0  0
   -3.0522   -2.8389   -0.9404 H   0  0  0  0  0  0  0  0  0  0  0  0
   -0.6331   -6.2890   -1.7846 H   0  0  0  0  0  0  0  0  0  0  0  0
   -2.6716   -4.9392   -2.2057 H   0  0  0  0  0  0  0  0  0  0  0  0
   -4.5302    2.8257   -0.4347 H   0  0  0  0  0  0  0  0  0  0  0  0
   -4.6220    1.0697   -0.6768 H   0  0  0  0  0  0  0  0  0  0  0  0
   -3.7248   -0.4908    1.0025 H   0  0  0  0  0  0  0  0  0  0  0  0
   -3.5016    3.7741    1.5920 H   0  0  0  0  0  0  0  0  0  0  0  0
   -3.1793   -0.8418    3.3857 H   0  0  0  0  0  0  0  0  0  0  0  0
   -2.9574    3.4090    3.9737 H   0  0  0  0  0  0  0  0  0  0  0  0
   -2.7947    1.1040    4.8761 H   0  0  0  0  0  0  0  0  0  0  0  0
  1 12  2  0  0  0  0
  2 14  2  0  0  0  0
  3 27  1  0  0  0  0
  3 28  1  0  0  0  0
  4 27  2  0  0  0  0
  5  8  1  0  0  0  0
  5 12  1  0  0  0  0
  5 39  1  0  0  0  0
  6 14  1  0  0  0  0
  6 20  1  0  0  0  0
  6 42  1  0  0  0  0
  7 10  1  0  0  0  0
  7 43  1  0  0  0  0
  7 44  1  0  0  0  0
  8  9  1  0  0  0  0
  8 14  1  0  0  0  0
  8 35  1  0  0  0  0
  9 13  1  0  0  0  0
  9 36  1  0  0  0  0
  9 37  1  0  0  0  0
 10 11  1  0  0  0  0
 10 12  1  0  0  0  0
 10 38  1  0  0  0  0
 11 15  1  0  0  0  0
 11 40  1  0  0  0  0
 11 41  1  0  0  0  0
 13 16  2  0  0  0  0
 13 17  1  0  0  0  0
 15 18  2  0  0  0  0
 15 19  1  0  0  0  0
 16 21  1  0  0  0  0
 16 45  1  0  0  0  0
 17 22  2  0  0  0  0
 17 46  1  0  0  0  0
 18 24  1  0  0  0  0
 18 47  1  0  0  0  0
 19 25  2  0  0  0  0
 19 48  1  0  0  0  0
 20 27  1  0  0  0  0
 20 49  1  0  0  0  0
 20 50  1  0  0  0  0
 21 23  2  0  0  0  0
 21 51  1  0  0  0  0
 22 23  1  0  0  0  0
 22 52  1  0  0  0  0
 23 53  1  0  0  0  0
 24 26  2  0  0  0  0
 24 54  1  0  0  0  0
 25 26  1  0  0  0  0
 25 55  1  0  0  0  0
 26 56  1  0  0  0  0
 28 29  1  0  0  0  0
 28 57  1  0  0  0  0
 28 58  1  0  0  0  0
 29 30  2  0  0  0  0
 29 31  1  0  0  0  0
 30 32  1  0  0  0  0
 30 59  1  0  0  0  0
 31 33  2  0  0  0  0
 31 60  1  0  0  0  0
 32 34  2  0  0  0  0
 32 61  1  0  0  0  0
 33 34  1  0  0  0  0
 33 62  1  0  0  0  0
 34 63  1  0  0  0  0
M  END
> <PUBCHEM_COMPOUND_CID>
14189788

> <PUBCHEM_CONFORMER_RMSD>
1.4

> <PUBCHEM_CONFORMER_DIVERSEORDER>
2
205
239
183
238
114
131
157
130
101
132
91
10
193
90
251
228
14
174
44
250
62
207
214
8
220
141
164
160
50
204
195
151
89
42
161
133
159
190
237
79
58
203
38
196
245
199
201
173
241
72
66
257
11
256
122
77
113
13
16
57
172
191
146
158
215
108
211
143
156
17
138
104
111
98
179
97
81
244
105
71
45
95
218
231
176
144
147
55
222
69
224
37
242
206
23
92
29
210
240
189
232
26
235
166
124
1
88
129
4
254
252
209
83
154
192
76
120
167
94
106
212
68
60
21
233
20
41
177
152
243
119
61
155
217
85
213
9
34
52
134
19
187
197
150
139
140
25
78
39
225
168
24
116
33
208
117
112
96
126
178
35
64
230
180
87
226
163
219
258
135
148
15
65
145
18
82
43
102
149
123
188
115
49
162
249
136
198
93
170
22
31
246
6
127
169
253
46
202
236
227
182
36
194
51
53
30
59
56
70
184
216
247
200
171
234
67
63
223
103
86
109
186
84
80
32
73
107
118
5
137
153
48
165
229
7
185
221
255
100
142
99
175
110
28
181
40
74
12
128
75
54
248
47
121
125
27
3

> <PUBCHEM_MMFF94_PARTIAL_CHARGES>
53
1 -0.57
10 0.33
11 0.14
12 0.57
13 -0.14
14 0.57
15 -0.14
16 -0.15
17 -0.15
18 -0.15
19 -0.15
2 -0.57
20 0.36
21 -0.15
22 -0.15
23 -0.15
24 -0.15
25 -0.15
26 -0.15
27 0.66
28 0.42
29 -0.14
3 -0.43
30 -0.15
31 -0.15
32 -0.15
33 -0.15
34 -0.15
39 0.37
4 -0.57
42 0.37
43 0.36
44 0.36
45 0.15
46 0.15
47 0.15
48 0.15
5 -0.73
51 0.15
52 0.15
53 0.15
54 0.15
55 0.15
56 0.15
59 0.15
6 -0.73
60 0.15
61 0.15
62 0.15
63 0.15
7 -0.99
8 0.36
9 0.14

> <PUBCHEM_EFFECTIVE_ROTOR_COUNT>
14

> <PUBCHEM_PHARMACOPHORE_FEATURES>
10
1 1 acceptor
1 2 acceptor
1 4 acceptor
1 5 donor
1 6 donor
1 7 cation
1 7 donor
6 13 16 17 21 22 23 rings
6 15 18 19 24 25 26 rings
6 29 30 31 32 33 34 rings

> <PUBCHEM_HEAVY_ATOM_COUNT>
34

> <PUBCHEM_ATOM_DEF_STEREO_COUNT>
0

> <PUBCHEM_ATOM_UDEF_STEREO_COUNT>
2

> <PUBCHEM_BOND_DEF_STEREO_COUNT>
0

> <PUBCHEM_BOND_UDEF_STEREO_COUNT>
0

> <PUBCHEM_ISOTOPIC_ATOM_COUNT>
0

> <PUBCHEM_COMPONENT_COUNT>
1

> <PUBCHEM_CACTVS_TAUTO_COUNT>
4

> <PUBCHEM_CONFORMER_ID>
00D884DC00000002

> <PUBCHEM_MMFF94_ENERGY>
75.5159

> <PUBCHEM_FEATURE_SELFOVERLAP>
50.747

> <PUBCHEM_SHAPE_FINGERPRINT>
10815517 723 18118411871641704390
11115154 58 17624407976426585399
12156800 1 17035230229622359785
12160290 23 18046932620619610342
12422481 6 17821450136668271608
12440605 4 18116127009339028234
12655364 131 18053913235851863714
12788726 201 17618800479850423836
14068700 675 17762896971485566023
14150022 121 17766560536309697016
14705955 166 17622137476493430032
15420108 30 18409732841819251554
16067690 210 16915915462065165272
161222 619 17829037724129434942
17913733 40 18334570205865481480
19315092 285 16475088115265510127
19319366 153 17701558211664757889
21796203 349 17760656858452193914
24941158 1 17979367356330893153
255183 313 18261397784346237428
27425 322 17631195025111744001
3493558 16 17548421856836997072
35225 105 18272365421491900367
469060 322 17896035623559850677
50150288 127 17987786527186465623
508180 173 17470416983536780319
550186 7 17556887997807637700
563151 74 18267030445050883161

> <PUBCHEM_SHAPE_MULTIPOLES>
661.28
9.43
6.85
3.57
12.02
11.39
-0.09
-10.33
-3.73
-4.71
0.57
-4.68
-3.43
-1.54

> <PUBCHEM_SHAPE_SELFOVERLAP>
1394.457

> <PUBCHEM_SHAPE_VOLUME>
367.5

> <PUBCHEM_COORDINATE_TYPE>
2
5
10

$$$$
