14185468
  -OEChem-03292013303D

 34 36  0     1  0  0  0  0  0999 V2000
   -2.0103    1.1484   -1.7219 O   0  0  0  0  0  0  0  0  0  0  0  0
    2.0103    1.1473    1.7224 O   0  0  0  0  0  0  0  0  0  0  0  0
    0.2475    1.0021   -1.2989 N   0  0  0  0  0  0  0  0  0  0  0  0
   -0.2476    1.0013    1.2992 N   0  0  0  0  0  0  0  0  0  0  0  0
   -4.7976    0.2525   -0.1842 N   0  0  0  0  0  0  0  0  0  0  0  0
    4.7975    0.2525    0.1846 N   0  0  0  0  0  0  0  0  0  0  0  0
   -4.9913   -1.9519    0.0018 N   0  0  0  0  0  0  0  0  0  0  0  0
    4.9914   -1.9519   -0.0027 N   0  0  0  0  0  0  0  0  0  0  0  0
    1.2982    0.4161   -0.4796 C   0  0  1  0  0  0  0  0  0  0  0  0
   -1.2982    0.4159    0.4795 C   0  0  1  0  0  0  0  0  0  0  0  0
    2.6766    0.7695   -1.0144 C   0  0  0  0  0  0  0  0  0  0  0  0
   -2.6765    0.7688    1.0148 C   0  0  0  0  0  0  0  0  0  0  0  0
   -1.0894    0.9303   -0.9383 C   0  0  0  0  0  0  0  0  0  0  0  0
    1.0894    0.9297    0.9386 C   0  0  0  0  0  0  0  0  0  0  0  0
   -3.7315   -0.1837    0.5139 C   0  0  0  0  0  0  0  0  0  0  0  0
    3.7315   -0.1834   -0.5139 C   0  0  0  0  0  0  0  0  0  0  0  0
   -3.8477   -1.5244    0.6284 C   0  0  0  0  0  0  0  0  0  0  0  0
    3.8478   -1.5241   -0.6292 C   0  0  0  0  0  0  0  0  0  0  0  0
   -5.5403   -0.8575   -0.4765 C   0  0  0  0  0  0  0  0  0  0  0  0
    5.5402   -0.8577    0.4763 C   0  0  0  0  0  0  0  0  0  0  0  0
    1.1288   -0.6678   -0.4761 H   0  0  0  0  0  0  0  0  0  0  0  0
   -1.1287   -0.6679    0.4753 H   0  0  0  0  0  0  0  0  0  0  0  0
    2.9412    1.8049   -0.7635 H   0  0  0  0  0  0  0  0  0  0  0  0
   -2.9413    1.8044    0.7646 H   0  0  0  0  0  0  0  0  0  0  0  0
    2.6827    0.7091   -2.1111 H   0  0  0  0  0  0  0  0  0  0  0  0
   -2.6824    0.7078    2.1115 H   0  0  0  0  0  0  0  0  0  0  0  0
    0.4620    1.2741   -2.2538 H   0  0  0  0  0  0  0  0  0  0  0  0
   -0.4621    1.2727    2.2542 H   0  0  0  0  0  0  0  0  0  0  0  0
   -5.0157    1.2053   -0.4461 H   0  0  0  0  0  0  0  0  0  0  0  0
    5.0154    1.2050    0.4472 H   0  0  0  0  0  0  0  0  0  0  0  0
   -3.1866   -2.2217    1.1219 H   0  0  0  0  0  0  0  0  0  0  0  0
    3.1867   -2.2211   -1.1233 H   0  0  0  0  0  0  0  0  0  0  0  0
   -6.4625   -0.8002   -1.0370 H   0  0  0  0  0  0  0  0  0  0  0  0
    6.4624   -0.8006    1.0370 H   0  0  0  0  0  0  0  0  0  0  0  0
  1 13  2  0  0  0  0
  2 14  2  0  0  0  0
  3  9  1  0  0  0  0
  3 13  1  0  0  0  0
  3 27  1  0  0  0  0
  4 10  1  0  0  0  0
  4 14  1  0  0  0  0
  4 28  1  0  0  0  0
  5 15  1  0  0  0  0
  5 19  1  0  0  0  0
  5 29  1  0  0  0  0
  6 16  1  0  0  0  0
  6 20  1  0  0  0  0
  6 30  1  0  0  0  0
  7 17  1  0  0  0  0
  7 19  2  0  0  0  0
  8 18  1  0  0  0  0
  8 20  2  0  0  0  0
  9 11  1  0  0  0  0
  9 14  1  0  0  0  0
  9 21  1  0  0  0  0
 10 12  1  0  0  0  0
 10 13  1  0  0  0  0
 10 22  1  0  0  0  0
 11 16  1  0  0  0  0
 11 23  1  0  0  0  0
 11 25  1  0  0  0  0
 12 15  1  0  0  0  0
 12 24  1  0  0  0  0
 12 26  1  0  0  0  0
 15 17  2  0  0  0  0
 16 18  2  0  0  0  0
 17 31  1  0  0  0  0
 18 32  1  0  0  0  0
 19 33  1  0  0  0  0
 20 34  1  0  0  0  0
M  END
> <PUBCHEM_COMPOUND_CID>
14185468

> <PUBCHEM_CONFORMER_RMSD>
0.6

> <PUBCHEM_CONFORMER_DIVERSEORDER>
1
56
14
119
40
15
121
52
85
7
38
8
34
69
44
71
36
6
122
13
118
39
117
4
94
11
81
112
92
83
33
3
62
57
93
42
53
24
99
9
61
98
12
120
5
100
21
51
67
47
35
114
41
58
18
64
2
101
49
86
50
105
28
10
78
88
74
32
76
106
90
37
55
89
72
59
91
16
48
116
110
45
77
97
75
103
79
31
25
17
46
43
111
54
96
108
104
109
68
29
66
63
26
84
102
87
65
115
27
113
107
95
22
73
20
60
19
82
70
80
30
23

> <PUBCHEM_MMFF94_PARTIAL_CHARGES>
28
1 -0.57
10 0.36
11 0.18
12 0.18
13 0.57
14 0.57
15 -0.33
16 -0.33
17 0.08
18 0.08
19 0.04
2 -0.57
20 0.04
27 0.37
28 0.37
29 0.27
3 -0.73
30 0.27
31 0.15
32 0.15
33 0.15
34 0.15
4 -0.73
5 0.03
6 0.03
7 -0.57
8 -0.57
9 0.36

> <PUBCHEM_EFFECTIVE_ROTOR_COUNT>
4.8

> <PUBCHEM_PHARMACOPHORE_FEATURES>
11
1 1 acceptor
1 2 acceptor
1 3 donor
1 4 donor
1 5 donor
1 6 donor
3 5 7 19 cation
3 6 8 20 cation
5 5 7 15 17 19 rings
5 6 8 16 18 20 rings
6 3 4 9 10 13 14 rings

> <PUBCHEM_HEAVY_ATOM_COUNT>
20

> <PUBCHEM_ATOM_DEF_STEREO_COUNT>
2

> <PUBCHEM_ATOM_UDEF_STEREO_COUNT>
0

> <PUBCHEM_BOND_DEF_STEREO_COUNT>
0

> <PUBCHEM_BOND_UDEF_STEREO_COUNT>
0

> <PUBCHEM_ISOTOPIC_ATOM_COUNT>
0

> <PUBCHEM_COMPONENT_COUNT>
1

> <PUBCHEM_CACTVS_TAUTO_COUNT>
10

> <PUBCHEM_CONFORMER_ID>
00D873FC00000001

> <PUBCHEM_MMFF94_ENERGY>
42.5924

> <PUBCHEM_FEATURE_SELFOVERLAP>
55.831

> <PUBCHEM_SHAPE_FINGERPRINT>
100836 57 10737285744590984475
106641 1 15841262735673494530
11796584 16 18411420587910012331
12251169 10 15770057232929354048
12403259 118 16272217379453854521
12507557 5 15698002933853756369
12596602 18 15769777952681340922
12633257 1 17059788826772040735
12644460 14 16916787452448882632
12670543 26 15719386213793259471
12892183 10 16415208814705387020
12954195 1 17313939702270581245
13583140 156 17703221819759544721
13675066 3 16630251316082888940
13685833 64 18335707173918779179
14251751 18 18409728469331651414
14848178 5 18410859862470218342
15183329 4 17240478092039788147
15209294 21 12751240294167454813
15375462 189 17417806211002792176
15475509 35 18202279229637018946
1601671 61 11674877809883108446
16752209 62 16660355970026131129
17857418 61 18272369780429986043
17959699 21 8070031064367458302
18186145 218 14924232680625117029
18785283 64 18057593468726541872
19784866 140 16660363675508417361
19784866 240 18409737231333668374
19862831 5 15719114673081166221
200 152 18040438788976651341
20261772 1 15913329087260359540
20374829 77 18113336409998342423
20645477 56 8502657008871910921
21033648 29 14117234984294670451
21637258 2 18410567388081853383
22393880 68 16805879714702719259
231179 274 11025798699969055104
23379529 103 17172667001367525755
23402539 116 17385444301856956533
23402655 69 14273731858788995289
23557571 272 18113887282472683120
23559900 14 18340197588017682545
23622692 88 15697997452763673933
26918003 58 18201720630505949945
2838139 119 8214148417038629923
2871803 45 17458062655720991818
2916195 48 10592045752178491147
29717793 49 17967813868619141773
3009799 131 16226045617696354908
316301 35 18056476390455755667
3286 77 18272091616635677417
33382 64 18410015420470792378
4259306 186 17675926477964934010
465052 167 17704076213482564686
4990 188 17312825991354063576
5104073 3 17418097611100383275
58807428 26 15052013442354322100
59755656 520 18118962487077403285
633830 44 15792018938522811573
7495541 125 18271806856388760944
76465 3 18410858758663071108
960060 61 17095251327936591382

> <PUBCHEM_SHAPE_MULTIPOLES>
369.97
12.68
1.62
1.3
0
0.7
0
7.95
0
0
0
0
-0.52
0.26

> <PUBCHEM_SHAPE_SELFOVERLAP>
802.067

> <PUBCHEM_SHAPE_VOLUME>
203.9

> <PUBCHEM_COORDINATE_TYPE>
2
5
10

$$$$
