14198
  -OEChem-03292013323D

 47 50  0     1  0  0  0  0  0999 V2000
    1.2663    1.5099    1.8752 O   0  0  0  0  0  0  0  0  0  0  0  0
    0.2477   -2.0010   -0.3751 O   0  0  0  0  0  0  0  0  0  0  0  0
    4.9936   -0.3237   -0.7931 O   0  0  0  0  0  0  0  0  0  0  0  0
   -1.9506    2.3599   -1.8475 O   0  0  0  0  0  0  0  0  0  0  0  0
   -2.9608   -1.2227    1.9951 O   0  0  0  0  0  0  0  0  0  0  0  0
    0.6104   -4.2699   -0.2307 O   0  0  0  0  0  0  0  0  0  0  0  0
    3.1670    1.0213   -0.2443 N   0  0  0  0  0  0  0  0  0  0  0  0
    0.1965    1.2273   -0.2475 N   0  0  1  0  0  0  0  0  0  0  0  0
   -5.1009   -0.3322    0.5898 N   0  0  0  0  0  0  0  0  0  0  0  0
    0.5505   -3.2036   -2.2670 N   0  0  0  0  0  0  0  0  0  0  0  0
    2.1858    0.0688    0.2042 C   0  0  2  0  0  0  0  0  0  0  0  0
    2.2130    0.5364   -1.1900 C   0  0  1  0  0  0  0  0  0  0  0  0
    0.9348    0.5674    0.8578 C   0  0  1  0  0  0  0  0  0  0  0  0
    0.9819    1.3448   -1.4733 C   0  0  0  0  0  0  0  0  0  0  0  0
   -0.1046   -0.4617    1.4174 C   0  0  1  0  0  0  0  0  0  0  0  0
   -1.1458    0.9383   -0.1560 C   0  0  0  0  0  0  0  0  0  0  0  0
   -1.3922    0.0300    0.7859 C   0  0  0  0  0  0  0  0  0  0  0  0
    4.5138    0.7071   -0.3278 C   0  0  0  0  0  0  0  0  0  0  0  0
    0.1548   -1.9172    1.0347 C   0  0  0  0  0  0  0  0  0  0  0  0
   -2.2003    1.5251   -0.9850 C   0  0  0  0  0  0  0  0  0  0  0  0
   -2.7510   -0.4178    1.0931 C   0  0  0  0  0  0  0  0  0  0  0  0
    1.8318    0.8695    3.0087 C   0  0  0  0  0  0  0  0  0  0  0  0
    5.3815    1.8060    0.2226 C   0  0  0  0  0  0  0  0  0  0  0  0
   -3.5991    1.0544   -0.7102 C   0  0  0  0  0  0  0  0  0  0  0  0
   -3.8645    0.1518    0.2596 C   0  0  0  0  0  0  0  0  0  0  0  0
   -4.6402    1.6798   -1.6003 C   0  0  0  0  0  0  0  0  0  0  0  0
    0.4808   -3.2481   -0.8966 C   0  0  0  0  0  0  0  0  0  0  0  0
    2.5855   -0.8834    0.5069 H   0  0  0  0  0  0  0  0  0  0  0  0
    2.5761   -0.0891   -1.9890 H   0  0  0  0  0  0  0  0  0  0  0  0
    1.2256    2.3920   -1.6776 H   0  0  0  0  0  0  0  0  0  0  0  0
    0.4479    0.9242   -2.3320 H   0  0  0  0  0  0  0  0  0  0  0  0
   -0.2303   -0.4046    2.5016 H   0  0  0  0  0  0  0  0  0  0  0  0
   -0.6631   -2.5579    1.3856 H   0  0  0  0  0  0  0  0  0  0  0  0
    1.0836   -2.2701    1.4978 H   0  0  0  0  0  0  0  0  0  0  0  0
    2.5224    1.5794    3.4748 H   0  0  0  0  0  0  0  0  0  0  0  0
    2.3978   -0.0370    2.7744 H   0  0  0  0  0  0  0  0  0  0  0  0
    1.0582    0.6540    3.7510 H   0  0  0  0  0  0  0  0  0  0  0  0
    6.0284    1.3937    1.0018 H   0  0  0  0  0  0  0  0  0  0  0  0
    4.7848    2.6142    0.6555 H   0  0  0  0  0  0  0  0  0  0  0  0
    5.9945    2.2147   -0.5851 H   0  0  0  0  0  0  0  0  0  0  0  0
   -4.4210    1.4592   -2.6507 H   0  0  0  0  0  0  0  0  0  0  0  0
   -4.6459    2.7673   -1.4688 H   0  0  0  0  0  0  0  0  0  0  0  0
   -5.6547    1.3256   -1.4029 H   0  0  0  0  0  0  0  0  0  0  0  0
   -5.9297   -0.0229    0.1011 H   0  0  0  0  0  0  0  0  0  0  0  0
   -5.1892   -1.0099    1.3371 H   0  0  0  0  0  0  0  0  0  0  0  0
    0.4380   -2.3315   -2.7729 H   0  0  0  0  0  0  0  0  0  0  0  0
    0.7181   -4.0404   -2.8153 H   0  0  0  0  0  0  0  0  0  0  0  0
  1 13  1  0  0  0  0
  1 22  1  0  0  0  0
  2 19  1  0  0  0  0
  2 27  1  0  0  0  0
  3 18  2  0  0  0  0
  4 20  2  0  0  0  0
  5 21  2  0  0  0  0
  6 27  2  0  0  0  0
  7 11  1  0  0  0  0
  7 12  1  0  0  0  0
  7 18  1  0  0  0  0
  8 13  1  0  0  0  0
  8 14  1  0  0  0  0
  8 16  1  0  0  0  0
  9 25  1  0  0  0  0
  9 44  1  0  0  0  0
  9 45  1  0  0  0  0
 10 27  1  0  0  0  0
 10 46  1  0  0  0  0
 10 47  1  0  0  0  0
 11 12  1  0  0  0  0
 11 13  1  0  0  0  0
 11 28  1  0  0  0  0
 12 14  1  0  0  0  0
 12 29  1  0  0  0  0
 13 15  1  0  0  0  0
 14 30  1  0  0  0  0
 14 31  1  0  0  0  0
 15 17  1  0  0  0  0
 15 19  1  0  0  0  0
 15 32  1  0  0  0  0
 16 17  2  0  0  0  0
 16 20  1  0  0  0  0
 17 21  1  0  0  0  0
 18 23  1  0  0  0  0
 19 33  1  0  0  0  0
 19 34  1  0  0  0  0
 20 24  1  0  0  0  0
 21 25  1  0  0  0  0
 22 35  1  0  0  0  0
 22 36  1  0  0  0  0
 22 37  1  0  0  0  0
 23 38  1  0  0  0  0
 23 39  1  0  0  0  0
 23 40  1  0  0  0  0
 24 25  2  0  0  0  0
 24 26  1  0  0  0  0
 26 41  1  0  0  0  0
 26 42  1  0  0  0  0
 26 43  1  0  0  0  0
M  END
> <PUBCHEM_COMPOUND_CID>
14198

> <PUBCHEM_CONFORMER_RMSD>
0.8

> <PUBCHEM_CONFORMER_DIVERSEORDER>
1
17
8
10
21
19
16
7
20
9
12
11
2
6
4
13
14
3
18
5
15

> <PUBCHEM_MMFF94_PARTIAL_CHARGES>
33
1 -0.56
10 -0.8
11 -0.05
12 -0.05
13 0.74
14 0.46
15 0.14
16 0.11
17 -0.12
18 0.57
19 0.28
2 -0.43
20 0.54
21 0.54
22 0.28
23 0.06
24 -0.12
25 0.11
26 0.14
27 0.78
28 0.1
29 0.1
3 -0.57
4 -0.57
44 0.4
45 0.4
46 0.37
47 0.37
5 -0.57
6 -0.57
7 -0.36
8 -0.84
9 -0.9

> <PUBCHEM_EFFECTIVE_ROTOR_COUNT>
5.6

> <PUBCHEM_PHARMACOPHORE_FEATURES>
12
1 1 acceptor
1 10 donor
1 3 acceptor
1 4 acceptor
1 5 acceptor
1 6 acceptor
1 8 cation
1 9 cation
1 9 donor
5 8 13 15 16 17 rings
6 16 17 20 21 24 25 rings
6 7 8 11 12 13 14 rings

> <PUBCHEM_HEAVY_ATOM_COUNT>
27

> <PUBCHEM_ATOM_DEF_STEREO_COUNT>
2

> <PUBCHEM_ATOM_UDEF_STEREO_COUNT>
2

> <PUBCHEM_BOND_DEF_STEREO_COUNT>
0

> <PUBCHEM_BOND_UDEF_STEREO_COUNT>
0

> <PUBCHEM_ISOTOPIC_ATOM_COUNT>
0

> <PUBCHEM_COMPONENT_COUNT>
1

> <PUBCHEM_CACTVS_TAUTO_COUNT>
42

> <PUBCHEM_CONFORMER_ID>
0000377600000001

> <PUBCHEM_MMFF94_ENERGY>
100.5765

> <PUBCHEM_FEATURE_SELFOVERLAP>
61.07

> <PUBCHEM_SHAPE_FINGERPRINT>
10165383 225 18271253797781698985
10863032 1 17604145939545672416
10906281 52 17895207575656854309
11370993 70 18410857659594516310
11488393 25 18194406597591210850
12236239 1 16298099895988388336
12422481 6 17979109224512791979
12592029 89 18336266747811653842
12969540 114 18342167899537082340
13140716 1 17677629712066811381
13149001 5 17630889498428392848
133893 2 18050860922167852666
13681431 1 17695904432284884542
13911987 19 18272941556773536804
14787075 74 17418103134829381592
15219462 58 17988362568891145753
16945 1 18054542241942958641
18681886 176 18188205510961170013
18915476 22 18268433434519002551
20197701 30 18410290315905700086
20905425 154 17822849754139436677
21033648 29 18341600555985728528
21267235 1 17241057582197213641
22033318 11 16537406664633978699
22182313 1 17824282422781507491
23114952 82 18119808002443100071
23402539 116 17822006540474673349
23419403 2 17760972512562205707
23557571 272 17749969786055538429
23559900 14 17680690545862995579
298252 57 18113900472591042792
34934 24 17530956999730505024
44802255 64 18189074117437835462
59755656 215 17968380026612569805
6669772 16 17701794744340922978
69090 78 18334579091999588936
81228 2 17621581135639990915

> <PUBCHEM_SHAPE_MULTIPOLES>
500.51
8.21
3.09
2.06
1.41
4.09
-0.76
-4.82
1
0.35
1.74
0.07
0.06
1.68

> <PUBCHEM_SHAPE_SELFOVERLAP>
1095.62

> <PUBCHEM_SHAPE_VOLUME>
273.3

> <PUBCHEM_COORDINATE_TYPE>
2
5
10

$$$$
