14228263
  -OEChem-03292013303D

 22 23  0     0  0  0  0  0  0999 V2000
    2.6070    1.9202   -0.0002 O   0  0  0  0  0  0  0  0  0  0  0  0
    1.0828    3.6010   -0.0003 O   0  5  0  0  0  0  0  0  0  0  0  0
    2.8776   -2.1479   -0.0004 O   0  5  0  0  0  0  0  0  0  0  0  0
    1.1116   -3.4518    0.0003 O   0  0  0  0  0  0  0  0  0  0  0  0
   -3.5793    0.8218    0.0004 O   0  5  0  0  0  0  0  0  0  0  0  0
   -3.3268   -1.3589   -0.0005 O   0  0  0  0  0  0  0  0  0  0  0  0
    1.2531    2.3613    0.0001 N   0  3  0  0  0  0  0  0  0  0  0  0
    2.6044    0.5350    0.0000 N   0  0  0  0  0  0  0  0  0  0  0  0
   -1.7407    2.4160   -0.0004 N   0  0  0  0  0  0  0  0  0  0  0  0
    1.6304   -2.3066    0.0000 N   0  3  0  0  0  0  0  0  0  0  0  0
   -2.8601   -0.1999    0.0001 N   0  3  0  0  0  0  0  0  0  0  0  0
   -1.2532   -2.4827   -0.0004 N   0  0  0  0  0  0  0  0  0  0  0  0
    0.4627    1.2913    0.0003 C   0  0  0  0  0  0  0  0  0  0  0  0
    1.3254    0.1327    0.0003 C   0  0  0  0  0  0  0  0  0  0  0  0
   -0.9268    1.2762    0.0002 C   0  0  0  0  0  0  0  0  0  0  0  0
    0.7900   -1.1683    0.0003 C   0  0  0  0  0  0  0  0  0  0  0  0
   -1.4384   -0.0353    0.0001 C   0  0  0  0  0  0  0  0  0  0  0  0
   -0.6199   -1.2040   -0.0001 C   0  0  0  0  0  0  0  0  0  0  0  0
   -1.2785    3.3174   -0.0266 H   0  0  0  0  0  0  0  0  0  0  0  0
   -2.6293    2.3804    0.4824 H   0  0  0  0  0  0  0  0  0  0  0  0
   -0.6950   -3.3232    0.0404 H   0  0  0  0  0  0  0  0  0  0  0  0
   -2.2373   -2.5966   -0.1808 H   0  0  0  0  0  0  0  0  0  0  0  0
  1  7  1  0  0  0  0
  1  8  1  0  0  0  0
  2  7  1  0  0  0  0
  3 10  1  0  0  0  0
  4 10  2  0  0  0  0
  5 11  1  0  0  0  0
  6 11  2  0  0  0  0
  7 13  2  0  0  0  0
  8 14  2  0  0  0  0
  9 15  1  0  0  0  0
  9 19  1  0  0  0  0
  9 20  1  0  0  0  0
 10 16  1  0  0  0  0
 11 17  1  0  0  0  0
 12 18  1  0  0  0  0
 12 21  1  0  0  0  0
 12 22  1  0  0  0  0
 13 14  1  0  0  0  0
 13 15  1  0  0  0  0
 14 16  1  0  0  0  0
 15 17  2  0  0  0  0
 16 18  2  0  0  0  0
 17 18  1  0  0  0  0
M  CHG  6   2  -1   3  -1   5  -1   7   1  10   1  11   1
M  END
> <PUBCHEM_COMPOUND_CID>
14228263

> <PUBCHEM_CONFORMER_RMSD>
0.6

> <PUBCHEM_CONFORMER_DIVERSEORDER>
1

> <PUBCHEM_MMFF94_PARTIAL_CHARGES>
22
1 -0.12
10 0.91
11 0.91
12 -0.9
13 -0.08
14 0.29
15 0.1
16 0.13
17 0.13
18 0.1
19 0.4
2 -0.63
20 0.4
21 0.4
22 0.4
3 -0.52
4 -0.52
5 -0.52
6 -0.52
7 0.95
8 -0.41
9 -0.9

> <PUBCHEM_EFFECTIVE_ROTOR_COUNT>
2

> <PUBCHEM_PHARMACOPHORE_FEATURES>
14
1 12 cation
1 12 donor
1 2 anion
1 3 acceptor
1 3 anion
1 4 acceptor
1 5 acceptor
1 5 anion
1 6 acceptor
1 8 acceptor
1 9 cation
1 9 donor
5 1 7 8 13 14 rings
6 13 14 15 16 17 18 rings

> <PUBCHEM_HEAVY_ATOM_COUNT>
18

> <PUBCHEM_ATOM_DEF_STEREO_COUNT>
0

> <PUBCHEM_ATOM_UDEF_STEREO_COUNT>
0

> <PUBCHEM_BOND_DEF_STEREO_COUNT>
0

> <PUBCHEM_BOND_UDEF_STEREO_COUNT>
0

> <PUBCHEM_ISOTOPIC_ATOM_COUNT>
0

> <PUBCHEM_COMPONENT_COUNT>
1

> <PUBCHEM_CACTVS_TAUTO_COUNT>
15

> <PUBCHEM_CONFORMER_ID>
00D91B2700000001

> <PUBCHEM_MMFF94_ENERGY>
93.111

> <PUBCHEM_FEATURE_SELFOVERLAP>
71.342

> <PUBCHEM_SHAPE_FINGERPRINT>
10411042 1 18122626046445601223
10967382 1 18410575054666931589
12553582 1 18050571746415168955
13140716 1 18122626320958862145
13380535 76 18264483073523050827
13897977 150 18337669823406251685
14790565 3 17260487868300357992
15442244 35 18196656194529323665
16945 1 18410856598384328421
193761 8 18410575063235780165
19591789 44 17977955901091466370
20510252 161 17478338985740245721
20645477 70 18335410310206083111
21501502 16 18339083666294365809
2334 1 17762055844989771849
23526114 1 18338517413352734492
241688 4 18050286959870480216
2748010 2 18194678172599089244
352729 6 17762056940296070634
54173680 148 17401206672903973938
7364860 26 18411981355745318378
81228 2 17546164099850398362

> <PUBCHEM_SHAPE_MULTIPOLES>
305.33
4.16
3.87
0.55
2.14
0.23
0
-0.5
0
-1.88
0
0
0
0

> <PUBCHEM_SHAPE_SELFOVERLAP>
672.842

> <PUBCHEM_SHAPE_VOLUME>
164.5

> <PUBCHEM_COORDINATE_TYPE>
2
5
10

$$$$
