14258195
  -OEChem-03292013303D

 32 35  0     1  0  0  0  0  0999 V2000
    4.2864    0.0775   -0.6083 P   0  0  2  0  0  0  0  0  0  0  0  0
    0.5720    0.2294    1.5995 O   0  0  0  0  0  0  0  0  0  0  0  0
    2.9446   -0.8082   -0.8621 O   0  0  0  0  0  0  0  0  0  0  0  0
    4.1783    0.6142    0.9220 O   0  0  0  0  0  0  0  0  0  0  0  0
    0.8784   -2.5017   -0.0565 O   0  0  0  0  0  0  0  0  0  0  0  0
    4.0659    1.4073   -1.5051 O   0  0  0  0  0  0  0  0  0  0  0  0
    5.5669   -0.6454   -0.9145 O   0  0  0  0  0  0  0  0  0  0  0  0
   -1.4277    0.2674    0.3057 N   0  0  0  0  0  0  0  0  0  0  0  0
   -2.5285    2.0801   -0.3834 N   0  0  0  0  0  0  0  0  0  0  0  0
   -3.2324   -1.3580    0.2591 N   0  0  0  0  0  0  0  0  0  0  0  0
   -5.3239   -0.3400   -0.4796 N   0  0  0  0  0  0  0  0  0  0  0  0
    1.7505   -0.2750   -0.3359 C   0  0  2  0  0  0  0  0  0  0  0  0
    1.8976   -0.0510    1.1546 C   0  0  1  0  0  0  0  0  0  0  0  0
    0.5253   -1.1593   -0.3765 C   0  0  2  0  0  0  0  0  0  0  0  0
   -0.3172   -0.5656    0.7686 C   0  0  1  0  0  0  0  0  0  0  0  0
    2.9119    1.0414    1.4265 C   0  0  0  0  0  0  0  0  0  0  0  0
   -2.7171   -0.1307    0.0923 C   0  0  0  0  0  0  0  0  0  0  0  0
   -1.3650    1.6030    0.0067 C   0  0  0  0  0  0  0  0  0  0  0  0
   -3.3828    1.0072   -0.3347 C   0  0  0  0  0  0  0  0  0  0  0  0
   -4.7365    0.8720   -0.6258 C   0  0  0  0  0  0  0  0  0  0  0  0
   -4.5468   -1.3647   -0.0525 C   0  0  0  0  0  0  0  0  0  0  0  0
    1.5155    0.6649   -0.8510 H   0  0  0  0  0  0  0  0  0  0  0  0
    2.2457   -0.9698    1.6477 H   0  0  0  0  0  0  0  0  0  0  0  0
    0.0335   -1.1656   -1.3539 H   0  0  0  0  0  0  0  0  0  0  0  0
   -0.7467   -1.3426    1.4116 H   0  0  0  0  0  0  0  0  0  0  0  0
    2.6296    1.9921    0.9619 H   0  0  0  0  0  0  0  0  0  0  0  0
    3.0055    1.2224    2.5018 H   0  0  0  0  0  0  0  0  0  0  0  0
    0.0553   -3.0190   -0.0303 H   0  0  0  0  0  0  0  0  0  0  0  0
   -0.4519    2.1774    0.0860 H   0  0  0  0  0  0  0  0  0  0  0  0
    3.2707    1.9632   -1.3637 H   0  0  0  0  0  0  0  0  0  0  0  0
   -5.3652    1.6840   -0.9671 H   0  0  0  0  0  0  0  0  0  0  0  0
   -5.0497   -2.3201    0.0531 H   0  0  0  0  0  0  0  0  0  0  0  0
  1  3  1  0  0  0  0
  1  4  1  0  0  0  0
  1  6  1  0  0  0  0
  1  7  2  0  0  0  0
  2 13  1  0  0  0  0
  2 15  1  0  0  0  0
  3 12  1  0  0  0  0
  4 16  1  0  0  0  0
  5 14  1  0  0  0  0
  5 28  1  0  0  0  0
  6 30  1  0  0  0  0
  8 15  1  0  0  0  0
  8 17  1  0  0  0  0
  8 18  1  0  0  0  0
  9 18  2  0  0  0  0
  9 19  1  0  0  0  0
 10 17  2  0  0  0  0
 10 21  1  0  0  0  0
 11 20  1  0  0  0  0
 11 21  2  0  0  0  0
 12 13  1  0  0  0  0
 12 14  1  0  0  0  0
 12 22  1  0  0  0  0
 13 16  1  0  0  0  0
 13 23  1  0  0  0  0
 14 15  1  0  0  0  0
 14 24  1  0  0  0  0
 15 25  1  0  0  0  0
 16 26  1  0  0  0  0
 16 27  1  0  0  0  0
 17 19  1  0  0  0  0
 18 29  1  0  0  0  0
 19 20  2  0  0  0  0
 20 31  1  0  0  0  0
 21 32  1  0  0  0  0
M  END
> <PUBCHEM_COMPOUND_CID>
14258195

> <PUBCHEM_CONFORMER_RMSD>
0.6

> <PUBCHEM_CONFORMER_DIVERSEORDER>
1
10
4
7
2
9
8
5
6
3

> <PUBCHEM_MMFF94_PARTIAL_CHARGES>
26
1 1.51
10 -0.57
11 -0.62
12 0.28
13 0.28
14 0.28
15 0.54
16 0.28
17 0.11
18 0.04
19 0.23
2 -0.56
20 0.16
21 0.47
28 0.4
29 0.15
3 -0.55
30 0.5
31 0.15
32 0.15
4 -0.55
5 -0.68
6 -0.77
7 -0.7
8 0.05
9 -0.57

> <PUBCHEM_EFFECTIVE_ROTOR_COUNT>
2.2

> <PUBCHEM_PHARMACOPHORE_FEATURES>
12
1 2 acceptor
1 5 acceptor
1 5 donor
1 6 acceptor
1 7 acceptor
3 10 11 21 cation
3 8 10 17 cation
3 8 9 18 cation
5 2 12 13 14 15 rings
5 8 9 17 18 19 rings
6 1 3 4 12 13 16 rings
6 10 11 17 19 20 21 rings

> <PUBCHEM_HEAVY_ATOM_COUNT>
21

> <PUBCHEM_ATOM_DEF_STEREO_COUNT>
4

> <PUBCHEM_ATOM_UDEF_STEREO_COUNT>
0

> <PUBCHEM_BOND_DEF_STEREO_COUNT>
0

> <PUBCHEM_BOND_UDEF_STEREO_COUNT>
0

> <PUBCHEM_ISOTOPIC_ATOM_COUNT>
0

> <PUBCHEM_COMPONENT_COUNT>
1

> <PUBCHEM_CACTVS_TAUTO_COUNT>
1

> <PUBCHEM_CONFORMER_ID>
00D9901300000001

> <PUBCHEM_MMFF94_ENERGY>
34.135

> <PUBCHEM_FEATURE_SELFOVERLAP>
61.601

> <PUBCHEM_SHAPE_FINGERPRINT>
10366900 7 18342450439997816611
10498660 4 18335415742770182285
11089746 13 16805324414175664516
12236239 1 17022899047454668683
12390115 104 18198906899643910913
12403259 415 18273210911310073920
128620 24 18272930531291385205
13533116 47 16009018463107469680
13551218 46 11959465469652435773
13675066 3 9439400259223165453
14350574 20 17704076200623984446
14739800 52 17896309398177911376
14790565 3 17762055442129055341
15142383 8 14979969029497126763
15209289 33 12895067414444295845
15375462 189 12391516347604404516
15961568 22 18188484813143871740
16988056 13 14727717616139347989
17349148 13 17749108893788263975
17844677 252 17346601884921910145
18186145 218 17917994975279212202
19784866 140 17132119000539890810
200 152 16558752295463455682
20645477 70 17275102803898530382
20871999 31 18408318874693473333
21267235 1 18336833082737153619
221357 26 17846777382139232625
2297311 6 18411986866721265053
23366157 5 17825103705811469587
23402539 116 18187362142518691591
23557571 272 18341336612933085949
23559900 14 18338509721092979851
2838139 119 17822865298391414524
2871803 45 18272082786483369715
296302 2 15430035452836593249
3323516 105 17989204854151954290
3472631 163 17749384811684293541
34797466 226 18340216283356110077
351380 180 18113621192353163340
465052 167 14620505792377114709
474 4 16733274555131354172
4990 188 17561084700420206748
5104073 3 18339077082473492355
5281201 14 17775566442240919104
542803 24 17312819368693815209
633830 44 17917983988468344057
7495541 125 18060138760549873578

> <PUBCHEM_SHAPE_MULTIPOLES>
380.88
10.86
1.7
1.16
0.19
0.16
0.18
-0.33
-3.18
0.71
-0.17
-1.24
-0.23
0.52

> <PUBCHEM_SHAPE_SELFOVERLAP>
827.124

> <PUBCHEM_SHAPE_VOLUME>
209.2

> <PUBCHEM_COORDINATE_TYPE>
2
5
10

$$$$
