142773
  -OEChem-03292013323D

 46 45  0     1  0  0  0  0  0999 V2000
    5.9992   -2.2149   -0.2611 S   0  0  0  0  0  0  0  0  0  0  0  0
   -6.2357   -2.0013   -0.0604 S   0  0  0  0  0  0  0  0  0  0  0  0
    0.2918    4.2267    1.0237 O   0  0  0  0  0  0  0  0  0  0  0  0
   -1.0672    3.5764   -1.3861 O   0  0  0  0  0  0  0  0  0  0  0  0
    5.0742   -1.1128    0.5105 O   0  0  0  0  0  0  0  0  0  0  0  0
   -5.0037   -1.1022    0.5222 O   0  0  0  0  0  0  0  0  0  0  0  0
    6.9717   -1.5319   -1.0898 O   0  0  0  0  0  0  0  0  0  0  0  0
    5.1563   -3.2732   -0.7795 O   0  0  0  0  0  0  0  0  0  0  0  0
   -5.7027   -3.1108   -0.8245 O   0  0  0  0  0  0  0  0  0  0  0  0
   -7.2621   -1.1265   -0.5900 O   0  0  0  0  0  0  0  0  0  0  0  0
    2.5198    1.4735   -0.0653 N   0  0  0  0  0  0  0  0  0  0  0  0
   -2.2774    1.1406   -0.5183 N   0  0  0  0  0  0  0  0  0  0  0  0
    0.8717    3.3338    0.0687 C   0  0  2  0  0  0  0  0  0  0  0  0
   -0.2678    2.6190   -0.6871 C   0  0  1  0  0  0  0  0  0  0  0  0
    1.8363    2.4056    0.8208 C   0  0  0  0  0  0  0  0  0  0  0  0
   -1.2241    1.8273    0.2172 C   0  0  0  0  0  0  0  0  0  0  0  0
    3.4380    0.6236    0.6806 C   0  0  0  0  0  0  0  0  0  0  0  0
   -3.1339    0.3833    0.3841 C   0  0  0  0  0  0  0  0  0  0  0  0
    4.1797   -0.3168   -0.2558 C   0  0  0  0  0  0  0  0  0  0  0  0
   -4.2042   -0.3657   -0.3939 C   0  0  0  0  0  0  0  0  0  0  0  0
    6.8341   -2.8286    1.1797 C   0  0  0  0  0  0  0  0  0  0  0  0
   -6.7941   -2.6250    1.5044 C   0  0  0  0  0  0  0  0  0  0  0  0
    1.4347    3.9578   -0.6365 H   0  0  0  0  0  0  0  0  0  0  0  0
    0.1664    1.9537   -1.4429 H   0  0  0  0  0  0  0  0  0  0  0  0
    2.5702    3.0328    1.3448 H   0  0  0  0  0  0  0  0  0  0  0  0
    1.2949    1.8680    1.6085 H   0  0  0  0  0  0  0  0  0  0  0  0
   -1.6944    2.5178    0.9283 H   0  0  0  0  0  0  0  0  0  0  0  0
   -0.6507    1.0916    0.7916 H   0  0  0  0  0  0  0  0  0  0  0  0
    3.0297    1.9913   -0.7806 H   0  0  0  0  0  0  0  0  0  0  0  0
   -1.8613    0.5144   -1.2071 H   0  0  0  0  0  0  0  0  0  0  0  0
    4.1699    1.2270    1.2326 H   0  0  0  0  0  0  0  0  0  0  0  0
    2.8952    0.0295    1.4264 H   0  0  0  0  0  0  0  0  0  0  0  0
   -3.6199    1.0500    1.1073 H   0  0  0  0  0  0  0  0  0  0  0  0
   -2.5484   -0.3386    0.9677 H   0  0  0  0  0  0  0  0  0  0  0  0
   -0.3065    4.8216    0.5400 H   0  0  0  0  0  0  0  0  0  0  0  0
   -1.7506    3.0861   -1.8745 H   0  0  0  0  0  0  0  0  0  0  0  0
    3.4750   -0.9715   -0.7815 H   0  0  0  0  0  0  0  0  0  0  0  0
    4.7529    0.2503   -0.9983 H   0  0  0  0  0  0  0  0  0  0  0  0
   -4.8412    0.3358   -0.9449 H   0  0  0  0  0  0  0  0  0  0  0  0
   -3.7474   -1.0605   -1.1081 H   0  0  0  0  0  0  0  0  0  0  0  0
    6.0947   -3.2435    1.8673 H   0  0  0  0  0  0  0  0  0  0  0  0
    7.5288   -3.6093    0.8628 H   0  0  0  0  0  0  0  0  0  0  0  0
    7.3824   -2.0085    1.6471 H   0  0  0  0  0  0  0  0  0  0  0  0
   -7.0910   -1.7846    2.1348 H   0  0  0  0  0  0  0  0  0  0  0  0
   -7.6511   -3.2771    1.3238 H   0  0  0  0  0  0  0  0  0  0  0  0
   -5.9849   -3.1920    1.9684 H   0  0  0  0  0  0  0  0  0  0  0  0
  1  5  1  0  0  0  0
  1  7  2  0  0  0  0
  1  8  2  0  0  0  0
  1 21  1  0  0  0  0
  2  6  1  0  0  0  0
  2  9  2  0  0  0  0
  2 10  2  0  0  0  0
  2 22  1  0  0  0  0
  3 13  1  0  0  0  0
  3 35  1  0  0  0  0
  4 14  1  0  0  0  0
  4 36  1  0  0  0  0
  5 19  1  0  0  0  0
  6 20  1  0  0  0  0
 11 15  1  0  0  0  0
 11 17  1  0  0  0  0
 11 29  1  0  0  0  0
 12 16  1  0  0  0  0
 12 18  1  0  0  0  0
 12 30  1  0  0  0  0
 13 14  1  0  0  0  0
 13 15  1  0  0  0  0
 13 23  1  0  0  0  0
 14 16  1  0  0  0  0
 14 24  1  0  0  0  0
 15 25  1  0  0  0  0
 15 26  1  0  0  0  0
 16 27  1  0  0  0  0
 16 28  1  0  0  0  0
 17 19  1  0  0  0  0
 17 31  1  0  0  0  0
 17 32  1  0  0  0  0
 18 20  1  0  0  0  0
 18 33  1  0  0  0  0
 18 34  1  0  0  0  0
 19 37  1  0  0  0  0
 19 38  1  0  0  0  0
 20 39  1  0  0  0  0
 20 40  1  0  0  0  0
 21 41  1  0  0  0  0
 21 42  1  0  0  0  0
 21 43  1  0  0  0  0
 22 44  1  0  0  0  0
 22 45  1  0  0  0  0
 22 46  1  0  0  0  0
M  END
> <PUBCHEM_COMPOUND_CID>
142773

> <PUBCHEM_CONFORMER_RMSD>
1

> <PUBCHEM_CONFORMER_DIVERSEORDER>
1
47
195
74
134
87
139
48
117
103
16
19
153
32
33
127
136
69
41
86
50
149
35
191
98
188
192
109
137
133
8
84
158
91
67
129
104
161
193
58
162
185
64
128
65
96
156
160
163
164
148
38
102
4
169
89
145
189
76
70
130
11
17
152
114
56
93
151
77
115
99
31
52
28
3
120
181
119
73
7
170
53
55
178
72
27
54
187
135
118
15
57
138
106
83
45
21
105
90
140
112
131
150
26
51
66
190
44
165
116
171
46
80
101
132
36
183
110
2
108
142
81
113
175
121
42
62
179
180
92
59
88
122
143
85
40
123
176
18
14
194
174
23
97
13
111
20
141
78
60
147
154
24
61
37
184
124
34
43
167
94
75
159
107
186
49
30
5
63
95
126
9
25
155
6
22
157
10
125
68
71
82
12
146
182
39
166
29
177
173
168
172
100
79
144

> <PUBCHEM_MMFF94_PARTIAL_CHARGES>
26
1 1.38
10 -0.65
11 -0.9
12 -0.9
13 0.28
14 0.28
15 0.27
16 0.27
17 0.27
18 0.27
19 0.28
2 1.38
20 0.28
21 0.11
22 0.11
29 0.36
3 -0.68
30 0.36
35 0.4
36 0.4
4 -0.68
5 -0.46
6 -0.46
7 -0.65
8 -0.65
9 -0.65

> <PUBCHEM_EFFECTIVE_ROTOR_COUNT>
13

> <PUBCHEM_PHARMACOPHORE_FEATURES>
12
1 10 acceptor
1 11 cation
1 11 donor
1 12 cation
1 12 donor
1 3 acceptor
1 3 donor
1 4 acceptor
1 4 donor
1 7 acceptor
1 8 acceptor
1 9 acceptor

> <PUBCHEM_HEAVY_ATOM_COUNT>
22

> <PUBCHEM_ATOM_DEF_STEREO_COUNT>
2

> <PUBCHEM_ATOM_UDEF_STEREO_COUNT>
0

> <PUBCHEM_BOND_DEF_STEREO_COUNT>
0

> <PUBCHEM_BOND_UDEF_STEREO_COUNT>
0

> <PUBCHEM_ISOTOPIC_ATOM_COUNT>
0

> <PUBCHEM_COMPONENT_COUNT>
1

> <PUBCHEM_CACTVS_TAUTO_COUNT>
1

> <PUBCHEM_CONFORMER_ID>
00022DB500000001

> <PUBCHEM_MMFF94_ENERGY>
14.1574

> <PUBCHEM_FEATURE_SELFOVERLAP>
60.941

> <PUBCHEM_SHAPE_FINGERPRINT>
10319688 140 18264491865738272436
10571361 74 17626937926975364479
11059845 2 17844268245861925097
12107183 9 18271819986605289689
13533116 47 18196655322946569817
13631057 29 18335421202364127376
13911852 28 18411698807396321733
13955234 65 17983012555258214513
14123256 34 18410577287992130615
14251740 57 18340199799276876672
14251764 30 18411698785604870254
14866123 147 18338802187614019225
15803439 3 14345801539144736648
17859628 70 18195244644463324689
20165401 70 18198341956693879927
20398071 356 18409733988950273771
20843269 155 18191298291900689530
21054139 6 17824827742422226042
21307412 95 18263915554257515037
21585481 104 16153986824877599598
21682296 61 18336828684622148803
270888 7 9295285041114141576
2748736 6 9439402397980086170
2835820 33 18336257974259176578
56633871 153 18201432610205179303
5718773 13 18409444769804578522
636775 8 18269845225394100382
7062679 13 18409446947611083576
77188 2 18412825810831185160
7970288 3 18412261727031939774
8217 86 18410295775204681172

> <PUBCHEM_SHAPE_MULTIPOLES>
403.53
21.23
5.52
1.11
5.02
2.83
-0.1
-34.39
-0.43
-1.58
-0.17
0.06
-0.17
1.08

> <PUBCHEM_SHAPE_SELFOVERLAP>
738.136

> <PUBCHEM_SHAPE_VOLUME>
257

> <PUBCHEM_COORDINATE_TYPE>
2
5
10

$$$$
