14282057
  -OEChem-03292013303D

 46 49  0     1  0  0  0  0  0999 V2000
    0.1001   -0.4740    0.3725 O   0  0  0  0  0  0  0  0  0  0  0  0
    0.7608    2.3246    0.3333 O   0  0  0  0  0  0  0  0  0  0  0  0
    2.0533   -2.3255    0.0436 O   0  0  0  0  0  0  0  0  0  0  0  0
   -1.2184    4.1164   -0.2284 O   0  0  0  0  0  0  0  0  0  0  0  0
    3.3592    3.0661    0.0867 O   0  0  0  0  0  0  0  0  0  0  0  0
   -4.5075   -1.0704   -1.9098 O   0  0  0  0  0  0  0  0  0  0  0  0
   -6.0430   -1.5443    0.3575 O   0  0  0  0  0  0  0  0  0  0  0  0
    2.7114   -4.5132   -0.1185 O   0  0  0  0  0  0  0  0  0  0  0  0
   -0.7990    0.5377    0.8590 C   0  0  1  0  0  0  0  0  0  0  0  0
   -0.5747    1.8496    0.0898 C   0  0  1  0  0  0  0  0  0  0  0  0
   -2.1994   -0.0185    0.7217 C   0  0  0  0  0  0  0  0  0  0  0  0
    1.3788   -0.0176    0.2164 C   0  0  0  0  0  0  0  0  0  0  0  0
    1.7002    1.3379    0.2073 C   0  0  0  0  0  0  0  0  0  0  0  0
   -1.5152    2.9675    0.5315 C   0  0  0  0  0  0  0  0  0  0  0  0
    2.3979   -0.9563    0.0508 C   0  0  0  0  0  0  0  0  0  0  0  0
    3.0308    1.7432    0.0778 C   0  0  0  0  0  0  0  0  0  0  0  0
    3.7282   -0.5688   -0.0946 C   0  0  0  0  0  0  0  0  0  0  0  0
   -2.7194   -0.2930   -0.5429 C   0  0  0  0  0  0  0  0  0  0  0  0
   -2.9697   -0.2560    1.8598 C   0  0  0  0  0  0  0  0  0  0  0  0
    4.0433    0.7918   -0.0752 C   0  0  0  0  0  0  0  0  0  0  0  0
   -4.0106   -0.8052   -0.6695 C   0  0  0  0  0  0  0  0  0  0  0  0
   -4.2609   -0.7682    1.7333 C   0  0  0  0  0  0  0  0  0  0  0  0
    4.7463   -1.5932   -0.2566 C   0  0  0  0  0  0  0  0  0  0  0  0
   -4.7813   -1.0430    0.4686 C   0  0  0  0  0  0  0  0  0  0  0  0
    4.4076   -2.8846   -0.2645 C   0  0  0  0  0  0  0  0  0  0  0  0
    3.0090   -3.3239   -0.1109 C   0  0  0  0  0  0  0  0  0  0  0  0
    3.3794    3.7366   -1.1715 C   0  0  0  0  0  0  0  0  0  0  0  0
   -5.2071   -0.0154   -2.5669 C   0  0  0  0  0  0  0  0  0  0  0  0
   -0.5645    0.6887    1.9228 H   0  0  0  0  0  0  0  0  0  0  0  0
   -0.6628    1.7086   -0.9965 H   0  0  0  0  0  0  0  0  0  0  0  0
   -2.5650    2.7131    0.3645 H   0  0  0  0  0  0  0  0  0  0  0  0
   -1.3757    3.2144    1.5893 H   0  0  0  0  0  0  0  0  0  0  0  0
   -2.1249   -0.1200   -1.4365 H   0  0  0  0  0  0  0  0  0  0  0  0
   -2.5781   -0.0465    2.8515 H   0  0  0  0  0  0  0  0  0  0  0  0
    5.0752    1.1195   -0.1810 H   0  0  0  0  0  0  0  0  0  0  0  0
   -4.8563   -0.9512    2.6237 H   0  0  0  0  0  0  0  0  0  0  0  0
    5.7818   -1.2923   -0.3707 H   0  0  0  0  0  0  0  0  0  0  0  0
   -0.2851    4.3421   -0.0735 H   0  0  0  0  0  0  0  0  0  0  0  0
    5.1627   -3.6537   -0.3852 H   0  0  0  0  0  0  0  0  0  0  0  0
    3.6473    4.7824   -0.9982 H   0  0  0  0  0  0  0  0  0  0  0  0
    2.3922    3.7022   -1.6434 H   0  0  0  0  0  0  0  0  0  0  0  0
    4.1277    3.2887   -1.8329 H   0  0  0  0  0  0  0  0  0  0  0  0
   -6.2271   -1.7131   -0.5825 H   0  0  0  0  0  0  0  0  0  0  0  0
   -5.5714   -0.3918   -3.5267 H   0  0  0  0  0  0  0  0  0  0  0  0
   -6.0648    0.3128   -1.9713 H   0  0  0  0  0  0  0  0  0  0  0  0
   -4.5357    0.8286   -2.7540 H   0  0  0  0  0  0  0  0  0  0  0  0
  1  9  1  0  0  0  0
  1 12  1  0  0  0  0
  2 10  1  0  0  0  0
  2 13  1  0  0  0  0
  3 15  1  0  0  0  0
  3 26  1  0  0  0  0
  4 14  1  0  0  0  0
  4 38  1  0  0  0  0
  5 16  1  0  0  0  0
  5 27  1  0  0  0  0
  6 21  1  0  0  0  0
  6 28  1  0  0  0  0
  7 24  1  0  0  0  0
  7 43  1  0  0  0  0
  8 26  2  0  0  0  0
  9 10  1  0  0  0  0
  9 11  1  0  0  0  0
  9 29  1  0  0  0  0
 10 14  1  0  0  0  0
 10 30  1  0  0  0  0
 11 18  2  0  0  0  0
 11 19  1  0  0  0  0
 12 13  1  0  0  0  0
 12 15  2  0  0  0  0
 13 16  2  0  0  0  0
 14 31  1  0  0  0  0
 14 32  1  0  0  0  0
 15 17  1  0  0  0  0
 16 20  1  0  0  0  0
 17 20  2  0  0  0  0
 17 23  1  0  0  0  0
 18 21  1  0  0  0  0
 18 33  1  0  0  0  0
 19 22  2  0  0  0  0
 19 34  1  0  0  0  0
 20 35  1  0  0  0  0
 21 24  2  0  0  0  0
 22 24  1  0  0  0  0
 22 36  1  0  0  0  0
 23 25  2  0  0  0  0
 23 37  1  0  0  0  0
 25 26  1  0  0  0  0
 25 39  1  0  0  0  0
 27 40  1  0  0  0  0
 27 41  1  0  0  0  0
 27 42  1  0  0  0  0
 28 44  1  0  0  0  0
 28 45  1  0  0  0  0
 28 46  1  0  0  0  0
M  END
> <PUBCHEM_COMPOUND_CID>
14282057

> <PUBCHEM_CONFORMER_RMSD>
0.8

> <PUBCHEM_CONFORMER_DIVERSEORDER>
5
1
21
28
25
16
12
24
27
18
3
15
6
19
14
9
2
7
22
30
26
17
4
10
20
8
23
29
31
13
11

> <PUBCHEM_MMFF94_PARTIAL_CHARGES>
36
1 -0.36
10 0.28
11 -0.14
12 0.08
13 0.08
14 0.28
15 0.08
16 0.08
17 0.03
18 -0.15
19 -0.15
2 -0.36
20 -0.15
21 0.08
22 -0.15
23 -0.18
24 0.08
25 -0.14
26 0.71
27 0.28
28 0.28
3 -0.23
33 0.15
34 0.15
35 0.15
36 0.15
37 0.15
38 0.4
39 0.15
4 -0.68
43 0.45
5 -0.36
6 -0.36
7 -0.53
8 -0.57
9 0.42

> <PUBCHEM_EFFECTIVE_ROTOR_COUNT>
4.8

> <PUBCHEM_PHARMACOPHORE_FEATURES>
12
1 1 acceptor
1 2 acceptor
1 4 acceptor
1 4 donor
1 5 acceptor
1 6 acceptor
1 7 donor
1 8 acceptor
6 1 2 9 10 12 13 rings
6 11 18 19 21 22 24 rings
6 12 13 15 16 17 20 rings
6 3 15 17 23 25 26 rings

> <PUBCHEM_HEAVY_ATOM_COUNT>
28

> <PUBCHEM_ATOM_DEF_STEREO_COUNT>
0

> <PUBCHEM_ATOM_UDEF_STEREO_COUNT>
2

> <PUBCHEM_BOND_DEF_STEREO_COUNT>
0

> <PUBCHEM_BOND_UDEF_STEREO_COUNT>
0

> <PUBCHEM_ISOTOPIC_ATOM_COUNT>
0

> <PUBCHEM_COMPONENT_COUNT>
1

> <PUBCHEM_CACTVS_TAUTO_COUNT>
3

> <PUBCHEM_CONFORMER_ID>
00D9ED4900000005

> <PUBCHEM_MMFF94_ENERGY>
113.115

> <PUBCHEM_FEATURE_SELFOVERLAP>
60.979

> <PUBCHEM_SHAPE_FINGERPRINT>
10090160 65 18338236089100981232
10254770 206 16243491203306903603
10622 236 17702358802422911271
11135926 11 18267305507012965284
12107183 9 17982750584070126689
12236239 1 17774731965003112219
12553582 1 18412547591407263266
13140716 1 18266463303229759138
13533116 47 18272655692487728603
13544653 18 18409174285516978123
13690498 29 18124897667638281678
13782708 43 17676488389106404971
13911987 19 17974582595012252204
14767858 380 18264512645412257550
14790565 3 17689170318907917768
17138139 8 17270299230844328367
17357779 13 18261108556552539933
17492 89 18339645516778786234
17818456 19 17558004860961203177
1813 80 18200048290869191757
20511986 3 17703783734931497649
20645477 70 18334575784478996050
20775438 99 17614512091970173004
20775530 9 18122633756090999050
21033650 10 16370725890303350461
21285901 2 17822002155613640725
21703447 108 18339630179645459184
221490 88 18337116657525526304
22393880 68 17821721737299494867
23557571 272 17095522924482973701
23559900 14 18335137592219036448
314194 84 18271526511136187715
34797466 226 16878231973408910727
3882209 13 17179371427599180987
46194498 28 17605553460816784189
463206 1 18341893038573026959
5104073 3 18124876764422848890
59682541 52 18196063669889811567
602551 16 15267337461489181367
70251023 43 18410013200046358763
7164475 11 18410014303890435220
9709674 26 18335427833055160792

> <PUBCHEM_SHAPE_MULTIPOLES>
529.27
11.45
4.53
1.37
8.74
1.1
0.51
-6.56
2.7
-6.23
0.64
2.77
-0.05
-0.21

> <PUBCHEM_SHAPE_SELFOVERLAP>
1166.281

> <PUBCHEM_SHAPE_VOLUME>
284.1

> <PUBCHEM_COORDINATE_TYPE>
2
5
10

$$$$
