14345476
  -OEChem-03292013303D

 48 50  0     1  0  0  0  0  0999 V2000
   -1.5562    1.3551    0.8101 O   0  0  0  0  0  0  0  0  0  0  0  0
   -0.8416   -0.2571   -0.7692 O   0  0  0  0  0  0  0  0  0  0  0  0
   -5.1668   -0.1124   -0.5504 O   0  0  0  0  0  0  0  0  0  0  0  0
   -4.2812    2.4967   -1.3904 O   0  0  0  0  0  0  0  0  0  0  0  0
   -0.7130    3.9317    0.4877 O   0  0  0  0  0  0  0  0  0  0  0  0
   -2.8917   -2.8176    2.1654 O   0  0  0  0  0  0  0  0  0  0  0  0
    3.4605    1.3472    0.5274 O   0  0  0  0  0  0  0  0  0  0  0  0
    5.5154    2.1304    1.1543 O   0  0  0  0  0  0  0  0  0  0  0  0
   -2.9981   -1.9576    0.0047 N   0  0  0  0  0  0  0  0  0  0  0  0
   -2.9794   -0.5542    0.3485 C   0  0  2  0  0  0  0  0  0  0  0  0
   -3.7944    0.2738   -0.6483 C   0  0  2  0  0  0  0  0  0  0  0  0
   -3.6793    1.7666   -0.3242 C   0  0  1  0  0  0  0  0  0  0  0  0
   -2.2153    2.1874   -0.1504 C   0  0  1  0  0  0  0  0  0  0  0  0
   -1.5442   -0.0287    0.4509 C   0  0  2  0  0  0  0  0  0  0  0  0
   -2.0877    3.6260    0.3435 C   0  0  0  0  0  0  0  0  0  0  0  0
   -2.9523   -2.9704    0.9482 C   0  0  0  0  0  0  0  0  0  0  0  0
    0.5087   -0.4552   -0.6713 C   0  0  0  0  0  0  0  0  0  0  0  0
    1.3141    0.5335   -0.1257 C   0  0  0  0  0  0  0  0  0  0  0  0
    1.0665   -1.6470   -1.1193 C   0  0  0  0  0  0  0  0  0  0  0  0
   -3.0108   -4.3377    0.3214 C   0  0  0  0  0  0  0  0  0  0  0  0
    2.6892    0.3106   -0.0353 C   0  0  0  0  0  0  0  0  0  0  0  0
    3.2831   -0.8734   -0.4749 C   0  0  0  0  0  0  0  0  0  0  0  0
    2.4469   -1.8559   -1.0219 C   0  0  0  0  0  0  0  0  0  0  0  0
    4.7385   -1.0226   -0.3408 C   0  0  0  0  0  0  0  0  0  0  0  0
    5.4469   -0.0202    0.1979 C   0  0  0  0  0  0  0  0  0  0  0  0
    5.4072   -2.2837   -0.8044 C   0  0  0  0  0  0  0  0  0  0  0  0
    4.8350    1.2346    0.6666 C   0  0  0  0  0  0  0  0  0  0  0  0
   -3.4501   -0.4524    1.3364 H   0  0  0  0  0  0  0  0  0  0  0  0
   -3.4838    0.0781   -1.6816 H   0  0  0  0  0  0  0  0  0  0  0  0
   -4.2443    1.9909    0.5896 H   0  0  0  0  0  0  0  0  0  0  0  0
   -1.6782    2.1162   -1.1054 H   0  0  0  0  0  0  0  0  0  0  0  0
   -1.0426   -0.5668    1.2669 H   0  0  0  0  0  0  0  0  0  0  0  0
   -2.5650    3.7589    1.3201 H   0  0  0  0  0  0  0  0  0  0  0  0
   -2.5288    4.3343   -0.3636 H   0  0  0  0  0  0  0  0  0  0  0  0
   -2.9908   -2.2056   -0.9808 H   0  0  0  0  0  0  0  0  0  0  0  0
   -5.4643    0.0550    0.3601 H   0  0  0  0  0  0  0  0  0  0  0  0
   -5.2024    2.1943   -1.4675 H   0  0  0  0  0  0  0  0  0  0  0  0
   -0.3434    3.3175    1.1447 H   0  0  0  0  0  0  0  0  0  0  0  0
    0.9042    1.4777    0.2145 H   0  0  0  0  0  0  0  0  0  0  0  0
    0.4358   -2.4225   -1.5457 H   0  0  0  0  0  0  0  0  0  0  0  0
   -2.8587   -5.1022    1.0881 H   0  0  0  0  0  0  0  0  0  0  0  0
   -3.9889   -4.4864   -0.1445 H   0  0  0  0  0  0  0  0  0  0  0  0
   -2.2268   -4.4371   -0.4350 H   0  0  0  0  0  0  0  0  0  0  0  0
    2.8456   -2.8005   -1.3825 H   0  0  0  0  0  0  0  0  0  0  0  0
    6.5240   -0.0964    0.3122 H   0  0  0  0  0  0  0  0  0  0  0  0
    5.2448   -2.4388   -1.8764 H   0  0  0  0  0  0  0  0  0  0  0  0
    5.0228   -3.1515   -0.2577 H   0  0  0  0  0  0  0  0  0  0  0  0
    6.4907   -2.2548   -0.6431 H   0  0  0  0  0  0  0  0  0  0  0  0
  1 13  1  0  0  0  0
  1 14  1  0  0  0  0
  2 14  1  0  0  0  0
  2 17  1  0  0  0  0
  3 11  1  0  0  0  0
  3 36  1  0  0  0  0
  4 12  1  0  0  0  0
  4 37  1  0  0  0  0
  5 15  1  0  0  0  0
  5 38  1  0  0  0  0
  6 16  2  0  0  0  0
  7 21  1  0  0  0  0
  7 27  1  0  0  0  0
  8 27  2  0  0  0  0
  9 10  1  0  0  0  0
  9 16  1  0  0  0  0
  9 35  1  0  0  0  0
 10 11  1  0  0  0  0
 10 14  1  0  0  0  0
 10 28  1  0  0  0  0
 11 12  1  0  0  0  0
 11 29  1  0  0  0  0
 12 13  1  0  0  0  0
 12 30  1  0  0  0  0
 13 15  1  0  0  0  0
 13 31  1  0  0  0  0
 14 32  1  0  0  0  0
 15 33  1  0  0  0  0
 15 34  1  0  0  0  0
 16 20  1  0  0  0  0
 17 18  2  0  0  0  0
 17 19  1  0  0  0  0
 18 21  1  0  0  0  0
 18 39  1  0  0  0  0
 19 23  2  0  0  0  0
 19 40  1  0  0  0  0
 20 41  1  0  0  0  0
 20 42  1  0  0  0  0
 20 43  1  0  0  0  0
 21 22  2  0  0  0  0
 22 23  1  0  0  0  0
 22 24  1  0  0  0  0
 23 44  1  0  0  0  0
 24 25  2  0  0  0  0
 24 26  1  0  0  0  0
 25 27  1  0  0  0  0
 25 45  1  0  0  0  0
 26 46  1  0  0  0  0
 26 47  1  0  0  0  0
 26 48  1  0  0  0  0
M  END
> <PUBCHEM_COMPOUND_CID>
14345476

> <PUBCHEM_CONFORMER_RMSD>
0.8

> <PUBCHEM_CONFORMER_DIVERSEORDER>
1
47
28
96
71
41
55
73
82
99
63
91
93
32
65
86
78
67
101
14
45
103
106
40
54
98
83
80
51
77
61
35
100
92
105
69
23
10
68
72
57
56
89
37
6
58
59
38
70
88
75
39
97
53
94
33
74
102
27
81
79
64
18
29
9
52
87
42
26
30
60
4
19
90
21
20
24
95
8
76
31
43
104
46
48
36
11
49
85
62
17
2
5
34
22
16
50
25
7
44
66
12
13
3
15
84

> <PUBCHEM_MMFF94_PARTIAL_CHARGES>
35
1 -0.56
10 0.3
11 0.28
12 0.28
13 0.28
14 0.56
15 0.28
16 0.57
17 0.08
18 -0.15
19 -0.15
2 -0.36
20 0.06
21 0.08
22 0.03
23 -0.15
24 -0.17
25 -0.14
26 0.14
27 0.71
3 -0.68
35 0.37
36 0.4
37 0.4
38 0.4
39 0.15
4 -0.68
40 0.15
44 0.15
45 0.15
5 -0.68
6 -0.57
7 -0.23
8 -0.57
9 -0.73

> <PUBCHEM_EFFECTIVE_ROTOR_COUNT>
6.2

> <PUBCHEM_PHARMACOPHORE_FEATURES>
14
1 1 acceptor
1 2 acceptor
1 3 acceptor
1 3 donor
1 4 acceptor
1 4 donor
1 5 acceptor
1 5 donor
1 6 acceptor
1 8 acceptor
1 9 donor
6 1 10 11 12 13 14 rings
6 17 18 19 21 22 23 rings
6 7 21 22 24 25 27 rings

> <PUBCHEM_HEAVY_ATOM_COUNT>
27

> <PUBCHEM_ATOM_DEF_STEREO_COUNT>
5

> <PUBCHEM_ATOM_UDEF_STEREO_COUNT>
0

> <PUBCHEM_BOND_DEF_STEREO_COUNT>
0

> <PUBCHEM_BOND_UDEF_STEREO_COUNT>
0

> <PUBCHEM_ISOTOPIC_ATOM_COUNT>
0

> <PUBCHEM_COMPONENT_COUNT>
1

> <PUBCHEM_CACTVS_TAUTO_COUNT>
2

> <PUBCHEM_CONFORMER_ID>
00DAE50400000001

> <PUBCHEM_MMFF94_ENERGY>
83.6011

> <PUBCHEM_FEATURE_SELFOVERLAP>
71.128

> <PUBCHEM_SHAPE_FINGERPRINT>
10 15 18270949268111835128
10319926 262 18410562978147713458
10366900 7 18202276987689833795
10670039 82 18339939173084842604
10906281 52 18270697410797236301
11045977 3 18411700946490540950
12035758 1 18264508316122029443
12293681 160 18196920086211046649
12596602 18 17823122588565452280
12788726 201 18339354150797783129
13034934 17 17985815154620044456
133893 2 15337448752315393934
13402501 40 18343298163151881097
13583140 156 18272370897395776686
14341114 176 18409454678441414084
14844126 61 18261955258016403547
15463212 79 17895749600434254603
17844677 252 18271249331237328508
19591789 44 16465310656280316317
19958102 18 18188480264477177447
200 152 17346310458394905621
21033648 29 18042400223158068397
21065198 57 18410577254223236022
21133410 52 16542424887632138126
23557571 272 18409733958294379677
23559900 14 18412540981937663944
3380486 145 18267880547927105115
4015057 19 18131340891291233561
4073 2 18335422374811461162
5104073 3 18341896286237846178
5283173 99 18335976472388996589
59755656 520 18041837303912463631
9709674 26 18270687467436106902
9981440 41 18409445847984048235

> <PUBCHEM_SHAPE_MULTIPOLES>
503.71
11.85
4.43
1.13
11.22
0.47
-0.19
0.16
-0.11
-4.86
-1.14
-0.34
0.37
2.85

> <PUBCHEM_SHAPE_SELFOVERLAP>
1072.036

> <PUBCHEM_SHAPE_VOLUME>
277.3

> <PUBCHEM_COORDINATE_TYPE>
2
5
10

$$$$
