14345430
  -OEChem-03292013303D

 47 47  0     1  0  0  0  0  0999 V2000
   -2.8840   -2.8649   -0.7243 S   0  0  0  0  0  0  0  0  0  0  0  0
   -3.9695   -2.2188    0.8912 S   0  0  0  0  0  0  0  0  0  0  0  0
    3.9870   -0.6548    1.4164 O   0  0  0  0  0  0  0  0  0  0  0  0
   -1.6663    1.1400   -1.9195 O   0  0  0  0  0  0  0  0  0  0  0  0
   -3.1904    1.1293   -0.2406 O   0  0  0  0  0  0  0  0  0  0  0  0
    3.3553    0.7045   -0.3543 N   0  0  0  0  0  0  0  0  0  0  0  0
   -2.6985    3.8269    0.1604 N   0  0  0  0  0  0  0  0  0  0  0  0
   -1.2409   -2.7549    0.0490 C   0  0  1  0  0  0  0  0  0  0  0  0
   -0.1819   -2.4033   -0.9848 C   0  0  0  0  0  0  0  0  0  0  0  0
    1.1948   -2.2348   -0.3416 C   0  0  0  0  0  0  0  0  0  0  0  0
   -1.3517   -1.6938    1.1466 C   0  0  0  0  0  0  0  0  0  0  0  0
    2.2506   -1.8533   -1.3835 C   0  0  0  0  0  0  0  0  0  0  0  0
   -2.5718   -1.9770    2.0149 C   0  0  0  0  0  0  0  0  0  0  0  0
    3.6325   -1.6507   -0.7642 C   0  0  0  0  0  0  0  0  0  0  0  0
    0.8071    2.3868    0.0030 C   0  0  0  0  0  0  0  0  0  0  0  0
    1.9491    2.2176    1.0133 C   0  0  0  0  0  0  0  0  0  0  0  0
   -0.5307    2.7938    0.6291 C   0  0  0  0  0  0  0  0  0  0  0  0
    3.3163    1.9367    0.3965 C   0  0  0  0  0  0  0  0  0  0  0  0
    3.6937   -0.5059    0.2331 C   0  0  0  0  0  0  0  0  0  0  0  0
   -1.6359    2.9985   -0.4155 C   0  0  1  0  0  0  0  0  0  0  0  0
   -2.2649    1.6781   -0.8253 C   0  0  0  0  0  0  0  0  0  0  0  0
   -1.0140   -3.7304    0.4956 H   0  0  0  0  0  0  0  0  0  0  0  0
   -0.4463   -1.4736   -1.5048 H   0  0  0  0  0  0  0  0  0  0  0  0
   -0.1283   -3.1911   -1.7471 H   0  0  0  0  0  0  0  0  0  0  0  0
    1.1636   -1.4464    0.4162 H   0  0  0  0  0  0  0  0  0  0  0  0
    1.4883   -3.1638    0.1616 H   0  0  0  0  0  0  0  0  0  0  0  0
   -0.4689   -1.7092    1.7956 H   0  0  0  0  0  0  0  0  0  0  0  0
   -1.4068   -0.6841    0.7218 H   0  0  0  0  0  0  0  0  0  0  0  0
    1.9292   -0.9525   -1.9185 H   0  0  0  0  0  0  0  0  0  0  0  0
    2.3199   -2.6520   -2.1324 H   0  0  0  0  0  0  0  0  0  0  0  0
   -2.7748   -1.1468    2.6974 H   0  0  0  0  0  0  0  0  0  0  0  0
   -2.4290   -2.8847    2.6103 H   0  0  0  0  0  0  0  0  0  0  0  0
    4.3640   -1.4478   -1.5555 H   0  0  0  0  0  0  0  0  0  0  0  0
    3.9556   -2.5660   -0.2546 H   0  0  0  0  0  0  0  0  0  0  0  0
    0.6773    1.4462   -0.5449 H   0  0  0  0  0  0  0  0  0  0  0  0
    1.0995    3.1443   -0.7348 H   0  0  0  0  0  0  0  0  0  0  0  0
    1.6881    1.4072    1.7056 H   0  0  0  0  0  0  0  0  0  0  0  0
    2.0270    3.1320    1.6141 H   0  0  0  0  0  0  0  0  0  0  0  0
   -0.3646    3.7274    1.1829 H   0  0  0  0  0  0  0  0  0  0  0  0
   -0.8328    2.0383    1.3658 H   0  0  0  0  0  0  0  0  0  0  0  0
    3.5932    2.7425   -0.2917 H   0  0  0  0  0  0  0  0  0  0  0  0
    4.0744    1.8980    1.1865 H   0  0  0  0  0  0  0  0  0  0  0  0
   -1.2552    3.5120   -1.3054 H   0  0  0  0  0  0  0  0  0  0  0  0
    3.1498    0.7480   -1.3476 H   0  0  0  0  0  0  0  0  0  0  0  0
   -3.4017    4.0227   -0.5515 H   0  0  0  0  0  0  0  0  0  0  0  0
   -2.3167    4.7315    0.4349 H   0  0  0  0  0  0  0  0  0  0  0  0
   -2.0709    0.2828   -2.1720 H   0  0  0  0  0  0  0  0  0  0  0  0
  1  2  1  0  0  0  0
  1  8  1  0  0  0  0
  2 13  1  0  0  0  0
  3 19  2  0  0  0  0
  4 21  1  0  0  0  0
  4 47  1  0  0  0  0
  5 21  2  0  0  0  0
  6 18  1  0  0  0  0
  6 19  1  0  0  0  0
  6 44  1  0  0  0  0
  7 20  1  0  0  0  0
  7 45  1  0  0  0  0
  7 46  1  0  0  0  0
  8  9  1  0  0  0  0
  8 11  1  0  0  0  0
  8 22  1  0  0  0  0
  9 10  1  0  0  0  0
  9 23  1  0  0  0  0
  9 24  1  0  0  0  0
 10 12  1  0  0  0  0
 10 25  1  0  0  0  0
 10 26  1  0  0  0  0
 11 13  1  0  0  0  0
 11 27  1  0  0  0  0
 11 28  1  0  0  0  0
 12 14  1  0  0  0  0
 12 29  1  0  0  0  0
 12 30  1  0  0  0  0
 13 31  1  0  0  0  0
 13 32  1  0  0  0  0
 14 19  1  0  0  0  0
 14 33  1  0  0  0  0
 14 34  1  0  0  0  0
 15 16  1  0  0  0  0
 15 17  1  0  0  0  0
 15 35  1  0  0  0  0
 15 36  1  0  0  0  0
 16 18  1  0  0  0  0
 16 37  1  0  0  0  0
 16 38  1  0  0  0  0
 17 20  1  0  0  0  0
 17 39  1  0  0  0  0
 17 40  1  0  0  0  0
 18 41  1  0  0  0  0
 18 42  1  0  0  0  0
 20 21  1  0  0  0  0
 20 43  1  0  0  0  0
M  END
> <PUBCHEM_COMPOUND_CID>
14345430

> <PUBCHEM_CONFORMER_RMSD>
1.2

> <PUBCHEM_CONFORMER_DIVERSEORDER>
1
35
178
221
146
62
45
6
72
69
71
102
14
206
212
203
149
222
56
115
132
66
175
36
2
188
16
41
86
214
23
164
173
124
135
156
142
64
24
34
20
89
5
211
116
99
40
145
167
52
184
25
82
75
197
171
74
207
202
110
60
198
107
3
172
123
93
55
15
91
18
47
27
106
79
121
119
10
9
136
155
160
26
138
68
8
46
109
186
98
139
217
159
161
194
120
59
144
215
31
67
21
54
148
48
50
125
103
137
191
70
44
174
162
42
87
209
105
218
192
97
147
88
224
28
33
176
151
101
76
189
61
95
92
104
17
111
131
183
181
53
58
84
223
127
108
12
195
126
77
4
185
29
163
63
193
168
158
213
94
165
112
22
152
196
117
49
43
141
78
83
19
187
140
39
65
190
51
113
134
205
13
177
38
199
90
118
37
157
180
11
7
150
179
130
57
32
100
153
154
128
182
170
85
220
208
204
133
114
201
210
30
169
81
80
96
216
166
73
129
122
219
200
143

> <PUBCHEM_MMFF94_PARTIAL_CHARGES>
18
1 -0.23
13 0.23
14 0.06
18 0.3
19 0.57
2 -0.23
20 0.33
21 0.66
3 -0.57
4 -0.65
44 0.37
45 0.36
46 0.36
47 0.5
5 -0.57
6 -0.73
7 -0.99
8 0.23

> <PUBCHEM_EFFECTIVE_ROTOR_COUNT>
13

> <PUBCHEM_PHARMACOPHORE_FEATURES>
9
1 3 acceptor
1 4 acceptor
1 5 acceptor
1 6 donor
1 7 cation
1 7 donor
3 4 5 21 anion
4 9 10 12 14 hydrophobe
5 1 2 8 11 13 rings

> <PUBCHEM_HEAVY_ATOM_COUNT>
21

> <PUBCHEM_ATOM_DEF_STEREO_COUNT>
1

> <PUBCHEM_ATOM_UDEF_STEREO_COUNT>
1

> <PUBCHEM_BOND_DEF_STEREO_COUNT>
0

> <PUBCHEM_BOND_UDEF_STEREO_COUNT>
0

> <PUBCHEM_ISOTOPIC_ATOM_COUNT>
0

> <PUBCHEM_COMPONENT_COUNT>
1

> <PUBCHEM_CACTVS_TAUTO_COUNT>
2

> <PUBCHEM_CONFORMER_ID>
00DAE4D600000001

> <PUBCHEM_MMFF94_ENERGY>
13.3076

> <PUBCHEM_FEATURE_SELFOVERLAP>
45.729

> <PUBCHEM_SHAPE_FINGERPRINT>
10708813 3 17334499796494474815
108634 29 18268714900816224878
12422481 6 18194428721832351547
12553582 1 17904766935374159088
12788726 201 18261117417133472570
13075007 39 17465121705350749123
13122387 1 18122344579704552832
13402501 40 18411701001770896235
14363568 33 17398695860776666504
14790565 3 17040077005226228597
15003188 8 17406819052824931824
17859628 37 18055365883526754574
19026451 147 17186125710637474159
19930381 70 17691394631046492135
20621476 13 17762047040618045207
20621476 7 18122915479695420555
3014063 31 18339637957741346751
35225 105 17822559517418951163
437795 51 18263913373036289725
5283268 108 18336840795533202874
539174 4 17695660680459459811

> <PUBCHEM_SHAPE_MULTIPOLES>
412.3
7.17
5.25
1.46
1.78
4.27
0.15
-3.52
1.74
-1.93
-0.77
-0.53
-0.44
1.4

> <PUBCHEM_SHAPE_SELFOVERLAP>
772.099

> <PUBCHEM_SHAPE_VOLUME>
257.2

> <PUBCHEM_COORDINATE_TYPE>
2
5
10

$$$$
